#------------------------------------------------------------------------------
#$Date: 2021-07-05 20:10:48 +0300 (Mon, 05 Jul 2021) $
#$Revision: 267123 $
#$URL: file:///home/coder/svn-repositories/cod/cif/7/24/28/7242874.cif $
#------------------------------------------------------------------------------
#
# This file is available in the Crystallography Open Database (COD),
# http://www.crystallography.net/
#
# All data on this site have been placed in the public domain by the
# contributors.
#
data_7242874
loop_
_publ_author_name
'Richardson, Jonathan G.'
'Mizuno, Asato'
'Shuku, Yoshiaki'
'Awaga, Kunio'
'Robertson, Neil'
'Morrison, Carole A.'
'Warren, Mark R.'
'Allan, David R.'
'Moggach, Stephen A.'
_publ_section_title
;
 Evaluating the high-pressure structural response and crystal lattice
 interactions of the magnetically-bistable organic radical TTTA
;
_journal_issue                   25
_journal_name_full               CrystEngComm
_journal_page_first              4444
_journal_page_last               4450
_journal_paper_doi               10.1039/D1CE00577D
_journal_volume                  23
_journal_year                    2021
_chemical_formula_moiety         'C2 N3 S3'
_chemical_formula_sum            'C2 N3 S3'
_chemical_formula_weight         162.24
_space_group_IT_number           14
_space_group_name_Hall           '-P 2ybc'
_space_group_name_H-M_alt        'P 1 21/c 1'
_symmetry_cell_setting           monoclinic
_symmetry_space_group_name_Hall  '-P 2ybc'
_symmetry_space_group_name_H-M   'P 1 21/c 1'
_atom_sites_solution_hydrogens   difmap
_atom_sites_solution_primary     direct
_audit_creation_date             2021-03-23
_audit_creation_method           CRYSTALS_ver_14.61_build_6999
_audit_update_record
;
2021-04-27 deposited with the CCDC.	2021-05-18 downloaded from the CCDC.
;
_cell_angle_alpha                90
_cell_angle_beta                 104.552(3)
_cell_angle_gamma                90
_cell_formula_units_Z            4
_cell_length_a                   9.43880(2)
_cell_length_b                   3.710000(14)
_cell_length_c                   15.05490(3)
_cell_measurement_reflns_used    4452
_cell_measurement_temperature    295
_cell_measurement_theta_max      27
_cell_measurement_theta_min      3
_cell_volume                     510.279(7)
_computing_cell_refinement       'Apex2 (Bruker AXS, 2006)'
_computing_data_collection       'Apex2 (Bruker AXS, 2006)'
_computing_data_reduction        'Apex2 (Bruker AXS, 2006)'
_computing_molecular_graphics    'CAMERON (Watkin et al., 1996)'
_computing_publication_material  'CRYSTALS (Betteridge et al., 2003)'
_computing_structure_refinement  'CRYSTALS (Betteridge et al., 2003)'
_computing_structure_solution    'SIR92 (Altomare et al., 1994)'
_diffrn_ambient_temperature      295
_diffrn_measured_fraction_theta_full 0.995
_diffrn_measured_fraction_theta_max 0.995
_diffrn_measurement_device       Area
_diffrn_measurement_device_type  'Bruker Kappa Apex2'
_diffrn_measurement_method       \w
_diffrn_radiation_monochromator  graphite
_diffrn_radiation_type           'Mo K\a'
_diffrn_radiation_wavelength     0.71073
_diffrn_reflns_av_R_equivalents  0.022
_diffrn_reflns_av_unetI/netI     0.029
_diffrn_reflns_limit_h_max       11
_diffrn_reflns_limit_h_min       -11
_diffrn_reflns_limit_k_max       4
_diffrn_reflns_limit_k_min       -4
_diffrn_reflns_limit_l_max       18
_diffrn_reflns_limit_l_min       -18
_diffrn_reflns_number            4849
_diffrn_reflns_theta_full        26.518
_diffrn_reflns_theta_max         26.518
_diffrn_reflns_theta_min         2.796
_diffrn_standards_number         0
_exptl_absorpt_coefficient_mu    1.315
_exptl_absorpt_correction_T_max  0.88
_exptl_absorpt_correction_T_min  0.75
_exptl_absorpt_correction_type   multi-scan
_exptl_absorpt_process_details   'SADABS (Siemens, 1996)'
_exptl_crystal_colour            blue/black
_exptl_crystal_density_diffrn    2.112
_exptl_crystal_density_meas      ?
_exptl_crystal_density_method    'not measured'
_exptl_crystal_description       block
_exptl_crystal_F_000             324
_exptl_crystal_size_max          0.120
_exptl_crystal_size_mid          0.100
_exptl_crystal_size_min          0.100
_refine_diff_density_max         0.55
_refine_diff_density_min         -0.43
_refine_ls_extinction_method     None
_refine_ls_goodness_of_fit_ref   0.9909
_refine_ls_hydrogen_treatment    noref
_refine_ls_matrix_type           full
_refine_ls_number_parameters     73
_refine_ls_number_reflns         1061
_refine_ls_number_restraints     80
_refine_ls_R_factor_all          0.0266
_refine_ls_R_factor_gt           0.0260
_refine_ls_shift/su_max          0.0008446
_refine_ls_shift/su_mean         0.0000560
_refine_ls_structure_factor_coef Fsqd
_refine_ls_weighting_details
;
 Method= Modified Sheldrick 
 w=1/[\s^2^(F^2^) + ( 0.03P)^2^ + 0.59P] 
 ,where P=(max(Fo^2^,0) + 2Fc^2^)/3 
;
_refine_ls_weighting_scheme      calc
_refine_ls_wR_factor_all         0.0666
_refine_ls_wR_factor_gt          0.0660
_refine_ls_wR_factor_ref         0.0666
_reflns_limit_h_max              11
_reflns_limit_h_min              -11
_reflns_limit_k_max              4
_reflns_limit_k_min              0
_reflns_limit_l_max              18
_reflns_limit_l_min              0
_reflns_number_gt                1031
_reflns_number_total             1061
_reflns_threshold_expression     I>2.0\s(I)
_oxford_diffrn_Wilson_B_factor   2.48
_oxford_diffrn_Wilson_scale      0.80
_oxford_refine_ls_r_factor_ref   0.0266
_oxford_refine_ls_scale          1.181(6)
_oxford_reflns_number_all        1061
_iucr_refine_instructions_details
;
#
# Punched on 23/03/21 at 22:41:19
#
#LIST     12                                                                    
BLOCK SCALE X'S  U'S 
END                                                                             
#
# Punched on 23/03/21 at 22:41:19
#
#LIST     16                                                                    
NO 
REM   HREST   START (DO NOT REMOVE THIS LINE) 
REM   HREST   END (DO NOT REMOVE THIS LINE) 
REM   SHIFTLIMIT   START (DO NOT REMOVE THIS LINE) 
LIMIT      0.01000000 U[ISO] 
LIMIT      0.01000000 X 
LIMIT      0.01000000 Y 
LIMIT      0.01000000 Z 
LIMIT      0.01000000 U[11] 
LIMIT      0.01000000 U[22] 
LIMIT      0.01000000 U[33] 
LIMIT      0.01000000 U[12] 
LIMIT      0.01000000 U[13] 
LIMIT      0.01000000 U[23] 
LIMIT      0.01000000 OCC 
REM   SHIFTLIMIT   END (DO NOT REMOVE THIS LINE) 
END                                                                             
;
_cod_data_source_file            d1ce00577d2.cif
_cod_data_source_block           ambient
_cod_depositor_comments
;
The following automatic conversions were performed:

data item '_exptl_crystal_density_meas' value 'not measured' was
changed to '?' -- the value is perceived as not measured.

Automatic conversion script
Id: cif_fix_values 7556 2019-12-06 15:28:31Z antanas 

 Adding full bibliography for 7242874--7242883.cif.
;
_cod_original_cell_volume        510.279(6)
_cod_original_sg_symbol_H-M      'P 1 21/c 1 '
_cod_database_code               7242874
_oxford_refine_reflns_threshold_expression_ref I>-3.0\s(I)
_iucr_refine_reflections_details
; 
 
# Data was input as F-squared 
# punching LIST  6 as LIST  6 with all keys set 
# NBGNXT=    36 
#LIST   6 
READ NCOEF= 8 TYPE=FIX, F'S = FSQ UNIT=DATA, CHECK=NO L30=NO ARCH=NO 
STORE  NCOEF= 6 
OUTPUT INDICES     /FO/        SIGMA(/FO/) RATIO/JCODE CORRECTIONS SERIAL 
CONT 
INPUT  H           K           L           /FO/        SIGMA(/FO/) JCODE 
CONT   CORRECTIONS SERIAL 
FOR (I4,I4,I4,F10.2,F8.2,F4.0,F7.4,F7.0) 
END 
   1   0   0     -9.70    0.10  0. 1.0000     0. 
  -1   0   0     -9.70    0.10  0. 1.0000     0. 
  -2   0   0   6452.25  174.98  0. 1.0000     0. 
  -3   0   0   5813.02  154.18  0. 1.0000     0. 
   3   0   0   5515.15  154.28  0. 1.0000     0. 
  -3   0   0   5806.32  154.38  0. 1.0000     0. 
  -3   0   0   5586.94  154.68  0. 1.0000     0. 
  -4   0   0   4156.88  115.39  0. 1.0000     0. 
  -4   0   0   4398.46  114.99  0. 1.0000     0. 
   4   0   0   4110.49  114.99  0. 1.0000     0. 
  -4   0   0   4195.48  114.69  0. 1.0000     0. 
   5   0   0   1252.87   33.70  0. 1.0000     0. 
  -5   0   0   1218.48   33.70  0. 1.0000     0. 
  -5   0   0   1206.08   33.80  0. 1.0000     0. 
  -5   0   0   1272.67   33.70  0. 1.0000     0. 
  -6   0   0   1428.56   37.10  0. 1.0000     0. 
  -6   0   0   1345.97   37.10  0. 1.0000     0. 
   6   0   0   1377.96   37.10  0. 1.0000     0. 
  -6   0   0   1279.67   37.00  0. 1.0000     0. 
  -7   0   0    385.16   11.00  0. 1.0000     0. 
   7   0   0    382.26   11.00  0. 1.0000     0. 
  -7   0   0    392.06   11.00  0. 1.0000     0. 
   8   0   0   2603.24   72.69  0. 1.0000     0. 
  -8   0   0   2751.62   72.59  0. 1.0000     0. 
  -8   0   0   2661.53   72.69  0. 1.0000     0. 
  -9   0   0    327.67    9.60  0. 1.0000     0. 
   9   0   0    321.07    9.60  0. 1.0000     0. 
  10   0   0     10.10    1.30  0. 1.0000     0. 
  11   0   0     27.00    2.00  0. 1.0000     0. 
  -2  -1   0    553.24   15.40  0. 1.0000     0. 
   2  -1   0    551.74   15.40  0. 1.0000     0. 
   2  -1   0    578.84   15.30  0. 1.0000     0. 
  -2  -1   0    571.44   15.10  0. 1.0000     0. 
  -2  -1   0    528.95   15.10  0. 1.0000     0. 
   2   1   0    554.04   15.20  0. 1.0000     0. 
  -2   1   0    542.25   15.10  0. 1.0000     0. 
  -3  -1   0    426.26   12.30  0. 1.0000     0. 
   3  -1   0    461.35   12.50  0. 1.0000     0. 
  -3  -1   0    440.06   12.20  0. 1.0000     0. 
   3  -1   0    443.66   12.60  0. 1.0000     0. 
  -3  -1   0    470.75   12.60  0. 1.0000     0. 
  -3   1   0    452.05   12.20  0. 1.0000     0. 
   3   1   0    455.45   12.40  0. 1.0000     0. 
  -3   1   0    443.56   12.70  0. 1.0000     0. 
  -4  -1   0   2410.96   62.49  0. 1.0000     0. 
  -4  -1   0   2188.78   61.89  0. 1.0000     0. 
   4  -1   0   2329.37   62.69  0. 1.0000     0. 
  -4  -1   0   2153.78   61.69  0. 1.0000     0. 
  -4   1   0   2323.27   61.99  0. 1.0000     0. 
   4   1   0   2252.67   62.19  0. 1.0000     0. 
  -5  -1   0    146.59    4.70  0. 1.0000     0. 
  -5  -1   0    143.69    4.30  0. 1.0000     0. 
  -5  -1   0    157.28    4.20  0. 1.0000     0. 
   5  -1   0    149.49    4.60  0. 1.0000     0. 
   5   1   0    146.19    4.40  0. 1.0000     0. 
  -5   1   0    146.89    4.70  0. 1.0000     0. 
  -5   1   0    153.98    4.80  0. 1.0000     0. 
   6  -1   0     15.10    1.00  0. 1.0000     0. 
  -6  -1   0     14.90    0.80  0. 1.0000     0. 
  -6  -1   0     15.40    0.80  0. 1.0000     0. 
  -6  -1   0     12.60    1.00  0. 1.0000     0. 
  -6   1   0     14.90    1.10  0. 1.0000     0. 
  -6   1   0     13.80    1.10  0. 1.0000     0. 
   6   1   0     13.80    0.90  0. 1.0000     0. 
  -7  -1   0   1514.05   41.90  0. 1.0000     0. 
   7  -1   0   1559.74   41.90  0. 1.0000     0. 
  -7   1   0   1555.64   42.00  0. 1.0000     0. 
   7   1   0   1436.96   41.60  0. 1.0000     0. 
  -7   1   0   1557.84   41.90  0. 1.0000     0. 
  -8  -1   0     85.39    3.30  0. 1.0000     0. 
   8  -1   0     91.09    3.30  0. 1.0000     0. 
  -8   1   0     84.39    3.30  0. 1.0000     0. 
  -8   1   0     97.69    3.40  0. 1.0000     0. 
   8   1   0     85.29    3.10  0. 1.0000     0. 
   9  -1   0    749.13   21.40  0. 1.0000     0. 
  -9   1   0    752.92   21.40  0. 1.0000     0. 
  -9   1   0    741.93   21.30  0. 1.0000     0. 
   9   1   0    773.92   21.20  0. 1.0000     0. 
  10  -1   0    158.08    5.40  0. 1.0000     0. 
 -10   1   0    149.79    5.20  0. 1.0000     0. 
 -10   1   0    150.48    5.30  0. 1.0000     0. 
  10   1   0    154.58    5.10  0. 1.0000     0. 
  11  -1   0     71.99    3.30  0. 1.0000     0. 
 -11   1   0     72.19    3.20  0. 1.0000     0. 
  11   1   0     72.99    3.10  0. 1.0000     0. 
   0  -2   0   1324.97   35.90  0. 1.0000     0. 
   0  -2   0   1315.17   35.90  0. 1.0000     0. 
   0  -2   0   1322.27   35.90  0. 1.0000     0. 
   0  -2   0   1289.27   36.00  0. 1.0000     0. 
   1  -2   0   2483.15   67.39  0. 1.0000     0. 
   1  -2   0   2580.24   68.09  0. 1.0000     0. 
   1  -2   0   2458.65   67.49  0. 1.0000     0. 
  -1  -2   0   2368.66   67.49  0. 1.0000     0. 
  -1  -2   0   2406.56   67.39  0. 1.0000     0. 
   1  -2   0   2396.76   67.39  0. 1.0000     0. 
  -1  -2   0   2558.24   67.59  0. 1.0000     0. 
   1   2   0   2565.44   67.59  0. 1.0000     0. 
   2  -2   0    105.19    3.50  0. 1.0000     0. 
  -2  -2   0    103.49    3.30  0. 1.0000     0. 
   2  -2   0    109.59    3.60  0. 1.0000     0. 
  -2  -2   0    104.59    3.60  0. 1.0000     0. 
   2  -2   0    106.79    3.40  0. 1.0000     0. 
  -2  -2   0    106.39    3.20  0. 1.0000     0. 
   2  -2   0    104.79    3.30  0. 1.0000     0. 
   2   2   0    101.69    3.40  0. 1.0000     0. 
   3  -2   0    747.63   19.90  0. 1.0000     0. 
   3  -2   0    711.73   20.00  0. 1.0000     0. 
  -3  -2   0    743.33   19.50  0. 1.0000     0. 
  -3  -2   0    716.53   20.00  0. 1.0000     0. 
   3   2   0    692.03   19.80  0. 1.0000     0. 
  -3   2   0    665.13   19.60  0. 1.0000     0. 
  -4  -2   0    211.98    6.60  0. 1.0000     0. 
   4  -2   0    217.48    6.60  0. 1.0000     0. 
   4  -2   0    214.78    6.40  0. 1.0000     0. 
  -4   2   0    209.18    6.60  0. 1.0000     0. 
   4   2   0    201.88    6.30  0. 1.0000     0. 
   5  -2   0    385.76   10.70  0. 1.0000     0. 
  -5  -2   0    363.26   10.90  0. 1.0000     0. 
   5   2   0    359.06   10.50  0. 1.0000     0. 
  -5   2   0    352.96   10.90  0. 1.0000     0. 
  -6  -2   0      9.80    1.30  0. 1.0000     0. 
  -6   2   0      8.90    1.30  0. 1.0000     0. 
   6   2   0     11.70    1.00  0. 1.0000     0. 
  -6   2   0      7.50    1.20  0. 1.0000     0. 
  -7  -2   0    164.88    5.70  0. 1.0000     0. 
   7  -2   0    172.28    5.50  0. 1.0000     0. 
  -7   2   0    167.08    5.60  0. 1.0000     0. 
  -7   2   0    162.38    5.70  0. 1.0000     0. 
   7   2   0    164.18    5.20  0. 1.0000     0. 
   8  -2   0    740.33   21.80  0. 1.0000     0. 
  -8  -2   0    760.82   22.10  0. 1.0000     0. 
  -8   2   0    774.82   21.90  0. 1.0000     0. 
  -8   2   0    762.82   22.00  0. 1.0000     0. 
   8   2   0    800.02   21.50  0. 1.0000     0. 
  -9  -2   0    329.47   10.50  0. 1.0000     0. 
   9  -2   0    329.57   10.30  0. 1.0000     0. 
   9   2   0    339.97    9.90  0. 1.0000     0. 
  -9   2   0    337.97   10.40  0. 1.0000     0. 
  -9   2   0    328.87   10.30  0. 1.0000     0. 
  10  -2   0     57.99    2.90  0. 1.0000     0. 
  10   2   0     55.09    2.60  0. 1.0000     0. 
 -10   2   0     54.49    2.90  0. 1.0000     0. 
 -10   2   0     62.89    3.00  0. 1.0000     0. 
   0  -3   0     13.70    1.10  0. 1.0000     0. 
   1  -3   0     10.70    1.10  0. 1.0000     0. 
  -1  -3   0     12.70    1.30  0. 1.0000     0. 
  -1  -3   0     12.40    1.00  0. 1.0000     0. 
   1  -3   0     11.30    1.10  0. 1.0000     0. 
   1  -3   0      8.90    1.10  0. 1.0000     0. 
   1  -3   0      9.00    1.10  0. 1.0000     0. 
   1   3   0     10.50    1.10  0. 1.0000     0. 
   2  -3   0    888.91   24.90  0. 1.0000     0. 
   2  -3   0    905.81   24.90  0. 1.0000     0. 
  -2  -3   0    896.01   25.20  0. 1.0000     0. 
   2  -3   0    891.71   25.00  0. 1.0000     0. 
   2   3   0    883.01   24.90  0. 1.0000     0. 
  -3  -3   0     25.40    1.80  0. 1.0000     0. 
   3  -3   0     26.20    1.60  0. 1.0000     0. 
   3  -3   0     25.80    1.70  0. 1.0000     0. 
   3   3   0     25.80    1.70  0. 1.0000     0. 
  -3   3   0     22.90    1.80  0. 1.0000     0. 
  -4  -3   0     50.19    2.60  0. 1.0000     0. 
   4  -3   0     48.20    2.30  0. 1.0000     0. 
   4  -3   0     48.20    2.50  0. 1.0000     0. 
  -4   3   0     46.00    2.50  0. 1.0000     0. 
   4   3   0     51.39    2.30  0. 1.0000     0. 
   5  -3   0     54.69    2.50  0. 1.0000     0. 
  -5  -3   0     51.89    2.80  0. 1.0000     0. 
  -5   3   0     59.79    2.90  0. 1.0000     0. 
   5   3   0     56.19    2.40  0. 1.0000     0. 
   6  -3   0     48.60    2.40  0. 1.0000     0. 
  -6  -3   0     46.40    2.60  0. 1.0000     0. 
   6   3   0     47.80    2.20  0. 1.0000     0. 
  -6   3   0     47.50    2.60  0. 1.0000     0. 
  -6   3   0     46.60    2.60  0. 1.0000     0. 
   7  -3   0     16.80    1.60  0. 1.0000     0. 
   7   3   0     21.10    1.50  0. 1.0000     0. 
  -7   3   0     18.60    1.80  0. 1.0000     0. 
  -7   3   0     16.00    1.80  0. 1.0000     0. 
   8  -3   0     51.49    2.70  0. 1.0000     0. 
  -8  -3   0     52.89    3.10  0. 1.0000     0. 
  -8   3   0     57.39    3.10  0. 1.0000     0. 
  -8   3   0     52.89    3.00  0. 1.0000     0. 
   8   3   0     58.49    2.50  0. 1.0000     0. 
   0   4   0      3.50    0.80  0. 1.0000     0. 
   1  -4   0      2.10    1.10  0. 1.0000     0. 
  -1  -4   0      3.00    0.90  0. 1.0000     0. 
   1   4   0      2.40    0.80  0. 1.0000     0. 
  -1   4   0      2.60    0.80  0. 1.0000     0. 
   2  -4   0      2.80    0.80  0. 1.0000     0. 
   2  -4   0      1.50    0.80  0. 1.0000     0. 
  -2  -4   0      1.80    0.90  0. 1.0000     0. 
   2   4   0      3.20    0.90  0. 1.0000     0. 
   3  -4   0     21.80    1.80  0. 1.0000     0. 
  -3  -4   0     16.50    1.90  0. 1.0000     0. 
   3  -4   0     17.70    1.80  0. 1.0000     0. 
  -3   4   0     18.40    1.90  0. 1.0000     0. 
   3   4   0     20.50    1.80  0. 1.0000     0. 
   4  -4   0     45.70    2.50  0. 1.0000     0. 
  -4  -4   0     43.10    2.80  0. 1.0000     0. 
   4   4   0     44.90    2.50  0. 1.0000     0. 
  -4   4   0     39.00    2.60  0. 1.0000     0. 
  -5  -4   0     28.60    2.40  0. 1.0000     0. 
   5  -4   0     27.70    2.00  0. 1.0000     0. 
   5   4   0     31.10    2.10  0. 1.0000     0. 
  -5   4   0     26.80    2.20  0. 1.0000     0. 
  -5   4   0     28.40    2.20  0. 1.0000     0. 
  11   0  -1      2.70    0.90  0. 1.0000     0. 
  10   0  -1      0.00    0.50  0. 1.0000     0. 
  -9   0   1     -0.60    0.40  0. 1.0000     0. 
   9   0  -1      0.50    0.40  0. 1.0000     0. 
  -9   0   1      0.00    0.50  0. 1.0000     0. 
   8   0  -1     -0.20    0.40  0. 1.0000     0. 
  -8   0   1      0.60    0.50  0. 1.0000     0. 
  -8   0   1      0.50    0.40  0. 1.0000     0. 
   7   0  -1     -0.20    0.40  0. 1.0000     0. 
  -7   0   1     -0.80    0.50  0. 1.0000     0. 
  -6   0   1      0.30    0.30  0. 1.0000     0. 
  -6   0   1      1.20    0.40  0. 1.0000     0. 
  -6   0   1      0.70    0.30  0. 1.0000     0. 
   6   0  -1      0.10    0.30  0. 1.0000     0. 
  -5   0   1      0.50    0.30  0. 1.0000     0. 
   5   0  -1      0.40    0.20  0. 1.0000     0. 
  -5   0   1      0.80    0.30  0. 1.0000     0. 
  -4   0   1      0.70    0.30  0. 1.0000     0. 
  -4   0   1      0.00    0.20  0. 1.0000     0. 
  -4   0   1      0.00    0.20  0. 1.0000     0. 
   4   0  -1      0.30    0.20  0. 1.0000     0. 
   3   0  -1     -0.20    0.20  0. 1.0000     0. 
  -2   0   1      0.30    0.20  0. 1.0000     0. 
   2   0  -1      0.10    0.20  0. 1.0000     0. 
   1   0  -1     -0.10    0.10  0. 1.0000     0. 
  -1   0   1      0.00    0.10  0. 1.0000     0. 
  -1   0   1      0.00    0.10  0. 1.0000     0. 
   1   0  -1      0.00    0.10  0. 1.0000     0. 
   0   0   1      0.00    0.10  0. 1.0000     0. 
   0   0  -1      0.00    0.10  0. 1.0000     0. 
  -1   0  -1     -3.40    0.10  0. 1.0000     0. 
  -2   0  -1      0.40    0.10  0. 1.0000     0. 
   2   0   1      0.20    0.10  0. 1.0000     0. 
   3   0   1     -0.80    0.20  0. 1.0000     0. 
  -3   0  -1     -1.00    0.20  0. 1.0000     0. 
  -4   0  -1      0.90    0.30  0. 1.0000     0. 
  -5   0  -1     -1.30    0.30  0. 1.0000     0. 
   5   0   1     -1.30    0.30  0. 1.0000     0. 
  -5   0  -1     -1.00    0.30  0. 1.0000     0. 
  -5   0  -1     -0.90    0.30  0. 1.0000     0. 
  -6   0  -1      0.00    0.30  0. 1.0000     0. 
  -7   0  -1     -0.40    0.40  0. 1.0000     0. 
   7   0   1      0.70    0.40  0. 1.0000     0. 
  -7   0  -1      0.10    0.50  0. 1.0000     0. 
  -9   0  -1      0.30    0.50  0. 1.0000     0. 
   9   0   1      0.20    0.50  0. 1.0000     0. 
  10   0   1     -0.10    0.60  0. 1.0000     0. 
  11   0   1     -0.70    0.60  0. 1.0000     0. 
  11  -1  -1     83.09    3.50  0. 1.0000     0. 
 -11   1   1     79.89    3.40  0. 1.0000     0. 
 -11   1   1     78.39    3.40  0. 1.0000     0. 
  11   1  -1     81.89    3.30  0. 1.0000     0. 
  10  -1  -1    411.56   12.30  0. 1.0000     0. 
 -10   1   1    403.06   12.10  0. 1.0000     0. 
 -10   1   1    412.06   12.20  0. 1.0000     0. 
  10   1  -1    414.66   12.00  0. 1.0000     0. 
   9  -1  -1    155.58    5.30  0. 1.0000     0. 
  -9   1   1    161.38    5.30  0. 1.0000     0. 
   9   1  -1    159.88    5.10  0. 1.0000     0. 
  -9   1   1    153.68    5.20  0. 1.0000     0. 
  -8  -1   1    420.86   12.70  0. 1.0000     0. 
   8  -1  -1    450.95   12.60  0. 1.0000     0. 
  -8   1   1    445.36   12.70  0. 1.0000     0. 
  -8   1   1    433.76   12.60  0. 1.0000     0. 
   8   1  -1    421.56   12.40  0. 1.0000     0. 
  -7  -1   1    455.15   13.50  0. 1.0000     0. 
   7  -1  -1    489.75   13.50  0. 1.0000     0. 
  -7   1   1    481.65   13.70  0. 1.0000     0. 
   7   1  -1    445.56   13.30  0. 1.0000     0. 
  -7   1   1    487.65   13.60  0. 1.0000     0. 
  -6  -1   1    249.18    6.80  0. 1.0000     0. 
  -6  -1   1    227.88    7.20  0. 1.0000     0. 
  -6  -1   1    232.78    6.80  0. 1.0000     0. 
   6  -1  -1    249.38    7.10  0. 1.0000     0. 
   6   1  -1    235.38    7.00  0. 1.0000     0. 
  -6   1   1    250.37    7.30  0. 1.0000     0. 
  -6   1   1    246.58    7.40  0. 1.0000     0. 
  -5  -1   1   2726.03   72.99  0. 1.0000     0. 
  -5  -1   1   2629.44   73.19  0. 1.0000     0. 
  -5  -1   1   2559.94   73.19  0. 1.0000     0. 
   5  -1  -1   2776.22   73.79  0. 1.0000     0. 
  -5   1   1   2805.92   73.89  0. 1.0000     0. 
  -5   1   1   2634.14   72.99  0. 1.0000     0. 
   5   1  -1   2636.54   73.59  0. 1.0000     0. 
  -5   1   1   2790.82   73.19  0. 1.0000     0. 
  -4  -1   1      3.50    0.30  0. 1.0000     0. 
  -4  -1   1      3.40    0.30  0. 1.0000     0. 
   4  -1  -1      3.20    0.40  0. 1.0000     0. 
  -4   1   1      3.60    0.20  0. 1.0000     0. 
   4   1  -1      3.20    0.50  0. 1.0000     0. 
  -4   1   1      2.90    0.60  0. 1.0000     0. 
  -4   1   1      4.10    0.60  0. 1.0000     0. 
  -3  -1   1   1020.60   29.50  0. 1.0000     0. 
  -3  -1   1   1076.99   29.60  0. 1.0000     0. 
  -3  -1   1   1127.19   29.90  0. 1.0000     0. 
   3  -1  -1   1103.99   29.80  0. 1.0000     0. 
  -3   1   1   1091.49   29.60  0. 1.0000     0. 
  -3   1   1   1124.19   29.90  0. 1.0000     0. 
   3   1  -1   1085.19   29.80  0. 1.0000     0. 
   2  -1  -1   7568.74  197.48  0. 1.0000     0. 
   2  -1  -1   6815.72  196.48  0. 1.0000     0. 
   2  -1  -1   7312.77  197.78  0. 1.0000     0. 
  -2  -1   1   7019.40  195.98  0. 1.0000     0. 
   2   1  -1   7268.77  196.68  0. 1.0000     0. 
  -2   1   1   7434.26  196.18  0. 1.0000     0. 
   1  -1  -1    152.68    4.40  0. 1.0000     0. 
  -1  -1   1    150.28    4.30  0. 1.0000     0. 
  -1  -1   1    154.38    4.30  0. 1.0000     0. 
   1  -1  -1    153.98    4.40  0. 1.0000     0. 
   1  -1  -1    154.08    4.50  0. 1.0000     0. 
  -1  -1   1    150.08    4.40  0. 1.0000     0. 
   1  -1  -1    154.88    4.40  0. 1.0000     0. 
   1   1  -1    155.28    4.40  0. 1.0000     0. 
   0  -1   1   1237.48   34.30  0. 1.0000     0. 
   0  -1  -1   1280.07   34.50  0. 1.0000     0. 
   0  -1  -1   1230.48   34.50  0. 1.0000     0. 
   0  -1   1   1280.67   34.50  0. 1.0000     0. 
   0  -1  -1   1272.47   34.60  0. 1.0000     0. 
   0  -1  -1   1267.07   34.30  0. 1.0000     0. 
   0  -1   1   1254.37   34.60  0. 1.0000     0. 
   0  -1   1   1272.07   34.60  0. 1.0000     0. 
   1  -1   1   9015.10  257.07  0. 1.0000     0. 
  -1  -1  -1   9559.04  257.47  0. 1.0000     0. 
   1  -1   1   9287.17  257.97  0. 1.0000     0. 
   1   1   1   9621.74  257.27  0. 1.0000     0. 
  -1   1  -1   9999.00  258.27  0. 1.0000     0. 
  -2  -1  -1   1685.03   46.30  0. 1.0000     0. 
   2  -1   1   1670.93   46.30  0. 1.0000     0. 
   2  -1   1   1742.73   46.30  0. 1.0000     0. 
  -2  -1  -1   1636.64   46.30  0. 1.0000     0. 
   2   1   1   1719.13   46.50  0. 1.0000     0. 
  -2   1  -1   1750.52   46.60  0. 1.0000     0. 
  -3  -1  -1    869.91   23.10  0. 1.0000     0. 
   3  -1   1    848.12   23.60  0. 1.0000     0. 
   3  -1   1    856.21   23.50  0. 1.0000     0. 
  -3  -1  -1    878.41   23.60  0. 1.0000     0. 
  -3  -1  -1    817.72   23.30  0. 1.0000     0. 
   3   1   1    852.91   23.30  0. 1.0000     0. 
  -3   1  -1    859.71   23.60  0. 1.0000     0. 
  -4  -1  -1     37.90    1.20  0. 1.0000     0. 
   4  -1   1     39.40    1.70  0. 1.0000     0. 
  -4  -1  -1     43.00    1.70  0. 1.0000     0. 
   4  -1   1     40.00    1.60  0. 1.0000     0. 
  -4  -1  -1     39.10    1.40  0. 1.0000     0. 
   4   1   1     43.10    1.50  0. 1.0000     0. 
  -4   1  -1     40.50    1.70  0. 1.0000     0. 
  -5  -1  -1   1483.75   39.30  0. 1.0000     0. 
  -5  -1  -1   1404.36   39.40  0. 1.0000     0. 
   5  -1   1   1478.75   39.70  0. 1.0000     0. 
  -5  -1  -1   1431.26   39.80  0. 1.0000     0. 
  -5   1  -1   1471.45   39.80  0. 1.0000     0. 
   5   1   1   1442.46   39.50  0. 1.0000     0. 
   6  -1   1     67.19    2.50  0. 1.0000     0. 
  -6  -1  -1     65.19    2.20  0. 1.0000     0. 
  -6  -1  -1     66.59    2.60  0. 1.0000     0. 
  -6   1  -1     69.29    2.60  0. 1.0000     0. 
   6   1   1     64.29    2.30  0. 1.0000     0. 
  -6   1  -1     69.89    2.60  0. 1.0000     0. 
  -7  -1  -1      8.70    1.10  0. 1.0000     0. 
   7  -1   1     12.30    1.10  0. 1.0000     0. 
  -7   1  -1      9.60    1.10  0. 1.0000     0. 
   7   1   1     10.90    0.90  0. 1.0000     0. 
   8  -1   1    160.98    5.40  0. 1.0000     0. 
   8   1   1    163.18    5.10  0. 1.0000     0. 
  -8   1  -1    163.08    5.30  0. 1.0000     0. 
  -8   1  -1    167.08    5.40  0. 1.0000     0. 
   9  -1   1     74.99    3.10  0. 1.0000     0. 
  -9   1  -1     81.99    3.10  0. 1.0000     0. 
  -9   1  -1     71.69    3.10  0. 1.0000     0. 
   9   1   1     75.49    2.90  0. 1.0000     0. 
  10  -1   1     29.50    1.90  0. 1.0000     0. 
  10   1   1     24.90    1.70  0. 1.0000     0. 
 -10   1  -1     25.90    1.80  0. 1.0000     0. 
 -10   1  -1     25.40    1.80  0. 1.0000     0. 
  11  -1   1     -0.30    0.60  0. 1.0000     0. 
 -11   1  -1     -0.10    0.70  0. 1.0000     0. 
  11   1   1     -0.10    0.60  0. 1.0000     0. 
  10  -2  -1     44.60    2.50  0. 1.0000     0. 
 -10   2   1     42.40    2.60  0. 1.0000     0. 
 -10   2   1     46.10    2.60  0. 1.0000     0. 
  10   2  -1     44.90    2.30  0. 1.0000     0. 
   9  -2  -1    626.64   18.40  0. 1.0000     0. 
  -9  -2   1    622.84   18.60  0. 1.0000     0. 
  -9   2   1    635.54   18.60  0. 1.0000     0. 
  -9   2   1    632.74   18.40  0. 1.0000     0. 
   9   2  -1    657.63   18.00  0. 1.0000     0. 
  -8  -2   1      1.40    0.80  0. 1.0000     0. 
   8  -2  -1      1.30    0.60  0. 1.0000     0. 
  -8   2   1      2.50    0.80  0. 1.0000     0. 
  -8   2   1      1.60    0.70  0. 1.0000     0. 
   8   2  -1      2.20    0.60  0. 1.0000     0. 
  -7  -2   1     26.60    1.70  0. 1.0000     0. 
   7  -2  -1     24.80    1.50  0. 1.0000     0. 
  -7   2   1     27.00    1.80  0. 1.0000     0. 
   7   2  -1     22.00    1.40  0. 1.0000     0. 
  -7   2   1     23.00    1.70  0. 1.0000     0. 
   6  -2  -1   1820.42   48.10  0. 1.0000     0. 
  -6  -2   1   1747.33   48.40  0. 1.0000     0. 
   6   2  -1   1699.33   47.90  0. 1.0000     0. 
  -6   2   1   1780.72   48.30  0. 1.0000     0. 
  -6   2   1   1722.53   48.40  0. 1.0000     0. 
   5  -2  -1    330.37    9.50  0. 1.0000     0. 
  -5  -2   1    316.27    9.70  0. 1.0000     0. 
   5   2  -1    310.57    9.30  0. 1.0000     0. 
  -5   2   1    318.27    9.80  0. 1.0000     0. 
  -5   2   1    336.97    9.70  0. 1.0000     0. 
   4  -2  -1    839.82   23.10  0. 1.0000     0. 
  -4  -2   1    832.22   23.30  0. 1.0000     0. 
  -4  -2   1    907.81   23.10  0. 1.0000     0. 
  -4   2   1    786.52   22.70  0. 1.0000     0. 
   4   2  -1    796.12   23.00  0. 1.0000     0. 
   3  -2  -1    724.83   19.80  0. 1.0000     0. 
  -3  -2   1    738.03   19.60  0. 1.0000     0. 
   3  -2  -1    708.03   19.90  0. 1.0000     0. 
   3  -2  -1    735.93   20.00  0. 1.0000     0. 
  -3  -2   1    706.53   20.00  0. 1.0000     0. 
   3   2  -1    693.83   19.80  0. 1.0000     0. 
  -3   2   1    678.93   19.60  0. 1.0000     0. 
  -2  -2   1    354.06   10.40  0. 1.0000     0. 
  -2  -2   1    365.56   10.10  0. 1.0000     0. 
   2  -2  -1    353.76   10.20  0. 1.0000     0. 
   2  -2  -1    356.36   10.30  0. 1.0000     0. 
   2  -2  -1    367.06   10.40  0. 1.0000     0. 
  -2  -2   1    355.36   10.00  0. 1.0000     0. 
   2   2  -1    356.06   10.20  0. 1.0000     0. 
   1  -2  -1   2834.22   79.09  0. 1.0000     0. 
  -1  -2   1   2885.61   78.69  0. 1.0000     0. 
   1  -2  -1   2912.41   78.59  0. 1.0000     0. 
  -1  -2   1   2918.91   78.49  0. 1.0000     0. 
   1  -2  -1   2864.51   79.09  0. 1.0000     0. 
   1  -2  -1   2866.61   79.59  0. 1.0000     0. 
  -1  -2   1   2937.91   79.19  0. 1.0000     0. 
   1   2  -1   2914.01   78.49  0. 1.0000     0. 
   0  -2  -1    246.68    7.10  0. 1.0000     0. 
   0  -2   1    241.38    7.10  0. 1.0000     0. 
   0  -2   1    247.18    7.20  0. 1.0000     0. 
   0  -2   1    241.08    7.20  0. 1.0000     0. 
   0  -2   1    245.28    7.10  0. 1.0000     0. 
   0  -2  -1    243.08    7.20  0. 1.0000     0. 
   0  -2  -1    245.38    7.20  0. 1.0000     0. 
   1  -2   1     44.30    1.80  0. 1.0000     0. 
   1  -2   1     40.70    1.60  0. 1.0000     0. 
  -1  -2  -1     40.60    1.80  0. 1.0000     0. 
  -1  -2  -1     44.40    1.60  0. 1.0000     0. 
  -1  -2  -1     41.70    1.70  0. 1.0000     0. 
   1   2   1     42.30    1.70  0. 1.0000     0. 
   2  -2   1   4462.75  120.99  0. 1.0000     0. 
  -2  -2  -1   4444.16  120.89  0. 1.0000     0. 
   2  -2   1   4515.05  120.69  0. 1.0000     0. 
  -2  -2  -1   4556.44  120.69  0. 1.0000     0. 
  -2  -2  -1   4315.37  120.79  0. 1.0000     0. 
   2  -2   1   4518.35  122.09  0. 1.0000     0. 
   2   2   1   4379.36  120.69  0. 1.0000     0. 
  -2   2  -1   4298.47  120.39  0. 1.0000     0. 
  -3  -2  -1    196.78    5.60  0. 1.0000     0. 
   3  -2   1    205.08    5.90  0. 1.0000     0. 
   3  -2   1    194.78    6.00  0. 1.0000     0. 
  -3  -2  -1    196.28    6.10  0. 1.0000     0. 
  -3   2  -1    188.98    6.00  0. 1.0000     0. 
   3   2   1    184.78    5.70  0. 1.0000     0. 
  -3   2  -1    177.48    5.50  0. 1.0000     0. 
  -4  -2  -1      1.10    0.50  0. 1.0000     0. 
   4  -2   1      0.40    0.40  0. 1.0000     0. 
   4  -2   1      0.80    0.50  0. 1.0000     0. 
  -4   2  -1      0.30    0.40  0. 1.0000     0. 
   4   2   1      0.90    0.40  0. 1.0000     0. 
   5  -2   1     30.30    1.60  0. 1.0000     0. 
   5  -2   1     28.90    1.70  0. 1.0000     0. 
  -5  -2  -1     27.50    1.70  0. 1.0000     0. 
   5   2   1     27.00    1.40  0. 1.0000     0. 
  -5   2  -1     26.60    1.60  0. 1.0000     0. 
   6  -2   1     27.80    1.60  0. 1.0000     0. 
  -6  -2  -1     25.90    1.70  0. 1.0000     0. 
   6   2   1     27.10    1.30  0. 1.0000     0. 
  -6   2  -1     23.60    1.60  0. 1.0000     0. 
   7  -2   1     22.20    1.50  0. 1.0000     0. 
  -7  -2  -1     22.10    1.60  0. 1.0000     0. 
   7   2   1     22.40    1.30  0. 1.0000     0. 
  -7   2  -1     21.40    1.60  0. 1.0000     0. 
  -7   2  -1     22.20    1.60  0. 1.0000     0. 
  -8  -2  -1    148.19    5.40  0. 1.0000     0. 
   8  -2   1    141.49    5.20  0. 1.0000     0. 
  -8   2  -1    151.08    5.30  0. 1.0000     0. 
  -8   2  -1    150.18    5.30  0. 1.0000     0. 
   8   2   1    157.68    4.90  0. 1.0000     0. 
   9  -2   1      1.40    0.70  0. 1.0000     0. 
  -9  -2  -1      0.10    0.80  0. 1.0000     0. 
   9   2   1      1.80    0.70  0. 1.0000     0. 
  -9   2  -1     -0.30    0.90  0. 1.0000     0. 
  -9   2  -1      0.00    0.70  0. 1.0000     0. 
  10  -2   1     50.79    2.70  0. 1.0000     0. 
  10   2   1     49.90    2.40  0. 1.0000     0. 
 -10   2  -1     50.99    2.70  0. 1.0000     0. 
 -10   2  -1     46.50    2.70  0. 1.0000     0. 
  -8  -3   1     -0.40    0.90  0. 1.0000     0. 
   8  -3  -1      0.60    0.70  0. 1.0000     0. 
   8   3  -1      1.10    0.70  0. 1.0000     0. 
  -8   3   1     -1.10    0.80  0. 1.0000     0. 
  -8   3   1     -0.70    0.90  0. 1.0000     0. 
  -7  -3   1    108.99    4.50  0. 1.0000     0. 
   7  -3  -1    110.39    4.20  0. 1.0000     0. 
  -7   3   1    109.89    4.50  0. 1.0000     0. 
   7   3  -1    106.79    3.90  0. 1.0000     0. 
  -7   3   1    104.79    4.30  0. 1.0000     0. 
  -6  -3   1      0.80    0.80  0. 1.0000     0. 
   6  -3  -1      0.40    0.50  0. 1.0000     0. 
  -6   3   1     -0.40    0.70  0. 1.0000     0. 
  -6   3   1      0.50    0.70  0. 1.0000     0. 
   6   3  -1      0.60    0.70  0. 1.0000     0. 
  -5  -3   1    306.97   10.00  0. 1.0000     0. 
   5  -3  -1    320.67    9.60  0. 1.0000     0. 
  -5   3   1    323.47    9.90  0. 1.0000     0. 
  -5   3   1    323.97   10.00  0. 1.0000     0. 
   5   3  -1    318.27    9.50  0. 1.0000     0. 
  -4  -3   1    184.08    6.40  0. 1.0000     0. 
   4  -3  -1    189.88    6.10  0. 1.0000     0. 
  -4   3   1    185.68    6.40  0. 1.0000     0. 
   4   3  -1    194.98    6.10  0. 1.0000     0. 
   3  -3  -1      1.00    0.50  0. 1.0000     0. 
  -3  -3   1      0.90    0.70  0. 1.0000     0. 
   3  -3  -1      0.70    0.60  0. 1.0000     0. 
   3   3  -1      0.10    0.60  0. 1.0000     0. 
   2  -3  -1    225.58    6.70  0. 1.0000     0. 
   2  -3  -1    211.18    6.70  0. 1.0000     0. 
   2  -3  -1    218.68    6.80  0. 1.0000     0. 
  -2  -3   1    211.48    6.90  0. 1.0000     0. 
   2  -3  -1    212.48    6.60  0. 1.0000     0. 
   2   3  -1    214.18    6.70  0. 1.0000     0. 
   1  -3  -1    893.21   24.40  0. 1.0000     0. 
   1  -3  -1    853.81   24.20  0. 1.0000     0. 
   1  -3  -1    864.21   24.40  0. 1.0000     0. 
  -1  -3   1    864.91   24.20  0. 1.0000     0. 
  -1  -3   1    854.31   24.50  0. 1.0000     0. 
   1  -3  -1    880.11   24.30  0. 1.0000     0. 
   1   3  -1    887.21   24.40  0. 1.0000     0. 
   0  -3  -1     12.60    1.20  0. 1.0000     0. 
   0  -3   1     13.70    1.20  0. 1.0000     0. 
   0  -3  -1     13.60    1.20  0. 1.0000     0. 
   0  -3  -1     13.00    1.10  0. 1.0000     0. 
   0  -3   1     13.90    1.20  0. 1.0000     0. 
   0   3   1     12.40    1.20  0. 1.0000     0. 
   1  -3   1     15.80    1.30  0. 1.0000     0. 
   1  -3   1     15.10    1.20  0. 1.0000     0. 
   1  -3   1     15.10    1.30  0. 1.0000     0. 
  -1   3  -1     16.80    1.30  0. 1.0000     0. 
   2  -3   1    702.63   19.70  0. 1.0000     0. 
  -2  -3  -1    693.63   20.10  0. 1.0000     0. 
   2  -3   1    705.93   19.80  0. 1.0000     0. 
   2  -3   1    707.23   20.00  0. 1.0000     0. 
   2   3   1    707.93   19.70  0. 1.0000     0. 
  -2   3  -1    693.43   19.90  0. 1.0000     0. 
  -3  -3  -1   1070.79   30.90  0. 1.0000     0. 
   3  -3   1   1121.09   30.70  0. 1.0000     0. 
   3  -3   1   1127.09   30.80  0. 1.0000     0. 
   3   3   1   1084.49   30.50  0. 1.0000     0. 
  -3   3  -1   1103.79   30.80  0. 1.0000     0. 
  -4  -3  -1   1023.40   29.50  0. 1.0000     0. 
   4  -3   1   1067.39   29.30  0. 1.0000     0. 
   4  -3   1   1072.99   29.20  0. 1.0000     0. 
  -4   3  -1   1041.20   29.30  0. 1.0000     0. 
   4   3   1   1009.80   28.90  0. 1.0000     0. 
  -5  -3  -1    132.79    5.00  0. 1.0000     0. 
   5  -3   1    137.29    4.80  0. 1.0000     0. 
   5  -3   1    133.89    4.90  0. 1.0000     0. 
   5   3   1    133.29    4.50  0. 1.0000     0. 
  -5   3  -1    132.29    4.90  0. 1.0000     0. 
  -6  -3  -1    264.57    8.60  0. 1.0000     0. 
   6  -3   1    252.87    8.30  0. 1.0000     0. 
  -6   3  -1    269.17    8.50  0. 1.0000     0. 
   6   3   1    258.07    7.90  0. 1.0000     0. 
   7  -3   1    165.78    6.00  0. 1.0000     0. 
  -7  -3  -1    176.38    6.40  0. 1.0000     0. 
  -7   3  -1    170.18    6.20  0. 1.0000     0. 
   7   3   1    177.68    5.60  0. 1.0000     0. 
  -7   3  -1    177.88    6.20  0. 1.0000     0. 
  -8  -3  -1     98.49    4.50  0. 1.0000     0. 
   8  -3   1     99.89    4.20  0. 1.0000     0. 
  -8   3  -1     99.79    4.30  0. 1.0000     0. 
  -8   3  -1    101.89    4.30  0. 1.0000     0. 
   8   3   1    109.39    3.80  0. 1.0000     0. 
  -6  -4   1     90.09    4.30  0. 1.0000     0. 
  -5  -4   1     50.59    3.10  0. 1.0000     0. 
  -5   4   1     50.79    3.00  0. 1.0000     0. 
  -5   4   1     54.29    2.90  0. 1.0000     0. 
   5   4  -1     52.69    2.70  0. 1.0000     0. 
  -4  -4   1      0.00    0.90  0. 1.0000     0. 
   4   4  -1      1.30    0.90  0. 1.0000     0. 
  -4   4   1      2.10    1.00  0. 1.0000     0. 
  -4   4   1      1.00    0.80  0. 1.0000     0. 
  -3  -4   1      5.80    1.30  0. 1.0000     0. 
  -3   4   1      5.10    1.10  0. 1.0000     0. 
   3   4  -1      8.50    1.50  0. 1.0000     0. 
  -3   4   1      5.20    1.10  0. 1.0000     0. 
  -2  -4   1     48.90    2.70  0. 1.0000     0. 
   2   4  -1     51.39    2.60  0. 1.0000     0. 
   1  -4  -1      3.10    1.00  0. 1.0000     0. 
  -1  -4   1      3.10    1.00  0. 1.0000     0. 
   1   4  -1      2.30    0.90  0. 1.0000     0. 
   0  -4  -1    328.67   10.10  0. 1.0000     0. 
   0  -4   1    322.47   10.10  0. 1.0000     0. 
   0   4  -1    322.17   10.00  0. 1.0000     0. 
  -1  -4  -1     22.70    1.80  0. 1.0000     0. 
   1  -4   1     20.90    2.10  0. 1.0000     0. 
   2  -4   1    117.99    4.40  0. 1.0000     0. 
   2  -4   1    116.89    4.40  0. 1.0000     0. 
  -2  -4  -1    111.29    4.60  0. 1.0000     0. 
  -3  -4  -1    715.33   21.00  0. 1.0000     0. 
   3  -4   1    706.33   20.70  0. 1.0000     0. 
   3  -4   1    733.43   20.60  0. 1.0000     0. 
  -3   4  -1    708.53   20.70  0. 1.0000     0. 
   4  -4   1    184.48    6.40  0. 1.0000     0. 
   4  -4   1    183.28    6.50  0. 1.0000     0. 
  -4  -4  -1    189.48    6.80  0. 1.0000     0. 
  -4   4  -1    189.58    6.50  0. 1.0000     0. 
   5  -4   1     19.30    1.80  0. 1.0000     0. 
  -5  -4  -1     22.40    2.20  0. 1.0000     0. 
  -5   4  -1     20.70    2.00  0. 1.0000     0. 
  11   0  -2   1218.48   34.00  0. 1.0000     0. 
  10   0  -2    210.58    6.60  0. 1.0000     0. 
  -9   0   2    686.93   19.00  0. 1.0000     0. 
  -9   0   2    680.73   19.10  0. 1.0000     0. 
   9   0  -2    670.93   19.10  0. 1.0000     0. 
  -8   0   2    103.29    3.40  0. 1.0000     0. 
  -8   0   2    102.79    3.40  0. 1.0000     0. 
   8   0  -2    101.59    3.40  0. 1.0000     0. 
  -7   0   2   5522.85  151.28  0. 1.0000     0. 
   7   0  -2   5657.33  151.08  0. 1.0000     0. 
  -7   0   2   5270.57  150.58  0. 1.0000     0. 
  -7   0   2   5693.13  149.99  0. 1.0000     0. 
  -6   0   2    943.61   25.20  0. 1.0000     0. 
  -6   0   2    927.31   25.20  0. 1.0000     0. 
  -6   0   2    881.11   25.10  0. 1.0000     0. 
   6   0  -2    910.11   25.10  0. 1.0000     0. 
   5   0  -2     25.80    1.00  0. 1.0000     0. 
  -5   0   2     26.70    1.10  0. 1.0000     0. 
  -5   0   2     27.10    1.20  0. 1.0000     0. 
  -5   0   2     25.20    1.00  0. 1.0000     0. 
   4   0  -2   2004.40   55.29  0. 1.0000     0. 
  -4   0   2   1978.30   54.79  0. 1.0000     0. 
  -4   0   2   2064.99   55.69  0. 1.0000     0. 
  -4   0   2   2037.40   55.29  0. 1.0000     0. 
  -3   0   2   2242.68   60.09  0. 1.0000     0. 
   3   0  -2   2146.89   60.59  0. 1.0000     0. 
   3   0  -2   2167.08   60.49  0. 1.0000     0. 
  -3   0   2   2264.77   60.39  0. 1.0000     0. 
  -2   0   2     38.50    1.10  0. 1.0000     0. 
  -2   0   2     32.20    1.10  0. 1.0000     0. 
   2   0  -2     34.60    1.10  0. 1.0000     0. 
  -1   0   2   1744.63   47.90  0. 1.0000     0. 
   0   0   2      3.50    0.40  0. 1.0000     0. 
   1   0   2   4729.83  128.49  0. 1.0000     0. 
   2   0   2   3393.26   90.49  0. 1.0000     0. 
   2   0   2   3258.47   90.29  0. 1.0000     0. 
  -2   0  -2   3288.87   90.19  0. 1.0000     0. 
   3   0   2   7128.89  190.08  0. 1.0000     0. 
  -3   0  -2   6905.41  190.08  0. 1.0000     0. 
   3   0   2   6986.70  189.78  0. 1.0000     0. 
  -3   0  -2   6928.11  189.58  0. 1.0000     0. 
  -4   0  -2      2.00    0.40  0. 1.0000     0. 
   4   0   2      3.00    0.40  0. 1.0000     0. 
  -5   0  -2   1233.38   32.90  0. 1.0000     0. 
   5   0   2   1218.48   32.90  0. 1.0000     0. 
  -5   0  -2   1165.58   32.80  0. 1.0000     0. 
  -5   0  -2   1204.88   33.00  0. 1.0000     0. 
  -6   0  -2   1036.30   28.40  0. 1.0000     0. 
  -6   0  -2   1052.19   28.40  0. 1.0000     0. 
   6   0   2   1013.90   28.40  0. 1.0000     0. 
  -7   0  -2   2987.00   80.59  0. 1.0000     0. 
  -7   0  -2   2958.00   80.69  0. 1.0000     0. 
   7   0   2   2969.80   81.19  0. 1.0000     0. 
  -8   0  -2      4.50    0.80  0. 1.0000     0. 
   8   0   2      3.90    0.70  0. 1.0000     0. 
   9   0   2     13.50    1.30  0. 1.0000     0. 
  -9   0  -2     15.70    1.20  0. 1.0000     0. 
 -10   0  -2   1418.66   38.90  0. 1.0000     0. 
  10   0   2   1382.16   38.90  0. 1.0000     0. 
  11   0   2      6.80    1.30  0. 1.0000     0. 
  11  -1  -2    172.38    5.80  0. 1.0000     0. 
 -11   1   2    161.88    5.60  0. 1.0000     0. 
 -11   1   2    159.28    5.60  0. 1.0000     0. 
  11   1  -2    161.78    5.50  0. 1.0000     0. 
  10  -1  -2    294.37    9.30  0. 1.0000     0. 
  10   1  -2    306.57    9.10  0. 1.0000     0. 
 -10   1   2    310.17    9.40  0. 1.0000     0. 
 -10   1   2    300.97    9.20  0. 1.0000     0. 
   9  -1  -2     37.70    1.90  0. 1.0000     0. 
   9   1  -2     37.30    1.80  0. 1.0000     0. 
  -9   1   2     38.20    2.00  0. 1.0000     0. 
  -9   1   2     35.80    2.00  0. 1.0000     0. 
   8  -1  -2   1861.31   50.09  0. 1.0000     0. 
  -8  -1   2   1796.12   50.19  0. 1.0000     0. 
   8   1  -2   1763.32   49.90  0. 1.0000     0. 
  -8   1   2   1866.61   50.39  0. 1.0000     0. 
  -8   1   2   1862.11   50.19  0. 1.0000     0. 
   7  -1  -2   1117.19   30.60  0. 1.0000     0. 
  -7  -1   2   1097.49   30.30  0. 1.0000     0. 
  -7   1   2   1136.29   30.70  0. 1.0000     0. 
   7   1  -2   1061.99   30.50  0. 1.0000     0. 
  -7   1   2   1141.99   30.90  0. 1.0000     0. 
   6  -1  -2    637.24   17.20  0. 1.0000     0. 
  -6  -1   2    639.34   17.00  0. 1.0000     0. 
  -6  -1   2    581.74   17.30  0. 1.0000     0. 
  -6   1   2    637.54   17.40  0. 1.0000     0. 
   6   1  -2    578.04   17.10  0. 1.0000     0. 
  -6   1   2    630.04   17.50  0. 1.0000     0. 
  -5  -1   2    263.07    7.80  0. 1.0000     0. 
  -5  -1   2    288.77    7.90  0. 1.0000     0. 
  -5  -1   2    279.07    8.20  0. 1.0000     0. 
   5  -1  -2    287.57    8.10  0. 1.0000     0. 
  -5   1   2    289.67    8.40  0. 1.0000     0. 
   5   1  -2    276.17    8.00  0. 1.0000     0. 
  -5   1   2    279.37    7.80  0. 1.0000     0. 
  -5   1   2    285.57    8.20  0. 1.0000     0. 
  -4  -1   2    406.56   11.80  0. 1.0000     0. 
  -4  -1   2    440.16   12.10  0. 1.0000     0. 
   4  -1  -2    426.86   12.00  0. 1.0000     0. 
   4  -1  -2    477.75   12.30  0. 1.0000     0. 
   4   1  -2    410.16   12.00  0. 1.0000     0. 
  -4   1   2    428.86   11.70  0. 1.0000     0. 
  -4   1   2    419.26   12.10  0. 1.0000     0. 
  -3  -1   2    642.54   17.80  0. 1.0000     0. 
   3  -1  -2    659.13   18.00  0. 1.0000     0. 
  -3  -1   2    630.44   17.60  0. 1.0000     0. 
   3  -1  -2    643.74   17.70  0. 1.0000     0. 
   3   1  -2    633.64   17.80  0. 1.0000     0. 
  -3   1   2    647.94   17.60  0. 1.0000     0. 
  -3   1   2    664.73   17.90  0. 1.0000     0. 
   2  -1  -2   2371.86   66.39  0. 1.0000     0. 
  -2  -1   2   2385.06   65.19  0. 1.0000     0. 
   2  -1  -2   2315.37   65.29  0. 1.0000     0. 
  -2  -1   2   2402.16   65.59  0. 1.0000     0. 
  -2   1   2   2510.95   65.69  0. 1.0000     0. 
  -2   1   2   2392.76   65.19  0. 1.0000     0. 
   2   1  -2   2385.26   65.19  0. 1.0000     0. 
   1  -1  -2    103.79    3.00  0. 1.0000     0. 
   1  -1  -2    107.79    3.30  0. 1.0000     0. 
  -1  -1   2    105.29    3.10  0. 1.0000     0. 
  -1  -1   2    106.49    3.10  0. 1.0000     0. 
  -1   1   2    111.99    3.10  0. 1.0000     0. 
   1   1  -2    101.89    3.00  0. 1.0000     0. 
   1   1  -2    106.59    3.20  0. 1.0000     0. 
  -1   1   2    102.29    3.20  0. 1.0000     0. 
   0  -1   2   3844.22  103.29  0. 1.0000     0. 
   0  -1  -2   3789.32  103.69  0. 1.0000     0. 
   0  -1   2   3665.33  103.49  0. 1.0000     0. 
   0  -1   2   3895.71  103.89  0. 1.0000     0. 
   0  -1  -2   3610.94  103.59  0. 1.0000     0. 
   0   1   2   3901.31  102.89  0. 1.0000     0. 
   0   1  -2   3832.52  103.29  0. 1.0000     0. 
   0   1   2   3767.52  102.89  0. 1.0000     0. 
  -1  -1  -2   4910.61  134.19  0. 1.0000     0. 
   1  -1   2   4922.01  133.59  0. 1.0000     0. 
   1  -1   2   4903.61  134.49  0. 1.0000     0. 
   1  -1   2   4868.61  134.29  0. 1.0000     0. 
   1   1   2   4855.81  133.59  0. 1.0000     0. 
  -1   1  -2   5088.09  134.49  0. 1.0000     0. 
  -2  -1  -2     54.09    1.90  0. 1.0000     0. 
  -2  -1  -2     50.49    1.70  0. 1.0000     0. 
   2  -1   2     53.69    1.90  0. 1.0000     0. 
  -2   1  -2     54.19    1.90  0. 1.0000     0. 
   2   1   2     51.69    1.70  0. 1.0000     0. 
   3  -1   2    722.83   19.80  0. 1.0000     0. 
  -3  -1  -2    703.13   19.50  0. 1.0000     0. 
   3  -1   2    718.03   19.70  0. 1.0000     0. 
  -3  -1  -2    749.42   19.80  0. 1.0000     0. 
   3   1   2    683.23   19.50  0. 1.0000     0. 
  -3   1  -2    709.43   19.70  0. 1.0000     0. 
  -4  -1  -2     76.49    2.50  0. 1.0000     0. 
  -4  -1  -2     67.39    2.20  0. 1.0000     0. 
   4  -1   2     68.79    2.40  0. 1.0000     0. 
   4  -1   2     66.79    2.50  0. 1.0000     0. 
  -4   1  -2     68.29    2.40  0. 1.0000     0. 
   4   1   2     66.99    2.20  0. 1.0000     0. 
   5  -1   2    134.69    4.20  0. 1.0000     0. 
  -5  -1  -2    127.09    4.20  0. 1.0000     0. 
  -5  -1  -2    133.19    3.90  0. 1.0000     0. 
   5  -1   2    130.09    4.30  0. 1.0000     0. 
   5   1   2    129.69    4.00  0. 1.0000     0. 
  -5   1  -2    134.49    4.20  0. 1.0000     0. 
  -6  -1  -2   2403.66   65.79  0. 1.0000     0. 
  -6  -1  -2   2347.86   65.49  0. 1.0000     0. 
   6  -1   2   2514.05   65.79  0. 1.0000     0. 
   6   1   2   2338.27   65.49  0. 1.0000     0. 
  -6   1  -2   2468.85   65.79  0. 1.0000     0. 
  -7  -1  -2    213.88    6.50  0. 1.0000     0. 
   7  -1   2    214.38    6.90  0. 1.0000     0. 
  -7  -1  -2    226.08    6.90  0. 1.0000     0. 
  -7   1  -2    234.68    6.90  0. 1.0000     0. 
   7   1   2    225.18    6.70  0. 1.0000     0. 
  -7   1  -2    224.88    6.90  0. 1.0000     0. 
   8  -1   2     36.70    1.90  0. 1.0000     0. 
  -8   1  -2     39.20    2.00  0. 1.0000     0. 
   8   1   2     39.40    1.80  0. 1.0000     0. 
  -8   1  -2     36.60    2.00  0. 1.0000     0. 
   9  -1   2    387.86   11.50  0. 1.0000     0. 
  -9   1  -2    371.26   11.30  0. 1.0000     0. 
  -9   1  -2    374.86   11.40  0. 1.0000     0. 
   9   1   2    387.96   11.20  0. 1.0000     0. 
  10  -1   2      3.10    0.80  0. 1.0000     0. 
 -10   1  -2      2.60    0.80  0. 1.0000     0. 
  10   1   2      3.40    0.80  0. 1.0000     0. 
 -10  -2   2    240.78    8.20  0. 1.0000     0. 
  10  -2  -2    237.98    7.90  0. 1.0000     0. 
  10   2  -2    250.57    7.60  0. 1.0000     0. 
 -10   2   2    233.58    7.90  0. 1.0000     0. 
 -10   2   2    254.37    8.20  0. 1.0000     0. 
  -9  -2   2     47.60    2.70  0. 1.0000     0. 
   9  -2  -2     48.70    2.50  0. 1.0000     0. 
   9   2  -2     51.79    2.30  0. 1.0000     0. 
  -9   2   2     46.80    2.60  0. 1.0000     0. 
  -8  -2   2     15.60    1.40  0. 1.0000     0. 
   8  -2  -2     17.50    1.30  0. 1.0000     0. 
  -8   2   2     14.20    1.50  0. 1.0000     0. 
  -8   2   2     17.50    1.50  0. 1.0000     0. 
   8   2  -2     14.80    1.20  0. 1.0000     0. 
   7  -2  -2     69.59    2.70  0. 1.0000     0. 
  -7  -2   2     67.99    2.90  0. 1.0000     0. 
   7   2  -2     64.39    2.50  0. 1.0000     0. 
  -7   2   2     66.19    3.00  0. 1.0000     0. 
  -7   2   2     65.79    2.80  0. 1.0000     0. 
   6  -2  -2   1956.80   52.19  0. 1.0000     0. 
  -6  -2   2   1871.81   52.49  0. 1.0000     0. 
  -6   2   2   1896.41   52.59  0. 1.0000     0. 
   6   2  -2   1856.21   52.09  0. 1.0000     0. 
  -6   2   2   1953.60   52.39  0. 1.0000     0. 
   5  -2  -2     37.90    1.70  0. 1.0000     0. 
  -5   2   2     39.60    1.90  0. 1.0000     0. 
   5   2  -2     37.50    1.70  0. 1.0000     0. 
   4  -2  -2    159.88    4.90  0. 1.0000     0. 
  -4  -2   2    158.48    5.10  0. 1.0000     0. 
   4  -2  -2    162.58    5.20  0. 1.0000     0. 
  -4  -2   2    168.28    4.70  0. 1.0000     0. 
  -4   2   2    151.98    4.60  0. 1.0000     0. 
   4   2  -2    154.98    5.00  0. 1.0000     0. 
  -4   2   2    160.08    5.10  0. 1.0000     0. 
  -3  -2   2   1842.32   50.49  0. 1.0000     0. 
  -3  -2   2   1882.31   50.19  0. 1.0000     0. 
   3  -2  -2   1840.22   50.29  0. 1.0000     0. 
   3  -2  -2   1944.01   50.69  0. 1.0000     0. 
  -3   2   2   1782.72   50.19  0. 1.0000     0. 
   3   2  -2   1822.22   50.39  0. 1.0000     0. 
  -3   2   2   1821.12   50.49  0. 1.0000     0. 
   2  -2  -2      3.80    0.80  0. 1.0000     0. 
  -2  -2   2      4.70    0.70  0. 1.0000     0. 
  -2  -2   2      3.00    0.50  0. 1.0000     0. 
  -2   2   2      3.40    0.60  0. 1.0000     0. 
   2   2  -2      3.20    0.50  0. 1.0000     0. 
   1  -2  -2    483.15   13.60  0. 1.0000     0. 
   1  -2  -2    485.85   13.50  0. 1.0000     0. 
   1  -2  -2    483.05   13.70  0. 1.0000     0. 
  -1  -2   2    486.75   13.70  0. 1.0000     0. 
   1  -2  -2    492.25   13.80  0. 1.0000     0. 
  -1  -2   2    486.85   13.60  0. 1.0000     0. 
   1   2  -2    474.65   13.40  0. 1.0000     0. 
   1   2  -2    492.75   13.70  0. 1.0000     0. 
   0  -2   2   1654.43   44.70  0. 1.0000     0. 
   0  -2  -2   1619.54   44.70  0. 1.0000     0. 
   0  -2  -2   1689.53   44.80  0. 1.0000     0. 
   0  -2   2   1657.03   44.70  0. 1.0000     0. 
   0  -2   2   1597.34   44.60  0. 1.0000     0. 
   0  -2  -2   1661.23   44.50  0. 1.0000     0. 
   0   2  -2   1575.24   44.50  0. 1.0000     0. 
   0   2   2   1636.24   44.50  0. 1.0000     0. 
  -1  -2  -2    477.15   13.80  0. 1.0000     0. 
  -1  -2  -2    491.65   13.40  0. 1.0000     0. 
   1  -2   2    486.95   13.80  0. 1.0000     0. 
   1  -2   2    475.35   13.60  0. 1.0000     0. 
  -1  -2  -2    497.25   13.70  0. 1.0000     0. 
   1  -2   2    495.35   13.70  0. 1.0000     0. 
   1   2   2    482.75   13.50  0. 1.0000     0. 
  -1   2  -2    482.05   13.70  0. 1.0000     0. 
   2  -2   2   4092.29  110.59  0. 1.0000     0. 
   2  -2   2   4121.79  110.99  0. 1.0000     0. 
  -2  -2  -2   4076.89  109.39  0. 1.0000     0. 
  -2  -2  -2   4095.49  109.99  0. 1.0000     0. 
  -2  -2  -2   3995.80  111.29  0. 1.0000     0. 
   2  -2   2   4019.70  109.79  0. 1.0000     0. 
  -2   2  -2   4045.40  110.29  0. 1.0000     0. 
   2   2   2   3839.82  109.99  0. 1.0000     0. 
   3  -2   2    242.18    7.30  0. 1.0000     0. 
  -3  -2  -2    236.98    7.30  0. 1.0000     0. 
  -3  -2  -2    243.58    6.90  0. 1.0000     0. 
   3  -2   2    243.68    7.20  0. 1.0000     0. 
  -3   2  -2    233.98    7.20  0. 1.0000     0. 
   3   2   2    222.38    6.80  0. 1.0000     0. 
   4  -2   2    298.07    8.60  0. 1.0000     0. 
  -4  -2  -2    283.57    8.70  0. 1.0000     0. 
   4  -2   2    295.57    8.70  0. 1.0000     0. 
  -4  -2  -2    288.67    8.30  0. 1.0000     0. 
   4   2   2    276.67    8.20  0. 1.0000     0. 
  -4   2  -2    283.07    8.60  0. 1.0000     0. 
   5  -2   2    684.73   18.70  0. 1.0000     0. 
   5  -2   2    679.33   18.80  0. 1.0000     0. 
  -5  -2  -2    650.93   18.80  0. 1.0000     0. 
  -5   2  -2    632.54   18.70  0. 1.0000     0. 
   5   2   2    646.64   18.30  0. 1.0000     0. 
   6  -2   2    387.96   11.40  0. 1.0000     0. 
   6  -2   2    385.26   11.30  0. 1.0000     0. 
  -6  -2  -2    388.66   11.50  0. 1.0000     0. 
  -6   2  -2    358.36   11.30  0. 1.0000     0. 
   6   2   2    385.66   10.90  0. 1.0000     0. 
   7  -2   2      0.10    0.50  0. 1.0000     0. 
  -7  -2  -2      0.30    0.70  0. 1.0000     0. 
  -7   2  -2     -0.10    0.60  0. 1.0000     0. 
  -7   2  -2      0.40    0.50  0. 1.0000     0. 
   7   2   2      0.20    0.40  0. 1.0000     0. 
  -8  -2  -2      2.50    1.00  0. 1.0000     0. 
   8  -2   2      2.40    0.80  0. 1.0000     0. 
  -8   2  -2      2.50    0.80  0. 1.0000     0. 
   8   2   2      3.60    0.70  0. 1.0000     0. 
  -8   2  -2      3.40    1.00  0. 1.0000     0. 
   9  -2   2     96.09    3.90  0. 1.0000     0. 
   9   2   2     95.59    3.50  0. 1.0000     0. 
  -9   2  -2     90.29    3.90  0. 1.0000     0. 
  -9   2  -2     95.49    3.90  0. 1.0000     0. 
  -9  -3   2     79.89    3.90  0. 1.0000     0. 
   8  -3  -2     28.40    2.00  0. 1.0000     0. 
  -8  -3   2     29.60    2.40  0. 1.0000     0. 
  -8   3   2     27.90    2.30  0. 1.0000     0. 
  -8   3   2     29.20    2.40  0. 1.0000     0. 
   8   3  -2     36.80    2.10  0. 1.0000     0. 
   7  -3  -2    214.28    7.00  0. 1.0000     0. 
  -7  -3   2    208.78    7.40  0. 1.0000     0. 
  -7   3   2    215.68    7.20  0. 1.0000     0. 
   7   3  -2    214.08    6.80  0. 1.0000     0. 
  -7   3   2    217.58    7.40  0. 1.0000     0. 
  -6  -3   2      0.70    0.70  0. 1.0000     0. 
   6  -3  -2      0.00    0.50  0. 1.0000     0. 
   6   3  -2      0.50    0.70  0. 1.0000     0. 
  -6   3   2      2.10    0.80  0. 1.0000     0. 
  -5  -3   2    394.06   12.30  0. 1.0000     0. 
   5  -3  -2    405.56   11.90  0. 1.0000     0. 
  -5   3   2    399.66   12.40  0. 1.0000     0. 
   5   3  -2    410.56   11.90  0. 1.0000     0. 
  -5   3   2    419.66   12.20  0. 1.0000     0. 
   4  -3  -2     72.09    2.90  0. 1.0000     0. 
  -4  -3   2     73.99    3.20  0. 1.0000     0. 
   4  -3  -2     80.79    3.30  0. 1.0000     0. 
   4   3  -2     72.49    3.00  0. 1.0000     0. 
  -4   3   2     73.29    3.10  0. 1.0000     0. 
   3  -3  -2     73.39    2.80  0. 1.0000     0. 
  -3  -3   2     75.49    3.20  0. 1.0000     0. 
   3  -3  -2     78.29    3.20  0. 1.0000     0. 
   3   3  -2     75.09    3.00  0. 1.0000     0. 
  -3   3   2     74.99    3.00  0. 1.0000     0. 
  -3   3   2     75.59    2.80  0. 1.0000     0. 
   2  -3  -2    235.48    7.30  0. 1.0000     0. 
  -2  -3   2    227.98    6.90  0. 1.0000     0. 
   2  -3  -2    232.58    6.90  0. 1.0000     0. 
  -2  -3   2    222.28    7.20  0. 1.0000     0. 
  -2   3   2    217.78    7.00  0. 1.0000     0. 
   2   3  -2    232.08    7.10  0. 1.0000     0. 
  -1  -3   2     23.60    1.60  0. 1.0000     0. 
   1  -3  -2     26.70    1.70  0. 1.0000     0. 
  -1  -3   2     31.40    1.60  0. 1.0000     0. 
   1  -3  -2     26.00    1.60  0. 1.0000     0. 
   1   3  -2     25.00    1.60  0. 1.0000     0. 
   0  -3  -2     15.90    1.30  0. 1.0000     0. 
   0  -3  -2     15.40    1.10  0. 1.0000     0. 
   0  -3   2     16.20    1.20  0. 1.0000     0. 
   0  -3  -2     14.50    1.30  0. 1.0000     0. 
   0  -3   2     14.40    1.20  0. 1.0000     0. 
   0  -3   2     14.20    1.30  0. 1.0000     0. 
   0   3   2     15.00    1.20  0. 1.0000     0. 
   0   3  -2     15.70    1.10  0. 1.0000     0. 
   1  -3   2    912.91   25.70  0. 1.0000     0. 
   1  -3   2    901.61   25.60  0. 1.0000     0. 
   1  -3   2    919.91   25.70  0. 1.0000     0. 
  -1  -3  -2    935.11   25.90  0. 1.0000     0. 
  -1  -3  -2    935.91   25.60  0. 1.0000     0. 
  -1   3  -2    919.51   25.60  0. 1.0000     0. 
   1   3   2    903.01   25.50  0. 1.0000     0. 
   2  -3   2     82.19    3.10  0. 1.0000     0. 
  -2  -3  -2     79.09    3.30  0. 1.0000     0. 
   2  -3   2     78.69    3.20  0. 1.0000     0. 
   2   3   2     77.99    2.90  0. 1.0000     0. 
  -2   3  -2     77.89    3.10  0. 1.0000     0. 
   3  -3   2    240.48    7.30  0. 1.0000     0. 
  -3  -3  -2    215.88    7.40  0. 1.0000     0. 
   3  -3   2    235.38    7.40  0. 1.0000     0. 
  -3   3  -2    228.08    7.30  0. 1.0000     0. 
   3   3   2    227.58    7.00  0. 1.0000     0. 
   4  -3   2    135.99    5.00  0. 1.0000     0. 
  -4  -3  -2    132.89    5.00  0. 1.0000     0. 
   4  -3   2    139.69    4.80  0. 1.0000     0. 
  -4   3  -2    134.19    4.90  0. 1.0000     0. 
   4   3   2    141.79    4.50  0. 1.0000     0. 
   5  -3   2    195.28    6.40  0. 1.0000     0. 
  -5  -3  -2    196.38    6.70  0. 1.0000     0. 
   5  -3   2    192.18    6.60  0. 1.0000     0. 
  -5   3  -2    196.48    6.50  0. 1.0000     0. 
   5   3   2    192.78    6.00  0. 1.0000     0. 
   6  -3   2      8.70    1.30  0. 1.0000     0. 
   6  -3   2      8.00    1.40  0. 1.0000     0. 
  -6  -3  -2      7.50    1.50  0. 1.0000     0. 
   6   3   2      8.90    1.10  0. 1.0000     0. 
  -6   3  -2      9.90    1.40  0. 1.0000     0. 
  -7  -3  -2     40.70    2.60  0. 1.0000     0. 
   7  -3   2     38.60    2.30  0. 1.0000     0. 
   7   3   2     41.00    2.00  0. 1.0000     0. 
  -7   3  -2     39.80    2.40  0. 1.0000     0. 
  -7   3  -2     37.50    2.50  0. 1.0000     0. 
  -8  -3  -2     38.90    2.60  0. 1.0000     0. 
   8  -3   2     41.40    2.50  0. 1.0000     0. 
  -8   3  -2     36.90    2.40  0. 1.0000     0. 
  -8   3  -2     35.50    2.50  0. 1.0000     0. 
   8   3   2     42.30    2.10  0. 1.0000     0. 
  -6  -4   2      0.40    0.90  0. 1.0000     0. 
  -6   4   2      0.10    0.80  0. 1.0000     0. 
   6   4  -2     -0.30    0.80  0. 1.0000     0. 
  -5  -4   2      1.30    1.00  0. 1.0000     0. 
  -5   4   2      1.90    0.90  0. 1.0000     0. 
   5   4  -2      0.70    0.90  0. 1.0000     0. 
  -5   4   2      1.30    0.90  0. 1.0000     0. 
  -4  -4   2     31.60    2.50  0. 1.0000     0. 
   4   4  -2     37.70    2.40  0. 1.0000     0. 
  -4   4   2     39.40    2.40  0. 1.0000     0. 
  -4   4   2     35.10    2.40  0. 1.0000     0. 
  -3  -4   2     60.79    3.10  0. 1.0000     0. 
   3   4  -2     63.29    3.00  0. 1.0000     0. 
  -3   4   2     61.99    2.90  0. 1.0000     0. 
   2  -4  -2     18.00    1.70  0. 1.0000     0. 
  -2  -4   2     15.80    1.70  0. 1.0000     0. 
   2   4  -2     17.70    1.70  0. 1.0000     0. 
  -1  -4   2     14.90    1.60  0. 1.0000     0. 
   1   4  -2     18.80    1.70  0. 1.0000     0. 
   0  -4   2      6.00    1.10  0. 1.0000     0. 
   0  -4  -2      6.90    1.30  0. 1.0000     0. 
   0   4  -2      5.80    1.10  0. 1.0000     0. 
  -1  -4  -2     19.80    1.80  0. 1.0000     0. 
   1  -4   2     23.20    1.80  0. 1.0000     0. 
   2  -4   2      2.00    0.90  0. 1.0000     0. 
  -2  -4  -2      2.60    1.10  0. 1.0000     0. 
   2  -4   2      3.60    1.00  0. 1.0000     0. 
   3  -4   2     13.80    1.90  0. 1.0000     0. 
  -3  -4  -2     18.10    2.00  0. 1.0000     0. 
   3  -4   2     18.90    1.80  0. 1.0000     0. 
  -4  -4  -2     66.59    3.50  0. 1.0000     0. 
   4  -4   2     66.49    3.30  0. 1.0000     0. 
   4  -4   2     63.29    3.10  0. 1.0000     0. 
  -4   4  -2     63.99    3.10  0. 1.0000     0. 
   5  -4   2     14.90    1.80  0. 1.0000     0. 
   5  -4   2     14.10    1.60  0. 1.0000     0. 
  -5  -4  -2     14.50    1.90  0. 1.0000     0. 
  -5   4  -2     11.20    1.60  0. 1.0000     0. 
  11   0  -3      0.50    0.60  0. 1.0000     0. 
  10   0  -3      0.10    0.40  0. 1.0000     0. 
 -10   0   3     -0.20    0.50  0. 1.0000     0. 
   9   0  -3     -0.40    0.40  0. 1.0000     0. 
  -9   0   3     -0.60    0.50  0. 1.0000     0. 
  -8   0   3      0.50    0.50  0. 1.0000     0. 
   8   0  -3     -0.10    0.40  0. 1.0000     0. 
  -8   0   3      0.20    0.30  0. 1.0000     0. 
  -6   0   3     -0.20    0.30  0. 1.0000     0. 
  -5   0   3      0.90    0.30  0. 1.0000     0. 
  -4   0   3     -1.70    0.30  0. 1.0000     0. 
   4   0  -3     -1.50    0.30  0. 1.0000     0. 
   4   0  -3     -1.20    0.20  0. 1.0000     0. 
  -3   0   3      0.50    0.20  0. 1.0000     0. 
  -3   0   3      0.10    0.10  0. 1.0000     0. 
   3   0  -3      0.20    0.20  0. 1.0000     0. 
  -2   0   3      0.40    0.20  0. 1.0000     0. 
  -2   0   3      0.00    0.20  0. 1.0000     0. 
   1   0  -3      0.10    0.30  0. 1.0000     0. 
   1   0  -3     -0.70    0.20  0. 1.0000     0. 
  -1   0   3     -0.80    0.20  0. 1.0000     0. 
   0   0  -3     -0.10    0.10  0. 1.0000     0. 
   0   0   3      0.20    0.10  0. 1.0000     0. 
   0   0   3      0.20    0.10  0. 1.0000     0. 
   1   0   3      1.60    0.20  0. 1.0000     0. 
   2   0   3     -1.60    0.30  0. 1.0000     0. 
   2   0   3     -2.20    0.30  0. 1.0000     0. 
   2   0   3     -1.90    0.30  0. 1.0000     0. 
  -3   0  -3     -2.30    0.30  0. 1.0000     0. 
   3   0   3     -1.80    0.40  0. 1.0000     0. 
   3   0   3     -2.60    0.30  0. 1.0000     0. 
   4   0   3      0.40    0.20  0. 1.0000     0. 
  -4   0  -3      0.90    0.30  0. 1.0000     0. 
  -4   0  -3      0.40    0.20  0. 1.0000     0. 
  -5   0  -3      1.70    0.30  0. 1.0000     0. 
   5   0   3      1.30    0.40  0. 1.0000     0. 
   6   0   3      0.60    0.40  0. 1.0000     0. 
  -6   0  -3      0.40    0.40  0. 1.0000     0. 
  -6   0  -3      0.50    0.40  0. 1.0000     0. 
  -7   0  -3     -0.10    0.50  0. 1.0000     0. 
  -7   0  -3      0.10    0.50  0. 1.0000     0. 
   7   0   3      0.00    0.50  0. 1.0000     0. 
   8   0   3      0.80    0.50  0. 1.0000     0. 
  -8   0  -3      0.10    0.40  0. 1.0000     0. 
   9   0   3      0.30    0.60  0. 1.0000     0. 
  -9   0  -3      1.10    0.60  0. 1.0000     0. 
  10   0   3      0.10    0.70  0. 1.0000     0. 
 -10   0  -3     -0.70    0.60  0. 1.0000     0. 
  11  -1  -3     56.39    2.70  0. 1.0000     0. 
  11   1  -3     55.79    2.50  0. 1.0000     0. 
 -11   1   3     57.19    2.70  0. 1.0000     0. 
 -11   1   3     55.09    2.70  0. 1.0000     0. 
  10  -1  -3     38.00    2.00  0. 1.0000     0. 
 -10   1   3     40.10    2.10  0. 1.0000     0. 
 -10   1   3     39.30    2.10  0. 1.0000     0. 
  10   1  -3     39.40    1.90  0. 1.0000     0. 
  -9  -1   3    437.26   13.10  0. 1.0000     0. 
   9  -1  -3    449.26   13.00  0. 1.0000     0. 
   9   1  -3    434.16   12.80  0. 1.0000     0. 
  -9   1   3    459.35   13.20  0. 1.0000     0. 
  -9   1   3    451.05   13.00  0. 1.0000     0. 
   8  -1  -3     71.99    2.70  0. 1.0000     0. 
   8   1  -3     67.49    2.50  0. 1.0000     0. 
  -8   1   3     69.19    2.90  0. 1.0000     0. 
  -8   1   3     72.29    2.80  0. 1.0000     0. 
   7  -1  -3    536.85   15.00  0. 1.0000     0. 
  -7  -1   3    540.15   14.80  0. 1.0000     0. 
  -7  -1   3    511.35   15.20  0. 1.0000     0. 
   7   1  -3    517.25   14.90  0. 1.0000     0. 
  -7   1   3    537.95   15.40  0. 1.0000     0. 
  -7   1   3    558.14   15.20  0. 1.0000     0. 
  -6  -1   3    674.83   17.90  0. 1.0000     0. 
   6  -1  -3    663.53   18.10  0. 1.0000     0. 
  -6  -1   3    615.64   18.20  0. 1.0000     0. 
  -6   1   3    628.74   17.80  0. 1.0000     0. 
  -6   1   3    687.33   18.30  0. 1.0000     0. 
   6   1  -3    621.94   18.00  0. 1.0000     0. 
  -6   1   3    661.03   18.50  0. 1.0000     0. 
  -5  -1   3    379.46   10.30  0. 1.0000     0. 
  -5  -1   3    372.36   10.60  0. 1.0000     0. 
   5  -1  -3    377.66   10.50  0. 1.0000     0. 
   5  -1  -3    371.16   10.80  0. 1.0000     0. 
   5   1  -3    355.96   10.50  0. 1.0000     0. 
  -5   1   3    376.56   10.60  0. 1.0000     0. 
  -5   1   3    367.76   10.20  0. 1.0000     0. 
   4  -1  -3    503.75   14.00  0. 1.0000     0. 
   4  -1  -3    519.25   14.30  0. 1.0000     0. 
  -4  -1   3    489.75   13.90  0. 1.0000     0. 
  -4   1   3    524.75   13.80  0. 1.0000     0. 
   4   1  -3    504.85   14.10  0. 1.0000     0. 
  -4   1   3    490.45   14.10  0. 1.0000     0. 
   3  -1  -3    456.95   12.70  0. 1.0000     0. 
  -3  -1   3    463.95   12.80  0. 1.0000     0. 
  -3  -1   3    449.76   12.70  0. 1.0000     0. 
   3  -1  -3    477.85   13.10  0. 1.0000     0. 
  -3   1   3    465.35   12.90  0. 1.0000     0. 
  -3   1   3    461.45   12.70  0. 1.0000     0. 
   3   1  -3    455.65   12.80  0. 1.0000     0. 
   2  -1  -3    866.31   23.60  0. 1.0000     0. 
  -2  -1   3    872.21   23.70  0. 1.0000     0. 
  -2  -1   3    846.52   23.80  0. 1.0000     0. 
   2  -1  -3    877.91   24.00  0. 1.0000     0. 
  -2   1   3    868.01   23.70  0. 1.0000     0. 
  -2   1   3    889.21   23.80  0. 1.0000     0. 
   2   1  -3    853.61   23.80  0. 1.0000     0. 
   1  -1  -3    831.42   22.90  0. 1.0000     0. 
  -1  -1   3    869.21   23.10  0. 1.0000     0. 
   1  -1  -3    854.01   23.20  0. 1.0000     0. 
  -1  -1   3    856.41   23.10  0. 1.0000     0. 
  -1  -1   3    865.91   23.00  0. 1.0000     0. 
  -1   1   3    829.62   23.10  0. 1.0000     0. 
  -1   1   3    843.72   23.00  0. 1.0000     0. 
   1   1  -3    796.72   22.90  0. 1.0000     0. 
   0  -1   3    406.96   11.60  0. 1.0000     0. 
   0  -1  -3    413.76   11.60  0. 1.0000     0. 
   0  -1   3    417.16   11.40  0. 1.0000     0. 
   0   1  -3    414.96   11.40  0. 1.0000     0. 
   0   1   3    410.56   11.30  0. 1.0000     0. 
   0   1   3    408.56   11.30  0. 1.0000     0. 
   1  -1   3   2672.93   70.69  0. 1.0000     0. 
   1  -1   3   2585.84   71.79  0. 1.0000     0. 
  -1  -1  -3   2567.74   71.19  0. 1.0000     0. 
   1  -1   3   2618.54   70.79  0. 1.0000     0. 
  -1  -1  -3   2601.54   71.89  0. 1.0000     0. 
  -1   1  -3   2634.04   71.19  0. 1.0000     0. 
   1   1   3   2539.45   70.59  0. 1.0000     0. 
   2  -1   3     51.09    1.90  0. 1.0000     0. 
   2  -1   3     50.79    1.80  0. 1.0000     0. 
   2  -1   3     50.89    1.50  0. 1.0000     0. 
  -2  -1  -3     49.00    1.70  0. 1.0000     0. 
  -2  -1  -3     51.39    1.90  0. 1.0000     0. 
  -2   1  -3     50.09    1.70  0. 1.0000     0. 
   2   1   3     48.80    1.60  0. 1.0000     0. 
  -3  -1  -3      8.90    0.60  0. 1.0000     0. 
   3  -1   3      8.50    0.70  0. 1.0000     0. 
  -3  -1  -3     12.50    0.80  0. 1.0000     0. 
   3  -1   3     11.10    0.70  0. 1.0000     0. 
  -3   1  -3     11.30    0.70  0. 1.0000     0. 
   3   1   3      9.30    0.50  0. 1.0000     0. 
  -4  -1  -3   1133.49   31.10  0. 1.0000     0. 
   4  -1   3   1113.69   31.40  0. 1.0000     0. 
  -4  -1  -3   1125.19   31.40  0. 1.0000     0. 
   4  -1   3   1177.18   31.30  0. 1.0000     0. 
  -4   1  -3   1153.08   31.30  0. 1.0000     0. 
   4   1   3   1141.49   31.10  0. 1.0000     0. 
  -5  -1  -3   1028.90   29.10  0. 1.0000     0. 
  -5  -1  -3   1061.39   28.80  0. 1.0000     0. 
   5  -1   3   1051.29   29.10  0. 1.0000     0. 
   5  -1   3   1068.79   29.00  0. 1.0000     0. 
   5   1   3   1024.10   28.80  0. 1.0000     0. 
  -5   1  -3   1078.59   29.10  0. 1.0000     0. 
  -6  -1  -3     51.29    2.10  0. 1.0000     0. 
  -6  -1  -3     46.20    1.80  0. 1.0000     0. 
   6  -1   3     45.70    2.10  0. 1.0000     0. 
   6  -1   3     45.00    2.00  0. 1.0000     0. 
   6   1   3     44.60    1.80  0. 1.0000     0. 
  -6   1  -3     49.99    2.10  0. 1.0000     0. 
   7  -1   3    180.28    5.80  0. 1.0000     0. 
  -7  -1  -3    177.78    5.50  0. 1.0000     0. 
  -7  -1  -3    186.48    5.90  0. 1.0000     0. 
  -7   1  -3    181.78    5.80  0. 1.0000     0. 
   7   1   3    184.48    5.60  0. 1.0000     0. 
  -7   1  -3    186.08    5.90  0. 1.0000     0. 
   8  -1   3    714.03   20.30  0. 1.0000     0. 
  -8   1  -3    711.63   20.20  0. 1.0000     0. 
  -8   1  -3    692.83   20.20  0. 1.0000     0. 
   8   1   3    725.83   20.00  0. 1.0000     0. 
   9  -1   3      0.70    0.60  0. 1.0000     0. 
  -9   1  -3     -0.40    0.60  0. 1.0000     0. 
  -9   1  -3      0.90    0.70  0. 1.0000     0. 
   9   1   3      0.20    0.60  0. 1.0000     0. 
  10  -1   3      4.50    0.90  0. 1.0000     0. 
 -10   1  -3      3.60    0.90  0. 1.0000     0. 
  10   1   3      4.90    0.90  0. 1.0000     0. 
 -10  -2   3    153.98    5.70  0. 1.0000     0. 
  10  -2  -3    146.69    5.40  0. 1.0000     0. 
 -10   2   3    147.69    5.50  0. 1.0000     0. 
  10   2  -3    161.28    5.20  0. 1.0000     0. 
 -10   2   3    151.58    5.70  0. 1.0000     0. 
   9  -2  -3    178.48    5.90  0. 1.0000     0. 
  -9  -2   3    175.08    6.20  0. 1.0000     0. 
  -9   2   3    175.68    6.00  0. 1.0000     0. 
  -9   2   3    176.78    6.30  0. 1.0000     0. 
   9   2  -3    178.58    5.70  0. 1.0000     0. 
   8  -2  -3     15.50    1.30  0. 1.0000     0. 
  -8  -2   3     15.50    1.40  0. 1.0000     0. 
   8   2  -3     14.80    1.20  0. 1.0000     0. 
  -8   2   3     14.80    1.50  0. 1.0000     0. 
  -8   2   3     15.10    1.50  0. 1.0000     0. 
   7  -2  -3     10.30    1.10  0. 1.0000     0. 
  -7  -2   3      8.90    1.30  0. 1.0000     0. 
  -7   2   3      7.70    1.10  0. 1.0000     0. 
  -7   2   3      9.80    1.30  0. 1.0000     0. 
   7   2  -3      9.60    1.10  0. 1.0000     0. 
   6  -2  -3    313.97    9.20  0. 1.0000     0. 
  -6  -2   3    303.07    9.50  0. 1.0000     0. 
   6   2  -3    305.77    9.20  0. 1.0000     0. 
  -6   2   3    330.97    9.50  0. 1.0000     0. 
  -5  -2   3    202.58    6.50  0. 1.0000     0. 
   5  -2  -3    210.58    6.60  0. 1.0000     0. 
   5  -2  -3    209.58    6.20  0. 1.0000     0. 
  -5  -2   3    212.18    6.00  0. 1.0000     0. 
  -5   2   3    219.08    6.40  0. 1.0000     0. 
   5   2  -3    191.98    6.20  0. 1.0000     0. 
  -5   2   3    197.08    5.90  0. 1.0000     0. 
  -4  -2   3    864.61   23.10  0. 1.0000     0. 
  -4  -2   3    860.01   23.50  0. 1.0000     0. 
   4  -2  -3    855.41   23.60  0. 1.0000     0. 
   4  -2  -3    825.32   23.20  0. 1.0000     0. 
  -4   2   3    787.02   23.00  0. 1.0000     0. 
  -4   2   3    845.12   23.40  0. 1.0000     0. 
   4   2  -3    833.12   23.30  0. 1.0000     0. 
   3  -2  -3    542.25   15.10  0. 1.0000     0. 
   3  -2  -3    523.05   14.60  0. 1.0000     0. 
  -3  -2   3    534.65   14.90  0. 1.0000     0. 
  -3  -2   3    543.55   14.60  0. 1.0000     0. 
  -3   2   3    496.35   14.60  0. 1.0000     0. 
   3   2  -3    526.05   14.80  0. 1.0000     0. 
  -3   2   3    505.55   14.80  0. 1.0000     0. 
   2  -2  -3    242.98    7.20  0. 1.0000     0. 
  -2  -2   3    238.88    6.80  0. 1.0000     0. 
  -2  -2   3    232.68    7.00  0. 1.0000     0. 
   2  -2  -3    241.28    6.70  0. 1.0000     0. 
  -2   2   3    236.58    6.90  0. 1.0000     0. 
  -2   2   3    218.18    6.90  0. 1.0000     0. 
   2   2  -3    238.88    7.00  0. 1.0000     0. 
   2   2  -3    218.98    6.50  0. 1.0000     0. 
  -1  -2   3    302.07    8.80  0. 1.0000     0. 
   1  -2  -3    306.47    8.60  0. 1.0000     0. 
  -1  -2   3    304.07    8.80  0. 1.0000     0. 
   1  -2  -3    316.87    9.00  0. 1.0000     0. 
   1   2  -3    289.27    8.50  0. 1.0000     0. 
  -1   2   3    300.67    8.60  0. 1.0000     0. 
   0  -2  -3    832.02   22.30  0. 1.0000     0. 
   0  -2  -3    794.22   22.30  0. 1.0000     0. 
   0  -2   3    784.22   22.10  0. 1.0000     0. 
   0  -2   3    805.52   22.20  0. 1.0000     0. 
   0  -2   3    819.12   22.20  0. 1.0000     0. 
   0   2  -3    791.52   22.00  0. 1.0000     0. 
   0   2   3    782.02   21.90  0. 1.0000     0. 
   0   2   3    795.12   22.00  0. 1.0000     0. 
  -1  -2  -3    164.28    5.30  0. 1.0000     0. 
  -1  -2  -3    172.68    5.20  0. 1.0000     0. 
   1  -2   3    171.08    5.00  0. 1.0000     0. 
   1  -2   3    172.08    5.30  0. 1.0000     0. 
   1   2   3    163.28    4.80  0. 1.0000     0. 
   1   2   3    166.78    4.90  0. 1.0000     0. 
  -1   2  -3    167.18    5.10  0. 1.0000     0. 
   2  -2   3    432.36   11.80  0. 1.0000     0. 
  -2  -2  -3    431.56   12.00  0. 1.0000     0. 
   2  -2   3    423.16   12.10  0. 1.0000     0. 
   2  -2   3    429.86   12.20  0. 1.0000     0. 
  -2  -2  -3    421.26   12.20  0. 1.0000     0. 
   2   2   3    403.36   11.80  0. 1.0000     0. 
  -2   2  -3    414.46   12.00  0. 1.0000     0. 
   3  -2   3     10.80    1.00  0. 1.0000     0. 
   3  -2   3      9.70    0.90  0. 1.0000     0. 
  -3  -2  -3     10.10    1.00  0. 1.0000     0. 
  -3  -2  -3     10.00    0.90  0. 1.0000     0. 
   3   2   3     10.50    0.80  0. 1.0000     0. 
  -3   2  -3     13.20    1.00  0. 1.0000     0. 
   4  -2   3    846.22   22.90  0. 1.0000     0. 
  -4  -2  -3    790.52   22.90  0. 1.0000     0. 
   4  -2   3    857.21   22.80  0. 1.0000     0. 
  -4  -2  -3    809.12   22.40  0. 1.0000     0. 
  -4   2  -3    783.72   22.70  0. 1.0000     0. 
   4   2   3    779.62   22.30  0. 1.0000     0. 
  -5  -2  -3    863.31   24.70  0. 1.0000     0. 
   5  -2   3    920.91   24.80  0. 1.0000     0. 
   5  -2   3    891.11   24.60  0. 1.0000     0. 
   5   2   3    867.01   24.10  0. 1.0000     0. 
  -5   2  -3    836.02   24.50  0. 1.0000     0. 
   6  -2   3    123.79    4.50  0. 1.0000     0. 
   6  -2   3    137.99    4.70  0. 1.0000     0. 
  -6  -2  -3    133.39    4.70  0. 1.0000     0. 
   6   2   3    128.69    4.10  0. 1.0000     0. 
  -6   2  -3    119.19    4.40  0. 1.0000     0. 
  -7  -2  -3    105.49    4.10  0. 1.0000     0. 
   7  -2   3    106.99    4.00  0. 1.0000     0. 
   7   2   3    111.89    3.60  0. 1.0000     0. 
  -7   2  -3    106.39    4.00  0. 1.0000     0. 
  -8  -2  -3     83.49    3.60  0. 1.0000     0. 
   8  -2   3     83.19    3.50  0. 1.0000     0. 
   8   2   3     87.49    3.10  0. 1.0000     0. 
  -8   2  -3     82.89    3.60  0. 1.0000     0. 
  -8   2  -3     83.69    3.50  0. 1.0000     0. 
   9  -2   3    166.88    5.80  0. 1.0000     0. 
  -9   2  -3    162.08    5.70  0. 1.0000     0. 
  -9   2  -3    151.88    5.70  0. 1.0000     0. 
   9   2   3    166.08    5.40  0. 1.0000     0. 
  -9  -3   3     15.80    2.00  0. 1.0000     0. 
   9   3  -3     17.00    1.70  0. 1.0000     0. 
  -9   3   3     11.80    1.80  0. 1.0000     0. 
  -9   3   3     15.90    2.00  0. 1.0000     0. 
  -8  -3   3    754.82   22.10  0. 1.0000     0. 
   8   3  -3    766.52   21.30  0. 1.0000     0. 
  -8   3   3    758.82   22.10  0. 1.0000     0. 
  -8   3   3    719.13   21.60  0. 1.0000     0. 
  -7  -3   3     97.49    4.20  0. 1.0000     0. 
   7  -3  -3     97.89    4.70  0. 1.0000     0. 
  -7   3   3     97.09    4.30  0. 1.0000     0. 
  -7   3   3    105.39    4.10  0. 1.0000     0. 
   7   3  -3    104.09    3.80  0. 1.0000     0. 
   6  -3  -3      3.50    0.80  0. 1.0000     0. 
  -6  -3   3      3.80    1.00  0. 1.0000     0. 
  -6   3   3      3.60    1.00  0. 1.0000     0. 
  -5  -3   3    740.83   21.90  0. 1.0000     0. 
   5  -3  -3    748.23   21.50  0. 1.0000     0. 
   5  -3  -3    773.72   22.00  0. 1.0000     0. 
   5   3  -3    778.82   21.60  0. 1.0000     0. 
  -5   3   3    772.02   21.70  0. 1.0000     0. 
   4  -3  -3     59.59    2.80  0. 1.0000     0. 
   4  -3  -3     57.69    2.40  0. 1.0000     0. 
  -4  -3   3     57.49    2.70  0. 1.0000     0. 
   4   3  -3     59.79    2.60  0. 1.0000     0. 
  -4   3   3     65.59    2.70  0. 1.0000     0. 
   3  -3  -3    727.53   20.00  0. 1.0000     0. 
  -3  -3   3    691.53   19.90  0. 1.0000     0. 
   3  -3  -3    700.73   19.50  0. 1.0000     0. 
  -3   3   3    663.63   19.70  0. 1.0000     0. 
  -3   3   3    695.93   19.60  0. 1.0000     0. 
   3   3  -3    696.73   19.80  0. 1.0000     0. 
  -2  -3   3     69.39    2.60  0. 1.0000     0. 
   2  -3  -3     69.39    3.00  0. 1.0000     0. 
  -2  -3   3     66.39    2.80  0. 1.0000     0. 
   2  -3  -3     68.69    2.50  0. 1.0000     0. 
  -2   3   3     67.49    2.70  0. 1.0000     0. 
   2   3  -3     67.69    2.80  0. 1.0000     0. 
  -2   3   3     64.79    2.60  0. 1.0000     0. 
  -1  -3   3      9.10    1.00  0. 1.0000     0. 
  -1  -3   3      8.30    1.10  0. 1.0000     0. 
   1  -3  -3     10.40    1.20  0. 1.0000     0. 
  -1   3   3     10.00    1.00  0. 1.0000     0. 
  -1   3   3      8.20    1.00  0. 1.0000     0. 
   1   3  -3     10.40    1.20  0. 1.0000     0. 
   0  -3  -3    701.43   19.30  0. 1.0000     0. 
   0  -3  -3    680.43   19.20  0. 1.0000     0. 
   0  -3   3    663.53   19.10  0. 1.0000     0. 
   0  -3   3    640.84   19.00  0. 1.0000     0. 
   0  -3   3    664.33   19.10  0. 1.0000     0. 
   0   3   3    689.83   18.90  0. 1.0000     0. 
   1  -3   3    166.68    5.30  0. 1.0000     0. 
   1  -3   3    168.18    5.50  0. 1.0000     0. 
  -1  -3  -3    169.18    5.70  0. 1.0000     0. 
   1  -3   3    160.28    5.50  0. 1.0000     0. 
  -1  -3  -3    173.58    5.50  0. 1.0000     0. 
   1   3   3    165.28    5.20  0. 1.0000     0. 
  -1   3  -3    167.08    5.30  0. 1.0000     0. 
  -2  -3  -3    102.89    4.10  0. 1.0000     0. 
   2  -3   3    110.59    3.90  0. 1.0000     0. 
   2  -3   3    105.89    4.00  0. 1.0000     0. 
  -2   3  -3    111.59    3.80  0. 1.0000     0. 
   2   3   3    102.89    3.60  0. 1.0000     0. 
  -3  -3  -3    169.28    6.00  0. 1.0000     0. 
   3  -3   3    179.08    5.80  0. 1.0000     0. 
   3  -3   3    172.48    5.90  0. 1.0000     0. 
  -3   3  -3    170.38    5.70  0. 1.0000     0. 
   3   3   3    171.58    5.40  0. 1.0000     0. 
   4  -3   3     16.70    1.50  0. 1.0000     0. 
   4  -3   3     13.20    1.50  0. 1.0000     0. 
   4   3   3     16.00    1.20  0. 1.0000     0. 
  -4   3  -3     14.20    1.40  0. 1.0000     0. 
  -5  -3  -3     41.20    2.50  0. 1.0000     0. 
   5  -3   3     39.40    2.20  0. 1.0000     0. 
   5  -3   3     44.30    2.40  0. 1.0000     0. 
   5   3   3     40.80    1.90  0. 1.0000     0. 
  -5   3  -3     44.00    2.30  0. 1.0000     0. 
   6  -3   3    171.88    6.10  0. 1.0000     0. 
   6  -3   3    166.38    6.00  0. 1.0000     0. 
  -6  -3  -3    180.28    6.30  0. 1.0000     0. 
  -6   3  -3    174.68    6.00  0. 1.0000     0. 
   6   3   3    170.78    5.40  0. 1.0000     0. 
  -7  -3  -3     11.80    1.70  0. 1.0000     0. 
   7  -3   3     13.30    1.50  0. 1.0000     0. 
   7   3   3     14.30    1.30  0. 1.0000     0. 
  -7   3  -3     12.90    1.60  0. 1.0000     0. 
  -8  -3  -3     20.40    2.10  0. 1.0000     0. 
   8  -3   3     21.70    1.90  0. 1.0000     0. 
  -8   3  -3     19.20    1.90  0. 1.0000     0. 
   8   3   3     21.70    1.80  0. 1.0000     0. 
  -8   3  -3     21.50    2.10  0. 1.0000     0. 
  -6  -4   3     26.30    2.30  0. 1.0000     0. 
   6   4  -3     25.90    2.10  0. 1.0000     0. 
  -6   4   3     24.90    2.30  0. 1.0000     0. 
  -5  -4   3     34.40    2.50  0. 1.0000     0. 
  -5   4   3     36.10    2.30  0. 1.0000     0. 
   5   4  -3     30.60    2.30  0. 1.0000     0. 
  -5   4   3     32.90    2.40  0. 1.0000     0. 
  -4  -4   3    528.75   15.90  0. 1.0000     0. 
   4   4  -3    528.95   15.50  0. 1.0000     0. 
  -4   4   3    509.35   15.40  0. 1.0000     0. 
   3  -4  -3      2.60    1.00  0. 1.0000     0. 
  -3  -4   3      3.40    1.10  0. 1.0000     0. 
   3   4  -3      3.20    1.00  0. 1.0000     0. 
   2  -4  -3     20.20    1.80  0. 1.0000     0. 
  -2  -4   3     22.30    1.90  0. 1.0000     0. 
   2   4  -3     22.80    1.90  0. 1.0000     0. 
  -2   4   3     19.20    1.70  0. 1.0000     0. 
  -1  -4   3    163.48    5.80  0. 1.0000     0. 
   1   4  -3    169.08    5.80  0. 1.0000     0. 
  -1   4   3    161.58    5.80  0. 1.0000     0. 
   0  -4   3     19.50    1.90  0. 1.0000     0. 
   0  -4  -3     18.20    1.70  0. 1.0000     0. 
   0   4  -3     17.60    1.80  0. 1.0000     0. 
   1  -4   3     58.49    2.80  0. 1.0000     0. 
  -1  -4  -3     61.39    3.00  0. 1.0000     0. 
   1  -4   3     60.79    3.00  0. 1.0000     0. 
   2  -4   3      0.00    0.70  0. 1.0000     0. 
  -3  -4  -3     21.40    2.10  0. 1.0000     0. 
   3  -4   3     22.80    1.90  0. 1.0000     0. 
   3  -4   3     21.70    2.00  0. 1.0000     0. 
   4  -4   3    143.39    5.40  0. 1.0000     0. 
  -4  -4  -3    147.89    5.80  0. 1.0000     0. 
   4  -4   3    147.49    5.60  0. 1.0000     0. 
  -4   4  -3    144.79    5.30  0. 1.0000     0. 
  -5  -4  -3     49.99    3.10  0. 1.0000     0. 
   5  -4   3     49.60    2.80  0. 1.0000     0. 
   5  -4   3     49.10    2.90  0. 1.0000     0. 
  -5   4  -3     49.60    2.70  0. 1.0000     0. 
  11   0  -4    130.99    4.60  0. 1.0000     0. 
 -10   0   4     20.50    1.30  0. 1.0000     0. 
  10   0  -4     15.40    1.20  0. 1.0000     0. 
   9   0  -4   1080.69   30.00  0. 1.0000     0. 
  -9   0   4   1089.79   29.90  0. 1.0000     0. 
  -8   0   4    316.47    9.30  0. 1.0000     0. 
  -8   0   4    317.57    9.20  0. 1.0000     0. 
   8   0  -4    320.77    9.20  0. 1.0000     0. 
  -8   0   4    316.57    9.20  0. 1.0000     0. 
   7   0  -4    101.99    3.30  0. 1.0000     0. 
  -7   0   4     97.99    3.20  0. 1.0000     0. 
  -7   0   4    104.09    3.30  0. 1.0000     0. 
  -7   0   4    102.99    3.40  0. 1.0000     0. 
  -6   0   4   5798.72  165.48  0. 1.0000     0. 
   6   0  -4   6061.69  165.58  0. 1.0000     0. 
  -6   0   4   6320.37  165.08  0. 1.0000     0. 
  -6   0   4   6121.49  166.28  0. 1.0000     0. 
   5   0  -4    666.33   19.60  0. 1.0000     0. 
  -5   0   4    731.13   19.60  0. 1.0000     0. 
   5   0  -4    714.93   19.50  0. 1.0000     0. 
  -5   0   4    725.33   19.50  0. 1.0000     0. 
   3   0  -4    244.48    7.30  0. 1.0000     0. 
  -3   0   4    240.08    7.40  0. 1.0000     0. 
  -3   0   4    258.67    7.40  0. 1.0000     0. 
   3   0  -4    265.47    7.60  0. 1.0000     0. 
  -2   0   4   8783.52  242.58  0. 1.0000     0. 
   2   0  -4   9126.89  243.28  0. 1.0000     0. 
  -1   0   4   7562.94  204.88  0. 1.0000     0. 
   0   0   4   6437.86  176.68  0. 1.0000     0. 
   0   0   4   6675.73  176.78  0. 1.0000     0. 
   0   0  -4   6430.16  176.98  0. 1.0000     0. 
  -1   0  -4    136.69    4.20  0. 1.0000     0. 
   1   0   4    140.19    4.20  0. 1.0000     0. 
   1   0   4    132.69    4.10  0. 1.0000     0. 
   2   0   4   3948.20  109.29  0. 1.0000     0. 
   2   0   4   4023.20  109.59  0. 1.0000     0. 
  -2   0  -4   3988.60  109.79  0. 1.0000     0. 
   2   0   4   4119.39  109.79  0. 1.0000     0. 
  -3   0  -4    464.15   12.70  0. 1.0000     0. 
   3   0   4    471.25   12.70  0. 1.0000     0. 
   3   0   4    431.96   12.60  0. 1.0000     0. 
   3   0   4    461.35   12.70  0. 1.0000     0. 
  -4   0  -4   2588.94   71.39  0. 1.0000     0. 
   4   0   4   2682.63   70.89  0. 1.0000     0. 
   4   0   4   2547.55   71.49  0. 1.0000     0. 
   5   0   4    205.38    6.00  0. 1.0000     0. 
   5   0   4    199.28    6.00  0. 1.0000     0. 
  -5   0  -4    204.38    6.00  0. 1.0000     0. 
  -6   0  -4   1224.98   32.90  0. 1.0000     0. 
   6   0   4   1153.08   33.00  0. 1.0000     0. 
  -6   0  -4   1226.98   33.00  0. 1.0000     0. 
  -7   0  -4    624.44   17.30  0. 1.0000     0. 
   7   0   4    602.04   17.30  0. 1.0000     0. 
  -8   0  -4     -0.10    0.40  0. 1.0000     0. 
   8   0   4      0.40    0.50  0. 1.0000     0. 
   9   0   4     -0.70    0.50  0. 1.0000     0. 
  -9   0  -4      0.40    0.60  0. 1.0000     0. 
  10   0   4     47.00    2.50  0. 1.0000     0. 
 -10   0  -4     46.30    2.30  0. 1.0000     0. 
  11  -1  -4      7.80    1.30  0. 1.0000     0. 
  11   1  -4     11.10    1.30  0. 1.0000     0. 
 -11   1   4     12.40    1.40  0. 1.0000     0. 
 -11   1   4      9.40    1.50  0. 1.0000     0. 
  10  -1  -4     94.69    3.60  0. 1.0000     0. 
 -10   1   4     98.59    3.80  0. 1.0000     0. 
  10   1  -4     98.39    3.50  0. 1.0000     0. 
 -10   1   4     96.89    3.70  0. 1.0000     0. 
  -9  -1   4     25.70    1.60  0. 1.0000     0. 
   9  -1  -4     27.50    1.50  0. 1.0000     0. 
  -9   1   4     26.10    1.70  0. 1.0000     0. 
   9   1  -4     26.30    1.40  0. 1.0000     0. 
  -9   1   4     24.90    1.60  0. 1.0000     0. 
   8  -1  -4    305.27    8.70  0. 1.0000     0. 
  -8  -1   4    283.17    8.80  0. 1.0000     0. 
  -8  -1   4    297.57    8.40  0. 1.0000     0. 
   8   1  -4    277.37    8.50  0. 1.0000     0. 
  -8   1   4    296.87    8.80  0. 1.0000     0. 
  -8   1   4    292.67    9.00  0. 1.0000     0. 
  -7  -1   4     20.40    1.20  0. 1.0000     0. 
  -7  -1   4     21.10    1.10  0. 1.0000     0. 
   7  -1  -4     20.40    1.10  0. 1.0000     0. 
  -7   1   4     19.20    1.40  0. 1.0000     0. 
  -7   1   4     20.00    1.30  0. 1.0000     0. 
   7   1  -4     20.20    1.10  0. 1.0000     0. 
  -6  -1   4   1114.49   32.10  0. 1.0000     0. 
   6  -1  -4   1203.88   31.90  0. 1.0000     0. 
  -6  -1   4   1231.48   31.80  0. 1.0000     0. 
   6  -1  -4   1122.59   32.30  0. 1.0000     0. 
   6   1  -4   1141.09   31.90  0. 1.0000     0. 
  -6   1   4   1128.19   31.70  0. 1.0000     0. 
  -6   1   4   1221.58   32.10  0. 1.0000     0. 
  -5  -1   4   7322.17  200.08  0. 1.0000     0. 
   5  -1  -4   7320.57  200.28  0. 1.0000     0. 
  -5  -1   4   7560.04  201.48  0. 1.0000     0. 
   5  -1  -4   7153.28  202.68  0. 1.0000     0. 
  -5   1   4   7074.09  199.58  0. 1.0000     0. 
   5   1  -4   7302.27  200.48  0. 1.0000     0. 
  -5   1   4   7840.42  201.18  0. 1.0000     0. 
  -4  -1   4     27.60    1.10  0. 1.0000     0. 
   4  -1  -4     24.50    1.00  0. 1.0000     0. 
   4  -1  -4     24.90    1.40  0. 1.0000     0. 
  -4  -1   4     25.40    1.20  0. 1.0000     0. 
  -4   1   4     26.90    1.00  0. 1.0000     0. 
   4   1  -4     27.00    1.20  0. 1.0000     0. 
  -4   1   4     25.50    1.20  0. 1.0000     0. 
   3  -1  -4    178.48    5.10  0. 1.0000     0. 
   3  -1  -4    186.38    5.60  0. 1.0000     0. 
  -3  -1   4    177.48    5.20  0. 1.0000     0. 
  -3   1   4    184.48    5.30  0. 1.0000     0. 
  -3   1   4    182.38    5.20  0. 1.0000     0. 
   3   1  -4    183.08    5.40  0. 1.0000     0. 
   2  -1  -4    215.88    6.20  0. 1.0000     0. 
  -2  -1   4    221.38    6.40  0. 1.0000     0. 
   2  -1  -4    224.98    6.60  0. 1.0000     0. 
  -2  -1   4    218.88    6.40  0. 1.0000     0. 
   2   1  -4    226.78    6.50  0. 1.0000     0. 
  -2   1   4    224.58    6.40  0. 1.0000     0. 
  -2   1   4    231.88    6.40  0. 1.0000     0. 
  -1  -1   4   4232.28  114.09  0. 1.0000     0. 
   1  -1  -4   4172.18  114.89  0. 1.0000     0. 
  -1  -1   4   4158.78  114.19  0. 1.0000     0. 
   1   1  -4   4237.48  113.59  0. 1.0000     0. 
  -1   1   4   4297.37  113.89  0. 1.0000     0. 
  -1   1   4   4017.00  114.19  0. 1.0000     0. 
   0  -1   4   2212.78   59.29  0. 1.0000     0. 
   0  -1   4   2205.78   58.99  0. 1.0000     0. 
   0  -1  -4   2188.98   59.39  0. 1.0000     0. 
   0  -1   4   2154.38   59.29  0. 1.0000     0. 
   0   1   4   2061.49   58.59  0. 1.0000     0. 
   0   1   4   2193.88   58.59  0. 1.0000     0. 
   0   1   4   2060.19   58.29  0. 1.0000     0. 
   0   1  -4   2193.98   58.99  0. 1.0000     0. 
   1  -1   4    514.05   14.30  0. 1.0000     0. 
  -1  -1  -4    497.15   14.20  0. 1.0000     0. 
   1  -1   4    503.95   14.00  0. 1.0000     0. 
   1  -1   4    522.95   14.30  0. 1.0000     0. 
   1   1   4    532.75   13.90  0. 1.0000     0. 
  -1   1  -4    509.15   14.10  0. 1.0000     0. 
   2  -1   4    391.36   11.10  0. 1.0000     0. 
   2  -1   4    376.06   10.60  0. 1.0000     0. 
  -2  -1  -4    394.76   11.00  0. 1.0000     0. 
   2  -1   4    398.46   11.00  0. 1.0000     0. 
  -2  -1  -4    385.76   10.90  0. 1.0000     0. 
  -2   1  -4    391.36   10.90  0. 1.0000     0. 
   2   1   4    380.16   10.70  0. 1.0000     0. 
   3  -1   4   4401.26  117.49  0. 1.0000     0. 
  -3  -1  -4   4370.16  117.99  0. 1.0000     0. 
  -3  -1  -4   4315.27  117.19  0. 1.0000     0. 
   3  -1   4   4200.18  116.59  0. 1.0000     0. 
  -3   1  -4   4294.17  117.79  0. 1.0000     0. 
   3   1   4   4182.48  116.69  0. 1.0000     0. 
  -4  -1  -4    187.08    5.90  0. 1.0000     0. 
   4  -1   4    194.78    6.00  0. 1.0000     0. 
  -4  -1  -4    196.58    5.70  0. 1.0000     0. 
  -4   1  -4    196.08    5.80  0. 1.0000     0. 
   4   1   4    189.28    5.60  0. 1.0000     0. 
  -5  -1  -4     65.39    2.30  0. 1.0000     0. 
   5  -1   4     64.29    2.50  0. 1.0000     0. 
  -5  -1  -4     65.89    2.50  0. 1.0000     0. 
   5  -1   4     64.09    2.50  0. 1.0000     0. 
   5   1   4     64.89    2.20  0. 1.0000     0. 
  -5   1  -4     66.29    2.50  0. 1.0000     0. 
   6  -1   4     73.39    2.90  0. 1.0000     0. 
  -6  -1  -4     77.29    2.90  0. 1.0000     0. 
   6  -1   4     75.29    2.90  0. 1.0000     0. 
  -6  -1  -4     76.39    2.70  0. 1.0000     0. 
   6   1   4     77.09    2.60  0. 1.0000     0. 
  -6   1  -4     78.59    2.90  0. 1.0000     0. 
   7  -1   4    252.77    7.70  0. 1.0000     0. 
  -7  -1  -4    243.58    7.40  0. 1.0000     0. 
   7   1   4    253.97    7.50  0. 1.0000     0. 
  -7   1  -4    252.77    7.70  0. 1.0000     0. 
   8  -1   4    609.64   17.10  0. 1.0000     0. 
  -8   1  -4    579.54   17.00  0. 1.0000     0. 
  -8   1  -4    571.24   17.00  0. 1.0000     0. 
   8   1   4    607.94   16.80  0. 1.0000     0. 
   9  -1   4     45.20    2.40  0. 1.0000     0. 
   9   1   4     46.20    2.20  0. 1.0000     0. 
  -9   1  -4     43.20    2.30  0. 1.0000     0. 
  10  -1   4     19.50    1.70  0. 1.0000     0. 
  10   1   4     18.90    1.50  0. 1.0000     0. 
 -10   1  -4     18.90    1.70  0. 1.0000     0. 
 -10  -2   4    282.57    9.40  0. 1.0000     0. 
  10  -2  -4    291.97    9.10  0. 1.0000     0. 
  10   2  -4    300.47    8.90  0. 1.0000     0. 
 -10   2   4    286.87    9.20  0. 1.0000     0. 
 -10   2   4    292.27    9.50  0. 1.0000     0. 
  -9  -2   4     84.49    3.70  0. 1.0000     0. 
   9  -2  -4     87.19    3.40  0. 1.0000     0. 
  -9   2   4     83.89    3.80  0. 1.0000     0. 
  -9   2   4     84.99    3.50  0. 1.0000     0. 
   9   2  -4     94.49    3.30  0. 1.0000     0. 
  -8  -2   4     47.40    2.40  0. 1.0000     0. 
   8  -2  -4     50.39    2.20  0. 1.0000     0. 
  -8   2   4     49.00    2.60  0. 1.0000     0. 
   8   2  -4     46.30    2.10  0. 1.0000     0. 
  -8   2   4     49.00    2.40  0. 1.0000     0. 
   7  -2  -4   1016.00   27.70  0. 1.0000     0. 
  -7  -2   4   1000.10   28.10  0. 1.0000     0. 
   7   2  -4    985.30   27.60  0. 1.0000     0. 
  -7   2   4    985.60   27.90  0. 1.0000     0. 
  -6  -2   4     32.40    1.80  0. 1.0000     0. 
   6  -2  -4     31.80    1.90  0. 1.0000     0. 
   6  -2  -4     31.70    1.60  0. 1.0000     0. 
   6   2  -4     35.70    1.70  0. 1.0000     0. 
  -5  -2   4    400.26   11.00  0. 1.0000     0. 
  -5  -2   4    376.86   11.40  0. 1.0000     0. 
   5  -2  -4    395.96   11.10  0. 1.0000     0. 
   5  -2  -4    388.26   11.60  0. 1.0000     0. 
  -5   2   4    380.86   10.90  0. 1.0000     0. 
  -5   2   4    407.36   11.40  0. 1.0000     0. 
   5   2  -4    377.06   11.20  0. 1.0000     0. 
  -4  -2   4    180.38    5.70  0. 1.0000     0. 
   4  -2  -4    189.28    6.00  0. 1.0000     0. 
  -4  -2   4    187.28    5.40  0. 1.0000     0. 
   4  -2  -4    180.58    5.40  0. 1.0000     0. 
   4   2  -4    178.68    5.60  0. 1.0000     0. 
  -4   2   4    175.08    5.60  0. 1.0000     0. 
  -4   2   4    174.18    5.30  0. 1.0000     0. 
   3  -2  -4   1260.77   35.00  0. 1.0000     0. 
  -3  -2   4   1292.17   35.30  0. 1.0000     0. 
   3  -2  -4   1351.46   35.60  0. 1.0000     0. 
  -3  -2   4   1338.87   35.10  0. 1.0000     0. 
  -3   2   4   1240.18   35.20  0. 1.0000     0. 
  -3   2   4   1211.28   35.10  0. 1.0000     0. 
   3   2  -4   1284.07   35.30  0. 1.0000     0. 
  -2  -2   4     60.99    2.20  0. 1.0000     0. 
   2  -2  -4     58.59    2.00  0. 1.0000     0. 
  -2  -2   4     60.49    2.30  0. 1.0000     0. 
   2  -2  -4     63.39    2.50  0. 1.0000     0. 
  -2   2   4     57.89    2.20  0. 1.0000     0. 
   2   2  -4     59.59    2.30  0. 1.0000     0. 
  -2   2   4     63.99    2.30  0. 1.0000     0. 
  -1  -2   4    155.48    4.90  0. 1.0000     0. 
  -1  -2   4    158.58    5.00  0. 1.0000     0. 
   1  -2  -4    167.28    5.20  0. 1.0000     0. 
  -1  -2   4    170.98    4.90  0. 1.0000     0. 
  -1   2   4    152.28    5.00  0. 1.0000     0. 
  -1   2   4    164.28    4.80  0. 1.0000     0. 
   1   2  -4    148.99    4.60  0. 1.0000     0. 
   0  -2  -4     72.29    2.60  0. 1.0000     0. 
   0  -2   4     71.09    2.40  0. 1.0000     0. 
   0  -2   4     72.19    2.60  0. 1.0000     0. 
   0  -2   4     73.79    2.60  0. 1.0000     0. 
   0   2  -4     65.49    2.30  0. 1.0000     0. 
   0   2   4     67.09    2.20  0. 1.0000     0. 
   0   2   4     66.29    2.20  0. 1.0000     0. 
   1  -2   4    288.17    8.30  0. 1.0000     0. 
   1  -2   4    289.47    8.40  0. 1.0000     0. 
  -1  -2  -4    280.37    8.40  0. 1.0000     0. 
   1  -2   4    285.07    8.10  0. 1.0000     0. 
  -1  -2  -4    290.47    8.30  0. 1.0000     0. 
   1   2   4    268.27    7.90  0. 1.0000     0. 
  -1   2  -4    273.97    8.10  0. 1.0000     0. 
   2  -2   4    419.86   11.70  0. 1.0000     0. 
  -2  -2  -4    407.66   11.70  0. 1.0000     0. 
  -2  -2  -4    408.96   11.50  0. 1.0000     0. 
   2  -2   4    419.36   11.20  0. 1.0000     0. 
  -2   2  -4    381.46   11.40  0. 1.0000     0. 
   2   2   4    371.56   11.20  0. 1.0000     0. 
   3  -2   4     26.60    1.50  0. 1.0000     0. 
  -3  -2  -4     26.70    1.40  0. 1.0000     0. 
  -3  -2  -4     25.90    1.50  0. 1.0000     0. 
   3  -2   4     28.00    1.50  0. 1.0000     0. 
  -3   2  -4     26.50    1.40  0. 1.0000     0. 
   3   2   4     25.90    1.10  0. 1.0000     0. 
   4  -2   4   1307.67   34.50  0. 1.0000     0. 
   4  -2   4   1282.17   34.60  0. 1.0000     0. 
  -4  -2  -4   1253.47   34.20  0. 1.0000     0. 
  -4  -2  -4   1212.18   34.50  0. 1.0000     0. 
  -4   2  -4   1197.08   34.30  0. 1.0000     0. 
   4   2   4   1208.88   33.90  0. 1.0000     0. 
   5  -2   4     77.69    3.10  0. 1.0000     0. 
  -5  -2  -4     79.69    3.20  0. 1.0000     0. 
   5  -2   4     78.49    3.20  0. 1.0000     0. 
   5   2   4     76.89    2.60  0. 1.0000     0. 
  -5   2  -4     77.39    3.00  0. 1.0000     0. 
   6  -2   4      4.90    0.90  0. 1.0000     0. 
   6  -2   4      5.60    1.00  0. 1.0000     0. 
  -6  -2  -4      6.10    1.00  0. 1.0000     0. 
   6   2   4      5.80    0.80  0. 1.0000     0. 
  -6   2  -4      5.20    1.00  0. 1.0000     0. 
  -7  -2  -4    549.54   16.30  0. 1.0000     0. 
   7  -2   4    543.85   16.10  0. 1.0000     0. 
   7  -2   4    559.04   16.30  0. 1.0000     0. 
  -7   2  -4    553.74   16.10  0. 1.0000     0. 
   7   2   4    559.04   15.60  0. 1.0000     0. 
   8  -2   4      0.10    0.60  0. 1.0000     0. 
  -8   2  -4     -0.50    0.70  0. 1.0000     0. 
  -8   2  -4      1.60    0.70  0. 1.0000     0. 
   8   2   4      1.00    0.60  0. 1.0000     0. 
   9  -2   4    160.38    5.80  0. 1.0000     0. 
  -9   2  -4    152.18    5.70  0. 1.0000     0. 
   9   2   4    155.28    5.20  0. 1.0000     0. 
  -9   2  -4    159.88    5.60  0. 1.0000     0. 
  -9  -3   4     52.59    3.10  0. 1.0000     0. 
  -9   3   4     53.69    3.20  0. 1.0000     0. 
  -9   3   4     48.80    2.90  0. 1.0000     0. 
   9   3  -4     53.39    2.60  0. 1.0000     0. 
  -8  -3   4     42.60    2.70  0. 1.0000     0. 
  -8   3   4     49.20    2.70  0. 1.0000     0. 
   8   3  -4     47.90    2.40  0. 1.0000     0. 
  -8   3   4     43.80    2.80  0. 1.0000     0. 
  -7  -3   4      1.60    0.90  0. 1.0000     0. 
  -7   3   4      2.20    0.90  0. 1.0000     0. 
  -7   3   4      0.70    0.80  0. 1.0000     0. 
   7   3  -4      1.90    0.80  0. 1.0000     0. 
  -6  -3   4    394.66   12.20  0. 1.0000     0. 
   6  -3  -4    398.36   12.20  0. 1.0000     0. 
   6   3  -4    406.36   11.80  0. 1.0000     0. 
  -6   3   4    391.86   11.90  0. 1.0000     0. 
   5   3  -4      8.50    1.40  0. 1.0000     0. 
  -5   3   4      8.00    1.40  0. 1.0000     0. 
   4  -3  -4     14.80    1.60  0. 1.0000     0. 
  -4  -3   4     15.50    1.40  0. 1.0000     0. 
  -4   3   4     14.70    1.10  0. 1.0000     0. 
  -4   3   4     13.70    1.30  0. 1.0000     0. 
   4   3  -4     13.20    1.40  0. 1.0000     0. 
   3  -3  -4      5.30    1.10  0. 1.0000     0. 
  -3  -3   4      6.60    0.90  0. 1.0000     0. 
  -3  -3   4      5.90    1.10  0. 1.0000     0. 
  -3   3   4      8.30    1.10  0. 1.0000     0. 
   3   3  -4      4.20    0.90  0. 1.0000     0. 
  -2  -3   4     98.39    3.50  0. 1.0000     0. 
  -2  -3   4     96.49    3.60  0. 1.0000     0. 
   2  -3  -4     98.59    3.80  0. 1.0000     0. 
  -2   3   4     90.79    3.40  0. 1.0000     0. 
   2   3  -4     96.79    3.60  0. 1.0000     0. 
  -2   3   4     96.19    3.60  0. 1.0000     0. 
  -1  -3   4     28.00    1.70  0. 1.0000     0. 
   1  -3  -4     31.10    1.90  0. 1.0000     0. 
  -1  -3   4     26.40    1.60  0. 1.0000     0. 
   1   3  -4     28.80    1.80  0. 1.0000     0. 
   0  -3  -4     51.29    2.40  0. 1.0000     0. 
   0  -3   4     52.89    2.30  0. 1.0000     0. 
   0  -3   4     47.30    2.30  0. 1.0000     0. 
   0  -3   4     48.80    2.20  0. 1.0000     0. 
   0  -3  -4     52.89    2.50  0. 1.0000     0. 
   1  -3   4      0.90    0.60  0. 1.0000     0. 
   1  -3   4      0.00    0.60  0. 1.0000     0. 
   2  -3   4      2.10    0.70  0. 1.0000     0. 
   2  -3   4      0.20    0.70  0. 1.0000     0. 
  -2  -3  -4      1.80    0.90  0. 1.0000     0. 
  -2   3  -4      1.20    0.60  0. 1.0000     0. 
  -3  -3  -4    141.59    5.30  0. 1.0000     0. 
   3  -3   4    144.99    5.10  0. 1.0000     0. 
   3  -3   4    148.49    5.20  0. 1.0000     0. 
  -3   3  -4    150.18    4.90  0. 1.0000     0. 
   4  -3   4      0.00    0.70  0. 1.0000     0. 
  -4  -3  -4     -0.30    0.70  0. 1.0000     0. 
   4  -3   4      0.40    0.60  0. 1.0000     0. 
  -4   3  -4      0.90    0.60  0. 1.0000     0. 
   5  -3   4     54.89    2.70  0. 1.0000     0. 
   5  -3   4     58.39    2.90  0. 1.0000     0. 
  -5  -3  -4     59.49    3.00  0. 1.0000     0. 
  -5   3  -4     58.89    2.70  0. 1.0000     0. 
   6  -3   4      4.00    0.90  0. 1.0000     0. 
   6  -3   4      4.60    1.00  0. 1.0000     0. 
  -6  -3  -4      5.70    1.30  0. 1.0000     0. 
  -6   3  -4      4.60    0.90  0. 1.0000     0. 
   7  -3   4      0.40    0.90  0. 1.0000     0. 
   7  -3   4      0.90    0.70  0. 1.0000     0. 
  -7  -3  -4      0.90    0.90  0. 1.0000     0. 
  -7   3  -4      0.90    0.70  0. 1.0000     0. 
  -6  -4   4     11.20    1.80  0. 1.0000     0. 
  -5  -4   4     11.40    1.80  0. 1.0000     0. 
  -5   4   4     13.20    1.70  0. 1.0000     0. 
   5   4  -4     10.10    1.80  0. 1.0000     0. 
   4  -4  -4     23.20    2.10  0. 1.0000     0. 
  -4  -4   4     25.30    2.20  0. 1.0000     0. 
   4   4  -4     25.90    2.20  0. 1.0000     0. 
  -4   4   4     23.40    1.90  0. 1.0000     0. 
   3  -4  -4     75.09    3.50  0. 1.0000     0. 
  -3  -4   4     68.69    3.30  0. 1.0000     0. 
   3   4  -4     71.59    3.40  0. 1.0000     0. 
  -2  -4   4     11.40    1.60  0. 1.0000     0. 
   2  -4  -4     11.80    1.80  0. 1.0000     0. 
  -2   4   4     13.70    1.60  0. 1.0000     0. 
   2   4  -4     12.20    1.70  0. 1.0000     0. 
  -1  -4   4      0.80    0.90  0. 1.0000     0. 
   1   4  -4      1.70    0.90  0. 1.0000     0. 
  -1   4   4      2.00    1.00  0. 1.0000     0. 
   0  -4   4     54.69    2.80  0. 1.0000     0. 
   0   4  -4     55.69    2.90  0. 1.0000     0. 
  -1  -4  -4     32.30    2.30  0. 1.0000     0. 
   1  -4   4     30.60    2.20  0. 1.0000     0. 
   1  -4   4     30.90    2.10  0. 1.0000     0. 
   2  -4   4      5.00    1.10  0. 1.0000     0. 
   2  -4   4      3.70    1.10  0. 1.0000     0. 
  -2  -4  -4      5.20    1.30  0. 1.0000     0. 
  -3  -4  -4     79.39    3.80  0. 1.0000     0. 
   3  -4   4     78.09    3.50  0. 1.0000     0. 
   3  -4   4     78.79    3.70  0. 1.0000     0. 
  -4  -4  -4     14.70    1.90  0. 1.0000     0. 
   4  -4   4     10.50    1.70  0. 1.0000     0. 
   4  -4   4     11.90    1.60  0. 1.0000     0. 
  -4   4  -4     11.30    1.60  0. 1.0000     0. 
  11   0  -5      0.30    0.60  0. 1.0000     0. 
 -11   0   5     -0.70    0.70  0. 1.0000     0. 
 -10   0   5     -0.90    0.50  0. 1.0000     0. 
  10   0  -5     -0.20    0.40  0. 1.0000     0. 
   9   0  -5      0.00    0.40  0. 1.0000     0. 
  -9   0   5     -0.10    0.50  0. 1.0000     0. 
  -8   0   5      0.00    0.50  0. 1.0000     0. 
  -8   0   5      0.10    0.40  0. 1.0000     0. 
   8   0  -5     -0.20    0.40  0. 1.0000     0. 
  -8   0   5      0.40    0.40  0. 1.0000     0. 
  -7   0   5      0.40    0.30  0. 1.0000     0. 
   7   0  -5     -0.20    0.20  0. 1.0000     0. 
  -7   0   5      0.90    0.40  0. 1.0000     0. 
   6   0  -5      0.70    0.30  0. 1.0000     0. 
   6   0  -5      0.30    0.30  0. 1.0000     0. 
  -6   0   5      0.50    0.40  0. 1.0000     0. 
  -6   0   5      0.50    0.30  0. 1.0000     0. 
  -5   0   5     -0.40    0.30  0. 1.0000     0. 
  -5   0   5      0.20    0.30  0. 1.0000     0. 
   5   0  -5     -0.60    0.30  0. 1.0000     0. 
   5   0  -5     -0.30    0.30  0. 1.0000     0. 
  -4   0   5      1.00    0.20  0. 1.0000     0. 
   4   0  -5      0.50    0.20  0. 1.0000     0. 
   3   0  -5      1.30    0.30  0. 1.0000     0. 
   3   0  -5      1.60    0.30  0. 1.0000     0. 
  -2   0   5      1.10    0.20  0. 1.0000     0. 
   2   0  -5      1.80    0.30  0. 1.0000     0. 
  -1   0   5      1.30    0.20  0. 1.0000     0. 
   0   0   5     -0.50    0.40  0. 1.0000     0. 
   0   0  -5     -0.10    0.40  0. 1.0000     0. 
  -1   0  -5      0.30    0.20  0. 1.0000     0. 
   2   0   5     -0.10    0.20  0. 1.0000     0. 
   2   0   5      0.00    0.20  0. 1.0000     0. 
  -2   0  -5     -0.30    0.20  0. 1.0000     0. 
   3   0   5      2.20    0.40  0. 1.0000     0. 
   3   0   5      1.70    0.30  0. 1.0000     0. 
   4   0   5     -0.20    0.30  0. 1.0000     0. 
   4   0   5      0.60    0.30  0. 1.0000     0. 
  -5   0  -5      0.30    0.30  0. 1.0000     0. 
   5   0   5     -0.10    0.30  0. 1.0000     0. 
   5   0   5      0.40    0.30  0. 1.0000     0. 
   6   0   5      0.70    0.40  0. 1.0000     0. 
  -6   0  -5      0.00    0.40  0. 1.0000     0. 
  -7   0  -5      0.30    0.50  0. 1.0000     0. 
   7   0   5      0.00    0.40  0. 1.0000     0. 
   8   0   5      0.30    0.50  0. 1.0000     0. 
  -8   0  -5      0.30    0.50  0. 1.0000     0. 
   9   0   5      5.00    0.90  0. 1.0000     0. 
  10   0   5      0.00    0.60  0. 1.0000     0. 
 -10   0  -5      0.00    0.60  0. 1.0000     0. 
  11  -1  -5    170.38    5.90  0. 1.0000     0. 
  11   1  -5    182.48    5.80  0. 1.0000     0. 
 -11   1   5    175.28    5.90  0. 1.0000     0. 
  10  -1  -5     43.60    2.10  0. 1.0000     0. 
 -10  -1   5     41.20    2.30  0. 1.0000     0. 
 -10   1   5     43.60    2.30  0. 1.0000     0. 
 -10   1   5     44.40    2.30  0. 1.0000     0. 
  10   1  -5     45.40    2.00  0. 1.0000     0. 
  -9  -1   5    280.77    8.70  0. 1.0000     0. 
   9  -1  -5    293.67    8.50  0. 1.0000     0. 
  -9   1   5    288.07    8.60  0. 1.0000     0. 
   9   1  -5    273.57    8.40  0. 1.0000     0. 
  -9   1   5    288.67    8.90  0. 1.0000     0. 
  -8  -1   5    318.57    9.70  0. 1.0000     0. 
   8  -1  -5    322.47    9.50  0. 1.0000     0. 
  -8  -1   5    329.07    9.40  0. 1.0000     0. 
  -8   1   5    344.97   10.00  0. 1.0000     0. 
  -8   1   5    327.37    9.70  0. 1.0000     0. 
   8   1  -5    313.57    9.40  0. 1.0000     0. 
   7  -1  -5      0.50    0.30  0. 1.0000     0. 
   7  -1  -5      0.10    0.40  0. 1.0000     0. 
  -7  -1   5      0.50    0.40  0. 1.0000     0. 
  -7   1   5      0.40    0.30  0. 1.0000     0. 
  -7   1   5      0.00    0.50  0. 1.0000     0. 
   6  -1  -5   2042.80   58.99  0. 1.0000     0. 
  -6  -1   5   2101.39   58.69  0. 1.0000     0. 
   6  -1  -5   2193.18   58.69  0. 1.0000     0. 
  -6  -1   5   2215.78   58.49  0. 1.0000     0. 
  -6   1   5   2222.48   58.79  0. 1.0000     0. 
   6   1  -5   2218.18   58.59  0. 1.0000     0. 
  -6   1   5   2093.39   58.29  0. 1.0000     0. 
  -5  -1   5    823.02   22.10  0. 1.0000     0. 
   5  -1  -5    794.62   21.90  0. 1.0000     0. 
  -5  -1   5    808.82   22.00  0. 1.0000     0. 
   5  -1  -5    787.12   22.40  0. 1.0000     0. 
  -5   1   5    766.52   21.80  0. 1.0000     0. 
   5   1  -5    796.82   22.10  0. 1.0000     0. 
  -5   1   5    824.02   22.20  0. 1.0000     0. 
   4  -1  -5    195.78    5.90  0. 1.0000     0. 
  -4  -1   5    186.98    5.50  0. 1.0000     0. 
  -4  -1   5    190.98    5.60  0. 1.0000     0. 
   4  -1  -5    183.98    5.40  0. 1.0000     0. 
   4   1  -5    190.08    5.60  0. 1.0000     0. 
  -4   1   5    185.68    5.60  0. 1.0000     0. 
  -4   1   5    189.08    5.40  0. 1.0000     0. 
  -3  -1   5   3208.48   86.59  0. 1.0000     0. 
  -3  -1   5   3159.58   86.49  0. 1.0000     0. 
   3  -1  -5   3271.47   86.69  0. 1.0000     0. 
   3  -1  -5   2979.30   85.69  0. 1.0000     0. 
  -3   1   5   3145.29   86.19  0. 1.0000     0. 
   3   1  -5   3199.58   86.39  0. 1.0000     0. 
  -3   1   5   3156.18   86.49  0. 1.0000     0. 
  -2  -1   5    772.82   21.20  0. 1.0000     0. 
   2  -1  -5    778.62   21.50  0. 1.0000     0. 
  -2  -1   5    751.12   21.30  0. 1.0000     0. 
  -2   1   5    798.32   21.20  0. 1.0000     0. 
   2   1  -5    753.22   21.00  0. 1.0000     0. 
   2   1  -5    796.42   21.40  0. 1.0000     0. 
  -2   1   5    757.92   21.20  0. 1.0000     0. 
  -1  -1   5   1019.20   27.00  0. 1.0000     0. 
   1  -1  -5    977.80   27.10  0. 1.0000     0. 
  -1  -1   5    996.70   26.80  0. 1.0000     0. 
  -1  -1   5    970.50   27.00  0. 1.0000     0. 
  -1   1   5    969.00   26.80  0. 1.0000     0. 
   1   1  -5   1003.80   26.80  0. 1.0000     0. 
  -1   1   5    965.60   27.00  0. 1.0000     0. 
   0  -1   5    181.58    4.90  0. 1.0000     0. 
   0  -1   5    176.78    5.20  0. 1.0000     0. 
   0  -1  -5    171.68    5.20  0. 1.0000     0. 
   0   1   5    162.88    5.10  0. 1.0000     0. 
   0   1  -5    174.68    5.00  0. 1.0000     0. 
   0   1   5    177.88    4.90  0. 1.0000     0. 
   1  -1   5   1305.17   35.80  0. 1.0000     0. 
   1  -1   5   1271.27   35.40  0. 1.0000     0. 
   1  -1   5   1361.36   35.80  0. 1.0000     0. 
  -1  -1  -5   1290.07   35.70  0. 1.0000     0. 
  -1   1  -5   1303.37   35.60  0. 1.0000     0. 
   1   1   5   1238.08   35.40  0. 1.0000     0. 
   1   1   5   1423.36   35.40  0. 1.0000     0. 
   1   1   5   1275.27   35.80  0. 1.0000     0. 
  -2  -1  -5     77.29    2.60  0. 1.0000     0. 
   2  -1   5     78.99    2.70  0. 1.0000     0. 
   2  -1   5     78.79    2.70  0. 1.0000     0. 
   2  -1   5     74.79    2.20  0. 1.0000     0. 
  -2   1  -5     82.19    2.50  0. 1.0000     0. 
   2   1   5     75.69    2.30  0. 1.0000     0. 
   3  -1   5    768.42   21.50  0. 1.0000     0. 
   3  -1   5    790.02   21.40  0. 1.0000     0. 
  -3  -1  -5    765.12   21.50  0. 1.0000     0. 
  -3  -1  -5    775.92   21.30  0. 1.0000     0. 
   3   1   5    747.13   21.10  0. 1.0000     0. 
  -3   1  -5    785.82   21.30  0. 1.0000     0. 
  -4  -1  -5      0.10    0.30  0. 1.0000     0. 
   4  -1   5      1.30    0.40  0. 1.0000     0. 
  -4  -1  -5     -0.10    0.30  0. 1.0000     0. 
   4  -1   5      0.10    0.40  0. 1.0000     0. 
   4   1   5      1.00    0.30  0. 1.0000     0. 
  -4   1  -5      1.00    0.40  0. 1.0000     0. 
  -5  -1  -5     43.30    1.80  0. 1.0000     0. 
   5  -1   5     40.50    1.90  0. 1.0000     0. 
   5  -1   5     46.30    2.00  0. 1.0000     0. 
  -5  -1  -5     42.50    1.90  0. 1.0000     0. 
  -5   1  -5     42.80    1.90  0. 1.0000     0. 
   5   1   5     42.70    1.70  0. 1.0000     0. 
  -6  -1  -5    579.14   16.40  0. 1.0000     0. 
  -6  -1  -5    581.54   16.30  0. 1.0000     0. 
   6  -1   5    559.94   16.50  0. 1.0000     0. 
   6  -1   5    569.74   16.60  0. 1.0000     0. 
  -6   1  -5    573.64   16.40  0. 1.0000     0. 
   6   1   5    604.44   16.20  0. 1.0000     0. 
   7  -1   5      0.60    0.50  0. 1.0000     0. 
   7  -1   5      0.80    0.50  0. 1.0000     0. 
  -7  -1  -5      0.50    0.40  0. 1.0000     0. 
   7   1   5      0.90    0.50  0. 1.0000     0. 
  -7   1  -5      0.30    0.50  0. 1.0000     0. 
   8  -1   5    214.28    6.90  0. 1.0000     0. 
  -8  -1  -5    215.38    6.70  0. 1.0000     0. 
  -8   1  -5    205.38    6.70  0. 1.0000     0. 
   8   1   5    205.88    6.50  0. 1.0000     0. 
  -8   1  -5    203.68    6.70  0. 1.0000     0. 
   9  -1   5     33.90    2.10  0. 1.0000     0. 
  -9   1  -5     35.80    2.10  0. 1.0000     0. 
   9   1   5     33.30    1.90  0. 1.0000     0. 
  10  -1   5     13.10    1.50  0. 1.0000     0. 
 -10   1  -5     12.90    1.50  0. 1.0000     0. 
  10   1   5     14.10    1.40  0. 1.0000     0. 
  10  -2  -5    322.77    9.80  0. 1.0000     0. 
 -10  -2   5    314.77   10.10  0. 1.0000     0. 
  10   2  -5    319.97    9.50  0. 1.0000     0. 
 -10   2   5    308.67    9.90  0. 1.0000     0. 
 -10   2   5    312.27   10.20  0. 1.0000     0. 
  -9  -2   5     27.60    1.90  0. 1.0000     0. 
   9  -2  -5     27.50    1.70  0. 1.0000     0. 
   9   2  -5     29.40    1.70  0. 1.0000     0. 
  -9   2   5     25.80    1.90  0. 1.0000     0. 
  -9   2   5     25.60    2.00  0. 1.0000     0. 
  -8   2   5      0.60    0.70  0. 1.0000     0. 
  -7  -2   5   1119.29   31.30  0. 1.0000     0. 
   7  -2  -5   1118.19   30.90  0. 1.0000     0. 
   7  -2  -5   1142.79   31.50  0. 1.0000     0. 
  -7   2   5   1117.09   31.10  0. 1.0000     0. 
   7   2  -5   1083.89   30.90  0. 1.0000     0. 
  -6  -2   5      4.60    0.90  0. 1.0000     0. 
  -6  -2   5      4.90    0.70  0. 1.0000     0. 
   6  -2  -5      4.30    0.70  0. 1.0000     0. 
   6  -2  -5      3.50    0.80  0. 1.0000     0. 
  -6   2   5      4.40    0.80  0. 1.0000     0. 
   5  -2  -5    383.56   10.80  0. 1.0000     0. 
   5  -2  -5    377.16   11.40  0. 1.0000     0. 
  -5  -2   5    384.16   10.80  0. 1.0000     0. 
  -5  -2   5    369.46   11.10  0. 1.0000     0. 
  -5   2   5    390.16   11.10  0. 1.0000     0. 
  -5   2   5    373.76   10.60  0. 1.0000     0. 
   5   2  -5    376.86   11.00  0. 1.0000     0. 
   4  -2  -5    853.01   23.70  0. 1.0000     0. 
   4  -2  -5    890.61   24.30  0. 1.0000     0. 
  -4  -2   5    876.11   24.00  0. 1.0000     0. 
  -4  -2   5    890.81   23.80  0. 1.0000     0. 
  -4   2   5    820.22   23.60  0. 1.0000     0. 
   4   2  -5    847.42   23.90  0. 1.0000     0. 
  -4   2   5    842.42   23.90  0. 1.0000     0. 
  -3  -2   5     91.09    3.20  0. 1.0000     0. 
  -3  -2   5     93.09    3.10  0. 1.0000     0. 
   3  -2  -5     89.29    2.80  0. 1.0000     0. 
   3  -2  -5     89.59    3.40  0. 1.0000     0. 
   3   2  -5     91.49    3.20  0. 1.0000     0. 
  -3   2   5     87.39    3.00  0. 1.0000     0. 
  -3   2   5     87.49    3.00  0. 1.0000     0. 
  -2  -2   5   1359.56   37.10  0. 1.0000     0. 
  -2  -2   5   1366.26   37.10  0. 1.0000     0. 
   2  -2  -5   1384.76   37.40  0. 1.0000     0. 
   2  -2  -5   1340.97   36.80  0. 1.0000     0. 
   2   2  -5   1369.26   37.20  0. 1.0000     0. 
  -2   2   5   1283.97   37.10  0. 1.0000     0. 
  -2   2   5   1370.26   37.00  0. 1.0000     0. 
  -1  -2   5    402.56   11.60  0. 1.0000     0. 
   1  -2  -5    424.86   11.80  0. 1.0000     0. 
  -1  -2   5    421.16   11.50  0. 1.0000     0. 
  -1  -2   5    424.26   11.60  0. 1.0000     0. 
   1   2  -5    373.76   11.10  0. 1.0000     0. 
  -1   2   5    376.66   11.10  0. 1.0000     0. 
  -1   2   5    402.86   11.30  0. 1.0000     0. 
  -1   2   5    398.56   11.60  0. 1.0000     0. 
   0  -2   5    613.34   17.00  0. 1.0000     0. 
   0  -2   5    630.94   17.10  0. 1.0000     0. 
   0  -2  -5    632.84   17.10  0. 1.0000     0. 
   0  -2   5    619.04   16.80  0. 1.0000     0. 
   0   2   5    590.04   16.50  0. 1.0000     0. 
   0   2   5    601.14   17.00  0. 1.0000     0. 
   0   2   5    559.94   16.50  0. 1.0000     0. 
   0   2  -5    575.04   16.60  0. 1.0000     0. 
  -1  -2  -5    159.08    5.00  0. 1.0000     0. 
  -1  -2  -5    155.98    4.90  0. 1.0000     0. 
   1  -2   5    156.68    4.90  0. 1.0000     0. 
   1  -2   5    153.88    4.60  0. 1.0000     0. 
   1  -2   5    154.48    5.00  0. 1.0000     0. 
   1   2   5    141.99    4.40  0. 1.0000     0. 
  -1   2  -5    147.89    4.60  0. 1.0000     0. 
  -2  -2  -5    134.69    4.50  0. 1.0000     0. 
   2  -2   5    141.19    4.50  0. 1.0000     0. 
  -2  -2  -5    136.09    4.30  0. 1.0000     0. 
  -2   2  -5    125.99    4.10  0. 1.0000     0. 
   2   2   5    121.29    3.80  0. 1.0000     0. 
   3  -2   5    222.08    6.80  0. 1.0000     0. 
   3  -2   5    225.78    6.90  0. 1.0000     0. 
  -3  -2  -5    214.68    6.80  0. 1.0000     0. 
  -3  -2  -5    222.28    6.60  0. 1.0000     0. 
  -3   2  -5    212.48    6.50  0. 1.0000     0. 
   3   2   5    204.48    6.20  0. 1.0000     0. 
  -4  -2  -5     75.99    3.20  0. 1.0000     0. 
   4  -2   5     82.09    3.20  0. 1.0000     0. 
  -4  -2  -5     82.39    3.00  0. 1.0000     0. 
   4  -2   5     83.09    3.30  0. 1.0000     0. 
   4   2   5     80.99    2.70  0. 1.0000     0. 
  -4   2  -5     83.29    3.10  0. 1.0000     0. 
   5  -2   5    248.08    7.60  0. 1.0000     0. 
  -5  -2  -5    230.58    7.10  0. 1.0000     0. 
  -5  -2  -5    238.28    7.50  0. 1.0000     0. 
   5  -2   5    224.18    7.40  0. 1.0000     0. 
  -5   2  -5    230.98    7.30  0. 1.0000     0. 
   5   2   5    236.98    6.90  0. 1.0000     0. 
  -6  -2  -5    191.58    6.20  0. 1.0000     0. 
   6  -2   5    185.68    6.20  0. 1.0000     0. 
   6  -2   5    173.58    6.00  0. 1.0000     0. 
   6   2   5    181.78    5.60  0. 1.0000     0. 
  -6   2  -5    182.08    6.00  0. 1.0000     0. 
   7  -2   5    513.15   15.30  0. 1.0000     0. 
  -7  -2  -5    514.25   15.20  0. 1.0000     0. 
   7  -2   5    497.95   15.10  0. 1.0000     0. 
  -7   2  -5    521.45   15.10  0. 1.0000     0. 
   7   2   5    522.55   14.60  0. 1.0000     0. 
   8  -2   5      1.20    0.70  0. 1.0000     0. 
   8   2   5      1.60    0.60  0. 1.0000     0. 
  -8   2  -5      0.60    0.70  0. 1.0000     0. 
   9  -2   5     20.40    1.80  0. 1.0000     0. 
  -9   2  -5     17.70    1.80  0. 1.0000     0. 
   9   2   5     19.50    1.50  0. 1.0000     0. 
  -9   2  -5     20.00    1.90  0. 1.0000     0. 
   9   3  -5      1.40    0.80  0. 1.0000     0. 
  -8  -3   5      0.80    0.90  0. 1.0000     0. 
  -8   3   5      1.30    0.90  0. 1.0000     0. 
   8   3  -5      2.80    0.90  0. 1.0000     0. 
  -8   3   5      0.30    0.90  0. 1.0000     0. 
  -7  -3   5     11.30    1.50  0. 1.0000     0. 
   7   3  -5     11.90    1.50  0. 1.0000     0. 
  -7   3   5     13.10    1.60  0. 1.0000     0. 
  -6  -3   5    225.28    7.70  0. 1.0000     0. 
   6  -3  -5    229.68    7.80  0. 1.0000     0. 
   6   3  -5    234.58    7.40  0. 1.0000     0. 
  -6   3   5    234.38    7.40  0. 1.0000     0. 
   5  -3  -5    258.77    8.50  0. 1.0000     0. 
  -5  -3   5    251.87    8.30  0. 1.0000     0. 
  -5   3   5    264.07    8.10  0. 1.0000     0. 
   5   3  -5    267.17    8.20  0. 1.0000     0. 
   4  -3  -5     18.50    1.70  0. 1.0000     0. 
  -4  -3   5     19.20    1.50  0. 1.0000     0. 
  -4   3   5     19.40    1.40  0. 1.0000     0. 
  -4   3   5     18.50    1.30  0. 1.0000     0. 
   3  -3  -5    616.54   17.50  0. 1.0000     0. 
  -3  -3   5    608.24   17.30  0. 1.0000     0. 
  -3  -3   5    609.64   17.10  0. 1.0000     0. 
  -3   3   5    567.04   16.90  0. 1.0000     0. 
   3   3  -5    588.44   17.20  0. 1.0000     0. 
  -3   3   5    597.04   17.00  0. 1.0000     0. 
   2  -3  -5   1016.10   27.80  0. 1.0000     0. 
  -2  -3   5    996.40   27.50  0. 1.0000     0. 
  -2  -3   5    971.40   27.40  0. 1.0000     0. 
   2   3  -5    976.60   27.60  0. 1.0000     0. 
  -2   3   5    973.10   27.50  0. 1.0000     0. 
  -2   3   5    958.10   27.20  0. 1.0000     0. 
  -1  -3   5    624.94   17.50  0. 1.0000     0. 
   1  -3  -5    636.24   17.70  0. 1.0000     0. 
  -1  -3   5    613.74   17.40  0. 1.0000     0. 
   1   3  -5    590.04   17.50  0. 1.0000     0. 
  -1   3   5    589.84   17.50  0. 1.0000     0. 
   0  -3  -5     10.60    1.40  0. 1.0000     0. 
   0  -3   5      7.70    1.10  0. 1.0000     0. 
   0  -3   5      7.60    1.10  0. 1.0000     0. 
   0  -3   5      9.30    1.00  0. 1.0000     0. 
   0   3   5      7.80    1.20  0. 1.0000     0. 
   1  -3   5     49.20    2.40  0. 1.0000     0. 
   1  -3   5     49.20    2.50  0. 1.0000     0. 
  -1  -3  -5     51.09    2.50  0. 1.0000     0. 
  -1  -3  -5     50.89    2.50  0. 1.0000     0. 
  -1   3  -5     51.09    2.00  0. 1.0000     0. 
  -2  -3  -5   1601.54   42.50  0. 1.0000     0. 
   2  -3   5   1506.15   42.50  0. 1.0000     0. 
   2  -3   5   1561.64   42.70  0. 1.0000     0. 
  -2  -3  -5   1506.85   42.70  0. 1.0000     0. 
  -2   3  -5   1500.45   42.10  0. 1.0000     0. 
   3  -3   5     60.59    2.90  0. 1.0000     0. 
   3  -3   5     57.19    2.70  0. 1.0000     0. 
  -3  -3  -5     59.89    2.90  0. 1.0000     0. 
  -3   3  -5     67.79    2.60  0. 1.0000     0. 
   4  -3   5    194.08    6.60  0. 1.0000     0. 
   4  -3   5    197.38    6.80  0. 1.0000     0. 
  -4  -3  -5    202.48    6.80  0. 1.0000     0. 
  -4   3  -5    196.38    6.40  0. 1.0000     0. 
   5  -3   5    419.96   12.90  0. 1.0000     0. 
   5  -3   5    414.46   13.00  0. 1.0000     0. 
  -5  -3  -5    436.66   13.20  0. 1.0000     0. 
  -5   3  -5    435.36   12.70  0. 1.0000     0. 
  -6  -3  -5    158.28    6.00  0. 1.0000     0. 
   6  -3   5    158.08    5.90  0. 1.0000     0. 
   6  -3   5    163.08    5.80  0. 1.0000     0. 
  -6   3  -5    161.28    5.60  0. 1.0000     0. 
   7  -3   5     63.59    3.30  0. 1.0000     0. 
   7  -3   5     59.49    3.10  0. 1.0000     0. 
  -7  -3  -5     64.49    3.40  0. 1.0000     0. 
  -7   3  -5     61.69    3.00  0. 1.0000     0. 
   5  -4  -5      8.70    1.70  0. 1.0000     0. 
  -5  -4   5     10.20    1.70  0. 1.0000     0. 
   5   4  -5      9.00    1.70  0. 1.0000     0. 
  -5   4   5     10.90    1.50  0. 1.0000     0. 
   4  -4  -5      1.40    0.90  0. 1.0000     0. 
  -4  -4   5      3.10    1.00  0. 1.0000     0. 
   4   4  -5      0.90    0.90  0. 1.0000     0. 
   3  -4  -5     88.49    3.90  0. 1.0000     0. 
  -3  -4   5     80.29    3.70  0. 1.0000     0. 
   3   4  -5     80.59    3.70  0. 1.0000     0. 
   2  -4  -5    458.05   13.30  0. 1.0000     0. 
  -2  -4   5    415.16   13.10  0. 1.0000     0. 
   2   4  -5    422.56   13.10  0. 1.0000     0. 
  -2   4   5    432.86   13.10  0. 1.0000     0. 
  -1  -4   5    216.38    7.60  0. 1.0000     0. 
  -1  -4   5    212.78    7.80  0. 1.0000     0. 
   1  -4  -5    248.98    9.60  0. 1.0000     0. 
   1   4  -5    218.98    7.50  0. 1.0000     0. 
  -1   4   5    218.48    7.50  0. 1.0000     0. 
   0  -4   5     67.69    3.20  0. 1.0000     0. 
   0   4   5     67.59    3.30  0. 1.0000     0. 
   0   4  -5     69.99    3.30  0. 1.0000     0. 
   1  -4   5    333.47   10.50  0. 1.0000     0. 
   1  -4   5    340.37   10.70  0. 1.0000     0. 
  -2  -4  -5      9.70    1.70  0. 1.0000     0. 
   2  -4   5      9.00    1.40  0. 1.0000     0. 
   2  -4   5      9.60    1.50  0. 1.0000     0. 
   3  -4   5    258.87    8.80  0. 1.0000     0. 
  -3  -4  -5    272.27    9.00  0. 1.0000     0. 
   3  -4   5    260.47    8.60  0. 1.0000     0. 
  -4  -4  -5     46.30    2.90  0. 1.0000     0. 
   4  -4   5     45.20    2.60  0. 1.0000     0. 
   4  -4   5     43.60    2.80  0. 1.0000     0. 
  11   0  -6    599.14   16.90  0. 1.0000     0. 
 -11   0   6    581.64   16.80  0. 1.0000     0. 
  10   0  -6      1.20    0.50  0. 1.0000     0. 
   9   0  -6     12.00    1.00  0. 1.0000     0. 
  -9   0   6     11.90    0.90  0. 1.0000     0. 
  -9   0   6     14.70    1.10  0. 1.0000     0. 
   8   0  -6   1400.86   38.40  0. 1.0000     0. 
  -8   0   6   1399.96   38.50  0. 1.0000     0. 
  -8   0   6   1355.76   38.40  0. 1.0000     0. 
  -8   0   6   1463.35   39.50  0. 1.0000     0. 
   7   0  -6    458.75   12.80  0. 1.0000     0. 
  -7   0   6    446.86   12.80  0. 1.0000     0. 
  -7   0   6    459.95   12.90  0. 1.0000     0. 
  -6   0   6    160.28    4.90  0. 1.0000     0. 
   6   0  -6    175.38    4.90  0. 1.0000     0. 
  -6   0   6    180.18    5.10  0. 1.0000     0. 
   6   0  -6    153.58    5.10  0. 1.0000     0. 
   5   0  -6   3953.50  107.99  0. 1.0000     0. 
   5   0  -6   3867.21  108.19  0. 1.0000     0. 
  -5   0   6   4059.69  108.19  0. 1.0000     0. 
  -5   0   6   3983.10  108.29  0. 1.0000     0. 
   4   0  -6    367.56   10.30  0. 1.0000     0. 
  -4   0   6    342.47   10.10  0. 1.0000     0. 
   4   0  -6    363.76   10.00  0. 1.0000     0. 
  -4   0   6    376.56   10.10  0. 1.0000     0. 
  -3   0   6    642.54   17.80  0. 1.0000     0. 
   3   0  -6    660.53   17.80  0. 1.0000     0. 
  -3   0   6    633.84   17.90  0. 1.0000     0. 
   3   0  -6    672.73   18.10  0. 1.0000     0. 
   2   0  -6   2629.74   69.59  0. 1.0000     0. 
  -2   0   6   2476.95   69.29  0. 1.0000     0. 
   2   0  -6   2594.94   68.89  0. 1.0000     0. 
  -2   0   6   2406.66   69.39  0. 1.0000     0. 
  -1   0   6    452.85   12.40  0. 1.0000     0. 
  -1   0   6    424.56   12.40  0. 1.0000     0. 
  -1   0   6    457.85   12.40  0. 1.0000     0. 
   1   0  -6    457.45   12.50  0. 1.0000     0. 
   0   0   6    285.47    7.80  0. 1.0000     0. 
   0   0   6    263.07    7.80  0. 1.0000     0. 
   0   0   6    280.27    7.80  0. 1.0000     0. 
   0   0  -6    276.37    7.90  0. 1.0000     0. 
   2   0   6    858.61   23.80  0. 1.0000     0. 
   2   0   6    857.61   23.90  0. 1.0000     0. 
   2   0   6    914.51   24.00  0. 1.0000     0. 
  -2   0  -6    860.61   23.90  0. 1.0000     0. 
   3   0   6    809.62   22.70  0. 1.0000     0. 
  -3   0  -6    834.02   22.80  0. 1.0000     0. 
   3   0   6    801.92   22.60  0. 1.0000     0. 
   3   0   6    861.81   22.80  0. 1.0000     0. 
   4   0   6   3796.42  111.49  0. 1.0000     0. 
   4   0   6   4260.97  110.99  0. 1.0000     0. 
  -4   0  -6   4257.07  111.59  0. 1.0000     0. 
   4   0   6   3968.20  110.69  0. 1.0000     0. 
  -5   0  -6   1275.67   34.60  0. 1.0000     0. 
   5   0   6   1225.78   34.60  0. 1.0000     0. 
   5   0   6   1274.37   34.60  0. 1.0000     0. 
  -6   0  -6   3022.40   82.79  0. 1.0000     0. 
   6   0   6   3058.79   82.69  0. 1.0000     0. 
  -7   0  -6    782.82   22.20  0. 1.0000     0. 
   7   0   6    799.52   22.30  0. 1.0000     0. 
  -8   0  -6     69.59    2.90  0. 1.0000     0. 
   8   0   6     75.39    3.00  0. 1.0000     0. 
   9   0   6   1047.20   29.10  0. 1.0000     0. 
  -9   0  -6   1014.00   28.90  0. 1.0000     0. 
  11  -1  -6    260.17    8.20  0. 1.0000     0. 
 -11   1   6    261.27    8.30  0. 1.0000     0. 
  11   1  -6    272.87    8.10  0. 1.0000     0. 
 -10  -1   6     28.30    1.80  0. 1.0000     0. 
  10  -1  -6     31.10    1.70  0. 1.0000     0. 
 -10   1   6     29.60    1.90  0. 1.0000     0. 
 -10   1   6     30.10    1.90  0. 1.0000     0. 
  10   1  -6     30.60    1.60  0. 1.0000     0. 
  -9  -1   6    211.08    6.70  0. 1.0000     0. 
  -9  -1   6    214.08    6.40  0. 1.0000     0. 
   9  -1  -6    216.98    6.60  0. 1.0000     0. 
   9   1  -6    206.28    6.50  0. 1.0000     0. 
  -9   1   6    216.98    7.00  0. 1.0000     0. 
  -9   1   6    211.58    6.70  0. 1.0000     0. 
  -8  -1   6    526.25   14.70  0. 1.0000     0. 
  -8  -1   6    526.75   15.00  0. 1.0000     0. 
   8  -1  -6    520.85   14.80  0. 1.0000     0. 
   8   1  -6    507.75   14.70  0. 1.0000     0. 
  -8   1   6    539.25   15.00  0. 1.0000     0. 
  -7  -1   6    161.78    5.20  0. 1.0000     0. 
  -7  -1   6    167.38    5.00  0. 1.0000     0. 
   7  -1  -6    162.88    5.50  0. 1.0000     0. 
   7  -1  -6    162.48    5.00  0. 1.0000     0. 
  -7   1   6    167.88    4.80  0. 1.0000     0. 
   7   1  -6    166.38    5.00  0. 1.0000     0. 
  -7   1   6    166.58    5.20  0. 1.0000     0. 
  -6  -1   6      2.70    0.60  0. 1.0000     0. 
   6  -1  -6      3.60    0.60  0. 1.0000     0. 
   6  -1  -6      2.90    0.70  0. 1.0000     0. 
  -6  -1   6      4.40    0.70  0. 1.0000     0. 
  -6   1   6      2.80    0.60  0. 1.0000     0. 
   6   1  -6      4.50    0.70  0. 1.0000     0. 
  -6   1   6      4.50    0.50  0. 1.0000     0. 
  -5  -1   6      6.40    0.60  0. 1.0000     0. 
   5  -1  -6      5.40    0.80  0. 1.0000     0. 
   5  -1  -6      6.60    0.50  0. 1.0000     0. 
  -5  -1   6      5.70    0.60  0. 1.0000     0. 
  -5   1   6      5.00    0.50  0. 1.0000     0. 
   5   1  -6      5.60    0.70  0. 1.0000     0. 
  -5   1   6      6.60    0.70  0. 1.0000     0. 
   4  -1  -6   4030.10  108.49  0. 1.0000     0. 
   4  -1  -6   3847.82  107.89  0. 1.0000     0. 
  -4  -1   6   4052.89  109.09  0. 1.0000     0. 
  -4  -1   6   4040.90  108.29  0. 1.0000     0. 
  -4   1   6   3842.92  108.29  0. 1.0000     0. 
  -4   1   6   3871.91  107.99  0. 1.0000     0. 
   4   1  -6   4131.09  108.69  0. 1.0000     0. 
   3  -1  -6   3600.44   94.09  0. 1.0000     0. 
   3  -1  -6   3183.68   93.59  0. 1.0000     0. 
  -3  -1   6   3502.85   94.79  0. 1.0000     0. 
  -3  -1   6   3458.55   95.19  0. 1.0000     0. 
  -3   1   6   3426.46   94.29  0. 1.0000     0. 
  -3   1   6   3497.25   94.49  0. 1.0000     0. 
   3   1  -6   3447.66   93.79  0. 1.0000     0. 
   3   1  -6   3540.95   93.59  0. 1.0000     0. 
  -2  -1   6     18.50    0.80  0. 1.0000     0. 
  -2  -1   6     22.60    1.00  0. 1.0000     0. 
   2  -1  -6     19.30    1.10  0. 1.0000     0. 
  -2   1   6     19.20    0.90  0. 1.0000     0. 
  -2   1   6     18.90    0.90  0. 1.0000     0. 
   2   1  -6     18.90    1.00  0. 1.0000     0. 
   2   1  -6     18.70    0.80  0. 1.0000     0. 
   1  -1  -6      2.80    0.50  0. 1.0000     0. 
  -1  -1   6      2.90    0.50  0. 1.0000     0. 
  -1  -1   6      3.90    0.50  0. 1.0000     0. 
  -1  -1   6      3.60    0.40  0. 1.0000     0. 
  -1   1   6      4.10    0.40  0. 1.0000     0. 
  -1   1   6      3.80    0.50  0. 1.0000     0. 
   0  -1   6   2815.02   76.29  0. 1.0000     0. 
   0  -1  -6   2772.42   75.89  0. 1.0000     0. 
   0  -1   6   2712.23   75.79  0. 1.0000     0. 
   0  -1   6   2783.72   75.59  0. 1.0000     0. 
   0   1   6   2717.63   74.99  0. 1.0000     0. 
   0   1  -6   2725.83   75.29  0. 1.0000     0. 
   0   1   6   2847.52   75.09  0. 1.0000     0. 
   1  -1   6     18.30    1.10  0. 1.0000     0. 
   1  -1   6     19.80    0.80  0. 1.0000     0. 
  -1  -1  -6     20.20    1.10  0. 1.0000     0. 
   1  -1   6     21.20    1.10  0. 1.0000     0. 
   1   1   6     22.70    0.80  0. 1.0000     0. 
  -1   1  -6     20.70    0.90  0. 1.0000     0. 
   1   1   6     20.00    1.10  0. 1.0000     0. 
   1   1   6     22.40    0.80  0. 1.0000     0. 
   2  -1   6   2582.04   69.79  0. 1.0000     0. 
   2  -1   6   2499.35   69.39  0. 1.0000     0. 
   2  -1   6   2491.65   69.09  0. 1.0000     0. 
  -2  -1  -6   2562.44   69.49  0. 1.0000     0. 
   2   1   6   2442.46   69.29  0. 1.0000     0. 
   2   1   6   2490.75   69.89  0. 1.0000     0. 
   2   1   6   2720.23   69.19  0. 1.0000     0. 
  -2   1  -6   2615.24   69.59  0. 1.0000     0. 
   3  -1   6     13.30    1.00  0. 1.0000     0. 
   3  -1   6     12.90    0.90  0. 1.0000     0. 
  -3  -1  -6     13.00    0.90  0. 1.0000     0. 
   3   1   6     11.50    0.90  0. 1.0000     0. 
   3   1   6     12.80    0.70  0. 1.0000     0. 
  -3   1  -6     12.50    0.80  0. 1.0000     0. 
   4  -1   6   1002.40   28.00  0. 1.0000     0. 
   4  -1   6    983.10   27.90  0. 1.0000     0. 
  -4  -1  -6   1040.60   27.80  0. 1.0000     0. 
   4   1   6    994.70   27.60  0. 1.0000     0. 
  -4   1  -6   1019.20   27.80  0. 1.0000     0. 
   5  -1   6   2346.97   66.19  0. 1.0000     0. 
   5  -1   6   2420.26   66.29  0. 1.0000     0. 
  -5  -1  -6   2489.35   65.99  0. 1.0000     0. 
  -5   1  -6   2420.06   66.09  0. 1.0000     0. 
   5   1   6   2448.26   65.89  0. 1.0000     0. 
   6  -1   6    254.07    7.80  0. 1.0000     0. 
  -6  -1  -6    254.77    7.60  0. 1.0000     0. 
   6  -1   6    256.37    7.90  0. 1.0000     0. 
   6   1   6    258.97    7.50  0. 1.0000     0. 
  -6   1  -6    246.28    7.70  0. 1.0000     0. 
  -7  -1  -6     87.09    3.20  0. 1.0000     0. 
   7  -1   6     86.29    3.40  0. 1.0000     0. 
   7  -1   6     89.29    3.40  0. 1.0000     0. 
   7   1   6     90.29    3.20  0. 1.0000     0. 
  -7   1  -6     82.99    3.30  0. 1.0000     0. 
   8  -1   6    408.06   12.30  0. 1.0000     0. 
  -8  -1  -6    406.46   12.00  0. 1.0000     0. 
   8   1   6    420.96   12.00  0. 1.0000     0. 
  -8   1  -6    400.86   12.20  0. 1.0000     0. 
   9  -1   6     11.00    1.40  0. 1.0000     0. 
   9   1   6      9.80    1.30  0. 1.0000     0. 
  -9   1  -6     10.30    1.40  0. 1.0000     0. 
 -10  -2   6    125.29    4.90  0. 1.0000     0. 
 -10   2   6    122.49    4.70  0. 1.0000     0. 
  10   2  -6    126.99    4.40  0. 1.0000     0. 
 -10   2   6    122.69    5.00  0. 1.0000     0. 
  -9  -2   6     86.59    3.60  0. 1.0000     0. 
  -9   2   6     85.79    3.50  0. 1.0000     0. 
   9   2  -6     84.79    3.20  0. 1.0000     0. 
  -9   2   6     79.29    3.80  0. 1.0000     0. 
  -8  -2   6     54.99    2.60  0. 1.0000     0. 
   8   2  -6     52.49    2.30  0. 1.0000     0. 
  -8   2   6     51.79    2.60  0. 1.0000     0. 
   7  -2  -6    788.92   22.20  0. 1.0000     0. 
  -7  -2   6    754.32   21.90  0. 1.0000     0. 
  -7   2   6    788.42   21.90  0. 1.0000     0. 
   7   2  -6    756.32   21.70  0. 1.0000     0. 
  -6  -2   6     17.70    1.10  0. 1.0000     0. 
   6  -2  -6     13.30    1.40  0. 1.0000     0. 
  -6  -2   6     16.90    1.30  0. 1.0000     0. 
   6   2  -6     16.40    1.30  0. 1.0000     0. 
  -6   2   6     17.50    1.30  0. 1.0000     0. 
  -6   2   6     16.30    0.90  0. 1.0000     0. 
   5  -2  -6    181.88    6.30  0. 1.0000     0. 
  -5  -2   6    186.28    6.00  0. 1.0000     0. 
  -5  -2   6    191.98    5.80  0. 1.0000     0. 
   5   2  -6    193.88    6.00  0. 1.0000     0. 
  -5   2   6    190.88    5.60  0. 1.0000     0. 
  -5   2   6    190.78    5.90  0. 1.0000     0. 
   4  -2  -6   1624.54   44.20  0. 1.0000     0. 
  -4  -2   6   1627.14   43.70  0. 1.0000     0. 
  -4  -2   6   1624.54   43.90  0. 1.0000     0. 
  -4   2   6   1543.85   43.60  0. 1.0000     0. 
   4   2  -6   1590.84   43.90  0. 1.0000     0. 
  -4   2   6   1580.34   43.80  0. 1.0000     0. 
   3  -2  -6   1832.62   49.30  0. 1.0000     0. 
  -3  -2   6   1822.02   48.90  0. 1.0000     0. 
  -3  -2   6   1827.12   48.90  0. 1.0000     0. 
  -3   2   6   1666.93   48.80  0. 1.0000     0. 
  -3   2   6   1776.02   48.80  0. 1.0000     0. 
   3   2  -6   1811.32   49.00  0. 1.0000     0. 
  -2  -2   6    445.56   12.60  0. 1.0000     0. 
   2  -2  -6    454.35   13.00  0. 1.0000     0. 
  -2  -2   6    451.25   12.70  0. 1.0000     0. 
  -2   2   6    422.76   12.60  0. 1.0000     0. 
  -2   2   6    433.96   12.40  0. 1.0000     0. 
   2   2  -6    451.35   12.80  0. 1.0000     0. 
  -1  -2   6   1031.20   27.90  0. 1.0000     0. 
  -1  -2   6   1054.39   28.10  0. 1.0000     0. 
   1  -2  -6   1056.19   28.30  0. 1.0000     0. 
  -1  -2   6   1007.50   28.00  0. 1.0000     0. 
  -1   2   6    996.50   27.70  0. 1.0000     0. 
  -1   2   6    991.50   28.00  0. 1.0000     0. 
   1   2  -6    949.31   27.50  0. 1.0000     0. 
   0  -2   6   2140.69   58.09  0. 1.0000     0. 
   0  -2   6   2184.88   57.79  0. 1.0000     0. 
   0  -2   6   2235.78   58.19  0. 1.0000     0. 
   0  -2  -6   2171.88   58.19  0. 1.0000     0. 
   0   2  -6   1974.70   57.59  0. 1.0000     0. 
   0   2   6   2105.99   57.49  0. 1.0000     0. 
   0   2   6   2069.69   58.09  0. 1.0000     0. 
  -1  -2  -6    318.07    9.20  0. 1.0000     0. 
   1  -2   6    314.67    9.20  0. 1.0000     0. 
   1  -2   6    307.67    8.70  0. 1.0000     0. 
   1   2   6    302.17    9.20  0. 1.0000     0. 
  -1   2  -6    294.77    8.80  0. 1.0000     0. 
   2  -2   6     53.59    2.30  0. 1.0000     0. 
  -2  -2  -6     55.89    2.30  0. 1.0000     0. 
   2  -2   6     55.79    2.40  0. 1.0000     0. 
  -2   2  -6     54.69    2.10  0. 1.0000     0. 
   3  -2   6    968.50   26.20  0. 1.0000     0. 
  -3  -2  -6    947.61   25.90  0. 1.0000     0. 
   3  -2   6    916.81   26.10  0. 1.0000     0. 
  -3  -2  -6    912.91   26.10  0. 1.0000     0. 
  -3   2  -6    909.31   25.80  0. 1.0000     0. 
   4  -2   6     17.60    1.50  0. 1.0000     0. 
   4  -2   6     17.30    1.40  0. 1.0000     0. 
  -4  -2  -6     20.80    1.40  0. 1.0000     0. 
  -4  -2  -6     16.40    1.50  0. 1.0000     0. 
  -4   2  -6     18.50    1.30  0. 1.0000     0. 
   5  -2   6    315.67    9.70  0. 1.0000     0. 
  -5  -2  -6    319.47    9.60  0. 1.0000     0. 
  -5  -2  -6    301.77    9.20  0. 1.0000     0. 
   5  -2   6    297.77    9.50  0. 1.0000     0. 
  -5   2  -6    317.67    9.40  0. 1.0000     0. 
   5   2   6    310.47    9.50  0. 1.0000     0. 
   6  -2   6     45.70    2.50  0. 1.0000     0. 
  -6  -2  -6     44.10    2.40  0. 1.0000     0. 
   6  -2   6     45.10    2.40  0. 1.0000     0. 
  -6   2  -6     48.50    2.30  0. 1.0000     0. 
   7  -2   6     33.60    2.20  0. 1.0000     0. 
  -7  -2  -6     37.40    2.30  0. 1.0000     0. 
   7  -2   6     37.10    2.20  0. 1.0000     0. 
  -7   2  -6     40.20    2.20  0. 1.0000     0. 
   8  -2   6      1.20    0.70  0. 1.0000     0. 
   8  -2   6      0.10    0.80  0. 1.0000     0. 
  -8   2  -6      2.40    0.80  0. 1.0000     0. 
  -8  -3   6     52.79    2.90  0. 1.0000     0. 
   8   3  -6     51.79    2.60  0. 1.0000     0. 
  -8   3   6     49.90    2.70  0. 1.0000     0. 
   7  -3  -6      1.80    0.90  0. 1.0000     0. 
  -7  -3   6      0.90    0.80  0. 1.0000     0. 
  -7   3   6      0.70    0.80  0. 1.0000     0. 
   7   3  -6      1.60    0.80  0. 1.0000     0. 
  -6  -3   6     23.30    1.90  0. 1.0000     0. 
   6  -3  -6     22.10    2.00  0. 1.0000     0. 
   6   3  -6     26.20    1.80  0. 1.0000     0. 
  -6   3   6     21.70    1.80  0. 1.0000     0. 
  -5  -3   6     23.00    1.70  0. 1.0000     0. 
   5  -3  -6     22.00    2.00  0. 1.0000     0. 
  -5   3   6     25.40    1.80  0. 1.0000     0. 
   5   3  -6     24.70    1.80  0. 1.0000     0. 
   4  -3  -6    142.19    5.20  0. 1.0000     0. 
  -4  -3   6    137.19    4.70  0. 1.0000     0. 
  -4  -3   6    135.49    4.90  0. 1.0000     0. 
  -4   3   6    141.99    4.60  0. 1.0000     0. 
  -4   3   6    135.19    4.70  0. 1.0000     0. 
   4   3  -6    140.19    4.90  0. 1.0000     0. 
  -3  -3   6    220.58    6.90  0. 1.0000     0. 
   3  -3  -6    226.18    7.40  0. 1.0000     0. 
  -3  -3   6    220.88    7.10  0. 1.0000     0. 
  -3   3   6    213.28    6.80  0. 1.0000     0. 
   3   3  -6    217.18    7.10  0. 1.0000     0. 
  -3   3   6    220.58    6.90  0. 1.0000     0. 
  -2  -3   6    343.17   10.30  0. 1.0000     0. 
   2  -3  -6    349.87   10.60  0. 1.0000     0. 
  -2  -3   6    336.67   10.30  0. 1.0000     0. 
  -2   3   6    343.97   10.30  0. 1.0000     0. 
   2   3  -6    337.47   10.40  0. 1.0000     0. 
  -1  -3   6     90.29    3.40  0. 1.0000     0. 
  -1  -3   6     86.69    3.50  0. 1.0000     0. 
   1  -3  -6     93.69    3.80  0. 1.0000     0. 
  -1   3   6     92.39    3.60  0. 1.0000     0. 
   1   3  -6     87.89    3.60  0. 1.0000     0. 
   0  -3  -6     31.00    2.00  0. 1.0000     0. 
   0  -3   6     31.60    1.90  0. 1.0000     0. 
   0  -3   6     29.90    1.80  0. 1.0000     0. 
   0  -3   6     29.90    1.60  0. 1.0000     0. 
   0   3   6     28.80    1.90  0. 1.0000     0. 
   1  -3   6    249.68    8.50  0. 1.0000     0. 
  -1  -3  -6    303.47    8.80  0. 1.0000     0. 
   1  -3   6    258.07    8.70  0. 1.0000     0. 
   1   3   6    301.47    8.90  0. 1.0000     0. 
   2  -3   6    182.28    6.30  0. 1.0000     0. 
  -2  -3  -6    192.18    6.20  0. 1.0000     0. 
   2  -3   6    179.18    6.10  0. 1.0000     0. 
  -2   3  -6    180.88    5.80  0. 1.0000     0. 
   3  -3   6     59.69    2.80  0. 1.0000     0. 
   3  -3   6     63.29    3.00  0. 1.0000     0. 
  -3  -3  -6     63.99    3.00  0. 1.0000     0. 
  -3   3  -6     61.59    2.60  0. 1.0000     0. 
   4  -3   6    224.08    7.40  0. 1.0000     0. 
   4  -3   6    212.38    7.50  0. 1.0000     0. 
  -4  -3  -6    234.18    7.60  0. 1.0000     0. 
  -4   3  -6    227.88    7.10  0. 1.0000     0. 
  -5  -3  -6     34.90    2.40  0. 1.0000     0. 
   5  -3   6     31.60    2.30  0. 1.0000     0. 
   5  -3   6     35.80    2.20  0. 1.0000     0. 
  -5   3  -6     42.10    2.20  0. 1.0000     0. 
   6  -3   6      4.30    1.10  0. 1.0000     0. 
   6  -3   6      3.30    0.90  0. 1.0000     0. 
  -6  -3  -6      4.30    1.20  0. 1.0000     0. 
  -6   3  -6      3.20    0.90  0. 1.0000     0. 
  -7  -3  -6      6.10    1.30  0. 1.0000     0. 
   7  -3   6      4.80    1.10  0. 1.0000     0. 
   7  -3   6      7.50    1.40  0. 1.0000     0. 
  -7   3  -6      4.30    1.00  0. 1.0000     0. 
   5  -4  -6      1.80    1.00  0. 1.0000     0. 
  -5  -4   6      1.10    0.90  0. 1.0000     0. 
   5   4  -6      0.80    0.90  0. 1.0000     0. 
  -5   4   6      3.50    1.30  0. 1.0000     0. 
  -4  -4   6     78.59    3.60  0. 1.0000     0. 
   4  -4  -6     79.19    3.80  0. 1.0000     0. 
   4   4  -6     76.59    3.60  0. 1.0000     0. 
  -3  -4   6      9.00    1.50  0. 1.0000     0. 
   3  -4  -6      5.60    1.20  0. 1.0000     0. 
   3   4  -6      7.30    1.30  0. 1.0000     0. 
   2  -4  -6      1.20    0.90  0. 1.0000     0. 
  -2  -4   6      2.20    1.00  0. 1.0000     0. 
   2   4  -6      3.20    1.10  0. 1.0000     0. 
  -2   4   6      1.80    1.00  0. 1.0000     0. 
  -1  -4   6     27.60    2.10  0. 1.0000     0. 
   1  -4  -6     31.00    2.40  0. 1.0000     0. 
  -1   4   6     26.30    2.20  0. 1.0000     0. 
   1   4  -6     27.50    2.30  0. 1.0000     0. 
   0  -4   6     64.49    3.30  0. 1.0000     0. 
   0   4   6     72.49    3.50  0. 1.0000     0. 
   0   4  -6     68.59    3.40  0. 1.0000     0. 
   1  -4   6     33.90    2.20  0. 1.0000     0. 
   1  -4   6     31.60    2.30  0. 1.0000     0. 
   1   4   6     33.00    2.40  0. 1.0000     0. 
   2  -4   6     11.40    1.60  0. 1.0000     0. 
   2  -4   6     14.60    1.70  0. 1.0000     0. 
   2   4   6     14.20    1.90  0. 1.0000     0. 
   3  -4   6      5.50    1.30  0. 1.0000     0. 
   3  -4   6      3.50    0.90  0. 1.0000     0. 
  11   0  -7      0.10    0.50  0. 1.0000     0. 
 -11   0   7      0.00    0.70  0. 1.0000     0. 
  -9   0   7      0.20    0.40  0. 1.0000     0. 
  -9   0   7      0.50    0.50  0. 1.0000     0. 
   9   0  -7     -0.30    0.40  0. 1.0000     0. 
  -8   0   7      2.30    0.50  0. 1.0000     0. 
  -8   0   7      2.90    0.60  0. 1.0000     0. 
   7   0  -7     -0.30    0.30  0. 1.0000     0. 
  -7   0   7      0.10    0.40  0. 1.0000     0. 
  -7   0   7     -0.50    0.40  0. 1.0000     0. 
   6   0  -7     -0.10    0.30  0. 1.0000     0. 
  -6   0   7      0.20    0.40  0. 1.0000     0. 
   6   0  -7     -0.10    0.40  0. 1.0000     0. 
  -5   0   7      1.20    0.30  0. 1.0000     0. 
   4   0  -7     -0.30    0.20  0. 1.0000     0. 
  -4   0   7      0.10    0.20  0. 1.0000     0. 
   4   0  -7      0.10    0.20  0. 1.0000     0. 
  -3   0   7      0.20    0.20  0. 1.0000     0. 
   3   0  -7      0.30    0.30  0. 1.0000     0. 
   3   0  -7      0.10    0.20  0. 1.0000     0. 
  -3   0   7      0.30    0.20  0. 1.0000     0. 
   2   0  -7      3.20    0.40  0. 1.0000     0. 
  -1   0   7      1.20    0.30  0. 1.0000     0. 
   1   0  -7      0.20    0.50  0. 1.0000     0. 
  -1   0   7      0.20    0.30  0. 1.0000     0. 
   0   0   7     -1.30    0.20  0. 1.0000     0. 
   0   0  -7     -1.00    0.30  0. 1.0000     0. 
   0   0   7     -0.50    0.30  0. 1.0000     0. 
   1   0   7      0.00    0.20  0. 1.0000     0. 
  -1   0  -7     -0.10    0.30  0. 1.0000     0. 
   1   0   7      0.50    0.30  0. 1.0000     0. 
   2   0   7      0.50    0.20  0. 1.0000     0. 
   2   0   7      0.20    0.20  0. 1.0000     0. 
   2   0   7      0.60    0.30  0. 1.0000     0. 
  -2   0  -7      0.00    0.30  0. 1.0000     0. 
   4   0   7     -0.40    0.30  0. 1.0000     0. 
  -4   0  -7      0.20    0.40  0. 1.0000     0. 
   4   0   7     -0.30    0.30  0. 1.0000     0. 
   6   0   7      0.10    0.50  0. 1.0000     0. 
  -6   0  -7     -0.20    0.50  0. 1.0000     0. 
  -7   0  -7      0.00    0.50  0. 1.0000     0. 
   7   0   7      1.40    0.60  0. 1.0000     0. 
  -8   0  -7      0.60    0.60  0. 1.0000     0. 
   8   0   7      0.20    0.60  0. 1.0000     0. 
   9   0   7      2.30    0.80  0. 1.0000     0. 
  -9   0  -7      0.30    0.70  0. 1.0000     0. 
  11  -1  -7     76.99    3.10  0. 1.0000     0. 
  11   1  -7     75.89    3.00  0. 1.0000     0. 
 -11   1   7     72.79    3.20  0. 1.0000     0. 
  10  -1  -7     49.60    2.30  0. 1.0000     0. 
 -10  -1   7     49.00    2.40  0. 1.0000     0. 
  10   1  -7     49.10    2.20  0. 1.0000     0. 
 -10   1   7     46.70    2.40  0. 1.0000     0. 
 -10   1   7     50.19    2.60  0. 1.0000     0. 
  -9  -1   7    124.59    4.30  0. 1.0000     0. 
   9  -1  -7    121.09    4.00  0. 1.0000     0. 
  -9  -1   7    122.59    4.00  0. 1.0000     0. 
  -9   1   7    121.99    4.30  0. 1.0000     0. 
   9   1  -7    116.19    4.00  0. 1.0000     0. 
  -9   1   7    121.49    4.50  0. 1.0000     0. 
  -8  -1   7    215.08    6.70  0. 1.0000     0. 
   8  -1  -7    213.68    6.40  0. 1.0000     0. 
   8  -1  -7    207.98    6.90  0. 1.0000     0. 
  -8  -1   7    215.68    6.40  0. 1.0000     0. 
  -8   1   7    215.08    6.70  0. 1.0000     0. 
  -8   1   7    217.08    6.30  0. 1.0000     0. 
   8   1  -7    213.58    6.40  0. 1.0000     0. 
  -7  -1   7    158.38    5.10  0. 1.0000     0. 
   7  -1  -7    158.18    4.90  0. 1.0000     0. 
  -7  -1   7    165.78    5.00  0. 1.0000     0. 
   7  -1  -7    156.18    5.40  0. 1.0000     0. 
  -7   1   7    163.78    4.80  0. 1.0000     0. 
  -7   1   7    162.38    5.20  0. 1.0000     0. 
   7   1  -7    166.38    5.00  0. 1.0000     0. 
  -6  -1   7      9.40    0.80  0. 1.0000     0. 
   6  -1  -7      9.70    0.70  0. 1.0000     0. 
   6  -1  -7      9.00    1.10  0. 1.0000     0. 
  -6   1   7     10.90    1.00  0. 1.0000     0. 
   6   1  -7     11.50    0.90  0. 1.0000     0. 
  -6   1   7     11.40    0.70  0. 1.0000     0. 
  -5  -1   7    197.28    5.70  0. 1.0000     0. 
   5  -1  -7    187.38    5.50  0. 1.0000     0. 
  -5  -1   7    196.98    5.80  0. 1.0000     0. 
   5  -1  -7    186.28    6.10  0. 1.0000     0. 
   5   1  -7    199.58    5.80  0. 1.0000     0. 
  -5   1   7    180.08    5.50  0. 1.0000     0. 
  -5   1   7    204.48    5.90  0. 1.0000     0. 
  -4  -1   7    579.34   15.70  0. 1.0000     0. 
  -4  -1   7    575.24   15.60  0. 1.0000     0. 
   4  -1  -7    572.24   16.10  0. 1.0000     0. 
   4  -1  -7    541.05   15.30  0. 1.0000     0. 
  -4   1   7    548.95   15.50  0. 1.0000     0. 
   4   1  -7    576.24   15.70  0. 1.0000     0. 
  -4   1   7    552.94   15.60  0. 1.0000     0. 
   4   1  -7    544.85   15.50  0. 1.0000     0. 
   3  -1  -7     82.09    2.50  0. 1.0000     0. 
  -3  -1   7     87.79    2.80  0. 1.0000     0. 
   3  -1  -7     87.99    3.20  0. 1.0000     0. 
  -3  -1   7     86.89    2.90  0. 1.0000     0. 
  -3   1   7     84.59    2.80  0. 1.0000     0. 
   3   1  -7     92.79    2.90  0. 1.0000     0. 
   3   1  -7     86.79    2.70  0. 1.0000     0. 
  -3   1   7     90.29    2.80  0. 1.0000     0. 
   2  -1  -7    421.16   12.10  0. 1.0000     0. 
  -2  -1   7    430.26   11.70  0. 1.0000     0. 
  -2  -1   7    413.86   11.90  0. 1.0000     0. 
   2   1  -7    423.16   11.70  0. 1.0000     0. 
  -2   1   7    414.06   11.70  0. 1.0000     0. 
   2   1  -7    438.16   11.90  0. 1.0000     0. 
  -2   1   7    413.26   11.80  0. 1.0000     0. 
   1  -1  -7   3362.36   91.99  0. 1.0000     0. 
  -1  -1   7   3356.66   91.59  0. 1.0000     0. 
  -1  -1   7   3153.48   91.69  0. 1.0000     0. 
  -1  -1   7   3445.66   91.19  0. 1.0000     0. 
   1   1  -7   3386.76   91.29  0. 1.0000     0. 
  -1   1   7   3281.67   91.99  0. 1.0000     0. 
  -1   1   7   3465.05   91.09  0. 1.0000     0. 
   0  -1   7    762.02   20.90  0. 1.0000     0. 
   0  -1   7    779.82   21.20  0. 1.0000     0. 
   0  -1   7    739.63   21.20  0. 1.0000     0. 
   0  -1  -7    758.92   21.20  0. 1.0000     0. 
   0   1   7    750.42   21.10  0. 1.0000     0. 
   0   1  -7    772.72   21.00  0. 1.0000     0. 
   0   1   7    787.42   20.80  0. 1.0000     0. 
  -1  -1  -7   2765.32   74.89  0. 1.0000     0. 
   1  -1   7   2699.43   74.59  0. 1.0000     0. 
   1  -1   7   2758.92   75.39  0. 1.0000     0. 
   1  -1   7   2651.53   74.79  0. 1.0000     0. 
   1   1   7   2999.90   74.69  0. 1.0000     0. 
  -1   1  -7   2689.43   74.59  0. 1.0000     0. 
   1   1   7   2730.53   74.49  0. 1.0000     0. 
   1   1   7   2662.23   74.39  0. 1.0000     0. 
   2  -1   7   1835.12   50.19  0. 1.0000     0. 
  -2  -1  -7   1921.21   50.19  0. 1.0000     0. 
   2  -1   7   1784.42   49.90  0. 1.0000     0. 
   2  -1   7   1821.52   50.29  0. 1.0000     0. 
   2   1   7   1711.43   49.80  0. 1.0000     0. 
   2   1   7   2003.70   49.90  0. 1.0000     0. 
   2   1   7   1794.22   50.19  0. 1.0000     0. 
  -2   1  -7   1849.42   50.09  0. 1.0000     0. 
  -3  -1  -7      1.90    0.50  0. 1.0000     0. 
   3  -1   7      1.90    0.50  0. 1.0000     0. 
   3  -1   7      1.80    0.50  0. 1.0000     0. 
   3   1   7      2.10    0.50  0. 1.0000     0. 
   3   1   7      2.60    0.40  0. 1.0000     0. 
  -3   1  -7      3.10    0.60  0. 1.0000     0. 
   4  -1   7   1855.41   52.39  0. 1.0000     0. 
  -4  -1  -7   2000.70   52.29  0. 1.0000     0. 
   4  -1   7   1929.41   52.49  0. 1.0000     0. 
   4   1   7   1899.11   51.99  0. 1.0000     0. 
   4   1   7   1919.21   52.29  0. 1.0000     0. 
  -4   1  -7   1881.01   52.19  0. 1.0000     0. 
   5  -1   7    570.54   16.40  0. 1.0000     0. 
   5  -1   7    565.84   16.50  0. 1.0000     0. 
  -5  -1  -7    588.04   16.30  0. 1.0000     0. 
  -5   1  -7    562.14   16.30  0. 1.0000     0. 
   5   1   7    589.44   16.10  0. 1.0000     0. 
   5   1   7    568.84   16.30  0. 1.0000     0. 
  -6  -1  -7    120.49    4.10  0. 1.0000     0. 
   6  -1   7    123.19    4.30  0. 1.0000     0. 
   6  -1   7    114.49    4.30  0. 1.0000     0. 
  -6   1  -7    129.69    4.30  0. 1.0000     0. 
   6   1   7    122.59    4.00  0. 1.0000     0. 
  -7  -1  -7    426.56   12.50  0. 1.0000     0. 
   7  -1   7    433.66   12.70  0. 1.0000     0. 
   7  -1   7    418.96   12.70  0. 1.0000     0. 
   7   1   7    439.16   12.40  0. 1.0000     0. 
  -7   1  -7    419.16   12.60  0. 1.0000     0. 
   8  -1   7    118.49    4.50  0. 1.0000     0. 
  -8  -1  -7    119.59    4.30  0. 1.0000     0. 
  -8   1  -7    119.59    4.40  0. 1.0000     0. 
   8   1   7    121.79    4.30  0. 1.0000     0. 
   9  -1   7     20.10    1.80  0. 1.0000     0. 
   9   1   7     19.20    1.50  0. 1.0000     0. 
  -9   1  -7     20.80    1.70  0. 1.0000     0. 
 -10  -2   7    103.79    4.30  0. 1.0000     0. 
 -10   2   7    103.89    4.50  0. 1.0000     0. 
  10   2  -7    109.59    3.90  0. 1.0000     0. 
 -10   2   7    104.69    4.10  0. 1.0000     0. 
  -9  -2   7     18.40    1.60  0. 1.0000     0. 
   9   2  -7     16.60    1.40  0. 1.0000     0. 
  -9   2   7     15.60    1.60  0. 1.0000     0. 
  -8  -2   7    704.73   20.10  0. 1.0000     0. 
   8  -2  -7    706.33   20.40  0. 1.0000     0. 
   8   2  -7    685.53   19.70  0. 1.0000     0. 
  -8   2   7    696.13   19.90  0. 1.0000     0. 
  -7  -2   7     10.10    1.20  0. 1.0000     0. 
   7  -2  -7      9.50    1.40  0. 1.0000     0. 
  -7  -2   7     10.50    1.00  0. 1.0000     0. 
   7   2  -7     11.20    1.20  0. 1.0000     0. 
  -7   2   7     10.80    1.30  0. 1.0000     0. 
  -6  -2   7      1.40    0.60  0. 1.0000     0. 
  -6  -2   7      1.20    0.50  0. 1.0000     0. 
   6  -2  -7      0.20    0.60  0. 1.0000     0. 
   6   2  -7      2.50    0.70  0. 1.0000     0. 
  -6   2   7      0.90    0.40  0. 1.0000     0. 
  -6   2   7      1.30    0.60  0. 1.0000     0. 
   5  -2  -7    920.11   26.90  0. 1.0000     0. 
  -5  -2   7    961.90   26.30  0. 1.0000     0. 
  -5  -2   7    928.91   26.50  0. 1.0000     0. 
  -5   2   7    944.81   26.10  0. 1.0000     0. 
  -5   2   7    984.00   26.40  0. 1.0000     0. 
   5   2  -7    958.90   26.50  0. 1.0000     0. 
  -4  -2   7     54.49    2.20  0. 1.0000     0. 
  -4  -2   7     50.89    2.10  0. 1.0000     0. 
   4  -2  -7     49.90    2.50  0. 1.0000     0. 
  -4   2   7     51.09    2.10  0. 1.0000     0. 
  -4   2   7     49.99    2.00  0. 1.0000     0. 
   4   2  -7     51.99    2.20  0. 1.0000     0. 
   3  -2  -7     54.69    2.50  0. 1.0000     0. 
  -3  -2   7     54.19    2.20  0. 1.0000     0. 
  -3  -2   7     56.29    2.20  0. 1.0000     0. 
   3   2  -7     54.89    2.30  0. 1.0000     0. 
  -3   2   7     52.59    2.10  0. 1.0000     0. 
  -3   2   7     53.09    2.10  0. 1.0000     0. 
  -2  -2   7   1073.39   29.10  0. 1.0000     0. 
   2  -2  -7   1054.09   29.30  0. 1.0000     0. 
  -2  -2   7   1067.09   28.90  0. 1.0000     0. 
  -2   2   7   1036.30   28.80  0. 1.0000     0. 
   2   2  -7   1076.59   29.10  0. 1.0000     0. 
  -2   2   7    987.90   29.00  0. 1.0000     0. 
  -1  -2   7    106.29    3.40  0. 1.0000     0. 
  -1  -2   7    106.09    3.60  0. 1.0000     0. 
   1  -2  -7    104.69    3.80  0. 1.0000     0. 
  -1  -2   7    100.59    3.60  0. 1.0000     0. 
  -1   2   7    105.89    3.20  0. 1.0000     0. 
  -1   2   7    102.69    3.60  0. 1.0000     0. 
   1   2  -7     99.19    3.10  0. 1.0000     0. 
   0  -2   7   3083.39   82.89  0. 1.0000     0. 
   0  -2   7   3188.38   83.39  0. 1.0000     0. 
   0  -2  -7   3151.48   83.39  0. 1.0000     0. 
   0  -2   7   2998.30   83.29  0. 1.0000     0. 
   0   2  -7   2959.50   83.19  0. 1.0000     0. 
   0   2   7   2981.90   83.29  0. 1.0000     0. 
   1  -2   7      6.90    0.60  0. 1.0000     0. 
   1  -2   7      6.00    0.90  0. 1.0000     0. 
  -1   2  -7      6.70    0.70  0. 1.0000     0. 
   1   2   7      6.90    0.90  0. 1.0000     0. 
   2  -2   7     75.39    3.00  0. 1.0000     0. 
   2  -2   7     68.99    2.90  0. 1.0000     0. 
  -2  -2  -7     72.69    2.90  0. 1.0000     0. 
  -2   2  -7     74.59    2.60  0. 1.0000     0. 
   2   2   7     70.29    2.90  0. 1.0000     0. 
  -3  -2  -7   2280.77   62.39  0. 1.0000     0. 
   3  -2   7   2406.26   62.69  0. 1.0000     0. 
   3  -2   7   2217.78   62.49  0. 1.0000     0. 
   3   2   7   2230.98   62.49  0. 1.0000     0. 
  -3   2  -7   2276.17   62.19  0. 1.0000     0. 
  -4  -2  -7      2.40    0.70  0. 1.0000     0. 
   4  -2   7      1.90    0.70  0. 1.0000     0. 
  -4   2  -7      2.80    0.60  0. 1.0000     0. 
   5  -2   7    126.49    4.70  0. 1.0000     0. 
   5  -2   7    127.29    4.60  0. 1.0000     0. 
  -5  -2  -7    124.09    4.40  0. 1.0000     0. 
  -5   2  -7    130.99    4.40  0. 1.0000     0. 
   6  -2   7    342.47   10.70  0. 1.0000     0. 
   6  -2   7    338.77   10.60  0. 1.0000     0. 
  -6   2  -7    352.66   10.40  0. 1.0000     0. 
   7  -2   7     53.69    2.70  0. 1.0000     0. 
   7  -2   7     52.99    2.80  0. 1.0000     0. 
  -7   2  -7     49.10    2.60  0. 1.0000     0. 
   8  -2   7    140.59    5.30  0. 1.0000     0. 
   8  -2   7    140.89    5.30  0. 1.0000     0. 
  -8   2  -7    141.19    5.20  0. 1.0000     0. 
   8  -3  -7     26.20    2.30  0. 1.0000     0. 
  -8  -3   7     27.90    2.20  0. 1.0000     0. 
  -8   3   7     29.60    2.10  0. 1.0000     0. 
   8   3  -7     29.10    2.10  0. 1.0000     0. 
   7  -3  -7     27.00    2.30  0. 1.0000     0. 
  -7  -3   7     29.10    2.10  0. 1.0000     0. 
  -7   3   7     28.20    2.00  0. 1.0000     0. 
   7   3  -7     32.30    2.10  0. 1.0000     0. 
   6  -3  -7    342.67   10.80  0. 1.0000     0. 
  -6  -3   7    332.47   10.60  0. 1.0000     0. 
  -6   3   7    344.47   10.30  0. 1.0000     0. 
   6   3  -7    338.97   10.40  0. 1.0000     0. 
   5  -3  -7    125.89    5.00  0. 1.0000     0. 
  -5  -3   7    128.39    4.80  0. 1.0000     0. 
  -5   3   7    130.89    4.20  0. 1.0000     0. 
   5   3  -7    129.29    4.70  0. 1.0000     0. 
  -5   3   7    126.29    4.50  0. 1.0000     0. 
  -4  -3   7    249.78    7.90  0. 1.0000     0. 
  -4  -3   7    250.37    7.70  0. 1.0000     0. 
   4  -3  -7    243.68    8.20  0. 1.0000     0. 
  -4   3   7    243.68    7.60  0. 1.0000     0. 
  -4   3   7    255.57    7.60  0. 1.0000     0. 
   4   3  -7    250.07    7.90  0. 1.0000     0. 
  -3  -3   7    134.99    4.70  0. 1.0000     0. 
   3  -3  -7    133.89    5.10  0. 1.0000     0. 
  -3  -3   7    136.09    4.70  0. 1.0000     0. 
   3   3  -7    131.59    4.80  0. 1.0000     0. 
  -3   3   7    129.89    4.40  0. 1.0000     0. 
  -3   3   7    139.39    4.60  0. 1.0000     0. 
  -2  -3   7    357.06   10.70  0. 1.0000     0. 
   2  -3  -7    371.76   11.10  0. 1.0000     0. 
  -2  -3   7    357.66   10.80  0. 1.0000     0. 
   2   3  -7    345.27   10.80  0. 1.0000     0. 
  -2   3   7    362.36   10.80  0. 1.0000     0. 
  -1  -3   7   1074.49   30.10  0. 1.0000     0. 
   1  -3  -7   1119.79   30.60  0. 1.0000     0. 
  -1  -3   7   1065.59   30.40  0. 1.0000     0. 
  -1   3   7   1075.49   30.40  0. 1.0000     0. 
   0  -3   7     18.80    1.60  0. 1.0000     0. 
   0  -3  -7     24.00    1.80  0. 1.0000     0. 
   0  -3   7     20.50    1.60  0. 1.0000     0. 
   0   3   7     25.00    1.80  0. 1.0000     0. 
   1   3   7      8.60    1.40  0. 1.0000     0. 
   2  -3   7     12.30    1.40  0. 1.0000     0. 
  -2  -3  -7     13.20    1.60  0. 1.0000     0. 
   2  -3   7     11.30    1.50  0. 1.0000     0. 
  -2   3  -7     10.70    1.10  0. 1.0000     0. 
   2   3   7     12.10    1.60  0. 1.0000     0. 
   3  -3   7     -0.80    0.60  0. 1.0000     0. 
   3  -3   7      1.00    0.60  0. 1.0000     0. 
   4  -3   7    160.58    6.00  0. 1.0000     0. 
   4  -3   7    164.68    5.90  0. 1.0000     0. 
  -4   3  -7    169.68    5.60  0. 1.0000     0. 
   5  -3   7    145.59    5.60  0. 1.0000     0. 
   5  -3   7    146.09    5.40  0. 1.0000     0. 
  -5   3  -7    149.88    5.20  0. 1.0000     0. 
   6  -3   7      5.50    1.20  0. 1.0000     0. 
   6  -3   7      5.40    1.10  0. 1.0000     0. 
   5  -4  -7    139.69    5.60  0. 1.0000     0. 
  -5  -4   7    139.69    5.50  0. 1.0000     0. 
   5   4  -7    139.19    5.30  0. 1.0000     0. 
  -4  -4   7     10.00    1.60  0. 1.0000     0. 
   4  -4  -7      6.60    1.30  0. 1.0000     0. 
   4   4  -7      7.80    1.40  0. 1.0000     0. 
   3  -4  -7      9.70    1.80  0. 1.0000     0. 
  -3  -4   7     12.30    1.60  0. 1.0000     0. 
  -3   4   7     11.00    1.60  0. 1.0000     0. 
   3   4  -7     10.10    1.80  0. 1.0000     0. 
   2  -4  -7    160.68    6.00  0. 1.0000     0. 
  -2  -4   7    150.18    6.60  0. 1.0000     0. 
  -2  -4   7    164.88    5.80  0. 1.0000     0. 
   2   4  -7    160.98    5.90  0. 1.0000     0. 
  -2   4   7    160.18    5.80  0. 1.0000     0. 
  -1  -4   7     51.49    2.80  0. 1.0000     0. 
   1  -4  -7     54.69    3.00  0. 1.0000     0. 
   1   4  -7     51.09    2.90  0. 1.0000     0. 
  -1   4   7     50.49    2.90  0. 1.0000     0. 
   0  -4   7     64.39    3.30  0. 1.0000     0. 
   0   4  -7     66.89    3.30  0. 1.0000     0. 
   0   4   7     66.69    3.40  0. 1.0000     0. 
   1  -4   7     34.20    2.30  0. 1.0000     0. 
   1  -4   7     33.40    2.40  0. 1.0000     0. 
   1   4   7     36.00    2.50  0. 1.0000     0. 
   2  -4   7     45.30    2.60  0. 1.0000     0. 
   2  -4   7     41.80    2.80  0. 1.0000     0. 
   2   4   7     47.50    2.90  0. 1.0000     0. 
 -11   0   8    354.86   10.50  0. 1.0000     0. 
  11   0  -8    355.16   10.50  0. 1.0000     0. 
 -10   0   8   1093.99   31.40  0. 1.0000     0. 
  10   0  -8   1179.58   31.40  0. 1.0000     0. 
  -9   0   8    575.94   16.80  0. 1.0000     0. 
   9   0  -8    617.74   16.70  0. 1.0000     0. 
  -9   0   8    593.34   16.80  0. 1.0000     0. 
  -8   0   8    262.77    7.60  0. 1.0000     0. 
  -8   0   8    253.57    7.70  0. 1.0000     0. 
   8   0  -8    260.97    7.50  0. 1.0000     0. 
  -7   0   8    827.22   23.20  0. 1.0000     0. 
  -7   0   8    862.31   23.30  0. 1.0000     0. 
   7   0  -8    821.12   23.50  0. 1.0000     0. 
   7   0  -8    856.61   23.20  0. 1.0000     0. 
   6   0  -8   8524.65  238.88  0. 1.0000     0. 
   6   0  -8   9052.49  237.58  0. 1.0000     0. 
  -6   0   8   8396.96  238.08  0. 1.0000     0. 
  -6   0   8   9033.70  238.08  0. 1.0000     0. 
   5   0  -8   1383.96   38.90  0. 1.0000     0. 
   5   0  -8   1442.56   38.50  0. 1.0000     0. 
  -5   0   8   1444.26   38.70  0. 1.0000     0. 
  -5   0   8   1392.26   38.50  0. 1.0000     0. 
  -4   0   8    466.25   13.60  0. 1.0000     0. 
   4   0  -8    499.05   13.40  0. 1.0000     0. 
  -4   0   8    488.55   13.50  0. 1.0000     0. 
   4   0  -8    482.75   13.80  0. 1.0000     0. 
   3   0  -8   4566.34  121.19  0. 1.0000     0. 
  -3   0   8   4332.67  121.29  0. 1.0000     0. 
  -3   0   8   4268.77  121.19  0. 1.0000     0. 
   3   0  -8   4632.74  120.69  0. 1.0000     0. 
  -2   0   8    257.77    7.60  0. 1.0000     0. 
  -2   0   8    256.87    7.50  0. 1.0000     0. 
   2   0  -8    272.57    7.70  0. 1.0000     0. 
   2   0  -8    264.57    7.40  0. 1.0000     0. 
   1   0  -8   3137.69   84.09  0. 1.0000     0. 
  -1   0   8   3092.59   84.79  0. 1.0000     0. 
  -1   0   8   3097.79   84.29  0. 1.0000     0. 
  -1   0   8   3081.99   84.79  0. 1.0000     0. 
   0   0   8   2506.95   72.09  0. 1.0000     0. 
   0   0   8   2662.33   71.89  0. 1.0000     0. 
   0   0   8   2641.64   71.49  0. 1.0000     0. 
   0   0  -8   2741.53   72.29  0. 1.0000     0. 
   1   0   8    846.62   23.90  0. 1.0000     0. 
  -1   0  -8    900.61   24.00  0. 1.0000     0. 
   1   0   8    836.32   23.70  0. 1.0000     0. 
   1   0   8    896.71   23.90  0. 1.0000     0. 
   2   0   8   6701.73  187.38  0. 1.0000     0. 
   2   0   8   6625.24  186.58  0. 1.0000     0. 
  -2   0  -8   7103.39  187.48  0. 1.0000     0. 
   2   0   8   7040.40  187.48  0. 1.0000     0. 
   3   0   8    407.06   11.30  0. 1.0000     0. 
   3   0   8    373.06   11.20  0. 1.0000     0. 
  -3   0  -8    409.66   11.30  0. 1.0000     0. 
   3   0   8    387.76   11.00  0. 1.0000     0. 
   4   0   8    381.16   11.30  0. 1.0000     0. 
  -4   0  -8    400.26   11.40  0. 1.0000     0. 
   4   0   8    407.36   11.40  0. 1.0000     0. 
  -5   0  -8   1316.67   36.10  0. 1.0000     0. 
   5   0   8   1299.97   36.00  0. 1.0000     0. 
  -6   0  -8     81.49    3.10  0. 1.0000     0. 
   6   0   8     82.19    3.10  0. 1.0000     0. 
   7   0   8      3.40    0.70  0. 1.0000     0. 
  -7   0  -8      3.80    0.80  0. 1.0000     0. 
   8   0   8    103.09    3.90  0. 1.0000     0. 
  -8   0  -8    101.49    3.90  0. 1.0000     0. 
  -9   0  -8     62.89    2.90  0. 1.0000     0. 
   9   0   8     62.49    3.00  0. 1.0000     0. 
 -11  -1   8     19.90    1.70  0. 1.0000     0. 
  11   1  -8     23.20    1.50  0. 1.0000     0. 
 -11   1   8     20.90    1.80  0. 1.0000     0. 
 -10  -1   8    650.93   18.50  0. 1.0000     0. 
 -10  -1   8    658.53   18.90  0. 1.0000     0. 
 -10   1   8    643.34   18.70  0. 1.0000     0. 
 -10   1   8    685.23   19.20  0. 1.0000     0. 
  10   1  -8    641.74   18.50  0. 1.0000     0. 
  -9  -1   8    228.88    7.20  0. 1.0000     0. 
   9  -1  -8    232.48    7.90  0. 1.0000     0. 
  -9   1   8    229.48    7.10  0. 1.0000     0. 
   9   1  -8    222.48    6.90  0. 1.0000     0. 
  -8  -1   8      6.40    1.00  0. 1.0000     0. 
   8  -1  -8      6.40    0.80  0. 1.0000     0. 
   8  -1  -8      4.50    0.90  0. 1.0000     0. 
  -8  -1   8      6.00    0.90  0. 1.0000     0. 
  -8   1   8      4.80    0.80  0. 1.0000     0. 
  -8   1   8      5.60    0.70  0. 1.0000     0. 
   8   1  -8      6.70    0.90  0. 1.0000     0. 
  -7  -1   8   2776.42   75.49  0. 1.0000     0. 
  -7  -1   8   2695.93   75.59  0. 1.0000     0. 
   7  -1  -8   2700.83   75.39  0. 1.0000     0. 
   7  -1  -8   2756.52   76.09  0. 1.0000     0. 
  -7   1   8   2781.62   75.49  0. 1.0000     0. 
   7   1  -8   2861.31   75.49  0. 1.0000     0. 
  -7   1   8   2892.41   75.69  0. 1.0000     0. 
  -6  -1   8    964.70   27.50  0. 1.0000     0. 
   6  -1  -8   1000.20   27.30  0. 1.0000     0. 
  -6  -1   8    992.10   27.50  0. 1.0000     0. 
   6  -1  -8    986.70   28.00  0. 1.0000     0. 
  -6   1   8   1028.30   27.60  0. 1.0000     0. 
  -6   1   8    970.10   27.20  0. 1.0000     0. 
   6   1  -8   1033.60   27.50  0. 1.0000     0. 
   5  -1  -8   1327.37   35.90  0. 1.0000     0. 
   5  -1  -8   1276.37   36.20  0. 1.0000     0. 
  -5  -1   8   1322.87   35.80  0. 1.0000     0. 
  -5  -1   8   1321.27   35.80  0. 1.0000     0. 
   5   1  -8   1343.57   35.80  0. 1.0000     0. 
  -5   1   8   1317.47   35.80  0. 1.0000     0. 
  -5   1   8   1230.78   35.50  0. 1.0000     0. 
  -4  -1   8      5.40    0.60  0. 1.0000     0. 
   4  -1  -8      4.80    0.80  0. 1.0000     0. 
  -4  -1   8      6.70    0.70  0. 1.0000     0. 
   4   1  -8      4.80    0.60  0. 1.0000     0. 
  -4   1   8      5.20    0.60  0. 1.0000     0. 
   4   1  -8      6.90    0.60  0. 1.0000     0. 
  -4   1   8      5.30    0.50  0. 1.0000     0. 
   3  -1  -8      0.30    0.40  0. 1.0000     0. 
  -3  -1   8      0.20    0.30  0. 1.0000     0. 
   3   1  -8      0.70    0.30  0. 1.0000     0. 
  -3   1   8      0.40    0.30  0. 1.0000     0. 
   3   1  -8      0.10    0.30  0. 1.0000     0. 
  -2  -1   8   2629.24   70.09  0. 1.0000     0. 
   2  -1  -8   2619.74   70.19  0. 1.0000     0. 
  -2   1   8   2560.14   69.99  0. 1.0000     0. 
  -2   1   8   2535.05   70.19  0. 1.0000     0. 
   2   1  -8   2579.04   69.89  0. 1.0000     0. 
   2   1  -8   2522.35   69.89  0. 1.0000     0. 
   1  -1  -8    150.98    4.80  0. 1.0000     0. 
  -1  -1   8    158.08    4.40  0. 1.0000     0. 
  -1  -1   8    150.18    4.60  0. 1.0000     0. 
  -1  -1   8    144.69    4.70  0. 1.0000     0. 
  -1   1   8    150.18    4.60  0. 1.0000     0. 
   1   1  -8    146.89    4.40  0. 1.0000     0. 
  -1   1   8    153.98    4.40  0. 1.0000     0. 
   0  -1   8    247.78    7.60  0. 1.0000     0. 
   0  -1   8    252.37    7.50  0. 1.0000     0. 
   0  -1  -8    258.17    7.70  0. 1.0000     0. 
   0  -1   8    250.77    7.20  0. 1.0000     0. 
   0   1  -8    251.67    7.40  0. 1.0000     0. 
   0   1   8    258.47    7.50  0. 1.0000     0. 
   0   1   8    273.67    7.30  0. 1.0000     0. 
   1  -1   8   2905.61   80.69  0. 1.0000     0. 
   1  -1   8   2888.81   80.59  0. 1.0000     0. 
  -1  -1  -8   2966.80   80.69  0. 1.0000     0. 
   1  -1   8   2872.51   80.79  0. 1.0000     0. 
  -1   1  -8   2918.61   80.49  0. 1.0000     0. 
   1   1   8   3212.88   80.69  0. 1.0000     0. 
   1   1   8   3025.00   81.39  0. 1.0000     0. 
   2  -1   8   1593.84   44.50  0. 1.0000     0. 
   2  -1   8   1599.44   44.60  0. 1.0000     0. 
  -2  -1  -8   1708.33   44.50  0. 1.0000     0. 
   2   1   8   1680.63   44.50  0. 1.0000     0. 
  -2   1  -8   1600.44   44.30  0. 1.0000     0. 
   2   1   8   1568.94   44.10  0. 1.0000     0. 
   3  -1   8    286.87    8.70  0. 1.0000     0. 
   3  -1   8    285.57    8.60  0. 1.0000     0. 
  -3  -1  -8    308.17    8.60  0. 1.0000     0. 
   3   1   8    290.27    8.50  0. 1.0000     0. 
  -3   1  -8    284.77    8.50  0. 1.0000     0. 
   3   1   8    280.57    8.20  0. 1.0000     0. 
   4  -1   8     16.60    1.30  0. 1.0000     0. 
  -4  -1  -8     17.10    1.30  0. 1.0000     0. 
   4  -1   8     15.40    1.20  0. 1.0000     0. 
   4   1   8     19.80    1.00  0. 1.0000     0. 
   4   1   8     18.40    1.20  0. 1.0000     0. 
  -4   1  -8     18.80    1.20  0. 1.0000     0. 
   5  -1   8     90.99    3.50  0. 1.0000     0. 
  -5  -1  -8     98.49    3.40  0. 1.0000     0. 
   5  -1   8     90.49    3.40  0. 1.0000     0. 
  -5   1  -8     92.29    3.40  0. 1.0000     0. 
   5   1   8     91.49    3.30  0. 1.0000     0. 
   5   1   8     90.39    3.10  0. 1.0000     0. 
  -6  -1  -8    665.43   18.60  0. 1.0000     0. 
   6  -1   8    636.14   18.70  0. 1.0000     0. 
   6  -1   8    657.03   18.70  0. 1.0000     0. 
   6   1   8    653.13   18.40  0. 1.0000     0. 
  -6   1  -8    654.43   18.60  0. 1.0000     0. 
   7  -1   8    225.38    7.50  0. 1.0000     0. 
  -7  -1  -8    232.78    7.30  0. 1.0000     0. 
   7   1   8    235.58    7.20  0. 1.0000     0. 
  -7   1  -8    230.28    7.40  0. 1.0000     0. 
   8  -1   8     -0.20    0.60  0. 1.0000     0. 
  -8  -1  -8      0.60    0.70  0. 1.0000     0. 
   8   1   8      1.10    0.60  0. 1.0000     0. 
  -8   1  -8      0.00    0.60  0. 1.0000     0. 
 -10  -2   8      8.40    1.40  0. 1.0000     0. 
 -10   2   8      8.40    1.50  0. 1.0000     0. 
 -10   2   8      8.00    1.50  0. 1.0000     0. 
  10   2  -8      9.10    1.30  0. 1.0000     0. 
  -9  -2   8      4.10    1.00  0. 1.0000     0. 
   9  -2  -8      2.70    0.90  0. 1.0000     0. 
   9   2  -8      3.20    0.80  0. 1.0000     0. 
  -9   2   8      3.80    1.00  0. 1.0000     0. 
  -8  -2   8     90.09    3.70  0. 1.0000     0. 
   8  -2  -8     90.59    4.00  0. 1.0000     0. 
   8   2  -8     92.99    3.50  0. 1.0000     0. 
  -8   2   8     89.99    3.60  0. 1.0000     0. 
  -7  -2   8     79.99    3.00  0. 1.0000     0. 
  -7  -2   8     85.49    3.30  0. 1.0000     0. 
   7  -2  -8     82.99    3.60  0. 1.0000     0. 
   7   2  -8     79.39    3.10  0. 1.0000     0. 
  -7   2   8     84.89    3.20  0. 1.0000     0. 
  -7   2   8     79.59    2.80  0. 1.0000     0. 
  -6  -2   8    174.08    5.70  0. 1.0000     0. 
   6  -2  -8    173.68    6.10  0. 1.0000     0. 
  -6  -2   8    173.98    5.50  0. 1.0000     0. 
  -6   2   8    174.08    5.20  0. 1.0000     0. 
   6   2  -8    169.68    5.60  0. 1.0000     0. 
  -6   2   8    181.78    5.60  0. 1.0000     0. 
   5  -2  -8    515.55   15.80  0. 1.0000     0. 
  -5  -2   8    536.65   15.40  0. 1.0000     0. 
  -5  -2   8    543.55   15.30  0. 1.0000     0. 
  -5   2   8    545.55   15.10  0. 1.0000     0. 
   5   2  -8    549.25   15.40  0. 1.0000     0. 
  -5   2   8    538.35   15.30  0. 1.0000     0. 
   4  -2  -8    164.08    5.80  0. 1.0000     0. 
  -4  -2   8    174.88    5.40  0. 1.0000     0. 
  -4  -2   8    176.88    5.40  0. 1.0000     0. 
  -4   2   8    169.38    5.20  0. 1.0000     0. 
   4   2  -8    171.98    5.50  0. 1.0000     0. 
  -4   2   8    168.78    5.30  0. 1.0000     0. 
   3  -2  -8      0.90    0.60  0. 1.0000     0. 
  -2  -2   8    131.39    4.20  0. 1.0000     0. 
   2  -2  -8    129.39    4.60  0. 1.0000     0. 
  -2  -2   8    133.79    4.40  0. 1.0000     0. 
  -2   2   8    124.79    4.20  0. 1.0000     0. 
  -2   2   8    127.29    4.00  0. 1.0000     0. 
   2   2  -8    135.09    4.40  0. 1.0000     0. 
  -1  -2   8      9.40    1.00  0. 1.0000     0. 
  -1  -2   8     11.50    0.80  0. 1.0000     0. 
  -1  -2   8     12.40    1.10  0. 1.0000     0. 
   1   2  -8      9.40    0.70  0. 1.0000     0. 
  -1   2   8     10.70    0.70  0. 1.0000     0. 
  -1   2   8      8.80    1.00  0. 1.0000     0. 
   0  -2   8    151.18    5.10  0. 1.0000     0. 
   0  -2   8    164.78    5.20  0. 1.0000     0. 
   0  -2  -8    162.88    5.30  0. 1.0000     0. 
   0  -2   8    159.98    4.80  0. 1.0000     0. 
   0   2   8    153.88    5.10  0. 1.0000     0. 
   0   2  -8    152.68    4.70  0. 1.0000     0. 
   1  -2   8    288.37    8.70  0. 1.0000     0. 
   1  -2   8    268.57    8.50  0. 1.0000     0. 
  -1  -2  -8    291.17    8.70  0. 1.0000     0. 
   1   2   8    285.87    8.60  0. 1.0000     0. 
  -1   2  -8    281.57    8.20  0. 1.0000     0. 
  -2  -2  -8     31.80    1.90  0. 1.0000     0. 
   2  -2   8     28.40    1.90  0. 1.0000     0. 
   2  -2   8     30.00    1.70  0. 1.0000     0. 
   2   2   8     30.50    1.80  0. 1.0000     0. 
  -2   2  -8     30.90    1.50  0. 1.0000     0. 
   3  -2   8   1720.13   48.80  0. 1.0000     0. 
   3  -2   8   1864.51   49.10  0. 1.0000     0. 
  -3  -2  -8   1759.12   48.70  0. 1.0000     0. 
  -3   2  -8   1777.72   48.50  0. 1.0000     0. 
   3   2   8   1738.53   48.80  0. 1.0000     0. 
   4  -2   8     10.20    1.30  0. 1.0000     0. 
  -4  -2  -8     11.30    1.30  0. 1.0000     0. 
   4   2   8      8.70    1.20  0. 1.0000     0. 
  -4   2  -8      9.40    1.10  0. 1.0000     0. 
   5  -2   8      5.00    1.00  0. 1.0000     0. 
   5  -2   8      4.50    0.90  0. 1.0000     0. 
  -5  -2  -8      5.70    1.20  0. 1.0000     0. 
  -5   2  -8      4.90    1.10  0. 1.0000     0. 
   5   2   8      6.50    1.10  0. 1.0000     0. 
   6  -2   8    454.65   13.90  0. 1.0000     0. 
   6  -2   8    462.05   13.80  0. 1.0000     0. 
  -6   2  -8    470.45   13.60  0. 1.0000     0. 
   6   2   8    450.95   13.70  0. 1.0000     0. 
   7  -2   8    431.76   13.20  0. 1.0000     0. 
   7  -2   8    422.36   13.10  0. 1.0000     0. 
  -7   2  -8    435.86   12.90  0. 1.0000     0. 
  -8  -3   8     51.59    2.90  0. 1.0000     0. 
   8  -3  -8     49.10    3.10  0. 1.0000     0. 
  -8   3   8     50.59    2.70  0. 1.0000     0. 
   8   3  -8     53.49    2.70  0. 1.0000     0. 
   7  -3  -8      7.60    1.40  0. 1.0000     0. 
  -7  -3   8     10.00    1.50  0. 1.0000     0. 
  -7   3   8      9.00    1.50  0. 1.0000     0. 
   7   3  -8     10.70    1.60  0. 1.0000     0. 
   6  -3  -8     22.10    2.20  0. 1.0000     0. 
  -6  -3   8     22.60    1.80  0. 1.0000     0. 
  -6   3   8     23.20    1.80  0. 1.0000     0. 
   6   3  -8     21.60    1.90  0. 1.0000     0. 
   5  -3  -8     46.30    2.80  0. 1.0000     0. 
  -5  -3   8     47.80    2.30  0. 1.0000     0. 
  -5  -3   8     45.60    2.40  0. 1.0000     0. 
  -5   3   8     47.50    2.30  0. 1.0000     0. 
   5   3  -8     46.80    2.50  0. 1.0000     0. 
  -5   3   8     48.20    2.10  0. 1.0000     0. 
   4  -3  -8    154.78    5.90  0. 1.0000     0. 
  -4  -3   8    160.48    5.50  0. 1.0000     0. 
  -4  -3   8    164.88    5.40  0. 1.0000     0. 
  -4   3   8    156.38    5.30  0. 1.0000     0. 
  -4   3   8    165.78    5.30  0. 1.0000     0. 
   4   3  -8    161.58    5.60  0. 1.0000     0. 
  -3  -3   8      9.90    1.20  0. 1.0000     0. 
  -3  -3   8      8.70    1.20  0. 1.0000     0. 
   3  -3  -8      6.70    1.20  0. 1.0000     0. 
  -3   3   8      9.70    1.20  0. 1.0000     0. 
   3   3  -8      7.90    1.40  0. 1.0000     0. 
  -2  -3   8      1.30    0.70  0. 1.0000     0. 
  -2  -3   8      1.90    0.70  0. 1.0000     0. 
   2  -3  -8      1.90    0.80  0. 1.0000     0. 
  -2   3   8      2.30    0.90  0. 1.0000     0. 
   2   3  -8      2.30    0.80  0. 1.0000     0. 
   1  -3  -8    105.99    4.20  0. 1.0000     0. 
  -1  -3   8    101.49    3.70  0. 1.0000     0. 
  -1  -3   8    104.39    4.00  0. 1.0000     0. 
  -1   3   8    104.89    4.00  0. 1.0000     0. 
   0  -3   8      6.00    1.10  0. 1.0000     0. 
   0  -3  -8      5.70    1.10  0. 1.0000     0. 
   0  -3   8      6.60    1.20  0. 1.0000     0. 
   0   3   8      7.00    1.30  0. 1.0000     0. 
  -1  -3  -8    117.89    4.50  0. 1.0000     0. 
   1  -3   8    111.69    4.30  0. 1.0000     0. 
   1  -3   8    113.79    4.40  0. 1.0000     0. 
   1   3   8    112.79    4.40  0. 1.0000     0. 
   2  -3   8    232.28    7.80  0. 1.0000     0. 
   2  -3   8    232.68    7.60  0. 1.0000     0. 
  -2  -3  -8    237.98    7.70  0. 1.0000     0. 
   2   3   8    232.98    7.80  0. 1.0000     0. 
  -2   3  -8    236.98    7.20  0. 1.0000     0. 
   3  -3   8      6.10    1.20  0. 1.0000     0. 
   3  -3   8      7.60    1.30  0. 1.0000     0. 
  -3   3  -8      5.90    1.10  0. 1.0000     0. 
   3   3   8      7.50    1.40  0. 1.0000     0. 
   4  -3   8    202.88    7.10  0. 1.0000     0. 
   4  -3   8    201.88    6.90  0. 1.0000     0. 
  -4   3  -8    206.48    6.50  0. 1.0000     0. 
   4   3   8    186.58    6.90  0. 1.0000     0. 
   5  -3   8     63.29    3.30  0. 1.0000     0. 
   5  -3   8     64.39    3.20  0. 1.0000     0. 
   5   3   8     61.19    3.20  0. 1.0000     0. 
  -5   3  -8     68.89    3.00  0. 1.0000     0. 
   6  -3   8     72.79    3.50  0. 1.0000     0. 
   6  -3   8     78.09    3.80  0. 1.0000     0. 
   6   3   8     70.79    3.60  0. 1.0000     0. 
  -6   3  -8     76.29    3.40  0. 1.0000     0. 
  -4  -4   8      6.20    1.30  0. 1.0000     0. 
   4  -4  -8      3.40    1.20  0. 1.0000     0. 
   4   4  -8      4.40    1.20  0. 1.0000     0. 
   3  -4  -8      2.20    1.00  0. 1.0000     0. 
  -3  -4   8      2.80    1.10  0. 1.0000     0. 
   3   4  -8      4.20    1.10  0. 1.0000     0. 
  -3   4   8      4.00    1.10  0. 1.0000     0. 
  -2  -4   8      5.10    1.10  0. 1.0000     0. 
   2  -4  -8      5.00    1.20  0. 1.0000     0. 
  -2   4   8      5.90    1.30  0. 1.0000     0. 
   2   4  -8      3.90    1.10  0. 1.0000     0. 
  -1  -4   8     37.30    2.50  0. 1.0000     0. 
   1  -4  -8     41.90    2.70  0. 1.0000     0. 
   1   4  -8     39.40    2.60  0. 1.0000     0. 
  -1   4   8     37.70    2.50  0. 1.0000     0. 
   0  -4   8      1.50    1.00  0. 1.0000     0. 
   0   4   8      5.40    1.30  0. 1.0000     0. 
   1  -4   8      0.40    0.90  0. 1.0000     0. 
   1  -4   8      0.20    0.80  0. 1.0000     0. 
   1   4   8      1.00    1.10  0. 1.0000     0. 
   2  -4   8     12.70    1.60  0. 1.0000     0. 
   2  -4   8     13.10    1.80  0. 1.0000     0. 
 -11   0   9      0.90    0.70  0. 1.0000     0. 
  11   0  -9      0.60    0.50  0. 1.0000     0. 
 -10   0   9      1.10    0.70  0. 1.0000     0. 
 -10   0   9      1.10    0.60  0. 1.0000     0. 
  10   0  -9      1.00    0.60  0. 1.0000     0. 
  -9   0   9      1.40    0.60  0. 1.0000     0. 
  -9   0   9      1.00    0.50  0. 1.0000     0. 
   9   0  -9      0.60    0.50  0. 1.0000     0. 
  -8   0   9      0.80    0.50  0. 1.0000     0. 
   8   0  -9     -0.10    0.30  0. 1.0000     0. 
  -8   0   9     -0.10    0.40  0. 1.0000     0. 
   7   0  -9      0.40    0.30  0. 1.0000     0. 
  -7   0   9      0.30    0.40  0. 1.0000     0. 
   7   0  -9      0.50    0.50  0. 1.0000     0. 
  -7   0   9      1.00    0.50  0. 1.0000     0. 
  -6   0   9      0.70    0.50  0. 1.0000     0. 
   6   0  -9      0.90    0.50  0. 1.0000     0. 
  -6   0   9      1.30    0.40  0. 1.0000     0. 
   5   0  -9      0.00    0.30  0. 1.0000     0. 
   5   0  -9      0.90    0.30  0. 1.0000     0. 
  -5   0   9      0.80    0.30  0. 1.0000     0. 
  -5   0   9      0.30    0.40  0. 1.0000     0. 
   4   0  -9      0.00    0.20  0. 1.0000     0. 
  -4   0   9     -0.30    0.30  0. 1.0000     0. 
   4   0  -9      0.60    0.30  0. 1.0000     0. 
  -4   0   9     -0.10    0.20  0. 1.0000     0. 
  -3   0   9     -1.10    0.30  0. 1.0000     0. 
   3   0  -9     -1.50    0.30  0. 1.0000     0. 
  -2   0   9      1.20    0.30  0. 1.0000     0. 
   2   0  -9      1.30    0.30  0. 1.0000     0. 
   2   0  -9      0.70    0.40  0. 1.0000     0. 
   1   0  -9      0.00    0.30  0. 1.0000     0. 
  -1   0   9      0.20    0.20  0. 1.0000     0. 
  -1   0   9     -0.10    0.20  0. 1.0000     0. 
   0   0   9      0.50    0.30  0. 1.0000     0. 
   0   0  -9     -0.10    0.30  0. 1.0000     0. 
   0   0   9      1.30    0.30  0. 1.0000     0. 
   1   0   9      0.20    0.30  0. 1.0000     0. 
  -1   0  -9     -0.10    0.30  0. 1.0000     0. 
   1   0   9      0.80    0.30  0. 1.0000     0. 
   2   0   9     -0.30    0.20  0. 1.0000     0. 
  -2   0  -9     -0.20    0.30  0. 1.0000     0. 
   2   0   9      0.20    0.30  0. 1.0000     0. 
   2   0   9      0.10    0.20  0. 1.0000     0. 
   3   0   9      0.10    0.30  0. 1.0000     0. 
   3   0   9      1.20    0.40  0. 1.0000     0. 
   3   0   9      1.50    0.40  0. 1.0000     0. 
  -3   0  -9     -0.10    0.40  0. 1.0000     0. 
  -4   0  -9     -0.50    0.40  0. 1.0000     0. 
   4   0   9      1.00    0.40  0. 1.0000     0. 
  -5   0  -9     -0.50    0.50  0. 1.0000     0. 
   5   0   9      0.20    0.40  0. 1.0000     0. 
  -6   0  -9     -0.20    0.50  0. 1.0000     0. 
   6   0   9      1.10    0.50  0. 1.0000     0. 
   7   0   9     -0.40    0.50  0. 1.0000     0. 
  -7   0  -9     -0.10    0.60  0. 1.0000     0. 
   8   0   9      1.50    0.70  0. 1.0000     0. 
  -8   0  -9      1.70    0.80  0. 1.0000     0. 
 -11  -1   9    124.49    4.70  0. 1.0000     0. 
 -11   1   9    122.69    4.50  0. 1.0000     0. 
  11   1  -9    130.39    4.40  0. 1.0000     0. 
 -10  -1   9     27.60    1.80  0. 1.0000     0. 
 -10  -1   9     26.00    1.70  0. 1.0000     0. 
  10   1  -9     27.20    1.60  0. 1.0000     0. 
 -10   1   9     24.80    1.80  0. 1.0000     0. 
  -9  -1   9    429.76   12.60  0. 1.0000     0. 
  -9  -1   9    438.56   12.80  0. 1.0000     0. 
   9  -1  -9    443.16   13.10  0. 1.0000     0. 
   9   1  -9    437.36   12.50  0. 1.0000     0. 
  -9   1   9    431.06   12.70  0. 1.0000     0. 
   8  -1  -9   1101.89   31.30  0. 1.0000     0. 
  -8  -1   9   1128.09   30.90  0. 1.0000     0. 
  -8  -1   9   1104.59   30.80  0. 1.0000     0. 
  -8   1   9   1107.79   30.50  0. 1.0000     0. 
   8   1  -9   1139.89   30.70  0. 1.0000     0. 
  -8   1   9   1102.39   30.90  0. 1.0000     0. 
  -7  -1   9     53.59    2.20  0. 1.0000     0. 
   7  -1  -9     53.29    2.60  0. 1.0000     0. 
  -7  -1   9     51.49    2.20  0. 1.0000     0. 
   7   1  -9     57.79    2.20  0. 1.0000     0. 
  -7   1   9     54.99    2.00  0. 1.0000     0. 
  -7   1   9     56.39    2.30  0. 1.0000     0. 
  -6  -1   9    276.37    8.20  0. 1.0000     0. 
  -6  -1   9    275.27    8.20  0. 1.0000     0. 
   6  -1  -9    274.17    8.70  0. 1.0000     0. 
  -6   1   9    270.07    8.00  0. 1.0000     0. 
  -6   1   9    290.47    8.30  0. 1.0000     0. 
   6   1  -9    285.97    8.20  0. 1.0000     0. 
  -5  -1   9   2188.28   58.59  0. 1.0000     0. 
   5  -1  -9   2087.39   58.79  0. 1.0000     0. 
  -5  -1   9   2199.68   58.39  0. 1.0000     0. 
  -5   1   9   2161.18   58.39  0. 1.0000     0. 
   5   1  -9   2230.48   58.39  0. 1.0000     0. 
  -5   1   9   1994.20   58.09  0. 1.0000     0. 
  -4  -1   9     12.60    0.80  0. 1.0000     0. 
   4  -1  -9     11.70    1.10  0. 1.0000     0. 
  -4  -1   9     13.00    0.90  0. 1.0000     0. 
  -4   1   9     13.20    0.80  0. 1.0000     0. 
  -4   1   9     13.60    0.90  0. 1.0000     0. 
   4   1  -9     13.90    1.00  0. 1.0000     0. 
  -3  -1   9    274.27    7.80  0. 1.0000     0. 
   3  -1  -9    256.87    8.00  0. 1.0000     0. 
  -3  -1   9    275.17    7.60  0. 1.0000     0. 
  -3   1   9    261.57    7.60  0. 1.0000     0. 
   3   1  -9    253.57    7.60  0. 1.0000     0. 
  -3   1   9    256.47    7.60  0. 1.0000     0. 
   3   1  -9    269.67    7.70  0. 1.0000     0. 
  -2  -1   9    181.88    5.20  0. 1.0000     0. 
   2  -1  -9    178.08    5.60  0. 1.0000     0. 
  -2  -1   9    177.38    5.40  0. 1.0000     0. 
  -2   1   9    175.48    5.30  0. 1.0000     0. 
  -2   1   9    183.58    5.20  0. 1.0000     0. 
   2   1  -9    167.48    5.20  0. 1.0000     0. 
   2   1  -9    174.88    5.40  0. 1.0000     0. 
  -1  -1   9    486.75   14.00  0. 1.0000     0. 
  -1  -1   9    503.85   13.70  0. 1.0000     0. 
  -1  -1   9    486.15   13.90  0. 1.0000     0. 
   1  -1  -9    503.95   14.20  0. 1.0000     0. 
   1   1  -9    479.15   13.80  0. 1.0000     0. 
  -1   1   9    519.25   13.70  0. 1.0000     0. 
  -1   1   9    484.15   13.90  0. 1.0000     0. 
   0  -1  -9     92.09    3.20  0. 1.0000     0. 
   0  -1   9     85.39    3.10  0. 1.0000     0. 
   0  -1   9     88.99    3.10  0. 1.0000     0. 
   0  -1   9     88.79    2.70  0. 1.0000     0. 
   0   1  -9     85.79    2.90  0. 1.0000     0. 
   0   1   9     92.49    3.00  0. 1.0000     0. 
   0   1   9     95.39    2.80  0. 1.0000     0. 
   1  -1   9     55.59    2.20  0. 1.0000     0. 
  -1  -1  -9     55.69    2.30  0. 1.0000     0. 
   1  -1   9     54.69    1.80  0. 1.0000     0. 
   1  -1   9     52.79    2.20  0. 1.0000     0. 
  -1   1  -9     51.39    2.00  0. 1.0000     0. 
   1   1   9     56.69    2.10  0. 1.0000     0. 
   1   1   9     58.89    1.90  0. 1.0000     0. 
   2  -1   9    352.66   10.50  0. 1.0000     0. 
   2  -1   9    352.96   10.60  0. 1.0000     0. 
  -2  -1  -9    372.26   10.50  0. 1.0000     0. 
   2   1   9    364.16   10.40  0. 1.0000     0. 
  -2   1  -9    355.56   10.30  0. 1.0000     0. 
  -3  -1  -9    142.39    4.50  0. 1.0000     0. 
   3  -1   9    134.19    4.60  0. 1.0000     0. 
   3  -1   9    138.09    4.50  0. 1.0000     0. 
  -3   1  -9    129.79    4.40  0. 1.0000     0. 
   3   1   9    134.29    4.40  0. 1.0000     0. 
   4  -1   9     40.90    2.00  0. 1.0000     0. 
   4  -1   9     41.20    2.10  0. 1.0000     0. 
  -4  -1  -9     40.20    2.00  0. 1.0000     0. 
   4   1   9     41.60    1.90  0. 1.0000     0. 
  -4   1  -9     42.10    1.90  0. 1.0000     0. 
   5  -1   9    249.38    8.10  0. 1.0000     0. 
  -5  -1  -9    266.97    7.90  0. 1.0000     0. 
   5  -1   9    255.97    8.00  0. 1.0000     0. 
  -5   1  -9    258.27    7.90  0. 1.0000     0. 
  -6  -1  -9     57.49    2.50  0. 1.0000     0. 
   6  -1   9     54.19    2.60  0. 1.0000     0. 
   6  -1   9     51.99    2.60  0. 1.0000     0. 
  -6   1  -9     56.39    2.50  0. 1.0000     0. 
   7  -1   9    311.37    9.90  0. 1.0000     0. 
  -7  -1  -9    317.97    9.70  0. 1.0000     0. 
  -7   1  -9    325.97    9.80  0. 1.0000     0. 
   8  -1   9    116.29    4.70  0. 1.0000     0. 
  -8  -1  -9    121.79    4.50  0. 1.0000     0. 
  -8   1  -9    127.69    4.60  0. 1.0000     0. 
 -10  -2   9     47.60    2.60  0. 1.0000     0. 
 -10   2   9     44.00    2.50  0. 1.0000     0. 
  10   2  -9     47.80    2.30  0. 1.0000     0. 
   9  -2  -9    268.77    8.70  0. 1.0000     0. 
  -9  -2   9    256.37    8.40  0. 1.0000     0. 
   9   2  -9    258.37    8.00  0. 1.0000     0. 
  -9   2   9    257.77    8.20  0. 1.0000     0. 
  -8  -2   9    397.06   11.90  0. 1.0000     0. 
   8  -2  -9    409.66   12.60  0. 1.0000     0. 
  -8  -2   9    404.06   12.20  0. 1.0000     0. 
   8   2  -9    398.06   11.90  0. 1.0000     0. 
  -8   2   9    420.96   12.10  0. 1.0000     0. 
   7  -2  -9    350.86   11.10  0. 1.0000     0. 
  -7  -2   9    360.96   10.70  0. 1.0000     0. 
  -7  -2   9    345.87   10.40  0. 1.0000     0. 
  -7   2   9    351.46   10.10  0. 1.0000     0. 
  -7   2   9    367.16   10.60  0. 1.0000     0. 
   7   2  -9    344.87   10.50  0. 1.0000     0. 
  -6  -2   9     57.89    2.40  0. 1.0000     0. 
   6  -2  -9     55.79    2.90  0. 1.0000     0. 
  -6  -2   9     56.79    2.50  0. 1.0000     0. 
   6   2  -9     59.99    2.50  0. 1.0000     0. 
  -6   2   9     59.59    2.20  0. 1.0000     0. 
  -6   2   9     58.79    2.50  0. 1.0000     0. 
  -5  -2   9      8.80    1.00  0. 1.0000     0. 
  -5  -2   9      9.10    1.00  0. 1.0000     0. 
   5  -2  -9      8.50    1.40  0. 1.0000     0. 
  -5   2   9     10.00    0.90  0. 1.0000     0. 
   5   2  -9      8.90    1.30  0. 1.0000     0. 
  -5   2   9      9.00    1.10  0. 1.0000     0. 
  -4  -2   9   1211.58   33.00  0. 1.0000     0. 
   4  -2  -9   1146.99   33.40  0. 1.0000     0. 
  -4  -2   9   1231.48   33.00  0. 1.0000     0. 
  -4   2   9   1181.08   32.80  0. 1.0000     0. 
   4   2  -9   1222.58   33.10  0. 1.0000     0. 
  -4   2   9   1157.98   32.80  0. 1.0000     0. 
  -3  -2   9    360.06   10.50  0. 1.0000     0. 
  -3  -2   9    363.16   10.30  0. 1.0000     0. 
   3  -2  -9    337.27   10.70  0. 1.0000     0. 
   3   2  -9    369.56   10.50  0. 1.0000     0. 
  -3   2   9    355.66   10.10  0. 1.0000     0. 
  -3   2   9    340.57   10.30  0. 1.0000     0. 
  -2  -2   9     88.29    3.20  0. 1.0000     0. 
  -2  -2   9     83.49    2.90  0. 1.0000     0. 
   2  -2  -9     81.99    3.40  0. 1.0000     0. 
   2   2  -9     83.89    3.20  0. 1.0000     0. 
  -2   2   9     78.79    2.70  0. 1.0000     0. 
  -2   2   9     80.49    3.00  0. 1.0000     0. 
   1  -2  -9     44.70    2.30  0. 1.0000     0. 
  -1  -2   9     43.30    1.80  0. 1.0000     0. 
  -1  -2   9     44.10    2.10  0. 1.0000     0. 
  -1  -2   9     45.40    2.10  0. 1.0000     0. 
  -1   2   9     43.50    2.00  0. 1.0000     0. 
   1   2  -9     52.29    1.90  0. 1.0000     0. 
   0  -2   9     23.60    1.20  0. 1.0000     0. 
   0  -2   9     24.30    1.50  0. 1.0000     0. 
   0  -2   9     25.20    1.60  0. 1.0000     0. 
   0  -2  -9     24.60    1.70  0. 1.0000     0. 
   0   2  -9     24.40    1.20  0. 1.0000     0. 
   0   2   9     24.10    1.50  0. 1.0000     0. 
   1  -2   9      8.60    1.00  0. 1.0000     0. 
  -1  -2  -9     11.40    1.30  0. 1.0000     0. 
   1  -2   9      8.80    1.10  0. 1.0000     0. 
   1   2   9      9.60    1.10  0. 1.0000     0. 
  -1   2  -9     10.70    0.90  0. 1.0000     0. 
   2  -2   9     -0.60    0.60  0. 1.0000     0. 
   2  -2   9      0.30    0.50  0. 1.0000     0. 
  -2  -2  -9      0.70    0.70  0. 1.0000     0. 
   2   2   9     -0.10    0.60  0. 1.0000     0. 
  -2   2  -9      0.50    0.50  0. 1.0000     0. 
  -3  -2  -9     33.70    2.00  0. 1.0000     0. 
   3  -2   9     34.30    1.90  0. 1.0000     0. 
   3  -2   9     30.60    2.00  0. 1.0000     0. 
  -3   2  -9     31.20    1.70  0. 1.0000     0. 
   3   2   9     30.40    1.90  0. 1.0000     0. 
  -4  -2  -9     36.90    2.10  0. 1.0000     0. 
   4  -2   9     38.60    2.10  0. 1.0000     0. 
   4  -2   9     37.90    2.20  0. 1.0000     0. 
   4   2   9     37.70    2.10  0. 1.0000     0. 
  -4   2  -9     38.10    1.90  0. 1.0000     0. 
  -5  -2  -9    228.18    7.40  0. 1.0000     0. 
   5  -2   9    233.58    7.80  0. 1.0000     0. 
   5  -2   9    232.58    7.60  0. 1.0000     0. 
  -5   2  -9    242.48    7.40  0. 1.0000     0. 
   5   2   9    226.88    7.50  0. 1.0000     0. 
   6  -2   9    334.37   10.70  0. 1.0000     0. 
   6  -2   9    338.37   10.80  0. 1.0000     0. 
  -6  -2  -9    344.77   10.70  0. 1.0000     0. 
   6   2   9    340.97   10.90  0. 1.0000     0. 
  -6   2  -9    352.46   10.50  0. 1.0000     0. 
   7  -2   9     33.00    2.20  0. 1.0000     0. 
   7  -2   9     27.00    2.20  0. 1.0000     0. 
  -7   2  -9     31.80    2.20  0. 1.0000     0. 
   8  -3  -9     34.50    2.70  0. 1.0000     0. 
  -8  -3   9     33.50    2.40  0. 1.0000     0. 
  -8   3   9     34.10    2.30  0. 1.0000     0. 
   8   3  -9     37.60    2.40  0. 1.0000     0. 
  -7  -3   9    331.67   10.60  0. 1.0000     0. 
   7  -3  -9    331.87   10.90  0. 1.0000     0. 
   7   3  -9    336.77   10.30  0. 1.0000     0. 
  -7   3   9    335.17   10.30  0. 1.0000     0. 
   6  -3  -9     79.19    3.80  0. 1.0000     0. 
  -6  -3   9     71.59    3.30  0. 1.0000     0. 
  -6   3   9     74.29    3.10  0. 1.0000     0. 
   6   3  -9     72.99    3.40  0. 1.0000     0. 
  -5  -3   9      7.90    1.20  0. 1.0000     0. 
  -5  -3   9      9.40    1.30  0. 1.0000     0. 
   5  -3  -9      6.60    1.20  0. 1.0000     0. 
  -5   3   9      7.40    1.10  0. 1.0000     0. 
   5   3  -9      6.90    1.20  0. 1.0000     0. 
  -5   3   9      5.30    1.00  0. 1.0000     0. 
   4  -3  -9    582.14   17.70  0. 1.0000     0. 
  -4  -3   9    590.14   17.30  0. 1.0000     0. 
  -4  -3   9    593.84   17.20  0. 1.0000     0. 
  -4   3   9    576.24   16.90  0. 1.0000     0. 
  -4   3   9    619.84   17.00  0. 1.0000     0. 
   4   3  -9    607.94   17.40  0. 1.0000     0. 
  -3  -3   9     16.10    1.50  0. 1.0000     0. 
   3  -3  -9     14.10    1.80  0. 1.0000     0. 
  -3  -3   9     16.60    1.40  0. 1.0000     0. 
   3   3  -9     13.00    1.70  0. 1.0000     0. 
  -3   3   9     17.90    1.50  0. 1.0000     0. 
   2  -3  -9    724.83   21.20  0. 1.0000     0. 
  -2  -3   9    723.63   20.90  0. 1.0000     0. 
  -2  -3   9    732.53   20.70  0. 1.0000     0. 
   2   3  -9    701.13   20.90  0. 1.0000     0. 
  -2   3   9    757.62   20.80  0. 1.0000     0. 
   1  -3  -9     54.59    2.80  0. 1.0000     0. 
  -1  -3   9     52.49    2.60  0. 1.0000     0. 
  -1  -3   9     43.00    2.90  0. 1.0000     0. 
  -1   3   9     52.99    2.60  0. 1.0000     0. 
   0  -3  -9     13.50    1.70  0. 1.0000     0. 
   0  -3   9     10.30    1.30  0. 1.0000     0. 
   0  -3   9     11.90    1.40  0. 1.0000     0. 
   0   3   9     11.30    1.40  0. 1.0000     0. 
   1  -3   9    613.44   18.20  0. 1.0000     0. 
   1  -3   9    610.04   18.00  0. 1.0000     0. 
  -1  -3  -9    648.34   18.30  0. 1.0000     0. 
   1   3   9    608.24   18.10  0. 1.0000     0. 
  -2  -3  -9      3.50    1.00  0. 1.0000     0. 
   2  -3   9      4.20    0.90  0. 1.0000     0. 
   2  -3   9      2.90    0.90  0. 1.0000     0. 
   2   3   9      2.10    1.00  0. 1.0000     0. 
   3  -3   9      8.60    1.40  0. 1.0000     0. 
   3  -3   9      8.70    1.40  0. 1.0000     0. 
   3   3   9      8.60    1.50  0. 1.0000     0. 
  -3   3  -9      8.80    1.20  0. 1.0000     0. 
   4  -3   9    418.06   13.20  0. 1.0000     0. 
   4  -3   9    428.06   13.10  0. 1.0000     0. 
   4   3   9    407.76   13.10  0. 1.0000     0. 
  -4   3  -9    447.16   12.60  0. 1.0000     0. 
   5  -3   9      6.10    1.20  0. 1.0000     0. 
   5  -3   9      5.50    1.20  0. 1.0000     0. 
   5   3   9      5.80    1.30  0. 1.0000     0. 
   3  -4  -9    596.54   18.10  0. 1.0000     0. 
  -3  -4   9    574.04   17.60  0. 1.0000     0. 
  -3   4   9    618.24   17.50  0. 1.0000     0. 
   3   4  -9    597.04   17.80  0. 1.0000     0. 
  -2  -4   9      4.80    1.10  0. 1.0000     0. 
   2  -4  -9      5.70    1.30  0. 1.0000     0. 
   2   4  -9      4.50    1.30  0. 1.0000     0. 
  -2   4   9      8.70    1.60  0. 1.0000     0. 
  -1  -4   9     47.80    2.80  0. 1.0000     0. 
   1  -4  -9     46.10    2.90  0. 1.0000     0. 
   1   4  -9     47.20    2.90  0. 1.0000     0. 
  -1   4   9     47.10    2.80  0. 1.0000     0. 
   0  -4   9    187.58    6.80  0. 1.0000     0. 
   0   4   9    187.88    6.80  0. 1.0000     0. 
 -11   0  10     41.80    2.20  0. 1.0000     0. 
  11   0 -10     41.70    2.20  0. 1.0000     0. 
  10   0 -10    548.75   15.00  0. 1.0000     0. 
 -10   0  10    520.05   15.10  0. 1.0000     0. 
 -10   0  10    512.85   15.10  0. 1.0000     0. 
  -9   0  10   1112.39   31.10  0. 1.0000     0. 
  -9   0  10   1107.69   31.10  0. 1.0000     0. 
   9   0 -10   1152.18   30.90  0. 1.0000     0. 
  -8   0  10     11.50    1.10  0. 1.0000     0. 
   8   0 -10     12.40    0.90  0. 1.0000     0. 
  -8   0  10     14.10    1.00  0. 1.0000     0. 
  -7   0  10    782.82   22.00  0. 1.0000     0. 
   7   0 -10    805.32   21.90  0. 1.0000     0. 
  -7   0  10    798.12   22.20  0. 1.0000     0. 
   6   0 -10      9.40    1.00  0. 1.0000     0. 
  -6   0  10      8.20    0.90  0. 1.0000     0. 
   6   0 -10      8.90    0.70  0. 1.0000     0. 
  -6   0  10      7.80    0.70  0. 1.0000     0. 
   5   0 -10      1.00    0.50  0. 1.0000     0. 
   5   0 -10      1.10    0.30  0. 1.0000     0. 
  -5   0  10      1.00    0.30  0. 1.0000     0. 
  -5   0  10      0.70    0.40  0. 1.0000     0. 
  -3   0  10   4528.85  123.39  0. 1.0000     0. 
  -3   0  10   4423.86  123.99  0. 1.0000     0. 
   3   0 -10   4521.85  124.19  0. 1.0000     0. 
   3   0 -10   4722.33  123.29  0. 1.0000     0. 
   2   0 -10     65.09    2.10  0. 1.0000     0. 
  -2   0  10     67.69    2.20  0. 1.0000     0. 
  -2   0  10     64.89    2.30  0. 1.0000     0. 
   2   0 -10     63.59    2.40  0. 1.0000     0. 
  -1   0  10    874.11   24.10  0. 1.0000     0. 
   1   0 -10    870.81   24.20  0. 1.0000     0. 
  -1   0  10    894.01   24.00  0. 1.0000     0. 
  -1   0  10    860.51   23.90  0. 1.0000     0. 
   0   0  10   4147.79  118.49  0. 1.0000     0. 
   0   0 -10   4383.46  119.19  0. 1.0000     0. 
   0   0  10   4501.65  118.49  0. 1.0000     0. 
   0   0  10   4390.56  118.89  0. 1.0000     0. 
   1   0  10   1656.53   45.80  0. 1.0000     0. 
   1   0  10   1762.62   46.10  0. 1.0000     0. 
  -1   0 -10   1688.23   46.10  0. 1.0000     0. 
   1   0  10   1637.14   45.90  0. 1.0000     0. 
   2   0  10    236.58    6.80  0. 1.0000     0. 
  -2   0 -10    238.98    7.20  0. 1.0000     0. 
   2   0  10    244.68    7.20  0. 1.0000     0. 
   2   0  10    235.28    7.00  0. 1.0000     0. 
   3   0  10   1463.45   40.00  0. 1.0000     0. 
  -3   0 -10   1434.66   40.10  0. 1.0000     0. 
   3   0  10   1484.85   40.10  0. 1.0000     0. 
  -4   0 -10    449.36   13.20  0. 1.0000     0. 
   4   0  10    463.45   13.10  0. 1.0000     0. 
   5   0  10    722.33   20.10  0. 1.0000     0. 
  -5   0 -10    698.63   20.10  0. 1.0000     0. 
   6   0  10     79.69    3.10  0. 1.0000     0. 
  -6   0 -10     75.39    3.10  0. 1.0000     0. 
  -7   0 -10    645.64   18.60  0. 1.0000     0. 
   7   0  10    647.54   18.70  0. 1.0000     0. 
  -8   0 -10    643.44   18.60  0. 1.0000     0. 
   8   0  10    638.24   18.70  0. 1.0000     0. 
 -11  -1  10      4.80    1.10  0. 1.0000     0. 
 -10  -1  10    280.77    8.60  0. 1.0000     0. 
 -10  -1  10    281.37    8.80  0. 1.0000     0. 
  10   1 -10    289.57    8.50  0. 1.0000     0. 
 -10   1  10    281.97    8.70  0. 1.0000     0. 
  -9  -1  10      5.50    0.90  0. 1.0000     0. 
  -9  -1  10      4.10    0.80  0. 1.0000     0. 
   9  -1 -10      4.40    0.90  0. 1.0000     0. 
   9   1 -10      4.90    0.90  0. 1.0000     0. 
  -8  -1  10    376.56   11.20  0. 1.0000     0. 
   8  -1 -10    384.46   11.80  0. 1.0000     0. 
  -8  -1  10    393.16   11.30  0. 1.0000     0. 
  -8   1  10    386.66   11.00  0. 1.0000     0. 
  -8   1  10    380.36   11.30  0. 1.0000     0. 
   8   1 -10    394.56   11.10  0. 1.0000     0. 
   7  -1 -10     78.29    3.40  0. 1.0000     0. 
  -7  -1  10     79.39    2.90  0. 1.0000     0. 
  -7  -1  10     81.99    3.00  0. 1.0000     0. 
  -7   1  10     80.29    3.00  0. 1.0000     0. 
   7   1 -10     82.99    2.90  0. 1.0000     0. 
  -7   1  10     78.69    2.70  0. 1.0000     0. 
   6  -1 -10    209.08    7.00  0. 1.0000     0. 
  -6  -1  10    222.38    6.60  0. 1.0000     0. 
  -6  -1  10    204.58    6.50  0. 1.0000     0. 
   6   1 -10    223.98    6.50  0. 1.0000     0. 
  -6   1  10    224.18    6.60  0. 1.0000     0. 
  -6   1  10    207.98    6.30  0. 1.0000     0. 
  -5  -1  10   1023.70   28.00  0. 1.0000     0. 
  -5  -1  10   1000.60   27.80  0. 1.0000     0. 
   5  -1 -10    986.70   28.30  0. 1.0000     0. 
   5   1 -10   1055.69   27.90  0. 1.0000     0. 
  -5   1  10    973.20   27.70  0. 1.0000     0. 
  -5   1  10   1019.40   27.90  0. 1.0000     0. 
   4  -1 -10   1186.28   34.40  0. 1.0000     0. 
  -4  -1  10   1308.97   33.90  0. 1.0000     0. 
  -4  -1  10   1258.97   34.10  0. 1.0000     0. 
   4   1 -10   1283.27   34.00  0. 1.0000     0. 
  -4   1  10   1182.58   33.90  0. 1.0000     0. 
  -4   1  10   1207.38   33.80  0. 1.0000     0. 
  -3  -1  10      3.70    0.50  0. 1.0000     0. 
   3  -1 -10      3.00    0.70  0. 1.0000     0. 
  -3  -1  10      3.70    0.70  0. 1.0000     0. 
  -3   1  10      3.90    0.60  0. 1.0000     0. 
   3   1 -10      4.70    0.70  0. 1.0000     0. 
  -3   1  10      3.80    0.50  0. 1.0000     0. 
   3   1 -10      4.60    0.70  0. 1.0000     0. 
  -2  -1  10      3.80    0.50  0. 1.0000     0. 
   2  -1 -10      3.70    0.70  0. 1.0000     0. 
  -2  -1  10      3.90    0.70  0. 1.0000     0. 
  -2   1  10      4.10    0.60  0. 1.0000     0. 
   2   1 -10      5.70    0.70  0. 1.0000     0. 
   2   1 -10      3.70    0.60  0. 1.0000     0. 
  -2   1  10      3.70    0.60  0. 1.0000     0. 
   1  -1 -10    102.69    3.80  0. 1.0000     0. 
  -1  -1  10    105.99    3.50  0. 1.0000     0. 
  -1  -1  10    108.39    3.60  0. 1.0000     0. 
  -1  -1  10    107.19    3.30  0. 1.0000     0. 
  -1   1  10    109.09    3.30  0. 1.0000     0. 
   1   1 -10    105.09    3.40  0. 1.0000     0. 
  -1   1  10    106.09    3.40  0. 1.0000     0. 
   0  -1  10   2061.99   57.19  0. 1.0000     0. 
   0  -1  10   2004.80   56.99  0. 1.0000     0. 
   0  -1  10   2063.49   56.69  0. 1.0000     0. 
   0  -1 -10   2093.69   57.29  0. 1.0000     0. 
   0   1  10   2113.19   56.99  0. 1.0000     0. 
   0   1 -10   2033.00   56.89  0. 1.0000     0. 
   0   1  10   2276.37   56.79  0. 1.0000     0. 
   1  -1  10    931.61   26.60  0. 1.0000     0. 
   1  -1  10    957.60   26.50  0. 1.0000     0. 
  -1  -1 -10    977.50   26.60  0. 1.0000     0. 
   1  -1  10    940.61   26.00  0. 1.0000     0. 
   1   1  10    978.30   26.40  0. 1.0000     0. 
  -1   1 -10    943.41   26.30  0. 1.0000     0. 
   2  -1  10    242.48    7.40  0. 1.0000     0. 
  -2  -1 -10    244.18    7.40  0. 1.0000     0. 
   2  -1  10    242.98    7.50  0. 1.0000     0. 
   2   1  10    242.98    7.20  0. 1.0000     0. 
  -2   1 -10    236.08    7.20  0. 1.0000     0. 
   3  -1  10    214.38    6.70  0. 1.0000     0. 
  -3  -1 -10    215.18    6.70  0. 1.0000     0. 
   3  -1  10    209.38    6.80  0. 1.0000     0. 
   3   1  10    213.38    6.50  0. 1.0000     0. 
  -3   1 -10    212.68    6.50  0. 1.0000     0. 
   4  -1  10    706.13   20.50  0. 1.0000     0. 
   4  -1  10    725.43   20.40  0. 1.0000     0. 
  -4  -1 -10    718.23   20.30  0. 1.0000     0. 
   4   1  10    703.83   20.10  0. 1.0000     0. 
  -4   1 -10    736.53   20.30  0. 1.0000     0. 
  -5  -1 -10      7.90    1.20  0. 1.0000     0. 
   5  -1  10      8.60    1.10  0. 1.0000     0. 
   5  -1  10      7.10    1.10  0. 1.0000     0. 
  -5   1 -10      6.50    1.10  0. 1.0000     0. 
  -6  -1 -10     12.20    1.50  0. 1.0000     0. 
   6  -1  10     14.00    1.40  0. 1.0000     0. 
  -6   1 -10     11.80    1.50  0. 1.0000     0. 
   7  -1  10     88.39    3.70  0. 1.0000     0. 
  -7  -1 -10     86.99    3.70  0. 1.0000     0. 
  -7   1 -10     95.79    3.80  0. 1.0000     0. 
   9  -2 -10    394.16   12.30  0. 1.0000     0. 
  -9  -2  10    386.16   11.90  0. 1.0000     0. 
   9   2 -10    392.16   11.50  0. 1.0000     0. 
  -9   2  10    385.46   11.70  0. 1.0000     0. 
   8  -2 -10    311.37   10.20  0. 1.0000     0. 
  -8  -2  10    315.17    9.80  0. 1.0000     0. 
  -8  -2  10    303.57    9.50  0. 1.0000     0. 
  -8   2  10    320.67    9.60  0. 1.0000     0. 
   8   2 -10    322.47    9.50  0. 1.0000     0. 
   7  -2 -10    492.25   15.00  0. 1.0000     0. 
  -7  -2  10    479.55   14.40  0. 1.0000     0. 
  -7  -2  10    506.95   14.60  0. 1.0000     0. 
  -7   2  10    517.35   14.50  0. 1.0000     0. 
  -7   2  10    504.65   14.00  0. 1.0000     0. 
   7   2 -10    486.05   14.40  0. 1.0000     0. 
  -6  -2  10    519.45   15.20  0. 1.0000     0. 
   6  -2 -10    529.85   15.80  0. 1.0000     0. 
  -6  -2  10    517.25   15.20  0. 1.0000     0. 
  -6   2  10    533.35   14.80  0. 1.0000     0. 
   6   2 -10    525.35   15.20  0. 1.0000     0. 
  -6   2  10    539.35   15.10  0. 1.0000     0. 
   5  -2 -10    197.48    6.70  0. 1.0000     0. 
  -5  -2  10    190.38    6.10  0. 1.0000     0. 
  -5  -2  10    187.68    6.20  0. 1.0000     0. 
  -5   2  10    197.28    6.00  0. 1.0000     0. 
  -5   2  10    194.98    5.90  0. 1.0000     0. 
   5   2 -10    195.68    6.20  0. 1.0000     0. 
   4  -2 -10   1702.23   48.50  0. 1.0000     0. 
  -4  -2  10   1786.32   48.00  0. 1.0000     0. 
  -4  -2  10   1788.22   48.10  0. 1.0000     0. 
  -4   2  10   1664.83   47.80  0. 1.0000     0. 
   4   2 -10   1791.92   48.10  0. 1.0000     0. 
  -4   2  10   1761.62   47.80  0. 1.0000     0. 
  -3  -2  10     41.40    2.00  0. 1.0000     0. 
   3  -2 -10     36.10    2.20  0. 1.0000     0. 
  -3  -2  10     41.80    1.80  0. 1.0000     0. 
  -3   2  10     42.30    1.70  0. 1.0000     0. 
   3   2 -10     38.10    2.00  0. 1.0000     0. 
  -3   2  10     42.10    1.80  0. 1.0000     0. 
   2  -2 -10     90.49    3.80  0. 1.0000     0. 
  -2  -2  10     99.89    3.60  0. 1.0000     0. 
  -2  -2  10     97.39    3.30  0. 1.0000     0. 
  -2   2  10     92.19    3.10  0. 1.0000     0. 
  -2   2  10     94.19    3.40  0. 1.0000     0. 
   2   2 -10     96.09    3.60  0. 1.0000     0. 
   1  -2 -10   1627.24   45.80  0. 1.0000     0. 
  -1  -2  10   1652.03   45.50  0. 1.0000     0. 
  -1  -2  10   1659.23   45.60  0. 1.0000     0. 
  -1  -2  10   1707.23   45.20  0. 1.0000     0. 
  -1   2  10   1623.74   45.40  0. 1.0000     0. 
   0  -2  10     68.69    2.60  0. 1.0000     0. 
   0  -2  10     67.09    2.90  0. 1.0000     0. 
   0  -2 -10     70.09    3.00  0. 1.0000     0. 
   0  -2  10     69.29    2.80  0. 1.0000     0. 
   0   2 -10     70.19    2.50  0. 1.0000     0. 
   0   2  10     68.09    2.80  0. 1.0000     0. 
   1  -2  10    120.19    4.40  0. 1.0000     0. 
   1  -2  10    118.49    4.30  0. 1.0000     0. 
  -1  -2 -10    122.29    4.40  0. 1.0000     0. 
  -1   2 -10    120.49    3.90  0. 1.0000     0. 
   1   2  10    119.29    4.20  0. 1.0000     0. 
   2  -2  10     39.70    2.20  0. 1.0000     0. 
   2  -2  10     39.60    2.10  0. 1.0000     0. 
  -2  -2 -10     39.90    2.30  0. 1.0000     0. 
   2   2  10     35.60    2.00  0. 1.0000     0. 
  -2   2 -10     37.30    1.80  0. 1.0000     0. 
   3  -2  10      6.70    1.10  0. 1.0000     0. 
   3  -2  10      8.10    1.20  0. 1.0000     0. 
  -3  -2 -10      8.40    1.30  0. 1.0000     0. 
  -3   2 -10      7.20    1.10  0. 1.0000     0. 
   3   2  10      5.70    1.10  0. 1.0000     0. 
   4  -2  10     13.50    1.40  0. 1.0000     0. 
   4  -2  10      9.90    1.40  0. 1.0000     0. 
  -4  -2 -10     13.10    1.50  0. 1.0000     0. 
   4   2  10     11.60    1.30  0. 1.0000     0. 
   5  -2  10      8.80    1.40  0. 1.0000     0. 
   5  -2  10      6.20    1.10  0. 1.0000     0. 
  -5  -2 -10      5.40    1.10  0. 1.0000     0. 
  -5   2 -10      4.90    1.00  0. 1.0000     0. 
   5   2  10      7.40    1.20  0. 1.0000     0. 
   6  -2  10     72.29    3.50  0. 1.0000     0. 
  -6  -2 -10     74.69    3.40  0. 1.0000     0. 
   6  -2  10     75.29    3.40  0. 1.0000     0. 
  -6   2 -10     75.09    3.30  0. 1.0000     0. 
  -7  -3  10      1.40    0.80  0. 1.0000     0. 
   7  -3 -10      2.10    1.00  0. 1.0000     0. 
   7   3 -10      0.40    0.90  0. 1.0000     0. 
  -7   3  10      1.00    0.90  0. 1.0000     0. 
  -6  -3  10    216.98    7.40  0. 1.0000     0. 
  -6  -3  10    214.48    7.10  0. 1.0000     0. 
   6  -3 -10    217.08    7.80  0. 1.0000     0. 
  -6   3  10    219.88    7.00  0. 1.0000     0. 
   6   3 -10    222.08    7.30  0. 1.0000     0. 
  -6   3  10    220.48    6.70  0. 1.0000     0. 
  -5  -3  10    466.45   14.10  0. 1.0000     0. 
  -5  -3  10    477.25   14.00  0. 1.0000     0. 
   5  -3 -10    489.95   14.60  0. 1.0000     0. 
   5   3 -10    461.85   14.10  0. 1.0000     0. 
  -5   3  10    484.75   13.70  0. 1.0000     0. 
  -5   3  10    459.75   13.70  0. 1.0000     0. 
   4  -3 -10      0.60    0.90  0. 1.0000     0. 
  -4  -3  10      1.90    0.80  0. 1.0000     0. 
  -4  -3  10      1.70    0.70  0. 1.0000     0. 
   4   3 -10     -0.20    0.80  0. 1.0000     0. 
  -4   3  10      1.80    0.80  0. 1.0000     0. 
  -3  -3  10    108.09    4.00  0. 1.0000     0. 
   3  -3 -10     97.79    4.40  0. 1.0000     0. 
  -3  -3  10    104.09    4.10  0. 1.0000     0. 
  -3   3  10    111.29    4.00  0. 1.0000     0. 
   3   3 -10    106.39    4.20  0. 1.0000     0. 
   2  -3 -10    235.98    8.10  0. 1.0000     0. 
  -2  -3  10    247.28    7.90  0. 1.0000     0. 
  -2  -3  10    242.78    7.60  0. 1.0000     0. 
   2   3 -10    233.48    7.90  0. 1.0000     0. 
  -2   3  10    251.27    7.80  0. 1.0000     0. 
  -1  -3  10    175.08    6.10  0. 1.0000     0. 
   1  -3 -10    169.58    6.20  0. 1.0000     0. 
  -1   3  10    180.28    6.00  0. 1.0000     0. 
   0  -3 -10    211.18    7.30  0. 1.0000     0. 
   0  -3  10    211.38    7.20  0. 1.0000     0. 
   0  -3  10    209.68    7.00  0. 1.0000     0. 
   0   3  10    217.18    7.10  0. 1.0000     0. 
  -1  -3 -10     54.69    2.90  0. 1.0000     0. 
   1  -3  10     51.39    2.60  0. 1.0000     0. 
   1  -3  10     51.39    2.80  0. 1.0000     0. 
   1   3  10     54.79    2.80  0. 1.0000     0. 
  -2  -3 -10      0.20    0.70  0. 1.0000     0. 
   2  -3  10      1.20    0.70  0. 1.0000     0. 
   2  -3  10      0.70    0.70  0. 1.0000     0. 
   2   3  10     -1.00    0.70  0. 1.0000     0. 
   3  -3  10      8.00    1.40  0. 1.0000     0. 
   3  -3  10      9.90    1.50  0. 1.0000     0. 
  -3   3 -10      9.90    1.30  0. 1.0000     0. 
   4  -3  10     14.60    1.90  0. 1.0000     0. 
   4  -3  10     11.60    1.60  0. 1.0000     0. 
   4   3  10     11.60    1.80  0. 1.0000     0. 
 -11   0  11     -0.90    0.80  0. 1.0000     0. 
 -10   0  11      0.90    0.60  0. 1.0000     0. 
 -10   0  11      0.00    0.60  0. 1.0000     0. 
  -9   0  11      0.20    0.50  0. 1.0000     0. 
  -9   0  11      0.30    0.60  0. 1.0000     0. 
  -8   0  11      0.40    0.60  0. 1.0000     0. 
  -8   0  11      0.10    0.40  0. 1.0000     0. 
  -7   0  11      0.30    0.40  0. 1.0000     0. 
  -7   0  11      1.60    0.60  0. 1.0000     0. 
  -6   0  11      0.20    0.40  0. 1.0000     0. 
  -6   0  11      0.50    0.40  0. 1.0000     0. 
   5   0 -11      0.80    0.60  0. 1.0000     0. 
  -5   0  11      1.20    0.50  0. 1.0000     0. 
  -4   0  11      1.20    0.40  0. 1.0000     0. 
  -4   0  11      0.70    0.50  0. 1.0000     0. 
   4   0 -11      0.80    0.50  0. 1.0000     0. 
  -3   0  11      0.80    0.30  0. 1.0000     0. 
  -3   0  11      1.20    0.40  0. 1.0000     0. 
   3   0 -11      0.50    0.50  0. 1.0000     0. 
  -2   0  11      0.00    0.20  0. 1.0000     0. 
   2   0 -11      0.20    0.40  0. 1.0000     0. 
  -2   0  11      1.50    0.40  0. 1.0000     0. 
   1   0 -11      0.60    0.50  0. 1.0000     0. 
  -1   0  11      0.00    0.30  0. 1.0000     0. 
  -1   0  11      0.00    0.30  0. 1.0000     0. 
   1   0  11      0.60    0.40  0. 1.0000     0. 
   1   0  11      1.00    0.40  0. 1.0000     0. 
  -2   0 -11      0.20    0.40  0. 1.0000     0. 
   2   0  11      0.10    0.30  0. 1.0000     0. 
   2   0  11     -0.20    0.30  0. 1.0000     0. 
  -3   0 -11     -0.30    0.40  0. 1.0000     0. 
  -4   0 -11     -0.30    0.50  0. 1.0000     0. 
  -5   0 -11      0.60    0.60  0. 1.0000     0. 
  -6   0 -11     -0.80    0.60  0. 1.0000     0. 
  -7   0 -11      0.30    0.80  0. 1.0000     0. 
 -10  -1  11      7.40    1.20  0. 1.0000     0. 
 -10  -1  11      8.40    1.20  0. 1.0000     0. 
  10   1 -11      7.50    1.10  0. 1.0000     0. 
 -10   1  11      6.80    1.30  0. 1.0000     0. 
  -9  -1  11     88.19    3.30  0. 1.0000     0. 
   9  -1 -11     86.49    3.70  0. 1.0000     0. 
  -9  -1  11     83.69    3.30  0. 1.0000     0. 
  -9   1  11     86.79    3.30  0. 1.0000     0. 
  -9   1  11     85.59    3.00  0. 1.0000     0. 
   9   1 -11     90.19    3.10  0. 1.0000     0. 
   8  -1 -11    103.39    4.20  0. 1.0000     0. 
  -8  -1  11    108.39    3.80  0. 1.0000     0. 
  -8  -1  11    106.99    3.80  0. 1.0000     0. 
   8   1 -11    108.89    3.60  0. 1.0000     0. 
  -8   1  11    105.69    3.50  0. 1.0000     0. 
  -8   1  11     98.59    3.70  0. 1.0000     0. 
  -7  -1  11     16.80    1.30  0. 1.0000     0. 
   7  -1 -11     16.40    1.60  0. 1.0000     0. 
  -7  -1  11     17.40    1.20  0. 1.0000     0. 
   7   1 -11     18.60    1.30  0. 1.0000     0. 
  -7   1  11     17.00    1.30  0. 1.0000     0. 
  -7   1  11     17.80    1.00  0. 1.0000     0. 
  -6  -1  11    289.07    8.90  0. 1.0000     0. 
  -6  -1  11    306.37    9.00  0. 1.0000     0. 
   6  -1 -11    302.77    9.40  0. 1.0000     0. 
  -6   1  11    295.47    8.70  0. 1.0000     0. 
   6   1 -11    313.37    8.90  0. 1.0000     0. 
  -6   1  11    305.97    8.90  0. 1.0000     0. 
  -5  -1  11   1735.13   47.90  0. 1.0000     0. 
   5  -1 -11   1732.23   48.40  0. 1.0000     0. 
  -5  -1  11   1794.22   48.10  0. 1.0000     0. 
  -5   1  11   1750.72   47.90  0. 1.0000     0. 
  -5   1  11   1683.33   47.70  0. 1.0000     0. 
   5   1 -11   1823.12   47.90  0. 1.0000     0. 
   4  -1 -11      9.60    1.30  0. 1.0000     0. 
  -4  -1  11     13.00    0.90  0. 1.0000     0. 
  -4  -1  11     12.10    1.10  0. 1.0000     0. 
  -4   1  11     10.40    1.00  0. 1.0000     0. 
   4   1 -11     11.50    1.10  0. 1.0000     0. 
  -4   1  11     13.10    0.90  0. 1.0000     0. 
  -3  -1  11    241.78    6.90  0. 1.0000     0. 
   3  -1 -11    241.78    7.40  0. 1.0000     0. 
  -3  -1  11    234.48    7.10  0. 1.0000     0. 
   3   1 -11    238.08    7.00  0. 1.0000     0. 
   3   1 -11    233.88    7.00  0. 1.0000     0. 
  -3   1  11    227.48    6.90  0. 1.0000     0. 
  -3   1  11    225.78    6.90  0. 1.0000     0. 
  -2  -1  11   2836.22   75.79  0. 1.0000     0. 
  -2  -1  11   2846.52   75.99  0. 1.0000     0. 
   2  -1 -11   2641.34   75.99  0. 1.0000     0. 
  -2   1  11   2837.32   75.49  0. 1.0000     0. 
  -2   1  11   2812.22   75.59  0. 1.0000     0. 
   2   1 -11   2734.23   75.69  0. 1.0000     0. 
   2   1 -11   2781.82   75.59  0. 1.0000     0. 
  -1  -1  11    405.26   11.20  0. 1.0000     0. 
   1  -1 -11    377.96   11.80  0. 1.0000     0. 
  -1  -1  11    402.56   11.50  0. 1.0000     0. 
  -1  -1  11    401.26   11.70  0. 1.0000     0. 
  -1   1  11    416.46   11.30  0. 1.0000     0. 
  -1   1  11    403.86   11.40  0. 1.0000     0. 
   1   1 -11    398.56   11.40  0. 1.0000     0. 
   0  -1 -11    355.46   10.90  0. 1.0000     0. 
   0  -1  11    370.96   10.70  0. 1.0000     0. 
   0  -1  11    359.16   10.80  0. 1.0000     0. 
   0  -1  11    361.96   10.30  0. 1.0000     0. 
   0   1 -11    362.46   10.60  0. 1.0000     0. 
   0   1  11    388.76   10.50  0. 1.0000     0. 
   0   1  11    372.86   10.60  0. 1.0000     0. 
  -1  -1 -11   1054.69   29.60  0. 1.0000     0. 
   1  -1  11   1005.90   29.00  0. 1.0000     0. 
   1  -1  11   1048.90   29.50  0. 1.0000     0. 
   1  -1  11   1094.89   29.50  0. 1.0000     0. 
   1   1  11   1096.89   29.30  0. 1.0000     0. 
  -1   1 -11   1063.19   29.30  0. 1.0000     0. 
  -2  -1 -11    481.05   14.20  0. 1.0000     0. 
   2  -1  11    477.75   14.20  0. 1.0000     0. 
   2  -1  11    497.05   14.10  0. 1.0000     0. 
   2   1  11    496.15   13.90  0. 1.0000     0. 
  -2   1 -11    495.05   14.00  0. 1.0000     0. 
   3  -1  11    201.08    6.60  0. 1.0000     0. 
  -3  -1 -11    201.28    6.60  0. 1.0000     0. 
   3  -1  11    204.68    6.50  0. 1.0000     0. 
   3   1  11    205.68    6.30  0. 1.0000     0. 
  -3   1 -11    211.88    6.40  0. 1.0000     0. 
   4  -1  11     71.19    2.90  0. 1.0000     0. 
   4  -1  11     69.09    3.00  0. 1.0000     0. 
  -4  -1 -11     71.29    3.00  0. 1.0000     0. 
  -4   1 -11     73.49    2.90  0. 1.0000     0. 
   5  -1  11    103.59    3.90  0. 1.0000     0. 
   5  -1  11     98.59    4.00  0. 1.0000     0. 
  -5  -1 -11    101.19    3.90  0. 1.0000     0. 
  -5   1 -11    104.99    3.90  0. 1.0000     0. 
   6  -1  11     38.60    2.20  0. 1.0000     0. 
  -6  -1 -11     36.40    2.30  0. 1.0000     0. 
  -6   1 -11     39.40    2.30  0. 1.0000     0. 
  -7  -1 -11      1.60    0.90  0. 1.0000     0. 
   7  -1  11      1.30    0.80  0. 1.0000     0. 
  -7   1 -11      1.00    0.80  0. 1.0000     0. 
   9  -2 -11    123.69    5.10  0. 1.0000     0. 
  -9  -2  11    126.19    4.80  0. 1.0000     0. 
  -9  -2  11    119.99    4.60  0. 1.0000     0. 
   9   2 -11    130.69    4.40  0. 1.0000     0. 
  -9   2  11    121.49    4.60  0. 1.0000     0. 
  -8  -2  11      4.40    0.90  0. 1.0000     0. 
   8  -2 -11      4.70    1.10  0. 1.0000     0. 
  -8   2  11      7.60    1.30  0. 1.0000     0. 
  -8   2  11      6.10    0.90  0. 1.0000     0. 
   8   2 -11      8.10    1.30  0. 1.0000     0. 
  -7  -2  11      7.20    1.10  0. 1.0000     0. 
   7  -2 -11      9.30    1.60  0. 1.0000     0. 
  -7  -2  11      9.40    1.20  0. 1.0000     0. 
  -7   2  11      8.70    1.30  0. 1.0000     0. 
   7   2 -11      8.20    1.30  0. 1.0000     0. 
  -7   2  11      5.60    0.80  0. 1.0000     0. 
   6  -2 -11    884.81   25.20  0. 1.0000     0. 
  -6  -2  11    841.82   24.60  0. 1.0000     0. 
  -6  -2  11    858.61   24.60  0. 1.0000     0. 
  -6   2  11    884.21   24.40  0. 1.0000     0. 
   6   2 -11    889.51   24.60  0. 1.0000     0. 
  -6   2  11    881.81   24.20  0. 1.0000     0. 
  -5  -2  11    134.69    4.50  0. 1.0000     0. 
  -5  -2  11    133.19    4.60  0. 1.0000     0. 
   5  -2 -11    132.59    5.10  0. 1.0000     0. 
  -5   2  11    131.39    4.40  0. 1.0000     0. 
   5   2 -11    134.29    4.70  0. 1.0000     0. 
  -5   2  11    137.89    4.40  0. 1.0000     0. 
  -4  -2  11    422.76   12.20  0. 1.0000     0. 
  -4  -2  11    419.96   12.00  0. 1.0000     0. 
   4  -2 -11    400.96   12.50  0. 1.0000     0. 
  -4   2  11    382.56   11.70  0. 1.0000     0. 
  -4   2  11    422.76   11.90  0. 1.0000     0. 
   4   2 -11    423.56   12.20  0. 1.0000     0. 
  -3  -2  11    297.37    8.90  0. 1.0000     0. 
  -3  -2  11    305.47    8.60  0. 1.0000     0. 
   3  -2 -11    265.47    9.10  0. 1.0000     0. 
   3   2 -11    301.87    8.90  0. 1.0000     0. 
  -3   2  11    287.57    8.60  0. 1.0000     0. 
  -3   2  11    280.07    8.40  0. 1.0000     0. 
  -2  -2  11    139.39    4.30  0. 1.0000     0. 
   2  -2 -11    127.59    4.90  0. 1.0000     0. 
  -2  -2  11    133.39    4.70  0. 1.0000     0. 
  -2   2  11    132.79    4.50  0. 1.0000     0. 
   2   2 -11    135.39    4.70  0. 1.0000     0. 
  -1  -2  11   1633.34   45.50  0. 1.0000     0. 
   1  -2 -11   1602.64   45.70  0. 1.0000     0. 
  -1  -2  11   1673.43   45.00  0. 1.0000     0. 
  -1  -2  11   1683.83   45.40  0. 1.0000     0. 
  -1   2  11   1638.74   45.30  0. 1.0000     0. 
   0  -2 -11    147.99    5.30  0. 1.0000     0. 
   0  -2  11    149.39    5.10  0. 1.0000     0. 
   0  -2  11    151.88    5.20  0. 1.0000     0. 
   0   2 -11    151.08    4.70  0. 1.0000     0. 
   0   2  11    146.19    5.00  0. 1.0000     0. 
  -1  -2 -11     37.50    2.30  0. 1.0000     0. 
   1  -2  11     40.70    2.20  0. 1.0000     0. 
  -1   2 -11     38.40    1.80  0. 1.0000     0. 
   1   2  11     35.50    2.00  0. 1.0000     0. 
   2  -2  11    773.22   21.70  0. 1.0000     0. 
   2  -2  11    729.33   21.40  0. 1.0000     0. 
  -2  -2 -11    753.32   21.60  0. 1.0000     0. 
   2   2  11    740.13   21.40  0. 1.0000     0. 
  -2   2 -11    762.12   21.10  0. 1.0000     0. 
  -3  -2 -11     30.30    2.00  0. 1.0000     0. 
   3  -2  11     27.90    2.00  0. 1.0000     0. 
   3  -2  11     25.60    1.80  0. 1.0000     0. 
   3   2  11     26.50    1.80  0. 1.0000     0. 
  -3   2 -11     26.10    1.60  0. 1.0000     0. 
  -4  -2 -11     50.69    2.60  0. 1.0000     0. 
   4  -2  11     50.39    2.60  0. 1.0000     0. 
   4  -2  11     45.50    2.70  0. 1.0000     0. 
   4   2  11     49.40    2.50  0. 1.0000     0. 
  -4   2 -11     54.49    2.40  0. 1.0000     0. 
  -5  -2 -11     33.20    2.20  0. 1.0000     0. 
   5  -2  11     29.70    2.30  0. 1.0000     0. 
   5  -2  11     32.60    2.20  0. 1.0000     0. 
  -5   2 -11     33.80    2.10  0. 1.0000     0. 
   5   2  11     31.90    2.10  0. 1.0000     0. 
  -6  -2 -11      4.30    1.10  0. 1.0000     0. 
   6  -2  11      4.30    1.10  0. 1.0000     0. 
  -6   2 -11      3.90    1.00  0. 1.0000     0. 
  -7  -3  11    166.68    6.00  0. 1.0000     0. 
   7  -3 -11    163.48    6.40  0. 1.0000     0. 
   7   3 -11    165.88    5.90  0. 1.0000     0. 
  -7   3  11    164.88    5.70  0. 1.0000     0. 
   6  -3 -11    213.58    7.70  0. 1.0000     0. 
  -6  -3  11    215.18    7.20  0. 1.0000     0. 
  -6  -3  11    207.18    7.10  0. 1.0000     0. 
   6   3 -11    210.58    7.20  0. 1.0000     0. 
  -6   3  11    223.18    6.70  0. 1.0000     0. 
  -6   3  11    211.58    6.90  0. 1.0000     0. 
   5  -3 -11    147.89    5.70  0. 1.0000     0. 
  -5  -3  11    134.99    5.10  0. 1.0000     0. 
  -5  -3  11    142.09    5.10  0. 1.0000     0. 
  -5   3  11    140.79    4.70  0. 1.0000     0. 
  -5   3  11    133.29    5.20  0. 1.0000     0. 
   5   3 -11    139.99    5.20  0. 1.0000     0. 
   4  -3 -11     40.60    2.70  0. 1.0000     0. 
  -4  -3  11     38.30    2.30  0. 1.0000     0. 
  -4  -3  11     38.20    2.20  0. 1.0000     0. 
  -4   3  11     42.60    2.10  0. 1.0000     0. 
   4   3 -11     37.60    2.40  0. 1.0000     0. 
   3  -3 -11    311.97   10.30  0. 1.0000     0. 
  -3  -3  11    315.07    9.70  0. 1.0000     0. 
  -3  -3  11    320.07    9.90  0. 1.0000     0. 
   3   3 -11    308.37    9.90  0. 1.0000     0. 
  -3   3  11    325.27    9.70  0. 1.0000     0. 
  -2  -3  11    108.39    4.00  0. 1.0000     0. 
   2  -3 -11    105.39    4.60  0. 1.0000     0. 
  -2  -3  11    108.99    4.40  0. 1.0000     0. 
   2   3 -11    113.39    4.40  0. 1.0000     0. 
  -2   3  11    116.29    4.20  0. 1.0000     0. 
  -1  -3  11      3.50    1.00  0. 1.0000     0. 
   1  -3 -11      2.70    1.00  0. 1.0000     0. 
  -1   3  11      4.50    1.00  0. 1.0000     0. 
   0  -3  11     60.29    2.90  0. 1.0000     0. 
   0  -3  11     62.49    3.10  0. 1.0000     0. 
   0  -3 -11     58.49    3.20  0. 1.0000     0. 
   0   3  11     63.49    3.00  0. 1.0000     0. 
   1  -3  11      0.70    0.60  0. 1.0000     0. 
   1  -3  11      1.50    0.80  0. 1.0000     0. 
   1   3  11      0.60    0.80  0. 1.0000     0. 
   2  -3  11      9.30    1.40  0. 1.0000     0. 
  -2  -3 -11      9.20    1.80  0. 1.0000     0. 
   2  -3  11      9.40    1.60  0. 1.0000     0. 
   2   3  11     10.00    1.60  0. 1.0000     0. 
  -3  -3 -11    334.77   10.70  0. 1.0000     0. 
   3  -3  11    322.57   10.60  0. 1.0000     0. 
   3  -3  11    331.47   10.80  0. 1.0000     0. 
   3   3  11    334.47   10.70  0. 1.0000     0. 
  -3   3 -11    345.77   10.30  0. 1.0000     0. 
 -10   0  12    929.81   26.60  0. 1.0000     0. 
 -10   0  12    970.10   26.60  0. 1.0000     0. 
  -9   0  12      7.50    0.90  0. 1.0000     0. 
  -9   0  12      7.60    1.10  0. 1.0000     0. 
  -8   0  12     63.19    2.40  0. 1.0000     0. 
  -8   0  12     63.09    2.60  0. 1.0000     0. 
  -7   0  12   3264.97   86.39  0. 1.0000     0. 
  -7   0  12   3098.79   86.49  0. 1.0000     0. 
   6   0 -12     36.50    1.90  0. 1.0000     0. 
  -6   0  12     33.80    1.70  0. 1.0000     0. 
  -6   0  12     36.20    1.50  0. 1.0000     0. 
  -5   0  12    846.72   22.80  0. 1.0000     0. 
   5   0 -12    825.12   23.10  0. 1.0000     0. 
  -5   0  12    782.72   22.60  0. 1.0000     0. 
  -4   0  12   5181.38  146.69  0. 1.0000     0. 
  -4   0  12   5583.24  145.69  0. 1.0000     0. 
   4   0 -12   5365.66  146.99  0. 1.0000     0. 
  -3   0  12    463.45   13.40  0. 1.0000     0. 
  -3   0  12    477.55   13.20  0. 1.0000     0. 
   3   0 -12    469.75   13.60  0. 1.0000     0. 
   2   0 -12   1604.74   44.30  0. 1.0000     0. 
  -2   0  12   1580.64   44.10  0. 1.0000     0. 
  -2   0  12   1644.44   43.80  0. 1.0000     0. 
  -1   0  12    177.18    5.10  0. 1.0000     0. 
   1   0 -12    171.68    5.50  0. 1.0000     0. 
  -1   0  12    170.18    5.40  0. 1.0000     0. 
   0   0 -12   1939.11   53.79  0. 1.0000     0. 
   0   0  12   1971.00   53.39  0. 1.0000     0. 
   0   0  12   1987.80   53.69  0. 1.0000     0. 
  -1   0 -12   2381.66   66.59  0. 1.0000     0. 
   1   0  12   2442.26   66.09  0. 1.0000     0. 
   1   0  12   2493.15   66.49  0. 1.0000     0. 
  -2   0 -12     13.50    1.20  0. 1.0000     0. 
   2   0  12     15.30    0.80  0. 1.0000     0. 
  -3   0 -12      0.50    0.50  0. 1.0000     0. 
  -4   0 -12      3.00    0.70  0. 1.0000     0. 
  -5   0 -12    187.28    6.20  0. 1.0000     0. 
  -6   0 -12     -0.40    0.70  0. 1.0000     0. 
 -10  -1  12    255.27    8.30  0. 1.0000     0. 
 -10  -1  12    272.17    8.40  0. 1.0000     0. 
 -10   1  12    261.07    8.30  0. 1.0000     0. 
  10   1 -12    276.27    8.00  0. 1.0000     0. 
  -9  -1  12      3.60    0.80  0. 1.0000     0. 
  -9  -1  12      5.10    1.00  0. 1.0000     0. 
   9  -1 -12      2.10    1.20  0. 1.0000     0. 
  -9   1  12      4.10    0.70  0. 1.0000     0. 
   9   1 -12      3.30    0.70  0. 1.0000     0. 
  -9   1  12      5.00    0.90  0. 1.0000     0. 
   8  -1 -12    398.86   12.30  0. 1.0000     0. 
  -8  -1  12    383.76   11.80  0. 1.0000     0. 
  -8  -1  12    404.16   11.80  0. 1.0000     0. 
  -8   1  12    391.86   11.80  0. 1.0000     0. 
  -8   1  12    405.46   11.50  0. 1.0000     0. 
   8   1 -12    425.76   11.60  0. 1.0000     0. 
  -7  -1  12     37.70    2.00  0. 1.0000     0. 
   7  -1 -12     37.80    2.30  0. 1.0000     0. 
  -7  -1  12     39.60    1.90  0. 1.0000     0. 
   7   1 -12     39.50    1.80  0. 1.0000     0. 
  -7   1  12     40.90    1.70  0. 1.0000     0. 
  -7   1  12     44.20    2.00  0. 1.0000     0. 
  -6  -1  12    985.30   28.40  0. 1.0000     0. 
  -6  -1  12    998.80   28.30  0. 1.0000     0. 
   6  -1 -12   1022.00   28.90  0. 1.0000     0. 
  -6   1  12   1036.50   28.30  0. 1.0000     0. 
  -6   1  12   1027.50   28.10  0. 1.0000     0. 
   6   1 -12   1053.39   28.20  0. 1.0000     0. 
   5  -1 -12    332.37   10.30  0. 1.0000     0. 
  -5  -1  12    327.77    9.70  0. 1.0000     0. 
  -5  -1  12    331.57    9.90  0. 1.0000     0. 
  -5   1  12    333.97    9.60  0. 1.0000     0. 
   5   1 -12    341.77    9.80  0. 1.0000     0. 
  -5   1  12    343.47    9.80  0. 1.0000     0. 
   4  -1 -12    200.58    6.60  0. 1.0000     0. 
  -4  -1  12    212.08    6.10  0. 1.0000     0. 
  -4  -1  12    203.98    6.30  0. 1.0000     0. 
  -4   1  12    196.08    6.10  0. 1.0000     0. 
  -4   1  12    194.88    6.00  0. 1.0000     0. 
   4   1 -12    199.78    6.10  0. 1.0000     0. 
  -3  -1  12   2812.12   75.99  0. 1.0000     0. 
   3  -1 -12   2673.83   76.29  0. 1.0000     0. 
  -3  -1  12   2867.01   76.39  0. 1.0000     0. 
  -3   1  12   2727.53   75.69  0. 1.0000     0. 
   3   1 -12   2848.52   75.79  0. 1.0000     0. 
  -3   1  12   2696.93   75.69  0. 1.0000     0. 
   3   1 -12   2898.81   75.89  0. 1.0000     0. 
   2  -1 -12    812.52   24.20  0. 1.0000     0. 
  -2  -1  12    872.91   23.60  0. 1.0000     0. 
  -2  -1  12    863.31   24.00  0. 1.0000     0. 
   2   1 -12    838.42   23.80  0. 1.0000     0. 
  -2   1  12    896.61   23.70  0. 1.0000     0. 
  -2   1  12    852.01   23.70  0. 1.0000     0. 
   2   1 -12    867.21   23.80  0. 1.0000     0. 
  -1  -1  12     73.09    2.80  0. 1.0000     0. 
   1  -1 -12     66.29    3.00  0. 1.0000     0. 
  -1  -1  12     75.49    2.70  0. 1.0000     0. 
  -1  -1  12     72.39    2.40  0. 1.0000     0. 
   1   1 -12     73.59    2.70  0. 1.0000     0. 
  -1   1  12     71.49    2.60  0. 1.0000     0. 
  -1   1  12     74.89    2.60  0. 1.0000     0. 
   0  -1 -12    729.43   21.50  0. 1.0000     0. 
   0  -1  12    777.02   21.20  0. 1.0000     0. 
   0  -1  12    753.92   20.80  0. 1.0000     0. 
   0  -1  12    738.33   21.30  0. 1.0000     0. 
   0   1 -12    768.42   21.10  0. 1.0000     0. 
   0   1  12    768.72   21.10  0. 1.0000     0. 
   1  -1  12     92.79    3.40  0. 1.0000     0. 
  -1  -1 -12    101.49    3.70  0. 1.0000     0. 
   1  -1  12     91.39    3.50  0. 1.0000     0. 
   1   1  12     96.29    3.30  0. 1.0000     0. 
  -1   1 -12     92.79    3.40  0. 1.0000     0. 
   2  -1  12   1035.80   30.10  0. 1.0000     0. 
  -2  -1 -12   1063.19   30.10  0. 1.0000     0. 
   2  -1  12   1092.59   30.00  0. 1.0000     0. 
  -2   1 -12   1106.49   29.80  0. 1.0000     0. 
   2   1  12   1073.79   29.70  0. 1.0000     0. 
   3  -1  12     43.50    2.10  0. 1.0000     0. 
  -3  -1 -12     42.30    2.20  0. 1.0000     0. 
   3  -1  12     39.90    2.20  0. 1.0000     0. 
   3   1  12     44.40    1.90  0. 1.0000     0. 
  -3   1 -12     45.70    2.10  0. 1.0000     0. 
   4  -1  12     69.99    2.90  0. 1.0000     0. 
   4  -1  12     63.99    3.00  0. 1.0000     0. 
  -4  -1 -12     69.59    3.00  0. 1.0000     0. 
  -4   1 -12     69.09    2.90  0. 1.0000     0. 
  -5  -1 -12    123.49    4.70  0. 1.0000     0. 
   5  -1  12    127.39    4.70  0. 1.0000     0. 
  -5   1 -12    128.89    4.60  0. 1.0000     0. 
   6  -1  12    238.88    7.90  0. 1.0000     0. 
  -6  -1 -12    237.38    7.90  0. 1.0000     0. 
  -6   1 -12    246.08    7.80  0. 1.0000     0. 
  -9  -2  12     63.69    3.00  0. 1.0000     0. 
  -9  -2  12     58.09    2.80  0. 1.0000     0. 
   9  -2 -12     62.59    3.40  0. 1.0000     0. 
  -9   2  12     62.59    2.90  0. 1.0000     0. 
   9   2 -12     65.09    2.80  0. 1.0000     0. 
  -8  -2  12    208.88    6.90  0. 1.0000     0. 
  -8  -2  12    209.98    6.90  0. 1.0000     0. 
   8  -2 -12    208.88    7.40  0. 1.0000     0. 
   8   2 -12    211.08    6.70  0. 1.0000     0. 
  -8   2  12    209.38    6.80  0. 1.0000     0. 
  -8   2  12    209.98    6.30  0. 1.0000     0. 
  -7  -2  12     61.79    2.80  0. 1.0000     0. 
   7  -2 -12     59.49    3.20  0. 1.0000     0. 
  -7  -2  12     64.49    2.80  0. 1.0000     0. 
  -7   2  12     62.29    2.70  0. 1.0000     0. 
  -7   2  12     66.89    2.40  0. 1.0000     0. 
   7   2 -12     63.39    2.80  0. 1.0000     0. 
   6  -2 -12      0.10    0.70  0. 1.0000     0. 
  -6  -2  12      1.70    0.70  0. 1.0000     0. 
  -6  -2  12      2.10    0.70  0. 1.0000     0. 
   6   2 -12      2.60    0.80  0. 1.0000     0. 
  -6   2  12      1.50    0.70  0. 1.0000     0. 
  -5  -2  12      1.20    0.60  0. 1.0000     0. 
  -5  -2  12      0.70    0.60  0. 1.0000     0. 
   5  -2 -12      0.50    0.70  0. 1.0000     0. 
   5   2 -12      0.40    0.70  0. 1.0000     0. 
  -5   2  12      1.70    0.60  0. 1.0000     0. 
  -5   2  12      0.70    0.60  0. 1.0000     0. 
   4  -2 -12     38.60    2.40  0. 1.0000     0. 
  -4  -2  12     38.60    1.90  0. 1.0000     0. 
  -4  -2  12     38.60    2.10  0. 1.0000     0. 
   4   2 -12     36.20    2.10  0. 1.0000     0. 
  -4   2  12     46.30    1.90  0. 1.0000     0. 
  -4   2  12     37.70    1.80  0. 1.0000     0. 
  -3  -2  12    603.74   17.70  0. 1.0000     0. 
   3  -2 -12    593.94   18.10  0. 1.0000     0. 
  -3  -2  12    629.54   17.40  0. 1.0000     0. 
  -3   2  12    623.64   17.30  0. 1.0000     0. 
   3   2 -12    627.64   17.70  0. 1.0000     0. 
  -3   2  12    616.94   17.50  0. 1.0000     0. 
  -2  -2  12     48.00    2.00  0. 1.0000     0. 
  -2  -2  12     45.90    2.30  0. 1.0000     0. 
   2  -2 -12     44.80    2.60  0. 1.0000     0. 
   2   2 -12     46.50    2.30  0. 1.0000     0. 
  -2   2  12     47.10    2.10  0. 1.0000     0. 
  -1  -2  12    649.04   19.10  0. 1.0000     0. 
  -1  -2  12    676.73   18.50  0. 1.0000     0. 
   1  -2 -12    646.94   19.30  0. 1.0000     0. 
  -1  -2  12    682.23   19.00  0. 1.0000     0. 
  -1   2  12    654.73   18.80  0. 1.0000     0. 
   0  -2  12     14.50    1.40  0. 1.0000     0. 
   0  -2 -12     15.00    1.70  0. 1.0000     0. 
   0  -2  12     17.00    1.40  0. 1.0000     0. 
   0   2  12     16.30    1.30  0. 1.0000     0. 
   0   2 -12     15.70    1.20  0. 1.0000     0. 
  -1  -2 -12    703.93   21.10  0. 1.0000     0. 
   1  -2  12    766.92   21.20  0. 1.0000     0. 
   1  -2  12    746.13   21.00  0. 1.0000     0. 
  -1   2 -12    731.53   20.60  0. 1.0000     0. 
   1   2  12    720.53   20.80  0. 1.0000     0. 
   2  -2  12    222.88    7.10  0. 1.0000     0. 
  -2  -2 -12    204.08    7.20  0. 1.0000     0. 
   2  -2  12    219.98    7.30  0. 1.0000     0. 
  -2   2 -12    216.08    6.70  0. 1.0000     0. 
   2   2  12    211.18    6.90  0. 1.0000     0. 
  -3  -2 -12    696.13   21.40  0. 1.0000     0. 
   3  -2  12    776.02   21.70  0. 1.0000     0. 
   3  -2  12    752.72   21.50  0. 1.0000     0. 
   3   2  12    737.33   21.30  0. 1.0000     0. 
  -3   2 -12    760.32   21.10  0. 1.0000     0. 
   4  -2  12    102.29    4.40  0. 1.0000     0. 
  -4  -2 -12     95.09    4.20  0. 1.0000     0. 
   4   2  12    116.29    4.20  0. 1.0000     0. 
  -4   2 -12    109.39    4.00  0. 1.0000     0. 
   5  -2  12     86.09    3.70  0. 1.0000     0. 
  -5  -2 -12     75.29    3.60  0. 1.0000     0. 
   5  -2  12     80.69    3.80  0. 1.0000     0. 
  -5   2 -12     80.79    3.50  0. 1.0000     0. 
  -6  -3  12      1.00    0.80  0. 1.0000     0. 
   6  -3 -12      0.70    0.90  0. 1.0000     0. 
  -6  -3  12      1.70    0.80  0. 1.0000     0. 
  -6   3  12      1.50    0.70  0. 1.0000     0. 
  -6   3  12      0.60    0.80  0. 1.0000     0. 
   6   3 -12     -0.20    0.80  0. 1.0000     0. 
  -5  -3  12      1.10    0.80  0. 1.0000     0. 
   5  -3 -12      0.30    0.90  0. 1.0000     0. 
  -5  -3  12      0.90    0.70  0. 1.0000     0. 
   5   3 -12      0.50    0.90  0. 1.0000     0. 
  -5   3  12      1.50    0.70  0. 1.0000     0. 
  -4  -3  12      1.00    0.70  0. 1.0000     0. 
  -4  -3  12      1.40    0.70  0. 1.0000     0. 
   4  -3 -12      1.60    1.00  0. 1.0000     0. 
   4   3 -12      0.20    0.80  0. 1.0000     0. 
  -4   3  12      2.20    0.80  0. 1.0000     0. 
  -3  -3  12      8.60    1.20  0. 1.0000     0. 
   3  -3 -12      9.10    1.80  0. 1.0000     0. 
  -3  -3  12      9.40    1.50  0. 1.0000     0. 
   3   3 -12      8.90    1.60  0. 1.0000     0. 
  -3   3  12     11.10    1.30  0. 1.0000     0. 
  -2  -3  12    219.58    7.40  0. 1.0000     0. 
   2  -3 -12    216.28    7.70  0. 1.0000     0. 
  -2   3  12    227.68    7.20  0. 1.0000     0. 
   2   3 -12    214.68    7.40  0. 1.0000     0. 
  -1  -3  12      1.50    0.80  0. 1.0000     0. 
   1  -3 -12      1.50    1.00  0. 1.0000     0. 
  -1   3  12      1.40    0.80  0. 1.0000     0. 
   0  -3  12     19.80    1.90  0. 1.0000     0. 
   0  -3  12     28.10    2.00  0. 1.0000     0. 
   0  -3 -12     20.50    2.20  0. 1.0000     0. 
   0   3  12     24.70    1.90  0. 1.0000     0. 
   1  -3  12     13.10    1.60  0. 1.0000     0. 
   1  -3  12     12.40    1.70  0. 1.0000     0. 
  -1  -3 -12     12.90    1.90  0. 1.0000     0. 
   1   3  12     13.30    1.60  0. 1.0000     0. 
   2  -3  12    250.57    8.70  0. 1.0000     0. 
   2  -3  12    250.27    8.50  0. 1.0000     0. 
  -2  -3 -12    248.18    8.60  0. 1.0000     0. 
   2   3  12    273.17    8.60  0. 1.0000     0. 
  -3  -3 -12      2.10    1.00  0. 1.0000     0. 
   3  -3  12      1.10    0.80  0. 1.0000     0. 
 -10   0  13      0.60    0.70  0. 1.0000     0. 
 -10   0  13      1.40    0.80  0. 1.0000     0. 
  -9   0  13     -0.60    0.60  0. 1.0000     0. 
  -9   0  13     -0.10    0.50  0. 1.0000     0. 
  -8   0  13      0.40    0.50  0. 1.0000     0. 
  -8   0  13      0.00    0.50  0. 1.0000     0. 
  -7   0  13      0.90    0.50  0. 1.0000     0. 
  -7   0  13      0.40    0.60  0. 1.0000     0. 
  -6   0  13      0.00    0.40  0. 1.0000     0. 
  -6   0  13     -0.10    0.50  0. 1.0000     0. 
   5   0 -13      0.30    0.40  0. 1.0000     0. 
  -5   0  13      0.20    0.30  0. 1.0000     0. 
  -5   0  13      0.60    0.50  0. 1.0000     0. 
   4   0 -13     -0.10    0.50  0. 1.0000     0. 
  -4   0  13      0.30    0.30  0. 1.0000     0. 
  -4   0  13      0.10    0.40  0. 1.0000     0. 
  -3   0  13     -0.10    0.40  0. 1.0000     0. 
   3   0 -13     -0.20    0.50  0. 1.0000     0. 
  -3   0  13     -0.30    0.30  0. 1.0000     0. 
  -1   0  13      0.30    0.30  0. 1.0000     0. 
  -1   0  13      0.50    0.40  0. 1.0000     0. 
   1   0 -13      0.40    0.50  0. 1.0000     0. 
   0   0 -13      5.60    1.10  0. 1.0000     0. 
   0   0  13      4.60    0.80  0. 1.0000     0. 
   0   0  13      4.00    0.60  0. 1.0000     0. 
  -2   0 -13      0.00    0.50  0. 1.0000     0. 
  -3   0 -13      1.10    0.60  0. 1.0000     0. 
  -4   0 -13      1.30    0.70  0. 1.0000     0. 
  -5   0 -13      0.70    0.70  0. 1.0000     0. 
  -6   0 -13      0.10    0.80  0. 1.0000     0. 
 -10  -1  13     15.20    1.50  0. 1.0000     0. 
 -10   1  13     12.90    1.20  0. 1.0000     0. 
  -9  -1  13    568.94   16.00  0. 1.0000     0. 
  -9  -1  13    529.95   16.00  0. 1.0000     0. 
  -9   1  13    567.34   15.70  0. 1.0000     0. 
  -9   1  13    542.65   16.00  0. 1.0000     0. 
  -8  -1  13      0.10    0.50  0. 1.0000     0. 
  -8  -1  13      0.90    0.60  0. 1.0000     0. 
  -8   1  13      0.10    0.60  0. 1.0000     0. 
  -8   1  13      0.40    0.50  0. 1.0000     0. 
   7  -1 -13     -0.90    0.60  0. 1.0000     0. 
  -7  -1  13      0.10    0.50  0. 1.0000     0. 
  -7  -1  13     -0.20    0.50  0. 1.0000     0. 
  -7   1  13      0.10    0.60  0. 1.0000     0. 
   7   1 -13      0.20    0.60  0. 1.0000     0. 
  -6  -1  13    236.28    7.50  0. 1.0000     0. 
  -6  -1  13    233.08    7.20  0. 1.0000     0. 
   6  -1 -13    233.78    7.80  0. 1.0000     0. 
  -6   1  13    244.98    7.10  0. 1.0000     0. 
  -6   1  13    239.98    7.30  0. 1.0000     0. 
   6   1 -13    248.08    7.20  0. 1.0000     0. 
  -5  -1  13     26.40    1.40  0. 1.0000     0. 
   5  -1 -13     26.70    1.90  0. 1.0000     0. 
  -5  -1  13     26.30    1.60  0. 1.0000     0. 
  -5   1  13     27.40    1.50  0. 1.0000     0. 
   5   1 -13     26.70    1.50  0. 1.0000     0. 
  -5   1  13     25.70    1.30  0. 1.0000     0. 
   4  -1 -13    116.19    4.40  0. 1.0000     0. 
  -4  -1  13    121.19    3.90  0. 1.0000     0. 
  -4  -1  13    116.89    4.20  0. 1.0000     0. 
  -4   1  13    120.79    3.90  0. 1.0000     0. 
   4   1 -13    120.59    4.00  0. 1.0000     0. 
  -4   1  13    119.09    3.80  0. 1.0000     0. 
  -3  -1  13     24.50    1.30  0. 1.0000     0. 
  -3  -1  13     25.30    1.50  0. 1.0000     0. 
   3  -1 -13     27.20    1.90  0. 1.0000     0. 
  -3   1  13     23.00    1.30  0. 1.0000     0. 
  -3   1  13     23.90    1.40  0. 1.0000     0. 
   3   1 -13     24.40    1.40  0. 1.0000     0. 
   2  -1 -13     64.49    2.90  0. 1.0000     0. 
  -2  -1  13     65.19    2.70  0. 1.0000     0. 
  -2  -1  13     64.89    2.30  0. 1.0000     0. 
  -2   1  13     64.29    2.40  0. 1.0000     0. 
  -2   1  13     63.39    2.40  0. 1.0000     0. 
   2   1 -13     66.69    2.60  0. 1.0000     0. 
   2   1 -13     63.49    2.50  0. 1.0000     0. 
  -1  -1  13     34.50    1.70  0. 1.0000     0. 
  -1  -1  13     34.80    1.40  0. 1.0000     0. 
  -1  -1  13     33.50    1.80  0. 1.0000     0. 
   1  -1 -13     32.80    2.00  0. 1.0000     0. 
  -1   1  13     36.20    1.60  0. 1.0000     0. 
   1   1 -13     34.90    1.70  0. 1.0000     0. 
  -1   1  13     34.60    1.60  0. 1.0000     0. 
   0  -1  13     47.40    2.30  0. 1.0000     0. 
   0  -1  13     48.70    1.80  0. 1.0000     0. 
   0  -1 -13     47.50    2.40  0. 1.0000     0. 
   0  -1  13     48.10    2.10  0. 1.0000     0. 
   0   1 -13     49.50    2.20  0. 1.0000     0. 
   0   1  13     47.10    2.00  0. 1.0000     0. 
  -1  -1 -13    456.65   13.90  0. 1.0000     0. 
   1  -1  13    458.35   13.90  0. 1.0000     0. 
   1  -1  13    486.25   13.80  0. 1.0000     0. 
  -1   1 -13    477.05   13.70  0. 1.0000     0. 
   1   1  13    486.95   13.50  0. 1.0000     0. 
   2  -1  13    140.89    4.90  0. 1.0000     0. 
   2  -1  13    132.79    5.00  0. 1.0000     0. 
  -2  -1 -13    145.89    5.10  0. 1.0000     0. 
   2   1  13    143.39    4.60  0. 1.0000     0. 
  -2   1 -13    144.79    4.80  0. 1.0000     0. 
   3  -1  13      1.30    0.60  0. 1.0000     0. 
   3  -1  13      1.20    0.60  0. 1.0000     0. 
  -3  -1 -13      1.60    0.70  0. 1.0000     0. 
   3   1  13      1.60    0.60  0. 1.0000     0. 
   4  -1  13     84.69    3.40  0. 1.0000     0. 
   4  -1  13     77.99    3.50  0. 1.0000     0. 
  -4  -1 -13     80.19    3.50  0. 1.0000     0. 
  -4   1 -13     84.49    3.40  0. 1.0000     0. 
  -5  -1 -13    490.35   14.50  0. 1.0000     0. 
   5  -1  13    467.15   14.40  0. 1.0000     0. 
  -5   1 -13    486.85   14.30  0. 1.0000     0. 
  -8  -2  13    227.78    7.40  0. 1.0000     0. 
   8  -2 -13    222.08    7.90  0. 1.0000     0. 
  -8  -2  13    216.48    7.30  0. 1.0000     0. 
   8   2 -13    225.18    7.20  0. 1.0000     0. 
  -8   2  13    231.58    6.80  0. 1.0000     0. 
  -8   2  13    222.98    7.20  0. 1.0000     0. 
  -7  -2  13     38.50    2.10  0. 1.0000     0. 
   7  -2 -13     34.40    2.50  0. 1.0000     0. 
  -7  -2  13     39.80    2.20  0. 1.0000     0. 
   7   2 -13     38.80    2.20  0. 1.0000     0. 
  -7   2  13     39.60    2.10  0. 1.0000     0. 
  -7   2  13     39.20    1.80  0. 1.0000     0. 
  -6  -2  13      5.20    1.00  0. 1.0000     0. 
  -6  -2  13      4.50    0.90  0. 1.0000     0. 
   6  -2 -13      5.20    1.10  0. 1.0000     0. 
  -6   2  13      3.90    0.80  0. 1.0000     0. 
  -6   2  13      5.40    0.90  0. 1.0000     0. 
   6   2 -13      3.90    0.90  0. 1.0000     0. 
   5  -2 -13    416.26   12.90  0. 1.0000     0. 
  -5  -2  13    419.76   12.50  0. 1.0000     0. 
  -5  -2  13    404.56   12.20  0. 1.0000     0. 
  -5   2  13    437.36   12.10  0. 1.0000     0. 
   5   2 -13    420.36   12.30  0. 1.0000     0. 
  -5   2  13    404.46   12.10  0. 1.0000     0. 
  -4  -2  13    183.28    5.80  0. 1.0000     0. 
   4  -2 -13    176.68    6.40  0. 1.0000     0. 
  -4  -2  13    181.68    6.10  0. 1.0000     0. 
  -4   2  13    190.98    5.80  0. 1.0000     0. 
  -4   2  13    176.78    5.70  0. 1.0000     0. 
   4   2 -13    182.78    6.00  0. 1.0000     0. 
  -3  -2  13     55.59    2.60  0. 1.0000     0. 
   3  -2 -13     55.59    3.00  0. 1.0000     0. 
  -3  -2  13     56.59    2.30  0. 1.0000     0. 
  -3   2  13     55.59    2.40  0. 1.0000     0. 
   3   2 -13     57.29    2.60  0. 1.0000     0. 
  -2  -2  13     68.79    2.60  0. 1.0000     0. 
   2  -2 -13     70.69    3.40  0. 1.0000     0. 
  -2  -2  13     67.19    3.00  0. 1.0000     0. 
  -2   2  13     68.59    2.80  0. 1.0000     0. 
   2   2 -13     71.39    3.00  0. 1.0000     0. 
   1  -2 -13    202.88    7.10  0. 1.0000     0. 
  -1  -2  13    208.88    6.90  0. 1.0000     0. 
  -1  -2  13    215.18    6.80  0. 1.0000     0. 
  -1   2  13    211.58    6.60  0. 1.0000     0. 
   0  -2  13      5.70    1.00  0. 1.0000     0. 
   0  -2 -13      5.10    1.20  0. 1.0000     0. 
   0  -2  13      5.30    0.90  0. 1.0000     0. 
   0   2  13      5.60    1.00  0. 1.0000     0. 
  -1  -2 -13    275.07    9.10  0. 1.0000     0. 
   1  -2  13    288.57    9.10  0. 1.0000     0. 
   1  -2  13    290.97    8.90  0. 1.0000     0. 
   1   2  13    277.77    8.70  0. 1.0000     0. 
  -1   2 -13    280.87    8.50  0. 1.0000     0. 
   2  -2  13     75.49    3.50  0. 1.0000     0. 
   2  -2  13     74.49    3.30  0. 1.0000     0. 
  -2  -2 -13     74.49    3.50  0. 1.0000     0. 
   2   2  13     69.59    3.10  0. 1.0000     0. 
  -2   2 -13     73.79    3.00  0. 1.0000     0. 
   3  -2  13      6.10    1.00  0. 1.0000     0. 
  -3  -2 -13      5.30    1.20  0. 1.0000     0. 
   3  -2  13      5.40    1.10  0. 1.0000     0. 
   3   2  13      5.10    1.00  0. 1.0000     0. 
  -3   2 -13      5.90    1.30  0. 1.0000     0. 
   4  -2  13    330.37   10.40  0. 1.0000     0. 
  -4  -2 -13    301.87   10.30  0. 1.0000     0. 
   4  -2  13    332.97   10.60  0. 1.0000     0. 
   4   2  13    331.97   10.10  0. 1.0000     0. 
  -4   2 -13    330.37   10.00  0. 1.0000     0. 
   5  -3 -13    188.28    7.00  0. 1.0000     0. 
  -5  -3  13    183.18    6.50  0. 1.0000     0. 
  -5  -3  13    185.68    6.40  0. 1.0000     0. 
   5   3 -13    178.68    6.40  0. 1.0000     0. 
  -5   3  13    193.08    6.10  0. 1.0000     0. 
  -4  -3  13    206.58    7.00  0. 1.0000     0. 
   4  -3 -13    220.18    7.80  0. 1.0000     0. 
  -4  -3  13    208.58    7.30  0. 1.0000     0. 
   4   3 -13    212.68    7.30  0. 1.0000     0. 
  -4   3  13    229.78    7.00  0. 1.0000     0. 
  -3  -3  13    202.18    7.10  0. 1.0000     0. 
  -3  -3  13    206.38    6.70  0. 1.0000     0. 
   3  -3 -13    207.58    7.40  0. 1.0000     0. 
  -3   3  13    209.08    6.70  0. 1.0000     0. 
   3   3 -13    196.28    7.00  0. 1.0000     0. 
   2  -3 -13    250.97    8.70  0. 1.0000     0. 
  -2  -3  13    250.97    8.40  0. 1.0000     0. 
   2   3 -13    247.78    8.30  0. 1.0000     0. 
  -2   3  13    262.27    8.10  0. 1.0000     0. 
  -1  -3  13    180.18    6.50  0. 1.0000     0. 
   1  -3 -13    173.78    6.60  0. 1.0000     0. 
   1   3 -13    172.18    6.30  0. 1.0000     0. 
  -1   3  13    186.08    6.20  0. 1.0000     0. 
   0  -3  13    660.33   20.10  0. 1.0000     0. 
   0  -3 -13    678.73   20.20  0. 1.0000     0. 
   0  -3  13    671.83   19.90  0. 1.0000     0. 
   0   3  13    708.63   19.80  0. 1.0000     0. 
  -1  -3 -13     43.90    2.90  0. 1.0000     0. 
   1  -3  13     35.80    2.60  0. 1.0000     0. 
   1  -3  13     38.20    2.50  0. 1.0000     0. 
   1   3  13     42.20    2.50  0. 1.0000     0. 
  -9   0  14     59.89    2.80  0. 1.0000     0. 
  -9   0  14     69.29    2.70  0. 1.0000     0. 
  -8   0  14     12.10    1.30  0. 1.0000     0. 
  -8   0  14     13.90    1.10  0. 1.0000     0. 
  -7   0  14     97.79    3.30  0. 1.0000     0. 
  -7   0  14     91.69    3.50  0. 1.0000     0. 
  -6   0  14      3.10    0.60  0. 1.0000     0. 
  -6   0  14      3.20    0.80  0. 1.0000     0. 
  -5   0  14   1347.47   37.00  0. 1.0000     0. 
  -5   0  14   1366.66   37.30  0. 1.0000     0. 
   5   0 -14   1338.47   37.60  0. 1.0000     0. 
  -4   0  14    237.58    7.30  0. 1.0000     0. 
  -4   0  14    255.97    7.60  0. 1.0000     0. 
   4   0 -14    252.37    7.90  0. 1.0000     0. 
  -3   0  14    110.19    3.50  0. 1.0000     0. 
  -3   0  14    111.09    3.90  0. 1.0000     0. 
   3   0 -14    109.99    4.10  0. 1.0000     0. 
  -2   0  14   1740.73   49.10  0. 1.0000     0. 
  -2   0  14   1806.72   48.80  0. 1.0000     0. 
   2   0 -14   1826.72   49.40  0. 1.0000     0. 
  -1   0  14    416.66   11.70  0. 1.0000     0. 
   1   0 -14    431.26   12.30  0. 1.0000     0. 
  -1   0  14    391.56   12.00  0. 1.0000     0. 
   0   0  14   1060.29   30.90  0. 1.0000     0. 
   0   0  14   1136.29   30.50  0. 1.0000     0. 
   0   0 -14   1139.29   31.10  0. 1.0000     0. 
   1   0  14    119.69    3.70  0. 1.0000     0. 
  -1   0 -14    121.29    4.30  0. 1.0000     0. 
   1   0  14    114.79    4.10  0. 1.0000     0. 
  -2   0 -14    149.39    5.20  0. 1.0000     0. 
  -3   0 -14   2397.66   65.79  0. 1.0000     0. 
  -4   0 -14     44.90    2.50  0. 1.0000     0. 
  -5   0 -14    135.39    5.10  0. 1.0000     0. 
  -9  -1  14    670.13   19.90  0. 1.0000     0. 
  -9  -1  14    695.33   19.80  0. 1.0000     0. 
  -9   1  14    712.83   19.50  0. 1.0000     0. 
  -9   1  14    689.33   19.80  0. 1.0000     0. 
  -8  -1  14    149.79    5.00  0. 1.0000     0. 
   8  -1 -14    147.59    5.50  0. 1.0000     0. 
  -8  -1  14    137.79    5.10  0. 1.0000     0. 
  -8   1  14    153.98    4.80  0. 1.0000     0. 
  -8   1  14    148.29    5.00  0. 1.0000     0. 
  -7  -1  14     65.29    2.90  0. 1.0000     0. 
   7  -1 -14     58.89    3.10  0. 1.0000     0. 
  -7  -1  14     66.99    2.70  0. 1.0000     0. 
  -7   1  14     68.49    2.80  0. 1.0000     0. 
  -7   1  14     68.09    2.50  0. 1.0000     0. 
   6  -1 -14    603.04   17.90  0. 1.0000     0. 
  -6  -1  14    587.94   17.50  0. 1.0000     0. 
  -6  -1  14    610.94   17.30  0. 1.0000     0. 
  -6   1  14    615.94   17.30  0. 1.0000     0. 
  -6   1  14    625.14   17.10  0. 1.0000     0. 
  -5  -1  14      2.80    0.70  0. 1.0000     0. 
   5  -1 -14      0.90    0.70  0. 1.0000     0. 
  -5   1  14      2.30    0.60  0. 1.0000     0. 
  -5   1  14      1.60    0.60  0. 1.0000     0. 
   4  -1 -14    340.47   10.60  0. 1.0000     0. 
  -4  -1  14    340.17    9.90  0. 1.0000     0. 
  -4  -1  14    344.17   10.30  0. 1.0000     0. 
  -4   1  14    338.07   10.00  0. 1.0000     0. 
  -4   1  14    346.37    9.90  0. 1.0000     0. 
   3  -1 -14    214.98    7.20  0. 1.0000     0. 
  -3  -1  14    218.88    6.90  0. 1.0000     0. 
  -3  -1  14    225.48    6.50  0. 1.0000     0. 
  -3   1  14    213.48    6.60  0. 1.0000     0. 
  -3   1  14    218.08    6.60  0. 1.0000     0. 
  -2  -1  14      0.00    0.50  0. 1.0000     0. 
   2  -1 -14     -0.80    0.60  0. 1.0000     0. 
   2   1 -14      0.60    0.50  0. 1.0000     0. 
  -2   1  14      0.40    0.50  0. 1.0000     0. 
  -2   1  14      0.40    0.40  0. 1.0000     0. 
  -1  -1  14   1361.66   37.70  0. 1.0000     0. 
  -1  -1  14   1380.56   37.10  0. 1.0000     0. 
   1  -1 -14   1367.56   38.00  0. 1.0000     0. 
  -1   1  14   1330.87   37.30  0. 1.0000     0. 
   1   1 -14   1348.57   37.50  0. 1.0000     0. 
   0  -1 -14     75.19    3.30  0. 1.0000     0. 
   0  -1  14     73.39    3.10  0. 1.0000     0. 
   0   1 -14     73.59    3.00  0. 1.0000     0. 
   0   1  14     74.09    2.70  0. 1.0000     0. 
  -1  -1 -14      8.40    1.40  0. 1.0000     0. 
   1  -1  14      7.70    1.10  0. 1.0000     0. 
   1   1  14      9.00    1.00  0. 1.0000     0. 
  -1   1 -14      6.70    1.20  0. 1.0000     0. 
  -2  -1 -14    758.22   21.70  0. 1.0000     0. 
   2  -1  14    732.83   21.60  0. 1.0000     0. 
  -2   1 -14    758.92   21.40  0. 1.0000     0. 
   2   1  14    761.12   21.10  0. 1.0000     0. 
  -3  -1 -14     56.49    2.90  0. 1.0000     0. 
   3  -1  14     54.69    2.80  0. 1.0000     0. 
  -3   1 -14     58.39    2.70  0. 1.0000     0. 
  -4  -1 -14    368.26   11.40  0. 1.0000     0. 
  -4   1 -14    369.06   11.20  0. 1.0000     0. 
  -5  -1 -14      8.70    1.80  0. 1.0000     0. 
  -5   1 -14     13.10    1.70  0. 1.0000     0. 
  -8  -2  14    203.38    6.70  0. 1.0000     0. 
   8  -2 -14    192.38    7.30  0. 1.0000     0. 
  -8  -2  14    193.68    6.70  0. 1.0000     0. 
  -8   2  14    208.08    6.20  0. 1.0000     0. 
   8   2 -14    198.08    6.50  0. 1.0000     0. 
  -8   2  14    201.58    6.60  0. 1.0000     0. 
  -7  -2  14    139.79    5.00  0. 1.0000     0. 
  -7  -2  14    133.19    5.10  0. 1.0000     0. 
   7  -2 -14    136.79    5.60  0. 1.0000     0. 
  -7   2  14    148.99    4.90  0. 1.0000     0. 
   7   2 -14    135.69    4.90  0. 1.0000     0. 
  -7   2  14    148.39    4.60  0. 1.0000     0. 
   6  -2 -14    247.48    8.80  0. 1.0000     0. 
  -6  -2  14    264.27    8.20  0. 1.0000     0. 
  -6  -2  14    254.07    8.40  0. 1.0000     0. 
  -6   2  14    273.67    7.90  0. 1.0000     0. 
   6   2 -14    267.87    8.30  0. 1.0000     0. 
  -6   2  14    264.27    8.10  0. 1.0000     0. 
  -5  -2  14    378.76   11.80  0. 1.0000     0. 
   5  -2 -14    383.06   12.20  0. 1.0000     0. 
  -5  -2  14    383.36   11.50  0. 1.0000     0. 
  -5   2  14    413.66   11.40  0. 1.0000     0. 
  -5   2  14    370.16   11.30  0. 1.0000     0. 
   5   2 -14    404.46   11.70  0. 1.0000     0. 
  -4  -2  14    130.49    4.50  0. 1.0000     0. 
   4  -2 -14    130.99    5.20  0. 1.0000     0. 
  -4  -2  14    134.89    4.90  0. 1.0000     0. 
  -4   2  14    139.89    4.50  0. 1.0000     0. 
  -4   2  14    117.29    4.40  0. 1.0000     0. 
   4   2 -14    133.39    4.70  0. 1.0000     0. 
   3  -2 -14     62.69    3.30  0. 1.0000     0. 
  -3  -2  14     63.79    2.60  0. 1.0000     0. 
  -3  -2  14     59.89    2.90  0. 1.0000     0. 
  -3   2  14     65.39    2.60  0. 1.0000     0. 
   3   2 -14     60.69    2.80  0. 1.0000     0. 
   2  -2 -14    333.77   10.80  0. 1.0000     0. 
  -2  -2  14    354.56   10.10  0. 1.0000     0. 
  -2  -2  14    332.47   10.60  0. 1.0000     0. 
  -2   2  14    347.67   10.20  0. 1.0000     0. 
   2   2 -14    340.17   10.40  0. 1.0000     0. 
   1  -2 -14     18.50    2.00  0. 1.0000     0. 
  -1  -2  14     19.70    1.70  0. 1.0000     0. 
  -1   2  14     20.30    1.50  0. 1.0000     0. 
   0  -2  14      2.00    0.70  0. 1.0000     0. 
   0  -2  14      1.60    0.80  0. 1.0000     0. 
   0  -2 -14      1.40    0.90  0. 1.0000     0. 
   0   2  14      2.00    0.70  0. 1.0000     0. 
   1  -2  14      6.40    1.20  0. 1.0000     0. 
   1  -2  14      7.90    1.30  0. 1.0000     0. 
  -1  -2 -14      9.60    1.70  0. 1.0000     0. 
   1   2  14      7.50    1.20  0. 1.0000     0. 
  -1   2 -14      8.10    1.30  0. 1.0000     0. 
  -2  -2 -14    122.09    4.90  0. 1.0000     0. 
   2  -2  14    120.89    4.80  0. 1.0000     0. 
   2  -2  14    123.09    4.60  0. 1.0000     0. 
   2   2  14    116.79    4.40  0. 1.0000     0. 
  -2   2 -14    116.69    4.30  0. 1.0000     0. 
  -3  -2 -14     43.50    2.80  0. 1.0000     0. 
   3  -2  14     43.70    2.50  0. 1.0000     0. 
   3  -2  14     45.70    2.70  0. 1.0000     0. 
  -3   2 -14     42.40    2.30  0. 1.0000     0. 
   3   2  14     42.10    2.30  0. 1.0000     0. 
  -4  -3  14      4.30    1.00  0. 1.0000     0. 
   4  -3 -14      2.80    1.10  0. 1.0000     0. 
  -4  -3  14      4.20    0.90  0. 1.0000     0. 
   4   3 -14      2.30    1.00  0. 1.0000     0. 
  -4   3  14      4.00    0.90  0. 1.0000     0. 
   3  -3 -14     11.60    2.00  0. 1.0000     0. 
  -3  -3  14     11.00    1.60  0. 1.0000     0. 
  -3   3  14     14.10    1.50  0. 1.0000     0. 
   3   3 -14     10.50    1.70  0. 1.0000     0. 
   2  -3 -14      8.50    1.80  0. 1.0000     0. 
  -2  -3  14      6.60    1.30  0. 1.0000     0. 
  -2   3  14      7.80    1.30  0. 1.0000     0. 
   2   3 -14      5.80    1.20  0. 1.0000     0. 
   1  -3 -14     11.00    2.00  0. 1.0000     0. 
  -1  -3  14      7.40    1.40  0. 1.0000     0. 
  -1   3  14      9.10    1.50  0. 1.0000     0. 
   1   3 -14     10.70    1.70  0. 1.0000     0. 
   0  -3 -14      4.50    1.20  0. 1.0000     0. 
  -9   0  15      0.50    0.60  0. 1.0000     0. 
  -9   0  15     -0.40    0.70  0. 1.0000     0. 
  -8   0  15      0.90    0.70  0. 1.0000     0. 
  -8   0  15      1.70    0.70  0. 1.0000     0. 
  -7   0  15      0.10    0.60  0. 1.0000     0. 
  -7   0  15     -0.20    0.50  0. 1.0000     0. 
  -6   0  15      1.20    0.70  0. 1.0000     0. 
  -5   0  15      0.90    0.50  0. 1.0000     0. 
   5   0 -15      0.10    0.70  0. 1.0000     0. 
  -5   0  15      0.40    0.60  0. 1.0000     0. 
  -4   0  15      1.60    0.50  0. 1.0000     0. 
   4   0 -15      1.10    0.70  0. 1.0000     0. 
  -4   0  15      0.60    0.60  0. 1.0000     0. 
  -3   0  15      0.10    0.50  0. 1.0000     0. 
   3   0 -15      1.30    0.70  0. 1.0000     0. 
  -3   0  15     -0.10    0.40  0. 1.0000     0. 
   2   0 -15      0.10    0.60  0. 1.0000     0. 
  -2   0  15      1.00    0.50  0. 1.0000     0. 
  -2   0  15      0.40    0.40  0. 1.0000     0. 
  -1   0  15      1.20    0.40  0. 1.0000     0. 
   1   0 -15      1.00    0.60  0. 1.0000     0. 
  -1   0  15      0.50    0.50  0. 1.0000     0. 
   0   0  15      4.50    0.70  0. 1.0000     0. 
   0   0  15      3.40    0.70  0. 1.0000     0. 
  -1   0 -15      2.40    0.80  0. 1.0000     0. 
  -3   0 -15      1.70    0.80  0. 1.0000     0. 
  -8  -1  15    105.89    4.20  0. 1.0000     0. 
  -8  -1  15    116.59    4.10  0. 1.0000     0. 
   8  -1 -15    104.79    5.20  0. 1.0000     0. 
  -8   1  15    109.89    3.80  0. 1.0000     0. 
  -8   1  15    111.99    4.10  0. 1.0000     0. 
   7  -1 -15    202.58    7.10  0. 1.0000     0. 
  -7  -1  15    193.68    6.70  0. 1.0000     0. 
  -7  -1  15    207.78    6.50  0. 1.0000     0. 
  -7   1  15    212.98    6.30  0. 1.0000     0. 
  -7   1  15    203.18    6.50  0. 1.0000     0. 
  -6  -1  15    606.14   17.00  0. 1.0000     0. 
   6  -1 -15    599.84   17.80  0. 1.0000     0. 
  -6  -1  15    592.24   17.40  0. 1.0000     0. 
  -6   1  15    584.84   17.10  0. 1.0000     0. 
  -6   1  15    608.84   16.90  0. 1.0000     0. 
   5  -1 -15    428.06   13.20  0. 1.0000     0. 
  -5  -1  15    423.96   12.80  0. 1.0000     0. 
  -5  -1  15    421.86   12.40  0. 1.0000     0. 
  -5   1  15    451.65   12.40  0. 1.0000     0. 
  -5   1  15    431.06   12.60  0. 1.0000     0. 
  -4  -1  15    281.97    8.60  0. 1.0000     0. 
  -4  -1  15    258.17    8.10  0. 1.0000     0. 
   4  -1 -15    267.17    8.80  0. 1.0000     0. 
  -4   1  15    283.57    8.10  0. 1.0000     0. 
  -4   1  15    271.17    8.20  0. 1.0000     0. 
   3  -1 -15    226.38    7.70  0. 1.0000     0. 
  -3  -1  15    237.98    6.90  0. 1.0000     0. 
  -3  -1  15    236.58    7.40  0. 1.0000     0. 
  -3   1  15    223.28    7.00  0. 1.0000     0. 
  -3   1  15    225.98    6.90  0. 1.0000     0. 
  -2  -1  15    611.64   16.60  0. 1.0000     0. 
  -2  -1  15    581.54   17.20  0. 1.0000     0. 
   2  -1 -15    598.34   17.50  0. 1.0000     0. 
  -2   1  15    581.74   16.70  0. 1.0000     0. 
   2   1 -15    594.34   17.00  0. 1.0000     0. 
  -2   1  15    585.94   16.80  0. 1.0000     0. 
  -1  -1  15    126.79    4.00  0. 1.0000     0. 
   1  -1 -15    129.69    4.80  0. 1.0000     0. 
  -1  -1  15    119.19    4.50  0. 1.0000     0. 
   1   1 -15    125.79    4.40  0. 1.0000     0. 
  -1   1  15    120.79    4.10  0. 1.0000     0. 
   0  -1 -15     37.00    2.30  0. 1.0000     0. 
   0  -1  15     35.10    2.00  0. 1.0000     0. 
   0   1  15     35.50    1.70  0. 1.0000     0. 
   0   1 -15     35.80    2.00  0. 1.0000     0. 
  -1  -1 -15    467.95   14.10  0. 1.0000     0. 
   1  -1  15    466.15   14.00  0. 1.0000     0. 
   1   1  15    478.75   13.50  0. 1.0000     0. 
  -1   1 -15    465.75   13.80  0. 1.0000     0. 
   2  -1  15     -0.40    0.60  0. 1.0000     0. 
  -2  -1 -15      0.20    0.80  0. 1.0000     0. 
   2   1  15      0.40    0.50  0. 1.0000     0. 
  -2   1 -15      0.60    0.60  0. 1.0000     0. 
   3  -1  15      5.70    1.70  0. 1.0000     0. 
  -3  -1 -15      8.40    1.70  0. 1.0000     0. 
  -3   1 -15      8.00    1.40  0. 1.0000     0. 
  -4  -1 -15    156.08    5.80  0. 1.0000     0. 
  -4   1 -15    158.58    5.60  0. 1.0000     0. 
   7  -2 -15    274.07    9.50  0. 1.0000     0. 
  -7  -2  15    282.77    8.90  0. 1.0000     0. 
  -7  -2  15    271.87    9.00  0. 1.0000     0. 
  -7   2  15    291.57    8.80  0. 1.0000     0. 
   7   2 -15    281.07    8.80  0. 1.0000     0. 
  -7   2  15    286.87    8.50  0. 1.0000     0. 
  -6  -2  15    342.77   10.90  0. 1.0000     0. 
  -6  -2  15    358.16   10.70  0. 1.0000     0. 
   6  -2 -15    343.37   11.40  0. 1.0000     0. 
  -6   2  15    347.07   10.50  0. 1.0000     0. 
   6   2 -15    354.16   10.70  0. 1.0000     0. 
  -6   2  15    367.16   10.40  0. 1.0000     0. 
   5  -2 -15     21.00    2.10  0. 1.0000     0. 
  -5  -2  15     23.30    1.60  0. 1.0000     0. 
  -5  -2  15     20.40    1.80  0. 1.0000     0. 
  -5   2  15     23.40    1.50  0. 1.0000     0. 
   5   2 -15     20.30    1.80  0. 1.0000     0. 
  -5   2  15     20.90    1.50  0. 1.0000     0. 
  -4  -2  15     79.29    3.20  0. 1.0000     0. 
  -4  -2  15     80.49    3.50  0. 1.0000     0. 
   4  -2 -15     80.59    3.90  0. 1.0000     0. 
  -4   2  15     89.19    3.20  0. 1.0000     0. 
   4   2 -15     82.19    3.40  0. 1.0000     0. 
  -3  -2  15    574.54   17.30  0. 1.0000     0. 
   3  -2 -15    568.94   17.60  0. 1.0000     0. 
  -3  -2  15    601.24   16.80  0. 1.0000     0. 
  -3   2  15    602.74   16.90  0. 1.0000     0. 
   3   2 -15    597.14   17.10  0. 1.0000     0. 
   2  -2 -15     54.49    3.10  0. 1.0000     0. 
  -2  -2  15     51.89    2.80  0. 1.0000     0. 
  -2   2  15     55.79    2.50  0. 1.0000     0. 
   2   2 -15     62.29    2.80  0. 1.0000     0. 
   1  -2 -15     37.30    2.60  0. 1.0000     0. 
  -1  -2  15     35.90    2.30  0. 1.0000     0. 
  -1   2  15     37.40    2.00  0. 1.0000     0. 
   0  -2 -15    279.67    9.40  0. 1.0000     0. 
   0  -2  15    279.37    9.20  0. 1.0000     0. 
   0  -2  15    286.77    8.90  0. 1.0000     0. 
   0   2  15    282.67    8.70  0. 1.0000     0. 
  -1  -2 -15     75.49    3.70  0. 1.0000     0. 
   1  -2  15     72.59    3.50  0. 1.0000     0. 
   1  -2  15     72.89    3.30  0. 1.0000     0. 
   1   2  15     74.89    3.10  0. 1.0000     0. 
  -1   2 -15     73.19    3.90  0. 1.0000     0. 
   2  -2  15     81.79    3.50  0. 1.0000     0. 
  -2  -2 -15     79.59    3.90  0. 1.0000     0. 
   2  -2  15     79.09    3.80  0. 1.0000     0. 
  -2   2 -15     80.29    3.30  0. 1.0000     0. 
   2   2  15     79.89    3.30  0. 1.0000     0. 
  -8   0  16   1406.06   40.60  0. 1.0000     0. 
  -8   0  16   1521.85   40.40  0. 1.0000     0. 
  -7   0  16     72.69    3.10  0. 1.0000     0. 
  -7   0  16     74.59    2.80  0. 1.0000     0. 
  -6   0  16    297.67    9.30  0. 1.0000     0. 
  -6   0  16    309.27    9.00  0. 1.0000     0. 
  -5   0  16    841.12   23.50  0. 1.0000     0. 
  -5   0  16    848.42   23.90  0. 1.0000     0. 
   4   0 -16   1731.43   48.10  0. 1.0000     0. 
  -4   0  16   1693.73   47.30  0. 1.0000     0. 
  -4   0  16   1771.42   47.80  0. 1.0000     0. 
   3   0 -16    202.98    6.70  0. 1.0000     0. 
  -3   0  16    202.58    6.40  0. 1.0000     0. 
  -3   0  16    188.88    6.00  0. 1.0000     0. 
   2   0 -16      3.00    0.80  0. 1.0000     0. 
  -2   0  16      4.20    0.60  0. 1.0000     0. 
  -2   0  16      2.90    0.70  0. 1.0000     0. 
  -1   0  16    477.95   13.10  0. 1.0000     0. 
   1   0 -16    468.35   13.80  0. 1.0000     0. 
  -1   0  16    435.56   13.50  0. 1.0000     0. 
   0   0  16      7.30    1.10  0. 1.0000     0. 
   0   0 -16      8.00    1.30  0. 1.0000     0. 
   0   0  16      7.60    0.80  0. 1.0000     0. 
  -1   0 -16    143.59    5.20  0. 1.0000     0. 
  -2   0 -16     22.40    2.00  0. 1.0000     0. 
  -3   0 -16     11.10    1.70  0. 1.0000     0. 
  -8  -1  16     29.90    1.80  0. 1.0000     0. 
  -8  -1  16     26.50    2.00  0. 1.0000     0. 
  -8   1  16     31.50    1.70  0. 1.0000     0. 
  -8   1  16     27.30    1.90  0. 1.0000     0. 
  -7  -1  16    226.68    7.80  0. 1.0000     0. 
  -7  -1  16    239.98    7.50  0. 1.0000     0. 
   7  -1 -16    233.28    8.20  0. 1.0000     0. 
  -7   1  16    263.17    7.70  0. 1.0000     0. 
  -7   1  16    245.88    7.40  0. 1.0000     0. 
  -6  -1  16      1.60    0.80  0. 1.0000     0. 
  -6  -1  16      2.40    0.70  0. 1.0000     0. 
   6  -1 -16      3.10    0.90  0. 1.0000     0. 
  -6   1  16      1.90    0.60  0. 1.0000     0. 
  -6   1  16      3.20    0.80  0. 1.0000     0. 
  -5  -1  16    683.43   19.50  0. 1.0000     0. 
   5  -1 -16    668.73   20.30  0. 1.0000     0. 
  -5  -1  16    680.63   19.90  0. 1.0000     0. 
  -5   1  16    703.43   19.70  0. 1.0000     0. 
  -5   1  16    718.73   19.40  0. 1.0000     0. 
  -4  -1  16    874.11   24.30  0. 1.0000     0. 
   4  -1 -16    828.82   24.60  0. 1.0000     0. 
  -4  -1  16    818.22   23.70  0. 1.0000     0. 
  -4   1  16    891.81   23.80  0. 1.0000     0. 
  -4   1  16    852.51   24.00  0. 1.0000     0. 
  -3  -1  16     36.10    1.70  0. 1.0000     0. 
   3  -1 -16     36.60    2.40  0. 1.0000     0. 
  -3  -1  16     36.40    2.10  0. 1.0000     0. 
  -3   1  16     35.40    1.70  0. 1.0000     0. 
  -3   1  16     34.00    1.90  0. 1.0000     0. 
  -2  -1  16     16.80    1.50  0. 1.0000     0. 
  -2   1  16     17.80    1.20  0. 1.0000     0. 
  -1  -1  16     24.30    1.80  0. 1.0000     0. 
  -1  -1  16     26.90    1.60  0. 1.0000     0. 
   1  -1 -16     26.50    2.10  0. 1.0000     0. 
  -1   1  16     25.30    1.40  0. 1.0000     0. 
   1   1 -16     24.60    1.80  0. 1.0000     0. 
   0  -1 -16      6.90    1.20  0. 1.0000     0. 
   0  -1  16      7.70    1.20  0. 1.0000     0. 
   0   1 -16      6.20    1.30  0. 1.0000     0. 
   0   1  16      6.30    0.90  0. 1.0000     0. 
   1  -1  16    129.09    5.00  0. 1.0000     0. 
  -1  -1 -16    143.29    5.30  0. 1.0000     0. 
  -1   1 -16    135.79    4.90  0. 1.0000     0. 
   1   1  16    131.99    4.50  0. 1.0000     0. 
  -2  -1 -16     35.00    2.50  0. 1.0000     0. 
   2  -1  16     29.80    2.10  0. 1.0000     0. 
  -2   1 -16     36.00    2.20  0. 1.0000     0. 
  -3  -1 -16     11.70    1.80  0. 1.0000     0. 
  -3   1 -16     12.40    1.60  0. 1.0000     0. 
   6  -2 -16      9.90    1.80  0. 1.0000     0. 
  -6  -2  16     11.20    1.30  0. 1.0000     0. 
  -6  -2  16      9.40    1.50  0. 1.0000     0. 
  -6   2  16     10.20    1.40  0. 1.0000     0. 
   5  -2 -16     -0.10    0.80  0. 1.0000     0. 
  -5  -2  16      1.50    0.80  0. 1.0000     0. 
  -5  -2  16      1.60    0.70  0. 1.0000     0. 
  -5   2  16      0.90    0.60  0. 1.0000     0. 
  -4  -2  16     15.50    1.30  0. 1.0000     0. 
   4  -2 -16     17.30    2.10  0. 1.0000     0. 
  -4  -2  16     15.70    1.70  0. 1.0000     0. 
  -4   2  16     15.90    1.30  0. 1.0000     0. 
  -3  -2  16    765.82   22.90  0. 1.0000     0. 
  -3  -2  16    789.52   22.30  0. 1.0000     0. 
   3  -2 -16    768.82   23.20  0. 1.0000     0. 
  -3   2  16    837.12   22.40  0. 1.0000     0. 
   2  -2 -16      0.40    0.80  0. 1.0000     0. 
  -2  -2  16      0.30    0.70  0. 1.0000     0. 
  -2   2  16      0.40    0.60  0. 1.0000     0. 
   1  -2 -16    114.19    4.90  0. 1.0000     0. 
  -1  -2  16    112.29    4.60  0. 1.0000     0. 
  -1   2  16    115.09    4.10  0. 1.0000     0. 
   0  -2  16    518.85   15.90  0. 1.0000     0. 
   0  -2 -16    516.65   16.10  0. 1.0000     0. 
   0   2  16    540.15   15.30  0. 1.0000     0. 
  -1  -2 -16      4.50    1.20  0. 1.0000     0. 
   1  -2  16      4.60    1.10  0. 1.0000     0. 
   1   2  16      6.80    1.20  0. 1.0000     0. 
  -7   0  17     -0.10    0.70  0. 1.0000     0. 
  -7   0  17      0.40    0.60  0. 1.0000     0. 
  -6   0  17      0.50    0.70  0. 1.0000     0. 
  -6   0  17     -0.40    0.50  0. 1.0000     0. 
  -5   0  17      0.00    0.50  0. 1.0000     0. 
  -5   0  17      2.10    0.80  0. 1.0000     0. 
   4   0 -17      0.80    0.70  0. 1.0000     0. 
  -4   0  17      0.60    0.60  0. 1.0000     0. 
  -4   0  17     -0.30    0.40  0. 1.0000     0. 
   3   0 -17      1.10    0.70  0. 1.0000     0. 
  -3   0  17      0.20    0.40  0. 1.0000     0. 
  -3   0  17      0.10    0.60  0. 1.0000     0. 
  -2   0  17      0.60    0.60  0. 1.0000     0. 
  -2   0  17      0.10    0.40  0. 1.0000     0. 
   2   0 -17      0.50    0.70  0. 1.0000     0. 
  -1   0  17      1.90    0.60  0. 1.0000     0. 
   1   0 -17      2.00    0.80  0. 1.0000     0. 
   0   0  17      0.20    0.70  0. 1.0000     0. 
   0   0 -17     -0.80    0.60  0. 1.0000     0. 
  -1   0 -17      0.70    0.80  0. 1.0000     0. 
  -7  -1  17     28.90    1.80  0. 1.0000     0. 
   7  -1 -17     30.60    2.40  0. 1.0000     0. 
  -7   1  17     32.60    1.70  0. 1.0000     0. 
  -6  -1  17    110.39    3.90  0. 1.0000     0. 
  -6  -1  17    102.59    4.20  0. 1.0000     0. 
   6  -1 -17     99.49    4.40  0. 1.0000     0. 
  -6   1  17    112.89    3.70  0. 1.0000     0. 
  -6   1  17    104.69    4.00  0. 1.0000     0. 
   5  -1 -17     40.10    2.60  0. 1.0000     0. 
  -5  -1  17     42.40    2.00  0. 1.0000     0. 
  -5  -1  17     37.10    2.30  0. 1.0000     0. 
  -5   1  17     41.80    2.20  0. 1.0000     0. 
  -5   1  17     43.60    1.90  0. 1.0000     0. 
   4  -1 -17     29.30    2.30  0. 1.0000     0. 
  -4  -1  17     27.00    1.50  0. 1.0000     0. 
  -4  -1  17     27.30    1.90  0. 1.0000     0. 
  -4   1  17     28.00    1.80  0. 1.0000     0. 
  -4   1  17     30.70    1.60  0. 1.0000     0. 
  -3  -1  17    313.37    9.50  0. 1.0000     0. 
  -3  -1  17    321.67   10.10  0. 1.0000     0. 
   3  -1 -17    310.17   10.40  0. 1.0000     0. 
  -3   1  17    343.97    9.60  0. 1.0000     0. 
   2  -1 -17    101.49    4.40  0. 1.0000     0. 
  -2  -1  17    102.49    3.50  0. 1.0000     0. 
  -2  -1  17     98.29    4.00  0. 1.0000     0. 
  -2   1  17    102.59    3.60  0. 1.0000     0. 
   1  -1 -17    270.77    8.90  0. 1.0000     0. 
  -1  -1  17    265.97    8.60  0. 1.0000     0. 
  -1   1  17    262.67    8.00  0. 1.0000     0. 
   1   1 -17    266.87    8.50  0. 1.0000     0. 
   0  -1 -17     22.10    2.20  0. 1.0000     0. 
   0  -1  17     23.40    1.90  0. 1.0000     0. 
   0   1  17     22.30    1.40  0. 1.0000     0. 
   0   1 -17     23.40    2.00  0. 1.0000     0. 
  -1  -1 -17    438.26   13.80  0. 1.0000     0. 
   1  -1  17    429.86   13.60  0. 1.0000     0. 
  -1   1 -17    458.35   13.40  0. 1.0000     0. 
   1   1  17    458.15   12.90  0. 1.0000     0. 
   3  -2 -17      9.20    2.00  0. 1.0000     0. 
  -3   2  17     10.30    1.30  0. 1.0000     0. 
   2  -2 -17      1.10    1.00  0. 1.0000     0. 
  -2   2  17      2.50    0.80  0. 1.0000     0. 
  -6   0  18   1345.27   36.50  0. 1.0000     0. 
  -6   0  18   1292.27   36.90  0. 1.0000     0. 
  -5   0  18    106.29    4.20  0. 1.0000     0. 
  -5   0  18    108.79    3.80  0. 1.0000     0. 
   4   0 -18    209.88    7.60  0. 1.0000     0. 
  -4   0  18    222.18    6.70  0. 1.0000     0. 
  -4   0  18    221.18    7.20  0. 1.0000     0. 
  -3   0  18    661.53   19.20  0. 1.0000     0. 
   3   0 -18    660.73   19.50  0. 1.0000     0. 
  -3   0  18    670.23   18.70  0. 1.0000     0. 
  -2   0  18     13.40    1.10  0. 1.0000     0. 
   2   0 -18     11.40    1.80  0. 1.0000     0. 
  -2   0  18     12.40    1.50  0. 1.0000     0. 
  -1   0  18   1108.49   30.40  0. 1.0000     0. 
   1   0 -18   1094.99   31.30  0. 1.0000     0. 
   0   0 -18    450.75   13.80  0. 1.0000     0. 
  -5  -1  18    379.56   11.00  0. 1.0000     0. 
   5  -1 -18    360.66   11.90  0. 1.0000     0. 
  -5  -1  18    366.56   11.50  0. 1.0000     0. 
  -5   1  18    369.16   11.30  0. 1.0000     0. 
  -5   1  18    384.36   11.00  0. 1.0000     0. 
  -4  -1  18      5.00    0.80  0. 1.0000     0. 
  -4  -1  18      4.50    1.00  0. 1.0000     0. 
   4  -1 -18      7.70    1.40  0. 1.0000     0. 
  -4   1  18      5.40    1.00  0. 1.0000     0. 
  -4   1  18      4.80    0.90  0. 1.0000     0. 
  -3  -1  18     17.80    1.30  0. 1.0000     0. 
   3  -1 -18     15.30    2.10  0. 1.0000     0. 
  -3  -1  18     18.70    1.80  0. 1.0000     0. 
  -3   1  18     20.10    1.40  0. 1.0000     0. 
  -2  -1  18    612.24   17.30  0. 1.0000     0. 
   2  -1 -18    588.94   18.20  0. 1.0000     0. 
  -2  -1  18    588.04   17.90  0. 1.0000     0. 
  -2   1  18    635.34   17.30  0. 1.0000     0. 
   1  -1 -18      4.20    1.20  0. 1.0000     0. 
  -1  -1  18      4.00    1.00  0. 1.0000     0. 
   1   1 -18      5.30    1.40  0. 1.0000     0. 
  -1   1  18      5.10    1.00  0. 1.0000     0. 
-512 
#   5211 reflections output 
;
loop_
_symmetry_equiv_pos_as_xyz
x,y,z
-x,-y,-z
-x,y+1/2,-z+1/2
x,-y+1/2,z+1/2
loop_
_atom_site_label
_atom_site_type_symbol
_atom_site_fract_x
_atom_site_fract_y
_atom_site_fract_z
_atom_site_U_iso_or_equiv
_atom_site_occupancy
_atom_site_adp_type
_atom_site_refinement_flags_posn
_atom_site_refinement_flags_adp
_atom_site_refinement_flags_occupancy
_atom_site_disorder_assembly
_atom_site_disorder_group
_atom_site_attached_hydrogens
S1 S 0.43372(5) 0.31803(17) 0.33943(3) 0.0385 1.0000 Uani . . . . . .
N2 N 0.31480(19) 0.1804(5) 0.24474(12) 0.0392 1.0000 Uani . . . . . .
S3 S 0.15260(5) 0.04665(16) 0.25553(3) 0.0362 1.0000 Uani . . . . . .
C4 C 0.18238(19) 0.1140(5) 0.37290(12) 0.0264 1.0000 Uani . . . . . .
C5 C 0.32497(19) 0.2516(5) 0.41515(12) 0.0281 1.0000 Uani . . . . . .
N6 N 0.34867(17) 0.3052(5) 0.50411(11) 0.0343 1.0000 Uani . . . . . .
S7 S 0.19752(5) 0.18352(15) 0.53186(3) 0.0333 1.0000 Uani . . . . . .
N8 N 0.09882(17) 0.0631(5) 0.42961(10) 0.0322 1.0000 Uani . . . . . .
loop_
_atom_site_aniso_label
_atom_site_aniso_U_11
_atom_site_aniso_U_22
_atom_site_aniso_U_33
_atom_site_aniso_U_23
_atom_site_aniso_U_13
_atom_site_aniso_U_12
S1 0.0282(3) 0.0571(3) 0.0348(3) 0.0099(2) 0.0163(2) 0.0042(2)
N2 0.0398(9) 0.0532(11) 0.0301(8) 0.0055(8) 0.0187(7) 0.0078(8)
S3 0.0357(3) 0.0516(3) 0.0224(2) -0.0004(2) 0.00948(18) 0.0029(2)
C4 0.0265(8) 0.0300(9) 0.0240(8) 0.0023(7) 0.0085(7) 0.0029(7)
C5 0.0253(8) 0.0329(9) 0.0275(8) 0.0055(7) 0.0095(7) 0.0032(7)
N6 0.0285(8) 0.0468(10) 0.0282(8) -0.0004(7) 0.0080(6) -0.0045(7)
S7 0.0314(3) 0.0471(3) 0.0233(2) -0.00200(19) 0.01070(18) -0.0062(2)
N8 0.0288(8) 0.0437(9) 0.0252(7) -0.0007(7) 0.0091(6) -0.0045(7)
loop_
_atom_type_symbol
_atom_type_scat_dispersion_real
_atom_type_scat_dispersion_imag
_atom_type_scat_Cromer_Mann_a1
_atom_type_scat_Cromer_Mann_b1
_atom_type_scat_Cromer_Mann_a2
_atom_type_scat_Cromer_Mann_b2
_atom_type_scat_Cromer_Mann_a3
_atom_type_scat_Cromer_Mann_b3
_atom_type_scat_Cromer_Mann_a4
_atom_type_scat_Cromer_Mann_b4
_atom_type_scat_Cromer_Mann_c
_atom_type_scat_source
C 0.0033 0.0016 2.3100 20.8439 1.0200 10.2075 1.5886 0.5687 0.8650 51.6512
0.2156 'International Tables Vol C 4.2.6.8 and 6.1.1.4'
N 0.0061 0.0033 12.2126 0.0057 3.1322 9.8933 2.0125 28.9975 1.1663 0.5826
-11.5290 'International Tables Vol C 4.2.6.8 and 6.1.1.4'
S 0.1246 0.1234 6.9053 1.4679 5.2034 22.2151 1.4379 0.2536 1.5863 56.1720
0.8669 'International Tables Vol C 4.2.6.8 and 6.1.1.4'
loop_
_geom_angle_atom_site_label_1
_geom_angle_site_symmetry_1
_geom_angle_atom_site_label_2
_geom_angle_site_symmetry_2
_geom_angle_atom_site_label_3
_geom_angle_site_symmetry_3
_geom_angle
_geom_angle_publ_flag
N2 . S1 . C5 . 97.87(9) yes
S1 . N2 . S3 . 116.80(10) yes
N2 . S3 . C4 . 98.02(8) yes
S3 . C4 . C5 . 113.42(13) yes
S3 . C4 . N8 . 132.13(14) yes
C5 . C4 . N8 . 114.44(16) yes
C4 . C5 . S1 . 113.89(13) yes
C4 . C5 . N6 . 114.00(15) yes
S1 . C5 . N6 . 132.11(14) yes
C5 . N6 . S7 . 106.27(13) yes
N6 . S7 . N8 . 99.19(8) yes
C4 . N8 . S7 . 106.10(12) yes
loop_
_geom_bond_atom_site_label_1
_geom_bond_site_symmetry_1
_geom_bond_atom_site_label_2
_geom_bond_site_symmetry_2
_geom_bond_distance
_geom_bond_publ_flag
S1 . N2 . 1.6579(19) yes
S1 . C5 . 1.7326(18) yes
N2 . S3 . 1.6558(18) yes
S3 . C4 . 1.7361(18) yes
C4 . C5 . 1.431(2) yes
C4 . N8 . 1.313(2) yes
C5 . N6 . 1.316(2) yes
N6 . S7 . 1.6472(16) yes
S7 . N8 . 1.6482(16) yes
