#------------------------------------------------------------------------------
#$Date: 2021-04-05 17:36:56 +0300 (Mon, 05 Apr 2021) $
#$Revision: 263737 $
#$URL: file:///home/coder/svn-repositories/cod/cif/7/24/23/7242318.cif $
#------------------------------------------------------------------------------
#
# This file is available in the Crystallography Open Database (COD),
# http://www.crystallography.net/
#
# All data on this site have been placed in the public domain by the
# contributors.
#
data_7242318
loop_
_publ_author_name
'Mezentsev-Cherkes, Ivan A.'
'Shestimerova, Tatiana A.'
'Medved'ko, Aleksei V.'
'Kalinin, Mikhail A.'
'Kuznetsov, Alexey N.'
'Wei, Zheng'
'Dikarev, Evgeny V.'
'Vatsadze, Sergey Z.'
'Shevelkov, Andrei V.'
_publ_section_title
;
 Synthesis and supramolecular organization of the iodide and triiodides of
 a polycyclic adamantane-based diammonium cation: the effects of hydrogen
 bonds and weak I&#x22EF;I interactions
;
_journal_issue                   12
_journal_name_full               CrystEngComm
_journal_page_first              2384
_journal_page_last               2395
_journal_paper_doi               10.1039/D0CE01730B
_journal_volume                  23
_journal_year                    2021
_chemical_formula_moiety         'C10 H20 N2, I3, I'
_chemical_formula_sum            'C10 H20 I4 N2'
_chemical_formula_weight         675.9
_space_group_IT_number           2
_space_group_name_Hall           '-P 1'
_space_group_name_H-M_alt        'P -1'
_symmetry_cell_setting           triclinic
_symmetry_Int_Tables_number      2
_symmetry_space_group_name_Hall  '-P 1'
_symmetry_space_group_name_H-M   'P -1'
_audit_update_record
;
2020-09-28 deposited with the CCDC.	2021-02-23 downloaded from the CCDC.
;
_cell_angle_alpha                95.7390(10)
_cell_angle_beta                 98.8219(9)
_cell_angle_gamma                96.0700(9)
_cell_formula_units_Z            2
_cell_length_a                   8.15439(12)
_cell_length_b                   8.70472(13)
_cell_length_c                   13.0978(2)
_cell_measurement_temperature    293
_cell_volume                     907.14(2)
_diffrn_ambient_temperature      293
_diffrn_measurement_device       'Image plate'
_diffrn_measurement_device_type  'Huber 670'
_diffrn_radiation_probe          x-ray
_diffrn_radiation_type           CuKa
_diffrn_radiation_wavelength     1.54059
_exptl_absorpt_coefficient_mu    54.361
_exptl_crystal_density_diffrn    2.4745
_exptl_crystal_F_000             612
_pd_meas_2theta_range_inc        0.005
_pd_meas_2theta_range_max        84.915
_pd_meas_2theta_range_min        3.000
_pd_meas_number_of_points        16384
_pd_proc_2theta_range_inc        0.005
_pd_proc_2theta_range_max        84.915
_pd_proc_2theta_range_min        4.005
_pd_proc_ls_background_function  '17 Legendre polynoms'
_pd_proc_ls_pref_orient_corr     none
_pd_proc_ls_profile_function     Pseudo-Voigt
_pd_proc_ls_prof_R_factor        0.0294
_pd_proc_ls_prof_wR_expected     0.0282
_pd_proc_ls_prof_wR_factor       0.0372
_refine_ls_goodness_of_fit_all   1.32
_refine_ls_hydrogen_treatment    constr
_refine_ls_number_constraints    92
_refine_ls_number_parameters     103
_refine_ls_number_restraints     30
_refine_ls_R_factor_all          0.0259
_refine_ls_R_factor_gt           0.0259
_refine_ls_shift/su_max          0.6296
_refine_ls_shift/su_mean         0.073
_refine_ls_weighting_scheme      sigma
_refine_ls_wR_factor_all         0.0342
_refine_ls_wR_factor_gt          0.0342
_cod_data_source_file            d0ce01730b2.cif
_cod_data_source_block           I
_cod_depositor_comments
'Adding full bibliography for 7242315--7242318.cif.'
_cod_database_code               7242318
_publcif_datablock.id            {07922a0a-bfa4-470e-9475-77df1f8d54af}
loop_
_space_group_symop_id
_space_group_symop_operation_xyz
1 x,y,z
2 -x,-y,-z
loop_
_atom_site_label
_atom_site_type_symbol
_atom_site_fract_x
_atom_site_fract_y
_atom_site_fract_z
_atom_site_adp_type
_atom_site_U_iso_or_equiv
_atom_site_site_symmetry_multiplicity
_atom_site_occupancy
_atom_site_calc_flag
_atom_site_refinement_flags
_atom_site_disorder_assembly
_atom_site_disorder_group
I1 I 0.7477(2) 0.7477(2) 0.49592(14) Uani 0.0383(12) 2 1 d . . .
I2 I 0.4325(3) 0.7717(3) 0.8807(2) Uani 0.0409(14) 2 1 d . . .
I3 I 0.6425(2) 0.7169(2) 1.07413(15) Uani 0.0440(15) 2 1 d . . .
I4 I 0.2421(2) 0.8359(2) 0.6900(2) Uani 0.0389(14) 2 1 d . . .
N1 N 0.3737(7) 0.7395(7) 0.3250(4) Uiso 0.0325 2 1 d . . .
N2 N 0.0909(7) 0.7203(5) 0.3683(4) Uiso 0.0325 2 1 d . . .
C1 C 0.3442(4) 0.8733(5) 0.2536(2) Uiso 0.0033 2 1 d . . .
C2 C 0.1490(4) 0.6605(3) 0.1557(5) Uiso 0.0033 2 1 d . . .
C3 C 0.1736(4) 0.5513(5) 0.2238(3) Uiso 0.0033 2 1 d . . .
C4 C 0.3200(4) 0.5683(5) 0.2823(2) Uiso 0.0033 2 1 d . . .
C5 C 0.2685(3) 0.7651(4) 0.4087(4) Uiso 0.0033 2 1 d . . .
C6 C 0.0540(6) 0.8405(4) 0.2877(2) Uiso 0.0033 2 1 d . . .
C7 C 0.1837(5) 0.8452(5) 0.2034(3) Uiso 0.0033 2 1 d . . .
C8 C 0.0409(5) 0.5680(4) 0.2967(2) Uiso 0.0033 2 1 d . . .
C9 C 0.1296(3) 0.3984(3) 0.1772(2) Uiso 0.0033 2 1 d . . .
C10 C 0.1266(5) 0.9696(3) 0.1402(2) Uiso 0.0033 2 1 d . . .
H1c1 H 0.421005 0.870995 0.20197 Uiso 0.004 2 1 d . . .
H2c1 H 0.361133 0.974937 0.297522 Uiso 0.004 2 1 d . . .
H1c2 H 0.21471 0.642323 0.098998 Uiso 0.004 2 1 d . . .
H2c2 H 0.034819 0.637651 0.114758 Uiso 0.004 2 1 d . . .
H1c4 H 0.402933 0.5309 0.240933 Uiso 0.004 2 1 d . . .
H2c4 H 0.315824 0.505197 0.34086 Uiso 0.004 2 1 d . . .
H1c5 H 0.287177 0.876137 0.437838 Uiso 0.004 2 1 d . . .
H2c5 H 0.303489 0.703664 0.466088 Uiso 0.004 2 1 d . . .
H1c6 H -0.062203 0.814821 0.25012 Uiso 0.004 2 1 d . . .
H2c6 H 0.059226 0.945669 0.325616 Uiso 0.004 2 1 d . . .
H1c8 H -0.0701 0.570068 0.254194 Uiso 0.004 2 1 d . . .
H2c8 H 0.0382 0.479941 0.339008 Uiso 0.004 2 1 d . . .
H1c9 H 0.019671 0.357623 0.193282 Uiso 0.0049 2 1 d . . .
H2c9 H 0.122742 0.395589 0.100892 Uiso 0.0049 2 1 d . . .
H3c9 H 0.215166 0.333521 0.204299 Uiso 0.0049 2 1 d . . .
H1c10 H 0.07911 1.046827 0.184206 Uiso 0.0049 2 1 d . . .
H2c10 H 0.222855 1.021893 0.113942 Uiso 0.0049 2 1 d . . .
H3c10 H 0.040094 0.922394 0.080659 Uiso 0.0049 2 1 d . . .
H1n1 H 0.487171 0.748807 0.341056 Uiso 0.039 2 1 d . . .
H1n2 H 0.038638 0.714825 0.42461 Uiso 0.039 2 1 d . . .
loop_
_atom_site_aniso_label
_atom_site_aniso_type_symbol
_atom_site_aniso_U_11
_atom_site_aniso_U_22
_atom_site_aniso_U_33
_atom_site_aniso_U_12
_atom_site_aniso_U_13
_atom_site_aniso_U_23
I1 I 0.024(2) 0.061(2) 0.031(2) 0.015(2) 0.0039(13) -0.0035(15)
I2 I 0.035(2) 0.042(2) 0.048(2) 0.016(2) 0.003(2) 0.011(2)
I3 I 0.022(2) 0.056(3) 0.057(3) 0.010(2) 0.010(2) 0.014(2)
I4 I 0.028(2) 0.044(2) 0.044(2) -0.012(2) 0.013(2) 0.008(2)
loop_
_atom_type_symbol
_atom_type_scat_dispersion_real
_atom_type_scat_dispersion_imag
_atom_type_scat_source
C 0.0191 0.0096 'International Tables Vol C tables 4.2.6.8 and 6.1.1.1'
H 0.0000 0.0000 'International Tables Vol C tables 4.2.6.8 and 6.1.1.1'
I -0.2903 6.8874 'International Tables Vol C tables 4.2.6.8 and 6.1.1.1'
N 0.0329 0.0188 'International Tables Vol C tables 4.2.6.8 and 6.1.1.1'
loop_
_exptl_crystal_face_index_h
_exptl_crystal_face_index_k
_exptl_crystal_face_index_l
_exptl_crystal_face_perp_dist
? ? ? ?
loop_
_geom_angle_atom_site_label_1
_geom_angle_atom_site_label_2
_geom_angle_atom_site_label_3
_geom_angle_site_symmetry_1
_geom_angle_site_symmetry_2
_geom_angle_site_symmetry_3
_geom_angle
_geom_angle_publ_flag
N1 I1 N2 . . 1_655 112.82(14) ?
I1 N1 C4 . . . 105.9(3) ?
I1 N1 C5 . . . 95.3(3) ?
I1 N1 H1n1 . . . 26.83 ?
C4 N1 C5 . . . 103.0(4) ?
C4 N1 H1n1 . . . 105.16 ?
C5 N1 H1n1 . . . 120.78 ?
I1 N2 C5 1_455 . . 129.1(3) ?
I1 N2 C8 1_455 . . 102.8(3) ?
I1 N2 H1n2 1_455 . . 27.03 ?
C5 N2 C8 . . . 117.7(4) ?
C5 N2 H1n2 . . . 106.44 ?
C8 N2 H1n2 . . . 108.39 ?
C7 C1 H1c1 . . . 109.45 ?
C7 C1 H2c1 . . . 109.5 ?
H1c1 C1 H2c1 . . . 111.47 ?
C3 C2 H1c2 . . . 109.48 ?
C3 C2 H2c2 . . . 109.48 ?
H1c2 C2 H2c2 . . . 99.33 ?
C2 C3 C4 . . . 115.5(4) ?
C2 C3 C8 . . . 105.7(4) ?
C2 C3 C9 . . . 113.6(3) ?
C4 C3 C8 . . . 107.7(3) ?
C4 C3 C9 . . . 111.1(4) ?
C8 C3 C9 . . . 101.9(3) ?
N1 C4 C3 . . . 110.6(4) ?
N1 C4 H1c4 . . . 109.48 ?
N1 C4 H2c4 . . . 109.45 ?
C3 C4 H1c4 . . . 109.44 ?
C3 C4 H2c4 . . . 109.48 ?
H1c4 C4 H2c4 . . . 108.38 ?
N1 C5 N2 . . . 111.4(4) ?
N1 C5 H1c5 . . . 109.48 ?
N1 C5 H2c5 . . . 109.49 ?
N2 C5 H1c5 . . . 109.49 ?
N2 C5 H2c5 . . . 109.48 ?
H1c5 C5 H2c5 . . . 107.42 ?
H1c6 C6 H2c6 . . . 105.72 ?
C1 C7 C10 . . . 115.2(3) ?
N2 C8 C3 . . . 108.3(4) ?
N2 C8 H1c8 . . . 109.5 ?
N2 C8 H2c8 . . . 109.45 ?
C3 C8 H1c8 . . . 109.45 ?
C3 C8 H2c8 . . . 109.48 ?
H1c8 C8 H2c8 . . . 110.6 ?
C3 C9 H1c9 . . . 109.48 ?
C3 C9 H2c9 . . . 109.49 ?
C3 C9 H3c9 . . . 109.45 ?
H1c9 C9 H2c9 . . . 109.46 ?
H1c9 C9 H3c9 . . . 109.47 ?
H2c9 C9 H3c9 . . . 109.48 ?
C7 C10 H1c10 . . . 109.45 ?
C7 C10 H2c10 . . . 109.48 ?
C7 C10 H3c10 . . . 109.48 ?
H1c10 C10 H2c10 . . . 109.46 ?
H1c10 C10 H3c10 . . . 109.5 ?
H2c10 C10 H3c10 . . . 109.46 ?
loop_
_geom_bond_atom_site_label_1
_geom_bond_atom_site_label_2
_geom_bond_site_symmetry_1
_geom_bond_site_symmetry_2
_geom_bond_distance
_geom_bond_publ_flag
I1 N1 . . 3.485(6) ?
I1 N2 . 1_655 3.490(6) ?
N1 C4 . . 1.532(7) ?
N1 C5 . . 1.506(8) ?
N1 H1n1 . . 0.9099 ?
N2 C5 . . 1.460(6) ?
N2 C8 . . 1.525(6) ?
N2 H1n2 . . 0.91 ?
C1 C7 . . 1.357(5) ?
C1 H1c1 . . 0.9899 ?
C1 H2c1 . . 0.9901 ?
C2 C3 . . 1.377(7) ?
C2 H1c2 . . 0.9899 ?
C2 H2c2 . . 0.99 ?
C3 C4 . . 1.301(5) ?
C3 C8 . . 1.557(5) ?
C3 C9 . . 1.393(5) ?
C4 H1c4 . . 0.9898 ?
C4 H2c4 . . 0.9899 ?
C5 H1c5 . . 0.99 ?
C5 H2c5 . . 0.9899 ?
C6 H1c6 . . 0.99 ?
C6 H2c6 . . 0.99 ?
C7 C10 . . 1.498(5) ?
C8 H1c8 . . 0.99 ?
C8 H2c8 . . 0.9899 ?
C9 H1c9 . . 0.9898 ?
C9 H2c9 . . 0.9902 ?
C9 H3c9 . . 0.9898 ?
C10 H1c10 . . 0.9899 ?
C10 H2c10 . . 0.9898 ?
C10 H3c10 . . 0.9902 ?
loop_
_geom_hbond_atom_site_label_D
_geom_hbond_atom_site_label_H
_geom_hbond_atom_site_label_A
_geom_hbond_site_symmetry_D
_geom_hbond_site_symmetry_H
_geom_hbond_site_symmetry_A
_geom_hbond_distance_DH
_geom_hbond_distance_HA
_geom_hbond_distance_DA
_geom_hbond_angle_DHA
_geom_hbond_publ_flag
? ? ? ? ? ? ? ? ? ? ?
loop_
_geom_torsion_atom_site_label_1
_geom_torsion_atom_site_label_2
_geom_torsion_atom_site_label_3
_geom_torsion_atom_site_label_4
_geom_torsion_site_symmetry_1
_geom_torsion_site_symmetry_2
_geom_torsion_site_symmetry_3
_geom_torsion_site_symmetry_4
_geom_torsion
_geom_torsion_publ_flag
? ? ? ? ? ? ? ? ? ?
loop_
_pd_proc_point_id
_pd_proc_2theta_corrected
_pd_proc_d_spacing
_pd_proc_intensity_net
_pd_calc_intensity_net
_pd_proc_ls_weight
1 3.9880 22.138197 1004.00 1025.64 31.69
2 3.9930 22.110487 976.00 1025.17 31.24
3 3.9980 22.082846 994.00 1024.69 31.53
4 4.0030 22.055275 1022.00 1024.23 31.97
5 4.0080 22.027771 1015.00 1023.77 31.86
6 4.0130 22.000336 1024.00 1023.31 32.00
7 4.0180 21.972971 1027.00 1022.85 32.05
8 4.0230 21.945675 1044.00 1022.40 32.31
9 4.0280 21.918444 1045.00 1021.95 32.33
10 4.0330 21.891279 1027.00 1021.51 32.05
11 4.0380 21.864185 1030.00 1021.07 32.09
12 4.0430 21.837156 1025.00 1020.63 32.02
13 4.0480 21.810194 989.00 1020.20 31.45
14 4.0530 21.783300 992.00 1019.77 31.50
15 4.0580 21.756470 1028.00 1019.34 32.06
16 4.0630 21.729708 1006.00 1018.92 31.72
17 4.0680 21.703012 991.00 1018.50 31.48
18 4.0730 21.676380 991.00 1018.09 31.48
19 4.0780 21.649815 1003.00 1017.68 31.67
20 4.0830 21.623312 1034.00 1017.27 32.16
21 4.0880 21.596878 1021.00 1016.87 31.95
22 4.0930 21.570505 994.00 1016.47 31.53
23 4.0980 21.544199 1013.00 1016.07 31.83
24 4.1030 21.517954 1017.00 1015.68 31.89
25 4.1080 21.491777 1006.00 1015.29 31.72
26 4.1130 21.465662 983.00 1014.90 31.35
27 4.1180 21.439608 978.00 1014.52 31.27
28 4.1230 21.413620 977.00 1014.14 31.26
29 4.1280 21.387697 974.00 1013.76 31.21
30 4.1330 21.361832 957.00 1013.39 30.94
31 4.1380 21.336031 977.00 1013.02 31.26
32 4.1430 21.310293 997.00 1012.65 31.58
33 4.1480 21.284616 991.00 1012.29 31.48
34 4.1530 21.259003 1012.00 1011.93 31.81
35 4.1580 21.233450 1017.00 1011.58 31.89
36 4.1630 21.207956 1037.00 1011.22 32.20
37 4.1680 21.182526 1013.00 1010.87 31.83
38 4.1730 21.157158 986.00 1010.53 31.40
39 4.1780 21.131849 964.00 1010.18 31.05
40 4.1830 21.106602 986.00 1009.85 31.40
41 4.1880 21.081413 1027.00 1009.51 32.05
42 4.1930 21.056288 1068.00 1009.18 32.68
43 4.1980 21.031218 1055.00 1008.85 32.48
44 4.2030 21.006210 1003.00 1008.52 31.67
45 4.2080 20.981260 974.00 1008.20 31.21
46 4.2130 20.956373 985.00 1007.88 31.38
47 4.2180 20.931541 1011.00 1007.56 31.80
48 4.2230 20.906769 1019.00 1007.24 31.92
49 4.2280 20.882055 1015.00 1006.93 31.86
50 4.2330 20.857403 995.00 1006.63 31.54
51 4.2380 20.832806 987.00 1006.32 31.42
52 4.2430 20.808268 998.00 1006.02 31.59
53 4.2480 20.783785 1007.00 1005.72 31.73
54 4.2530 20.759367 1006.00 1005.43 31.72
55 4.2580 20.734999 989.00 1005.13 31.45
56 4.2630 20.710690 945.00 1004.84 30.74
57 4.2680 20.686438 939.00 1004.56 30.64
58 4.2730 20.662245 948.00 1004.27 30.79
59 4.2780 20.638105 942.00 1003.99 30.69
60 4.2830 20.614025 986.00 1003.72 31.40
61 4.2880 20.589998 1008.00 1003.44 31.75
62 4.2930 20.566027 1043.00 1003.17 32.30
63 4.2980 20.542116 1034.00 1002.90 32.16
64 4.3030 20.518257 1015.00 1002.64 31.86
65 4.3080 20.494453 1011.00 1002.37 31.80
66 4.3130 20.470703 1008.00 1002.11 31.75
67 4.3180 20.447014 1033.00 1001.85 32.14
68 4.3230 20.423374 1029.00 1001.60 32.08
69 4.3280 20.399792 989.00 1001.35 31.45
70 4.3330 20.376263 985.00 1001.10 31.38
71 4.3380 20.352789 981.00 1000.85 31.32
72 4.3430 20.329369 992.00 1000.61 31.50
73 4.3480 20.306000 995.00 1000.37 31.54
74 4.3530 20.282688 958.00 1000.13 30.95
75 4.3580 20.259428 928.00 999.90 30.46
76 4.3630 20.236223 950.00 999.67 30.82
77 4.3680 20.213068 999.00 999.44 31.61
78 4.3730 20.189968 1044.00 999.21 32.31
79 4.3780 20.166924 1067.00 998.99 32.67
80 4.3830 20.143929 1027.00 998.77 32.05
81 4.3880 20.120985 985.00 998.55 31.38
82 4.3930 20.098093 954.00 998.33 30.89
83 4.3980 20.075258 951.00 998.12 30.84
84 4.4030 20.052473 961.00 997.91 31.00
85 4.4080 20.029737 1009.00 997.70 31.76
86 4.4130 20.007053 1003.00 997.49 31.67
87 4.4180 19.984423 1004.00 997.29 31.69
88 4.4230 19.961843 963.00 997.09 31.03
89 4.4280 19.939314 963.00 996.90 31.03
90 4.4330 19.916834 970.00 996.70 31.14
91 4.4380 19.894405 988.00 996.51 31.43
92 4.4430 19.872030 995.00 996.32 31.54
93 4.4480 19.849703 993.00 996.13 31.51
94 4.4530 19.827427 982.00 995.95 31.34
95 4.4580 19.805199 995.00 995.76 31.54
96 4.4630 19.783024 990.00 995.58 31.46
97 4.4680 19.760897 999.00 995.41 31.61
98 4.4730 19.738817 1065.00 995.23 32.63
99 4.4780 19.716789 1021.00 995.06 31.95
100 4.4830 19.694811 955.00 994.89 30.90
101 4.4880 19.672880 929.00 994.72 30.48
102 4.4930 19.650997 965.00 994.56 31.06
103 4.4980 19.629164 987.00 994.39 31.42
104 4.5030 19.607380 988.00 994.23 31.43
105 4.5080 19.585644 987.00 994.07 31.42
106 4.5130 19.563955 994.00 993.92 31.53
107 4.5180 19.542315 961.00 993.77 31.00
108 4.5230 19.520723 972.00 993.61 31.18
109 4.5280 19.499180 950.00 993.47 30.82
110 4.5330 19.477682 965.00 993.32 31.06
111 4.5380 19.456232 974.00 993.17 31.21
112 4.5430 19.434830 982.00 993.03 31.34
113 4.5480 19.413477 1045.00 992.89 32.33
114 4.5530 19.392168 1061.00 992.76 32.57
115 4.5580 19.370905 981.00 992.62 31.32
116 4.5630 19.349689 951.00 992.49 30.84
117 4.5680 19.328524 984.00 992.36 31.37
118 4.5730 19.307400 994.00 992.23 31.53
119 4.5780 19.286324 983.00 992.10 31.35
120 4.5830 19.265293 1008.00 991.98 31.75
121 4.5880 19.244310 1027.00 991.86 32.05
122 4.5930 19.223373 1063.00 991.74 32.60
123 4.5980 19.202478 1060.00 991.62 32.56
124 4.6030 19.181631 1067.00 991.51 32.67
125 4.6080 19.160830 1034.00 991.39 32.16
126 4.6130 19.140074 998.00 991.28 31.59
127 4.6180 19.119360 1016.00 991.17 31.87
128 4.6230 19.098692 1037.00 991.07 32.20
129 4.6280 19.078072 1022.00 990.96 31.97
130 4.6330 19.057491 1006.00 990.86 31.72
131 4.6380 19.036959 1047.00 990.76 32.36
132 4.6430 19.016468 1018.00 990.66 31.91
133 4.6480 18.996023 933.00 990.56 30.55
134 4.6530 18.975622 894.00 990.47 29.90
135 4.6580 18.955265 928.00 990.38 30.46
136 4.6630 18.934950 961.00 990.29 31.00
137 4.6680 18.914679 941.00 990.20 30.68
138 4.6730 18.894453 912.00 990.11 30.20
139 4.6780 18.874269 936.00 990.03 30.59
140 4.6830 18.854128 975.00 989.94 31.23
141 4.6880 18.834030 984.00 989.86 31.37
142 4.6930 18.813976 988.00 989.78 31.43
143 4.6980 18.793964 975.00 989.71 31.23
144 4.7030 18.773994 986.00 989.63 31.40
145 4.7080 18.754066 996.00 989.56 31.56
146 4.7130 18.734182 1016.00 989.49 31.87
147 4.7180 18.714340 1028.00 989.42 32.06
148 4.7230 18.694538 1028.00 989.35 32.06
149 4.7280 18.674780 1058.00 989.29 32.53
150 4.7330 18.655064 1013.00 989.23 31.83
151 4.7380 18.635387 993.00 989.16 31.51
152 4.7430 18.615753 1000.00 989.10 31.62
153 4.7480 18.596161 981.00 989.05 31.32
154 4.7530 18.576611 989.00 988.99 31.45
155 4.7580 18.557098 1024.00 988.94 32.00
156 4.7630 18.537628 1021.00 988.89 31.95
157 4.7680 18.518202 998.00 988.83 31.59
158 4.7730 18.498816 1012.00 988.78 31.81
159 4.7780 18.479467 1020.00 988.74 31.94
160 4.7830 18.460159 1018.00 988.69 31.91
161 4.7880 18.440893 973.00 988.65 31.19
162 4.7930 18.421667 943.00 988.61 30.71
163 4.7980 18.402481 931.00 988.57 30.51
164 4.8030 18.383335 930.00 988.53 30.50
165 4.8080 18.364229 947.00 988.49 30.77
166 4.8130 18.345161 924.00 988.46 30.40
167 4.8180 18.326138 912.00 988.42 30.20
168 4.8230 18.307148 949.00 988.39 30.81
169 4.8280 18.288198 985.00 988.36 31.38
170 4.8330 18.269291 1026.00 988.34 32.03
171 4.8380 18.250422 1080.00 988.31 32.86
172 4.8430 18.231590 1064.00 988.28 32.62
173 4.8480 18.212797 1033.00 988.26 32.14
174 4.8530 18.194044 1025.00 988.24 32.02
175 4.8580 18.175331 1045.00 988.22 32.33
176 4.8630 18.156654 1040.00 988.20 32.25
177 4.8680 18.138016 1050.00 988.18 32.40
178 4.8730 18.119415 1044.00 988.17 32.31
179 4.8780 18.100857 1010.00 988.16 31.78
180 4.8830 18.082333 1024.00 988.14 32.00
181 4.8880 18.063847 1059.00 988.13 32.54
182 4.8930 18.045399 1034.00 988.12 32.16
183 4.8980 18.026991 987.00 988.11 31.42
184 4.9030 18.008617 989.00 988.11 31.45
185 4.9080 17.990280 1003.00 988.10 31.67
186 4.9130 17.971983 978.00 988.10 31.27
187 4.9180 17.953722 943.00 988.10 30.71
188 4.9230 17.935501 961.00 988.10 31.00
189 4.9280 17.917315 978.00 988.10 31.27
190 4.9330 17.899164 973.00 988.11 31.19
191 4.9380 17.881052 994.00 988.11 31.53
192 4.9430 17.862976 1009.00 988.12 31.76
193 4.9480 17.844936 1011.00 988.12 31.80
194 4.9530 17.826933 1015.00 988.13 31.86
195 4.9580 17.808966 1008.00 988.14 31.75
196 4.9630 17.791037 986.00 988.16 31.40
197 4.9680 17.773142 971.00 988.17 31.16
198 4.9730 17.755283 961.00 988.18 31.00
199 4.9780 17.737461 944.00 988.20 30.72
200 4.9830 17.719675 958.00 988.22 30.95
201 4.9880 17.701923 984.00 988.23 31.37
202 4.9930 17.684206 980.00 988.25 31.31
203 4.9980 17.666527 972.00 988.28 31.18
204 5.0030 17.648884 958.00 988.30 30.95
205 5.0080 17.631273 966.00 988.32 31.08
206 5.0130 17.613699 1024.00 988.35 32.00
207 5.0180 17.596159 1052.00 988.38 32.43
208 5.0230 17.578655 1026.00 988.40 32.03
209 5.0280 17.561186 1014.00 988.43 31.84
210 5.0330 17.543751 1004.00 988.46 31.69
211 5.0380 17.526350 1006.00 988.49 31.72
212 5.0430 17.508984 1057.00 988.53 32.51
213 5.0480 17.491653 1068.00 988.56 32.68
214 5.0530 17.474356 1034.00 988.60 32.16
215 5.0580 17.457092 1008.00 988.64 31.75
216 5.0630 17.439865 1024.00 988.67 32.00
217 5.0680 17.422670 1049.00 988.71 32.39
218 5.0730 17.405510 1031.00 988.76 32.11
219 5.0780 17.388382 1028.00 988.80 32.06
220 5.0830 17.371288 1026.00 988.84 32.03
221 5.0880 17.354229 1043.00 988.89 32.30
222 5.0930 17.337204 1037.00 988.93 32.20
223 5.0980 17.320211 1015.00 988.98 31.86
224 5.1030 17.303249 1031.00 989.03 32.11
225 5.1080 17.286325 1011.00 989.07 31.80
226 5.1130 17.269432 1000.00 989.13 31.62
227 5.1180 17.252571 1018.00 989.18 31.91
228 5.1230 17.235744 1030.00 989.23 32.09
229 5.1280 17.218950 1033.00 989.28 32.14
230 5.1330 17.202188 1004.00 989.34 31.69
231 5.1380 17.185459 1012.00 989.39 31.81
232 5.1430 17.168762 991.00 989.45 31.48
233 5.1480 17.152100 965.00 989.51 31.06
234 5.1530 17.135468 977.00 989.57 31.26
235 5.1580 17.118868 998.00 989.63 31.59
236 5.1630 17.102301 997.00 989.69 31.58
237 5.1680 17.085766 1009.00 989.75 31.76
238 5.1730 17.069263 1007.00 989.82 31.73
239 5.1780 17.052792 985.00 989.88 31.38
240 5.1830 17.036352 938.00 989.95 30.63
241 5.1880 17.019943 926.00 990.02 30.43
242 5.1930 17.003569 937.00 990.08 30.61
243 5.1980 16.987223 926.00 990.15 30.43
244 5.2030 16.970909 966.00 990.22 31.08
245 5.2080 16.954628 957.00 990.29 30.94
246 5.2130 16.938379 956.00 990.37 30.92
247 5.2180 16.922159 1027.00 990.44 32.05
248 5.2230 16.905970 1087.00 990.51 32.97
249 5.2280 16.889811 1102.00 990.59 33.20
250 5.2330 16.873686 1108.00 990.67 33.29
251 5.2380 16.857590 1068.00 990.74 32.68
252 5.2430 16.841524 1089.00 990.82 33.00
253 5.2480 16.825489 1043.00 990.90 32.30
254 5.2530 16.809488 997.00 990.98 31.58
255 5.2580 16.793512 1031.00 991.06 32.11
256 5.2630 16.777569 1009.00 991.14 31.76
257 5.2680 16.761656 1016.00 991.23 31.87
258 5.2730 16.745775 980.00 991.31 31.31
259 5.2780 16.729923 972.00 991.83 31.18
260 5.2830 16.714098 966.00 991.94 31.08
261 5.2880 16.698307 1010.00 992.05 31.78
262 5.2930 16.682543 962.00 992.16 31.02
263 5.2980 16.666811 949.00 992.28 30.81
264 5.3030 16.651108 981.00 992.40 31.32
265 5.3080 16.635433 964.00 992.52 31.05
266 5.3130 16.619789 984.00 992.64 31.37
267 5.3180 16.604176 1008.00 992.77 31.75
268 5.3230 16.588589 996.00 992.90 31.56
269 5.3280 16.573034 998.00 993.03 31.59
270 5.3330 16.557505 982.00 993.16 31.34
271 5.3380 16.542009 974.00 993.29 31.21
272 5.3430 16.526539 1010.00 993.42 31.78
273 5.3480 16.511099 1000.00 993.56 31.62
274 5.3530 16.495687 1015.00 993.70 31.86
275 5.3580 16.480307 995.00 993.84 31.54
276 5.3630 16.464952 984.00 993.98 31.37
277 5.3680 16.449627 930.00 994.12 30.50
278 5.3730 16.434330 986.00 994.26 31.40
279 5.3780 16.419064 994.00 994.41 31.53
280 5.3830 16.403824 1029.00 994.55 32.08
281 5.3880 16.388613 1040.00 994.70 32.25
282 5.3930 16.373428 1021.00 994.85 31.95
283 5.3980 16.358274 941.00 995.00 30.68
284 5.4030 16.343147 963.00 995.15 31.03
285 5.4080 16.328049 1013.00 995.30 31.83
286 5.4130 16.312977 1005.00 995.45 31.70
287 5.4180 16.297934 975.00 995.60 31.23
288 5.4230 16.282919 961.00 995.76 31.00
289 5.4280 16.267931 996.00 995.91 31.56
290 5.4330 16.252970 996.00 996.07 31.56
291 5.4380 16.238037 1071.00 996.23 32.73
292 5.4430 16.223133 1071.00 996.39 32.73
293 5.4480 16.208256 1049.00 996.55 32.39
294 5.4530 16.193403 1028.00 996.71 32.06
295 5.4580 16.178579 1002.00 996.87 31.65
296 5.4630 16.163786 960.00 997.03 30.98
297 5.4680 16.149015 919.00 997.20 30.32
298 5.4730 16.134272 946.00 997.36 30.76
299 5.4780 16.119558 935.00 997.53 30.58
300 5.4830 16.104870 958.00 997.69 30.95
301 5.4880 16.090208 973.00 997.86 31.19
302 5.4930 16.075573 970.00 998.03 31.14
303 5.4980 16.060965 1004.00 998.20 31.69
304 5.5030 16.046383 1038.00 998.37 32.22
305 5.5080 16.031828 1046.00 998.54 32.34
306 5.5130 16.017298 1046.00 998.71 32.34
307 5.5180 16.002796 1038.00 998.89 32.22
308 5.5230 15.988321 1001.00 999.06 31.64
309 5.5280 15.973870 1013.00 999.24 31.83
310 5.5330 15.959446 1005.00 999.41 31.70
311 5.5380 15.945048 1005.00 999.59 31.70
312 5.5430 15.930676 988.00 999.77 31.43
313 5.5480 15.916330 982.00 999.95 31.34
314 5.5530 15.902011 964.00 1000.13 31.05
315 5.5580 15.887716 979.00 1000.31 31.29
316 5.5630 15.873447 1009.00 1000.49 31.76
317 5.5680 15.859205 964.00 1000.67 31.05
318 5.5730 15.844987 979.00 1000.86 31.29
319 5.5780 15.830794 1026.00 1001.04 32.03
320 5.5830 15.816628 1066.00 1001.23 32.65
321 5.5880 15.802488 1063.00 1001.41 32.60
322 5.5930 15.788372 1053.00 1001.60 32.45
323 5.5980 15.774281 1057.00 1001.79 32.51
324 5.6030 15.760215 1017.00 1001.98 31.89
325 5.6080 15.746176 1007.00 1002.17 31.73
326 5.6130 15.732160 1019.00 1002.36 31.92
327 5.6180 15.718170 1020.00 1002.55 31.94
328 5.6230 15.704205 1004.00 1002.75 31.69
329 5.6280 15.690265 1006.00 1002.94 31.72
330 5.6330 15.676348 1031.00 1003.13 32.11
331 5.6380 15.662457 1040.00 1003.33 32.25
332 5.6430 15.648589 1063.00 1003.53 32.60
333 5.6480 15.634749 1084.00 1003.72 32.92
334 5.6530 15.620931 1073.00 1003.92 32.76
335 5.6580 15.607137 1038.00 1004.12 32.22
336 5.6630 15.593369 1031.00 1004.32 32.11
337 5.6680 15.579624 1045.00 1004.52 32.33
338 5.6730 15.565906 1040.00 1004.72 32.25
339 5.6780 15.552209 1039.00 1004.93 32.23
340 5.6830 15.538536 1052.00 1005.13 32.43
341 5.6880 15.524888 1047.00 1005.33 32.36
342 5.6930 15.511265 1040.00 1005.54 32.25
343 5.6980 15.497665 1040.00 1005.74 32.25
344 5.7030 15.484088 1023.00 1005.95 31.98
345 5.7080 15.470536 1029.00 1006.16 32.08
346 5.7130 15.457008 1018.00 1006.37 31.91
347 5.7180 15.443502 987.00 1006.58 31.42
348 5.7230 15.430021 981.00 1006.79 31.32
349 5.7280 15.416563 958.00 1007.00 30.95
350 5.7330 15.403130 979.00 1007.21 31.29
351 5.7380 15.389719 1029.00 1007.43 32.08
352 5.7430 15.376331 1025.00 1007.64 32.02
353 5.7480 15.362967 1025.00 1007.85 32.02
354 5.7530 15.349627 1067.00 1008.07 32.67
355 5.7580 15.336308 1110.00 1008.29 33.32
356 5.7630 15.323014 1120.00 1008.51 33.47
357 5.7680 15.309742 1091.00 1008.72 33.03
358 5.7730 15.296494 1074.00 1008.94 32.77
359 5.7780 15.283269 1058.00 1009.16 32.53
360 5.7830 15.270066 1033.00 1009.38 32.14
361 5.7880 15.256885 1050.00 1009.61 32.40
362 5.7930 15.243727 1039.00 1009.83 32.23
363 5.7980 15.230595 1034.00 1010.05 32.16
364 5.8030 15.217483 1064.00 1010.28 32.62
365 5.8080 15.204392 1103.00 1010.50 33.21
366 5.8130 15.191325 1097.00 1010.73 33.12
367 5.8180 15.178282 1089.00 1010.96 33.00
368 5.8230 15.165259 1094.00 1011.19 33.08
369 5.8280 15.152260 1065.00 1011.42 32.63
370 5.8330 15.139282 1025.00 1011.65 32.02
371 5.8380 15.126328 1026.00 1011.88 32.03
372 5.8430 15.113396 1051.00 1012.11 32.42
373 5.8480 15.100484 1090.00 1012.34 33.02
374 5.8530 15.087596 1108.00 1012.58 33.29
375 5.8580 15.074730 1042.00 1012.81 32.28
376 5.8630 15.061885 980.00 1013.05 31.31
377 5.8680 15.049063 947.00 1013.28 30.77
378 5.8730 15.036261 1000.00 1013.52 31.62
379 5.8780 15.023483 1059.00 1013.76 32.54
380 5.8830 15.010725 1044.00 1014.00 32.31
381 5.8880 14.997990 990.00 1014.24 31.46
382 5.8930 14.985275 1000.00 1014.48 31.62
383 5.8980 14.972584 1019.00 1014.72 31.92
384 5.9030 14.959912 996.00 1014.97 31.56
385 5.9080 14.947263 980.00 1015.21 31.31
386 5.9130 14.934633 996.00 1015.46 31.56
387 5.9180 14.922027 1003.00 1015.70 31.67
388 5.9230 14.909443 1000.00 1015.95 31.62
389 5.9280 14.896877 975.00 1016.20 31.23
390 5.9330 14.884335 1017.00 1016.45 31.89
391 5.9380 14.871812 1036.00 1016.70 32.19
392 5.9430 14.859312 1024.00 1016.95 32.00
393 5.9480 14.846832 1036.00 1017.20 32.19
394 5.9530 14.834373 1039.00 1017.45 32.23
395 5.9580 14.821935 1036.00 1017.71 32.19
396 5.9630 14.809519 1010.00 1017.96 31.78
397 5.9680 14.797122 997.00 1018.22 31.58
398 5.9730 14.784746 1011.00 1018.48 31.80
399 5.9780 14.772391 1023.00 1018.74 31.98
400 5.9830 14.760058 1006.00 1019.00 31.72
401 5.9880 14.747745 1022.00 1019.26 31.97
402 5.9930 14.735451 1035.00 1019.52 32.17
403 5.9980 14.723178 1004.00 1019.78 31.69
404 6.0030 14.710927 984.00 1020.05 31.37
405 6.0080 14.698695 1065.00 1020.31 32.63
406 6.0130 14.686484 1089.00 1020.58 33.00
407 6.0180 14.674294 1080.00 1020.84 32.86
408 6.0230 14.662123 1046.00 1021.11 32.34
409 6.0280 14.649972 1031.00 1021.38 32.11
410 6.0330 14.637842 1003.00 1021.65 31.67
411 6.0380 14.625731 1016.00 1021.93 31.87
412 6.0430 14.613641 995.00 1022.20 31.54
413 6.0480 14.601572 1016.00 1022.47 31.87
414 6.0530 14.589521 1030.00 1022.75 32.09
415 6.0580 14.577490 1007.00 1023.03 31.73
416 6.0630 14.565480 1001.00 1023.31 31.64
417 6.0680 14.553490 1018.00 1023.59 31.91
418 6.0730 14.541519 1023.00 1023.87 31.98
419 6.0780 14.529567 1017.00 1024.15 31.89
420 6.0830 14.517635 1029.00 1024.43 32.08
421 6.0880 14.505724 1031.00 1024.72 32.11
422 6.0930 14.493832 1054.00 1025.00 32.47
423 6.0980 14.481958 1057.00 1025.29 32.51
424 6.1030 14.470104 1075.00 1025.58 32.79
425 6.1080 14.458272 1033.00 1025.87 32.14
426 6.1130 14.446457 1015.00 1026.16 31.86
427 6.1180 14.434661 1035.00 1026.45 32.17
428 6.1230 14.422885 1073.00 1026.75 32.76
429 6.1280 14.411129 1029.00 1027.04 32.08
430 6.1330 14.399391 1018.00 1027.34 31.91
431 6.1380 14.387671 1039.00 1027.64 32.23
432 6.1430 14.375972 1018.00 1027.94 31.91
433 6.1480 14.364293 1057.00 1028.24 32.51
434 6.1530 14.352632 1055.00 1028.55 32.48
435 6.1580 14.340988 1041.00 1028.85 32.26
436 6.1630 14.329365 1073.00 1029.16 32.76
437 6.1680 14.317760 1014.00 1029.47 31.84
438 6.1730 14.306174 1059.00 1029.78 32.54
439 6.1780 14.294607 1073.00 1030.09 32.76
440 6.1830 14.283058 1037.00 1030.40 32.20
441 6.1880 14.271528 1012.00 1030.72 31.81
442 6.1930 14.260018 1071.00 1031.04 32.73
443 6.1980 14.248526 1030.00 1031.36 32.09
444 6.2030 14.237052 1091.00 1031.68 33.03
445 6.2080 14.225595 1032.00 1032.00 32.12
446 6.2130 14.214159 1047.00 1032.33 32.36
447 6.2180 14.202741 1093.00 1032.65 33.06
448 6.2230 14.191340 1119.00 1032.98 33.45
449 6.2280 14.179957 1104.00 1033.31 33.23
450 6.2330 14.168595 1122.00 1033.64 33.50
451 6.2380 14.157249 1092.00 1033.98 33.05
452 6.2430 14.145922 1099.00 1034.32 33.15
453 6.2480 14.134612 1120.00 1034.65 33.47
454 6.2530 14.123322 1099.00 1035.00 33.15
455 6.2580 14.112049 1069.00 1035.34 32.70
456 6.2630 14.100793 1090.00 1035.69 33.02
457 6.2680 14.089557 1112.00 1036.03 33.35
458 6.2730 14.078339 1065.00 1036.38 32.63
459 6.2780 14.067136 1056.00 1036.74 32.50
460 6.2830 14.055953 1011.00 1037.09 31.80
461 6.2880 14.044786 1039.00 1037.45 32.23
462 6.2930 14.033639 1042.00 1037.81 32.28
463 6.2980 14.022510 1031.00 1038.17 32.11
464 6.3030 14.011397 983.00 1038.54 31.35
465 6.3080 14.000301 991.00 1038.91 31.48
466 6.3130 13.989224 1010.00 1039.28 31.78
467 6.3180 13.978165 1025.00 1039.65 32.02
468 6.3230 13.967123 1072.00 1040.03 32.74
469 6.3280 13.956098 1053.00 1040.41 32.45
470 6.3330 13.945090 1056.00 1040.80 32.50
471 6.3380 13.934101 1052.00 1041.18 32.43
472 6.3430 13.923128 1028.00 1041.57 32.06
473 6.3480 13.912173 1022.00 1041.96 31.97
474 6.3530 13.901235 1042.00 1042.36 32.28
475 6.3580 13.890314 1092.00 1042.76 33.05
476 6.3630 13.879410 1076.00 1043.16 32.80
477 6.3680 13.868524 1038.00 1043.57 32.22
478 6.3730 13.857654 1060.00 1043.98 32.56
479 6.3780 13.846802 1069.00 1044.40 32.70
480 6.3830 13.835966 1062.00 1044.81 32.59
481 6.3880 13.825148 1053.00 1045.24 32.45
482 6.3930 13.814345 1019.00 1045.66 31.92
483 6.3980 13.803561 1022.00 1046.09 31.97
484 6.4030 13.792794 1039.00 1046.53 32.23
485 6.4080 13.782043 1037.00 1046.97 32.20
486 6.4130 13.771308 1036.00 1047.41 32.19
487 6.4180 13.760591 1042.00 1047.86 32.28
488 6.4230 13.749890 1071.00 1048.31 32.73
489 6.4280 13.739206 1087.00 1048.77 32.97
490 6.4330 13.728539 1073.00 1049.23 32.76
491 6.4380 13.717888 1011.00 1049.70 31.80
492 6.4430 13.707253 1000.00 1050.18 31.62
493 6.4480 13.696636 1005.00 1050.66 31.70
494 6.4530 13.686033 1045.00 1051.14 32.33
495 6.4580 13.675448 1021.00 1051.63 31.95
496 6.4630 13.664882 1019.00 1052.13 31.92
497 6.4680 13.654328 1019.00 1052.63 31.92
498 6.4730 13.643792 1042.00 1053.14 32.28
499 6.4780 13.633272 1085.00 1053.66 32.94
500 6.4830 13.622770 1050.00 1054.18 32.40
501 6.4880 13.612282 1035.00 1054.72 32.17
502 6.4930 13.601810 1047.00 1055.25 32.36
503 6.4980 13.591355 1040.00 1055.80 32.25
504 6.5030 13.580917 1067.00 1056.35 32.67
505 6.5080 13.570495 1071.00 1056.91 32.73
506 6.5130 13.560088 1031.00 1057.48 32.11
507 6.5180 13.549697 1067.00 1058.06 32.67
508 6.5230 13.539323 1088.00 1058.65 32.98
509 6.5280 13.528963 1050.00 1059.25 32.40
510 6.5330 13.518620 1025.00 1059.86 32.02
511 6.5380 13.508292 1038.00 1060.47 32.22
512 6.5430 13.497980 1070.00 1061.10 32.71
513 6.5480 13.487685 1073.00 1061.74 32.76
514 6.5530 13.477406 1052.00 1062.39 32.43
515 6.5580 13.467141 1044.00 1063.05 32.31
516 6.5630 13.456892 1070.00 1063.73 32.71
517 6.5680 13.446659 1062.00 1064.41 32.59
518 6.5730 13.436442 1052.00 1065.11 32.43
519 6.5780 13.426240 1080.00 1065.83 32.86
520 6.5830 13.416053 1068.00 1066.56 32.68
521 6.5880 13.405883 1021.00 1067.30 31.95
522 6.5930 13.395727 971.00 1068.06 31.16
523 6.5980 13.385586 977.00 1068.84 31.26
524 6.6030 13.375462 1039.00 1069.63 32.23
525 6.6080 13.365354 1062.00 1070.45 32.59
526 6.6130 13.355258 1104.00 1071.28 33.23
527 6.6180 13.345180 1116.00 1072.13 33.41
528 6.6230 13.335115 1088.00 1073.01 32.98
529 6.6280 13.325068 1059.00 1073.90 32.54
530 6.6330 13.315034 1046.00 1074.82 32.34
531 6.6380 13.305016 1049.00 1075.77 32.39
532 6.6430 13.295012 1090.00 1076.74 33.02
533 6.6480 13.285026 1125.00 1077.74 33.54
534 6.6530 13.275051 1090.00 1078.77 33.02
535 6.6580 13.265093 1071.00 1079.83 32.73
536 6.6630 13.255150 1075.00 1080.92 32.79
537 6.6680 13.245222 1068.00 1082.05 32.68
538 6.6730 13.235310 1069.00 1083.22 32.70
539 6.6780 13.225410 1031.00 1084.43 32.11
540 6.6830 13.215527 998.00 1085.69 31.59
541 6.6880 13.205658 1022.00 1086.99 31.97
542 6.6930 13.195805 1052.00 1088.35 32.43
543 6.6980 13.185965 1053.00 1089.76 32.45
544 6.7030 13.176140 1061.00 1091.23 32.57
545 6.7080 13.166329 1087.00 1092.77 32.97
546 6.7130 13.156535 1110.00 1094.39 33.32
547 6.7180 13.146753 1094.00 1096.08 33.08
548 6.7230 13.136987 1067.00 1097.87 32.67
549 6.7280 13.127235 1092.00 1099.77 33.05
550 6.7330 13.117499 1108.00 1101.77 33.29
551 6.7380 13.107776 1107.00 1103.91 33.27
552 6.7430 13.098067 1099.00 1106.19 33.15
553 6.7480 13.088373 1068.00 1108.63 32.68
554 6.7530 13.078694 1046.00 1111.25 32.34
555 6.7580 13.069029 1039.00 1114.06 32.23
556 6.7630 13.059378 1050.00 1117.09 32.40
557 6.7680 13.049741 1070.00 1120.35 32.71
558 6.7730 13.040119 1103.00 1123.86 33.21
559 6.7780 13.030510 1123.00 1127.63 33.51
560 6.7830 13.020916 1118.00 1131.66 33.44
561 6.7880 13.011336 1109.00 1135.94 33.30
562 6.7930 13.001770 1077.00 1140.47 32.82
563 6.7980 12.992219 1061.00 1145.21 32.57
564 6.8030 12.982681 1068.00 1150.11 32.68
565 6.8080 12.973157 1064.00 1155.13 32.62
566 6.8130 12.963648 1049.00 1160.17 32.39
567 6.8180 12.954153 1043.00 1165.15 32.30
568 6.8230 12.944671 1080.00 1169.93 32.86
569 6.8280 12.935202 1134.00 1174.40 33.67
570 6.8330 12.925748 1159.00 1178.38 34.04
571 6.8380 12.916308 1158.00 1181.72 34.03
572 6.8430 12.906882 1137.00 1184.24 33.72
573 6.8480 12.897470 1111.00 1185.77 33.33
574 6.8530 12.888070 1104.00 1186.13 33.23
575 6.8580 12.878686 1118.00 1185.19 33.44
576 6.8630 12.869314 1109.00 1182.83 33.30
577 6.8680 12.859956 1102.00 1179.04 33.20
578 6.8730 12.850612 1148.00 1173.85 33.88
579 6.8780 12.841281 1165.00 1167.42 34.13
580 6.8830 12.831964 1134.00 1159.94 33.67
581 6.8880 12.822660 1112.00 1151.70 33.35
582 6.8930 12.813371 1105.00 1142.96 33.24
583 6.8980 12.804094 1088.00 1134.01 32.98
584 6.9030 12.794830 1084.00 1125.08 32.92
585 6.9080 12.785582 1076.00 1116.38 32.80
586 6.9130 12.776344 1072.00 1108.08 32.74
587 6.9180 12.767121 1082.00 1100.29 32.89
588 6.9230 12.757913 1080.00 1093.10 32.86
589 6.9280 12.748716 1077.00 1086.56 32.82
590 6.9330 12.739533 1093.00 1080.69 33.06
591 6.9380 12.730363 1075.00 1075.49 32.79
592 6.9430 12.721208 1052.00 1070.94 32.43
593 6.9480 12.712063 1055.00 1067.02 32.48
594 6.9530 12.702933 1043.00 1063.66 32.30
595 6.9580 12.693815 1032.00 1060.82 32.12
596 6.9630 12.684712 1036.00 1058.44 32.19
597 6.9680 12.675621 1014.00 1056.46 31.84
598 6.9730 12.666544 1005.00 1054.83 31.70
599 6.9780 12.657478 1031.00 1053.49 32.11
600 6.9830 12.648427 1041.00 1052.39 32.26
601 6.9880 12.639388 1071.00 1051.50 32.73
602 6.9930 12.630362 1098.00 1050.78 33.14
603 6.9980 12.621348 1095.00 1050.19 33.09
604 7.0030 12.612350 1085.00 1049.71 32.94
605 7.0080 12.603361 1065.00 1049.32 32.63
606 7.0130 12.594386 1081.00 1049.00 32.88
607 7.0180 12.585424 1069.00 1048.73 32.70
608 7.0230 12.576477 1065.00 1048.51 32.63
609 7.0280 12.567540 1075.00 1048.33 32.79
610 7.0330 12.558617 1046.00 1048.18 32.34
611 7.0380 12.549706 1074.00 1048.05 32.77
612 7.0430 12.540807 1110.00 1047.94 33.32
613 7.0480 12.531922 1111.00 1047.86 33.33
614 7.0530 12.523048 1089.00 1047.79 33.00
615 7.0580 12.514189 1088.00 1047.73 32.98
616 7.0630 12.505341 1084.00 1047.69 32.92
617 7.0680 12.496506 1070.00 1047.66 32.71
618 7.0730 12.487682 1051.00 1047.63 32.42
619 7.0780 12.478872 1003.00 1047.62 31.67
620 7.0830 12.470075 1013.00 1047.62 31.83
621 7.0880 12.461290 1034.00 1047.62 32.16
622 7.0930 12.452517 1061.00 1047.63 32.57
623 7.0980 12.443756 1056.00 1047.65 32.50
624 7.1030 12.435007 1020.00 1047.68 31.94
625 7.1080 12.426272 992.00 1047.71 31.50
626 7.1130 12.417547 1004.00 1047.74 31.69
627 7.1180 12.408836 1023.00 1047.78 31.98
628 7.1230 12.400137 1039.00 1047.83 32.23
629 7.1280 12.391450 1066.00 1047.88 32.65
630 7.1330 12.382775 1072.00 1047.93 32.74
631 7.1380 12.374113 1068.00 1047.98 32.68
632 7.1430 12.365462 1037.00 1048.04 32.20
633 7.1480 12.356824 1020.00 1048.11 31.94
634 7.1530 12.348198 1023.00 1048.17 31.98
635 7.1580 12.339583 1011.00 1048.24 31.80
636 7.1630 12.330981 1018.00 1048.31 31.91
637 7.1680 12.322391 1074.00 1048.39 32.77
638 7.1730 12.313812 1109.00 1048.46 33.30
639 7.1780 12.305245 1101.00 1048.54 33.18
640 7.1830 12.296691 1087.00 1048.62 32.97
641 7.1880 12.288150 1040.00 1048.70 32.25
642 7.1930 12.279619 1021.00 1048.78 31.95
643 7.1980 12.271100 1032.00 1048.87 32.12
644 7.2030 12.262593 1078.00 1048.95 32.83
645 7.2080 12.254098 1079.00 1049.04 32.85
646 7.2130 12.245616 1049.00 1049.13 32.39
647 7.2180 12.237144 1061.00 1049.22 32.57
648 7.2230 12.228683 1053.00 1049.31 32.45
649 7.2280 12.220235 1032.00 1049.40 32.12
650 7.2330 12.211800 1024.00 1049.50 32.00
651 7.2380 12.203375 1083.00 1049.59 32.91
652 7.2430 12.194962 1089.00 1049.69 33.00
653 7.2480 12.186561 1086.00 1049.78 32.95
654 7.2530 12.178172 1086.00 1049.88 32.95
655 7.2580 12.169793 1059.00 1049.98 32.54
656 7.2630 12.161426 1052.00 1050.08 32.43
657 7.2680 12.153070 1080.00 1050.18 32.86
658 7.2730 12.144727 1038.00 1050.28 32.22
659 7.2780 12.136395 1004.00 1050.38 31.69
660 7.2830 12.128075 1036.00 1050.48 32.19
661 7.2880 12.119764 1043.00 1050.58 32.30
662 7.2930 12.111465 1033.00 1050.68 32.14
663 7.2980 12.103180 1017.00 1050.78 31.89
664 7.3030 12.094905 1016.00 1050.89 31.87
665 7.3080 12.086640 987.00 1050.99 31.42
666 7.3130 12.078388 981.00 1051.09 31.32
667 7.3180 12.070148 1001.00 1051.20 31.64
668 7.3230 12.061916 1017.00 1051.30 31.89
669 7.3280 12.053699 981.00 1051.40 31.32
670 7.3330 12.045490 974.00 1051.51 31.21
671 7.3380 12.037294 1011.00 1051.61 31.80
672 7.3430 12.029109 1052.00 1051.72 32.43
673 7.3480 12.020934 1092.00 1051.82 33.05
674 7.3530 12.012772 1065.00 1051.93 32.63
675 7.3580 12.004621 1087.00 1052.03 32.97
676 7.3630 11.996480 1120.00 1052.14 33.47
677 7.3680 11.988349 1090.00 1052.24 33.02
678 7.3730 11.980231 1089.00 1052.35 33.00
679 7.3780 11.972123 1059.00 1052.45 32.54
680 7.3830 11.964027 1055.00 1052.56 32.48
681 7.3880 11.955940 1042.00 1052.67 32.28
682 7.3930 11.947865 1026.00 1052.77 32.03
683 7.3980 11.939802 1036.00 1052.88 32.19
684 7.4030 11.931749 1025.00 1052.98 32.02
685 7.4080 11.923707 1029.00 1053.09 32.08
686 7.4130 11.915675 1050.00 1053.19 32.40
687 7.4180 11.907655 1055.00 1053.30 32.48
688 7.4230 11.899647 1050.00 1053.41 32.40
689 7.4280 11.891646 1058.00 1053.51 32.53
690 7.4330 11.883658 1008.00 1053.62 31.75
691 7.4380 11.875682 1027.00 1053.72 32.05
692 7.4430 11.867715 1077.00 1053.83 32.82
693 7.4480 11.859759 1057.00 1053.93 32.51
694 7.4530 11.851814 1035.00 1054.04 32.17
695 7.4580 11.843880 1062.00 1054.15 32.59
696 7.4630 11.835957 1072.00 1054.25 32.74
697 7.4680 11.828042 1057.00 1054.36 32.51
698 7.4730 11.820139 1038.00 1054.46 32.22
699 7.4780 11.812247 1013.00 1054.57 31.83
700 7.4830 11.804367 1018.00 1054.67 31.91
701 7.4880 11.796495 1015.00 1054.78 31.86
702 7.4930 11.788635 1002.00 1054.88 31.65
703 7.4980 11.780785 984.00 1054.98 31.37
704 7.5030 11.772946 1056.00 1055.09 32.50
705 7.5080 11.765117 1049.00 1055.19 32.39
706 7.5130 11.757298 1090.00 1055.30 33.02
707 7.5180 11.749490 1072.00 1055.40 32.74
708 7.5230 11.741693 1119.00 1055.50 33.45
709 7.5280 11.733905 1063.00 1055.61 32.60
710 7.5330 11.726128 1071.00 1055.71 32.73
711 7.5380 11.718360 1066.00 1055.81 32.65
712 7.5430 11.710603 1051.00 1055.92 32.42
713 7.5480 11.702858 1037.00 1056.02 32.20
714 7.5530 11.695122 1024.00 1056.12 32.00
715 7.5580 11.687395 1024.00 1056.22 32.00
716 7.5630 11.679681 1016.00 1056.33 31.87
717 7.5680 11.671976 1025.00 1056.43 32.02
718 7.5730 11.664281 1001.00 1056.53 31.64
719 7.5780 11.656595 994.00 1056.63 31.53
720 7.5830 11.648919 1014.00 1056.73 31.84
721 7.5880 11.641255 1047.00 1056.83 32.36
722 7.5930 11.633602 1079.00 1056.94 32.85
723 7.5980 11.625957 1040.00 1057.04 32.25
724 7.6030 11.618321 1020.00 1057.14 31.94
725 7.6080 11.610698 1004.00 1057.24 31.69
726 7.6130 11.603084 992.00 1057.34 31.50
727 7.6180 11.595479 979.00 1057.44 31.29
728 7.6230 11.587885 1029.00 1057.54 32.08
729 7.6280 11.580301 1069.00 1057.64 32.70
730 7.6330 11.572725 1073.00 1057.73 32.76
731 7.6380 11.565162 1092.00 1057.83 33.05
732 7.6430 11.557606 1114.00 1057.93 33.38
733 7.6480 11.550062 1074.00 1058.03 32.77
734 7.6530 11.542527 1104.00 1058.13 33.23
735 7.6580 11.535003 1104.00 1058.23 33.23
736 7.6630 11.527487 1108.00 1058.32 33.29
737 7.6680 11.519981 1100.00 1058.42 33.17
738 7.6730 11.512486 1052.00 1058.52 32.43
739 7.6780 11.505000 1074.00 1058.62 32.77
740 7.6830 11.497523 1094.00 1058.71 33.08
741 7.6880 11.490057 1070.00 1058.81 32.71
742 7.6930 11.482601 1044.00 1058.91 32.31
743 7.6980 11.475154 1041.00 1059.00 32.26
744 7.7030 11.467717 1048.00 1059.10 32.37
745 7.7080 11.460288 1062.00 1059.19 32.59
746 7.7130 11.452871 1037.00 1059.29 32.20
747 7.7180 11.445462 1055.00 1059.38 32.48
748 7.7230 11.438064 1000.00 1059.48 31.62
749 7.7280 11.430675 1010.00 1059.57 31.78
750 7.7330 11.423295 1021.00 1059.67 31.95
751 7.7380 11.415925 1038.00 1059.76 32.22
752 7.7430 11.408564 1045.00 1059.85 32.33
753 7.7480 11.401213 1040.00 1059.95 32.25
754 7.7530 11.393872 1032.00 1060.04 32.12
755 7.7580 11.386539 1021.00 1060.13 31.95
756 7.7630 11.379216 1014.00 1060.22 31.84
757 7.7680 11.371903 1037.00 1060.32 32.20
758 7.7730 11.364600 1100.00 1060.41 33.17
759 7.7780 11.357306 1070.00 1060.50 32.71
760 7.7830 11.350020 1034.00 1060.59 32.16
761 7.7880 11.342745 1032.00 1060.68 32.12
762 7.7930 11.335479 1033.00 1060.77 32.14
763 7.7980 11.328222 1056.00 1060.86 32.50
764 7.8030 11.320974 1028.00 1060.95 32.06
765 7.8080 11.313736 1016.00 1061.04 31.87
766 7.8130 11.306506 1039.00 1061.13 32.23
767 7.8180 11.299288 1046.00 1061.22 32.34
768 7.8230 11.292076 1040.00 1061.31 32.25
769 7.8280 11.284875 1039.00 1061.40 32.23
770 7.8330 11.277682 1052.00 1061.49 32.43
771 7.8380 11.270500 1011.00 1061.58 31.80
772 7.8430 11.263326 1022.00 1061.66 31.97
773 7.8480 11.256161 1073.00 1061.75 32.76
774 7.8530 11.249004 1102.00 1061.84 33.20
775 7.8580 11.241858 1080.00 1061.93 32.86
776 7.8630 11.234722 1110.00 1062.01 33.32
777 7.8680 11.227593 1087.00 1062.10 32.97
778 7.8730 11.220473 1121.00 1062.19 33.48
779 7.8780 11.213364 1126.00 1062.27 33.56
780 7.8830 11.206262 1113.00 1062.36 33.36
781 7.8880 11.199170 1081.00 1062.44 32.88
782 7.8930 11.192087 1060.00 1062.53 32.56
783 7.8980 11.185013 1038.00 1062.61 32.22
784 7.9030 11.177948 1069.00 1062.70 32.70
785 7.9080 11.170892 1045.00 1062.78 32.33
786 7.9130 11.163844 1002.00 1062.86 31.65
787 7.9180 11.156805 1044.00 1062.95 32.31
788 7.9230 11.149776 1094.00 1063.03 33.08
789 7.9280 11.142756 1081.00 1063.11 32.88
790 7.9330 11.135743 1017.00 1063.20 31.89
791 7.9380 11.128740 934.00 1063.28 30.56
792 7.9430 11.121747 930.00 1063.36 30.50
793 7.9480 11.114760 1005.00 1063.44 31.70
794 7.9530 11.107784 1028.00 1063.53 32.06
795 7.9580 11.100817 984.00 1063.61 31.37
796 7.9630 11.093858 1000.00 1063.69 31.62
797 7.9680 11.086907 1012.00 1063.77 31.81
798 7.9730 11.079966 1068.00 1063.85 32.68
799 7.9780 11.073033 1119.00 1063.93 33.45
800 7.9830 11.066109 1067.00 1064.01 32.67
801 7.9880 11.059194 1010.00 1064.09 31.78
802 7.9930 11.052287 1032.00 1064.17 32.12
803 7.9980 11.045387 1050.00 1064.25 32.40
804 8.0030 11.038498 1056.00 1064.32 32.50
805 8.0080 11.031617 1082.00 1064.40 32.89
806 8.0130 11.024746 1070.00 1064.48 32.71
807 8.0180 11.017882 1059.00 1064.56 32.54
808 8.0230 11.011027 1071.00 1064.63 32.73
809 8.0280 11.004179 1044.00 1064.71 32.31
810 8.0330 10.997341 1025.00 1064.79 32.02
811 8.0380 10.990512 1043.00 1064.87 32.30
812 8.0430 10.983690 1039.00 1064.94 32.23
813 8.0480 10.976877 1039.00 1065.02 32.23
814 8.0530 10.970074 1047.00 1065.09 32.36
815 8.0580 10.963279 999.00 1065.17 31.61
816 8.0630 10.956491 1067.00 1065.24 32.67
817 8.0680 10.949712 1084.00 1065.32 32.92
818 8.0730 10.942942 1101.00 1065.39 33.18
819 8.0780 10.936179 1063.00 1065.47 32.60
820 8.0830 10.929425 1053.00 1065.54 32.45
821 8.0880 10.922680 1064.00 1065.61 32.62
822 8.0930 10.915942 1089.00 1065.69 33.00
823 8.0980 10.909216 1052.00 1065.76 32.43
824 8.1030 10.902495 1053.00 1065.83 32.45
825 8.1080 10.895782 1072.00 1065.90 32.74
826 8.1130 10.889078 1089.00 1065.98 33.00
827 8.1180 10.882382 1097.00 1066.05 33.12
828 8.1230 10.875696 1075.00 1066.12 32.79
829 8.1280 10.869017 1054.00 1066.19 32.47
830 8.1330 10.862346 1014.00 1066.26 31.84
831 8.1380 10.855683 979.00 1066.33 31.29
832 8.1430 10.849030 1003.00 1066.40 31.67
833 8.1480 10.842382 1074.00 1066.47 32.77
834 8.1530 10.835744 1131.00 1066.54 33.63
835 8.1580 10.829115 1118.00 1066.61 33.44
836 8.1630 10.822493 1080.00 1066.68 32.86
837 8.1680 10.815878 1064.00 1066.75 32.62
838 8.1730 10.809273 1124.00 1066.82 33.53
839 8.1780 10.802675 1115.00 1066.89 33.39
840 8.1830 10.796087 1105.00 1066.95 33.24
841 8.1880 10.789505 1113.00 1067.02 33.36
842 8.1930 10.782932 1089.00 1067.09 33.00
843 8.1980 10.776366 1049.00 1067.16 32.39
844 8.2030 10.769809 1038.00 1067.22 32.22
845 8.2080 10.763259 1000.00 1067.29 31.62
846 8.2130 10.756718 999.00 1067.35 31.61
847 8.2180 10.750184 1039.00 1067.42 32.23
848 8.2230 10.743660 1065.00 1067.49 32.63
849 8.2280 10.737143 1041.00 1067.55 32.26
850 8.2330 10.730632 1015.00 1067.62 31.86
851 8.2380 10.724131 1036.00 1067.68 32.19
852 8.2430 10.717636 1071.00 1067.74 32.73
853 8.2480 10.711150 1054.00 1067.81 32.47
854 8.2530 10.704673 1086.00 1067.87 32.95
855 8.2580 10.698201 1120.00 1067.94 33.47
856 8.2630 10.691740 1093.00 1068.00 33.06
857 8.2680 10.685286 1053.00 1068.06 32.45
858 8.2730 10.678840 1039.00 1068.12 32.23
859 8.2780 10.672400 998.00 1068.19 31.59
860 8.2830 10.665969 1013.00 1068.25 31.83
861 8.2880 10.659545 1015.00 1068.31 31.86
862 8.2930 10.653130 1043.00 1068.37 32.30
863 8.2980 10.646722 1044.00 1068.43 32.31
864 8.3030 10.640322 1047.00 1068.49 32.36
865 8.3080 10.633930 1065.00 1068.55 32.63
866 8.3130 10.627545 1028.00 1068.61 32.06
867 8.3180 10.621168 1054.00 1068.67 32.47
868 8.3230 10.614799 1080.00 1068.73 32.86
869 8.3280 10.608437 1034.00 1068.79 32.16
870 8.3330 10.602082 971.00 1068.85 31.16
871 8.3380 10.595737 951.00 1068.91 30.84
872 8.3430 10.589397 980.00 1068.97 31.31
873 8.3480 10.583067 990.00 1069.03 31.46
874 8.3530 10.576743 987.00 1069.09 31.42
875 8.3580 10.570426 1052.00 1069.14 32.43
876 8.3630 10.564117 1046.00 1069.20 32.34
877 8.3680 10.557817 1010.00 1069.26 31.78
878 8.3730 10.551522 1054.00 1069.32 32.47
879 8.3780 10.545237 1045.00 1069.37 32.33
880 8.3830 10.538958 1066.00 1069.43 32.65
881 8.3880 10.532688 1085.00 1069.48 32.94
882 8.3930 10.526424 1089.00 1069.54 33.00
883 8.3980 10.520168 1073.00 1069.59 32.76
884 8.4030 10.513919 1039.00 1069.65 32.23
885 8.4080 10.507679 1033.00 1069.70 32.14
886 8.4130 10.501445 1035.00 1069.76 32.17
887 8.4180 10.495218 1040.00 1069.81 32.25
888 8.4230 10.488999 1051.00 1069.87 32.42
889 8.4280 10.482788 1061.00 1069.92 32.57
890 8.4330 10.476584 1026.00 1069.97 32.03
891 8.4380 10.470387 1004.00 1070.03 31.69
892 8.4430 10.464198 1006.00 1070.08 31.72
893 8.4480 10.458016 1044.00 1070.13 32.31
894 8.4530 10.451841 1074.00 1070.19 32.77
895 8.4580 10.445673 1068.00 1070.24 32.68
896 8.4630 10.439513 1045.00 1070.29 32.33
897 8.4680 10.433359 1051.00 1070.23 32.42
898 8.4730 10.427216 1064.00 1070.28 32.62
899 8.4780 10.421078 1094.00 1070.34 33.08
900 8.4830 10.414946 1089.00 1070.39 33.00
901 8.4880 10.408822 1079.00 1070.44 32.85
902 8.4930 10.402704 1088.00 1070.49 32.98
903 8.4980 10.396595 1053.00 1070.54 32.45
904 8.5030 10.390492 1007.00 1070.59 31.73
905 8.5080 10.384398 1029.00 1070.64 32.08
906 8.5130 10.378311 1081.00 1070.69 32.88
907 8.5180 10.372231 1074.00 1070.74 32.77
908 8.5230 10.366156 1079.00 1070.79 32.85
909 8.5280 10.360089 1047.00 1070.84 32.36
910 8.5330 10.354030 1011.00 1070.88 31.80
911 8.5380 10.347977 1002.00 1070.93 31.65
912 8.5430 10.341932 1042.00 1070.98 32.28
913 8.5480 10.335894 1076.00 1071.03 32.80
914 8.5530 10.329863 1116.00 1071.07 33.41
915 8.5580 10.323840 1103.00 1071.12 33.21
916 8.5630 10.317823 1057.00 1071.17 32.51
917 8.5680 10.311812 1048.00 1071.22 32.37
918 8.5730 10.305809 1054.00 1071.26 32.47
919 8.5780 10.299813 1074.00 1071.31 32.77
920 8.5830 10.293824 1132.00 1071.35 33.65
921 8.5880 10.287842 1163.00 1071.40 34.10
922 8.5930 10.281867 1112.00 1071.44 33.35
923 8.5980 10.275900 1058.00 1071.49 32.53
924 8.6030 10.269938 1059.00 1071.53 32.54
925 8.6080 10.263985 1077.00 1071.58 32.82
926 8.6130 10.258038 1060.00 1071.62 32.56
927 8.6180 10.252096 1051.00 1071.67 32.42
928 8.6230 10.246163 1049.00 1071.71 32.39
929 8.6280 10.240236 1008.00 1071.75 31.75
930 8.6330 10.234318 1004.00 1071.79 31.69
931 8.6380 10.228405 1036.00 1071.84 32.19
932 8.6430 10.222499 1065.00 1071.88 32.63
933 8.6480 10.216599 1088.00 1071.92 32.98
934 8.6530 10.210707 1081.00 1071.96 32.88
935 8.6580 10.204823 1057.00 1072.01 32.51
936 8.6630 10.198943 1070.00 1072.05 32.71
937 8.6680 10.193071 1099.00 1072.09 33.15
938 8.6730 10.187205 1080.00 1072.13 32.86
939 8.6780 10.181348 1050.00 1072.17 32.40
940 8.6830 10.175497 1023.00 1072.21 31.98
941 8.6880 10.169651 1043.00 1072.25 32.30
942 8.6930 10.163814 1039.00 1072.29 32.23
943 8.6980 10.157982 1018.00 1072.33 31.91
944 8.7030 10.152157 1013.00 1072.37 31.83
945 8.7080 10.146339 1018.00 1072.41 31.91
946 8.7130 10.140527 1038.00 1072.64 32.22
947 8.7180 10.134723 1034.00 1072.68 32.16
948 8.7230 10.128925 1081.00 1072.72 32.88
949 8.7280 10.123135 1116.00 1072.76 33.41
950 8.7330 10.117349 1118.00 1072.80 33.44
951 8.7380 10.111571 1128.00 1072.84 33.59
952 8.7430 10.105800 1118.00 1072.88 33.44
953 8.7480 10.100035 1085.00 1072.92 32.94
954 8.7530 10.094275 1035.00 1072.96 32.17
955 8.7580 10.088525 996.00 1072.99 31.56
956 8.7630 10.082781 1033.00 1073.03 32.14
957 8.7680 10.077042 1056.00 1073.07 32.50
958 8.7730 10.071309 1051.00 1073.11 32.42
959 8.7780 10.065584 1085.00 1073.14 32.94
960 8.7830 10.059864 1151.00 1073.18 33.93
961 8.7880 10.054152 1146.00 1073.22 33.85
962 8.7930 10.048447 1126.00 1073.25 33.56
963 8.7980 10.042747 1124.00 1073.29 33.53
964 8.8030 10.037053 1096.00 1073.33 33.11
965 8.8080 10.031367 1050.00 1073.36 32.40
966 8.8130 10.025688 1044.00 1073.40 32.31
967 8.8180 10.020014 1069.00 1073.43 32.70
968 8.8230 10.014347 1076.00 1073.47 32.80
969 8.8280 10.008686 1058.00 1073.50 32.53
970 8.8330 10.003032 1037.00 1073.54 32.20
971 8.8380 9.997384 1059.00 1073.57 32.54
972 8.8430 9.991741 1087.00 1073.61 32.97
973 8.8480 9.986109 1066.00 1073.64 32.65
974 8.8530 9.980479 1057.00 1073.68 32.51
975 8.8580 9.974857 1093.00 1073.71 33.06
976 8.8630 9.969241 1133.00 1073.74 33.66
977 8.8680 9.963631 1134.00 1073.78 33.67
978 8.8730 9.958028 1123.00 1073.81 33.51
979 8.8780 9.952430 1125.00 1073.84 33.54
980 8.8830 9.946839 1072.00 1073.88 32.74
981 8.8880 9.941256 1003.00 1073.91 31.67
982 8.8930 9.935678 990.00 1073.94 31.46
983 8.8980 9.930105 1026.00 1073.97 32.03
984 8.9030 9.924539 1072.00 1074.00 32.74
985 8.9080 9.918981 1055.00 1074.04 32.48
986 8.9130 9.913427 1002.00 1074.07 31.65
987 8.9180 9.907880 1024.00 1074.10 32.00
988 8.9230 9.902339 1063.00 1074.13 32.60
989 8.9280 9.896805 1062.00 1074.16 32.59
990 8.9330 9.891277 1084.00 1074.19 32.92
991 8.9380 9.885755 1096.00 1074.22 33.11
992 8.9430 9.880239 1057.00 1074.25 32.51
993 8.9480 9.874729 1043.00 1074.28 32.30
994 8.9530 9.869226 1059.00 1074.31 32.54
995 8.9580 9.863729 1060.00 1074.34 32.56
996 8.9630 9.858236 1075.00 1074.37 32.79
997 8.9680 9.852752 1124.00 1074.40 33.53
998 8.9730 9.847273 1141.00 1074.43 33.78
999 8.9780 9.841801 1112.00 1074.46 33.35
1000 8.9830 9.836333 1070.00 1074.49 32.71
1001 8.9880 9.830873 1023.00 1074.52 31.98
1002 8.9930 9.825418 1008.00 1074.55 31.75
1003 8.9980 9.819969 1011.00 1074.58 31.80
1004 9.0030 9.814526 1056.00 1074.60 32.50
1005 9.0080 9.809090 1110.00 1074.63 33.32
1006 9.0130 9.803660 1115.00 1074.66 33.39
1007 9.0180 9.798236 1077.00 1074.69 32.82
1008 9.0230 9.792817 1050.00 1074.72 32.40
1009 9.0280 9.787404 1070.00 1074.74 32.71
1010 9.0330 9.781998 1106.00 1074.77 33.26
1011 9.0380 9.776598 1090.00 1074.80 33.02
1012 9.0430 9.771204 1033.00 1074.83 32.14
1013 9.0480 9.765814 1040.00 1074.85 32.25
1014 9.0530 9.760432 1055.00 1074.88 32.48
1015 9.0580 9.755056 1053.00 1074.91 32.45
1016 9.0630 9.749686 1075.00 1074.93 32.79
1017 9.0680 9.744321 1073.00 1074.96 32.76
1018 9.0730 9.738962 1033.00 1074.99 32.14
1019 9.0780 9.733609 1010.00 1075.01 31.78
1020 9.0830 9.728262 1026.00 1075.04 32.03
1021 9.0880 9.722920 1038.00 1075.07 32.22
1022 9.0930 9.717586 1073.00 1075.09 32.76
1023 9.0980 9.712257 1087.00 1075.12 32.97
1024 9.1030 9.706934 1092.00 1075.14 33.05
1025 9.1080 9.701615 1083.00 1075.17 32.91
1026 9.1130 9.696304 1096.00 1075.20 33.11
1027 9.1180 9.690998 1121.00 1075.22 33.48
1028 9.1230 9.685698 1136.00 1075.25 33.70
1029 9.1280 9.680403 1126.00 1075.27 33.56
1030 9.1330 9.675115 1096.00 1075.30 33.11
1031 9.1380 9.669833 1072.00 1075.32 32.74
1032 9.1430 9.664557 1077.00 1075.35 32.82
1033 9.1480 9.659285 1085.00 1075.38 32.94
1034 9.1530 9.654019 1068.00 1075.40 32.68
1035 9.1580 9.648760 1085.00 1075.43 32.94
1036 9.1630 9.643506 1084.00 1075.45 32.92
1037 9.1680 9.638258 1038.00 1075.48 32.22
1038 9.1730 9.633015 1015.00 1075.51 31.86
1039 9.1780 9.627778 1047.00 1075.53 32.36
1040 9.1830 9.622548 1078.00 1075.56 32.83
1041 9.1880 9.617323 1082.00 1075.58 32.89
1042 9.1930 9.612103 1049.00 1075.61 32.39
1043 9.1980 9.606890 1016.00 1075.64 31.87
1044 9.2030 9.601681 1032.00 1075.66 32.12
1045 9.2080 9.596478 1041.00 1075.69 32.26
1046 9.2130 9.591281 1014.00 1075.72 31.84
1047 9.2180 9.586089 1015.00 1075.75 31.86
1048 9.2230 9.580905 1050.00 1075.78 32.40
1049 9.2280 9.575725 1054.00 1075.81 32.47
1050 9.2330 9.570550 1063.00 1075.84 32.60
1051 9.2380 9.565381 1046.00 1075.87 32.34
1052 9.2430 9.560218 1038.00 1075.91 32.22
1053 9.2480 9.555060 1039.00 1075.94 32.23
1054 9.2530 9.549908 1061.00 1075.98 32.57
1055 9.2580 9.544762 1057.00 1076.02 32.51
1056 9.2630 9.539621 1053.00 1076.06 32.45
1057 9.2680 9.534486 1043.00 1076.10 32.30
1058 9.2730 9.529357 1048.00 1076.15 32.37
1059 9.2780 9.524232 1050.00 1076.20 32.40
1060 9.2830 9.519113 1053.00 1076.26 32.45
1061 9.2880 9.514000 1079.00 1076.31 32.85
1062 9.2930 9.508892 1094.00 1076.38 33.08
1063 9.2980 9.503789 1079.00 1076.44 32.85
1064 9.3030 9.498693 1051.00 1076.51 32.42
1065 9.3080 9.493603 1039.00 1076.59 32.23
1066 9.3130 9.488517 1014.00 1076.67 31.84
1067 9.3180 9.483437 1083.00 1076.75 32.91
1068 9.3230 9.478361 1092.00 1076.84 33.05
1069 9.3280 9.473292 1120.00 1076.93 33.47
1070 9.3330 9.468228 1108.00 1077.03 33.29
1071 9.3380 9.463169 1086.00 1077.13 32.95
1072 9.3430 9.458116 1109.00 1077.23 33.30
1073 9.3480 9.453070 1135.00 1077.33 33.69
1074 9.3530 9.448028 1130.00 1077.44 33.62
1075 9.3580 9.442990 1127.00 1077.55 33.57
1076 9.3630 9.437959 1128.00 1077.67 33.59
1077 9.3680 9.432932 1107.00 1077.78 33.27
1078 9.3730 9.427911 1074.00 1077.90 32.77
1079 9.3780 9.422895 1042.00 1078.02 32.28
1080 9.3830 9.417886 1052.00 1078.14 32.43
1081 9.3880 9.412881 1089.00 1078.26 33.00
1082 9.3930 9.407882 1066.00 1078.39 32.65
1083 9.3980 9.402888 1047.00 1078.51 32.36
1084 9.4030 9.397900 1072.00 1078.64 32.74
1085 9.4080 9.392916 1039.00 1078.77 32.23
1086 9.4130 9.387937 1020.00 1078.90 31.94
1087 9.4180 9.382965 1049.00 1079.03 32.39
1088 9.4230 9.377996 1053.00 1079.16 32.45
1089 9.4280 9.373034 1071.00 1079.29 32.73
1090 9.4330 9.368078 1092.00 1079.43 33.05
1091 9.4380 9.363127 1062.00 1079.56 32.59
1092 9.4430 9.358179 1088.00 1079.70 32.98
1093 9.4480 9.353239 1127.00 1079.84 33.57
1094 9.4530 9.348302 1190.00 1079.98 34.50
1095 9.4580 9.343371 1149.00 1080.12 33.90
1096 9.4630 9.338446 1110.00 1080.26 33.32
1097 9.4680 9.333525 1124.00 1080.41 33.53
1098 9.4730 9.328610 1181.00 1080.55 34.37
1099 9.4780 9.323701 1168.00 1080.70 34.18
1100 9.4830 9.318795 1141.00 1083.55 33.78
1101 9.4880 9.313896 1103.00 1083.72 33.21
1102 9.4930 9.309001 1104.00 1083.89 33.23
1103 9.4980 9.304112 1099.00 1084.06 33.15
1104 9.5030 9.299229 1134.00 1084.23 33.67
1105 9.5080 9.294349 1105.00 1084.41 33.24
1106 9.5130 9.289475 1077.00 1084.59 32.82
1107 9.5180 9.284607 1077.00 1084.77 32.82
1108 9.5230 9.279743 1120.00 1084.95 33.47
1109 9.5280 9.274884 1128.00 1085.13 33.59
1110 9.5330 9.270031 1125.00 1085.32 33.54
1111 9.5380 9.265182 1113.00 1085.50 33.36
1112 9.5430 9.260339 1138.00 1085.69 33.73
1113 9.5480 9.255501 1103.00 1085.88 33.21
1114 9.5530 9.250668 1107.00 1086.07 33.27
1115 9.5580 9.245841 1111.00 1086.27 33.33
1116 9.5630 9.241017 1053.00 1086.46 32.45
1117 9.5680 9.236199 1050.00 1086.66 32.40
1118 9.5730 9.231387 1102.00 1086.86 33.20
1119 9.5780 9.226579 1141.00 1087.06 33.78
1120 9.5830 9.221776 1154.00 1087.27 33.97
1121 9.5880 9.216978 1098.00 1087.47 33.14
1122 9.5930 9.212185 1079.00 1087.68 32.85
1123 9.5980 9.207398 1102.00 1087.89 33.20
1124 9.6030 9.202615 1120.00 1088.11 33.47
1125 9.6080 9.197837 1098.00 1088.32 33.14
1126 9.6130 9.193064 1038.00 1088.54 32.22
1127 9.6180 9.188296 1074.00 1088.76 32.77
1128 9.6230 9.183533 1111.00 1088.99 33.33
1129 9.6280 9.178776 1143.00 1089.21 33.81
1130 9.6330 9.174022 1128.00 1089.44 33.59
1131 9.6380 9.169274 1121.00 1089.67 33.48
1132 9.6430 9.164531 1101.00 1089.90 33.18
1133 9.6480 9.159794 1070.00 1090.14 32.71
1134 9.6530 9.155060 1032.00 1090.38 32.12
1135 9.6580 9.150331 1051.00 1090.62 32.42
1136 9.6630 9.145607 1041.00 1090.87 32.26
1137 9.6680 9.140889 1075.00 1091.12 32.79
1138 9.6730 9.136175 1101.00 1091.37 33.18
1139 9.6780 9.131466 1137.00 1091.62 33.72
1140 9.6830 9.126762 1132.00 1091.88 33.65
1141 9.6880 9.122064 1121.00 1092.14 33.48
1142 9.6930 9.117370 1145.00 1092.40 33.84
1143 9.6980 9.112679 1127.00 1092.67 33.57
1144 9.7030 9.107995 1149.00 1092.94 33.90
1145 9.7080 9.103314 1138.00 1093.22 33.73
1146 9.7130 9.098640 1069.00 1093.49 32.70
1147 9.7180 9.093969 1086.00 1093.78 32.95
1148 9.7230 9.089305 1120.00 1094.06 33.47
1149 9.7280 9.084645 1115.00 1094.35 33.39
1150 9.7330 9.079988 1128.00 1094.65 33.59
1151 9.7380 9.075338 1121.00 1094.94 33.48
1152 9.7430 9.070692 1139.00 1095.25 33.75
1153 9.7480 9.066050 1107.00 1095.55 33.27
1154 9.7530 9.061414 1101.00 1095.86 33.18
1155 9.7580 9.056782 1070.00 1096.18 32.71
1156 9.7630 9.052155 1049.00 1096.50 32.39
1157 9.7680 9.047532 1136.00 1096.82 33.70
1158 9.7730 9.042915 1131.00 1097.15 33.63
1159 9.7780 9.038302 1089.00 1097.49 33.00
1160 9.7830 9.033694 1136.00 1097.83 33.70
1161 9.7880 9.029091 1100.00 1098.17 33.17
1162 9.7930 9.024491 1111.00 1098.52 33.33
1163 9.7980 9.019897 1130.00 1098.88 33.62
1164 9.8030 9.015307 1143.00 1099.24 33.81
1165 9.8080 9.010723 1104.00 1099.61 33.23
1166 9.8130 9.006144 1172.00 1099.98 34.23
1167 9.8180 9.001568 1148.00 1100.36 33.88
1168 9.8230 8.996997 1102.00 1100.74 33.20
1169 9.8280 8.992431 1140.00 1101.14 33.76
1170 9.8330 8.987869 1115.00 1101.54 33.39
1171 9.8380 8.983313 1128.00 1101.94 33.59
1172 9.8430 8.978761 1126.00 1102.36 33.56
1173 9.8480 8.974215 1124.00 1102.78 33.53
1174 9.8530 8.969671 1121.00 1103.20 33.48
1175 9.8580 8.965133 1120.00 1103.64 33.47
1176 9.8630 8.960599 1102.00 1104.08 33.20
1177 9.8680 8.956070 1091.00 1104.54 33.03
1178 9.8730 8.951546 1137.00 1105.00 33.72
1179 9.8780 8.947025 1202.00 1105.47 34.67
1180 9.8830 8.942510 1123.00 1105.94 33.51
1181 9.8880 8.938001 1110.00 1106.43 33.32
1182 9.8930 8.933495 1186.00 1106.93 34.44
1183 9.8980 8.928992 1164.00 1107.44 34.12
1184 9.9030 8.924496 1170.00 1107.95 34.21
1185 9.9080 8.920003 1151.00 1108.48 33.93
1186 9.9130 8.915515 1152.00 1109.02 33.94
1187 9.9180 8.911032 1137.00 1109.57 33.72
1188 9.9230 8.906552 1110.00 1110.13 33.32
1189 9.9280 8.902078 1104.00 1110.71 33.23
1190 9.9330 8.897609 1093.00 1111.30 33.06
1191 9.9380 8.893144 1047.00 1111.90 32.36
1192 9.9430 8.888682 1090.00 1112.51 33.02
1193 9.9480 8.884226 1104.00 1113.14 33.23
1194 9.9530 8.879773 1132.00 1113.78 33.65
1195 9.9580 8.875326 1197.00 1114.44 34.60
1196 9.9630 8.870884 1200.00 1115.12 34.64
1197 9.9680 8.866445 1200.00 1115.81 34.64
1198 9.9730 8.862012 1204.00 1116.52 34.70
1199 9.9780 8.857582 1239.00 1117.24 35.20
1200 9.9830 8.853157 1235.00 1117.99 35.14
1201 9.9880 8.848736 1208.00 1118.76 34.76
1202 9.9930 8.844319 1191.00 1119.54 34.51
1203 9.9980 8.839908 1185.00 1120.35 34.42
1204 10.0030 8.835501 1134.00 1121.18 33.67
1205 10.0080 8.831097 1186.00 1122.03 34.44
1206 10.0130 8.826699 1216.00 1122.91 34.87
1207 10.0180 8.822305 1206.00 1123.82 34.73
1208 10.0230 8.817915 1164.00 1124.75 34.12
1209 10.0280 8.813529 1180.00 1125.71 34.35
1210 10.0330 8.809149 1202.00 1126.70 34.67
1211 10.0380 8.804771 1218.00 1127.73 34.90
1212 10.0430 8.800399 1218.00 1128.79 34.90
1213 10.0480 8.796031 1231.00 1129.88 35.09
1214 10.0530 8.791667 1244.00 1131.02 35.27
1215 10.0580 8.787309 1173.00 1132.20 34.25
1216 10.0630 8.782953 1149.00 1133.42 33.90
1217 10.0680 8.778603 1147.00 1134.70 33.87
1218 10.0730 8.774257 1099.00 1136.03 33.15
1219 10.0780 8.769915 1081.00 1137.42 32.88
1220 10.0830 8.765577 1115.00 1138.87 33.39
1221 10.0880 8.761244 1138.00 1140.39 33.73
1222 10.0930 8.756914 1131.00 1141.99 33.63
1223 10.0980 8.752590 1138.00 1143.68 33.73
1224 10.1030 8.748270 1157.00 1145.46 34.01
1225 10.1080 8.743954 1142.00 1147.34 33.79
1226 10.1130 8.739641 1114.00 1149.36 33.38
1227 10.1180 8.735334 1138.00 1151.48 33.73
1228 10.1230 8.731030 1161.00 1153.73 34.07
1229 10.1280 8.726731 1140.00 1156.13 33.76
1230 10.1330 8.722436 1201.00 1158.70 34.66
1231 10.1380 8.718146 1223.00 1161.44 34.97
1232 10.1430 8.713860 1219.00 1164.37 34.91
1233 10.1480 8.709578 1209.00 1167.52 34.77
1234 10.1530 8.705299 1216.00 1170.88 34.87
1235 10.1580 8.701026 1191.00 1174.49 34.51
1236 10.1630 8.696755 1222.00 1178.35 34.96
1237 10.1680 8.692491 1290.00 1182.49 35.92
1238 10.1730 8.688230 1245.00 1186.91 35.28
1239 10.1780 8.683972 1187.00 1191.63 34.45
1240 10.1830 8.679720 1176.00 1196.66 34.29
1241 10.1880 8.675472 1159.00 1202.00 34.04
1242 10.1930 8.671227 1193.00 1207.65 34.54
1243 10.1980 8.666987 1213.00 1213.61 34.83
1244 10.2030 8.662751 1216.00 1219.85 34.87
1245 10.2080 8.658519 1227.00 1226.34 35.03
1246 10.2130 8.654291 1252.00 1233.03 35.38
1247 10.2180 8.650067 1217.00 1239.86 34.89
1248 10.2230 8.645848 1229.00 1246.75 35.06
1249 10.2280 8.641633 1300.00 1253.59 36.06
1250 10.2330 8.637422 1338.00 1260.27 36.58
1251 10.2380 8.633214 1316.00 1266.65 36.28
1252 10.2430 8.629011 1275.00 1272.56 35.71
1253 10.2480 8.624812 1302.00 1277.83 36.08
1254 10.2530 8.620618 1340.00 1282.28 36.61
1255 10.2580 8.616426 1324.00 1285.72 36.39
1256 10.2630 8.612241 1289.00 1287.97 35.90
1257 10.2680 8.608058 1236.00 1288.87 35.16
1258 10.2730 8.603880 1233.00 1288.30 35.11
1259 10.2780 8.599706 1232.00 1286.23 35.10
1260 10.2830 8.595535 1222.00 1282.72 34.96
1261 10.2880 8.591369 1253.00 1277.92 35.40
1262 10.2930 8.587206 1273.00 1272.06 35.68
1263 10.2980 8.583048 1272.00 1265.44 35.67
1264 10.3030 8.578895 1249.00 1258.36 35.34
1265 10.3080 8.574744 1236.00 1251.14 35.16
1266 10.3130 8.570599 1243.00 1244.02 35.26
1267 10.3180 8.566456 1235.00 1237.23 35.14
1268 10.3230 8.562319 1250.00 1230.92 35.36
1269 10.3280 8.558185 1250.00 1225.21 35.36
1270 10.3330 8.554054 1226.00 1220.19 35.01
1271 10.3380 8.549928 1219.00 1215.88 34.91
1272 10.3430 8.545806 1203.00 1212.31 34.68
1273 10.3480 8.541689 1191.00 1209.47 34.51
1274 10.3530 8.537575 1193.00 1207.32 34.54
1275 10.3580 8.533464 1221.00 1205.83 34.94
1276 10.3630 8.529358 1226.00 1204.94 35.01
1277 10.3680 8.525256 1177.00 1204.61 34.31
1278 10.3730 8.521157 1099.00 1204.76 33.15
1279 10.3780 8.517064 1111.00 1205.34 33.33
1280 10.3830 8.512973 1161.00 1206.29 34.07
1281 10.3880 8.508887 1202.00 1207.57 34.67
1282 10.3930 8.504806 1211.00 1209.13 34.80
1283 10.3980 8.500727 1212.00 1210.92 34.81
1284 10.4030 8.496653 1199.00 1212.91 34.63
1285 10.4080 8.492582 1208.00 1215.07 34.76
1286 10.4130 8.488515 1225.00 1217.37 35.00
1287 10.4180 8.484452 1256.00 1219.80 35.44
1288 10.4230 8.480393 1274.00 1222.34 35.69
1289 10.4280 8.476337 1259.00 1224.98 35.48
1290 10.4330 8.472287 1268.00 1227.71 35.61
1291 10.4380 8.468241 1286.00 1230.51 35.86
1292 10.4430 8.464197 1295.00 1233.39 35.99
1293 10.4480 8.460157 1306.00 1243.46 36.14
1294 10.4530 8.456121 1332.00 1246.53 36.50
1295 10.4580 8.452090 1330.00 1249.66 36.47
1296 10.4630 8.448062 1324.00 1252.86 36.39
1297 10.4680 8.444038 1309.00 1256.12 36.18
1298 10.4730 8.440019 1305.00 1259.45 36.12
1299 10.4780 8.436002 1311.00 1262.83 36.21
1300 10.4830 8.431990 1298.00 1266.28 36.03
1301 10.4880 8.427981 1280.00 1269.79 35.78
1302 10.4930 8.423976 1242.00 1273.36 35.24
1303 10.4980 8.419975 1236.00 1276.99 35.16
1304 10.5030 8.415977 1281.00 1280.68 35.79
1305 10.5080 8.411984 1280.00 1284.43 35.78
1306 10.5130 8.407996 1288.00 1288.25 35.89
1307 10.5180 8.404010 1338.00 1292.13 36.58
1308 10.5230 8.400028 1329.00 1296.07 36.46
1309 10.5280 8.396049 1273.00 1300.08 35.68
1310 10.5330 8.392075 1280.00 1304.16 35.78
1311 10.5380 8.388104 1329.00 1308.31 36.46
1312 10.5430 8.384137 1318.00 1312.52 36.30
1313 10.5480 8.380175 1290.00 1316.80 35.92
1314 10.5530 8.376215 1305.00 1321.15 36.12
1315 10.5580 8.372260 1311.00 1325.58 36.21
1316 10.5630 8.368308 1317.00 1330.08 36.29
1317 10.5680 8.364360 1330.00 1334.66 36.47
1318 10.5730 8.360415 1362.00 1339.31 36.91
1319 10.5780 8.356475 1392.00 1344.04 37.31
1320 10.5830 8.352538 1389.00 1348.85 37.27
1321 10.5880 8.348605 1352.00 1353.74 36.77
1322 10.5930 8.344675 1332.00 1358.72 36.50
1323 10.5980 8.340751 1345.00 1363.78 36.67
1324 10.6030 8.336828 1365.00 1368.94 36.95
1325 10.6080 8.332910 1398.00 1374.18 37.39
1326 10.6130 8.328995 1387.00 1379.52 37.24
1327 10.6180 8.325085 1333.00 1384.95 36.51
1328 10.6230 8.321177 1330.00 1390.48 36.47
1329 10.6280 8.317273 1367.00 1396.11 36.97
1330 10.6330 8.313374 1390.00 1401.85 37.28
1331 10.6380 8.309478 1401.00 1407.69 37.43
1332 10.6430 8.305586 1425.00 1413.64 37.75
1333 10.6480 8.301696 1440.00 1419.70 37.95
1334 10.6530 8.297811 1440.00 1425.88 37.95
1335 10.6580 8.293929 1447.00 1432.18 38.04
1336 10.6630 8.290051 1482.00 1438.60 38.50
1337 10.6680 8.286178 1500.00 1445.15 38.73
1338 10.6730 8.282307 1500.00 1451.83 38.73
1339 10.6780 8.278440 1504.00 1458.65 38.78
1340 10.6830 8.274577 1493.00 1465.61 38.64
1341 10.6880 8.270718 1467.00 1472.71 38.30
1342 10.6930 8.266861 1467.00 1479.96 38.30
1343 10.6980 8.263008 1462.00 1487.36 38.24
1344 10.7030 8.259159 1501.00 1494.93 38.74
1345 10.7080 8.255314 1545.00 1502.66 39.31
1346 10.7130 8.251472 1578.00 1510.56 39.72
1347 10.7180 8.247634 1534.00 1518.63 39.17
1348 10.7230 8.243800 1522.00 1526.89 39.01
1349 10.7280 8.239968 1503.00 1535.35 38.77
1350 10.7330 8.236141 1510.00 1544.00 38.86
1351 10.7380 8.232318 1490.00 1552.86 38.60
1352 10.7430 8.228498 1471.00 1561.93 38.35
1353 10.7480 8.224680 1455.00 1571.22 38.14
1354 10.7530 8.220867 1514.00 1580.74 38.91
1355 10.7580 8.217057 1597.00 1590.51 39.96
1356 10.7630 8.213252 1595.00 1600.52 39.94
1357 10.7680 8.209449 1599.00 1610.80 39.99
1358 10.7730 8.205650 1600.00 1621.35 40.00
1359 10.7780 8.201855 1636.00 1632.19 40.45
1360 10.7830 8.198062 1688.00 1643.33 41.09
1361 10.7880 8.194274 1650.00 1654.78 40.62
1362 10.7930 8.190489 1590.00 1666.56 39.87
1363 10.7980 8.186707 1621.00 1678.67 40.26
1364 10.8030 8.182930 1682.00 1691.15 41.01
1365 10.8080 8.179156 1660.00 1704.01 40.74
1366 10.8130 8.175385 1652.00 1717.27 40.64
1367 10.8180 8.171618 1634.00 1730.94 40.42
1368 10.8230 8.167853 1661.00 1745.06 40.76
1369 10.8280 8.164093 1752.00 1759.64 41.86
1370 10.8330 8.160336 1803.00 1774.72 42.46
1371 10.8380 8.156583 1853.00 1790.31 43.05
1372 10.8430 8.152832 1857.00 1806.46 43.09
1373 10.8480 8.149086 1839.00 1823.19 42.88
1374 10.8530 8.145344 1832.00 1840.54 42.80
1375 10.8580 8.141603 1849.00 1858.56 43.00
1376 10.8630 8.137868 1889.00 1877.29 43.46
1377 10.8680 8.134134 1920.00 1896.78 43.82
1378 10.8730 8.130405 1942.00 1917.09 44.07
1379 10.8780 8.126679 1960.00 1938.28 44.27
1380 10.8830 8.122957 1974.00 1960.41 44.43
1381 10.8880 8.119239 1995.00 1983.58 44.67
1382 10.8930 8.115522 2012.00 2007.87 44.86
1383 10.8980 8.111811 2009.00 2033.39 44.82
1384 10.9030 8.108102 1995.00 2060.25 44.67
1385 10.9080 8.104396 2044.00 2088.59 45.21
1386 10.9130 8.100694 2064.00 2118.55 45.43
1387 10.9180 8.096995 2060.00 2150.31 45.39
1388 10.9230 8.093300 2179.00 2184.02 46.68
1389 10.9280 8.089608 2305.00 2219.92 48.01
1390 10.9330 8.085920 2292.00 2258.18 47.87
1391 10.9380 8.082235 2296.00 2299.03 47.92
1392 10.9430 8.078554 2295.00 2342.66 47.91
1393 10.9480 8.074876 2339.00 2389.27 48.36
1394 10.9530 8.071200 2383.00 2438.99 48.82
1395 10.9580 8.067529 2434.00 2491.94 49.34
1396 10.9630 8.063861 2496.00 2548.10 49.96
1397 10.9680 8.060195 2517.00 2607.40 50.17
1398 10.9730 8.056535 2564.00 2669.60 50.64
1399 10.9780 8.052876 2694.00 2734.29 51.90
1400 10.9830 8.049221 2788.00 2800.87 52.80
1401 10.9880 8.045570 2834.00 2868.51 53.24
1402 10.9930 8.041922 2793.00 2936.15 52.85
1403 10.9980 8.038277 2839.00 3002.46 53.28
1404 11.0030 8.034635 2992.00 3065.86 54.70
1405 11.0080 8.030997 3061.00 3124.50 55.33
1406 11.0130 8.027362 3035.00 3176.34 55.09
1407 11.0180 8.023731 3123.00 3219.06 55.88
1408 11.0230 8.020103 3244.00 3250.25 56.96
1409 11.0280 8.016478 3284.00 3267.41 57.31
1410 11.0330 8.012856 3304.00 3268.17 57.48
1411 11.0380 8.009236 3296.00 3250.43 57.41
1412 11.0430 8.005622 3273.00 3212.72 57.21
1413 11.0480 8.002010 3169.00 3154.47 56.29
1414 11.0530 7.998401 3190.00 3076.30 56.48
1415 11.0580 7.994796 3068.00 2980.09 55.39
1416 11.0630 7.991194 2905.00 2868.98 53.90
1417 11.0680 7.987595 2711.00 2746.85 52.07
1418 11.0730 7.984000 2611.00 2617.98 51.10
1419 11.0780 7.980407 2487.00 2486.44 49.87
1420 11.0830 7.976818 2416.00 2355.92 49.15
1421 11.0880 7.973232 2254.00 2229.37 47.48
1422 11.0930 7.969649 2148.00 2109.08 46.35
1423 11.0980 7.966071 2003.00 1996.67 44.75
1424 11.1030 7.962494 1930.00 1893.26 43.93
1425 11.1080 7.958921 1910.00 1799.39 43.70
1426 11.1130 7.955351 1858.00 1715.30 43.10
1427 11.1180 7.951785 1775.00 1640.82 42.13
1428 11.1230 7.948222 1715.00 1575.61 41.41
1429 11.1280 7.944662 1714.00 1519.10 41.40
1430 11.1330 7.941104 1579.00 1470.61 39.74
1431 11.1380 7.937552 1472.00 1429.34 38.37
1432 11.1430 7.934001 1470.00 1394.54 38.34
1433 11.1480 7.930454 1438.00 1365.38 37.92
1434 11.1530 7.926909 1513.00 1341.11 38.90
1435 11.1580 7.923368 1451.00 1321.04 38.09
1436 11.1630 7.919831 1465.00 1304.51 38.28
1437 11.1680 7.916296 1490.00 1290.99 38.60
1438 11.1730 7.912765 1457.00 1279.97 38.17
1439 11.1780 7.909236 1387.00 1271.07 37.24
1440 11.1830 7.905712 1397.00 1263.94 37.38
1441 11.1880 7.902190 1425.00 1258.31 37.75
1442 11.1930 7.898671 1404.00 1253.95 37.47
1443 11.1980 7.895155 1424.00 1250.68 37.74
1444 11.2030 7.891643 1358.00 1248.36 36.85
1445 11.2080 7.888134 1355.00 1246.86 36.81
1446 11.2130 7.884627 1374.00 1246.09 37.07
1447 11.2180 7.881124 1356.00 1245.97 36.82
1448 11.2230 7.877625 1357.00 1246.44 36.84
1449 11.2280 7.874128 1351.00 1247.42 36.76
1450 11.2330 7.870634 1406.00 1248.88 37.50
1451 11.2380 7.867144 1373.00 1250.77 37.05
1452 11.2430 7.863657 1393.00 1253.05 37.32
1453 11.2480 7.860171 1390.00 1255.70 37.28
1454 11.2530 7.856690 1337.00 1258.68 36.56
1455 11.2580 7.853212 1384.00 1261.97 37.20
1456 11.2630 7.849738 1335.00 1265.54 36.54
1457 11.2680 7.846265 1327.00 1269.38 36.43
1458 11.2730 7.842796 1427.00 1273.47 37.78
1459 11.2780 7.839331 1416.00 1277.78 37.63
1460 11.2830 7.835868 1372.00 1282.32 37.04
1461 11.2880 7.832408 1422.00 1287.07 37.71
1462 11.2930 7.828951 1460.00 1292.01 38.21
1463 11.2980 7.825498 1389.00 1297.14 37.27
1464 11.3030 7.822048 1379.00 1302.45 37.13
1465 11.3080 7.818601 1397.00 1307.93 37.38
1466 11.3130 7.815156 1346.00 1313.59 36.69
1467 11.3180 7.811715 1376.00 1319.40 37.09
1468 11.3230 7.808276 1375.00 1325.38 37.08
1469 11.3280 7.804841 1417.00 1331.51 37.64
1470 11.3330 7.801409 1538.00 1337.79 39.22
1471 11.3380 7.797979 1508.00 1344.22 38.83
1472 11.3430 7.794553 1474.00 1350.80 38.39
1473 11.3480 7.791131 1441.00 1357.53 37.96
1474 11.3530 7.787711 1385.00 1364.40 37.22
1475 11.3580 7.784293 1405.00 1371.41 37.48
1476 11.3630 7.780879 1419.00 1378.56 37.67
1477 11.3680 7.777468 1429.00 1385.86 37.80
1478 11.3730 7.774060 1409.00 1393.30 37.54
1479 11.3780 7.770655 1457.00 1400.87 38.17
1480 11.3830 7.767253 1465.00 1408.59 38.28
1481 11.3880 7.763854 1436.00 1416.45 37.89
1482 11.3930 7.760458 1426.00 1424.45 37.76
1483 11.3980 7.757065 1422.00 1432.59 37.71
1484 11.4030 7.753675 1437.00 1440.88 37.91
1485 11.4080 7.750288 1444.00 1449.30 38.00
1486 11.4130 7.746904 1513.00 1457.88 38.90
1487 11.4180 7.743522 1501.00 1466.59 38.74
1488 11.4230 7.740144 1433.00 1475.46 37.85
1489 11.4280 7.736768 1436.00 1484.47 37.89
1490 11.4330 7.733397 1491.00 1493.63 38.61
1491 11.4380 7.730028 1551.00 1502.95 39.38
1492 11.4430 7.726661 1545.00 1512.42 39.31
1493 11.4480 7.723297 1590.00 1522.05 39.87
1494 11.4530 7.719937 1644.00 1531.84 40.55
1495 11.4580 7.716579 1668.00 1541.79 40.84
1496 11.4630 7.713224 1682.00 1551.90 41.01
1497 11.4680 7.709873 1686.00 1562.18 41.06
1498 11.4730 7.706524 1657.00 1573.11 40.71
1499 11.4780 7.703178 1649.00 1583.74 40.61
1500 11.4830 7.699836 1628.00 1594.54 40.35
1501 11.4880 7.696496 1685.00 1605.53 41.05
1502 11.4930 7.693159 1712.00 1616.70 41.38
1503 11.4980 7.689824 1711.00 1628.05 41.36
1504 11.5030 7.686493 1730.00 1639.60 41.59
1505 11.5080 7.683164 1734.00 1651.35 41.64
1506 11.5130 7.679839 1666.00 1663.29 40.82
1507 11.5180 7.676517 1650.00 1675.45 40.62
1508 11.5230 7.673197 1701.00 1687.82 41.24
1509 11.5280 7.669880 1753.00 1700.40 41.87
1510 11.5330 7.666565 1800.00 1713.21 42.43
1511 11.5380 7.663254 1798.00 1726.25 42.40
1512 11.5430 7.659946 1795.00 1739.53 42.37
1513 11.5480 7.656641 1853.00 1753.04 43.05
1514 11.5530 7.653338 1847.00 1766.82 42.98
1515 11.5580 7.650039 1854.00 1780.85 43.06
1516 11.5630 7.646743 1842.00 1795.15 42.92
1517 11.5680 7.643448 1860.00 1809.73 43.13
1518 11.5730 7.640157 1841.00 1824.59 42.91
1519 11.5780 7.636869 1872.00 1839.74 43.27
1520 11.5830 7.633584 1901.00 1855.20 43.60
1521 11.5880 7.630301 1925.00 1870.96 43.87
1522 11.5930 7.627021 1928.00 1887.05 43.91
1523 11.5980 7.623745 1995.00 1903.45 44.67
1524 11.6030 7.620471 2030.00 1920.17 45.06
1525 11.6080 7.617200 1978.00 1937.22 44.47
1526 11.6130 7.613931 1968.00 1954.60 44.36
1527 11.6180 7.610666 2020.00 1972.29 44.94
1528 11.6230 7.607402 2113.00 1990.31 45.97
1529 11.6280 7.604143 2058.00 2008.63 45.37
1530 11.6330 7.600886 2099.00 2027.25 45.81
1531 11.6380 7.597631 2205.00 2046.17 46.96
1532 11.6430 7.594380 2213.00 2065.36 47.04
1533 11.6480 7.591132 2193.00 2084.81 46.83
1534 11.6530 7.587885 2178.00 2104.50 46.67
1535 11.6580 7.584642 2180.00 2124.42 46.69
1536 11.6630 7.581402 2208.00 2144.56 46.99
1537 11.6680 7.578164 2245.00 2164.93 47.38
1538 11.6730 7.574929 2284.00 2185.52 47.79
1539 11.6780 7.571697 2277.00 2206.38 47.72
1540 11.6830 7.568469 2255.00 2227.53 47.49
1541 11.6880 7.565242 2211.00 2249.03 47.02
1542 11.6930 7.562018 2240.00 2270.95 47.33
1543 11.6980 7.558797 2296.00 2293.35 47.92
1544 11.7030 7.555579 2352.00 2316.29 48.50
1545 11.7080 7.552363 2412.00 2339.86 49.11
1546 11.7130 7.549150 2408.00 2364.08 49.07
1547 11.7180 7.545940 2390.00 2389.03 48.89
1548 11.7230 7.542734 2415.00 2414.75 49.14
1549 11.7280 7.539529 2455.00 2441.27 49.55
1550 11.7330 7.536327 2544.00 2468.64 50.44
1551 11.7380 7.533129 2592.00 2496.88 50.91
1552 11.7430 7.529932 2573.00 2526.02 50.72
1553 11.7480 7.526738 2575.00 2556.10 50.74
1554 11.7530 7.523547 2568.00 2587.16 50.68
1555 11.7580 7.520360 2574.00 2619.22 50.73
1556 11.7630 7.517174 2663.00 2652.33 51.60
1557 11.7680 7.513991 2756.00 2686.51 52.50
1558 11.7730 7.510812 2787.00 2721.82 52.79
1559 11.7780 7.507634 2801.00 2758.29 52.92
1560 11.7830 7.504460 2885.00 2796.00 53.71
1561 11.7880 7.501288 2930.00 2834.97 54.13
1562 11.7930 7.498119 2941.00 2875.30 54.23
1563 11.7980 7.494952 2994.00 2917.02 54.72
1564 11.8030 7.491788 3026.00 2960.23 55.01
1565 11.8080 7.488627 2983.00 3005.03 54.62
1566 11.8130 7.485469 2973.00 3051.49 54.53
1567 11.8180 7.482314 3043.00 3099.73 55.16
1568 11.8230 7.479160 3117.00 3149.86 55.83
1569 11.8280 7.476010 3167.00 3202.01 56.28
1570 11.8330 7.472862 3247.00 3256.31 56.98
1571 11.8380 7.469717 3296.00 3312.94 57.41
1572 11.8430 7.466574 3388.00 3372.08 58.21
1573 11.8480 7.463435 3539.00 3433.94 59.49
1574 11.8530 7.460298 3571.00 3498.74 59.76
1575 11.8580 7.457163 3559.00 3566.76 59.66
1576 11.8630 7.454031 3596.00 3638.15 59.97
1577 11.8680 7.450902 3662.00 3713.52 60.51
1578 11.8730 7.447775 3782.00 3793.11 61.50
1579 11.8780 7.444652 3877.00 3877.36 62.27
1580 11.8830 7.441530 3975.00 3966.69 63.05
1581 11.8880 7.438412 4100.00 4061.66 64.03
1582 11.8930 7.435296 4206.00 4162.82 64.85
1583 11.8980 7.432182 4267.00 4270.68 65.32
1584 11.9030 7.429072 4320.00 4385.84 65.73
1585 11.9080 7.425963 4448.00 4508.79 66.69
1586 11.9130 7.422858 4591.00 4640.00 67.76
1587 11.9180 7.419755 4734.00 4779.77 68.80
1588 11.9230 7.416655 4886.00 4928.24 69.90
1589 11.9280 7.413557 5034.00 5085.28 70.95
1590 11.9330 7.410462 5219.00 5250.48 72.24
1591 11.9380 7.407370 5398.00 5422.88 73.47
1592 11.9430 7.404280 5548.00 5601.18 74.48
1593 11.9480 7.401192 5674.00 5783.36 75.33
1594 11.9530 7.398108 5841.00 5966.92 76.43
1595 11.9580 7.395025 6074.00 6148.53 77.94
1596 11.9630 7.391946 6289.00 6324.26 79.30
1597 11.9680 7.388869 6443.00 6489.45 80.27
1598 11.9730 7.385795 6551.00 6638.75 80.94
1599 11.9780 7.382723 6723.00 6766.14 81.99
1600 11.9830 7.379653 6831.00 6865.17 82.65
1601 11.9880 7.376587 6916.00 6929.01 83.16
1602 11.9930 7.373522 6969.00 6950.94 83.48
1603 11.9980 7.370461 6893.00 6924.74 83.02
1604 12.0030 7.367402 6885.00 6845.50 82.98
1605 12.0080 7.364345 6754.00 6710.44 82.18
1606 12.0130 7.361292 6497.00 6519.81 80.60
1607 12.0180 7.358240 6276.00 6277.35 79.22
1608 12.0230 7.355191 5921.00 5990.41 76.95
1609 12.0280 7.352145 5454.00 5668.92 73.85
1610 12.0330 7.349102 5003.00 5324.45 70.73
1611 12.0380 7.346060 4638.00 4968.47 68.10
1612 12.0430 7.343021 4321.00 4611.64 65.73
1613 12.0480 7.339985 3968.00 4262.77 62.99
1614 12.0530 7.336951 3659.00 3928.78 60.49
1615 12.0580 7.333920 3416.00 3614.67 58.45
1616 12.0630 7.330892 3116.00 3323.95 55.82
1617 12.0680 7.327866 2851.00 3058.51 53.39
1618 12.0730 7.324842 2656.00 2819.28 51.54
1619 12.0780 7.321821 2498.00 2606.07 49.98
1620 12.0830 7.318802 2325.00 2418.12 48.22
1621 12.0880 7.315786 2178.00 2254.04 46.67
1622 12.0930 7.312773 2100.00 2111.96 45.83
1623 12.0980 7.309762 2024.00 1989.92 44.99
1624 12.1030 7.306753 1886.00 1885.72 43.43
1625 12.1080 7.303747 1794.00 1797.21 42.36
1626 12.1130 7.300744 1726.00 1722.23 41.55
1627 12.1180 7.297742 1618.00 1658.83 40.22
1628 12.1230 7.294744 1527.00 1605.17 39.08
1629 12.1280 7.291747 1508.00 1559.64 38.83
1630 12.1330 7.288754 1481.00 1520.84 38.48
1631 12.1380 7.285763 1491.00 1487.56 38.61
1632 12.1430 7.282774 1478.00 1458.80 38.44
1633 12.1480 7.279788 1429.00 1433.73 37.80
1634 12.1530 7.276803 1390.00 1411.68 37.28
1635 12.1580 7.273823 1353.00 1392.11 36.78
1636 12.1630 7.270844 1311.00 1374.58 36.21
1637 12.1680 7.267867 1291.00 1358.75 35.93
1638 12.1730 7.264893 1246.00 1344.36 35.30
1639 12.1780 7.261921 1243.00 1331.19 35.26
1640 12.1830 7.258952 1241.00 1319.08 35.23
1641 12.1880 7.255986 1218.00 1307.89 34.90
1642 12.1930 7.253022 1181.00 1297.51 34.37
1643 12.1980 7.250060 1188.00 1287.88 34.47
1644 12.2030 7.247100 1178.00 1278.87 34.32
1645 12.2080 7.244143 1160.00 1270.45 34.06
1646 12.2130 7.241189 1191.00 1262.57 34.51
1647 12.2180 7.238236 1214.00 1255.17 34.84
1648 12.2230 7.235287 1192.00 1248.23 34.53
1649 12.2280 7.232340 1153.00 1241.69 33.96
1650 12.2330 7.229395 1172.00 1235.55 34.23
1651 12.2380 7.226452 1159.00 1229.76 34.04
1652 12.2430 7.223512 1187.00 1224.30 34.45
1653 12.2480 7.220574 1216.00 1219.15 34.87
1654 12.2530 7.217639 1187.00 1214.29 34.45
1655 12.2580 7.214706 1147.00 1209.71 33.87
1656 12.2630 7.211776 1121.00 1205.37 33.48
1657 12.2680 7.208848 1133.00 1201.28 33.66
1658 12.2730 7.205923 1155.00 1197.42 33.99
1659 12.2780 7.203000 1165.00 1193.77 34.13
1660 12.2830 7.200078 1177.00 1190.32 34.31
1661 12.2880 7.197160 1163.00 1187.06 34.10
1662 12.2930 7.194244 1164.00 1183.99 34.12
1663 12.2980 7.191330 1187.00 1181.08 34.45
1664 12.3030 7.188418 1203.00 1178.34 34.68
1665 12.3080 7.185510 1207.00 1175.75 34.74
1666 12.3130 7.182603 1154.00 1173.30 33.97
1667 12.3180 7.179699 1126.00 1170.99 33.56
1668 12.3230 7.176797 1156.00 1168.81 34.00
1669 12.3280 7.173897 1152.00 1166.75 33.94
1670 12.3330 7.171000 1125.00 1164.81 33.54
1671 12.3380 7.168106 1139.00 1162.97 33.75
1672 12.3430 7.165213 1116.00 1161.24 33.41
1673 12.3480 7.162323 1100.00 1159.60 33.17
1674 12.3530 7.159435 1093.00 1158.05 33.06
1675 12.3580 7.156550 1108.00 1156.59 33.29
1676 12.3630 7.153666 1093.00 1155.22 33.06
1677 12.3680 7.150786 1107.00 1153.92 33.27
1678 12.3730 7.147907 1133.00 1152.69 33.66
1679 12.3780 7.145031 1100.00 1151.54 33.17
1680 12.3830 7.142157 1106.00 1150.46 33.26
1681 12.3880 7.139287 1141.00 1149.44 33.78
1682 12.3930 7.136417 1146.00 1148.48 33.85
1683 12.3980 7.133550 1123.00 1147.97 33.51
1684 12.4030 7.130686 1128.00 1147.13 33.59
1685 12.4080 7.127823 1145.00 1146.35 33.84
1686 12.4130 7.124963 1138.00 1145.62 33.73
1687 12.4180 7.122106 1130.00 1144.94 33.62
1688 12.4230 7.119250 1163.00 1144.31 34.10
1689 12.4280 7.116397 1156.00 1143.73 34.00
1690 12.4330 7.113547 1144.00 1143.19 33.82
1691 12.4380 7.110699 1126.00 1142.70 33.56
1692 12.4430 7.107852 1112.00 1142.25 33.35
1693 12.4480 7.105009 1117.00 1141.85 33.42
1694 12.4530 7.102167 1079.00 1141.48 32.85
1695 12.4580 7.099328 1093.00 1141.15 33.06
1696 12.4630 7.096491 1127.00 1140.87 33.57
1697 12.4680 7.093656 1097.00 1140.62 33.12
1698 12.4730 7.090825 1101.00 1140.40 33.18
1699 12.4780 7.087994 1130.00 1140.22 33.62
1700 12.4830 7.085166 1106.00 1140.08 33.26
1701 12.4880 7.082340 1107.00 1139.97 33.27
1702 12.4930 7.079517 1113.00 1139.90 33.36
1703 12.4980 7.076696 1100.00 1139.85 33.17
1704 12.5030 7.073877 1108.00 1139.84 33.29
1705 12.5080 7.071061 1144.00 1139.87 33.82
1706 12.5130 7.068247 1129.00 1139.92 33.60
1707 12.5180 7.065435 1141.00 1140.00 33.78
1708 12.5230 7.062625 1154.00 1140.12 33.97
1709 12.5280 7.059817 1162.00 1140.26 34.09
1710 12.5330 7.057012 1122.00 1140.44 33.50
1711 12.5380 7.054209 1068.00 1140.64 32.68
1712 12.5430 7.051408 1079.00 1140.87 32.85
1713 12.5480 7.048610 1099.00 1141.14 33.15
1714 12.5530 7.045813 1084.00 1141.43 32.92
1715 12.5580 7.043020 1062.00 1141.74 32.59
1716 12.5630 7.040228 1082.00 1142.09 32.89
1717 12.5680 7.037438 1068.00 1142.47 32.68
1718 12.5730 7.034651 1138.00 1142.87 33.73
1719 12.5780 7.031866 1182.00 1143.31 34.38
1720 12.5830 7.029082 1150.00 1143.77 33.91
1721 12.5880 7.026301 1108.00 1144.32 33.29
1722 12.5930 7.023523 1135.00 1144.84 33.69
1723 12.5980 7.020747 1164.00 1145.38 34.12
1724 12.6030 7.017973 1155.00 1145.96 33.99
1725 12.6080 7.015201 1113.00 1146.56 33.36
1726 12.6130 7.012431 1130.00 1147.20 33.62
1727 12.6180 7.009664 1116.00 1147.86 33.41
1728 12.6230 7.006898 1072.00 1148.56 32.74
1729 12.6280 7.004135 1121.00 1149.28 33.48
1730 12.6330 7.001374 1165.00 1148.28 34.13
1731 12.6380 6.998616 1185.00 1149.07 34.42
1732 12.6430 6.995859 1174.00 1149.90 34.26
1733 12.6480 6.993104 1189.00 1150.75 34.48
1734 12.6530 6.990352 1168.00 1151.64 34.18
1735 12.6580 6.987603 1166.00 1152.57 34.15
1736 12.6630 6.984855 1206.00 1153.52 34.73
1737 12.6680 6.982109 1199.00 1154.51 34.63
1738 12.6730 6.979365 1167.00 1155.53 34.16
1739 12.6780 6.976624 1194.00 1156.59 34.55
1740 12.6830 6.973885 1224.00 1157.69 34.99
1741 12.6880 6.971148 1224.00 1158.82 34.99
1742 12.6930 6.968413 1187.00 1159.99 34.45
1743 12.6980 6.965681 1206.00 1161.20 34.73
1744 12.7030 6.962950 1196.00 1162.45 34.58
1745 12.7080 6.960221 1142.00 1163.74 33.79
1746 12.7130 6.957495 1204.00 1165.07 34.70
1747 12.7180 6.954771 1214.00 1166.45 34.84
1748 12.7230 6.952050 1214.00 1167.86 34.84
1749 12.7280 6.949330 1191.00 1169.33 34.51
1750 12.7330 6.946612 1142.00 1170.84 33.79
1751 12.7380 6.943897 1131.00 1172.41 33.63
1752 12.7430 6.941183 1173.00 1174.02 34.25
1753 12.7480 6.938472 1180.00 1175.69 34.35
1754 12.7530 6.935763 1163.00 1177.41 34.10
1755 12.7580 6.933056 1150.00 1179.18 33.91
1756 12.7630 6.930352 1175.00 1181.02 34.28
1757 12.7680 6.927649 1184.00 1182.92 34.41
1758 12.7730 6.924948 1210.00 1184.88 34.79
1759 12.7780 6.922249 1211.00 1186.91 34.80
1760 12.7830 6.919553 1195.00 1189.01 34.57
1761 12.7880 6.916859 1201.00 1191.18 34.66
1762 12.7930 6.914166 1201.00 1193.42 34.66
1763 12.7980 6.911477 1203.00 1195.75 34.68
1764 12.8030 6.908788 1170.00 1198.15 34.21
1765 12.8080 6.906103 1158.00 1200.65 34.03
1766 12.8130 6.903419 1156.00 1203.24 34.00
1767 12.8180 6.900737 1140.00 1205.92 33.76
1768 12.8230 6.898058 1204.00 1208.71 34.70
1769 12.8280 6.895380 1195.00 1211.61 34.57
1770 12.8330 6.892705 1228.00 1214.62 35.04
1771 12.8380 6.890032 1255.00 1217.75 35.43
1772 12.8430 6.887361 1259.00 1221.01 35.48
1773 12.8480 6.884692 1218.00 1224.40 34.90
1774 12.8530 6.882025 1172.00 1227.95 34.23
1775 12.8580 6.879360 1191.00 1231.65 34.51
1776 12.8630 6.876697 1219.00 1235.52 34.91
1777 12.8680 6.874036 1188.00 1239.58 34.47
1778 12.8730 6.871377 1229.00 1243.83 35.06
1779 12.8780 6.868721 1268.00 1248.29 35.61
1780 12.8830 6.866066 1257.00 1252.99 35.45
1781 12.8880 6.863414 1283.00 1257.94 35.82
1782 12.8930 6.860763 1306.00 1263.17 36.14
1783 12.8980 6.858115 1298.00 1268.70 36.03
1784 12.9030 6.855468 1279.00 1274.58 35.76
1785 12.9080 6.852824 1258.00 1280.82 35.47
1786 12.9130 6.850182 1291.00 1287.47 35.93
1787 12.9180 6.847541 1291.00 1294.56 35.93
1788 12.9230 6.844903 1291.00 1302.13 35.93
1789 12.9280 6.842268 1323.00 1310.22 36.37
1790 12.9330 6.839634 1358.00 1318.87 36.85
1791 12.9380 6.837001 1362.00 1328.10 36.91
1792 12.9430 6.834372 1375.00 1337.93 37.08
1793 12.9480 6.831744 1378.00 1348.36 37.12
1794 12.9530 6.829118 1370.00 1359.39 37.01
1795 12.9580 6.826494 1376.00 1370.97 37.09
1796 12.9630 6.823872 1385.00 1383.02 37.22
1797 12.9680 6.821252 1371.00 1395.45 37.03
1798 12.9730 6.818635 1389.00 1408.10 37.27
1799 12.9780 6.816019 1396.00 1420.78 37.36
1800 12.9830 6.813405 1422.00 1433.26 37.71
1801 12.9880 6.810793 1458.00 1445.24 38.18
1802 12.9930 6.808183 1455.00 1456.38 38.14
1803 12.9980 6.805575 1479.00 1466.29 38.46
1804 13.0030 6.802970 1532.00 1474.54 39.14
1805 13.0080 6.800366 1584.00 1480.67 39.80
1806 13.0130 6.797765 1600.00 1484.21 40.00
1807 13.0180 6.795165 1517.00 1484.66 38.95
1808 13.0230 6.792567 1565.00 1481.63 39.56
1809 13.0280 6.789972 1519.00 1474.81 38.97
1810 13.0330 6.787378 1516.00 1464.07 38.94
1811 13.0380 6.784786 1435.00 1449.52 37.88
1812 13.0430 6.782197 1413.00 1431.53 37.59
1813 13.0480 6.779609 1409.00 1410.68 37.54
1814 13.0530 6.777023 1372.00 1387.74 37.04
1815 13.0580 6.774439 1387.00 1363.52 37.24
1816 13.0630 6.771858 1370.00 1338.81 37.01
1817 13.0680 6.769278 1375.00 1314.32 37.08
1818 13.0730 6.766700 1345.00 1290.59 36.67
1819 13.0780 6.764124 1318.00 1268.07 36.30
1820 13.0830 6.761550 1283.00 1247.03 35.82
1821 13.0880 6.758978 1249.00 1227.68 35.34
1822 13.0930 6.756409 1237.00 1210.12 35.17
1823 13.0980 6.753841 1194.00 1194.35 34.55
1824 13.1030 6.751275 1188.00 1180.37 34.47
1825 13.1080 6.748711 1212.00 1168.08 34.81
1826 13.1130 6.746149 1167.00 1157.38 34.16
1827 13.1180 6.743589 1129.00 1148.14 33.60
1828 13.1230 6.741030 1143.00 1140.22 33.81
1829 13.1280 6.738474 1167.00 1133.46 34.16
1830 13.1330 6.735920 1184.00 1127.72 34.41
1831 13.1380 6.733368 1174.00 1122.85 34.26
1832 13.1430 6.730817 1155.00 1118.72 33.99
1833 13.1480 6.728269 1139.00 1115.23 33.75
1834 13.1530 6.725722 1129.00 1112.25 33.60
1835 13.1580 6.723178 1118.00 1109.71 33.44
1836 13.1630 6.720635 1114.00 1107.52 33.38
1837 13.1680 6.718095 1147.00 1105.62 33.87
1838 13.1730 6.715556 1167.00 1103.97 34.16
1839 13.1780 6.713019 1130.00 1102.51 33.62
1840 13.1830 6.710485 1149.00 1101.22 33.90
1841 13.1880 6.707952 1122.00 1100.07 33.50
1842 13.1930 6.705421 1058.00 1099.03 32.53
1843 13.1980 6.702891 1058.00 1098.10 32.53
1844 13.2030 6.700364 1060.00 1097.25 32.56
1845 13.2080 6.697839 1053.00 1096.49 32.45
1846 13.2130 6.695315 1075.00 1095.79 32.79
1847 13.2180 6.692794 1078.00 1095.16 32.83
1848 13.2230 6.690275 1072.00 1094.59 32.74
1849 13.2280 6.687757 1076.00 1094.07 32.80
1850 13.2330 6.685242 1060.00 1093.61 32.56
1851 13.2380 6.682728 1097.00 1093.20 33.12
1852 13.2430 6.680216 1088.00 1092.83 32.98
1853 13.2480 6.677706 1097.00 1092.52 33.12
1854 13.2530 6.675198 1092.00 1092.23 33.05
1855 13.2580 6.672691 1072.00 1092.00 32.74
1856 13.2630 6.670187 1095.00 1091.82 33.09
1857 13.2680 6.667685 1119.00 1091.68 33.45
1858 13.2730 6.665184 1128.00 1091.59 33.59
1859 13.2780 6.662686 1104.00 1091.53 33.23
1860 13.2830 6.660189 1104.00 1091.51 33.23
1861 13.2880 6.657694 1090.00 1091.53 33.02
1862 13.2930 6.655201 1074.00 1091.59 32.77
1863 13.2980 6.652710 1089.00 1091.68 33.00
1864 13.3030 6.650220 1113.00 1091.80 33.36
1865 13.3080 6.647734 1090.00 1091.95 33.02
1866 13.3130 6.645248 1079.00 1092.13 32.85
1867 13.3180 6.642765 1095.00 1092.34 33.09
1868 13.3230 6.640283 1118.00 1092.57 33.44
1869 13.3280 6.637803 1085.00 1092.83 32.94
1870 13.3330 6.635325 1055.00 1093.10 32.48
1871 13.3380 6.632849 1070.00 1093.41 32.71
1872 13.3430 6.630374 1049.00 1093.73 32.39
1873 13.3480 6.627902 1013.00 1094.07 31.83
1874 13.3530 6.625432 1034.00 1094.43 32.16
1875 13.3580 6.622963 1061.00 1094.81 32.57
1876 13.3630 6.620496 1069.00 1095.21 32.70
1877 13.3680 6.618031 1068.00 1095.63 32.68
1878 13.3730 6.615568 1082.00 1096.06 32.89
1879 13.3780 6.613106 1089.00 1096.51 33.00
1880 13.3830 6.610647 1101.00 1096.98 33.18
1881 13.3880 6.608190 1128.00 1097.46 33.59
1882 13.3930 6.605733 1124.00 1097.96 33.53
1883 13.3980 6.603280 1128.00 1098.48 33.59
1884 13.4030 6.600827 1099.00 1099.01 33.15
1885 13.4080 6.598377 1085.00 1099.56 32.94
1886 13.4130 6.595929 1067.00 1100.13 32.67
1887 13.4180 6.593482 1111.00 1100.72 33.33
1888 13.4230 6.591037 1190.00 1101.32 34.50
1889 13.4280 6.588594 1215.00 1101.94 34.86
1890 13.4330 6.586154 1184.00 1102.57 34.41
1891 13.4380 6.583714 1166.00 1103.23 34.15
1892 13.4430 6.581276 1120.00 1103.90 33.47
1893 13.4480 6.578840 1095.00 1104.59 33.09
1894 13.4530 6.576406 1093.00 1105.31 33.06
1895 13.4580 6.573975 1117.00 1106.04 33.42
1896 13.4630 6.571544 1136.00 1106.79 33.70
1897 13.4680 6.569116 1157.00 1107.56 34.01
1898 13.4730 6.566689 1147.00 1108.35 33.87
1899 13.4780 6.564265 1099.00 1109.16 33.15
1900 13.4830 6.561841 1089.00 1110.00 33.00
1901 13.4880 6.559420 1128.00 1110.85 33.59
1902 13.4930 6.557001 1167.00 1111.73 34.16
1903 13.4980 6.554583 1161.00 1112.63 34.07
1904 13.5030 6.552167 1193.00 1113.55 34.54
1905 13.5080 6.549753 1179.00 1114.49 34.34
1906 13.5130 6.547341 1144.00 1115.46 33.82
1907 13.5180 6.544931 1120.00 1116.45 33.47
1908 13.5230 6.542522 1130.00 1117.47 33.62
1909 13.5280 6.540115 1145.00 1118.51 33.84
1910 13.5330 6.537710 1157.00 1119.57 34.01
1911 13.5380 6.535306 1120.00 1120.66 33.47
1912 13.5430 6.532905 1100.00 1121.78 33.17
1913 13.5480 6.530505 1114.00 1122.92 33.38
1914 13.5530 6.528107 1106.00 1124.10 33.26
1915 13.5580 6.525711 1119.00 1125.30 33.45
1916 13.5630 6.523316 1098.00 1126.53 33.14
1917 13.5680 6.520924 1123.00 1127.79 33.51
1918 13.5730 6.518533 1151.00 1129.08 33.93
1919 13.5780 6.516143 1199.00 1130.41 34.63
1920 13.5830 6.513756 1130.00 1131.77 33.62
1921 13.5880 6.511371 1088.00 1133.16 32.98
1922 13.5930 6.508986 1105.00 1129.77 33.24
1923 13.5980 6.506605 1153.00 1131.27 33.96
1924 13.6030 6.504224 1149.00 1132.82 33.90
1925 13.6080 6.501846 1203.00 1134.40 34.68
1926 13.6130 6.499469 1216.00 1136.03 34.87
1927 13.6180 6.497094 1221.00 1137.71 34.94
1928 13.6230 6.494720 1212.00 1139.44 34.81
1929 13.6280 6.492349 1151.00 1141.23 33.93
1930 13.6330 6.489979 1150.00 1143.07 33.91
1931 13.6380 6.487611 1171.00 1144.97 34.22
1932 13.6430 6.485244 1136.00 1146.94 33.70
1933 13.6480 6.482880 1150.00 1148.98 33.91
1934 13.6530 6.480517 1168.00 1151.09 34.18
1935 13.6580 6.478156 1178.00 1153.28 34.32
1936 13.6630 6.475796 1181.00 1155.56 34.37
1937 13.6680 6.473438 1179.00 1157.92 34.34
1938 13.6730 6.471082 1123.00 1160.38 33.51
1939 13.6780 6.468728 1120.00 1162.92 33.47
1940 13.6830 6.466376 1133.00 1165.57 33.66
1941 13.6880 6.464025 1132.00 1168.30 33.65
1942 13.6930 6.461676 1156.00 1171.13 34.00
1943 13.6980 6.459328 1129.00 1174.04 33.60
1944 13.7030 6.456983 1151.00 1177.02 33.93
1945 13.7080 6.454638 1205.00 1180.07 34.71
1946 13.7130 6.452296 1222.00 1183.17 34.96
1947 13.7180 6.449955 1206.00 1186.29 34.73
1948 13.7230 6.447617 1241.00 1189.42 35.23
1949 13.7280 6.445280 1221.00 1192.52 34.94
1950 13.7330 6.442945 1255.00 1195.56 35.43
1951 13.7380 6.440611 1287.00 1198.52 35.87
1952 13.7430 6.438279 1304.00 1201.34 36.11
1953 13.7480 6.435948 1342.00 1204.00 36.63
1954 13.7530 6.433620 1322.00 1206.47 36.36
1955 13.7580 6.431293 1292.00 1208.72 35.94
1956 13.7630 6.428968 1230.00 1210.76 35.07
1957 13.7680 6.426644 1215.00 1212.58 34.86
1958 13.7730 6.424323 1227.00 1214.24 35.03
1959 13.7780 6.422002 1234.00 1215.78 35.13
1960 13.7830 6.419684 1244.00 1217.29 35.27
1961 13.7880 6.417367 1266.00 1218.82 35.58
1962 13.7930 6.415052 1264.00 1220.46 35.55
1963 13.7980 6.412738 1270.00 1222.28 35.64
1964 13.8030 6.410427 1201.00 1224.33 34.66
1965 13.8080 6.408117 1189.00 1226.66 34.48
1966 13.8130 6.405809 1201.00 1229.31 34.66
1967 13.8180 6.403502 1230.00 1232.32 35.07
1968 13.8230 6.401197 1253.00 1235.72 35.40
1969 13.8280 6.398893 1267.00 1239.52 35.59
1970 13.8330 6.396592 1295.00 1243.76 35.99
1971 13.8380 6.394291 1311.00 1248.45 36.21
1972 13.8430 6.391993 1288.00 1253.62 35.89
1973 13.8480 6.389697 1307.00 1259.28 36.15
1974 13.8530 6.387402 1267.00 1265.47 35.59
1975 13.8580 6.385108 1218.00 1272.20 34.90
1976 13.8630 6.382817 1180.00 1279.48 34.35
1977 13.8680 6.380527 1209.00 1287.32 34.77
1978 13.8730 6.378238 1257.00 1295.73 35.45
1979 13.8780 6.375952 1214.00 1304.69 34.84
1980 13.8830 6.373666 1233.00 1314.18 35.11
1981 13.8880 6.371384 1264.00 1324.13 35.55
1982 13.8930 6.369102 1321.00 1334.49 36.35
1983 13.8980 6.366821 1359.00 1345.14 36.86
1984 13.9030 6.364542 1391.00 1356.03 37.30
1985 13.9080 6.362266 1363.00 1366.81 36.92
1986 13.9130 6.359991 1352.00 1377.35 36.77
1987 13.9180 6.357717 1380.00 1387.39 37.15
1988 13.9230 6.355445 1380.00 1396.63 37.15
1989 13.9280 6.353175 1353.00 1404.74 36.78
1990 13.9330 6.350906 1360.00 1411.34 36.88
1991 13.9380 6.348639 1387.00 1416.02 37.24
1992 13.9430 6.346374 1405.00 1418.40 37.48
1993 13.9480 6.344110 1391.00 1418.08 37.30
1994 13.9530 6.341847 1404.00 1414.76 37.47
1995 13.9580 6.339587 1395.00 1408.23 37.35
1996 13.9630 6.337328 1348.00 1398.47 36.72
1997 13.9680 6.335071 1306.00 1385.66 36.14
1998 13.9730 6.332816 1293.00 1370.21 35.96
1999 13.9780 6.330562 1221.00 1352.70 34.94
2000 13.9830 6.328309 1215.00 1333.77 34.86
2001 13.9880 6.326058 1219.00 1314.13 34.91
2002 13.9930 6.323809 1164.00 1294.40 34.12
2003 13.9980 6.321561 1181.00 1275.11 34.37
2004 14.0030 6.319315 1186.00 1256.67 34.44
2005 14.0080 6.317071 1160.00 1239.38 34.06
2006 14.0130 6.314828 1128.00 1223.45 33.59
2007 14.0180 6.312587 1112.00 1208.98 33.35
2008 14.0230 6.310348 1151.00 1196.05 33.93
2009 14.0280 6.308110 1130.00 1184.64 33.62
2010 14.0330 6.305873 1082.00 1174.71 32.89
2011 14.0380 6.303638 1073.00 1166.19 32.76
2012 14.0430 6.301405 1114.00 1158.99 33.38
2013 14.0480 6.299174 1170.00 1153.00 34.21
2014 14.0530 6.296944 1167.00 1148.10 34.16
2015 14.0580 6.294715 1118.00 1144.17 33.44
2016 14.0630 6.292489 1188.00 1141.09 34.47
2017 14.0680 6.290264 1217.00 1138.75 34.89
2018 14.0730 6.288040 1175.00 1137.05 34.28
2019 14.0780 6.285818 1143.00 1135.88 33.81
2020 14.0830 6.283597 1162.00 1135.15 34.09
2021 14.0880 6.281378 1203.00 1134.79 34.68
2022 14.0930 6.279160 1183.00 1134.70 34.39
2023 14.0980 6.276946 1182.00 1134.81 34.38
2024 14.1030 6.274731 1121.00 1135.06 33.48
2025 14.1080 6.272519 1137.00 1135.35 33.72
2026 14.1130 6.270308 1136.00 1135.63 33.70
2027 14.1180 6.268098 1148.00 1135.81 33.88
2028 14.1230 6.265891 1147.00 1135.83 33.87
2029 14.1280 6.263684 1111.00 1135.60 33.33
2030 14.1330 6.261479 1121.00 1135.05 33.48
2031 14.1380 6.259276 1124.00 1134.12 33.53
2032 14.1430 6.257075 1116.00 1132.76 33.41
2033 14.1480 6.254875 1095.00 1130.93 33.09
2034 14.1530 6.252676 1113.00 1128.64 33.36
2035 14.1580 6.250479 1087.00 1125.92 32.97
2036 14.1630 6.248283 1029.00 1122.84 32.08
2037 14.1680 6.246089 1038.00 1119.49 32.22
2038 14.1730 6.243897 1070.00 1115.97 32.71
2039 14.1780 6.241707 1091.00 1112.40 33.03
2040 14.1830 6.239518 1108.00 1108.85 33.29
2041 14.1880 6.237330 1059.00 1105.41 32.54
2042 14.1930 6.235144 1041.00 1102.13 32.26
2043 14.1980 6.232959 1043.00 1099.06 32.30
2044 14.2030 6.230776 1061.00 1096.21 32.57
2045 14.2080 6.228595 1085.00 1093.61 32.94
2046 14.2130 6.226415 1069.00 1091.25 32.70
2047 14.2180 6.224236 1072.00 1089.14 32.74
2048 14.2230 6.222060 1032.00 1087.26 32.12
2049 14.2280 6.219885 998.00 1085.60 31.59
2050 14.2330 6.217710 1028.00 1084.14 32.06
2051 14.2380 6.215539 1063.00 1082.86 32.60
2052 14.2430 6.213367 1107.00 1081.74 33.27
2053 14.2480 6.211198 1137.00 1080.77 33.72
2054 14.2530 6.209031 1138.00 1079.93 33.73
2055 14.2580 6.206865 1092.00 1079.19 33.05
2056 14.2630 6.204700 1079.00 1078.54 32.85
2057 14.2680 6.202537 1046.00 1077.97 32.34
2058 14.2730 6.200376 1029.00 1077.46 32.08
2059 14.2780 6.198215 1003.00 1077.01 31.67
2060 14.2830 6.196057 1030.00 1076.61 32.09
2061 14.2880 6.193900 995.00 1076.24 31.54
2062 14.2930 6.191744 939.00 1075.90 30.64
2063 14.2980 6.189590 960.00 1075.60 30.98
2064 14.3030 6.187438 1006.00 1075.31 31.72
2065 14.3080 6.185287 1059.00 1075.05 32.54
2066 14.3130 6.183137 1088.00 1074.80 32.98
2067 14.3180 6.180989 1129.00 1074.57 33.60
2068 14.3230 6.178843 1092.00 1074.35 33.05
2069 14.3280 6.176698 1003.00 1074.15 31.67
2070 14.3330 6.174554 1027.00 1073.95 32.05
2071 14.3380 6.172412 1050.00 1073.77 32.40
2072 14.3430 6.170272 1055.00 1073.59 32.48
2073 14.3480 6.168133 1032.00 1073.43 32.12
2074 14.3530 6.165996 1045.00 1073.27 32.33
2075 14.3580 6.163859 1014.00 1073.12 31.84
2076 14.3630 6.161725 1073.00 1072.98 32.76
2077 14.3680 6.159592 1068.00 1072.84 32.68
2078 14.3730 6.157461 1018.00 1072.71 31.91
2079 14.3780 6.155331 1031.00 1072.59 32.11
2080 14.3830 6.153202 1019.00 1072.47 31.92
2081 14.3880 6.151075 1035.00 1072.36 32.17
2082 14.3930 6.148949 1029.00 1072.25 32.08
2083 14.3980 6.146825 1011.00 1072.15 31.80
2084 14.4030 6.144702 1078.00 1072.05 32.83
2085 14.4080 6.142581 1125.00 1071.95 33.54
2086 14.4130 6.140461 1113.00 1071.86 33.36
2087 14.4180 6.138343 1062.00 1071.77 32.59
2088 14.4230 6.136227 1114.00 1071.69 33.38
2089 14.4280 6.134111 1129.00 1071.60 33.60
2090 14.4330 6.131998 1135.00 1071.53 33.69
2091 14.4380 6.129885 1118.00 1071.45 33.44
2092 14.4430 6.127775 1111.00 1071.38 33.33
2093 14.4480 6.125665 1100.00 1071.32 33.17
2094 14.4530 6.123557 1067.00 1071.25 32.67
2095 14.4580 6.121450 1067.00 1071.18 32.67
2096 14.4630 6.119346 1052.00 1071.12 32.43
2097 14.4680 6.117242 1029.00 1071.06 32.08
2098 14.4730 6.115140 1070.00 1071.00 32.71
2099 14.4780 6.113039 1078.00 1070.95 32.83
2100 14.4830 6.110940 1082.00 1070.90 32.89
2101 14.4880 6.108842 1137.00 1070.84 33.72
2102 14.4930 6.106746 1150.00 1070.79 33.91
2103 14.4980 6.104651 1149.00 1070.75 33.90
2104 14.5030 6.102558 1134.00 1070.70 33.67
2105 14.5080 6.100466 1077.00 1070.65 32.82
2106 14.5130 6.098376 1073.00 1070.61 32.76
2107 14.5180 6.096287 1098.00 1070.57 33.14
2108 14.5230 6.094199 1103.00 1070.53 33.21
2109 14.5280 6.092113 1076.00 1070.49 32.80
2110 14.5330 6.090029 1119.00 1070.45 33.45
2111 14.5380 6.087945 1101.00 1070.42 33.18
2112 14.5430 6.085863 1046.00 1070.38 32.34
2113 14.5480 6.083782 1039.00 1070.35 32.23
2114 14.5530 6.081704 1020.00 1070.32 31.94
2115 14.5580 6.079627 1062.00 1070.28 32.59
2116 14.5630 6.077550 1068.00 1070.25 32.68
2117 14.5680 6.075475 1076.00 1070.23 32.80
2118 14.5730 6.073402 1059.00 1070.20 32.54
2119 14.5780 6.071330 1058.00 1070.17 32.53
2120 14.5830 6.069260 1057.00 1070.14 32.51
2121 14.5880 6.067191 1037.00 1070.12 32.20
2122 14.5930 6.065124 1018.00 1070.10 31.91
2123 14.5980 6.063058 1043.00 1070.07 32.30
2124 14.6030 6.060993 1055.00 1070.05 32.48
2125 14.6080 6.058929 1078.00 1071.19 32.83
2126 14.6130 6.056867 1106.00 1070.84 33.26
2127 14.6180 6.054807 1103.00 1071.61 33.21
2128 14.6230 6.052748 1050.00 1071.74 32.40
2129 14.6280 6.050690 1056.00 1071.74 32.50
2130 14.6330 6.048634 1087.00 1071.74 32.97
2131 14.6380 6.046580 1125.00 1071.74 33.54
2132 14.6430 6.044526 1117.00 1071.74 33.42
2133 14.6480 6.042474 1113.00 1071.74 33.36
2134 14.6530 6.040423 1132.00 1071.75 33.65
2135 14.6580 6.038374 1073.00 1071.75 32.76
2136 14.6630 6.036326 1058.00 1071.76 32.53
2137 14.6680 6.034279 1071.00 1071.76 32.73
2138 14.6730 6.032234 1100.00 1071.77 33.17
2139 14.6780 6.030191 1123.00 1071.78 33.51
2140 14.6830 6.028149 1103.00 1071.79 33.21
2141 14.6880 6.026108 1043.00 1071.80 32.30
2142 14.6930 6.024069 1016.00 1071.81 31.87
2143 14.6980 6.022031 1062.00 1071.82 32.59
2144 14.7030 6.019993 1100.00 1071.83 33.17
2145 14.7080 6.017958 1097.00 1071.85 33.12
2146 14.7130 6.015924 1083.00 1071.86 32.91
2147 14.7180 6.013892 1005.00 1071.87 31.70
2148 14.7230 6.011861 1028.00 1071.89 32.06
2149 14.7280 6.009831 1010.00 1071.91 31.78
2150 14.7330 6.007803 1052.00 1071.93 32.43
2151 14.7380 6.005776 1047.00 1071.95 32.36
2152 14.7430 6.003750 1041.00 1071.97 32.26
2153 14.7480 6.001726 1030.00 1071.99 32.09
2154 14.7530 5.999703 1039.00 1072.01 32.23
2155 14.7580 5.997682 1034.00 1072.03 32.16
2156 14.7630 5.995662 1028.00 1072.06 32.06
2157 14.7680 5.993644 1025.00 1072.09 32.02
2158 14.7730 5.991626 1037.00 1072.11 32.20
2159 14.7780 5.989610 1040.00 1072.14 32.25
2160 14.7830 5.987596 1029.00 1072.18 32.08
2161 14.7880 5.985582 1045.00 1072.21 32.33
2162 14.7930 5.983570 1091.00 1072.25 33.03
2163 14.7980 5.981559 1106.00 1072.28 33.26
2164 14.8030 5.979550 1123.00 1072.32 33.51
2165 14.8080 5.977543 1060.00 1072.37 32.56
2166 14.8130 5.975536 1044.00 1072.42 32.31
2167 14.8180 5.973531 1036.00 1072.47 32.19
2168 14.8230 5.971528 1001.00 1072.52 31.64
2169 14.8280 5.969525 1021.00 1072.58 31.95
2170 14.8330 5.967524 1057.00 1072.64 32.51
2171 14.8380 5.965524 1093.00 1072.71 33.06
2172 14.8430 5.963526 1109.00 1072.78 33.30
2173 14.8480 5.961530 1104.00 1072.86 33.23
2174 14.8530 5.959534 1051.00 1072.94 32.42
2175 14.8580 5.957540 1001.00 1073.03 31.64
2176 14.8630 5.955547 1010.00 1073.12 31.78
2177 14.8680 5.953555 979.00 1073.22 31.29
2178 14.8730 5.951565 1028.00 1073.33 32.06
2179 14.8780 5.949576 1102.00 1073.44 33.20
2180 14.8830 5.947588 1123.00 1073.55 33.51
2181 14.8880 5.945602 1173.00 1073.67 34.25
2182 14.8930 5.943617 1144.00 1073.79 33.82
2183 14.8980 5.941634 1089.00 1073.92 33.00
2184 14.9030 5.939651 1031.00 1074.06 32.11
2185 14.9080 5.937671 983.00 1074.19 31.35
2186 14.9130 5.935691 1016.00 1074.33 31.87
2187 14.9180 5.933713 1062.00 1074.48 32.59
2188 14.9230 5.931736 1077.00 1074.63 32.82
2189 14.9280 5.929760 1065.00 1074.78 32.63
2190 14.9330 5.927786 1067.00 1074.93 32.67
2191 14.9380 5.925814 1107.00 1075.09 33.27
2192 14.9430 5.923842 1084.00 1075.25 32.92
2193 14.9480 5.921872 1087.00 1075.42 32.97
2194 14.9530 5.919903 1068.00 1075.59 32.68
2195 14.9580 5.917935 1039.00 1075.76 32.23
2196 14.9630 5.915969 1030.00 1075.93 32.09
2197 14.9680 5.914004 1011.00 1076.11 31.80
2198 14.9730 5.912041 987.00 1076.29 31.42
2199 14.9780 5.910079 1015.00 1076.47 31.86
2200 14.9830 5.908117 1050.00 1076.66 32.40
2201 14.9880 5.906157 1055.00 1076.85 32.48
2202 14.9930 5.904199 1071.00 1077.05 32.73
2203 14.9980 5.902242 1072.00 1077.24 32.74
2204 15.0030 5.900286 1082.00 1077.44 32.89
2205 15.0080 5.898331 1102.00 1077.65 33.20
2206 15.0130 5.896379 1067.00 1077.86 32.67
2207 15.0180 5.894427 1045.00 1078.07 32.33
2208 15.0230 5.892477 1060.00 1078.28 32.56
2209 15.0280 5.890527 1099.00 1078.50 33.15
2210 15.0330 5.888579 1026.00 1078.72 32.03
2211 15.0380 5.886632 1041.00 1078.95 32.26
2212 15.0430 5.884686 1094.00 1079.18 33.08
2213 15.0480 5.882742 1078.00 1079.42 32.83
2214 15.0530 5.880800 1072.00 1079.66 32.74
2215 15.0580 5.878859 1069.00 1079.90 32.70
2216 15.0630 5.876919 1013.00 1080.15 31.83
2217 15.0680 5.874980 1020.00 1080.40 31.94
2218 15.0730 5.873042 1043.00 1080.66 32.30
2219 15.0780 5.871106 1037.00 1080.92 32.20
2220 15.0830 5.869171 1053.00 1081.19 32.45
2221 15.0880 5.867237 1078.00 1081.47 32.83
2222 15.0930 5.865304 1060.00 1081.74 32.56
2223 15.0980 5.863374 1050.00 1082.03 32.40
2224 15.1030 5.861444 1065.00 1082.32 32.63
2225 15.1080 5.859515 1077.00 1082.61 32.82
2226 15.1130 5.857587 1043.00 1082.92 32.30
2227 15.1180 5.855661 1071.00 1083.22 32.73
2228 15.1230 5.853737 1050.00 1083.54 32.40
2229 15.1280 5.851813 1066.00 1083.86 32.65
2230 15.1330 5.849891 1031.00 1084.19 32.11
2231 15.1380 5.847970 1089.00 1084.52 33.00
2232 15.1430 5.846050 1061.00 1084.86 32.57
2233 15.1480 5.844132 1039.00 1085.21 32.23
2234 15.1530 5.842215 1023.00 1085.57 31.98
2235 15.1580 5.840299 1018.00 1085.94 31.91
2236 15.1630 5.838385 1061.00 1086.31 32.57
2237 15.1680 5.836471 1048.00 1086.69 32.37
2238 15.1730 5.834558 1037.00 1087.08 32.20
2239 15.1780 5.832648 1088.00 1087.49 32.98
2240 15.1830 5.830739 1045.00 1087.90 32.33
2241 15.1880 5.828830 1063.00 1088.32 32.60
2242 15.1930 5.826924 1013.00 1088.75 31.83
2243 15.1980 5.825017 1001.00 1089.19 31.64
2244 15.2030 5.823113 1047.00 1089.65 32.36
2245 15.2080 5.821210 1102.00 1090.11 33.20
2246 15.2130 5.819307 1077.00 1090.59 32.82
2247 15.2180 5.817407 1052.00 1091.08 32.43
2248 15.2230 5.815508 1077.00 1091.59 32.82
2249 15.2280 5.813610 1061.00 1092.11 32.57
2250 15.2330 5.811712 995.00 1092.64 31.54
2251 15.2380 5.809817 1041.00 1093.19 32.26
2252 15.2430 5.807922 1028.00 1093.76 32.06
2253 15.2480 5.806029 1026.00 1094.34 32.03
2254 15.2530 5.804137 1086.00 1094.94 32.95
2255 15.2580 5.802246 1080.00 1095.56 32.86
2256 15.2630 5.800357 1044.00 1096.21 32.31
2257 15.2680 5.798469 1083.00 1096.87 32.91
2258 15.2730 5.796581 1113.00 1097.55 33.36
2259 15.2780 5.794696 1133.00 1098.26 33.66
2260 15.2830 5.792811 1090.00 1099.00 33.02
2261 15.2880 5.790927 1099.00 1099.76 33.15
2262 15.2930 5.789046 1090.00 1100.55 33.02
2263 15.2980 5.787165 1087.00 1101.37 32.97
2264 15.3030 5.785285 1088.00 1102.22 32.98
2265 15.3080 5.783407 1115.00 1103.11 33.39
2266 15.3130 5.781530 1089.00 1104.04 33.00
2267 15.3180 5.779654 1033.00 1105.01 32.14
2268 15.3230 5.777779 1061.00 1106.03 32.57
2269 15.3280 5.775906 1105.00 1107.09 33.24
2270 15.3330 5.774034 1109.00 1108.21 33.30
2271 15.3380 5.772162 1135.00 1109.38 33.69
2272 15.3430 5.770292 1170.00 1110.60 34.21
2273 15.3480 5.768424 1096.00 1111.91 33.11
2274 15.3530 5.766557 1081.00 1113.30 32.88
2275 15.3580 5.764691 1056.00 1114.77 32.50
2276 15.3630 5.762825 1085.00 1116.33 32.94
2277 15.3680 5.760962 1155.00 1117.98 33.99
2278 15.3730 5.759099 1122.00 1119.74 33.50
2279 15.3780 5.757238 1171.00 1121.61 34.22
2280 15.3830 5.755378 1135.00 1123.58 33.69
2281 15.3880 5.753520 1120.00 1125.66 33.47
2282 15.3930 5.751662 1120.00 1127.85 33.47
2283 15.3980 5.749805 1104.00 1130.14 33.23
2284 15.4030 5.747950 1093.00 1132.50 33.06
2285 15.4080 5.746096 1109.00 1134.93 33.30
2286 15.4130 5.744244 1193.00 1137.40 34.54
2287 15.4180 5.742392 1149.00 1139.86 33.90
2288 15.4230 5.740541 1143.00 1142.28 33.81
2289 15.4280 5.738692 1149.00 1144.61 33.90
2290 15.4330 5.736844 1123.00 1146.77 33.51
2291 15.4380 5.734998 1178.00 1148.71 34.32
2292 15.4430 5.733152 1172.00 1150.35 34.23
2293 15.4480 5.731308 1121.00 1151.59 33.48
2294 15.4530 5.729464 1102.00 1152.36 33.20
2295 15.4580 5.727623 1108.00 1152.57 33.29
2296 15.4630 5.725781 1097.00 1152.16 33.12
2297 15.4680 5.723942 1111.00 1151.07 33.33
2298 15.4730 5.722104 1082.00 1149.31 32.89
2299 15.4780 5.720266 1131.00 1146.91 33.63
2300 15.4830 5.718430 1210.00 1143.95 34.79
2301 15.4880 5.716596 1197.00 1140.55 34.60
2302 15.4930 5.714762 1158.00 1136.86 34.03
2303 15.4980 5.712929 1210.00 1133.03 34.79
2304 15.5030 5.711098 1183.00 1129.18 34.39
2305 15.5080 5.709268 1231.00 1125.45 35.09
2306 15.5130 5.707439 1163.00 1121.90 34.10
2307 15.5180 5.705611 1157.00 1118.62 34.01
2308 15.5230 5.703785 1155.00 1115.65 33.99
2309 15.5280 5.701960 1151.00 1113.01 33.93
2310 15.5330 5.700135 1099.00 1110.73 33.15
2311 15.5380 5.698312 1144.00 1108.80 33.82
2312 15.5430 5.696491 1107.00 1106.94 33.27
2313 15.5480 5.694669 1139.00 1105.71 33.75
2314 15.5530 5.692850 1162.00 1104.81 34.09
2315 15.5580 5.691032 1195.00 1104.22 34.57
2316 15.5630 5.689215 1175.00 1103.94 34.28
2317 15.5680 5.687399 1135.00 1103.93 33.69
2318 15.5730 5.685584 1127.00 1104.19 33.57
2319 15.5780 5.683770 1099.00 1104.70 33.15
2320 15.5830 5.681958 1111.00 1105.44 33.33
2321 15.5880 5.680147 1153.00 1106.42 33.96
2322 15.5930 5.678336 1165.00 1107.61 34.13
2323 15.5980 5.676528 1147.00 1109.00 33.87
2324 15.6030 5.674720 1148.00 1110.59 33.88
2325 15.6080 5.672914 1136.00 1112.37 33.70
2326 15.6130 5.671107 1095.00 1114.32 33.09
2327 15.6180 5.669303 1116.00 1116.45 33.41
2328 15.6230 5.667500 1123.00 1118.73 33.51
2329 15.6280 5.665698 1133.00 1121.15 33.66
2330 15.6330 5.663897 1133.00 1123.72 33.66
2331 15.6380 5.662098 1149.00 1126.43 33.90
2332 15.6430 5.660299 1141.00 1129.25 33.78
2333 15.6480 5.658502 1111.00 1132.20 33.33
2334 15.6530 5.656706 1105.00 1135.25 33.24
2335 15.6580 5.654911 1202.00 1138.41 34.67
2336 15.6630 5.653117 1174.00 1141.67 34.26
2337 15.6680 5.651324 1208.00 1145.03 34.76
2338 15.6730 5.649532 1191.00 1148.47 34.51
2339 15.6780 5.647741 1156.00 1152.01 34.00
2340 15.6830 5.645953 1194.00 1155.64 34.55
2341 15.6880 5.644164 1216.00 1159.35 34.87
2342 15.6930 5.642377 1226.00 1163.14 35.01
2343 15.6980 5.640591 1188.00 1167.01 34.47
2344 15.7030 5.638806 1182.00 1170.97 34.38
2345 15.7080 5.637023 1175.00 1175.01 34.28
2346 15.7130 5.635240 1171.00 1179.12 34.22
2347 15.7180 5.633459 1204.00 1183.33 34.70
2348 15.7230 5.631679 1212.00 1187.61 34.81
2349 15.7280 5.629900 1190.00 1191.98 34.50
2350 15.7330 5.628122 1221.00 1196.39 34.94
2351 15.7380 5.626345 1184.00 1200.93 34.41
2352 15.7430 5.624569 1174.00 1205.56 34.26
2353 15.7480 5.622795 1168.00 1210.28 34.18
2354 15.7530 5.621021 1182.00 1215.09 34.38
2355 15.7580 5.619248 1217.00 1219.99 34.89
2356 15.7630 5.617477 1257.00 1224.99 35.45
2357 15.7680 5.615708 1254.00 1230.08 35.41
2358 15.7730 5.613939 1254.00 1235.28 35.41
2359 15.7780 5.612171 1293.00 1240.58 35.96
2360 15.7830 5.610404 1256.00 1245.98 35.44
2361 15.7880 5.608639 1241.00 1251.50 35.23
2362 15.7930 5.606874 1231.00 1257.12 35.09
2363 15.7980 5.605111 1284.00 1262.86 35.83
2364 15.8030 5.603348 1256.00 1268.71 35.44
2365 15.8080 5.601588 1281.00 1274.69 35.79
2366 15.8130 5.599828 1312.00 1280.80 36.22
2367 15.8180 5.598069 1248.00 1287.03 35.33
2368 15.8230 5.596311 1202.00 1293.39 34.67
2369 15.8280 5.594555 1229.00 1299.90 35.06
2370 15.8330 5.592799 1265.00 1306.54 35.57
2371 15.8380 5.591044 1303.00 1313.33 36.10
2372 15.8430 5.589292 1314.00 1320.28 36.25
2373 15.8480 5.587540 1341.00 1327.38 36.62
2374 15.8530 5.585789 1360.00 1334.64 36.88
2375 15.8580 5.584039 1312.00 1342.07 36.22
2376 15.8630 5.582289 1298.00 1349.68 36.03
2377 15.8680 5.580542 1306.00 1357.47 36.14
2378 15.8730 5.578795 1281.00 1365.45 35.79
2379 15.8780 5.577050 1288.00 1373.62 35.89
2380 15.8830 5.575305 1366.00 1382.00 36.96
2381 15.8880 5.573562 1370.00 1390.59 37.01
2382 15.8930 5.571820 1426.00 1399.41 37.76
2383 15.8980 5.570079 1450.00 1408.45 38.08
2384 15.9030 5.568339 1363.00 1417.74 36.92
2385 15.9080 5.566599 1325.00 1427.28 36.40
2386 15.9130 5.564862 1401.00 1437.08 37.43
2387 15.9180 5.563125 1441.00 1447.16 37.96
2388 15.9230 5.561389 1460.00 1457.52 38.21
2389 15.9280 5.559655 1479.00 1468.19 38.46
2390 15.9330 5.557922 1545.00 1479.17 39.31
2391 15.9380 5.556190 1494.00 1490.48 38.65
2392 15.9430 5.554458 1519.00 1502.13 38.97
2393 15.9480 5.552728 1503.00 1514.15 38.77
2394 15.9530 5.550999 1530.00 1526.54 39.12
2395 15.9580 5.549271 1598.00 1539.33 39.97
2396 15.9630 5.547544 1647.00 1552.53 40.58
2397 15.9680 5.545817 1618.00 1566.16 40.22
2398 15.9730 5.544093 1666.00 1580.24 40.82
2399 15.9780 5.542369 1694.00 1594.80 41.16
2400 15.9830 5.540647 1669.00 1609.85 40.85
2401 15.9880 5.538926 1659.00 1625.43 40.73
2402 15.9930 5.537205 1669.00 1641.55 40.85
2403 15.9980 5.535485 1600.00 1658.26 40.00
2404 16.0030 5.533767 1581.00 1675.58 39.76
2405 16.0080 5.532050 1658.00 1693.56 40.72
2406 16.0130 5.530334 1734.00 1712.23 41.64
2407 16.0180 5.528619 1802.00 1731.67 42.45
2408 16.0230 5.526905 1783.00 1751.93 42.23
2409 16.0280 5.525193 1785.00 1773.10 42.25
2410 16.0330 5.523480 1823.00 1795.26 42.70
2411 16.0380 5.521770 1872.00 1818.54 43.27
2412 16.0430 5.520060 1873.00 1843.04 43.28
2413 16.0480 5.518351 1862.00 1868.92 43.15
2414 16.0530 5.516644 1945.00 1896.28 44.10
2415 16.0580 5.514937 2019.00 1925.34 44.93
2416 16.0630 5.513232 2058.00 1956.22 45.37
2417 16.0680 5.511528 2083.00 1989.11 45.64
2418 16.0730 5.509824 2135.00 2024.21 46.21
2419 16.0780 5.508122 2109.00 2061.67 45.92
2420 16.0830 5.506421 2123.00 2101.69 46.08
2421 16.0880 5.504721 2094.00 2144.37 45.76
2422 16.0930 5.503022 2140.00 2189.86 46.26
2423 16.0980 5.501324 2181.00 2238.19 46.70
2424 16.1030 5.499627 2275.00 2289.35 47.70
2425 16.1080 5.497931 2419.00 2343.17 49.18
2426 16.1130 5.496236 2444.00 2399.46 49.44
2427 16.1180 5.494543 2488.00 2457.82 49.88
2428 16.1230 5.492850 2558.00 2517.64 50.58
2429 16.1280 5.491158 2635.00 2578.19 51.33
2430 16.1330 5.489468 2647.00 2638.48 51.45
2431 16.1380 5.487778 2695.00 2697.33 51.91
2432 16.1430 5.486090 2778.00 2753.25 52.71
2433 16.1480 5.484402 2906.00 2804.57 53.91
2434 16.1530 5.482716 2852.00 2849.36 53.40
2435 16.1580 5.481030 2791.00 2885.49 52.83
2436 16.1630 5.479346 2725.00 2910.69 52.20
2437 16.1680 5.477664 2806.00 2922.65 52.97
2438 16.1730 5.475981 2898.00 2919.26 53.83
2439 16.1780 5.474299 2924.00 2898.83 54.07
2440 16.1830 5.472620 2765.00 2860.38 52.58
2441 16.1880 5.470940 2700.00 2804.01 51.96
2442 16.1930 5.469262 2679.00 2730.87 51.76
2443 16.1980 5.467585 2651.00 2643.23 51.49
2444 16.2030 5.465910 2514.00 2544.36 50.14
2445 16.2080 5.464234 2375.00 2437.75 48.73
2446 16.2130 5.462561 2335.00 2327.18 48.32
2447 16.2180 5.460887 2155.00 2215.94 46.42
2448 16.2230 5.459216 2059.00 2107.01 45.38
2449 16.2280 5.457545 1909.00 2002.46 43.69
2450 16.2330 5.455875 1765.00 1904.03 42.01
2451 16.2380 5.454206 1695.00 1812.74 41.17
2452 16.2430 5.452539 1633.00 1729.21 40.41
2453 16.2480 5.450873 1546.00 1653.69 39.32
2454 16.2530 5.449206 1517.00 1586.12 38.95
2455 16.2580 5.447542 1466.00 1526.30 38.29
2456 16.2630 5.445879 1405.00 1473.73 37.48
2457 16.2680 5.444216 1402.00 1427.93 37.44
2458 16.2730 5.442554 1358.00 1388.25 36.85
2459 16.2780 5.440894 1335.00 1354.10 36.54
2460 16.2830 5.439234 1341.00 1324.79 36.62
2461 16.2880 5.437576 1298.00 1299.70 36.03
2462 16.2930 5.435919 1207.00 1278.25 34.74
2463 16.2980 5.434262 1168.00 1259.90 34.18
2464 16.3030 5.432607 1158.00 1244.15 34.03
2465 16.3080 5.430953 1117.00 1230.58 33.42
2466 16.3130 5.429299 1125.00 1218.82 33.54
2467 16.3180 5.427646 1108.00 1208.58 33.29
2468 16.3230 5.425995 1152.00 1199.57 33.94
2469 16.3280 5.424345 1142.00 1191.59 33.79
2470 16.3330 5.422696 1146.00 1184.48 33.85
2471 16.3380 5.421048 1177.00 1178.08 34.31
2472 16.3430 5.419400 1140.00 1172.29 33.76
2473 16.3480 5.417754 1102.00 1167.02 33.20
2474 16.3530 5.416109 1072.00 1162.18 32.74
2475 16.3580 5.414464 1067.00 1157.73 32.67
2476 16.3630 5.412821 1099.00 1153.62 33.15
2477 16.3680 5.411179 1075.00 1149.81 32.79
2478 16.3730 5.409538 1041.00 1146.26 32.26
2479 16.3780 5.407898 1043.00 1142.95 32.30
2480 16.3830 5.406259 1024.00 1139.85 32.00
2481 16.3880 5.404620 1070.00 1136.95 32.71
2482 16.3930 5.402983 1117.00 1134.24 33.42
2483 16.3980 5.401347 1142.00 1131.68 33.79
2484 16.4030 5.399712 1116.00 1129.28 33.41
2485 16.4080 5.398077 1145.00 1127.01 33.84
2486 16.4130 5.396444 1172.00 1124.87 34.23
2487 16.4180 5.394812 1157.00 1122.85 34.01
2488 16.4230 5.393180 1086.00 1120.95 32.95
2489 16.4280 5.391551 1079.00 1119.14 32.85
2490 16.4330 5.389921 1134.00 1117.43 33.67
2491 16.4380 5.388293 1131.00 1115.80 33.63
2492 16.4430 5.386666 1089.00 1114.26 33.00
2493 16.4480 5.385040 1092.00 1112.80 33.05
2494 16.4530 5.383415 1118.00 1111.40 33.44
2495 16.4580 5.381790 1138.00 1110.08 33.73
2496 16.4630 5.380167 1087.00 1108.81 32.97
2497 16.4680 5.378545 1056.00 1107.61 32.50
2498 16.4730 5.376924 1089.00 1106.46 33.00
2499 16.4780 5.375303 1075.00 1105.36 32.79
2500 16.4830 5.373684 1083.00 1104.31 32.91
2501 16.4880 5.372066 1061.00 1103.31 32.57
2502 16.4930 5.370448 1080.00 1102.35 32.86
2503 16.4980 5.368832 1069.00 1101.43 32.70
2504 16.5030 5.367216 1121.00 1100.55 33.48
2505 16.5080 5.365602 1115.00 1099.71 33.39
2506 16.5130 5.363989 1076.00 1098.90 32.80
2507 16.5180 5.362376 1066.00 1098.12 32.65
2508 16.5230 5.360765 1059.00 1097.37 32.54
2509 16.5280 5.359154 1036.00 1096.65 32.19
2510 16.5330 5.357544 1043.00 1095.96 32.30
2511 16.5380 5.355937 1059.00 1095.30 32.54
2512 16.5430 5.354329 1084.00 1094.66 32.92
2513 16.5480 5.352722 1093.00 1094.04 33.06
2514 16.5530 5.351117 1078.00 1093.45 32.83
2515 16.5580 5.349512 1080.00 1092.88 32.86
2516 16.5630 5.347909 1039.00 1092.33 32.23
2517 16.5680 5.346305 1025.00 1091.79 32.02
2518 16.5730 5.344704 1040.00 1091.28 32.25
2519 16.5780 5.343103 1065.00 1090.89 32.63
2520 16.5830 5.341504 1065.00 1090.41 32.63
2521 16.5880 5.339905 1094.00 1089.95 33.08
2522 16.5930 5.338307 1110.00 1089.50 33.32
2523 16.5980 5.336710 1069.00 1089.07 32.70
2524 16.6030 5.335114 1054.00 1088.65 32.47
2525 16.6080 5.333519 1082.00 1088.24 32.89
2526 16.6130 5.331925 1054.00 1087.85 32.47
2527 16.6180 5.330332 1031.00 1087.47 32.11
2528 16.6230 5.328741 969.00 1087.10 31.13
2529 16.6280 5.327149 955.00 1086.74 30.90
2530 16.6330 5.325560 1037.00 1086.40 32.20
2531 16.6380 5.323970 1093.00 1086.06 33.06
2532 16.6430 5.322382 1083.00 1085.74 32.91
2533 16.6480 5.320794 1046.00 1085.42 32.34
2534 16.6530 5.319208 1061.00 1085.11 32.57
2535 16.6580 5.317623 1055.00 1084.81 32.48
2536 16.6630 5.316038 1055.00 1084.52 32.48
2537 16.6680 5.314455 1057.00 1084.24 32.51
2538 16.6730 5.312873 1050.00 1083.96 32.40
2539 16.6780 5.311291 1066.00 1083.70 32.65
2540 16.6830 5.309710 1086.00 1083.44 32.95
2541 16.6880 5.308131 1039.00 1083.18 32.23
2542 16.6930 5.306552 1059.00 1082.94 32.54
2543 16.6980 5.304975 1077.00 1082.70 32.82
2544 16.7030 5.303398 1087.00 1082.47 32.97
2545 16.7080 5.301822 1087.00 1082.24 32.97
2546 16.7130 5.300247 1060.00 1082.02 32.56
2547 16.7180 5.298673 1072.00 1081.80 32.74
2548 16.7230 5.297101 1110.00 1081.59 33.32
2549 16.7280 5.295528 1133.00 1081.39 33.66
2550 16.7330 5.293957 1101.00 1081.19 33.18
2551 16.7380 5.292387 1088.00 1080.99 32.98
2552 16.7430 5.290817 1102.00 1080.80 33.20
2553 16.7480 5.289249 1091.00 1080.61 33.03
2554 16.7530 5.287682 1070.00 1080.43 32.71
2555 16.7580 5.286116 1091.00 1080.26 33.03
2556 16.7630 5.284550 1052.00 1080.08 32.43
2557 16.7680 5.282986 1050.00 1079.91 32.40
2558 16.7730 5.281422 1033.00 1079.75 32.14
2559 16.7780 5.279859 1035.00 1079.59 32.17
2560 16.7830 5.278297 1082.00 1079.43 32.89
2561 16.7880 5.276737 1091.00 1079.28 33.03
2562 16.7930 5.275177 1072.00 1079.12 32.74
2563 16.7980 5.273618 1066.00 1078.98 32.65
2564 16.8030 5.272060 1050.00 1078.83 32.40
2565 16.8080 5.270503 1041.00 1078.69 32.26
2566 16.8130 5.268947 1055.00 1078.55 32.48
2567 16.8180 5.267391 1091.00 1078.42 33.03
2568 16.8230 5.265837 1100.00 1078.29 33.17
2569 16.8280 5.264284 1091.00 1078.16 33.03
2570 16.8330 5.262732 1098.00 1078.03 33.14
2571 16.8380 5.261180 1077.00 1077.90 32.82
2572 16.8430 5.259629 1074.00 1077.78 32.77
2573 16.8480 5.258080 1085.00 1077.66 32.94
2574 16.8530 5.256531 1072.00 1077.55 32.74
2575 16.8580 5.254983 1033.00 1077.43 32.14
2576 16.8630 5.253436 1060.00 1077.32 32.56
2577 16.8680 5.251891 1106.00 1077.21 33.26
2578 16.8730 5.250346 1088.00 1077.10 32.98
2579 16.8780 5.248801 1052.00 1077.00 32.43
2580 16.8830 5.247259 1059.00 1076.89 32.54
2581 16.8880 5.245716 1068.00 1076.79 32.68
2582 16.8930 5.244175 1082.00 1076.69 32.89
2583 16.8980 5.242634 1064.00 1076.59 32.62
2584 16.9030 5.241095 1071.00 1076.49 32.73
2585 16.9080 5.239556 1081.00 1076.40 32.88
2586 16.9130 5.238018 1134.00 1076.31 33.67
2587 16.9180 5.236482 1158.00 1076.21 34.03
2588 16.9230 5.234945 1132.00 1076.13 33.65
2589 16.9280 5.233410 1084.00 1076.04 32.92
2590 16.9330 5.231876 1108.00 1075.95 33.29
2591 16.9380 5.230343 1148.00 1075.87 33.88
2592 16.9430 5.228811 1115.00 1075.78 33.39
2593 16.9480 5.227280 1077.00 1075.70 32.82
2594 16.9530 5.225749 1067.00 1075.62 32.67
2595 16.9580 5.224219 1059.00 1075.54 32.54
2596 16.9630 5.222692 1043.00 1075.46 32.30
2597 16.9680 5.221163 1088.00 1075.38 32.98
2598 16.9730 5.219636 1114.00 1075.31 33.38
2599 16.9780 5.218111 1098.00 1075.23 33.14
2600 16.9830 5.216586 1116.00 1075.16 33.41
2601 16.9880 5.215061 1077.00 1075.09 32.82
2602 16.9930 5.213538 1108.00 1075.02 33.29
2603 16.9980 5.212016 1108.00 1074.95 33.29
2604 17.0030 5.210495 1086.00 1074.88 32.95
2605 17.0080 5.208974 1077.00 1074.81 32.82
2606 17.0130 5.207454 1072.00 1074.75 32.74
2607 17.0180 5.205935 1086.00 1074.68 32.95
2608 17.0230 5.204418 1077.00 1074.62 32.82
2609 17.0280 5.202901 1040.00 1074.55 32.25
2610 17.0330 5.201385 1059.00 1074.49 32.54
2611 17.0380 5.199870 1056.00 1075.54 32.50
2612 17.0430 5.198356 1070.00 1075.49 32.71
2613 17.0480 5.196842 1060.00 1075.43 32.56
2614 17.0530 5.195330 1077.00 1075.38 32.82
2615 17.0580 5.193818 1090.00 1075.27 33.02
2616 17.0630 5.192307 1094.00 1075.22 33.08
2617 17.0680 5.190797 1103.00 1075.17 33.21
2618 17.0730 5.189289 1136.00 1075.13 33.70
2619 17.0780 5.187780 1140.00 1075.08 33.76
2620 17.0830 5.186273 1110.00 1075.04 33.32
2621 17.0880 5.184767 1115.00 1074.99 33.39
2622 17.0930 5.183262 1101.00 1074.95 33.18
2623 17.0980 5.181757 1084.00 1074.90 32.92
2624 17.1030 5.180254 1065.00 1074.86 32.63
2625 17.1080 5.178751 1082.00 1074.82 32.89
2626 17.1130 5.177249 1086.00 1074.78 32.95
2627 17.1180 5.175748 1077.00 1074.74 32.82
2628 17.1230 5.174248 1041.00 1074.70 32.26
2629 17.1280 5.172749 1054.00 1074.66 32.47
2630 17.1330 5.171250 1119.00 1074.62 33.45
2631 17.1380 5.169753 1121.00 1074.59 33.48
2632 17.1430 5.168256 1094.00 1074.55 33.08
2633 17.1480 5.166760 1070.00 1074.52 32.71
2634 17.1530 5.165266 1084.00 1074.48 32.92
2635 17.1580 5.163772 1089.00 1074.45 33.00
2636 17.1630 5.162279 1095.00 1074.41 33.09
2637 17.1680 5.160787 1079.00 1074.38 32.85
2638 17.1730 5.159296 1063.00 1074.35 32.60
2639 17.1780 5.157805 1048.00 1074.32 32.37
2640 17.1830 5.156315 1052.00 1074.28 32.43
2641 17.1880 5.154827 1050.00 1074.25 32.40
2642 17.1930 5.153338 1058.00 1074.22 32.53
2643 17.1980 5.151852 1053.00 1074.20 32.45
2644 17.2030 5.150366 1032.00 1074.17 32.12
2645 17.2080 5.148880 1067.00 1074.14 32.67
2646 17.2130 5.147397 1082.00 1074.11 32.89
2647 17.2180 5.145913 1129.00 1074.09 33.60
2648 17.2230 5.144430 1134.00 1074.06 33.67
2649 17.2280 5.142948 1094.00 1074.03 33.08
2650 17.2330 5.141468 1075.00 1074.01 32.79
2651 17.2380 5.139987 1070.00 1073.98 32.71
2652 17.2430 5.138508 1063.00 1073.96 32.60
2653 17.2480 5.137030 1053.00 1073.94 32.45
2654 17.2530 5.135552 1034.00 1073.91 32.16
2655 17.2580 5.134076 1061.00 1073.89 32.57
2656 17.2630 5.132600 1086.00 1073.87 32.95
2657 17.2680 5.131125 1086.00 1073.85 32.95
2658 17.2730 5.129651 1114.00 1073.83 33.38
2659 17.2780 5.128178 1121.00 1073.81 33.48
2660 17.2830 5.126705 1091.00 1073.79 33.03
2661 17.2880 5.125234 1089.00 1073.77 33.00
2662 17.2930 5.123764 1050.00 1073.75 32.40
2663 17.2980 5.122293 1043.00 1073.74 32.30
2664 17.3030 5.120825 1071.00 1073.72 32.73
2665 17.3080 5.119357 1107.00 1073.70 33.27
2666 17.3130 5.117889 1123.00 1073.69 33.51
2667 17.3180 5.116423 1114.00 1073.67 33.38
2668 17.3230 5.114958 1106.00 1073.66 33.26
2669 17.3280 5.113493 1131.00 1073.64 33.63
2670 17.3330 5.112029 1095.00 1073.63 33.09
2671 17.3380 5.110566 1097.00 1073.62 33.12
2672 17.3430 5.109104 1072.00 1073.61 32.74
2673 17.3480 5.107643 1094.00 1073.59 33.08
2674 17.3530 5.106182 1120.00 1073.58 33.47
2675 17.3580 5.104723 1147.00 1073.57 33.87
2676 17.3630 5.103263 1147.00 1073.56 33.87
2677 17.3680 5.101806 1104.00 1073.55 33.23
2678 17.3730 5.100349 1052.00 1073.54 32.43
2679 17.3780 5.098893 1056.00 1073.54 32.50
2680 17.3830 5.097437 1047.00 1073.53 32.36
2681 17.3880 5.095983 1037.00 1073.52 32.20
2682 17.3930 5.094529 1030.00 1073.52 32.09
2683 17.3980 5.093076 1022.00 1073.51 31.97
2684 17.4030 5.091624 1038.00 1073.51 32.22
2685 17.4080 5.090173 1067.00 1073.50 32.67
2686 17.4130 5.088723 1059.00 1073.50 32.54
2687 17.4180 5.087274 1083.00 1073.49 32.91
2688 17.4230 5.085824 1087.00 1073.49 32.97
2689 17.4280 5.084377 1080.00 1073.49 32.86
2690 17.4330 5.082930 1108.00 1073.49 33.29
2691 17.4380 5.081484 1106.00 1073.49 33.26
2692 17.4430 5.080038 1102.00 1073.49 33.20
2693 17.4480 5.078594 1095.00 1073.49 33.09
2694 17.4530 5.077150 1109.00 1073.50 33.30
2695 17.4580 5.075707 1101.00 1073.50 33.18
2696 17.4630 5.074265 1087.00 1073.50 32.97
2697 17.4680 5.072824 1091.00 1076.97 33.03
2698 17.4730 5.071384 1088.00 1077.00 32.98
2699 17.4780 5.069944 1074.00 1077.17 32.77
2700 17.4830 5.068506 1047.00 1077.20 32.36
2701 17.4880 5.067068 1035.00 1077.23 32.17
2702 17.4930 5.065630 1050.00 1077.27 32.40
2703 17.4980 5.064195 1101.00 1077.31 33.18
2704 17.5030 5.062759 1106.00 1077.34 33.26
2705 17.5080 5.061325 1099.00 1077.38 33.15
2706 17.5130 5.059891 1109.00 1077.42 33.30
2707 17.5180 5.058458 1129.00 1077.46 33.60
2708 17.5230 5.057025 1103.00 1077.51 33.21
2709 17.5280 5.055594 1099.00 1077.55 33.15
2710 17.5330 5.054163 1108.00 1077.60 33.29
2711 17.5380 5.052734 1110.00 1077.65 33.32
2712 17.5430 5.051305 1096.00 1077.70 33.11
2713 17.5480 5.049877 1084.00 1077.75 32.92
2714 17.5530 5.048450 1083.00 1077.81 32.91
2715 17.5580 5.047024 1092.00 1077.86 33.05
2716 17.5630 5.045599 1103.00 1077.92 33.21
2717 17.5680 5.044173 1091.00 1077.99 33.03
2718 17.5730 5.042749 1079.00 1078.05 32.85
2719 17.5780 5.041327 1100.00 1078.12 33.17
2720 17.5830 5.039904 1109.00 1078.19 33.30
2721 17.5880 5.038483 1059.00 1078.27 32.54
2722 17.5930 5.037062 995.00 1078.35 31.54
2723 17.5980 5.035642 978.00 1078.44 31.27
2724 17.6030 5.034223 1044.00 1078.53 32.31
2725 17.6080 5.032805 1080.00 1078.63 32.86
2726 17.6130 5.031387 1136.00 1078.73 33.70
2727 17.6180 5.029970 1168.00 1078.84 34.18
2728 17.6230 5.028555 1171.00 1078.96 34.22
2729 17.6280 5.027140 1144.00 1079.08 33.82
2730 17.6330 5.025726 1110.00 1079.22 33.32
2731 17.6380 5.024312 1132.00 1079.36 33.65
2732 17.6430 5.022899 1119.00 1079.52 33.45
2733 17.6480 5.021487 1098.00 1079.69 33.14
2734 17.6530 5.020076 1096.00 1079.86 33.11
2735 17.6580 5.018666 1110.00 1080.05 33.32
2736 17.6630 5.017257 1121.00 1080.25 33.48
2737 17.6680 5.015848 1105.00 1080.46 33.24
2738 17.6730 5.014440 1117.00 1080.68 33.42
2739 17.6780 5.013033 1135.00 1080.91 33.69
2740 17.6830 5.011627 1176.00 1081.15 34.29
2741 17.6880 5.010222 1130.00 1081.40 33.62
2742 17.6930 5.008817 1076.00 1081.65 32.80
2743 17.6980 5.007414 1074.00 1081.92 32.77
2744 17.7030 5.006011 1105.00 1082.20 33.24
2745 17.7080 5.004608 1097.00 1082.48 33.12
2746 17.7130 5.003207 1071.00 1082.78 32.73
2747 17.7180 5.001806 1097.00 1083.08 33.12
2748 17.7230 5.000406 1120.00 1083.39 33.47
2749 17.7280 4.999007 1110.00 1083.71 33.32
2750 17.7330 4.997609 1098.00 1084.03 33.14
2751 17.7380 4.996211 1104.00 1084.36 33.23
2752 17.7430 4.994814 1094.00 1084.70 33.08
2753 17.7480 4.993419 1087.00 1085.05 32.97
2754 17.7530 4.992024 1080.00 1093.83 32.86
2755 17.7580 4.990630 1107.00 1094.25 33.27
2756 17.7630 4.989236 1139.00 1094.68 33.75
2757 17.7680 4.987844 1143.00 1095.12 33.81
2758 17.7730 4.986451 1152.00 1094.68 33.94
2759 17.7780 4.985060 1149.00 1095.14 33.90
2760 17.7830 4.983669 1128.00 1095.01 33.59
2761 17.7880 4.982280 1100.00 1095.39 33.17
2762 17.7930 4.980891 1113.00 1095.89 33.36
2763 17.7980 4.979504 1114.00 1096.39 33.38
2764 17.8030 4.978116 1090.00 1096.91 33.02
2765 17.8080 4.976729 1102.00 1097.43 33.20
2766 17.8130 4.975344 1113.00 1097.97 33.36
2767 17.8180 4.973959 1101.00 1098.51 33.18
2768 17.8230 4.972575 1129.00 1099.07 33.60
2769 17.8280 4.971192 1139.00 1099.64 33.75
2770 17.8330 4.969809 1121.00 1100.23 33.48
2771 17.8380 4.968428 1165.00 1100.82 34.13
2772 17.8430 4.967046 1190.00 1101.43 34.50
2773 17.8480 4.965666 1197.00 1102.05 34.60
2774 17.8530 4.964287 1174.00 1102.69 34.26
2775 17.8580 4.962908 1125.00 1103.34 33.54
2776 17.8630 4.961530 1099.00 1104.00 33.15
2777 17.8680 4.960153 1101.00 1104.68 33.18
2778 17.8730 4.958777 1099.00 1105.38 33.15
2779 17.8780 4.957401 1107.00 1106.09 33.27
2780 17.8830 4.956026 1078.00 1106.82 32.83
2781 17.8880 4.954652 1074.00 1107.57 32.77
2782 17.8930 4.953279 1084.00 1108.34 32.92
2783 17.8980 4.951906 1107.00 1109.12 33.27
2784 17.9030 4.950535 1094.00 1109.93 33.08
2785 17.9080 4.949164 1064.00 1110.76 32.62
2786 17.9130 4.947794 1087.00 1111.61 32.97
2787 17.9180 4.946424 1128.00 1112.48 33.59
2788 17.9230 4.945055 1128.00 1113.38 33.59
2789 17.9280 4.943688 1140.00 1114.30 33.76
2790 17.9330 4.942321 1179.00 1115.25 34.34
2791 17.9380 4.940954 1214.00 1116.23 34.84
2792 17.9430 4.939589 1186.00 1117.23 34.44
2793 17.9480 4.938224 1140.00 1118.27 33.76
2794 17.9530 4.936860 1129.00 1119.34 33.60
2795 17.9580 4.935496 1119.00 1120.44 33.45
2796 17.9630 4.934134 1105.00 1121.58 33.24
2797 17.9680 4.932772 1099.00 1122.75 33.15
2798 17.9730 4.931411 1081.00 1123.97 32.88
2799 17.9780 4.930051 1074.00 1125.23 32.77
2800 17.9830 4.928691 1061.00 1126.53 32.57
2801 17.9880 4.927332 1085.00 1127.89 32.94
2802 17.9930 4.925975 1117.00 1129.29 33.42
2803 17.9980 4.924618 1154.00 1130.75 33.97
2804 18.0030 4.923261 1184.00 1132.27 34.41
2805 18.0080 4.921906 1175.00 1133.85 34.28
2806 18.0130 4.920550 1131.00 1135.50 33.63
2807 18.0180 4.919197 1150.00 1137.22 33.91
2808 18.0230 4.917843 1188.00 1139.03 34.47
2809 18.0280 4.916490 1198.00 1140.93 34.61
2810 18.0330 4.915138 1162.00 1142.92 34.09
2811 18.0380 4.913787 1167.00 1145.02 34.16
2812 18.0430 4.912437 1207.00 1147.24 34.74
2813 18.0480 4.911087 1191.00 1149.58 34.51
2814 18.0530 4.909739 1186.00 1152.06 34.44
2815 18.0580 4.908390 1185.00 1154.70 34.42
2816 18.0630 4.907043 1179.00 1157.50 34.34
2817 18.0680 4.905695 1212.00 1160.47 34.81
2818 18.0730 4.904350 1228.00 1163.63 35.04
2819 18.0780 4.903005 1230.00 1166.98 35.07
2820 18.0830 4.901660 1231.00 1170.53 35.09
2821 18.0880 4.900317 1201.00 1174.28 34.66
2822 18.0930 4.898974 1172.00 1178.22 34.23
2823 18.0980 4.897632 1182.00 1182.34 34.38
2824 18.1030 4.896290 1192.00 1186.63 34.53
2825 18.1080 4.894949 1177.00 1191.04 34.31
2826 18.1130 4.893609 1163.00 1195.55 34.10
2827 18.1180 4.892270 1172.00 1200.09 34.23
2828 18.1230 4.890932 1181.00 1204.60 34.37
2829 18.1280 4.889594 1188.00 1209.01 34.47
2830 18.1330 4.888258 1219.00 1213.21 34.91
2831 18.1380 4.886921 1243.00 1217.10 35.26
2832 18.1430 4.885585 1229.00 1220.56 35.06
2833 18.1480 4.884250 1186.00 1223.47 34.44
2834 18.1530 4.882916 1165.00 1225.71 34.13
2835 18.1580 4.881583 1173.00 1227.17 34.25
2836 18.1630 4.880250 1208.00 1227.78 34.76
2837 18.1680 4.878919 1222.00 1227.52 34.96
2838 18.1730 4.877587 1215.00 1226.43 34.86
2839 18.1780 4.876257 1227.00 1224.61 35.03
2840 18.1830 4.874928 1218.00 1222.24 34.90
2841 18.1880 4.873599 1236.00 1219.49 35.16
2842 18.1930 4.872271 1266.00 1216.58 35.58
2843 18.1980 4.870943 1302.00 1213.69 36.08
2844 18.2030 4.869617 1282.00 1210.97 35.81
2845 18.2080 4.868291 1233.00 1208.55 35.11
2846 18.2130 4.866966 1213.00 1206.52 34.83
2847 18.2180 4.865641 1218.00 1204.94 34.90
2848 18.2230 4.864317 1249.00 1203.83 35.34
2849 18.2280 4.862994 1285.00 1203.21 35.85
2850 18.2330 4.861672 1295.00 1203.09 35.99
2851 18.2380 4.860350 1263.00 1203.45 35.54
2852 18.2430 4.859029 1211.00 1204.27 34.80
2853 18.2480 4.857710 1187.00 1205.52 34.45
2854 18.2530 4.856390 1212.00 1207.18 34.81
2855 18.2580 4.855071 1221.00 1209.21 34.94
2856 18.2630 4.853754 1204.00 1211.59 34.70
2857 18.2680 4.852436 1180.00 1214.28 34.35
2858 18.2730 4.851119 1171.00 1217.26 34.22
2859 18.2780 4.849804 1223.00 1220.50 34.97
2860 18.2830 4.848488 1260.00 1223.97 35.50
2861 18.2880 4.847175 1237.00 1227.67 35.17
2862 18.2930 4.845861 1215.00 1231.56 34.86
2863 18.2980 4.844548 1207.00 1235.65 34.74
2864 18.3030 4.843236 1204.00 1239.91 34.70
2865 18.3080 4.841924 1200.00 1244.35 34.64
2866 18.3130 4.840613 1194.00 1248.95 34.55
2867 18.3180 4.839303 1231.00 1253.71 35.09
2868 18.3230 4.837994 1241.00 1258.63 35.23
2869 18.3280 4.836686 1263.00 1263.71 35.54
2870 18.3330 4.835378 1285.00 1268.96 35.85
2871 18.3380 4.834071 1285.00 1274.37 35.85
2872 18.3430 4.832764 1275.00 1279.94 35.71
2873 18.3480 4.831459 1251.00 1285.68 35.37
2874 18.3530 4.830154 1268.00 1291.60 35.61
2875 18.3580 4.828849 1270.00 1297.70 35.64
2876 18.3630 4.827546 1263.00 1303.98 35.54
2877 18.3680 4.826243 1279.00 1310.46 35.76
2878 18.3730 4.824941 1278.00 1317.13 35.75
2879 18.3780 4.823639 1291.00 1324.02 35.93
2880 18.3830 4.822339 1298.00 1331.11 36.03
2881 18.3880 4.821039 1277.00 1338.44 35.74
2882 18.3930 4.819739 1260.00 1345.99 35.50
2883 18.3980 4.818440 1300.00 1353.80 36.06
2884 18.4030 4.817143 1335.00 1361.86 36.54
2885 18.4080 4.815845 1329.00 1370.19 36.46
2886 18.4130 4.814549 1353.00 1378.81 36.78
2887 18.4180 4.813254 1365.00 1387.73 36.95
2888 18.4230 4.811958 1377.00 1396.96 37.11
2889 18.4280 4.810664 1400.00 1406.53 37.42
2890 18.4330 4.809371 1414.00 1416.46 37.60
2891 18.4380 4.808078 1432.00 1426.76 37.84
2892 18.4430 4.806785 1423.00 1437.45 37.72
2893 18.4480 4.805494 1442.00 1448.58 37.97
2894 18.4530 4.804203 1486.00 1460.16 38.55
2895 18.4580 4.802913 1478.00 1472.24 38.44
2896 18.4630 4.801624 1506.00 1484.83 38.81
2897 18.4680 4.800335 1574.00 1498.00 39.67
2898 18.4730 4.799047 1577.00 1511.78 39.71
2899 18.4780 4.797759 1566.00 1526.23 39.57
2900 18.4830 4.796473 1615.00 1541.40 40.19
2901 18.4880 4.795187 1636.00 1557.37 40.45
2902 18.4930 4.793901 1639.00 1574.21 40.48
2903 18.4980 4.792618 1662.00 1591.99 40.77
2904 18.5030 4.791333 1670.00 1610.82 40.87
2905 18.5080 4.790051 1645.00 1630.78 40.56
2906 18.5130 4.788768 1631.00 1651.98 40.39
2907 18.5180 4.787486 1678.00 1674.51 40.96
2908 18.5230 4.786205 1747.00 1698.49 41.80
2909 18.5280 4.784925 1798.00 1723.99 42.40
2910 18.5330 4.783645 1826.00 1751.11 42.73
2911 18.5380 4.782366 1873.00 1779.89 43.28
2912 18.5430 4.781088 1895.00 1810.37 43.53
2913 18.5480 4.779810 1880.00 1842.53 43.36
2914 18.5530 4.778533 1904.00 1876.28 43.63
2915 18.5580 4.777257 1952.00 1911.47 44.18
2916 18.5630 4.775982 2009.00 1947.88 44.82
2917 18.5680 4.774707 2045.00 1985.18 45.22
2918 18.5730 4.773433 2092.00 2022.94 45.74
2919 18.5780 4.772160 2160.00 2060.58 46.48
2920 18.5830 4.770886 2209.00 2097.46 47.00
2921 18.5880 4.769615 2268.00 2132.74 47.62
2922 18.5930 4.768343 2311.00 2165.49 48.07
2923 18.5980 4.767073 2276.00 2194.60 47.71
2924 18.6030 4.765802 2208.00 2218.93 46.99
2925 18.6080 4.764534 2191.00 2238.83 46.81
2926 18.6130 4.763265 2218.00 2249.82 47.10
2927 18.6180 4.761996 2229.00 2252.42 47.21
2928 18.6230 4.760729 2221.00 2245.79 47.13
2929 18.6280 4.759463 2220.00 2229.57 47.12
2930 18.6330 4.758197 2234.00 2204.05 47.27
2931 18.6380 4.756932 2271.00 2170.12 47.65
2932 18.6430 4.755667 2248.00 2129.36 47.41
2933 18.6480 4.754403 2156.00 2083.67 46.43
2934 18.6530 4.753140 2033.00 2035.19 45.09
2935 18.6580 4.751878 1972.00 1985.85 44.41
2936 18.6630 4.750616 1948.00 1937.37 44.14
2937 18.6680 4.749355 1875.00 1891.14 43.30
2938 18.6730 4.748095 1857.00 1848.13 43.09
2939 18.6780 4.746835 1875.00 1809.04 43.30
2940 18.6830 4.745575 1851.00 1774.26 43.02
2941 18.6880 4.744317 1827.00 1744.01 42.74
2942 18.6930 4.743059 1774.00 1718.30 42.12
2943 18.6980 4.741802 1700.00 1697.03 41.23
2944 18.7030 4.740546 1666.00 1680.04 40.82
2945 18.7080 4.739290 1669.00 1667.06 40.85
2946 18.7130 4.738035 1692.00 1657.81 41.13
2947 18.7180 4.736781 1711.00 1651.96 41.36
2948 18.7230 4.735527 1742.00 1649.20 41.74
2949 18.7280 4.734274 1751.00 1649.20 41.85
2950 18.7330 4.733022 1744.00 1651.66 41.76
2951 18.7380 4.731770 1737.00 1656.30 41.68
2952 18.7430 4.730519 1732.00 1662.88 41.62
2953 18.7480 4.729269 1744.00 1671.16 41.76
2954 18.7530 4.728019 1746.00 1680.97 41.79
2955 18.7580 4.726770 1725.00 1692.15 41.53
2956 18.7630 4.725522 1744.00 1704.57 41.76
2957 18.7680 4.724274 1814.00 1718.12 42.59
2958 18.7730 4.723027 1845.00 1732.75 42.95
2959 18.7780 4.721781 1863.00 1748.39 43.16
2960 18.7830 4.720535 1893.00 1765.01 43.51
2961 18.7880 4.719290 1903.00 1782.59 43.62
2962 18.7930 4.718046 1916.00 1801.13 43.77
2963 18.7980 4.716802 1921.00 1820.64 43.83
2964 18.8030 4.715559 1949.00 1841.13 44.15
2965 18.8080 4.714317 2011.00 1862.66 44.84
2966 18.8130 4.713075 2022.00 1885.24 44.97
2967 18.8180 4.711834 1988.00 1908.93 44.59
2968 18.8230 4.710594 1997.00 1933.79 44.69
2969 18.8280 4.709354 2094.00 1959.89 45.76
2970 18.8330 4.708115 2176.00 1987.31 46.65
2971 18.8380 4.706877 2167.00 2016.10 46.55
2972 18.8430 4.705639 2153.00 2046.37 46.40
2973 18.8480 4.704402 2217.00 2078.20 47.08
2974 18.8530 4.703166 2299.00 2111.69 47.95
2975 18.8580 4.701930 2367.00 2146.91 48.65
2976 18.8630 4.700695 2406.00 2183.96 49.05
2977 18.8680 4.699461 2418.00 2222.95 49.17
2978 18.8730 4.698227 2426.00 2263.95 49.25
2979 18.8780 4.696994 2451.00 2307.03 49.51
2980 18.8830 4.695761 2470.00 2352.28 49.70
2981 18.8880 4.694529 2474.00 2399.79 49.74
2982 18.8930 4.693298 2522.00 2449.61 50.22
2983 18.8980 4.692068 2585.00 2501.84 50.84
2984 18.9030 4.690838 2689.00 2556.58 51.86
2985 18.9080 4.689609 2761.00 2613.93 52.55
2986 18.9130 4.688380 2805.00 2674.05 52.96
2987 18.9180 4.687153 2872.00 2737.01 53.59
2988 18.9230 4.685925 2904.00 2803.08 53.89
2989 18.9280 4.684699 2941.00 2872.36 54.23
2990 18.9330 4.683473 2982.00 2945.15 54.61
2991 18.9380 4.682248 3050.00 3021.58 55.23
2992 18.9430 4.681023 3144.00 3102.01 56.07
2993 18.9480 4.679799 3244.00 3186.71 56.96
2994 18.9530 4.678576 3326.00 3275.88 57.67
2995 18.9580 4.677353 3418.00 3369.91 58.46
2996 18.9630 4.676131 3480.00 3468.96 58.99
2997 18.9680 4.674910 3554.00 3573.30 59.62
2998 18.9730 4.673689 3657.00 3682.95 60.47
2999 18.9780 4.672469 3810.00 3798.09 61.73
3000 18.9830 4.671249 3914.00 3918.49 62.56
3001 18.9880 4.670031 3990.00 4043.88 63.17
3002 18.9930 4.668812 4136.00 4173.77 64.31
3003 18.9980 4.667595 4281.00 4307.36 65.43
3004 19.0030 4.666378 4399.00 4443.63 66.32
3005 19.0080 4.665162 4501.00 4581.08 67.09
3006 19.0130 4.663946 4656.00 4717.96 68.23
3007 19.0180 4.662732 4808.00 4852.10 69.34
3008 19.0230 4.661517 4846.00 4980.92 69.61
3009 19.0280 4.660304 4921.00 5108.90 70.15
3010 19.0330 4.659091 5056.00 5217.43 71.11
3011 19.0380 4.657878 5170.00 5310.36 71.90
3012 19.0430 4.656667 5218.00 5383.52 72.24
3013 19.0480 4.655456 5220.00 5432.92 72.25
3014 19.0530 4.654245 5305.00 5454.88 72.84
3015 19.0580 4.653035 5344.00 5446.72 73.10
3016 19.0630 4.651826 5243.00 5407.20 72.41
3017 19.0680 4.650617 5101.00 5337.15 71.42
3018 19.0730 4.649410 5044.00 5239.45 71.02
3019 19.0780 4.648203 4924.00 5119.15 70.17
3020 19.0830 4.646996 4758.00 4982.48 68.98
3021 19.0880 4.645790 4649.00 4836.41 68.18
3022 19.0930 4.644584 4587.00 4687.48 67.73
3023 19.0980 4.643380 4512.00 4541.13 67.17
3024 19.1030 4.642176 4349.00 4402.07 65.95
3025 19.1080 4.640973 4233.00 4273.85 65.06
3026 19.1130 4.639769 4135.00 4158.70 64.30
3027 19.1180 4.638567 3991.00 4058.13 63.17
3028 19.1230 4.637366 3877.00 3972.98 62.27
3029 19.1280 4.636165 3844.00 3903.44 62.00
3030 19.1330 4.634964 3778.00 3849.32 61.47
3031 19.1380 4.633765 3665.00 3810.12 60.54
3032 19.1430 4.632565 3602.00 3785.16 60.02
3033 19.1480 4.631367 3638.00 3773.56 60.32
3034 19.1530 4.630169 3649.00 3774.42 60.41
3035 19.1580 4.628972 3652.00 3786.79 60.43
3036 19.1630 4.627776 3669.00 3809.77 60.57
3037 19.1680 4.626580 3676.00 3842.49 60.63
3038 19.1730 4.625385 3741.00 3884.21 61.16
3039 19.1780 4.624190 3832.00 3934.24 61.90
3040 19.1830 4.622996 3868.00 3992.04 62.19
3041 19.1880 4.621803 3916.00 4057.21 62.58
3042 19.1930 4.620610 3964.00 4129.45 62.96
3043 19.1980 4.619418 4050.00 4208.64 63.64
3044 19.2030 4.618227 4070.00 4294.65 63.80
3045 19.2080 4.617035 4150.00 4387.68 64.42
3046 19.2130 4.615846 4268.00 4487.82 65.33
3047 19.2180 4.614655 4441.00 4595.44 66.64
3048 19.2230 4.613466 4581.00 4710.79 67.68
3049 19.2280 4.612278 4681.00 4834.51 68.42
3050 19.2330 4.611090 4818.00 4966.99 69.41
3051 19.2380 4.609903 5000.00 5108.80 70.71
3052 19.2430 4.608716 5199.00 5260.65 72.10
3053 19.2480 4.607531 5322.00 5422.97 72.95
3054 19.2530 4.606345 5504.00 5596.33 74.19
3055 19.2580 4.605161 5719.00 5780.92 75.62
3056 19.2630 4.603977 5900.00 5977.15 76.81
3057 19.2680 4.602794 6081.00 6184.70 77.98
3058 19.2730 4.601610 6328.00 6403.26 79.55
3059 19.2780 4.600429 6516.00 6631.67 80.72
3060 19.2830 4.599247 6691.00 6868.69 81.80
3061 19.2880 4.598066 6943.00 7112.23 83.32
3062 19.2930 4.596886 7217.00 7359.29 84.95
3063 19.2980 4.595706 7515.00 7606.31 86.69
3064 19.3030 4.594526 7741.00 7848.76 87.98
3065 19.3080 4.593348 7960.00 8081.24 89.22
3066 19.3130 4.592170 8198.00 8297.11 90.54
3067 19.3180 4.590992 8532.00 8488.90 92.37
3068 19.3230 4.589816 8807.00 8648.39 93.85
3069 19.3280 4.588640 8946.00 8766.19 94.58
3070 19.3330 4.587464 9120.00 8832.78 95.50
3071 19.3380 4.586290 9173.00 8838.81 95.78
3072 19.3430 4.585115 9013.00 8776.26 94.94
3073 19.3480 4.583942 8783.00 8639.67 93.72
3074 19.3530 4.582768 8624.00 8427.53 92.87
3075 19.3580 4.581596 8414.00 8143.82 91.73
3076 19.3630 4.580424 8048.00 7795.87 89.71
3077 19.3680 4.579253 7592.00 7396.91 87.13
3078 19.3730 4.578083 7195.00 6962.73 84.82
3079 19.3780 4.576912 6879.00 6508.65 82.94
3080 19.3830 4.575743 6334.00 6049.85 79.59
3081 19.3880 4.574574 5803.00 5598.39 76.18
3082 19.3930 4.573406 5423.00 5164.35 73.64
3083 19.3980 4.572238 5020.00 4754.07 70.85
3084 19.4030 4.571072 4650.00 4372.52 68.19
3085 19.4080 4.569905 4309.00 4022.28 65.64
3086 19.4130 4.568740 3917.00 3704.10 62.59
3087 19.4180 4.567575 3535.00 3418.23 59.46
3088 19.4230 4.566410 3264.00 3163.51 57.13
3089 19.4280 4.565246 3060.00 2938.58 55.32
3090 19.4330 4.564083 2867.00 2741.06 53.54
3091 19.4380 4.562920 2661.00 2568.83 51.58
3092 19.4430 4.561758 2504.00 2419.32 50.04
3093 19.4480 4.560596 2388.00 2290.01 48.87
3094 19.4530 4.559436 2270.00 2178.42 47.64
3095 19.4580 4.558275 2098.00 2082.17 45.80
3096 19.4630 4.557116 1927.00 1999.15 43.90
3097 19.4680 4.555956 1848.00 1927.37 42.99
3098 19.4730 4.554798 1807.00 1865.09 42.51
3099 19.4780 4.553640 1759.00 1810.76 41.94
3100 19.4830 4.552483 1725.00 1763.14 41.53
3101 19.4880 4.551326 1718.00 1721.12 41.45
3102 19.4930 4.550170 1681.00 1683.75 41.00
3103 19.4980 4.549014 1604.00 1650.32 40.05
3104 19.5030 4.547859 1556.00 1620.20 39.45
3105 19.5080 4.546705 1529.00 1592.91 39.10
3106 19.5130 4.545551 1506.00 1568.02 38.81
3107 19.5180 4.544398 1485.00 1545.21 38.54
3108 19.5230 4.543245 1463.00 1524.21 38.25
3109 19.5280 4.542093 1448.00 1504.81 38.05
3110 19.5330 4.540942 1414.00 1486.83 37.60
3111 19.5380 4.539791 1356.00 1470.11 36.82
3112 19.5430 4.538641 1337.00 1454.54 36.56
3113 19.5480 4.537491 1320.00 1439.99 36.33
3114 19.5530 4.536342 1327.00 1426.38 36.43
3115 19.5580 4.535193 1345.00 1413.63 36.67
3116 19.5630 4.534046 1314.00 1401.68 36.25
3117 19.5680 4.532898 1282.00 1390.45 35.81
3118 19.5730 4.531752 1280.00 1379.89 35.78
3119 19.5780 4.530606 1270.00 1369.96 35.64
3120 19.5830 4.529460 1279.00 1360.60 35.76
3121 19.5880 4.528316 1284.00 1351.78 35.83
3122 19.5930 4.527171 1299.00 1343.45 36.04
3123 19.5980 4.526027 1310.00 1335.59 36.19
3124 19.6030 4.524884 1297.00 1328.17 36.01
3125 19.6080 4.523742 1259.00 1321.16 35.48
3126 19.6130 4.522600 1235.00 1314.52 35.14
3127 19.6180 4.521458 1219.00 1308.25 34.91
3128 19.6230 4.520318 1203.00 1302.32 34.68
3129 19.6280 4.519177 1205.00 1296.70 34.71
3130 19.6330 4.518038 1204.00 1291.38 34.70
3131 19.6380 4.516899 1213.00 1286.35 34.83
3132 19.6430 4.515760 1214.00 1281.60 34.84
3133 19.6480 4.514622 1197.00 1277.10 34.60
3134 19.6530 4.513485 1195.00 1272.84 34.57
3135 19.6580 4.512348 1179.00 1268.83 34.34
3136 19.6630 4.511212 1183.00 1265.04 34.39
3137 19.6680 4.510077 1202.00 1261.47 34.67
3138 19.6730 4.508942 1211.00 1258.10 34.80
3139 19.6780 4.507807 1217.00 1254.95 34.89
3140 19.6830 4.506673 1225.00 1252.00 35.00
3141 19.6880 4.505540 1213.00 1249.24 34.83
3142 19.6930 4.504407 1239.00 1246.69 35.20
3143 19.6980 4.503275 1241.00 1244.32 35.23
3144 19.7030 4.502144 1230.00 1242.15 35.07
3145 19.7080 4.501013 1252.00 1240.18 35.38
3146 19.7130 4.499883 1271.00 1238.41 35.65
3147 19.7180 4.498753 1222.00 1236.85 34.96
3148 19.7230 4.497624 1173.00 1235.49 34.25
3149 19.7280 4.496495 1143.00 1234.35 33.81
3150 19.7330 4.495367 1123.00 1233.42 33.51
3151 19.7380 4.494239 1151.00 1232.73 33.93
3152 19.7430 4.493113 1194.00 1232.27 34.55
3153 19.7480 4.491987 1193.00 1232.06 34.54
3154 19.7530 4.490860 1197.00 1232.10 34.60
3155 19.7580 4.489736 1224.00 1232.39 34.99
3156 19.7630 4.488611 1256.00 1232.93 35.44
3157 19.7680 4.487486 1271.00 1233.74 35.65
3158 19.7730 4.486363 1278.00 1234.72 35.75
3159 19.7780 4.485240 1292.00 1236.04 35.94
3160 19.7830 4.484118 1270.00 1237.62 35.64
3161 19.7880 4.482996 1245.00 1239.44 35.28
3162 19.7930 4.481875 1220.00 1241.50 34.93
3163 19.7980 4.480754 1219.00 1243.80 34.91
3164 19.8030 4.479634 1239.00 1246.32 35.20
3165 19.8080 4.478515 1260.00 1249.05 35.50
3166 19.8130 4.477396 1269.00 1252.00 35.62
3167 19.8180 4.476277 1249.00 1255.16 35.34
3168 19.8230 4.475160 1219.00 1258.51 34.91
3169 19.8280 4.474043 1231.00 1262.06 35.09
3170 19.8330 4.472926 1272.00 1265.79 35.67
3171 19.8380 4.471810 1279.00 1269.72 35.76
3172 19.8430 4.470695 1314.00 1273.83 36.25
3173 19.8480 4.469580 1325.00 1278.12 36.40
3174 19.8530 4.468465 1294.00 1282.60 35.97
3175 19.8580 4.467351 1265.00 1287.25 35.57
3176 19.8630 4.466238 1251.00 1292.09 35.37
3177 19.8680 4.465125 1266.00 1297.11 35.58
3178 19.8730 4.464014 1296.00 1302.31 36.00
3179 19.8780 4.462902 1313.00 1307.71 36.24
3180 19.8830 4.461791 1313.00 1313.28 36.24
3181 19.8880 4.460680 1321.00 1319.06 36.35
3182 19.8930 4.459570 1324.00 1325.03 36.39
3183 19.8980 4.458461 1316.00 1331.20 36.28
3184 19.9030 4.457352 1325.00 1337.57 36.40
3185 19.9080 4.456244 1353.00 1344.15 36.78
3186 19.9130 4.455136 1384.00 1350.95 37.20
3187 19.9180 4.454029 1380.00 1357.97 37.15
3188 19.9230 4.452922 1372.00 1365.22 37.04
3189 19.9280 4.451817 1400.00 1372.71 37.42
3190 19.9330 4.450711 1393.00 1380.43 37.32
3191 19.9380 4.449606 1378.00 1388.41 37.12
3192 19.9430 4.448502 1394.00 1396.64 37.34
3193 19.9480 4.447399 1395.00 1405.15 37.35
3194 19.9530 4.446295 1431.00 1413.93 37.83
3195 19.9580 4.445192 1459.00 1423.00 38.20
3196 19.9630 4.444090 1433.00 1432.37 37.85
3197 19.9680 4.442989 1384.00 1442.06 37.20
3198 19.9730 4.441888 1361.00 1452.06 36.89
3199 19.9780 4.440787 1375.00 1462.42 37.08
3200 19.9830 4.439688 1430.00 1473.12 37.82
3201 19.9880 4.438588 1463.00 1484.19 38.25
3202 19.9930 4.437490 1461.00 1495.66 38.22
3203 19.9980 4.436391 1461.00 1507.52 38.22
3204 20.0030 4.435294 1472.00 1519.83 38.37
3205 20.0080 4.434197 1514.00 1532.57 38.91
3206 20.0130 4.433100 1541.00 1545.80 39.26
3207 20.0180 4.432004 1510.00 1559.51 38.86
3208 20.0230 4.430909 1515.00 1573.77 38.92
3209 20.0280 4.429814 1533.00 1588.57 39.15
3210 20.0330 4.428720 1548.00 1603.97 39.34
3211 20.0380 4.427626 1606.00 1620.00 40.07
3212 20.0430 4.426533 1638.00 1636.71 40.47
3213 20.0480 4.425440 1601.00 1654.13 40.01
3214 20.0530 4.424348 1584.00 1672.32 39.80
3215 20.0580 4.423256 1637.00 1691.33 40.46
3216 20.0630 4.422165 1699.00 1711.23 41.22
3217 20.0680 4.421074 1721.00 1732.08 41.48
3218 20.0730 4.419984 1758.00 1753.99 41.93
3219 20.0780 4.418895 1760.00 1777.01 41.95
3220 20.0830 4.417806 1762.00 1801.27 41.98
3221 20.0880 4.416718 1825.00 1826.86 42.72
3222 20.0930 4.415630 1879.00 1853.90 43.35
3223 20.0980 4.414543 1953.00 1882.54 44.19
3224 20.1030 4.413455 1990.00 1912.90 44.61
3225 20.1080 4.412370 2027.00 1945.12 45.02
3226 20.1130 4.411284 2085.00 1979.34 45.66
3227 20.1180 4.410199 2133.00 2015.72 46.18
3228 20.1230 4.409115 2156.00 2054.36 46.43
3229 20.1280 4.408031 2149.00 2095.38 46.36
3230 20.1330 4.406947 2123.00 2138.79 46.08
3231 20.1380 4.405864 2141.00 2184.68 46.27
3232 20.1430 4.404782 2225.00 2232.93 47.17
3233 20.1480 4.403700 2292.00 2283.44 47.87
3234 20.1530 4.402619 2302.00 2335.91 47.98
3235 20.1580 4.401538 2367.00 2390.05 48.65
3236 20.1630 4.400458 2461.00 2445.35 49.61
3237 20.1680 4.399378 2465.00 2501.11 49.65
3238 20.1730 4.398299 2473.00 2556.58 49.73
3239 20.1780 4.397221 2572.00 2610.70 50.71
3240 20.1830 4.396142 2665.00 2662.31 51.62
3241 20.1880 4.395065 2674.00 2709.96 51.71
3242 20.1930 4.393988 2704.00 2752.26 52.00
3243 20.1980 4.392911 2756.00 2787.17 52.50
3244 20.2030 4.391836 2785.00 2812.98 52.77
3245 20.2080 4.390760 2750.00 2827.94 52.44
3246 20.2130 4.389685 2767.00 2830.50 52.60
3247 20.2180 4.388611 2728.00 2819.62 52.23
3248 20.2230 4.387537 2753.00 2795.04 52.47
3249 20.2280 4.386464 2799.00 2757.42 52.91
3250 20.2330 4.385391 2769.00 2708.39 52.62
3251 20.2380 4.384319 2743.00 2649.53 52.37
3252 20.2430 4.383247 2754.00 2585.52 52.48
3253 20.2480 4.382177 2722.00 2518.59 52.17
3254 20.2530 4.381106 2631.00 2451.44 51.29
3255 20.2580 4.380036 2542.00 2386.50 50.42
3256 20.2630 4.378966 2448.00 2325.57 49.48
3257 20.2680 4.377898 2315.00 2270.00 48.11
3258 20.2730 4.376829 2236.00 2220.60 47.29
3259 20.2780 4.375761 2230.00 2177.89 47.22
3260 20.2830 4.374693 2180.00 2142.09 46.69
3261 20.2880 4.373627 2127.00 2113.14 46.12
3262 20.2930 4.372561 2140.00 2090.89 46.26
3263 20.2980 4.371495 2107.00 2075.03 45.90
3264 20.3030 4.370430 2064.00 2065.19 45.43
3265 20.3080 4.369365 2029.00 2060.92 45.04
3266 20.3130 4.368300 1994.00 2061.78 44.65
3267 20.3180 4.367237 2031.00 2067.30 45.07
3268 20.3230 4.366173 2045.00 2077.03 45.22
3269 20.3280 4.365111 2039.00 2090.54 45.16
3270 20.3330 4.364049 2043.00 2107.45 45.20
3271 20.3380 4.362987 2109.00 2127.41 45.92
3272 20.3430 4.361926 2139.00 2150.10 46.25
3273 20.3480 4.360866 2134.00 2175.28 46.20
3274 20.3530 4.359806 2122.00 2202.73 46.07
3275 20.3580 4.358746 2173.00 2232.25 46.62
3276 20.3630 4.357687 2212.00 2263.72 47.03
3277 20.3680 4.356628 2230.00 2297.05 47.22
3278 20.3730 4.355571 2290.00 2332.14 47.85
3279 20.3780 4.354513 2290.00 2368.94 47.85
3280 20.3830 4.353456 2283.00 2407.42 47.78
3281 20.3880 4.352400 2289.00 2447.59 47.84
3282 20.3930 4.351344 2342.00 2489.42 48.39
3283 20.3980 4.350289 2375.00 2532.99 48.73
3284 20.4030 4.349234 2425.00 2578.24 49.24
3285 20.4080 4.348179 2510.00 2625.25 50.10
3286 20.4130 4.347126 2528.00 2674.09 50.28
3287 20.4180 4.346073 2575.00 2724.77 50.74
3288 20.4230 4.345020 2651.00 2777.42 51.49
3289 20.4280 4.343968 2707.00 2832.08 52.03
3290 20.4330 4.342916 2720.00 2888.86 52.15
3291 20.4380 4.341865 2768.00 2947.80 52.61
3292 20.4430 4.340814 2871.00 3009.08 53.58
3293 20.4480 4.339764 2961.00 3072.81 54.42
3294 20.4530 4.338715 3007.00 3139.07 54.84
3295 20.4580 4.337666 3043.00 3208.10 55.16
3296 20.4630 4.336617 3144.00 3279.98 56.07
3297 20.4680 4.335568 3262.00 3354.97 57.11
3298 20.4730 4.334521 3321.00 3433.18 57.63
3299 20.4780 4.333474 3378.00 3514.97 58.12
3300 20.4830 4.332428 3447.00 3600.49 58.71
3301 20.4880 4.331381 3555.00 3690.09 59.62
3302 20.4930 4.330336 3685.00 3784.08 60.70
3303 20.4980 4.329291 3818.00 3887.24 61.79
3304 20.5030 4.328247 3931.00 3991.24 62.70
3305 20.5080 4.327203 3984.00 4100.82 63.12
3306 20.5130 4.326159 4102.00 4216.52 64.05
3307 20.5180 4.325116 4276.00 4338.88 65.39
3308 20.5230 4.324073 4416.00 4468.51 66.45
3309 20.5280 4.323032 4486.00 4605.89 66.98
3310 20.5330 4.321990 4627.00 4751.63 68.02
3311 20.5380 4.320950 4818.00 4906.42 69.41
3312 20.5430 4.319909 4951.00 5070.62 70.36
3313 20.5480 4.318869 5129.00 5244.74 71.62
3314 20.5530 4.317830 5357.00 5428.83 73.19
3315 20.5580 4.316791 5539.00 5623.17 74.42
3316 20.5630 4.315753 5786.00 5827.30 76.07
3317 20.5680 4.314714 6049.00 6042.12 77.78
3318 20.5730 4.313677 6299.00 6263.68 79.37
3319 20.5780 4.312641 6469.00 6491.71 80.43
3320 20.5830 4.311604 6646.00 6724.12 81.52
3321 20.5880 4.310568 6889.00 6957.78 83.00
3322 20.5930 4.309533 7051.00 7189.36 83.97
3323 20.5980 4.308498 7246.00 7414.14 85.12
3324 20.6030 4.307464 7519.00 7626.91 86.71
3325 20.6080 4.306430 7777.00 7821.21 88.19
3326 20.6130 4.305397 8041.00 7990.08 89.67
3327 20.6180 4.304364 8132.00 8125.55 90.18
3328 20.6230 4.303332 8166.00 8219.00 90.37
3329 20.6280 4.302299 8274.00 8261.98 90.96
3330 20.6330 4.301269 8321.00 8246.50 91.22
3331 20.6380 4.300238 8333.00 8166.38 91.29
3332 20.6430 4.299208 8253.00 8018.52 90.85
3333 20.6480 4.298178 8021.00 7803.52 89.56
3334 20.6530 4.297148 7772.00 7526.98 88.16
3335 20.6580 4.296119 7445.00 7198.49 86.28
3336 20.6630 4.295092 7030.00 6830.81 83.85
3337 20.6680 4.294064 6618.00 6438.04 81.35
3338 20.6730 4.293036 6267.00 6033.75 79.16
3339 20.6780 4.292009 5836.00 5627.48 76.39
3340 20.6830 4.290983 5344.00 5234.34 73.10
3341 20.6880 4.289958 4885.00 4858.68 69.89
3342 20.6930 4.288932 4525.00 4505.26 67.27
3343 20.6980 4.287908 4208.00 4177.12 64.87
3344 20.7030 4.286883 3923.00 3875.90 62.63
3345 20.7080 4.285859 3688.00 3601.52 60.73
3346 20.7130 4.284836 3434.00 3353.78 58.60
3347 20.7180 4.283813 3205.00 3131.49 56.61
3348 20.7230 4.282791 2987.00 2933.50 54.65
3349 20.7280 4.281769 2771.00 2757.95 52.64
3350 20.7330 4.280748 2605.00 2603.28 51.04
3351 20.7380 4.279727 2501.00 2467.67 50.01
3352 20.7430 4.278707 2356.00 2349.14 48.54
3353 20.7480 4.277687 2235.00 2245.98 47.28
3354 20.7530 4.276668 2142.00 2156.35 46.28
3355 20.7580 4.275649 2052.00 2078.66 45.30
3356 20.7630 4.274630 2003.00 2011.25 44.75
3357 20.7680 4.273612 2004.00 1952.81 44.77
3358 20.7730 4.272595 2014.00 1902.05 44.88
3359 20.7780 4.271578 1964.00 1857.95 44.32
3360 20.7830 4.270562 1905.00 1819.53 43.65
3361 20.7880 4.269546 1815.00 1786.00 42.60
3362 20.7930 4.268531 1713.00 1756.72 41.39
3363 20.7980 4.267516 1671.00 1731.13 40.88
3364 20.8030 4.266501 1630.00 1708.75 40.37
3365 20.8080 4.265487 1626.00 1689.19 40.32
3366 20.8130 4.264474 1643.00 1672.14 40.53
3367 20.8180 4.263461 1638.00 1657.34 40.47
3368 20.8230 4.262448 1654.00 1644.56 40.67
3369 20.8280 4.261437 1649.00 1633.62 40.61
3370 20.8330 4.260425 1642.00 1624.38 40.52
3371 20.8380 4.259414 1647.00 1616.72 40.58
3372 20.8430 4.258403 1590.00 1610.56 39.87
3373 20.8480 4.257394 1556.00 1605.81 39.45
3374 20.8530 4.256384 1557.00 1602.43 39.46
3375 20.8580 4.255375 1579.00 1600.37 39.74
3376 20.8630 4.254366 1607.00 1599.61 40.09
3377 20.8680 4.253358 1602.00 1600.13 40.03
3378 20.8730 4.252351 1585.00 1601.93 39.81
3379 20.8780 4.251344 1583.00 1605.00 39.79
3380 20.8830 4.250338 1623.00 1609.33 40.29
3381 20.8880 4.249331 1636.00 1614.91 40.45
3382 20.8930 4.248325 1607.00 1621.71 40.09
3383 20.8980 4.247320 1603.00 1629.71 40.04
3384 20.9030 4.246315 1608.00 1639.52 40.10
3385 20.9080 4.245311 1619.00 1649.70 40.24
3386 20.9130 4.244308 1627.00 1660.83 40.34
3387 20.9180 4.243305 1611.00 1672.72 40.14
3388 20.9230 4.242301 1677.00 1685.18 40.95
3389 20.9280 4.241300 1710.00 1697.93 41.35
3390 20.9330 4.240297 1708.00 1710.67 41.33
3391 20.9380 4.239296 1734.00 1722.99 41.64
3392 20.9430 4.238296 1784.00 1734.45 42.24
3393 20.9480 4.237295 1780.00 1744.51 42.19
3394 20.9530 4.236295 1712.00 1752.58 41.38
3395 20.9580 4.235296 1697.00 1758.01 41.19
3396 20.9630 4.234297 1737.00 1760.11 41.68
3397 20.9680 4.233299 1717.00 1758.18 41.44
3398 20.9730 4.232301 1682.00 1744.85 41.01
3399 20.9780 4.231303 1698.00 1733.24 41.21
3400 20.9830 4.230306 1742.00 1716.35 41.74
3401 20.9880 4.229310 1776.00 1694.33 42.14
3402 20.9930 4.228314 1744.00 1667.65 41.76
3403 20.9980 4.227318 1704.00 1637.18 41.28
3404 21.0030 4.226323 1681.00 1603.94 41.00
3405 21.0080 4.225329 1679.00 1569.10 40.98
3406 21.0130 4.224334 1620.00 1533.68 40.25
3407 21.0180 4.223341 1520.00 1498.65 38.99
3408 21.0230 4.222348 1466.00 1464.73 38.29
3409 21.0280 4.221355 1423.00 1432.48 37.72
3410 21.0330 4.220363 1397.00 1402.24 37.38
3411 21.0380 4.219371 1397.00 1374.23 37.38
3412 21.0430 4.218380 1404.00 1348.58 37.47
3413 21.0480 4.217389 1391.00 1325.27 37.30
3414 21.0530 4.216399 1353.00 1304.26 36.78
3415 21.0580 4.215409 1308.00 1285.45 36.17
3416 21.0630 4.214419 1289.00 1268.72 35.90
3417 21.0680 4.213430 1254.00 1253.88 35.41
3418 21.0730 4.212442 1220.00 1240.77 34.93
3419 21.0780 4.211454 1223.00 1229.22 34.97
3420 21.0830 4.210466 1247.00 1219.05 35.31
3421 21.0880 4.209480 1260.00 1210.08 35.50
3422 21.0930 4.208493 1278.00 1202.17 35.75
3423 21.0980 4.207507 1280.00 1195.17 35.78
3424 21.1030 4.206521 1260.00 1188.94 35.50
3425 21.1080 4.205536 1233.00 1183.38 35.11
3426 21.1130 4.204552 1220.00 1178.39 34.93
3427 21.1180 4.203568 1222.00 1173.88 34.96
3428 21.1230 4.202584 1186.00 1169.77 34.44
3429 21.1280 4.201600 1157.00 1166.02 34.01
3430 21.1330 4.200618 1184.00 1162.57 34.41
3431 21.1380 4.199635 1241.00 1159.38 35.23
3432 21.1430 4.198653 1250.00 1156.41 35.36
3433 21.1480 4.197672 1217.00 1153.64 34.89
3434 21.1530 4.196691 1218.00 1151.05 34.90
3435 21.1580 4.195711 1193.00 1148.62 34.54
3436 21.1630 4.194731 1185.00 1146.34 34.42
3437 21.1680 4.193751 1165.00 1144.18 34.13
3438 21.1730 4.192772 1163.00 1142.14 34.10
3439 21.1780 4.191794 1180.00 1140.21 34.35
3440 21.1830 4.190815 1213.00 1138.38 34.83
3441 21.1880 4.189838 1267.00 1136.64 35.59
3442 21.1930 4.188860 1283.00 1135.00 35.82
3443 21.1980 4.187884 1278.00 1133.43 35.75
3444 21.2030 4.186908 1262.00 1131.94 35.52
3445 21.2080 4.185932 1239.00 1130.53 35.20
3446 21.2130 4.184957 1214.00 1129.18 34.84
3447 21.2180 4.183981 1226.00 1127.90 35.01
3448 21.2230 4.183007 1211.00 1126.68 34.80
3449 21.2280 4.182033 1163.00 1125.51 34.10
3450 21.2330 4.181059 1149.00 1124.41 33.90
3451 21.2380 4.180087 1181.00 1123.35 34.37
3452 21.2430 4.179114 1207.00 1122.35 34.74
3453 21.2480 4.178142 1233.00 1121.40 35.11
3454 21.2530 4.177170 1184.00 1120.49 34.41
3455 21.2580 4.176199 1151.00 1119.62 33.93
3456 21.2630 4.175228 1144.00 1118.80 33.82
3457 21.2680 4.174258 1135.00 1118.02 33.69
3458 21.2730 4.173288 1132.00 1117.28 33.65
3459 21.2780 4.172319 1150.00 1116.58 33.91
3460 21.2830 4.171350 1152.00 1115.92 33.94
3461 21.2880 4.170382 1167.00 1115.29 34.16
3462 21.2930 4.169414 1187.00 1114.70 34.45
3463 21.2980 4.168446 1147.00 1114.14 33.87
3464 21.3030 4.167479 1125.00 1113.62 33.54
3465 21.3080 4.166512 1139.00 1113.13 33.75
3466 21.3130 4.165546 1143.00 1112.68 33.81
3467 21.3180 4.164580 1152.00 1112.26 33.94
3468 21.3230 4.163615 1154.00 1111.86 33.97
3469 21.3280 4.162651 1139.00 1111.51 33.75
3470 21.3330 4.161686 1115.00 1111.18 33.39
3471 21.3380 4.160722 1118.00 1110.89 33.44
3472 21.3430 4.159759 1125.00 1110.63 33.54
3473 21.3480 4.158796 1136.00 1110.40 33.70
3474 21.3530 4.157833 1163.00 1110.20 34.10
3475 21.3580 4.156871 1185.00 1110.04 34.42
3476 21.3630 4.155909 1159.00 1109.91 34.04
3477 21.3680 4.154948 1135.00 1109.82 33.69
3478 21.3730 4.153987 1128.00 1109.77 33.59
3479 21.3780 4.153027 1110.00 1109.75 33.32
3480 21.3830 4.152068 1105.00 1109.77 33.24
3481 21.3880 4.151108 1143.00 1109.83 33.81
3482 21.3930 4.150149 1176.00 1109.93 34.29
3483 21.3980 4.149190 1191.00 1110.07 34.51
3484 21.4030 4.148232 1200.00 1110.26 34.64
3485 21.4080 4.147275 1189.00 1110.49 34.48
3486 21.4130 4.146318 1169.00 1110.76 34.19
3487 21.4180 4.145361 1154.00 1111.07 33.97
3488 21.4230 4.144405 1112.00 1111.43 33.35
3489 21.4280 4.143449 1074.00 1111.84 32.77
3490 21.4330 4.142494 1083.00 1112.29 32.91
3491 21.4380 4.141539 1111.00 1112.78 33.33
3492 21.4430 4.140584 1112.00 1113.33 33.35
3493 21.4480 4.139631 1119.00 1113.91 33.45
3494 21.4530 4.138678 1136.00 1114.54 33.70
3495 21.4580 4.137724 1159.00 1117.46 34.04
3496 21.4630 4.136772 1158.00 1118.18 34.03
3497 21.4680 4.135819 1156.00 1118.95 34.00
3498 21.4730 4.134868 1204.00 1119.77 34.70
3499 21.4780 4.133916 1226.00 1120.63 35.01
3500 21.4830 4.132966 1221.00 1121.54 34.94
3501 21.4880 4.132015 1207.00 1122.49 34.74
3502 21.4930 4.131065 1194.00 1123.49 34.55
3503 21.4980 4.130116 1185.00 1124.53 34.42
3504 21.5030 4.129167 1151.00 1125.63 33.93
3505 21.5080 4.128218 1150.00 1126.77 33.91
3506 21.5130 4.127270 1153.00 1127.97 33.96
3507 21.5180 4.126322 1149.00 1129.22 33.90
3508 21.5230 4.125375 1186.00 1130.53 34.44
3509 21.5280 4.124428 1212.00 1131.89 34.81
3510 21.5330 4.123481 1207.00 1133.31 34.74
3511 21.5380 4.122536 1211.00 1134.80 34.80
3512 21.5430 4.121590 1223.00 1136.34 34.97
3513 21.5480 4.120645 1221.00 1137.95 34.94
3514 21.5530 4.119700 1208.00 1139.64 34.76
3515 21.5580 4.118756 1209.00 1141.39 34.77
3516 21.5630 4.117812 1217.00 1143.22 34.89
3517 21.5680 4.116869 1250.00 1145.12 35.36
3518 21.5730 4.115926 1269.00 1147.11 35.62
3519 21.5780 4.114984 1254.00 1149.19 35.41
3520 21.5830 4.114042 1230.00 1151.36 35.07
3521 21.5880 4.113101 1202.00 1153.63 34.67
3522 21.5930 4.112159 1203.00 1156.00 34.68
3523 21.5980 4.111218 1214.00 1158.48 34.84
3524 21.6030 4.110278 1234.00 1161.07 35.13
3525 21.6080 4.109338 1250.00 1163.79 35.36
3526 21.6130 4.108399 1235.00 1166.64 35.14
3527 21.6180 4.107460 1217.00 1169.63 34.89
3528 21.6230 4.106522 1215.00 1172.78 34.86
3529 21.6280 4.105584 1211.00 1176.09 34.80
3530 21.6330 4.104646 1215.00 1179.58 34.86
3531 21.6380 4.103708 1256.00 1183.26 35.44
3532 21.6430 4.102772 1265.00 1187.15 35.57
3533 21.6480 4.101836 1235.00 1191.28 35.14
3534 21.6530 4.100900 1234.00 1195.66 35.13
3535 21.6580 4.099964 1276.00 1200.32 35.72
3536 21.6630 4.099029 1277.00 1205.53 35.74
3537 21.6680 4.098095 1277.00 1210.83 35.74
3538 21.6730 4.097160 1297.00 1216.51 36.01
3539 21.6780 4.096227 1294.00 1222.60 35.97
3540 21.6830 4.095294 1290.00 1229.15 35.92
3541 21.6880 4.094361 1294.00 1236.19 35.97
3542 21.6930 4.093428 1283.00 1243.78 35.82
3543 21.6980 4.092496 1295.00 1251.97 35.99
3544 21.7030 4.091565 1340.00 1260.80 36.61
3545 21.7080 4.090634 1377.00 1270.33 37.11
3546 21.7130 4.089703 1397.00 1280.60 37.38
3547 21.7180 4.088773 1398.00 1291.67 37.39
3548 21.7230 4.087843 1407.00 1303.57 37.51
3549 21.7280 4.086914 1431.00 1316.33 37.83
3550 21.7330 4.085985 1442.00 1329.98 37.97
3551 21.7380 4.085056 1458.00 1344.54 38.18
3552 21.7430 4.084128 1475.00 1360.01 38.41
3553 21.7480 4.083200 1466.00 1376.38 38.29
3554 21.7530 4.082273 1449.00 1393.65 38.07
3555 21.7580 4.081347 1467.00 1411.79 38.30
3556 21.7630 4.080420 1509.00 1430.76 38.85
3557 21.7680 4.079494 1521.00 1450.52 39.00
3558 21.7730 4.078568 1532.00 1471.01 39.14
3559 21.7780 4.077643 1518.00 1492.15 38.96
3560 21.7830 4.076719 1509.00 1513.86 38.85
3561 21.7880 4.075795 1550.00 1536.04 39.37
3562 21.7930 4.074871 1578.00 1558.56 39.72
3563 21.7980 4.073947 1594.00 1584.18 39.92
3564 21.8030 4.073024 1622.00 1606.97 40.27
3565 21.8080 4.072102 1675.00 1630.76 40.93
3566 21.8130 4.071179 1717.00 1653.18 41.44
3567 21.8180 4.070258 1713.00 1675.17 41.39
3568 21.8230 4.069336 1722.00 1696.64 41.50
3569 21.8280 4.068416 1781.00 1717.54 42.20
3570 21.8330 4.067495 1819.00 1737.91 42.65
3571 21.8380 4.066576 1820.00 1757.86 42.66
3572 21.8430 4.065656 1811.00 1777.63 42.56
3573 21.8480 4.064737 1785.00 1797.48 42.25
3574 21.8530 4.063818 1774.00 1816.38 42.12
3575 21.8580 4.062900 1799.00 1837.26 42.41
3576 21.8630 4.061982 1850.00 1859.05 43.01
3577 21.8680 4.061064 1845.00 1881.96 42.95
3578 21.8730 4.060148 1855.00 1906.15 43.07
3579 21.8780 4.059231 1897.00 1931.74 43.55
3580 21.8830 4.058315 1895.00 1958.82 43.53
3581 21.8880 4.057399 1899.00 1987.46 43.58
3582 21.8930 4.056484 1941.00 2017.71 44.06
3583 21.8980 4.055568 2024.00 2049.59 44.99
3584 21.9030 4.054654 2069.00 2083.13 45.49
3585 21.9080 4.053740 2084.00 2118.36 45.65
3586 21.9130 4.052826 2067.00 2155.30 45.46
3587 21.9180 4.051913 2089.00 2193.95 45.71
3588 21.9230 4.051000 2187.00 2234.37 46.77
3589 21.9280 4.050088 2259.00 2276.56 47.53
3590 21.9330 4.049176 2265.00 2320.58 47.59
3591 21.9380 4.048264 2248.00 2366.43 47.41
3592 21.9430 4.047353 2304.00 2414.22 48.00
3593 21.9480 4.046443 2376.00 2464.01 48.74
3594 21.9530 4.045532 2431.00 2515.83 49.31
3595 21.9580 4.044622 2512.00 2569.85 50.12
3596 21.9630 4.043713 2532.00 2626.10 50.32
3597 21.9680 4.042803 2540.00 2684.74 50.40
3598 21.9730 4.041895 2630.00 2745.85 51.28
3599 21.9780 4.040987 2718.00 2809.67 52.13
3600 21.9830 4.040079 2762.00 2876.28 52.55
3601 21.9880 4.039171 2799.00 2945.91 52.91
3602 21.9930 4.038264 2879.00 3018.75 53.66
3603 21.9980 4.037358 2985.00 3095.04 54.64
3604 22.0030 4.036451 3090.00 3175.05 55.59
3605 22.0080 4.035546 3173.00 3259.00 56.33
3606 22.0130 4.034641 3237.00 3347.20 56.89
3607 22.0180 4.033736 3263.00 3439.95 57.12
3608 22.0230 4.032831 3294.00 3537.59 57.39
3609 22.0280 4.031927 3434.00 3640.39 58.60
3610 22.0330 4.031023 3644.00 3750.28 60.37
3611 22.0380 4.030120 3798.00 3864.40 61.63
3612 22.0430 4.029218 3915.00 3984.53 62.57
3613 22.0480 4.028315 4015.00 4110.88 63.36
3614 22.0530 4.027413 4118.00 4243.53 64.17
3615 22.0580 4.026511 4251.00 4382.44 65.20
3616 22.0630 4.025610 4374.00 4527.23 66.14
3617 22.0680 4.024709 4477.00 4677.34 66.91
3618 22.0730 4.023809 4615.00 4832.06 67.93
3619 22.0780 4.022909 4832.00 4989.99 69.51
3620 22.0830 4.022009 5065.00 5149.59 71.17
3621 22.0880 4.021110 5180.00 5308.61 71.97
3622 22.0930 4.020212 5300.00 5464.68 72.80
3623 22.0980 4.019313 5517.00 5614.53 74.28
3624 22.1030 4.018415 5664.00 5754.61 75.26
3625 22.1080 4.017518 5738.00 5880.59 75.75
3626 22.1130 4.016621 5821.00 5987.96 76.30
3627 22.1180 4.015724 5916.00 6071.74 76.92
3628 22.1230 4.014828 6053.00 6126.90 77.80
3629 22.1280 4.013932 6184.00 6149.04 78.64
3630 22.1330 4.013036 6188.00 6134.73 78.66
3631 22.1380 4.012141 6195.00 6082.41 78.71
3632 22.1430 4.011247 6197.00 5992.89 78.72
3633 22.1480 4.010352 6054.00 5869.37 77.81
3634 22.1530 4.009459 5873.00 5717.45 76.64
3635 22.1580 4.008564 5723.00 5544.00 75.65
3636 22.1630 4.007672 5571.00 5356.33 74.64
3637 22.1680 4.006779 5425.00 5161.16 73.65
3638 22.1730 4.005887 5251.00 4963.92 72.46
3639 22.1780 4.004995 5089.00 4768.64 71.34
3640 22.1830 4.004104 4900.00 4577.61 70.00
3641 22.1880 4.003213 4608.00 4391.77 67.88
3642 22.1930 4.002322 4380.00 4211.01 66.18
3643 22.1980 4.001432 4254.00 4034.46 65.22
3644 22.2030 4.000542 4113.00 3861.22 64.13
3645 22.2080 3.999653 3914.00 3690.13 62.56
3646 22.2130 3.998764 3660.00 3520.88 60.50
3647 22.2180 3.997875 3431.00 3353.59 58.57
3648 22.2230 3.996987 3269.00 3189.32 57.18
3649 22.2280 3.996099 3095.00 3029.26 55.63
3650 22.2330 3.995212 2936.00 2875.24 54.18
3651 22.2380 3.994325 2807.00 2728.81 52.98
3652 22.2430 3.993438 2699.00 2591.12 51.95
3653 22.2480 3.992552 2623.00 2463.20 51.22
3654 22.2530 3.991666 2526.00 2345.44 50.26
3655 22.2580 3.990781 2393.00 2238.06 48.92
3656 22.2630 3.989896 2264.00 2140.75 47.58
3657 22.2680 3.989012 2134.00 2053.24 46.20
3658 22.2730 3.988127 2002.00 1974.95 44.74
3659 22.2780 3.987244 1920.00 1905.34 43.82
3660 22.2830 3.986360 1875.00 1837.49 43.30
3661 22.2880 3.985477 1836.00 1783.18 42.85
3662 22.2930 3.984595 1747.00 1735.54 41.80
3663 22.2980 3.983712 1674.00 1693.87 40.91
3664 22.3030 3.982831 1682.00 1657.55 41.01
3665 22.3080 3.981949 1647.00 1625.98 40.58
3666 22.3130 3.981068 1590.00 1598.62 39.87
3667 22.3180 3.980187 1584.00 1574.95 39.80
3668 22.3230 3.979307 1585.00 1554.51 39.81
3669 22.3280 3.978428 1565.00 1536.91 39.56
3670 22.3330 3.977548 1537.00 1521.78 39.20
3671 22.3380 3.976669 1536.00 1508.83 39.19
3672 22.3430 3.975790 1515.00 1497.77 38.92
3673 22.3480 3.974912 1493.00 1488.23 38.64
3674 22.3530 3.974035 1491.00 1480.37 38.61
3675 22.3580 3.973157 1485.00 1473.84 38.54
3676 22.3630 3.972280 1470.00 1468.53 38.34
3677 22.3680 3.971403 1481.00 1464.34 38.48
3678 22.3730 3.970527 1501.00 1461.17 38.74
3679 22.3780 3.969651 1482.00 1458.97 38.50
3680 22.3830 3.968776 1474.00 1457.69 38.39
3681 22.3880 3.967901 1455.00 1457.28 38.14
3682 22.3930 3.967026 1450.00 1457.73 38.08
3683 22.3980 3.966152 1462.00 1459.01 38.24
3684 22.4030 3.965278 1475.00 1461.12 38.41
3685 22.4080 3.964404 1473.00 1464.05 38.38
3686 22.4130 3.963531 1474.00 1467.82 38.39
3687 22.4180 3.962659 1503.00 1472.44 38.77
3688 22.4230 3.961786 1511.00 1477.92 38.87
3689 22.4280 3.960915 1512.00 1484.30 38.88
3690 22.4330 3.960043 1516.00 1491.60 38.94
3691 22.4380 3.959172 1513.00 1499.85 38.90
3692 22.4430 3.958301 1516.00 1509.09 38.94
3693 22.4480 3.957431 1547.00 1519.34 39.33
3694 22.4530 3.956561 1571.00 1530.63 39.64
3695 22.4580 3.955691 1551.00 1542.98 39.38
3696 22.4630 3.954822 1518.00 1556.37 38.96
3697 22.4680 3.953953 1510.00 1570.80 38.86
3698 22.4730 3.953085 1545.00 1586.20 39.31
3699 22.4780 3.952217 1595.00 1602.52 39.94
3700 22.4830 3.951349 1624.00 1620.73 40.30
3701 22.4880 3.950482 1645.00 1638.44 40.56
3702 22.4930 3.949615 1657.00 1656.57 40.71
3703 22.4980 3.948749 1657.00 1674.81 40.71
3704 22.5030 3.947882 1685.00 1692.83 41.05
3705 22.5080 3.947017 1694.00 1710.20 41.16
3706 22.5130 3.946151 1699.00 1726.46 41.22
3707 22.5180 3.945287 1715.00 1741.02 41.41
3708 22.5230 3.944422 1709.00 1753.22 41.34
3709 22.5280 3.943558 1686.00 1762.37 41.06
3710 22.5330 3.942694 1670.00 1767.72 40.87
3711 22.5380 3.941831 1670.00 1768.52 40.87
3712 22.5430 3.940968 1665.00 1764.11 40.80
3713 22.5480 3.940105 1669.00 1754.01 40.85
3714 22.5530 3.939243 1669.00 1738.03 40.85
3715 22.5580 3.938381 1628.00 1716.31 40.35
3716 22.5630 3.937520 1585.00 1689.45 39.81
3717 22.5680 3.936658 1588.00 1658.33 39.85
3718 22.5730 3.935798 1581.00 1624.41 39.76
3719 22.5780 3.934938 1522.00 1588.33 39.01
3720 22.5830 3.934078 1521.00 1551.55 39.00
3721 22.5880 3.933218 1542.00 1515.11 39.27
3722 22.5930 3.932359 1501.00 1479.81 38.74
3723 22.5980 3.931500 1445.00 1446.29 38.01
3724 22.6030 3.930642 1413.00 1414.91 37.59
3725 22.6080 3.929784 1394.00 1385.96 37.34
3726 22.6130 3.928926 1355.00 1359.55 36.81
3727 22.6180 3.928069 1336.00 1335.70 36.55
3728 22.6230 3.927212 1320.00 1313.88 36.33
3729 22.6280 3.926356 1320.00 1294.98 36.33
3730 22.6330 3.925500 1299.00 1278.37 36.04
3731 22.6380 3.924644 1258.00 1263.90 35.47
3732 22.6430 3.923789 1245.00 1251.38 35.28
3733 22.6480 3.922934 1250.00 1240.64 35.36
3734 22.6530 3.922079 1272.00 1231.52 35.67
3735 22.6580 3.921225 1277.00 1223.83 35.74
3736 22.6630 3.920371 1254.00 1217.41 35.41
3737 22.6680 3.919518 1241.00 1212.15 35.23
3738 22.6730 3.918664 1234.00 1208.00 35.13
3739 22.6780 3.917812 1204.00 1204.66 34.70
3740 22.6830 3.916960 1197.00 1202.13 34.60
3741 22.6880 3.916108 1216.00 1200.34 34.87
3742 22.6930 3.915256 1208.00 1199.25 34.76
3743 22.6980 3.914405 1184.00 1198.79 34.41
3744 22.7030 3.913554 1165.00 1198.93 34.13
3745 22.7080 3.912704 1133.00 1199.65 33.66
3746 22.7130 3.911854 1128.00 1200.93 33.59
3747 22.7180 3.911004 1128.00 1202.76 33.59
3748 22.7230 3.910155 1145.00 1205.12 33.84
3749 22.7280 3.909306 1184.00 1208.00 34.41
3750 22.7330 3.908457 1219.00 1211.39 34.91
3751 22.7380 3.907609 1229.00 1215.28 35.06
3752 22.7430 3.906762 1214.00 1221.39 34.84
3753 22.7480 3.905914 1181.00 1226.26 34.37
3754 22.7530 3.905067 1156.00 1231.58 34.00
3755 22.7580 3.904220 1175.00 1237.35 34.28
3756 22.7630 3.903374 1142.00 1243.55 33.79
3757 22.7680 3.902528 1117.00 1250.17 33.42
3758 22.7730 3.901683 1134.00 1257.20 33.67
3759 22.7780 3.900838 1188.00 1264.62 34.47
3760 22.7830 3.899993 1227.00 1272.44 35.03
3761 22.7880 3.899148 1247.00 1280.63 35.31
3762 22.7930 3.898305 1269.00 1289.20 35.62
3763 22.7980 3.897460 1298.00 1298.14 36.03
3764 22.8030 3.896618 1319.00 1307.46 36.32
3765 22.8080 3.895775 1351.00 1317.14 36.76
3766 22.8130 3.894932 1368.00 1327.19 36.99
3767 22.8180 3.894090 1345.00 1337.61 36.67
3768 22.8230 3.893248 1331.00 1348.42 36.48
3769 22.8280 3.892407 1327.00 1359.60 36.43
3770 22.8330 3.891565 1331.00 1371.18 36.48
3771 22.8380 3.890725 1345.00 1383.16 36.67
3772 22.8430 3.889884 1323.00 1395.56 36.37
3773 22.8480 3.889045 1316.00 1408.36 36.28
3774 22.8530 3.888205 1333.00 1421.62 36.51
3775 22.8580 3.887366 1385.00 1435.32 37.22
3776 22.8630 3.886527 1434.00 1449.48 37.87
3777 22.8680 3.885688 1416.00 1464.14 37.63
3778 22.8730 3.884851 1407.00 1479.31 37.51
3779 22.8780 3.884012 1425.00 1495.00 37.75
3780 22.8830 3.883175 1464.00 1511.24 38.26
3781 22.8880 3.882338 1504.00 1528.06 38.78
3782 22.8930 3.881502 1519.00 1545.48 38.97
3783 22.8980 3.880665 1538.00 1563.55 39.22
3784 22.9030 3.879830 1593.00 1582.27 39.91
3785 22.9080 3.878994 1630.00 1601.70 40.37
3786 22.9130 3.878159 1632.00 1621.88 40.40
3787 22.9180 3.877324 1615.00 1642.83 40.19
3788 22.9230 3.876490 1617.00 1664.61 40.21
3789 22.9280 3.875656 1637.00 1687.28 40.46
3790 22.9330 3.874822 1633.00 1710.88 40.41
3791 22.9380 3.873989 1677.00 1735.47 40.95
3792 22.9430 3.873156 1688.00 1761.11 41.09
3793 22.9480 3.872323 1724.00 1787.90 41.52
3794 22.9530 3.871491 1787.00 1815.89 42.27
3795 22.9580 3.870659 1850.00 1845.44 43.01
3796 22.9630 3.869828 1885.00 1876.12 43.42
3797 22.9680 3.868996 1910.00 1908.33 43.70
3798 22.9730 3.868166 1952.00 1942.16 44.18
3799 22.9780 3.867335 1980.00 1981.35 44.50
3800 22.9830 3.866505 2014.00 2018.87 44.88
3801 22.9880 3.865675 2093.00 2058.48 45.75
3802 22.9930 3.864846 2113.00 2100.35 45.97
3803 22.9980 3.864017 2107.00 2144.62 45.90
3804 23.0030 3.863189 2120.00 2191.53 46.04
3805 23.0080 3.862360 2132.00 2241.22 46.17
3806 23.0130 3.861532 2167.00 2293.88 46.55
3807 23.0180 3.860705 2223.00 2349.63 47.15
3808 23.0230 3.859878 2274.00 2408.64 47.69
3809 23.0280 3.859051 2330.00 2470.93 48.27
3810 23.0330 3.858225 2454.00 2536.50 49.54
3811 23.0380 3.857399 2619.00 2605.26 51.18
3812 23.0430 3.856573 2732.00 2677.01 52.27
3813 23.0480 3.855747 2776.00 2751.44 52.69
3814 23.0530 3.854923 2804.00 2827.97 52.95
3815 23.0580 3.854098 2821.00 2906.02 53.11
3816 23.0630 3.853274 2889.00 2984.65 53.75
3817 23.0680 3.852450 3000.00 3062.75 54.77
3818 23.0730 3.851626 3108.00 3138.98 55.75
3819 23.0780 3.850803 3263.00 3211.70 57.12
3820 23.0830 3.849980 3357.00 3279.03 57.94
3821 23.0880 3.849158 3409.00 3338.74 58.39
3822 23.0930 3.848336 3465.00 3388.43 58.86
3823 23.0980 3.847514 3534.00 3425.55 59.45
3824 23.1030 3.846693 3542.00 3447.56 59.51
3825 23.1080 3.845872 3588.00 3452.17 59.90
3826 23.1130 3.845051 3667.00 3437.72 60.56
3827 23.1180 3.844231 3649.00 3403.46 60.41
3828 23.1230 3.843411 3646.00 3349.95 60.38
3829 23.1280 3.842591 3537.00 3279.02 59.47
3830 23.1330 3.841772 3451.00 3193.83 58.75
3831 23.1380 3.840953 3393.00 3098.16 58.25
3832 23.1430 3.840135 3260.00 2996.32 57.10
3833 23.1480 3.839316 3103.00 2892.27 55.70
3834 23.1530 3.838499 2947.00 2789.65 54.29
3835 23.1580 3.837681 2885.00 2691.16 53.71
3836 23.1630 3.836864 2857.00 2598.91 53.45
3837 23.1680 3.836047 2725.00 2514.44 52.20
3838 23.1730 3.835231 2592.00 2438.53 50.91
3839 23.1780 3.834415 2451.00 2371.72 49.51
3840 23.1830 3.833599 2351.00 2314.10 48.49
3841 23.1880 3.832784 2332.00 2265.60 48.29
3842 23.1930 3.831969 2275.00 2225.88 47.70
3843 23.1980 3.831154 2228.00 2194.52 47.20
3844 23.2030 3.830340 2266.00 2171.03 47.60
3845 23.2080 3.829526 2206.00 2154.85 46.97
3846 23.2130 3.828713 2204.00 2145.39 46.95
3847 23.2180 3.827899 2228.00 2142.10 47.20
3848 23.2230 3.827086 2229.00 2144.40 47.21
3849 23.2280 3.826274 2233.00 2151.80 47.25
3850 23.2330 3.825462 2224.00 2163.79 47.16
3851 23.2380 3.824650 2226.00 2179.97 47.18
3852 23.2430 3.823838 2211.00 2199.95 47.02
3853 23.2480 3.823028 2202.00 2223.38 46.93
3854 23.2530 3.822217 2198.00 2250.01 46.88
3855 23.2580 3.821406 2169.00 2279.55 46.57
3856 23.2630 3.820596 2183.00 2311.80 46.72
3857 23.2680 3.819787 2213.00 2346.56 47.04
3858 23.2730 3.818977 2268.00 2383.68 47.62
3859 23.2780 3.818168 2348.00 2422.96 48.46
3860 23.2830 3.817359 2407.00 2464.26 49.06
3861 23.2880 3.816551 2456.00 2507.46 49.56
3862 23.2930 3.815743 2451.00 2552.35 49.51
3863 23.2980 3.814936 2451.00 2598.83 49.51
3864 23.3030 3.814129 2514.00 2646.67 50.14
3865 23.3080 3.813322 2608.00 2695.81 51.07
3866 23.3130 3.812515 2676.00 2746.06 51.73
3867 23.3180 3.811709 2756.00 2797.37 52.50
3868 23.3230 3.810903 2899.00 2849.81 53.84
3869 23.3280 3.810098 2967.00 2903.47 54.47
3870 23.3330 3.809293 2994.00 2958.67 54.72
3871 23.3380 3.808488 3048.00 3015.83 55.21
3872 23.3430 3.807683 3157.00 3075.60 56.19
3873 23.3480 3.806879 3186.00 3138.60 56.44
3874 23.3530 3.806075 3203.00 3205.59 56.60
3875 23.3580 3.805272 3266.00 3277.16 57.15
3876 23.3630 3.804469 3407.00 3353.99 58.37
3877 23.3680 3.803666 3541.00 3436.54 59.51
3878 23.3730 3.802864 3619.00 3525.11 60.16
3879 23.3780 3.802062 3740.00 3619.89 61.16
3880 23.3830 3.801260 3806.00 3720.87 61.69
3881 23.3880 3.800458 3851.00 3827.89 62.06
3882 23.3930 3.799658 3953.00 3940.44 62.87
3883 23.3980 3.798857 3960.00 4057.86 62.93
3884 23.4030 3.798057 4105.00 4179.17 64.07
3885 23.4080 3.797257 4285.00 4303.06 65.46
3886 23.4130 3.796457 4460.00 4427.92 66.78
3887 23.4180 3.795658 4631.00 4551.56 68.05
3888 23.4230 3.794859 4708.00 4671.68 68.61
3889 23.4280 3.794060 4776.00 4785.81 69.11
3890 23.4330 3.793262 4837.00 4889.50 69.55
3891 23.4380 3.792464 4888.00 4979.42 69.91
3892 23.4430 3.791667 4929.00 5051.48 70.21
3893 23.4480 3.790869 4992.00 5101.33 70.65
3894 23.4530 3.790073 5041.00 5124.66 71.00
3895 23.4580 3.789276 4944.00 5117.73 70.31
3896 23.4630 3.788480 4864.00 5077.81 69.74
3897 23.4680 3.787684 4928.00 5003.72 70.20
3898 23.4730 3.786889 4871.00 4896.39 69.79
3899 23.4780 3.786093 4762.00 4758.65 69.01
3900 23.4830 3.785299 4573.00 4595.35 67.62
3901 23.4880 3.784504 4338.00 4412.93 65.86
3902 23.4930 3.783710 4192.00 4218.11 64.75
3903 23.4980 3.782916 4047.00 4017.60 63.62
3904 23.5030 3.782123 3863.00 3817.40 62.15
3905 23.5080 3.781330 3605.00 3622.64 60.04
3906 23.5130 3.780537 3407.00 3437.13 58.37
3907 23.5180 3.779744 3287.00 3263.64 57.33
3908 23.5230 3.778952 3123.00 3103.90 55.88
3909 23.5280 3.778161 3005.00 2959.10 54.82
3910 23.5330 3.777369 2923.00 2829.45 54.06
3911 23.5380 3.776578 2800.00 2714.91 52.92
3912 23.5430 3.775787 2653.00 2615.11 51.51
3913 23.5480 3.774997 2523.00 2529.37 50.23
3914 23.5530 3.774207 2449.00 2456.85 49.49
3915 23.5580 3.773417 2415.00 2396.60 49.14
3916 23.5630 3.772628 2415.00 2347.70 49.14
3917 23.5680 3.771838 2406.00 2309.17 49.05
3918 23.5730 3.771050 2291.00 2280.00 47.86
3919 23.5780 3.770262 2264.00 2259.36 47.58
3920 23.5830 3.769474 2295.00 2246.43 47.91
3921 23.5880 3.768686 2301.00 2240.48 47.97
3922 23.5930 3.767898 2276.00 2240.87 47.71
3923 23.5980 3.767111 2237.00 2247.03 47.30
3924 23.6030 3.766325 2199.00 2258.50 46.89
3925 23.6080 3.765538 2180.00 2274.84 46.69
3926 23.6130 3.764752 2200.00 2295.67 46.90
3927 23.6180 3.763967 2261.00 2320.67 47.55
3928 23.6230 3.763181 2307.00 2349.44 48.03
3929 23.6280 3.762396 2313.00 2381.66 48.09
3930 23.6330 3.761612 2327.00 2416.88 48.24
3931 23.6380 3.760827 2409.00 2454.67 49.08
3932 23.6430 3.760043 2495.00 2494.40 49.95
3933 23.6480 3.759259 2509.00 2535.47 50.09
3934 23.6530 3.758476 2473.00 2577.03 49.73
3935 23.6580 3.757693 2489.00 2618.14 49.89
3936 23.6630 3.756910 2501.00 2657.67 50.01
3937 23.6680 3.756128 2564.00 2694.34 50.64
3938 23.6730 3.755346 2635.00 2726.66 51.33
3939 23.6780 3.754565 2701.00 2752.96 51.97
3940 23.6830 3.753783 2742.00 2771.44 52.36
3941 23.6880 3.753002 2780.00 2780.24 52.73
3942 23.6930 3.752221 2831.00 2777.52 53.21
3943 23.6980 3.751441 2811.00 2761.82 53.02
3944 23.7030 3.750661 2730.00 2732.07 52.25
3945 23.7080 3.749881 2677.00 2687.97 51.74
3946 23.7130 3.749102 2647.00 2630.16 51.45
3947 23.7180 3.748323 2594.00 2560.21 50.93
3948 23.7230 3.747544 2544.00 2480.51 50.44
3949 23.7280 3.746765 2493.00 2393.88 49.93
3950 23.7330 3.745987 2456.00 2303.37 49.56
3951 23.7380 3.745210 2346.00 2211.81 48.44
3952 23.7430 3.744432 2187.00 2121.47 46.77
3953 23.7480 3.743656 2107.00 2034.34 45.90
3954 23.7530 3.742879 2013.00 1951.74 44.87
3955 23.7580 3.742102 1958.00 1874.66 44.25
3956 23.7630 3.741326 1898.00 1803.57 43.57
3957 23.7680 3.740551 1851.00 1738.78 43.02
3958 23.7730 3.739775 1820.00 1680.29 42.66
3959 23.7780 3.739000 1736.00 1628.03 41.67
3960 23.7830 3.738225 1709.00 1581.67 41.34
3961 23.7880 3.737451 1659.00 1540.90 40.73
3962 23.7930 3.736677 1587.00 1505.35 39.84
3963 23.7980 3.735903 1529.00 1470.87 39.10
3964 23.8030 3.735130 1491.00 1444.41 38.61
3965 23.8080 3.734356 1438.00 1421.82 37.92
3966 23.8130 3.733584 1399.00 1402.69 37.40
3967 23.8180 3.732811 1373.00 1386.60 37.05
3968 23.8230 3.732039 1347.00 1373.18 36.70
3969 23.8280 3.731267 1327.00 1362.09 36.43
3970 23.8330 3.730496 1319.00 1353.03 36.32
3971 23.8380 3.729725 1347.00 1345.74 36.70
3972 23.8430 3.728954 1355.00 1339.99 36.81
3973 23.8480 3.728184 1363.00 1335.59 36.92
3974 23.8530 3.727413 1352.00 1332.38 36.77
3975 23.8580 3.726643 1343.00 1330.23 36.65
3976 23.8630 3.725874 1313.00 1329.02 36.24
3977 23.8680 3.725105 1278.00 1328.67 35.75
3978 23.8730 3.724336 1313.00 1327.81 36.24
3979 23.8780 3.723567 1368.00 1328.98 36.99
3980 23.8830 3.722799 1387.00 1330.82 37.24
3981 23.8880 3.722031 1387.00 1333.30 37.24
3982 23.8930 3.721264 1369.00 1336.40 37.00
3983 23.8980 3.720496 1369.00 1340.08 37.00
3984 23.9030 3.719729 1361.00 1344.33 36.89
3985 23.9080 3.718962 1343.00 1349.14 36.65
3986 23.9130 3.718196 1354.00 1354.48 36.80
3987 23.9180 3.717430 1402.00 1360.36 37.44
3988 23.9230 3.716665 1364.00 1366.78 36.93
3989 23.9280 3.715899 1348.00 1373.71 36.72
3990 23.9330 3.715134 1360.00 1381.18 36.88
3991 23.9380 3.714370 1441.00 1389.18 37.96
3992 23.9430 3.713605 1463.00 1397.72 38.25
3993 23.9480 3.712842 1433.00 1406.81 37.85
3994 23.9530 3.712078 1376.00 1416.46 37.09
3995 23.9580 3.711314 1421.00 1426.68 37.70
3996 23.9630 3.710551 1460.00 1437.50 38.21
3997 23.9680 3.709788 1480.00 1448.93 38.47
3998 23.9730 3.709026 1483.00 1462.34 38.51
3999 23.9780 3.708264 1407.00 1475.08 37.51
4000 23.9830 3.707502 1412.00 1488.52 37.58
4001 23.9880 3.706740 1477.00 1502.69 38.43
4002 23.9930 3.705980 1508.00 1517.65 38.83
4003 23.9980 3.705219 1502.00 1533.42 38.76
4004 24.0030 3.704458 1499.00 1550.08 38.72
4005 24.0080 3.703698 1572.00 1567.67 39.65
4006 24.0130 3.702938 1621.00 1586.27 40.26
4007 24.0180 3.702179 1608.00 1605.94 40.10
4008 24.0230 3.701419 1623.00 1626.76 40.29
4009 24.0280 3.700660 1614.00 1648.82 40.17
4010 24.0330 3.699902 1654.00 1672.22 40.67
4011 24.0380 3.699144 1697.00 1697.05 41.19
4012 24.0430 3.698386 1788.00 1723.40 42.28
4013 24.0480 3.697628 1761.00 1751.40 41.96
4014 24.0530 3.696871 1753.00 1781.10 41.87
4015 24.0580 3.696114 1775.00 1812.64 42.13
4016 24.0630 3.695357 1783.00 1846.03 42.23
4017 24.0680 3.694601 1850.00 1881.36 43.01
4018 24.0730 3.693844 1860.00 1918.66 43.13
4019 24.0780 3.693089 1889.00 1957.86 43.46
4020 24.0830 3.692333 1951.00 1998.97 44.17
4021 24.0880 3.691578 1965.00 2041.80 44.33
4022 24.0930 3.690823 2045.00 2086.21 45.22
4023 24.0980 3.690069 2107.00 2131.88 45.90
4024 24.1030 3.689315 2160.00 2178.53 46.48
4025 24.1080 3.688561 2186.00 2225.67 46.75
4026 24.1130 3.687807 2249.00 2272.74 47.42
4027 24.1180 3.687054 2360.00 2319.09 48.58
4028 24.1230 3.686301 2446.00 2363.93 49.46
4029 24.1280 3.685549 2413.00 2406.33 49.12
4030 24.1330 3.684797 2420.00 2445.23 49.19
4031 24.1380 3.684044 2489.00 2479.49 49.89
4032 24.1430 3.683293 2537.00 2507.89 50.37
4033 24.1480 3.682541 2505.00 2529.25 50.05
4034 24.1530 3.681791 2479.00 2543.42 49.79
4035 24.1580 3.681040 2540.00 2547.79 50.40
4036 24.1630 3.680289 2598.00 2542.98 50.97
4037 24.1680 3.679539 2559.00 2529.25 50.59
4038 24.1730 3.678790 2561.00 2507.52 50.61
4039 24.1780 3.678040 2519.00 2479.29 50.19
4040 24.1830 3.677291 2513.00 2446.51 50.13
4041 24.1880 3.676542 2486.00 2411.00 49.86
4042 24.1930 3.675793 2452.00 2374.77 49.52
4043 24.1980 3.675045 2418.00 2339.44 49.17
4044 24.2030 3.674298 2356.00 2306.33 48.54
4045 24.2080 3.673550 2296.00 2276.34 47.92
4046 24.2130 3.672803 2234.00 2250.06 47.27
4047 24.2180 3.672056 2246.00 2227.71 47.39
4048 24.2230 3.671309 2203.00 2208.77 46.94
4049 24.2280 3.670563 2216.00 2194.19 47.07
4050 24.2330 3.669817 2198.00 2183.07 46.88
4051 24.2380 3.669071 2205.00 2174.98 46.96
4052 24.2430 3.668326 2225.00 2169.43 47.17
4053 24.2480 3.667581 2268.00 2165.93 47.62
4054 24.2530 3.666836 2364.00 2164.05 48.62
4055 24.2580 3.666091 2378.00 2163.47 48.76
4056 24.2630 3.665347 2249.00 2164.05 47.42
4057 24.2680 3.664603 2181.00 2165.83 46.70
4058 24.2730 3.663859 2200.00 2169.05 46.90
4059 24.2780 3.663116 2191.00 2174.08 46.81
4060 24.2830 3.662373 2283.00 2181.35 47.78
4061 24.2880 3.661631 2325.00 2191.33 48.22
4062 24.2930 3.660888 2361.00 2204.43 48.59
4063 24.2980 3.660146 2364.00 2221.00 48.62
4064 24.3030 3.659405 2390.00 2241.28 48.89
4065 24.3080 3.658663 2397.00 2265.45 48.96
4066 24.3130 3.657923 2382.00 2293.63 48.81
4067 24.3180 3.657182 2420.00 2325.84 49.19
4068 24.3230 3.656441 2492.00 2362.08 49.92
4069 24.3280 3.655701 2476.00 2402.23 49.76
4070 24.3330 3.654961 2502.00 2446.21 50.02
4071 24.3380 3.654222 2567.00 2493.79 50.67
4072 24.3430 3.653482 2573.00 2544.76 50.72
4073 24.3480 3.652743 2683.00 2598.77 51.80
4074 24.3530 3.652004 2769.00 2655.55 52.62
4075 24.3580 3.651266 2857.00 2714.66 53.45
4076 24.3630 3.650528 2965.00 2775.66 54.45
4077 24.3680 3.649791 3024.00 2838.13 54.99
4078 24.3730 3.649053 3002.00 2901.45 54.79
4079 24.3780 3.648316 3030.00 2965.01 55.05
4080 24.3830 3.647579 3112.00 3027.93 55.79
4081 24.3880 3.646843 3222.00 3089.34 56.76
4082 24.3930 3.646106 3202.00 3147.97 56.59
4083 24.3980 3.645370 3201.00 3202.47 56.58
4084 24.4030 3.644635 3315.00 3251.14 57.58
4085 24.4080 3.643900 3323.00 3292.25 57.65
4086 24.4130 3.643165 3431.00 3323.92 58.57
4087 24.4180 3.642430 3465.00 3344.32 58.86
4088 24.4230 3.641696 3329.00 3351.92 57.70
4089 24.4280 3.640962 3350.00 3345.73 57.88
4090 24.4330 3.640228 3305.00 3325.51 57.49
4091 24.4380 3.639494 3206.00 3292.03 56.62
4092 24.4430 3.638761 3123.00 3247.00 55.88
4093 24.4480 3.638029 3050.00 3192.92 55.23
4094 24.4530 3.637296 2959.00 3132.84 54.40
4095 24.4580 3.636564 2996.00 3069.91 54.74
4096 24.4630 3.635832 3020.00 3007.07 54.95
4097 24.4680 3.635100 2905.00 2946.80 53.90
4098 24.4730 3.634369 2834.00 2891.15 53.24
4099 24.4780 3.633637 2796.00 2841.58 52.88
4100 24.4830 3.632907 2790.00 2799.10 52.82
4101 24.4880 3.632176 2824.00 2764.35 53.14
4102 24.4930 3.631446 2728.00 2737.70 52.23
4103 24.4980 3.630717 2716.00 2719.28 52.12
4104 24.5030 3.629987 2737.00 2709.06 52.32
4105 24.5080 3.629258 2776.00 2706.93 52.69
4106 24.5130 3.628528 2769.00 2712.68 52.62
4107 24.5180 3.627800 2742.00 2726.60 52.36
4108 24.5230 3.627072 2702.00 2747.39 51.98
4109 24.5280 3.626344 2770.00 2775.30 52.63
4110 24.5330 3.625616 2832.00 2810.12 53.22
4111 24.5380 3.624888 2966.00 2851.67 54.46
4112 24.5430 3.624161 2996.00 2899.76 54.74
4113 24.5480 3.623434 3019.00 2954.30 54.95
4114 24.5530 3.622708 3115.00 3015.13 55.81
4115 24.5580 3.621982 3235.00 3082.26 56.88
4116 24.5630 3.621256 3265.00 3155.58 57.14
4117 24.5680 3.620530 3384.00 3235.02 58.17
4118 24.5730 3.619805 3503.00 3320.48 59.19
4119 24.5780 3.619080 3551.00 3411.78 59.59
4120 24.5830 3.618355 3538.00 3508.68 59.48
4121 24.5880 3.617630 3576.00 3610.71 59.80
4122 24.5930 3.616906 3637.00 3717.32 60.31
4123 24.5980 3.616182 3818.00 3827.73 61.79
4124 24.6030 3.615458 3981.00 3940.94 63.10
4125 24.6080 3.614735 4141.00 4055.56 64.35
4126 24.6130 3.614012 4251.00 4169.94 65.20
4127 24.6180 3.613290 4380.00 4282.20 66.18
4128 24.6230 3.612567 4560.00 4389.83 67.53
4129 24.6280 3.611845 4663.00 4490.09 68.29
4130 24.6330 3.611123 4656.00 4579.67 68.23
4131 24.6380 3.610402 4698.00 4655.10 68.54
4132 24.6430 3.609681 4692.00 4712.39 68.50
4133 24.6480 3.608959 4754.00 4747.55 68.95
4134 24.6530 3.608239 4715.00 4756.62 68.67
4135 24.6580 3.607519 4611.00 4736.19 67.90
4136 24.6630 3.606799 4541.00 4683.77 67.39
4137 24.6680 3.606079 4341.00 4598.42 65.89
4138 24.6730 3.605360 4163.00 4480.85 64.52
4139 24.6780 3.604640 3994.00 4334.07 63.20
4140 24.6830 3.603921 3865.00 4162.71 62.17
4141 24.6880 3.603203 3786.00 3973.02 61.53
4142 24.6930 3.602484 3587.00 3771.46 59.89
4143 24.6980 3.601767 3397.00 3564.50 58.28
4144 24.7030 3.601049 3224.00 3358.05 56.78
4145 24.7080 3.600332 3084.00 3156.73 55.53
4146 24.7130 3.599614 2959.00 2964.09 54.40
4147 24.7180 3.598898 2820.00 2782.55 53.10
4148 24.7230 3.598181 2569.00 2613.86 50.69
4149 24.7280 3.597465 2301.00 2458.64 47.97
4150 24.7330 3.596749 2181.00 2317.31 46.70
4151 24.7380 3.596033 2098.00 2189.66 45.80
4152 24.7430 3.595318 2054.00 2075.23 45.32
4153 24.7480 3.594603 2010.00 1973.33 44.83
4154 24.7530 3.593888 1969.00 1883.08 44.37
4155 24.7580 3.593174 1873.00 1803.62 43.28
4156 24.7630 3.592459 1797.00 1733.92 42.39
4157 24.7680 3.591746 1735.00 1673.01 41.65
4158 24.7730 3.591032 1700.00 1619.89 41.23
4159 24.7780 3.590319 1611.00 1573.66 40.14
4160 24.7830 3.589605 1548.00 1533.47 39.34
4161 24.7880 3.588893 1498.00 1498.48 38.70
4162 24.7930 3.588181 1457.00 1468.01 38.17
4163 24.7980 3.587468 1480.00 1439.52 38.47
4164 24.8030 3.586757 1486.00 1416.28 38.55
4165 24.8080 3.586045 1494.00 1395.87 38.65
4166 24.8130 3.585334 1393.00 1377.92 37.32
4167 24.8180 3.584622 1277.00 1363.67 35.74
4168 24.8230 3.583912 1300.00 1349.64 36.06
4169 24.8280 3.583202 1304.00 1337.19 36.11
4170 24.8330 3.582491 1247.00 1326.12 35.31
4171 24.8380 3.581781 1228.00 1316.26 35.04
4172 24.8430 3.581072 1229.00 1307.48 35.06
4173 24.8480 3.580363 1234.00 1299.67 35.13
4174 24.8530 3.579654 1271.00 1292.72 35.65
4175 24.8580 3.578945 1274.00 1286.58 35.69
4176 24.8630 3.578237 1230.00 1281.16 35.07
4177 24.8680 3.577528 1259.00 1276.42 35.48
4178 24.8730 3.576821 1284.00 1272.30 35.83
4179 24.8780 3.576113 1214.00 1268.77 34.84
4180 24.8830 3.575406 1239.00 1265.80 35.20
4181 24.8880 3.574699 1213.00 1263.35 34.83
4182 24.8930 3.573992 1222.00 1261.41 34.96
4183 24.8980 3.573286 1233.00 1259.94 35.11
4184 24.9030 3.572580 1216.00 1258.93 34.87
4185 24.9080 3.571874 1206.00 1258.37 34.73
4186 24.9130 3.571168 1233.00 1258.24 35.11
4187 24.9180 3.570463 1252.00 1258.54 35.38
4188 24.9230 3.569758 1232.00 1259.25 35.10
4189 24.9280 3.569053 1153.00 1260.37 33.96
4190 24.9330 3.568349 1188.00 1261.91 34.47
4191 24.9380 3.567645 1208.00 1263.84 34.76
4192 24.9430 3.566941 1279.00 1266.19 35.76
4193 24.9480 3.566237 1308.00 1268.94 36.17
4194 24.9530 3.565534 1326.00 1272.12 36.41
4195 24.9580 3.564831 1315.00 1275.71 36.26
4196 24.9630 3.564129 1254.00 1279.75 35.41
4197 24.9680 3.563426 1296.00 1284.23 36.00
4198 24.9730 3.562724 1290.00 1289.17 35.92
4199 24.9780 3.562022 1258.00 1294.60 35.47
4200 24.9830 3.561321 1274.00 1300.54 35.69
4201 24.9880 3.560619 1295.00 1307.01 35.99
4202 24.9930 3.559918 1277.00 1314.05 35.74
4203 24.9980 3.559218 1277.00 1321.67 35.74
4204 25.0030 3.558517 1286.00 1329.93 35.86
4205 25.0080 3.557817 1268.00 1338.64 35.61
4206 25.0130 3.557117 1287.00 1349.98 35.87
4207 25.0180 3.556417 1328.00 1360.34 36.44
4208 25.0230 3.555718 1271.00 1371.47 35.65
4209 25.0280 3.555019 1353.00 1383.37 36.78
4210 25.0330 3.554320 1437.00 1396.09 37.91
4211 25.0380 3.553622 1480.00 1409.62 38.47
4212 25.0430 3.552924 1439.00 1423.94 37.93
4213 25.0480 3.552226 1465.00 1439.06 38.28
4214 25.0530 3.551528 1415.00 1454.83 37.62
4215 25.0580 3.550831 1484.00 1471.22 38.52
4216 25.0630 3.550134 1476.00 1488.07 38.42
4217 25.0680 3.549437 1500.00 1505.21 38.73
4218 25.0730 3.548741 1449.00 1522.45 38.07
4219 25.0780 3.548045 1492.00 1539.49 38.63
4220 25.0830 3.547348 1523.00 1556.01 39.03
4221 25.0880 3.546653 1524.00 1571.59 39.04
4222 25.0930 3.545958 1458.00 1585.81 38.18
4223 25.0980 3.545262 1492.00 1598.11 38.63
4224 25.1030 3.544567 1526.00 1607.92 39.06
4225 25.1080 3.543873 1534.00 1614.60 39.17
4226 25.1130 3.543179 1530.00 1617.54 39.12
4227 25.1180 3.542485 1537.00 1616.15 39.20
4228 25.1230 3.541791 1543.00 1609.99 39.28
4229 25.1280 3.541098 1528.00 1598.82 39.09
4230 25.1330 3.540405 1549.00 1582.68 39.36
4231 25.1380 3.539712 1506.00 1561.93 38.81
4232 25.1430 3.539019 1498.00 1537.27 38.70
4233 25.1480 3.538327 1472.00 1509.56 38.37
4234 25.1530 3.537635 1563.00 1477.40 39.53
4235 25.1580 3.536943 1461.00 1446.70 38.22
4236 25.1630 3.536252 1424.00 1414.96 37.74
4237 25.1680 3.535560 1409.00 1384.81 37.54
4238 25.1730 3.534869 1394.00 1355.89 37.34
4239 25.1780 3.534179 1370.00 1328.63 37.01
4240 25.1830 3.533488 1361.00 1303.27 36.89
4241 25.1880 3.532799 1358.00 1279.98 36.85
4242 25.1930 3.532108 1271.00 1258.80 35.65
4243 25.1980 3.531419 1189.00 1239.74 34.48
4244 25.2030 3.530730 1226.00 1222.73 35.01
4245 25.2080 3.530041 1216.00 1207.67 34.87
4246 25.2130 3.529352 1173.00 1194.43 34.25
4247 25.2180 3.528663 1160.00 1182.89 34.06
4248 25.2230 3.527975 1135.00 1172.87 33.69
4249 25.2280 3.527287 1145.00 1164.22 33.84
4250 25.2330 3.526600 1165.00 1156.80 34.13
4251 25.2380 3.525913 1133.00 1150.43 33.66
4252 25.2430 3.525225 1174.00 1144.97 34.26
4253 25.2480 3.524539 1215.00 1140.29 34.86
4254 25.2530 3.523852 1210.00 1136.25 34.79
4255 25.2580 3.523166 1172.00 1132.74 34.23
4256 25.2630 3.522480 1153.00 1129.65 33.96
4257 25.2680 3.521794 1141.00 1126.89 33.78
4258 25.2730 3.521109 1081.00 1124.41 32.88
4259 25.2780 3.520424 1109.00 1122.14 33.30
4260 25.2830 3.519739 1159.00 1120.08 34.04
4261 25.2880 3.519054 1148.00 1118.20 33.88
4262 25.2930 3.518370 1101.00 1116.53 33.18
4263 25.2980 3.517686 1073.00 1115.10 32.76
4264 25.3030 3.517002 1117.00 1113.94 33.42
4265 25.3080 3.516319 1132.00 1113.08 33.65
4266 25.3130 3.515635 1109.00 1112.55 33.30
4267 25.3180 3.514952 1136.00 1112.39 33.70
4268 25.3230 3.514270 1115.00 1112.63 33.39
4269 25.3280 3.513587 1125.00 1113.27 33.54
4270 25.3330 3.512905 1126.00 1114.33 33.56
4271 25.3380 3.512223 1100.00 1115.83 33.17
4272 25.3430 3.511542 1128.00 1117.76 33.59
4273 25.3480 3.510860 1140.00 1120.13 33.76
4274 25.3530 3.510179 1180.00 1122.94 34.35
4275 25.3580 3.509498 1151.00 1126.16 33.93
4276 25.3630 3.508818 1109.00 1129.81 33.30
4277 25.3680 3.508137 1093.00 1133.87 33.06
4278 25.3730 3.507458 1094.00 1138.32 33.08
4279 25.3780 3.506778 1129.00 1143.16 33.60
4280 25.3830 3.506099 1134.00 1148.38 33.67
4281 25.3880 3.505419 1166.00 1153.97 34.15
4282 25.3930 3.504740 1152.00 1159.91 33.94
4283 25.3980 3.504062 1142.00 1164.81 33.79
4284 25.4030 3.503383 1155.00 1171.45 33.99
4285 25.4080 3.502705 1165.00 1178.44 34.13
4286 25.4130 3.502028 1187.00 1185.78 34.45
4287 25.4180 3.501350 1174.00 1193.45 34.26
4288 25.4230 3.500673 1154.00 1201.48 33.97
4289 25.4280 3.499996 1187.00 1209.84 34.45
4290 25.4330 3.499319 1241.00 1218.58 35.23
4291 25.4380 3.498642 1251.00 1227.67 35.37
4292 25.4430 3.497966 1262.00 1237.14 35.52
4293 25.4480 3.497290 1327.00 1247.00 36.43
4294 25.4530 3.496615 1302.00 1257.26 36.08
4295 25.4580 3.495939 1309.00 1267.95 36.18
4296 25.4630 3.495264 1304.00 1279.07 36.11
4297 25.4680 3.494589 1279.00 1290.66 35.76
4298 25.4730 3.493915 1239.00 1302.74 35.20
4299 25.4780 3.493240 1309.00 1315.33 36.18
4300 25.4830 3.492566 1321.00 1328.46 36.35
4301 25.4880 3.491892 1304.00 1342.18 36.11
4302 25.4930 3.491219 1295.00 1356.51 35.99
4303 25.4980 3.490546 1322.00 1371.49 36.36
4304 25.5030 3.489872 1354.00 1387.16 36.80
4305 25.5080 3.489200 1378.00 1403.58 37.12
4306 25.5130 3.488527 1429.00 1420.80 37.80
4307 25.5180 3.487855 1444.00 1438.85 38.00
4308 25.5230 3.487183 1430.00 1457.80 37.82
4309 25.5280 3.486511 1469.00 1477.72 38.33
4310 25.5330 3.485840 1500.00 1498.67 38.73
4311 25.5380 3.485169 1463.00 1520.72 38.25
4312 25.5430 3.484498 1540.00 1543.93 39.24
4313 25.5480 3.483827 1598.00 1568.41 39.97
4314 25.5530 3.483157 1575.00 1594.21 39.69
4315 25.5580 3.482487 1536.00 1621.44 39.19
4316 25.5630 3.481817 1661.00 1650.17 40.76
4317 25.5680 3.481148 1677.00 1680.50 40.95
4318 25.5730 3.480478 1689.00 1712.53 41.10
4319 25.5780 3.479810 1763.00 1746.31 41.99
4320 25.5830 3.479141 1841.00 1781.96 42.91
4321 25.5880 3.478472 1920.00 1819.50 43.82
4322 25.5930 3.477804 1909.00 1858.99 43.69
4323 25.5980 3.477136 1941.00 1900.38 44.06
4324 25.6030 3.476468 1939.00 1943.70 44.03
4325 25.6080 3.475801 1955.00 1988.79 44.22
4326 25.6130 3.475133 1954.00 2035.52 44.20
4327 25.6180 3.474467 1970.00 2083.65 44.38
4328 25.6230 3.473800 2106.00 2132.86 45.89
4329 25.6280 3.473133 2170.00 2182.72 46.58
4330 25.6330 3.472467 2209.00 2232.69 47.00
4331 25.6380 3.471802 2288.00 2282.09 47.83
4332 25.6430 3.471136 2342.00 2330.14 48.39
4333 25.6480 3.470470 2406.00 2375.89 49.05
4334 25.6530 3.469805 2445.00 2418.21 49.45
4335 25.6580 3.469141 2464.00 2455.86 49.64
4336 25.6630 3.468476 2473.00 2487.50 49.73
4337 25.6680 3.467812 2441.00 2511.64 49.41
4338 25.6730 3.467148 2520.00 2526.88 50.20
4339 25.6780 3.466484 2506.00 2531.95 50.06
4340 25.6830 3.465820 2560.00 2525.92 50.60
4341 25.6880 3.465157 2588.00 2508.41 50.87
4342 25.6930 3.464494 2599.00 2479.70 50.98
4343 25.6980 3.463831 2549.00 2440.82 50.49
4344 25.7030 3.463169 2476.00 2393.51 49.76
4345 25.7080 3.462507 2485.00 2339.94 49.85
4346 25.7130 3.461845 2435.00 2282.57 49.35
4347 25.7180 3.461183 2343.00 2223.67 48.40
4348 25.7230 3.460521 2278.00 2165.39 47.73
4349 25.7280 3.459860 2221.00 2109.42 47.13
4350 25.7330 3.459199 2113.00 2057.14 45.97
4351 25.7380 3.458539 2061.00 2009.45 45.40
4352 25.7430 3.457878 1953.00 1966.98 44.19
4353 25.7480 3.457218 1887.00 1930.15 43.44
4354 25.7530 3.456558 1888.00 1899.09 43.45
4355 25.7580 3.455899 1923.00 1873.87 43.85
4356 25.7630 3.455239 1950.00 1854.39 44.16
4357 25.7680 3.454580 1944.00 1840.49 44.09
4358 25.7730 3.453921 1940.00 1831.94 44.05
4359 25.7780 3.453263 1943.00 1828.46 44.08
4360 25.7830 3.452604 1919.00 1829.72 43.81
4361 25.7880 3.451946 1907.00 1835.38 43.67
4362 25.7930 3.451288 1880.00 1845.05 43.36
4363 25.7980 3.450631 1905.00 1858.33 43.65
4364 25.8030 3.449974 1894.00 1874.78 43.52
4365 25.8080 3.449316 1911.00 1894.30 43.72
4366 25.8130 3.448660 1915.00 1915.60 43.76
4367 25.8180 3.448003 1914.00 1938.52 43.75
4368 25.8230 3.447347 1940.00 1962.41 44.05
4369 25.8280 3.446691 1968.00 1986.56 44.36
4370 25.8330 3.446035 2007.00 2010.21 44.80
4371 25.8380 3.445379 2068.00 2032.47 45.48
4372 25.8430 3.444724 2108.00 2052.40 45.91
4373 25.8480 3.444069 2078.00 2068.91 45.59
4374 25.8530 3.443414 2086.00 2080.93 45.67
4375 25.8580 3.442760 2076.00 2087.29 45.56
4376 25.8630 3.442106 2070.00 2086.01 45.50
4377 25.8680 3.441452 2087.00 2078.10 45.68
4378 25.8730 3.440798 2054.00 2062.03 45.32
4379 25.8780 3.440145 2074.00 2037.65 45.54
4380 25.8830 3.439492 2009.00 2005.35 44.82
4381 25.8880 3.438838 1942.00 1965.95 44.07
4382 25.8930 3.438186 1902.00 1920.75 43.61
4383 25.8980 3.437533 1828.00 1871.21 42.76
4384 25.9030 3.436881 1689.00 1818.97 41.10
4385 25.9080 3.436229 1674.00 1765.46 40.91
4386 25.9130 3.435577 1677.00 1711.99 40.95
4387 25.9180 3.434926 1630.00 1659.71 40.37
4388 25.9230 3.434275 1583.00 1609.45 39.79
4389 25.9280 3.433624 1600.00 1561.88 40.00
4390 25.9330 3.432973 1524.00 1517.45 39.04
4391 25.9380 3.432323 1465.00 1476.48 38.28
4392 25.9430 3.431672 1446.00 1439.08 38.03
4393 25.9480 3.431023 1441.00 1405.30 37.96
4394 25.9530 3.430373 1418.00 1375.09 37.66
4395 25.9580 3.429724 1391.00 1348.31 37.30
4396 25.9630 3.429075 1368.00 1324.52 36.99
4397 25.9680 3.428426 1348.00 1304.01 36.72
4398 25.9730 3.427777 1328.00 1286.31 36.44
4399 25.9780 3.427128 1254.00 1271.15 35.41
4400 25.9830 3.426480 1211.00 1258.30 34.80
4401 25.9880 3.425832 1193.00 1247.53 34.54
4402 25.9930 3.425185 1189.00 1238.60 34.48
4403 25.9980 3.424537 1225.00 1231.32 35.00
4404 26.0030 3.423890 1244.00 1225.50 35.27
4405 26.0080 3.423243 1237.00 1220.96 35.17
4406 26.0130 3.422596 1259.00 1217.56 35.48
4407 26.0180 3.421950 1248.00 1215.18 35.33
4408 26.0230 3.421304 1206.00 1213.70 34.73
4409 26.0280 3.420658 1171.00 1213.03 34.22
4410 26.0330 3.420012 1158.00 1213.10 34.03
4411 26.0380 3.419367 1212.00 1213.83 34.81
4412 26.0430 3.418722 1180.00 1215.18 34.35
4413 26.0480 3.418077 1130.00 1217.11 33.62
4414 26.0530 3.417432 1087.00 1219.59 32.97
4415 26.0580 3.416788 1140.00 1222.59 33.76
4416 26.0630 3.416144 1136.00 1225.99 33.70
4417 26.0680 3.415500 1133.00 1229.99 33.66
4418 26.0730 3.414856 1145.00 1234.46 33.84
4419 26.0780 3.414213 1197.00 1239.42 34.60
4420 26.0830 3.413570 1191.00 1245.61 34.51
4421 26.0880 3.412927 1187.00 1251.54 34.45
4422 26.0930 3.412284 1215.00 1257.97 34.86
4423 26.0980 3.411642 1234.00 1264.90 35.13
4424 26.1030 3.411000 1238.00 1272.36 35.19
4425 26.1080 3.410358 1280.00 1280.64 35.78
4426 26.1130 3.409716 1280.00 1289.19 35.78
4427 26.1180 3.409075 1262.00 1298.35 35.52
4428 26.1230 3.408434 1249.00 1308.12 35.34
4429 26.1280 3.407793 1272.00 1318.55 35.67
4430 26.1330 3.407152 1334.00 1329.67 36.52
4431 26.1380 3.406512 1346.00 1340.05 36.69
4432 26.1430 3.405871 1321.00 1352.69 36.35
4433 26.1480 3.405231 1344.00 1366.14 36.66
4434 26.1530 3.404592 1362.00 1380.43 36.91
4435 26.1580 3.403952 1368.00 1395.58 36.99
4436 26.1630 3.403313 1381.00 1411.58 37.16
4437 26.1680 3.402674 1442.00 1428.40 37.97
4438 26.1730 3.402035 1471.00 1445.99 38.35
4439 26.1780 3.401397 1516.00 1464.26 38.94
4440 26.1830 3.400759 1505.00 1483.08 38.79
4441 26.1880 3.400121 1494.00 1502.28 38.65
4442 26.1930 3.399483 1507.00 1521.65 38.82
4443 26.1980 3.398846 1587.00 1540.93 39.84
4444 26.2030 3.398209 1641.00 1559.77 40.51
4445 26.2080 3.397571 1644.00 1577.82 40.55
4446 26.2130 3.396935 1665.00 1594.60 40.80
4447 26.2180 3.396298 1693.00 1609.63 41.15
4448 26.2230 3.395662 1656.00 1622.34 40.69
4449 26.2280 3.395026 1649.00 1632.17 40.61
4450 26.2330 3.394390 1627.00 1638.55 40.34
4451 26.2380 3.393755 1607.00 1641.02 40.09
4452 26.2430 3.393119 1563.00 1639.25 39.53
4453 26.2480 3.392484 1511.00 1633.16 38.87
4454 26.2530 3.391850 1499.00 1622.94 38.72
4455 26.2580 3.391215 1527.00 1609.08 39.08
4456 26.2630 3.390581 1565.00 1592.29 39.56
4457 26.2680 3.389947 1556.00 1573.48 39.45
4458 26.2730 3.389313 1501.00 1553.56 38.74
4459 26.2780 3.388680 1488.00 1533.45 38.57
4460 26.2830 3.388046 1485.00 1513.93 38.54
4461 26.2880 3.387413 1463.00 1495.59 38.25
4462 26.2930 3.386780 1416.00 1478.93 37.63
4463 26.2980 3.386148 1457.00 1464.25 38.17
4464 26.3030 3.385515 1461.00 1451.79 38.22
4465 26.3080 3.384883 1450.00 1441.64 38.08
4466 26.3130 3.384251 1456.00 1433.85 38.16
4467 26.3180 3.383620 1449.00 1428.41 38.07
4468 26.3230 3.382988 1447.00 1425.26 38.04
4469 26.3280 3.382357 1426.00 1424.34 37.76
4470 26.3330 3.381726 1397.00 1425.55 37.38
4471 26.3380 3.381096 1419.00 1428.79 37.67
4472 26.3430 3.380466 1444.00 1433.96 38.00
4473 26.3480 3.379835 1435.00 1441.20 37.88
4474 26.3530 3.379205 1411.00 1449.93 37.56
4475 26.3580 3.378576 1436.00 1461.86 37.89
4476 26.3630 3.377946 1454.00 1473.60 38.13
4477 26.3680 3.377317 1469.00 1487.07 38.33
4478 26.3730 3.376688 1444.00 1502.00 38.00
4479 26.3780 3.376059 1419.00 1518.38 37.67
4480 26.3830 3.375431 1508.00 1533.14 38.83
4481 26.3880 3.374802 1582.00 1552.42 39.77
4482 26.3930 3.374175 1602.00 1573.16 40.03
4483 26.3980 3.373547 1657.00 1595.40 40.71
4484 26.4030 3.372919 1686.00 1619.21 41.06
4485 26.4080 3.372292 1673.00 1644.65 40.90
4486 26.4130 3.371665 1740.00 1671.79 41.71
4487 26.4180 3.371038 1832.00 1700.73 42.80
4488 26.4230 3.370412 1845.00 1731.59 42.95
4489 26.4280 3.369786 1858.00 1764.43 43.10
4490 26.4330 3.369159 1902.00 1799.38 43.61
4491 26.4380 3.368533 1927.00 1836.55 43.90
4492 26.4430 3.367908 1957.00 1876.01 44.24
4493 26.4480 3.367282 1992.00 1917.89 44.63
4494 26.4530 3.366657 2063.00 1962.19 45.42
4495 26.4580 3.366032 2085.00 2009.03 45.66
4496 26.4630 3.365408 2091.00 2058.35 45.73
4497 26.4680 3.364783 2127.00 2110.15 46.12
4498 26.4730 3.364159 2136.00 2164.28 46.22
4499 26.4780 3.363535 2208.00 2220.65 46.99
4500 26.4830 3.362911 2300.00 2278.96 47.96
4501 26.4880 3.362288 2390.00 2338.85 48.89
4502 26.4930 3.361665 2421.00 2399.95 49.20
4503 26.4980 3.361042 2434.00 2461.61 49.34
4504 26.5030 3.360419 2484.00 2523.16 49.84
4505 26.5080 3.359797 2546.00 2583.68 50.46
4506 26.5130 3.359174 2628.00 2642.21 51.26
4507 26.5180 3.358552 2680.00 2697.49 51.77
4508 26.5230 3.357930 2786.00 2748.18 52.78
4509 26.5280 3.357309 2857.00 2792.70 53.45
4510 26.5330 3.356688 2905.00 2829.44 53.90
4511 26.5380 3.356066 2870.00 2856.70 53.57
4512 26.5430 3.355446 2819.00 2872.89 53.09
4513 26.5480 3.354825 2792.00 2876.69 52.84
4514 26.5530 3.354205 2793.00 2867.32 52.85
4515 26.5580 3.353585 2783.00 2844.65 52.75
4516 26.5630 3.352965 2661.00 2809.46 51.58
4517 26.5680 3.352345 2580.00 2763.32 50.79
4518 26.5730 3.351726 2550.00 2708.46 50.50
4519 26.5780 3.351107 2485.00 2647.63 49.85
4520 26.5830 3.350487 2415.00 2583.59 49.14
4521 26.5880 3.349869 2395.00 2519.03 48.94
4522 26.5930 3.349250 2392.00 2456.13 48.91
4523 26.5980 3.348632 2332.00 2396.79 48.29
4524 26.6030 3.348014 2261.00 2342.33 47.55
4525 26.6080 3.347396 2243.00 2293.79 47.36
4526 26.6130 3.346778 2259.00 2251.72 47.53
4527 26.6180 3.346161 2169.00 2216.53 46.57
4528 26.6230 3.345544 2071.00 2188.40 45.51
4529 26.6280 3.344927 2043.00 2167.31 45.20
4530 26.6330 3.344311 2070.00 2153.22 45.50
4531 26.6380 3.343694 2111.00 2145.92 45.95
4532 26.6430 3.343078 2140.00 2145.21 46.26
4533 26.6480 3.342462 2163.00 2151.29 46.51
4534 26.6530 3.341846 2132.00 2162.92 46.17
4535 26.6580 3.341231 2131.00 2180.26 46.16
4536 26.6630 3.340616 2185.00 2202.97 46.74
4537 26.6680 3.340001 2228.00 2230.68 47.20
4538 26.6730 3.339386 2231.00 2263.01 47.23
4539 26.6780 3.338772 2295.00 2299.49 47.91
4540 26.6830 3.338157 2389.00 2339.71 48.88
4541 26.6880 3.337543 2391.00 2383.06 48.90
4542 26.6930 3.336929 2442.00 2428.95 49.42
4543 26.6980 3.336316 2525.00 2476.65 50.25
4544 26.7030 3.335703 2595.00 2525.33 50.94
4545 26.7080 3.335089 2626.00 2574.04 51.24
4546 26.7130 3.334477 2700.00 2621.62 51.96
4547 26.7180 3.333864 2757.00 2666.81 52.51
4548 26.7230 3.333251 2838.00 2708.13 53.27
4549 26.7280 3.332639 2878.00 2743.96 53.65
4550 26.7330 3.332027 2807.00 2773.09 52.98
4551 26.7380 3.331415 2800.00 2792.38 52.92
4552 26.7430 3.330804 2823.00 2800.55 53.13
4553 26.7480 3.330193 2841.00 2795.84 53.30
4554 26.7530 3.329581 2837.00 2776.86 53.26
4555 26.7580 3.328971 2868.00 2742.86 53.55
4556 26.7630 3.328360 2820.00 2693.82 53.10
4557 26.7680 3.327750 2782.00 2630.74 52.74
4558 26.7730 3.327140 2709.00 2555.41 52.05
4559 26.7780 3.326530 2633.00 2470.43 51.31
4560 26.7830 3.325920 2549.00 2378.58 50.49
4561 26.7880 3.325311 2464.00 2282.78 49.64
4562 26.7930 3.324702 2317.00 2185.81 48.14
4563 26.7980 3.324092 2172.00 2089.81 46.60
4564 26.8030 3.323484 2087.00 1996.69 45.68
4565 26.8080 3.322875 1955.00 1907.73 44.22
4566 26.8130 3.322267 1848.00 1823.96 42.99
4567 26.8180 3.321659 1805.00 1745.88 42.49
4568 26.8230 3.321051 1748.00 1673.80 41.81
4569 26.8280 3.320443 1691.00 1607.88 41.12
4570 26.8330 3.319836 1590.00 1548.02 39.87
4571 26.8380 3.319229 1476.00 1494.00 38.42
4572 26.8430 3.318622 1391.00 1445.52 37.30
4573 26.8480 3.318015 1385.00 1402.25 37.22
4574 26.8530 3.317409 1377.00 1363.28 37.11
4575 26.8580 3.316803 1315.00 1329.17 36.26
4576 26.8630 3.316196 1251.00 1299.01 35.37
4577 26.8680 3.315591 1233.00 1272.83 35.11
4578 26.8730 3.314986 1229.00 1249.32 35.06
4579 26.8780 3.314380 1213.00 1228.53 34.83
4580 26.8830 3.313775 1214.00 1210.14 34.84
4581 26.8880 3.313170 1219.00 1193.84 34.91
4582 26.8930 3.312566 1195.00 1179.33 34.57
4583 26.8980 3.311961 1161.00 1166.37 34.07
4584 26.9030 3.311357 1156.00 1154.76 34.00
4585 26.9080 3.310753 1168.00 1144.29 34.18
4586 26.9130 3.310149 1143.00 1134.82 33.81
4587 26.9180 3.309546 1113.00 1126.20 33.36
4588 26.9230 3.308942 1123.00 1118.32 33.51
4589 26.9280 3.308339 1097.00 1111.09 33.12
4590 26.9330 3.307736 1077.00 1104.43 32.82
4591 26.9380 3.307134 1057.00 1098.26 32.51
4592 26.9430 3.306531 1046.00 1092.55 32.34
4593 26.9480 3.305929 1031.00 1087.22 32.11
4594 26.9530 3.305327 1051.00 1082.25 32.42
4595 26.9580 3.304726 1073.00 1077.60 32.76
4596 26.9630 3.304124 1073.00 1073.25 32.76
4597 26.9680 3.303523 1063.00 1069.16 32.60
4598 26.9730 3.302922 1059.00 1065.31 32.54
4599 26.9780 3.302321 1050.00 1061.68 32.40
4600 26.9830 3.301720 1016.00 1058.27 31.87
4601 26.9880 3.301120 962.00 1055.05 31.02
4602 26.9930 3.300520 945.00 1052.00 30.74
4603 26.9980 3.299920 972.00 1049.12 31.18
4604 27.0030 3.299320 1000.00 1046.37 31.62
4605 27.0080 3.298721 1003.00 1043.79 31.67
4606 27.0130 3.298122 994.00 1041.35 31.53
4607 27.0180 3.297523 1003.00 1039.03 31.67
4608 27.0230 3.296924 992.00 1036.83 31.50
4609 27.0280 3.296325 1005.00 1034.74 31.70
4610 27.0330 3.295727 1050.00 1032.76 32.40
4611 27.0380 3.295129 1047.00 1030.88 32.36
4612 27.0430 3.294531 1012.00 1029.09 31.81
4613 27.0480 3.293933 1018.00 1027.39 31.91
4614 27.0530 3.293336 1021.00 1025.78 31.95
4615 27.0580 3.292738 1002.00 1024.25 31.65
4616 27.0630 3.292142 980.00 1022.79 31.31
4617 27.0680 3.291545 978.00 1021.41 31.27
4618 27.0730 3.290948 987.00 1020.09 31.42
4619 27.0780 3.290352 983.00 1018.85 31.35
4620 27.0830 3.289756 972.00 1017.66 31.18
4621 27.0880 3.289160 985.00 1016.54 31.38
4622 27.0930 3.288564 1001.00 1015.48 31.64
4623 27.0980 3.287969 983.00 1014.48 31.35
4624 27.1030 3.287374 1006.00 1013.53 31.72
4625 27.1080 3.286779 1004.00 1012.63 31.69
4626 27.1130 3.286184 970.00 1011.79 31.14
4627 27.1180 3.285589 973.00 1011.00 31.19
4628 27.1230 3.284995 977.00 1010.25 31.26
4629 27.1280 3.284401 962.00 1009.56 31.02
4630 27.1330 3.283807 965.00 1008.91 31.06
4631 27.1380 3.283213 975.00 1008.31 31.23
4632 27.1430 3.282620 952.00 1007.76 30.85
4633 27.1480 3.282027 938.00 1007.25 30.63
4634 27.1530 3.281434 968.00 1006.79 31.11
4635 27.1580 3.280841 976.00 1006.37 31.24
4636 27.1630 3.280248 959.00 1006.01 30.97
4637 27.1680 3.279656 945.00 1005.69 30.74
4638 27.1730 3.279064 939.00 1005.42 30.64
4639 27.1780 3.278472 961.00 1005.20 31.00
4640 27.1830 3.277880 989.00 1005.04 31.45
4641 27.1880 3.277289 1010.00 1004.93 31.78
4642 27.1930 3.276697 1002.00 1004.87 31.65
4643 27.1980 3.276106 976.00 1004.88 31.24
4644 27.2030 3.275516 977.00 1004.95 31.26
4645 27.2080 3.274925 989.00 1005.08 31.45
4646 27.2130 3.274335 997.00 1005.29 31.58
4647 27.2180 3.273745 1001.00 1005.57 31.64
4648 27.2230 3.273155 981.00 1005.93 31.32
4649 27.2280 3.272565 974.00 1006.38 31.21
4650 27.2330 3.271976 1020.00 1006.91 31.94
4651 27.2380 3.271386 1038.00 1007.54 32.22
4652 27.2430 3.270797 1008.00 1008.27 31.75
4653 27.2480 3.270208 1001.00 1009.10 31.64
4654 27.2530 3.269619 1021.00 1010.05 31.95
4655 27.2580 3.269031 1009.00 1011.10 31.76
4656 27.2630 3.268443 975.00 1012.56 31.23
4657 27.2680 3.267855 971.00 1013.85 31.16
4658 27.2730 3.267267 1010.00 1015.26 31.78
4659 27.2780 3.266680 1048.00 1016.78 32.37
4660 27.2830 3.266093 1008.00 1018.42 31.75
4661 27.2880 3.265506 980.00 1020.18 31.31
4662 27.2930 3.264919 1004.00 1022.06 31.69
4663 27.2980 3.264332 1021.00 1024.06 31.95
4664 27.3030 3.263746 1020.00 1026.18 31.94
4665 27.3080 3.263159 994.00 1028.42 31.53
4666 27.3130 3.262573 957.00 1030.77 30.94
4667 27.3180 3.261987 954.00 1033.25 30.89
4668 27.3230 3.261402 973.00 1035.85 31.19
4669 27.3280 3.260817 967.00 1038.56 31.10
4670 27.3330 3.260231 1014.00 1041.41 31.84
4671 27.3380 3.259646 1057.00 1044.38 32.51
4672 27.3430 3.259062 1060.00 1047.48 32.56
4673 27.3480 3.258477 1097.00 1050.71 33.12
4674 27.3530 3.257893 1098.00 1054.08 33.14
4675 27.3580 3.257309 1091.00 1057.59 33.03
4676 27.3630 3.256725 1112.00 1061.25 33.35
4677 27.3680 3.256141 1085.00 1065.07 32.94
4678 27.3730 3.255558 1033.00 1069.05 32.14
4679 27.3780 3.254975 1028.00 1073.19 32.06
4680 27.3830 3.254392 1059.00 1077.52 32.54
4681 27.3880 3.253809 1057.00 1082.03 32.51
4682 27.3930 3.253226 1039.00 1086.74 32.23
4683 27.3980 3.252644 1036.00 1091.66 32.19
4684 27.4030 3.252062 1046.00 1096.81 32.34
4685 27.4080 3.251480 1054.00 1102.19 32.47
4686 27.4130 3.250898 1078.00 1107.83 32.83
4687 27.4180 3.250317 1119.00 1113.73 33.45
4688 27.4230 3.249736 1145.00 1118.77 33.84
4689 27.4280 3.249155 1136.00 1125.29 33.70
4690 27.4330 3.248574 1114.00 1132.15 33.38
4691 27.4380 3.247993 1068.00 1139.36 32.68
4692 27.4430 3.247412 1060.00 1146.97 32.56
4693 27.4480 3.246832 1114.00 1154.99 33.38
4694 27.4530 3.246253 1145.00 1163.46 33.84
4695 27.4580 3.245673 1146.00 1172.41 33.85
4696 27.4630 3.245093 1153.00 1181.86 33.96
4697 27.4680 3.244514 1204.00 1191.85 34.70
4698 27.4730 3.243935 1248.00 1202.39 35.33
4699 27.4780 3.243356 1258.00 1213.50 35.47
4700 27.4830 3.242777 1261.00 1225.20 35.51
4701 27.4880 3.242198 1245.00 1237.49 35.28
4702 27.4930 3.241620 1261.00 1250.37 35.51
4703 27.4980 3.241042 1289.00 1263.78 35.90
4704 27.5030 3.240464 1327.00 1277.72 36.43
4705 27.5080 3.239887 1334.00 1292.09 36.52
4706 27.5130 3.239309 1293.00 1306.82 35.96
4707 27.5180 3.238732 1279.00 1321.78 35.76
4708 27.5230 3.238155 1321.00 1337.10 36.35
4709 27.5280 3.237578 1360.00 1352.06 36.88
4710 27.5330 3.237001 1350.00 1366.68 36.74
4711 27.5380 3.236425 1377.00 1380.72 37.11
4712 27.5430 3.235849 1397.00 1393.86 37.38
4713 27.5480 3.235273 1401.00 1405.76 37.43
4714 27.5530 3.234697 1416.00 1416.01 37.63
4715 27.5580 3.234122 1401.00 1424.26 37.43
4716 27.5630 3.233546 1402.00 1430.09 37.44
4717 27.5680 3.232971 1404.00 1433.20 37.47
4718 27.5730 3.232396 1399.00 1433.36 37.40
4719 27.5780 3.231822 1407.00 1430.51 37.51
4720 27.5830 3.231247 1439.00 1424.76 37.93
4721 27.5880 3.230673 1447.00 1416.44 38.04
4722 27.5930 3.230099 1399.00 1406.04 37.40
4723 27.5980 3.229525 1357.00 1394.16 36.84
4724 27.6030 3.228951 1391.00 1381.44 37.30
4725 27.6080 3.228378 1408.00 1368.51 37.52
4726 27.6130 3.227805 1372.00 1355.93 37.04
4727 27.6180 3.227232 1375.00 1343.33 37.08
4728 27.6230 3.226659 1359.00 1332.72 36.86
4729 27.6280 3.226086 1319.00 1323.45 36.32
4730 27.6330 3.225514 1289.00 1315.73 35.90
4731 27.6380 3.224942 1249.00 1309.66 35.34
4732 27.6430 3.224370 1233.00 1305.27 35.11
4733 27.6480 3.223798 1250.00 1302.48 35.36
4734 27.6530 3.223227 1264.00 1301.45 35.55
4735 27.6580 3.222655 1278.00 1302.04 35.75
4736 27.6630 3.222084 1292.00 1304.21 35.94
4737 27.6680 3.221513 1278.00 1307.87 35.75
4738 27.6730 3.220942 1230.00 1312.98 35.07
4739 27.6780 3.220372 1205.00 1319.44 34.71
4740 27.6830 3.219801 1232.00 1327.21 35.10
4741 27.6880 3.219231 1295.00 1336.21 35.99
4742 27.6930 3.218662 1338.00 1346.39 36.58
4743 27.6980 3.218092 1346.00 1357.71 36.69
4744 27.7030 3.217523 1349.00 1370.13 36.73
4745 27.7080 3.216953 1320.00 1383.62 36.33
4746 27.7130 3.216384 1307.00 1398.16 36.15
4747 27.7180 3.215815 1350.00 1413.75 36.74
4748 27.7230 3.215247 1414.00 1430.39 37.60
4749 27.7280 3.214678 1440.00 1448.12 37.95
4750 27.7330 3.214110 1450.00 1466.94 38.08
4751 27.7380 3.213542 1412.00 1486.91 37.58
4752 27.7430 3.212974 1405.00 1508.08 37.48
4753 27.7480 3.212407 1414.00 1530.52 37.60
4754 27.7530 3.211839 1454.00 1554.30 38.13
4755 27.7580 3.211272 1516.00 1579.47 38.94
4756 27.7630 3.210705 1559.00 1606.07 39.48
4757 27.7680 3.210138 1537.00 1634.15 39.20
4758 27.7730 3.209572 1541.00 1663.72 39.26
4759 27.7780 3.209005 1575.00 1694.71 39.69
4760 27.7830 3.208439 1610.00 1727.04 40.12
4761 27.7880 3.207873 1676.00 1760.63 40.94
4762 27.7930 3.207308 1716.00 1795.25 41.42
4763 27.7980 3.206742 1791.00 1830.66 42.32
4764 27.8030 3.206177 1885.00 1866.50 43.42
4765 27.8080 3.205611 1908.00 1902.41 43.68
4766 27.8130 3.205047 1877.00 1937.83 43.32
4767 27.8180 3.204482 1918.00 1972.17 43.79
4768 27.8230 3.203917 2023.00 2004.75 44.98
4769 27.8280 3.203353 2076.00 2034.74 45.56
4770 27.8330 3.202789 2116.00 2062.56 46.00
4771 27.8380 3.202225 2132.00 2084.66 46.17
4772 27.8430 3.201661 2139.00 2101.45 46.25
4773 27.8480 3.201098 2133.00 2112.29 46.18
4774 27.8530 3.200535 2128.00 2116.13 46.13
4775 27.8580 3.199972 2093.00 2112.84 45.75
4776 27.8630 3.199409 2042.00 2102.42 45.19
4777 27.8680 3.198846 2033.00 2085.24 45.09
4778 27.8730 3.198284 2007.00 2062.03 44.80
4779 27.8780 3.197721 1986.00 2033.78 44.56
4780 27.8830 3.197159 1994.00 2001.57 44.65
4781 27.8880 3.196597 2046.00 1966.59 45.23
4782 27.8930 3.196036 1958.00 1930.02 44.25
4783 27.8980 3.195474 1870.00 1892.93 43.24
4784 27.9030 3.194913 1835.00 1856.35 42.84
4785 27.9080 3.194352 1761.00 1821.20 41.96
4786 27.9130 3.193791 1635.00 1788.22 40.44
4787 27.9180 3.193231 1567.00 1758.05 39.59
4788 27.9230 3.192670 1580.00 1731.12 39.75
4789 27.9280 3.192110 1601.00 1707.78 40.01
4790 27.9330 3.191550 1545.00 1688.20 39.31
4791 27.9380 3.190990 1524.00 1672.44 39.04
4792 27.9430 3.190430 1559.00 1660.51 39.48
4793 27.9480 3.189871 1578.00 1652.33 39.72
4794 27.9530 3.189312 1579.00 1647.79 39.74
4795 27.9580 3.188753 1564.00 1646.75 39.55
4796 27.9630 3.188194 1603.00 1649.05 40.04
4797 27.9680 3.187635 1642.00 1654.54 40.52
4798 27.9730 3.187077 1615.00 1663.07 40.19
4799 27.9780 3.186519 1618.00 1674.50 40.22
4800 27.9830 3.185961 1654.00 1688.71 40.67
4801 27.9880 3.185403 1653.00 1705.59 40.66
4802 27.9930 3.184845 1670.00 1725.07 40.87
4803 27.9980 3.184288 1695.00 1746.62 41.17
4804 28.0030 3.183731 1723.00 1771.15 41.51
4805 28.0080 3.183174 1791.00 1798.16 42.32
4806 28.0130 3.182617 1866.00 1827.69 43.20
4807 28.0180 3.182060 1858.00 1859.73 43.10
4808 28.0230 3.181504 1839.00 1894.33 42.88
4809 28.0280 3.180948 1900.00 1931.84 43.59
4810 28.0330 3.180392 1906.00 1971.63 43.66
4811 28.0380 3.179836 2006.00 2014.07 44.79
4812 28.0430 3.179280 2106.00 2059.13 45.89
4813 28.0480 3.178725 2165.00 2106.77 46.53
4814 28.0530 3.178170 2186.00 2156.90 46.75
4815 28.0580 3.177614 2249.00 2209.38 47.42
4816 28.0630 3.177060 2331.00 2263.97 48.28
4817 28.0680 3.176505 2434.00 2320.33 49.34
4818 28.0730 3.175951 2496.00 2378.10 49.96
4819 28.0780 3.175397 2522.00 2436.68 50.22
4820 28.0830 3.174843 2540.00 2495.42 50.40
4821 28.0880 3.174289 2682.00 2553.42 51.79
4822 28.0930 3.173735 2743.00 2609.77 52.37
4823 28.0980 3.173182 2847.00 2663.21 53.36
4824 28.1030 3.172629 2929.00 2712.38 54.12
4825 28.1080 3.172076 2978.00 2755.73 54.57
4826 28.1130 3.171523 2972.00 2791.52 54.52
4827 28.1180 3.170970 3060.00 2817.93 55.32
4828 28.1230 3.170418 3054.00 2833.08 55.26
4829 28.1280 3.169866 3016.00 2835.27 54.92
4830 28.1330 3.169314 2922.00 2823.10 54.06
4831 28.1380 3.168762 2838.00 2795.72 53.27
4832 28.1430 3.168210 2772.00 2753.09 52.65
4833 28.1480 3.167659 2669.00 2695.94 51.66
4834 28.1530 3.167108 2618.00 2626.00 51.17
4835 28.1580 3.166557 2512.00 2545.68 50.12
4836 28.1630 3.166006 2458.00 2457.74 49.58
4837 28.1680 3.165455 2320.00 2365.27 48.17
4838 28.1730 3.164905 2189.00 2271.02 46.79
4839 28.1780 3.164355 2129.00 2177.56 46.14
4840 28.1830 3.163804 2035.00 2086.77 45.11
4841 28.1880 3.163255 1931.00 2000.25 43.94
4842 28.1930 3.162705 1927.00 1919.03 43.90
4843 28.1980 3.162155 1848.00 1843.79 42.99
4844 28.2030 3.161606 1742.00 1774.92 41.74
4845 28.2080 3.161057 1671.00 1712.51 40.88
4846 28.2130 3.160508 1667.00 1656.58 40.83
4847 28.2180 3.159960 1566.00 1606.92 39.57
4848 28.2230 3.159411 1507.00 1563.26 38.82
4849 28.2280 3.158863 1469.00 1525.25 38.33
4850 28.2330 3.158315 1407.00 1492.53 37.51
4851 28.2380 3.157767 1353.00 1464.70 36.78
4852 28.2430 3.157219 1351.00 1441.32 36.76
4853 28.2480 3.156672 1376.00 1422.00 37.09
4854 28.2530 3.156125 1417.00 1406.35 37.64
4855 28.2580 3.155578 1379.00 1394.00 37.13
4856 28.2630 3.155030 1386.00 1384.60 37.23
4857 28.2680 3.154484 1376.00 1377.85 37.09
4858 28.2730 3.153937 1349.00 1373.48 36.73
4859 28.2780 3.153391 1261.00 1371.26 35.51
4860 28.2830 3.152845 1270.00 1370.97 35.64
4861 28.2880 3.152299 1298.00 1373.57 36.03
4862 28.2930 3.151753 1332.00 1376.68 36.50
4863 28.2980 3.151208 1317.00 1381.32 36.29
4864 28.3030 3.150663 1350.00 1387.40 36.74
4865 28.3080 3.150117 1355.00 1394.84 36.81
4866 28.3130 3.149573 1377.00 1402.22 37.11
4867 28.3180 3.149028 1357.00 1412.30 36.84
4868 28.3230 3.148483 1333.00 1423.66 36.51
4869 28.3280 3.147939 1372.00 1436.28 37.04
4870 28.3330 3.147395 1387.00 1450.18 37.24
4871 28.3380 3.146851 1466.00 1465.36 38.29
4872 28.3430 3.146307 1536.00 1481.81 39.19
4873 28.3480 3.145763 1536.00 1499.52 39.19
4874 28.3530 3.145220 1592.00 1518.49 39.90
4875 28.3580 3.144677 1600.00 1538.69 40.00
4876 28.3630 3.144134 1600.00 1560.08 40.00
4877 28.3680 3.143591 1633.00 1582.60 40.41
4878 28.3730 3.143049 1642.00 1606.15 40.52
4879 28.3780 3.142506 1680.00 1630.65 40.99
4880 28.3830 3.141964 1700.00 1655.91 41.23
4881 28.3880 3.141422 1717.00 1681.78 41.44
4882 28.3930 3.140880 1727.00 1708.02 41.56
4883 28.3980 3.140338 1701.00 1734.38 41.24
4884 28.4030 3.139797 1709.00 1760.53 41.34
4885 28.4080 3.139256 1792.00 1786.10 42.33
4886 28.4130 3.138715 1834.00 1810.71 42.83
4887 28.4180 3.138174 1877.00 1833.89 43.32
4888 28.4230 3.137633 1902.00 1855.19 43.61
4889 28.4280 3.137092 1961.00 1874.16 44.28
4890 28.4330 3.136552 1985.00 1890.45 44.55
4891 28.4380 3.136012 1971.00 1903.80 44.40
4892 28.4430 3.135472 1945.00 1914.11 44.10
4893 28.4480 3.134932 1887.00 1921.53 43.44
4894 28.4530 3.134393 1874.00 1926.36 43.29
4895 28.4580 3.133853 1897.00 1929.09 43.55
4896 28.4630 3.133314 1914.00 1930.29 43.75
4897 28.4680 3.132775 1965.00 1930.52 44.33
4898 28.4730 3.132237 1969.00 1930.26 44.37
4899 28.4780 3.131698 1982.00 1929.84 44.52
4900 28.4830 3.131160 2032.00 1929.41 45.08
4901 28.4880 3.130621 1978.00 1928.93 44.47
4902 28.4930 3.130084 1955.00 1928.19 44.22
4903 28.4980 3.129546 1955.00 1926.80 44.22
4904 28.5030 3.129008 1902.00 1924.25 43.61
4905 28.5080 3.128471 1881.00 1919.95 43.37
4906 28.5130 3.127933 1888.00 1913.29 43.45
4907 28.5180 3.127396 1869.00 1903.68 43.23
4908 28.5230 3.126859 1815.00 1889.18 42.60
4909 28.5280 3.126323 1823.00 1872.59 42.70
4910 28.5330 3.125786 1780.00 1852.43 42.19
4911 28.5380 3.125250 1736.00 1829.07 41.67
4912 28.5430 3.124714 1701.00 1803.19 41.24
4913 28.5480 3.124178 1701.00 1775.60 41.24
4914 28.5530 3.123642 1690.00 1747.29 41.11
4915 28.5580 3.123107 1599.00 1719.13 39.99
4916 28.5630 3.122571 1580.00 1692.09 39.75
4917 28.5680 3.122036 1603.00 1666.78 40.04
4918 28.5730 3.121501 1598.00 1643.72 39.97
4919 28.5780 3.120967 1627.00 1623.33 40.34
4920 28.5830 3.120432 1610.00 1605.71 40.12
4921 28.5880 3.119898 1567.00 1590.98 39.59
4922 28.5930 3.119363 1594.00 1579.08 39.92
4923 28.5980 3.118829 1571.00 1569.91 39.64
4924 28.6030 3.118295 1609.00 1563.23 40.11
4925 28.6080 3.117762 1568.00 1558.78 39.60
4926 28.6130 3.117228 1608.00 1556.21 40.10
4927 28.6180 3.116695 1657.00 1555.12 40.71
4928 28.6230 3.116162 1583.00 1555.05 39.79
4929 28.6280 3.115629 1613.00 1555.50 40.16
4930 28.6330 3.115097 1640.00 1555.90 40.50
4931 28.6380 3.114564 1603.00 1555.65 40.04
4932 28.6430 3.114032 1597.00 1554.14 39.96
4933 28.6480 3.113500 1579.00 1550.72 39.74
4934 28.6530 3.112968 1543.00 1544.80 39.28
4935 28.6580 3.112436 1562.00 1535.86 39.52
4936 28.6630 3.111904 1553.00 1523.53 39.41
4937 28.6680 3.111373 1462.00 1507.64 38.24
4938 28.6730 3.110842 1449.00 1488.24 38.07
4939 28.6780 3.110311 1409.00 1465.69 37.54
4940 28.6830 3.109780 1335.00 1440.51 36.54
4941 28.6880 3.109249 1304.00 1413.39 36.11
4942 28.6930 3.108719 1339.00 1385.08 36.59
4943 28.6980 3.108189 1398.00 1356.32 37.39
4944 28.7030 3.107659 1375.00 1327.76 37.08
4945 28.7080 3.107129 1292.00 1299.95 35.94
4946 28.7130 3.106599 1295.00 1273.30 35.99
4947 28.7180 3.106069 1238.00 1248.09 35.19
4948 28.7230 3.105540 1231.00 1224.56 35.09
4949 28.7280 3.105011 1257.00 1202.75 35.45
4950 28.7330 3.104482 1252.00 1182.76 35.38
4951 28.7380 3.103953 1209.00 1164.56 34.77
4952 28.7430 3.103425 1207.00 1148.10 34.74
4953 28.7480 3.102896 1145.00 1133.32 33.84
4954 28.7530 3.102368 1069.00 1120.13 32.70
4955 28.7580 3.101840 1105.00 1108.42 33.24
4956 28.7630 3.101312 1083.00 1098.10 32.91
4957 28.7680 3.100785 1092.00 1089.05 33.05
4958 28.7730 3.100257 1034.00 1081.14 32.16
4959 28.7780 3.099730 1049.00 1074.30 32.39
4960 28.7830 3.099203 1062.00 1068.40 32.59
4961 28.7880 3.098676 1085.00 1063.34 32.94
4962 28.7930 3.098149 1063.00 1059.05 32.60
4963 28.7980 3.097623 1055.00 1055.44 32.48
4964 28.8030 3.097096 1103.00 1052.43 33.21
4965 28.8080 3.096570 1073.00 1049.95 32.76
4966 28.8130 3.096044 1068.00 1047.96 32.68
4967 28.8180 3.095518 1089.00 1046.40 33.00
4968 28.8230 3.094993 1072.00 1045.24 32.74
4969 28.8280 3.094467 1025.00 1044.42 32.02
4970 28.8330 3.093942 981.00 1043.96 31.32
4971 28.8380 3.093417 975.00 1043.77 31.23
4972 28.8430 3.092892 1026.00 1043.86 32.03
4973 28.8480 3.092367 1030.00 1044.20 32.09
4974 28.8530 3.091843 1037.00 1044.80 32.20
4975 28.8580 3.091318 990.00 1045.63 31.46
4976 28.8630 3.090794 1031.00 1046.69 32.11
4977 28.8680 3.090270 1048.00 1047.98 32.37
4978 28.8730 3.089747 981.00 1049.48 31.32
4979 28.8780 3.089223 1008.00 1051.20 31.75
4980 28.8830 3.088700 976.00 1053.13 31.24
4981 28.8880 3.088176 1060.00 1055.29 32.56
4982 28.8930 3.087653 1072.00 1057.66 32.74
4983 28.8980 3.087130 1001.00 1060.26 31.64
4984 28.9030 3.086608 1021.00 1063.08 31.95
4985 28.9080 3.086085 1038.00 1066.14 32.22
4986 28.9130 3.085563 1120.00 1069.45 33.47
4987 28.9180 3.085041 1113.00 1073.02 33.36
4988 28.9230 3.084519 1138.00 1076.84 33.73
4989 28.9280 3.083997 1127.00 1080.95 33.57
4990 28.9330 3.083475 1143.00 1085.36 33.81
4991 28.9380 3.082954 1136.00 1090.08 33.70
4992 28.9430 3.082433 1167.00 1095.12 34.16
4993 28.9480 3.081912 1136.00 1100.51 33.70
4994 28.9530 3.081391 1161.00 1106.27 34.07
4995 28.9580 3.080870 1225.00 1112.41 35.00
4996 28.9630 3.080350 1163.00 1118.94 34.10
4997 28.9680 3.079829 1143.00 1125.89 33.81
4998 28.9730 3.079309 1133.00 1133.27 33.66
4999 28.9780 3.078789 1170.00 1141.08 34.21
5000 28.9830 3.078270 1153.00 1149.32 33.96
5001 28.9880 3.077750 1218.00 1157.99 34.90
5002 28.9930 3.077231 1267.00 1167.07 35.59
5003 28.9980 3.076711 1188.00 1176.53 34.47
5004 29.0030 3.076192 1172.00 1186.32 34.23
5005 29.0080 3.075674 1142.00 1196.37 33.79
5006 29.0130 3.075155 1161.00 1206.63 34.07
5007 29.0180 3.074636 1229.00 1216.96 35.06
5008 29.0230 3.074118 1263.00 1227.26 35.54
5009 29.0280 3.073600 1244.00 1237.36 35.27
5010 29.0330 3.073082 1280.00 1247.07 35.78
5011 29.0380 3.072564 1284.00 1256.20 35.83
5012 29.0430 3.072047 1222.00 1264.48 34.96
5013 29.0480 3.071529 1210.00 1271.64 34.79
5014 29.0530 3.071012 1290.00 1277.39 35.92
5015 29.0580 3.070495 1354.00 1281.42 36.80
5016 29.0630 3.069978 1402.00 1283.43 37.44
5017 29.0680 3.069461 1358.00 1283.20 36.85
5018 29.0730 3.068945 1294.00 1280.55 35.97
5019 29.0780 3.068429 1312.00 1275.44 36.22
5020 29.0830 3.067912 1270.00 1267.97 35.64
5021 29.0880 3.067396 1282.00 1258.39 35.81
5022 29.0930 3.066880 1263.00 1247.07 35.54
5023 29.0980 3.066365 1189.00 1234.46 34.48
5024 29.1030 3.065849 1211.00 1221.05 34.80
5025 29.1080 3.065334 1245.00 1207.31 35.28
5026 29.1130 3.064819 1218.00 1193.66 34.90
5027 29.1180 3.064304 1222.00 1180.45 34.96
5028 29.1230 3.063790 1165.00 1167.94 34.13
5029 29.1280 3.063275 1182.00 1156.32 34.38
5030 29.1330 3.062761 1153.00 1145.73 33.96
5031 29.1380 3.062246 1099.00 1136.25 33.15
5032 29.1430 3.061733 1111.00 1127.90 33.33
5033 29.1480 3.061218 1104.00 1120.69 33.23
5034 29.1530 3.060705 1078.00 1114.62 32.83
5035 29.1580 3.060191 1108.00 1109.64 33.29
5036 29.1630 3.059678 1127.00 1105.70 33.57
5037 29.1680 3.059165 1104.00 1102.77 33.23
5038 29.1730 3.058652 1073.00 1100.79 32.76
5039 29.1780 3.058139 1050.00 1099.69 32.40
5040 29.1830 3.057627 1069.00 1099.43 32.70
5041 29.1880 3.057114 1083.00 1099.95 32.91
5042 29.1930 3.056602 1109.00 1101.20 33.30
5043 29.1980 3.056090 1131.00 1103.14 33.63
5044 29.2030 3.055578 1162.00 1105.74 34.09
5045 29.2080 3.055066 1166.00 1108.95 34.15
5046 29.2130 3.054555 1144.00 1112.76 33.82
5047 29.2180 3.054043 1137.00 1117.15 33.72
5048 29.2230 3.053533 1157.00 1122.10 34.01
5049 29.2280 3.053021 1171.00 1127.59 34.22
5050 29.2330 3.052510 1190.00 1133.62 34.50
5051 29.2380 3.052000 1170.00 1140.17 34.21
5052 29.2430 3.051490 1168.00 1147.25 34.18
5053 29.2480 3.050979 1186.00 1154.84 34.44
5054 29.2530 3.050469 1181.00 1162.91 34.37
5055 29.2580 3.049959 1217.00 1171.53 34.89
5056 29.2630 3.049449 1255.00 1180.52 35.43
5057 29.2680 3.048940 1263.00 1189.90 35.54
5058 29.2730 3.048430 1235.00 1199.62 35.14
5059 29.2780 3.047921 1191.00 1209.63 34.51
5060 29.2830 3.047412 1182.00 1219.82 34.38
5061 29.2880 3.046903 1179.00 1230.11 34.34
5062 29.2930 3.046395 1213.00 1240.35 34.83
5063 29.2980 3.045886 1248.00 1250.42 35.33
5064 29.3030 3.045378 1265.00 1260.25 35.57
5065 29.3080 3.044869 1260.00 1269.40 35.50
5066 29.3130 3.044362 1229.00 1277.76 35.06
5067 29.3180 3.043854 1191.00 1285.11 34.51
5068 29.3230 3.043346 1224.00 1291.20 34.99
5069 29.3280 3.042839 1255.00 1295.80 35.43
5070 29.3330 3.042331 1251.00 1298.71 35.37
5071 29.3380 3.041824 1290.00 1299.79 35.92
5072 29.3430 3.041317 1295.00 1299.03 35.99
5073 29.3480 3.040810 1301.00 1296.51 36.07
5074 29.3530 3.040304 1308.00 1292.43 36.17
5075 29.3580 3.039798 1284.00 1287.27 35.83
5076 29.3630 3.039291 1261.00 1280.82 35.51
5077 29.3680 3.038785 1304.00 1274.31 36.11
5078 29.3730 3.038279 1243.00 1267.84 35.26
5079 29.3780 3.037774 1262.00 1261.79 35.52
5080 29.3830 3.037268 1212.00 1256.48 34.81
5081 29.3880 3.036762 1243.00 1252.13 35.26
5082 29.3930 3.036257 1274.00 1248.91 35.69
5083 29.3980 3.035753 1255.00 1246.93 35.43
5084 29.4030 3.035248 1242.00 1246.25 35.24
5085 29.4080 3.034743 1220.00 1246.86 34.93
5086 29.4130 3.034238 1249.00 1248.74 35.34
5087 29.4180 3.033734 1238.00 1251.84 35.19
5088 29.4230 3.033230 1219.00 1256.09 34.91
5089 29.4280 3.032726 1228.00 1261.42 35.04
5090 29.4330 3.032222 1254.00 1267.74 35.41
5091 29.4380 3.031718 1261.00 1274.97 35.51
5092 29.4430 3.031215 1285.00 1283.04 35.85
5093 29.4480 3.030712 1251.00 1291.90 35.37
5094 29.4530 3.030209 1241.00 1301.53 35.23
5095 29.4580 3.029706 1236.00 1311.93 35.16
5096 29.4630 3.029203 1253.00 1323.10 35.40
5097 29.4680 3.028700 1246.00 1335.11 35.30
5098 29.4730 3.028198 1308.00 1347.98 36.17
5099 29.4780 3.027695 1342.00 1361.79 36.63
5100 29.4830 3.027193 1312.00 1376.60 36.22
5101 29.4880 3.026691 1321.00 1392.48 36.35
5102 29.4930 3.026190 1344.00 1409.48 36.66
5103 29.4980 3.025688 1378.00 1427.66 37.12
5104 29.5030 3.025187 1397.00 1447.09 37.38
5105 29.5080 3.024686 1408.00 1467.82 37.52
5106 29.5130 3.024184 1494.00 1489.95 38.65
5107 29.5180 3.023684 1557.00 1513.50 39.46
5108 29.5230 3.023183 1587.00 1538.60 39.84
5109 29.5280 3.022682 1584.00 1565.27 39.80
5110 29.5330 3.022182 1586.00 1593.64 39.82
5111 29.5380 3.021682 1632.00 1623.77 40.40
5112 29.5430 3.021182 1661.00 1655.76 40.76
5113 29.5480 3.020682 1733.00 1689.67 41.63
5114 29.5530 3.020182 1782.00 1725.58 42.21
5115 29.5580 3.019682 1876.00 1763.55 43.31
5116 29.5630 3.019183 1896.00 1803.59 43.54
5117 29.5680 3.018684 1852.00 1845.72 43.03
5118 29.5730 3.018185 1890.00 1889.90 43.47
5119 29.5780 3.017686 1918.00 1936.06 43.79
5120 29.5830 3.017188 1954.00 1984.08 44.20
5121 29.5880 3.016689 2025.00 2033.71 45.00
5122 29.5930 3.016191 2084.00 2084.69 45.65
5123 29.5980 3.015693 2196.00 2136.64 46.86
5124 29.6030 3.015195 2309.00 2189.10 48.05
5125 29.6080 3.014697 2374.00 2241.47 48.72
5126 29.6130 3.014199 2458.00 2293.05 49.58
5127 29.6180 3.013702 2556.00 2342.97 50.56
5128 29.6230 3.013205 2581.00 2390.25 50.80
5129 29.6280 3.012707 2607.00 2433.75 51.06
5130 29.6330 3.012211 2609.00 2472.10 51.08
5131 29.6380 3.011714 2595.00 2503.98 50.94
5132 29.6430 3.011217 2569.00 2527.83 50.69
5133 29.6480 3.010720 2605.00 2542.20 51.04
5134 29.6530 3.010224 2661.00 2545.09 51.58
5135 29.6580 3.009728 2639.00 2536.82 51.37
5136 29.6630 3.009233 2573.00 2516.07 50.72
5137 29.6680 3.008736 2526.00 2482.91 50.26
5138 29.6730 3.008241 2483.00 2438.05 49.83
5139 29.6780 3.007746 2458.00 2382.86 49.58
5140 29.6830 3.007250 2392.00 2318.97 48.91
5141 29.6880 3.006755 2310.00 2249.24 48.06
5142 29.6930 3.006260 2220.00 2175.63 47.12
5143 29.6980 3.005765 2112.00 2100.35 45.96
5144 29.7030 3.005271 2032.00 2025.47 45.08
5145 29.7080 3.004776 1957.00 1952.57 44.24
5146 29.7130 3.004282 1858.00 1882.90 43.10
5147 29.7180 3.003788 1822.00 1817.39 42.68
5148 29.7230 3.003294 1772.00 1756.65 42.10
5149 29.7280 3.002800 1736.00 1701.06 41.67
5150 29.7330 3.002307 1687.00 1650.78 41.07
5151 29.7380 3.001813 1550.00 1605.84 39.37
5152 29.7430 3.001320 1472.00 1566.13 38.37
5153 29.7480 3.000827 1455.00 1531.55 38.14
5154 29.7530 3.000334 1454.00 1503.11 38.13
5155 29.7580 2.999842 1424.00 1477.94 37.74
5156 29.7630 2.999349 1408.00 1457.04 37.52
5157 29.7680 2.998857 1397.00 1440.11 37.38
5158 29.7730 2.998364 1383.00 1426.81 37.19
5159 29.7780 2.997872 1369.00 1416.82 37.00
5160 29.7830 2.997380 1412.00 1409.83 37.58
5161 29.7880 2.996889 1444.00 1405.51 38.00
5162 29.7930 2.996397 1424.00 1403.56 37.74
5163 29.7980 2.995905 1428.00 1403.68 37.79
5164 29.8030 2.995414 1451.00 1405.56 38.09
5165 29.8080 2.994923 1459.00 1408.91 38.20
5166 29.8130 2.994432 1425.00 1413.43 37.75
5167 29.8180 2.993942 1403.00 1418.81 37.46
5168 29.8230 2.993451 1441.00 1424.72 37.96
5169 29.8280 2.992961 1465.00 1430.84 38.28
5170 29.8330 2.992470 1467.00 1436.81 38.30
5171 29.8380 2.991980 1450.00 1442.26 38.08
5172 29.8430 2.991490 1446.00 1446.80 38.03
5173 29.8480 2.991001 1454.00 1450.06 38.13
5174 29.8530 2.990511 1447.00 1451.67 38.04
5175 29.8580 2.990022 1430.00 1451.33 37.82
5176 29.8630 2.989532 1445.00 1448.84 38.01
5177 29.8680 2.989043 1453.00 1444.10 38.12
5178 29.8730 2.988554 1428.00 1439.39 37.79
5179 29.8780 2.988065 1426.00 1430.60 37.76
5180 29.8830 2.987577 1456.00 1420.28 38.16
5181 29.8880 2.987089 1446.00 1408.91 38.03
5182 29.8930 2.986601 1394.00 1397.02 37.34
5183 29.8980 2.986112 1342.00 1385.14 36.63
5184 29.9030 2.985625 1316.00 1373.71 36.28
5185 29.9080 2.985137 1323.00 1363.15 36.37
5186 29.9130 2.984649 1322.00 1353.99 36.36
5187 29.9180 2.984162 1292.00 1345.98 35.94
5188 29.9230 2.983675 1247.00 1340.28 35.31
5189 29.9280 2.983187 1233.00 1335.44 35.11
5190 29.9330 2.982701 1265.00 1332.30 35.57
5191 29.9380 2.982213 1282.00 1330.65 35.81
5192 29.9430 2.981727 1282.00 1329.56 35.81
5193 29.9480 2.981241 1285.00 1331.55 35.85
5194 29.9530 2.980754 1285.00 1335.20 35.85
5195 29.9580 2.980268 1286.00 1340.48 35.86
5196 29.9630 2.979783 1287.00 1347.35 35.87
5197 29.9680 2.979296 1272.00 1355.79 35.67
5198 29.9730 2.978811 1277.00 1365.74 35.74
5199 29.9780 2.978325 1340.00 1377.21 36.61
5200 29.9830 2.977840 1393.00 1390.15 37.32
5201 29.9880 2.977355 1410.00 1404.58 37.55
5202 29.9930 2.976870 1421.00 1420.47 37.70
5203 29.9980 2.976385 1410.00 1437.86 37.55
5204 30.0030 2.975900 1421.00 1456.74 37.70
5205 30.0080 2.975416 1448.00 1477.15 38.05
5206 30.0130 2.974932 1483.00 1499.09 38.51
5207 30.0180 2.974448 1538.00 1522.61 39.22
5208 30.0230 2.973964 1566.00 1547.73 39.57
5209 30.0280 2.973480 1580.00 1574.43 39.75
5210 30.0330 2.972996 1555.00 1602.70 39.43
5211 30.0380 2.972513 1560.00 1632.57 39.50
5212 30.0430 2.972030 1601.00 1663.93 40.01
5213 30.0480 2.971546 1627.00 1696.71 40.34
5214 30.0530 2.971064 1669.00 1730.78 40.85
5215 30.0580 2.970580 1738.00 1765.95 41.69
5216 30.0630 2.970098 1817.00 1801.97 42.63
5217 30.0680 2.969615 1873.00 1838.53 43.28
5218 30.0730 2.969133 1894.00 1875.23 43.52
5219 30.0780 2.968651 1896.00 1911.61 43.54
5220 30.0830 2.968169 1897.00 1947.09 43.55
5221 30.0880 2.967687 1966.00 1980.94 44.34
5222 30.0930 2.967205 2041.00 2012.44 45.18
5223 30.0980 2.966724 2072.00 2040.62 45.52
5224 30.1030 2.966242 2137.00 2064.50 46.23
5225 30.1080 2.965761 2201.00 2082.97 46.91
5226 30.1130 2.965280 2213.00 2094.93 47.04
5227 30.1180 2.964799 2154.00 2099.27 46.41
5228 30.1230 2.964319 2096.00 2095.06 45.78
5229 30.1280 2.963838 2085.00 2081.62 45.66
5230 30.1330 2.963357 2070.00 2058.67 45.50
5231 30.1380 2.962877 2056.00 2026.40 45.34
5232 30.1430 2.962397 2073.00 1985.65 45.53
5233 30.1480 2.961917 2056.00 1937.52 45.34
5234 30.1530 2.961437 1963.00 1883.70 44.31
5235 30.1580 2.960958 1854.00 1825.90 43.06
5236 30.1630 2.960478 1786.00 1765.88 42.26
5237 30.1680 2.959999 1716.00 1705.24 41.42
5238 30.1730 2.959520 1639.00 1645.34 40.48
5239 30.1780 2.959041 1589.00 1587.25 39.86
5240 30.1830 2.958562 1554.00 1531.77 39.42
5241 30.1880 2.958084 1479.00 1479.43 38.46
5242 30.1930 2.957605 1396.00 1430.60 37.36
5243 30.1980 2.957127 1338.00 1385.40 36.58
5244 30.2030 2.956649 1322.00 1343.98 36.36
5245 30.2080 2.956171 1314.00 1306.19 36.25
5246 30.2130 2.955693 1278.00 1271.98 35.75
5247 30.2180 2.955215 1267.00 1241.16 35.59
5248 30.2230 2.954738 1249.00 1213.52 35.34
5249 30.2280 2.954260 1198.00 1188.84 34.61
5250 30.2330 2.953783 1151.00 1166.89 33.93
5251 30.2380 2.953306 1120.00 1147.40 33.47
5252 30.2430 2.952829 1061.00 1130.16 32.57
5253 30.2480 2.952353 1016.00 1114.91 31.87
5254 30.2530 2.951876 997.00 1101.03 31.58
5255 30.2580 2.951399 1004.00 1089.15 31.69
5256 30.2630 2.950923 1016.00 1078.64 31.87
5257 30.2680 2.950447 1045.00 1069.36 32.33
5258 30.2730 2.949971 1058.00 1061.13 32.53
5259 30.2780 2.949496 1062.00 1053.82 32.59
5260 30.2830 2.949020 1065.00 1047.32 32.63
5261 30.2880 2.948545 1057.00 1041.53 32.51
5262 30.2930 2.948069 998.00 1036.36 31.59
5263 30.2980 2.947594 944.00 1031.73 30.72
5264 30.3030 2.947119 950.00 1027.58 30.82
5265 30.3080 2.946644 964.00 1023.86 31.05
5266 30.3130 2.946170 965.00 1020.53 31.06
5267 30.3180 2.945695 985.00 1017.54 31.38
5268 30.3230 2.945221 1004.00 1014.87 31.69
5269 30.3280 2.944746 988.00 1012.49 31.43
5270 30.3330 2.944273 985.00 1010.38 31.38
5271 30.3380 2.943799 994.00 1008.51 31.53
5272 30.3430 2.943325 1015.00 1006.32 31.86
5273 30.3480 2.942852 1014.00 1004.90 31.84
5274 30.3530 2.942378 997.00 1003.67 31.58
5275 30.3580 2.941905 992.00 1002.62 31.50
5276 30.3630 2.941432 1005.00 1001.73 31.70
5277 30.3680 2.940959 1011.00 1000.99 31.80
5278 30.3730 2.940486 980.00 1000.38 31.31
5279 30.3780 2.940014 973.00 999.86 31.19
5280 30.3830 2.939541 974.00 999.43 31.21
5281 30.3880 2.939069 961.00 999.06 31.00
5282 30.3930 2.938597 961.00 998.71 31.00
5283 30.3980 2.938125 971.00 998.36 31.16
5284 30.4030 2.937653 967.00 997.96 31.10
5285 30.4080 2.937181 936.00 997.49 30.59
5286 30.4130 2.936710 946.00 996.90 30.76
5287 30.4180 2.936239 947.00 996.14 30.77
5288 30.4230 2.935767 965.00 995.19 31.06
5289 30.4280 2.935296 982.00 994.02 31.34
5290 30.4330 2.934825 979.00 994.35 31.29
5291 30.4380 2.934355 959.00 992.68 30.97
5292 30.4430 2.933884 957.00 990.77 30.94
5293 30.4480 2.933414 957.00 988.70 30.94
5294 30.4530 2.932944 967.00 986.39 31.10
5295 30.4580 2.932473 948.00 983.97 30.79
5296 30.4630 2.932003 925.00 981.49 30.41
5297 30.4680 2.931534 971.00 979.00 31.16
5298 30.4730 2.931064 1000.00 976.55 31.62
5299 30.4780 2.930594 980.00 974.18 31.31
5300 30.4830 2.930125 956.00 971.92 30.92
5301 30.4880 2.929656 944.00 969.38 30.72
5302 30.4930 2.929187 936.00 967.41 30.59
5303 30.4980 2.928718 920.00 965.61 30.33
5304 30.5030 2.928250 882.00 963.97 29.70
5305 30.5080 2.927781 895.00 962.49 29.92
5306 30.5130 2.927313 923.00 961.18 30.38
5307 30.5180 2.926845 952.00 960.02 30.85
5308 30.5230 2.926376 953.00 959.02 30.87
5309 30.5280 2.925909 958.00 958.16 30.95
5310 30.5330 2.925441 969.00 957.45 31.13
5311 30.5380 2.924973 1000.00 956.86 31.62
5312 30.5430 2.924506 1052.00 956.41 32.43
5313 30.5480 2.924038 1064.00 956.07 32.62
5314 30.5530 2.923571 1053.00 955.84 32.45
5315 30.5580 2.923105 1023.00 955.72 31.98
5316 30.5630 2.922638 1029.00 955.70 32.08
5317 30.5680 2.922171 1042.00 955.78 32.28
5318 30.5730 2.921705 1005.00 955.95 31.70
5319 30.5780 2.921238 973.00 956.20 31.19
5320 30.5830 2.920772 993.00 956.55 31.51
5321 30.5880 2.920306 1002.00 956.97 31.65
5322 30.5930 2.919840 973.00 957.48 31.19
5323 30.5980 2.919374 981.00 958.06 31.32
5324 30.6030 2.918909 1034.00 958.72 32.16
5325 30.6080 2.918443 1051.00 959.44 32.42
5326 30.6130 2.917978 1058.00 960.24 32.53
5327 30.6180 2.917513 1019.00 961.09 31.92
5328 30.6230 2.917048 1004.00 961.99 31.69
5329 30.6280 2.916583 980.00 962.94 31.31
5330 30.6330 2.916118 963.00 963.92 31.03
5331 30.6380 2.915654 964.00 964.92 31.05
5332 30.6430 2.915190 960.00 965.93 30.98
5333 30.6480 2.914725 942.00 966.93 30.69
5334 30.6530 2.914261 933.00 967.89 30.55
5335 30.6580 2.913797 951.00 968.80 30.84
5336 30.6630 2.913333 972.00 969.63 31.18
5337 30.6680 2.912870 970.00 970.34 31.14
5338 30.6730 2.912406 960.00 970.91 30.98
5339 30.6780 2.911943 946.00 971.31 30.76
5340 30.6830 2.911480 940.00 971.50 30.66
5341 30.6880 2.911017 958.00 971.47 30.95
5342 30.6930 2.910554 979.00 971.20 31.29
5343 30.6980 2.910092 995.00 970.68 31.54
5344 30.7030 2.909629 1026.00 969.93 32.03
5345 30.7080 2.909167 1036.00 969.07 32.19
5346 30.7130 2.908705 983.00 967.94 31.35
5347 30.7180 2.908242 972.00 966.70 31.18
5348 30.7230 2.907781 978.00 965.38 31.27
5349 30.7280 2.907319 986.00 964.03 31.40
5350 30.7330 2.906857 979.00 962.70 31.29
5351 30.7380 2.906396 987.00 961.43 31.42
5352 30.7430 2.905935 1022.00 960.23 31.97
5353 30.7480 2.905473 999.00 959.12 31.61
5354 30.7530 2.905012 1022.00 958.12 31.97
5355 30.7580 2.904552 1032.00 957.23 32.12
5356 30.7630 2.904091 1001.00 956.65 31.64
5357 30.7680 2.903630 976.00 955.97 31.24
5358 30.7730 2.903170 965.00 955.39 31.06
5359 30.7780 2.902710 949.00 954.90 30.81
5360 30.7830 2.902249 997.00 954.49 31.58
5361 30.7880 2.901790 1027.00 954.13 32.05
5362 30.7930 2.901330 994.00 954.39 31.53
5363 30.7980 2.900870 930.00 954.11 30.50
5364 30.8030 2.900411 945.00 953.86 30.74
5365 30.8080 2.899951 1007.00 953.62 31.73
5366 30.8130 2.899493 994.00 953.40 31.53
5367 30.8180 2.899033 975.00 953.18 31.23
5368 30.8230 2.898575 948.00 952.99 30.79
5369 30.8280 2.898116 944.00 952.83 30.72
5370 30.8330 2.897657 937.00 952.72 30.61
5371 30.8380 2.897198 946.00 952.65 30.76
5372 30.8430 2.896740 960.00 952.81 30.98
5373 30.8480 2.896282 946.00 952.90 30.76
5374 30.8530 2.895824 935.00 953.08 30.58
5375 30.8580 2.895366 973.00 953.35 31.19
5376 30.8630 2.894909 979.00 953.73 31.29
5377 30.8680 2.894451 956.00 954.22 30.92
5378 30.8730 2.893994 949.00 954.82 30.81
5379 30.8780 2.893537 969.00 955.54 31.13
5380 30.8830 2.893080 970.00 956.38 31.14
5381 30.8880 2.892622 940.00 957.34 30.66
5382 30.8930 2.892166 960.00 958.43 30.98
5383 30.8980 2.891709 1015.00 959.65 31.86
5384 30.9030 2.891253 1038.00 961.00 32.22
5385 30.9080 2.890796 1067.00 962.22 32.67
5386 30.9130 2.890340 1005.00 963.83 31.70
5387 30.9180 2.889884 994.00 965.58 31.53
5388 30.9230 2.889428 994.00 967.47 31.53
5389 30.9280 2.888973 1020.00 969.51 31.94
5390 30.9330 2.888517 1030.00 971.68 32.09
5391 30.9380 2.888062 995.00 974.00 31.54
5392 30.9430 2.887606 982.00 976.47 31.34
5393 30.9480 2.887151 985.00 979.09 31.38
5394 30.9530 2.886696 1022.00 981.87 31.97
5395 30.9580 2.886241 1007.00 984.80 31.73
5396 30.9630 2.885787 970.00 987.91 31.14
5397 30.9680 2.885332 947.00 991.17 30.77
5398 30.9730 2.884878 988.00 994.62 31.43
5399 30.9780 2.884423 1035.00 998.24 32.17
5400 30.9830 2.883970 1048.00 1002.05 32.37
5401 30.9880 2.883516 1032.00 1006.05 32.12
5402 30.9930 2.883062 992.00 1010.26 31.50
5403 30.9980 2.882608 941.00 1014.67 30.68
5404 31.0030 2.882155 937.00 1019.30 30.61
5405 31.0080 2.881701 976.00 1024.15 31.24
5406 31.0130 2.881248 1002.00 1029.24 31.65
5407 31.0180 2.880795 962.00 1034.58 31.02
5408 31.0230 2.880342 993.00 1040.17 31.51
5409 31.0280 2.879889 1033.00 1046.04 32.14
5410 31.0330 2.879437 1052.00 1052.18 32.43
5411 31.0380 2.878984 1058.00 1058.61 32.53
5412 31.0430 2.878532 1067.00 1065.53 32.67
5413 31.0480 2.878080 1098.00 1072.57 33.14
5414 31.0530 2.877628 1118.00 1079.92 33.44
5415 31.0580 2.877176 1092.00 1087.59 33.05
5416 31.0630 2.876724 1074.00 1095.58 32.77
5417 31.0680 2.876272 1049.00 1103.88 32.39
5418 31.0730 2.875821 1105.00 1112.48 33.24
5419 31.0780 2.875370 1099.00 1121.37 33.15
5420 31.0830 2.874919 1066.00 1130.52 32.65
5421 31.0880 2.874468 1069.00 1139.91 32.70
5422 31.0930 2.874017 1109.00 1150.00 33.30
5423 31.0980 2.873566 1162.00 1159.73 34.09
5424 31.1030 2.873116 1152.00 1169.54 33.94
5425 31.1080 2.872665 1202.00 1179.35 34.67
5426 31.1130 2.872215 1255.00 1189.06 35.43
5427 31.1180 2.871765 1255.00 1198.60 35.43
5428 31.1230 2.871315 1203.00 1207.84 34.68
5429 31.1280 2.870865 1155.00 1216.67 33.99
5430 31.1330 2.870416 1186.00 1224.99 34.44
5431 31.1380 2.869966 1222.00 1232.71 34.96
5432 31.1430 2.869517 1243.00 1239.75 35.26
5433 31.1480 2.869067 1259.00 1246.04 35.48
5434 31.1530 2.868618 1284.00 1251.53 35.83
5435 31.1580 2.868169 1262.00 1256.19 35.52
5436 31.1630 2.867721 1252.00 1259.99 35.38
5437 31.1680 2.867272 1262.00 1262.88 35.52
5438 31.1730 2.866823 1277.00 1264.83 35.74
5439 31.1780 2.866375 1308.00 1265.79 36.17
5440 31.1830 2.865927 1320.00 1265.60 36.33
5441 31.1880 2.865479 1326.00 1264.53 36.41
5442 31.1930 2.865031 1325.00 1262.46 36.40
5443 31.1980 2.864583 1391.00 1259.46 37.30
5444 31.2030 2.864136 1400.00 1255.61 37.42
5445 31.2080 2.863688 1371.00 1250.99 37.03
5446 31.2130 2.863241 1380.00 1245.69 37.15
5447 31.2180 2.862794 1402.00 1239.76 37.44
5448 31.2230 2.862347 1375.00 1233.26 37.08
5449 31.2280 2.861899 1290.00 1226.19 35.92
5450 31.2330 2.861453 1208.00 1218.55 34.76
5451 31.2380 2.861006 1187.00 1210.35 34.45
5452 31.2430 2.860560 1184.00 1201.63 34.41
5453 31.2480 2.860114 1161.00 1192.45 34.07
5454 31.2530 2.859667 1154.00 1182.94 33.97
5455 31.2580 2.859221 1139.00 1173.25 33.75
5456 31.2630 2.858775 1154.00 1163.58 33.97
5457 31.2680 2.858330 1178.00 1154.10 34.32
5458 31.2730 2.857884 1172.00 1145.00 34.23
5459 31.2780 2.857439 1164.00 1136.45 34.12
5460 31.2830 2.856993 1141.00 1128.57 33.78
5461 31.2880 2.856548 1145.00 1121.45 33.84
5462 31.2930 2.856103 1160.00 1115.12 34.06
5463 31.2980 2.855658 1178.00 1109.70 34.32
5464 31.3030 2.855214 1134.00 1105.17 33.67
5465 31.3080 2.854769 1137.00 1101.53 33.72
5466 31.3130 2.854324 1145.00 1098.77 33.84
5467 31.3180 2.853880 1165.00 1096.88 34.13
5468 31.3230 2.853436 1189.00 1095.86 34.48
5469 31.3280 2.852992 1179.00 1095.67 34.34
5470 31.3330 2.852548 1132.00 1096.30 33.65
5471 31.3380 2.852104 1075.00 1097.73 32.79
5472 31.3430 2.851661 1075.00 1099.97 32.79
5473 31.3480 2.851217 1067.00 1102.98 32.67
5474 31.3530 2.850774 1123.00 1106.76 33.51
5475 31.3580 2.850331 1159.00 1111.32 34.04
5476 31.3630 2.849888 1154.00 1116.64 33.97
5477 31.3680 2.849445 1164.00 1122.74 34.12
5478 31.3730 2.849002 1175.00 1129.62 34.28
5479 31.3780 2.848560 1199.00 1137.29 34.63
5480 31.3830 2.848117 1203.00 1145.75 34.68
5481 31.3880 2.847675 1231.00 1155.02 35.09
5482 31.3930 2.847233 1231.00 1165.11 35.09
5483 31.3980 2.846791 1207.00 1176.02 34.74
5484 31.4030 2.846349 1195.00 1187.78 34.57
5485 31.4080 2.845907 1226.00 1200.39 35.01
5486 31.4130 2.845466 1269.00 1213.87 35.62
5487 31.4180 2.845024 1316.00 1228.25 36.28
5488 31.4230 2.844583 1373.00 1243.54 37.05
5489 31.4280 2.844142 1360.00 1259.78 36.88
5490 31.4330 2.843701 1324.00 1277.01 36.39
5491 31.4380 2.843260 1305.00 1295.22 36.12
5492 31.4430 2.842819 1344.00 1314.51 36.66
5493 31.4480 2.842379 1387.00 1334.91 37.24
5494 31.4530 2.841938 1380.00 1356.45 37.15
5495 31.4580 2.841498 1367.00 1379.25 36.97
5496 31.4630 2.841058 1384.00 1403.31 37.20
5497 31.4680 2.840618 1402.00 1428.75 37.44
5498 31.4730 2.840178 1441.00 1455.63 37.96
5499 31.4780 2.839738 1517.00 1484.04 38.95
5500 31.4830 2.839298 1593.00 1514.07 39.91
5501 31.4880 2.838859 1676.00 1545.83 40.94
5502 31.4930 2.838420 1674.00 1579.40 40.91
5503 31.4980 2.837981 1664.00 1614.89 40.79
5504 31.5030 2.837541 1725.00 1652.43 41.53
5505 31.5080 2.837103 1775.00 1692.07 42.13
5506 31.5130 2.836664 1815.00 1732.76 42.60
5507 31.5180 2.836225 1881.00 1776.93 43.37
5508 31.5230 2.835787 1919.00 1823.49 43.81
5509 31.5280 2.835348 2001.00 1872.34 44.73
5510 31.5330 2.834910 2027.00 1923.91 45.02
5511 31.5380 2.834472 2064.00 1978.08 45.43
5512 31.5430 2.834034 2146.00 2034.90 46.32
5513 31.5480 2.833596 2174.00 2094.39 46.63
5514 31.5530 2.833159 2181.00 2156.58 46.70
5515 31.5580 2.832721 2203.00 2221.52 46.94
5516 31.5630 2.832284 2307.00 2289.11 48.03
5517 31.5680 2.831847 2401.00 2359.29 49.00
5518 31.5730 2.831410 2409.00 2432.12 49.08
5519 31.5780 2.830973 2530.00 2507.32 50.30
5520 31.5830 2.830536 2732.00 2584.72 52.27
5521 31.5880 2.830100 2758.00 2664.05 52.52
5522 31.5930 2.829663 2748.00 2744.92 52.42
5523 31.5980 2.829227 2788.00 2826.84 52.80
5524 31.6030 2.828791 2860.00 2909.27 53.48
5525 31.6080 2.828354 3023.00 2991.32 54.98
5526 31.6130 2.827918 3152.00 3072.36 56.14
5527 31.6180 2.827483 3288.00 3151.32 57.34
5528 31.6230 2.827047 3338.00 3227.02 57.78
5529 31.6280 2.826612 3403.00 3298.54 58.34
5530 31.6330 2.826176 3412.00 3364.57 58.41
5531 31.6380 2.825741 3414.00 3424.09 58.43
5532 31.6430 2.825306 3455.00 3476.25 58.78
5533 31.6480 2.824871 3550.00 3520.52 59.58
5534 31.6530 2.824436 3547.00 3556.83 59.56
5535 31.6580 2.824001 3602.00 3585.68 60.02
5536 31.6630 2.823567 3591.00 3608.15 59.92
5537 31.6680 2.823133 3595.00 3625.78 59.96
5538 31.6730 2.822698 3639.00 3640.50 60.32
5539 31.6780 2.822264 3687.00 3654.30 60.72
5540 31.6830 2.821830 3706.00 3669.15 60.88
5541 31.6880 2.821396 3730.00 3686.77 61.07
5542 31.6930 2.820962 3753.00 3708.51 61.26
5543 31.6980 2.820529 3772.00 3735.32 61.42
5544 31.7030 2.820096 3776.00 3767.72 61.45
5545 31.7080 2.819662 3780.00 3805.86 61.48
5546 31.7130 2.819229 3812.00 3849.46 61.74
5547 31.7180 2.818796 3892.00 3897.91 62.39
5548 31.7230 2.818363 4006.00 3949.96 63.29
5549 31.7280 2.817930 4033.00 4005.00 63.51
5550 31.7330 2.817498 4117.00 4061.05 64.16
5551 31.7380 2.817065 4172.00 4116.24 64.59
5552 31.7430 2.816633 4169.00 4168.54 64.57
5553 31.7480 2.816201 4269.00 4215.45 65.34
5554 31.7530 2.815769 4305.00 4254.49 65.61
5555 31.7580 2.815337 4266.00 4283.07 65.31
5556 31.7630 2.814905 4211.00 4298.77 64.89
5557 31.7680 2.814473 4183.00 4299.90 64.68
5558 31.7730 2.814042 4259.00 4284.16 65.26
5559 31.7780 2.813611 4273.00 4251.25 65.37
5560 31.7830 2.813179 4181.00 4201.26 64.66
5561 31.7880 2.812748 4095.00 4135.15 63.99
5562 31.7930 2.812317 4028.00 4054.74 63.47
5563 31.7980 2.811886 3927.00 3961.90 62.67
5564 31.8030 2.811456 3850.00 3858.99 62.05
5565 31.8080 2.811025 3721.00 3748.00 61.00
5566 31.8130 2.810595 3589.00 3630.65 59.91
5567 31.8180 2.810165 3414.00 3508.35 58.43
5568 31.8230 2.809735 3320.00 3382.22 57.62
5569 31.8280 2.809304 3216.00 3253.24 56.71
5570 31.8330 2.808875 3066.00 3122.36 55.37
5571 31.8380 2.808445 2865.00 2990.64 53.53
5572 31.8430 2.808015 2705.00 2859.17 52.01
5573 31.8480 2.807586 2595.00 2729.44 50.94
5574 31.8530 2.807157 2531.00 2602.69 50.31
5575 31.8580 2.806728 2414.00 2480.18 49.13
5576 31.8630 2.806298 2276.00 2363.02 47.71
5577 31.8680 2.805870 2195.00 2252.09 46.85
5578 31.8730 2.805441 2090.00 2147.99 45.72
5579 31.8780 2.805012 1992.00 2051.09 44.63
5580 31.8830 2.804584 1922.00 1961.52 43.84
5581 31.8880 2.804155 1831.00 1879.18 42.79
5582 31.8930 2.803727 1761.00 1804.03 41.96
5583 31.8980 2.803299 1701.00 1735.56 41.24
5584 31.9030 2.802871 1633.00 1673.53 40.41
5585 31.9080 2.802443 1562.00 1617.53 39.52
5586 31.9130 2.802016 1505.00 1566.99 38.79
5587 31.9180 2.801588 1540.00 1521.59 39.24
5588 31.9230 2.801161 1537.00 1480.84 39.20
5589 31.9280 2.800733 1423.00 1444.32 37.72
5590 31.9330 2.800306 1419.00 1411.61 37.67
5591 31.9380 2.799879 1418.00 1382.54 37.66
5592 31.9430 2.799452 1396.00 1356.35 37.36
5593 31.9480 2.799026 1365.00 1332.92 36.95
5594 31.9530 2.798599 1330.00 1311.94 36.47
5595 31.9580 2.798173 1307.00 1293.13 36.15
5596 31.9630 2.797746 1297.00 1276.28 36.01
5597 31.9680 2.797320 1243.00 1261.17 35.26
5598 31.9730 2.796894 1277.00 1247.60 35.74
5599 31.9780 2.796468 1303.00 1235.41 36.10
5600 31.9830 2.796042 1282.00 1224.47 35.81
5601 31.9880 2.795617 1265.00 1214.64 35.57
5602 31.9930 2.795191 1257.00 1205.84 35.45
5603 31.9980 2.794766 1225.00 1196.97 35.00
5604 32.0030 2.794341 1212.00 1189.97 34.81
5605 32.0080 2.793916 1172.00 1183.77 34.23
5606 32.0130 2.793491 1175.00 1178.33 34.28
5607 32.0180 2.793066 1165.00 1173.62 34.13
5608 32.0230 2.792641 1169.00 1169.60 34.19
5609 32.0280 2.792217 1188.00 1166.26 34.47
5610 32.0330 2.791792 1125.00 1163.58 33.54
5611 32.0380 2.791368 1098.00 1161.56 33.14
5612 32.0430 2.790944 1114.00 1160.20 33.38
5613 32.0480 2.790520 1139.00 1159.51 33.75
5614 32.0530 2.790096 1131.00 1159.50 33.63
5615 32.0580 2.789672 1154.00 1160.18 33.97
5616 32.0630 2.789249 1160.00 1161.57 34.06
5617 32.0680 2.788825 1152.00 1163.75 33.94
5618 32.0730 2.788402 1182.00 1166.64 34.38
5619 32.0780 2.787979 1182.00 1170.32 34.38
5620 32.0830 2.787555 1211.00 1174.81 34.80
5621 32.0880 2.787132 1182.00 1180.14 34.38
5622 32.0930 2.786710 1169.00 1186.32 34.19
5623 32.0980 2.786287 1193.00 1193.40 34.54
5624 32.1030 2.785864 1228.00 1201.37 35.04
5625 32.1080 2.785442 1218.00 1210.27 34.90
5626 32.1130 2.785020 1222.00 1220.10 34.96
5627 32.1180 2.784597 1239.00 1230.85 35.20
5628 32.1230 2.784175 1250.00 1242.56 35.36
5629 32.1280 2.783754 1245.00 1255.23 35.28
5630 32.1330 2.783332 1246.00 1268.85 35.30
5631 32.1380 2.782910 1202.00 1283.41 34.67
5632 32.1430 2.782489 1278.00 1298.97 35.75
5633 32.1480 2.782068 1320.00 1315.49 36.33
5634 32.1530 2.781646 1348.00 1332.99 36.72
5635 32.1580 2.781225 1406.00 1351.52 37.50
5636 32.1630 2.780804 1442.00 1371.06 37.97
5637 32.1680 2.780384 1451.00 1391.66 38.09
5638 32.1730 2.779963 1489.00 1413.32 38.59
5639 32.1780 2.779542 1489.00 1436.10 38.59
5640 32.1830 2.779122 1487.00 1460.37 38.56
5641 32.1880 2.778702 1516.00 1485.55 38.94
5642 32.1930 2.778281 1544.00 1511.99 39.29
5643 32.1980 2.777861 1580.00 1539.92 39.75
5644 32.2030 2.777442 1546.00 1569.19 39.32
5645 32.2080 2.777022 1619.00 1600.01 40.24
5646 32.2130 2.776602 1618.00 1632.48 40.22
5647 32.2180 2.776183 1649.00 1666.69 40.61
5648 32.2230 2.775763 1679.00 1702.80 40.98
5649 32.2280 2.775344 1740.00 1740.82 41.71
5650 32.2330 2.774925 1808.00 1780.95 42.52
5651 32.2380 2.774506 1861.00 1823.28 43.14
5652 32.2430 2.774087 1880.00 1867.80 43.36
5653 32.2480 2.773668 1975.00 1914.71 44.44
5654 32.2530 2.773250 2016.00 1963.95 44.90
5655 32.2580 2.772831 1994.00 2015.56 44.65
5656 32.2630 2.772413 2115.00 2069.50 45.99
5657 32.2680 2.771995 2179.00 2125.69 46.68
5658 32.2730 2.771577 2221.00 2183.99 47.13
5659 32.2780 2.771159 2323.00 2244.18 48.20
5660 32.2830 2.770741 2431.00 2305.96 49.31
5661 32.2880 2.770323 2411.00 2368.94 49.10
5662 32.2930 2.769906 2589.00 2432.65 50.88
5663 32.2980 2.769488 2642.00 2496.36 51.40
5664 32.3030 2.769071 2762.00 2559.47 52.55
5665 32.3080 2.768654 2868.00 2620.96 53.55
5666 32.3130 2.768237 2860.00 2679.77 53.48
5667 32.3180 2.767820 2885.00 2734.75 53.71
5668 32.3230 2.767403 2947.00 2784.46 54.29
5669 32.3280 2.766987 2913.00 2827.37 53.97
5670 32.3330 2.766570 2982.00 2861.81 54.61
5671 32.3380 2.766154 2941.00 2886.05 54.23
5672 32.3430 2.765738 2924.00 2898.45 54.07
5673 32.3480 2.765322 2903.00 2897.53 53.88
5674 32.3530 2.764906 2874.00 2882.22 53.61
5675 32.3580 2.764490 2915.00 2851.94 53.99
5676 32.3630 2.764074 2936.00 2806.91 54.18
5677 32.3680 2.763659 2875.00 2748.09 53.62
5678 32.3730 2.763243 2738.00 2677.02 52.33
5679 32.3780 2.762828 2566.00 2596.04 50.66
5680 32.3830 2.762413 2413.00 2507.65 49.12
5681 32.3880 2.761997 2313.00 2414.69 48.09
5682 32.3930 2.761583 2228.00 2319.51 47.20
5683 32.3980 2.761168 2175.00 2224.37 46.64
5684 32.4030 2.760753 2032.00 2131.32 45.08
5685 32.4080 2.760339 1907.00 2041.61 43.67
5686 32.4130 2.759925 1908.00 1956.33 43.68
5687 32.4180 2.759510 1850.00 1876.34 43.01
5688 32.4230 2.759096 1728.00 1802.07 41.57
5689 32.4280 2.758682 1647.00 1733.63 40.58
5690 32.4330 2.758268 1648.00 1671.23 40.60
5691 32.4380 2.757854 1634.00 1614.73 40.42
5692 32.4430 2.757441 1561.00 1564.04 39.51
5693 32.4480 2.757027 1528.00 1518.83 39.09
5694 32.4530 2.756614 1514.00 1478.83 38.91
5695 32.4580 2.756201 1497.00 1443.80 38.69
5696 32.4630 2.755788 1419.00 1413.33 37.67
5697 32.4680 2.755375 1389.00 1387.09 37.27
5698 32.4730 2.754962 1390.00 1364.77 37.28
5699 32.4780 2.754549 1309.00 1346.02 36.18
5700 32.4830 2.754136 1321.00 1330.73 36.35
5701 32.4880 2.753724 1325.00 1318.19 36.40
5702 32.4930 2.753312 1315.00 1308.33 36.26
5703 32.4980 2.752899 1331.00 1300.91 36.48
5704 32.5030 2.752488 1354.00 1295.71 36.80
5705 32.5080 2.752076 1345.00 1292.52 36.67
5706 32.5130 2.751664 1352.00 1291.18 36.77
5707 32.5180 2.751252 1339.00 1291.53 36.59
5708 32.5230 2.750840 1322.00 1293.48 36.36
5709 32.5280 2.750429 1324.00 1296.88 36.39
5710 32.5330 2.750018 1290.00 1301.67 35.92
5711 32.5380 2.749607 1328.00 1307.78 36.44
5712 32.5430 2.749196 1308.00 1315.15 36.17
5713 32.5480 2.748785 1317.00 1323.74 36.29
5714 32.5530 2.748374 1381.00 1333.51 37.16
5715 32.5580 2.747963 1388.00 1344.44 37.26
5716 32.5630 2.747553 1360.00 1356.52 36.88
5717 32.5680 2.747142 1359.00 1369.72 36.86
5718 32.5730 2.746732 1433.00 1384.04 37.85
5719 32.5780 2.746322 1440.00 1399.48 37.95
5720 32.5830 2.745912 1417.00 1415.96 37.64
5721 32.5880 2.745502 1403.00 1433.57 37.46
5722 32.5930 2.745092 1368.00 1452.24 36.99
5723 32.5980 2.744683 1394.00 1471.93 37.34
5724 32.6030 2.744273 1467.00 1492.63 38.30
5725 32.6080 2.743863 1487.00 1514.27 38.56
5726 32.6130 2.743454 1525.00 1536.79 39.05
5727 32.6180 2.743045 1580.00 1560.11 39.75
5728 32.6230 2.742636 1620.00 1584.14 40.25
5729 32.6280 2.742227 1630.00 1608.77 40.37
5730 32.6330 2.741819 1669.00 1633.85 40.85
5731 32.6380 2.741410 1616.00 1659.22 40.20
5732 32.6430 2.741001 1598.00 1684.80 39.97
5733 32.6480 2.740593 1682.00 1710.38 41.01
5734 32.6530 2.740185 1741.00 1735.82 41.73
5735 32.6580 2.739777 1814.00 1761.01 42.59
5736 32.6630 2.739369 1761.00 1785.73 41.96
5737 32.6680 2.738961 1760.00 1809.81 41.95
5738 32.6730 2.738553 1756.00 1833.01 41.90
5739 32.6780 2.738146 1774.00 1855.03 42.12
5740 32.6830 2.737738 1798.00 1875.54 42.40
5741 32.6880 2.737331 1824.00 1894.11 42.71
5742 32.6930 2.736923 1849.00 1910.28 43.00
5743 32.6980 2.736516 1836.00 1923.61 42.85
5744 32.7030 2.736109 1860.00 1933.59 43.13
5745 32.7080 2.735703 1872.00 1939.76 43.27
5746 32.7130 2.735296 1859.00 1941.72 43.12
5747 32.7180 2.734890 1846.00 1939.13 42.97
5748 32.7230 2.734483 1843.00 1931.76 42.93
5749 32.7280 2.734076 1863.00 1920.16 43.16
5750 32.7330 2.733670 1860.00 1903.12 43.13
5751 32.7380 2.733264 1908.00 1881.50 43.68
5752 32.7430 2.732858 1985.00 1855.80 44.55
5753 32.7480 2.732452 1954.00 1826.58 44.20
5754 32.7530 2.732047 1873.00 1794.55 43.28
5755 32.7580 2.731641 1845.00 1760.53 42.95
5756 32.7630 2.731236 1764.00 1725.29 42.00
5757 32.7680 2.730830 1682.00 1689.44 41.01
5758 32.7730 2.730425 1739.00 1653.61 41.70
5759 32.7780 2.730020 1696.00 1618.24 41.18
5760 32.7830 2.729615 1574.00 1583.69 39.67
5761 32.7880 2.729210 1527.00 1550.36 39.08
5762 32.7930 2.728806 1521.00 1518.23 39.00
5763 32.7980 2.728401 1429.00 1487.68 37.80
5764 32.8030 2.727997 1413.00 1458.86 37.59
5765 32.8080 2.727592 1388.00 1431.94 37.26
5766 32.8130 2.727188 1319.00 1407.31 36.32
5767 32.8180 2.726784 1299.00 1384.73 36.04
5768 32.8230 2.726380 1324.00 1364.42 36.39
5769 32.8280 2.725976 1321.00 1346.49 36.35
5770 32.8330 2.725572 1311.00 1330.94 36.21
5771 32.8380 2.725169 1318.00 1317.74 36.30
5772 32.8430 2.724766 1337.00 1308.31 36.56
5773 32.8480 2.724362 1314.00 1299.64 36.25
5774 32.8530 2.723959 1294.00 1293.12 35.97
5775 32.8580 2.723556 1274.00 1288.65 35.69
5776 32.8630 2.723153 1294.00 1286.14 35.97
5777 32.8680 2.722750 1326.00 1285.49 36.41
5778 32.8730 2.722347 1350.00 1286.61 36.74
5779 32.8780 2.721945 1357.00 1289.43 36.84
5780 32.8830 2.721542 1357.00 1293.87 36.84
5781 32.8880 2.721140 1347.00 1299.84 36.70
5782 32.8930 2.720737 1311.00 1307.29 36.21
5783 32.8980 2.720336 1351.00 1316.16 36.76
5784 32.9030 2.719934 1382.00 1326.40 37.18
5785 32.9080 2.719532 1400.00 1337.93 37.42
5786 32.9130 2.719130 1413.00 1350.73 37.59
5787 32.9180 2.718728 1389.00 1364.72 37.27
5788 32.9230 2.718327 1338.00 1379.83 36.58
5789 32.9280 2.717926 1358.00 1396.02 36.85
5790 32.9330 2.717524 1380.00 1413.20 37.15
5791 32.9380 2.717123 1407.00 1431.26 37.51
5792 32.9430 2.716722 1471.00 1450.10 38.35
5793 32.9480 2.716321 1523.00 1469.59 39.03
5794 32.9530 2.715921 1548.00 1489.56 39.34
5795 32.9580 2.715520 1590.00 1509.83 39.87
5796 32.9630 2.715120 1549.00 1530.18 39.36
5797 32.9680 2.714720 1534.00 1550.36 39.17
5798 32.9730 2.714319 1596.00 1570.08 39.95
5799 32.9780 2.713919 1622.00 1589.03 40.27
5800 32.9830 2.713519 1651.00 1606.95 40.63
5801 32.9880 2.713119 1709.00 1623.48 41.34
5802 32.9930 2.712719 1711.00 1638.48 41.36
5803 32.9980 2.712320 1711.00 1651.42 41.36
5804 33.0030 2.711920 1740.00 1662.20 41.71
5805 33.0080 2.711521 1784.00 1670.62 42.24
5806 33.0130 2.711122 1773.00 1676.48 42.11
5807 33.0180 2.710722 1744.00 1679.62 41.76
5808 33.0230 2.710324 1711.00 1679.84 41.36
5809 33.0280 2.709925 1656.00 1676.91 40.69
5810 33.0330 2.709526 1685.00 1670.64 41.05
5811 33.0380 2.709127 1667.00 1660.80 40.83
5812 33.0430 2.708729 1628.00 1647.36 40.35
5813 33.0480 2.708330 1600.00 1630.30 40.00
5814 33.0530 2.707932 1544.00 1609.78 39.29
5815 33.0580 2.707534 1543.00 1586.19 39.28
5816 33.0630 2.707136 1585.00 1560.03 39.81
5817 33.0680 2.706738 1559.00 1532.09 39.48
5818 33.0730 2.706340 1546.00 1502.79 39.32
5819 33.0780 2.705943 1461.00 1472.92 38.22
5820 33.0830 2.705545 1393.00 1443.14 37.32
5821 33.0880 2.705147 1361.00 1413.79 36.89
5822 33.0930 2.704750 1310.00 1385.50 36.19
5823 33.0980 2.704353 1296.00 1358.46 36.00
5824 33.1030 2.703956 1273.00 1332.81 35.68
5825 33.1080 2.703559 1239.00 1308.56 35.20
5826 33.1130 2.703162 1232.00 1285.74 35.10
5827 33.1180 2.702765 1216.00 1264.26 34.87
5828 33.1230 2.702369 1217.00 1243.99 34.89
5829 33.1280 2.701973 1201.00 1224.81 34.66
5830 33.1330 2.701576 1184.00 1206.56 34.41
5831 33.1380 2.701180 1172.00 1189.15 34.23
5832 33.1430 2.700784 1118.00 1172.44 33.44
5833 33.1480 2.700388 1116.00 1156.24 33.41
5834 33.1530 2.699992 1140.00 1140.81 33.76
5835 33.1580 2.699596 1121.00 1125.99 33.48
5836 33.1630 2.699201 1098.00 1112.34 33.14
5837 33.1680 2.698805 1114.00 1098.87 33.38
5838 33.1730 2.698410 1118.00 1086.12 33.44
5839 33.1780 2.698014 1066.00 1074.12 32.65
5840 33.1830 2.697620 1056.00 1062.88 32.50
5841 33.1880 2.697225 1078.00 1052.40 32.83
5842 33.1930 2.696830 1056.00 1042.68 32.50
5843 33.1980 2.696435 1052.00 1033.69 32.43
5844 33.2030 2.696041 996.00 1025.39 31.56
5845 33.2080 2.695646 949.00 1017.77 30.81
5846 33.2130 2.695251 947.00 1010.76 30.77
5847 33.2180 2.694858 981.00 1004.34 31.32
5848 33.2230 2.694463 1052.00 998.47 32.43
5849 33.2280 2.694069 1065.00 993.10 32.63
5850 33.2330 2.693675 1044.00 988.20 32.31
5851 33.2380 2.693282 1029.00 983.73 32.08
5852 33.2430 2.692888 972.00 979.66 31.18
5853 33.2480 2.692494 975.00 975.94 31.23
5854 33.2530 2.692101 970.00 972.55 31.14
5855 33.2580 2.691708 991.00 969.47 31.48
5856 33.2630 2.691314 976.00 966.66 31.24
5857 33.2680 2.690921 965.00 964.10 31.06
5858 33.2730 2.690528 963.00 961.77 31.03
5859 33.2780 2.690135 986.00 959.65 31.40
5860 33.2830 2.689743 948.00 958.37 30.79
5861 33.2880 2.689350 928.00 956.62 30.46
5862 33.2930 2.688958 930.00 955.02 30.50
5863 33.2980 2.688565 946.00 953.58 30.76
5864 33.3030 2.688173 970.00 952.27 31.14
5865 33.3080 2.687781 985.00 951.09 31.38
5866 33.3130 2.687389 974.00 950.04 31.21
5867 33.3180 2.686997 928.00 949.10 30.46
5868 33.3230 2.686605 891.00 948.28 29.85
5869 33.3280 2.686214 883.00 947.55 29.72
5870 33.3330 2.685822 874.00 946.94 29.56
5871 33.3380 2.685431 895.00 946.42 29.92
5872 33.3430 2.685040 937.00 946.00 30.61
5873 33.3480 2.684648 933.00 945.67 30.55
5874 33.3530 2.684258 929.00 945.43 30.48
5875 33.3580 2.683867 958.00 945.29 30.95
5876 33.3630 2.683476 951.00 945.24 30.84
5877 33.3680 2.683085 965.00 945.28 31.06
5878 33.3730 2.682694 992.00 945.42 31.50
5879 33.3780 2.682304 990.00 945.64 31.46
5880 33.3830 2.681914 1008.00 945.95 31.75
5881 33.3880 2.681524 995.00 946.36 31.54
5882 33.3930 2.681133 952.00 946.86 30.85
5883 33.3980 2.680743 911.00 947.47 30.18
5884 33.4030 2.680354 894.00 948.17 29.90
5885 33.4080 2.679964 930.00 948.97 30.50
5886 33.4130 2.679574 945.00 949.89 30.74
5887 33.4180 2.679185 955.00 950.92 30.90
5888 33.4230 2.678795 934.00 952.07 30.56
5889 33.4280 2.678406 908.00 953.34 30.13
5890 33.4330 2.678017 946.00 954.75 30.76
5891 33.4380 2.677628 930.00 956.30 30.50
5892 33.4430 2.677239 928.00 958.01 30.46
5893 33.4480 2.676850 907.00 959.87 30.12
5894 33.4530 2.676462 951.00 961.90 30.84
5895 33.4580 2.676073 954.00 964.11 30.89
5896 33.4630 2.675685 962.00 966.52 31.02
5897 33.4680 2.675297 955.00 969.13 30.90
5898 33.4730 2.674908 949.00 971.92 30.81
5899 33.4780 2.674520 982.00 974.97 31.34
5900 33.4830 2.674132 983.00 978.26 31.35
5901 33.4880 2.673744 973.00 981.79 31.19
5902 33.4930 2.673357 965.00 985.67 31.06
5903 33.4980 2.672969 935.00 989.70 30.58
5904 33.5030 2.672582 955.00 993.99 30.90
5905 33.5080 2.672194 993.00 998.53 31.51
5906 33.5130 2.671807 1025.00 1003.61 32.02
5907 33.5180 2.671420 1048.00 1009.28 32.37
5908 33.5230 2.671033 1062.00 1014.55 32.59
5909 33.5280 2.670646 1082.00 1020.04 32.89
5910 33.5330 2.670259 1086.00 1025.72 32.95
5911 33.5380 2.669873 1094.00 1031.58 33.08
5912 33.5430 2.669486 1051.00 1037.59 32.42
5913 33.5480 2.669100 1028.00 1043.70 32.06
5914 33.5530 2.668713 998.00 1049.90 31.59
5915 33.5580 2.668327 1040.00 1056.14 32.25
5916 33.5630 2.667941 1050.00 1062.38 32.40
5917 33.5680 2.667555 1079.00 1068.60 32.85
5918 33.5730 2.667169 1081.00 1073.55 32.88
5919 33.5780 2.666784 1068.00 1079.63 32.68
5920 33.5830 2.666398 1059.00 1085.61 32.54
5921 33.5880 2.666012 1090.00 1091.51 33.02
5922 33.5930 2.665627 1119.00 1097.38 33.45
5923 33.5980 2.665241 1105.00 1103.26 33.24
5924 33.6030 2.664856 1096.00 1109.22 33.11
5925 33.6080 2.664471 1082.00 1115.37 32.89
5926 33.6130 2.664086 1061.00 1121.81 32.57
5927 33.6180 2.663702 1073.00 1128.61 32.76
5928 33.6230 2.663317 1159.00 1135.89 34.04
5929 33.6280 2.662933 1185.00 1143.71 34.42
5930 33.6330 2.662548 1161.00 1152.14 34.07
5931 33.6380 2.662164 1150.00 1161.23 33.91
5932 33.6430 2.661779 1116.00 1171.01 33.41
5933 33.6480 2.661395 1157.00 1181.50 34.01
5934 33.6530 2.661011 1170.00 1192.68 34.21
5935 33.6580 2.660627 1230.00 1204.56 35.07
5936 33.6630 2.660244 1236.00 1217.09 35.16
5937 33.6680 2.659860 1259.00 1230.20 35.48
5938 33.6730 2.659477 1259.00 1243.82 35.48
5939 33.6780 2.659093 1303.00 1257.87 36.10
5940 33.6830 2.658710 1283.00 1272.19 35.82
5941 33.6880 2.658327 1313.00 1286.64 36.24
5942 33.6930 2.657944 1325.00 1301.42 36.40
5943 33.6980 2.657561 1291.00 1313.57 35.93
5944 33.7030 2.657178 1351.00 1327.18 36.76
5945 33.7080 2.656795 1398.00 1339.96 37.39
5946 33.7130 2.656413 1341.00 1351.62 36.62
5947 33.7180 2.656030 1344.00 1361.81 36.66
5948 33.7230 2.655648 1328.00 1370.16 36.44
5949 33.7280 2.655265 1337.00 1376.32 36.56
5950 33.7330 2.654883 1355.00 1380.06 36.81
5951 33.7380 2.654501 1332.00 1380.90 36.50
5952 33.7430 2.654119 1294.00 1378.76 35.97
5953 33.7480 2.653738 1296.00 1373.37 36.00
5954 33.7530 2.653356 1287.00 1365.29 35.87
5955 33.7580 2.652974 1300.00 1353.83 36.06
5956 33.7630 2.652593 1331.00 1340.85 36.48
5957 33.7680 2.652211 1241.00 1326.11 35.23
5958 33.7730 2.651830 1190.00 1310.17 34.50
5959 33.7780 2.651449 1161.00 1293.61 34.07
5960 33.7830 2.651068 1147.00 1276.93 33.87
5961 33.7880 2.650687 1140.00 1260.59 33.76
5962 33.7930 2.650307 1180.00 1244.98 34.35
5963 33.7980 2.649926 1224.00 1230.37 34.99
5964 33.8030 2.649545 1249.00 1216.99 35.34
5965 33.8080 2.649165 1272.00 1204.97 35.67
5966 33.8130 2.648785 1218.00 1194.42 34.90
5967 33.8180 2.648404 1182.00 1185.38 34.38
5968 33.8230 2.648024 1162.00 1177.85 34.09
5969 33.8280 2.647645 1174.00 1171.83 34.26
5970 33.8330 2.647265 1158.00 1167.26 34.03
5971 33.8380 2.646885 1160.00 1164.09 34.06
5972 33.8430 2.646505 1182.00 1162.22 34.38
5973 33.8480 2.646126 1193.00 1161.58 34.54
5974 33.8530 2.645746 1201.00 1162.05 34.66
5975 33.8580 2.645367 1198.00 1163.51 34.61
5976 33.8630 2.644988 1157.00 1165.84 34.01
5977 33.8680 2.644609 1151.00 1168.90 33.93
5978 33.8730 2.644230 1143.00 1172.53 33.81
5979 33.8780 2.643851 1213.00 1176.58 34.83
5980 33.8830 2.643473 1207.00 1180.87 34.74
5981 33.8880 2.643094 1180.00 1185.21 34.35
5982 33.8930 2.642715 1195.00 1189.41 34.57
5983 33.8980 2.642337 1225.00 1193.28 35.00
5984 33.9030 2.641959 1230.00 1196.58 35.07
5985 33.9080 2.641581 1244.00 1199.13 35.27
5986 33.9130 2.641203 1229.00 1200.74 35.06
5987 33.9180 2.640825 1222.00 1201.24 34.96
5988 33.9230 2.640447 1220.00 1200.53 34.93
5989 33.9280 2.640069 1168.00 1198.56 34.18
5990 33.9330 2.639692 1165.00 1195.37 34.13
5991 33.9380 2.639314 1161.00 1191.07 34.07
5992 33.9430 2.638937 1146.00 1185.85 33.85
5993 33.9480 2.638559 1171.00 1179.94 34.22
5994 33.9530 2.638182 1193.00 1173.61 34.54
5995 33.9580 2.637805 1166.00 1167.14 34.15
5996 33.9630 2.637429 1131.00 1160.78 33.63
5997 33.9680 2.637052 1112.00 1154.76 33.35
5998 33.9730 2.636675 1113.00 1149.26 33.36
5999 33.9780 2.636298 1141.00 1144.43 33.78
6000 33.9830 2.635922 1158.00 1140.36 34.03
6001 33.9880 2.635546 1141.00 1137.14 33.78
6002 33.9930 2.635170 1133.00 1134.79 33.66
6003 33.9980 2.634793 1145.00 1133.34 33.84
6004 34.0030 2.634418 1136.00 1132.77 33.70
6005 34.0080 2.634042 1125.00 1133.07 33.54
6006 34.0130 2.633666 1109.00 1134.21 33.30
6007 34.0180 2.633290 1115.00 1136.13 33.39
6008 34.0230 2.632915 1122.00 1138.78 33.50
6009 34.0280 2.632539 1147.00 1142.11 33.87
6010 34.0330 2.632164 1164.00 1146.05 34.12
6011 34.0380 2.631789 1178.00 1150.53 34.32
6012 34.0430 2.631413 1186.00 1155.50 34.44
6013 34.0480 2.631038 1189.00 1160.89 34.48
6014 34.0530 2.630663 1189.00 1166.67 34.48
6015 34.0580 2.630289 1188.00 1172.79 34.47
6016 34.0630 2.629914 1189.00 1179.25 34.48
6017 34.0680 2.629539 1210.00 1186.04 34.79
6018 34.0730 2.629165 1233.00 1193.20 35.11
6019 34.0780 2.628791 1214.00 1200.75 34.84
6020 34.0830 2.628417 1228.00 1208.74 35.04
6021 34.0880 2.628042 1261.00 1217.19 35.51
6022 34.0930 2.627669 1285.00 1226.15 35.85
6023 34.0980 2.627295 1282.00 1235.61 35.81
6024 34.1030 2.626921 1279.00 1245.56 35.76
6025 34.1080 2.626547 1287.00 1255.97 35.87
6026 34.1130 2.626174 1316.00 1266.75 36.28
6027 34.1180 2.625800 1321.00 1277.81 36.35
6028 34.1230 2.625427 1306.00 1289.04 36.14
6029 34.1280 2.625054 1314.00 1300.25 36.25
6030 34.1330 2.624681 1344.00 1311.31 36.66
6031 34.1380 2.624307 1354.00 1321.90 36.80
6032 34.1430 2.623935 1318.00 1331.80 36.30
6033 34.1480 2.623562 1290.00 1340.72 35.92
6034 34.1530 2.623189 1318.00 1348.33 36.30
6035 34.1580 2.622817 1357.00 1354.31 36.84
6036 34.1630 2.622444 1375.00 1358.32 37.08
6037 34.1680 2.622072 1366.00 1360.03 36.96
6038 34.1730 2.621700 1361.00 1359.20 36.89
6039 34.1780 2.621328 1356.00 1355.61 36.82
6040 34.1830 2.620956 1308.00 1349.50 36.17
6041 34.1880 2.620584 1267.00 1340.32 35.59
6042 34.1930 2.620212 1257.00 1328.56 35.45
6043 34.1980 2.619840 1267.00 1314.50 35.59
6044 34.2030 2.619469 1264.00 1298.67 35.55
6045 34.2080 2.619097 1286.00 1281.31 35.86
6046 34.2130 2.618726 1311.00 1262.98 36.21
6047 34.2180 2.618355 1257.00 1244.17 35.45
6048 34.2230 2.617984 1186.00 1225.34 34.44
6049 34.2280 2.617613 1132.00 1206.85 33.65
6050 34.2330 2.617242 1119.00 1188.97 33.45
6051 34.2380 2.616871 1097.00 1172.00 33.12
6052 34.2430 2.616500 1088.00 1156.10 32.98
6053 34.2480 2.616130 1093.00 1141.64 33.06
6054 34.2530 2.615760 1122.00 1128.18 33.50
6055 34.2580 2.615389 1098.00 1116.02 33.14
6056 34.2630 2.615019 1071.00 1105.18 32.73
6057 34.2680 2.614649 1069.00 1095.63 32.70
6058 34.2730 2.614279 1072.00 1087.34 32.74
6059 34.2780 2.613909 1081.00 1080.27 32.88
6060 34.2830 2.613539 1097.00 1074.36 33.12
6061 34.2880 2.613170 1112.00 1069.56 33.35
6062 34.2930 2.612800 1123.00 1065.79 33.51
6063 34.2980 2.612430 1134.00 1063.01 33.67
6064 34.3030 2.612061 1135.00 1059.55 33.69
6065 34.3080 2.611692 1128.00 1058.54 33.59
6066 34.3130 2.611323 1141.00 1058.34 33.78
6067 34.3180 2.610954 1134.00 1058.89 33.67
6068 34.3230 2.610585 1103.00 1060.08 33.21
6069 34.3280 2.610216 1075.00 1062.00 32.79
6070 34.3330 2.609847 1067.00 1064.53 32.67
6071 34.3380 2.609478 1073.00 1067.67 32.76
6072 34.3430 2.609110 1072.00 1071.37 32.74
6073 34.3480 2.608742 1088.00 1075.62 32.98
6074 34.3530 2.608374 1099.00 1080.41 33.15
6075 34.3580 2.608005 1088.00 1085.71 32.98
6076 34.3630 2.607638 1062.00 1091.51 32.59
6077 34.3680 2.607270 1062.00 1097.83 32.59
6078 34.3730 2.606902 1090.00 1104.62 33.02
6079 34.3780 2.606534 1138.00 1111.88 33.73
6080 34.3830 2.606166 1170.00 1119.61 34.21
6081 34.3880 2.605799 1193.00 1127.77 34.54
6082 34.3930 2.605431 1192.00 1136.37 34.53
6083 34.3980 2.605064 1179.00 1145.37 34.34
6084 34.4030 2.604697 1168.00 1154.73 34.18
6085 34.4080 2.604330 1195.00 1164.43 34.57
6086 34.4130 2.603963 1235.00 1174.41 35.14
6087 34.4180 2.603596 1262.00 1184.60 35.52
6088 34.4230 2.603230 1265.00 1194.93 35.57
6089 34.4280 2.602863 1285.00 1205.33 35.85
6090 34.4330 2.602496 1320.00 1215.70 36.33
6091 34.4380 2.602130 1329.00 1225.95 36.46
6092 34.4430 2.601763 1341.00 1235.93 36.62
6093 34.4480 2.601397 1308.00 1245.57 36.17
6094 34.4530 2.601031 1300.00 1254.70 36.06
6095 34.4580 2.600665 1275.00 1263.21 35.71
6096 34.4630 2.600299 1242.00 1270.96 35.24
6097 34.4680 2.599934 1245.00 1277.79 35.28
6098 34.4730 2.599568 1272.00 1283.58 35.67
6099 34.4780 2.599202 1281.00 1288.17 35.79
6100 34.4830 2.598837 1243.00 1291.48 35.26
6101 34.4880 2.598472 1250.00 1293.42 35.36
6102 34.4930 2.598106 1267.00 1293.99 35.59
6103 34.4980 2.597741 1265.00 1293.34 35.57
6104 34.5030 2.597376 1252.00 1291.43 35.38
6105 34.5080 2.597012 1262.00 1288.57 35.52
6106 34.5130 2.596647 1266.00 1285.01 35.58
6107 34.5180 2.596282 1237.00 1281.06 35.17
6108 34.5230 2.595918 1220.00 1277.04 34.93
6109 34.5280 2.595553 1209.00 1273.24 34.77
6110 34.5330 2.595189 1175.00 1269.94 34.28
6111 34.5380 2.594824 1189.00 1267.38 34.48
6112 34.5430 2.594460 1245.00 1265.76 35.28
6113 34.5480 2.594096 1304.00 1265.25 36.11
6114 34.5530 2.593732 1359.00 1265.99 36.86
6115 34.5580 2.593369 1355.00 1268.10 36.81
6116 34.5630 2.593005 1329.00 1271.68 36.46
6117 34.5680 2.592641 1311.00 1276.79 36.21
6118 34.5730 2.592277 1325.00 1283.51 36.40
6119 34.5780 2.591914 1331.00 1291.90 36.48
6120 34.5830 2.591551 1376.00 1302.00 37.09
6121 34.5880 2.591188 1389.00 1313.86 37.27
6122 34.5930 2.590825 1428.00 1327.51 37.79
6123 34.5980 2.590461 1468.00 1343.00 38.31
6124 34.6030 2.590099 1495.00 1360.26 38.67
6125 34.6080 2.589736 1502.00 1379.51 38.76
6126 34.6130 2.589373 1533.00 1400.73 39.15
6127 34.6180 2.589011 1574.00 1423.89 39.67
6128 34.6230 2.588648 1620.00 1449.08 40.25
6129 34.6280 2.588286 1657.00 1476.32 40.71
6130 34.6330 2.587924 1690.00 1505.62 41.11
6131 34.6380 2.587562 1702.00 1537.01 41.26
6132 34.6430 2.587200 1680.00 1570.49 40.99
6133 34.6480 2.586838 1728.00 1606.07 41.57
6134 34.6530 2.586476 1782.00 1643.74 42.21
6135 34.6580 2.586114 1827.00 1683.46 42.74
6136 34.6630 2.585753 1869.00 1725.01 43.23
6137 34.6680 2.585391 1913.00 1768.71 43.74
6138 34.6730 2.585030 2006.00 1814.19 44.79
6139 34.6780 2.584668 2088.00 1861.45 45.69
6140 34.6830 2.584307 2167.00 1910.32 46.55
6141 34.6880 2.583946 2248.00 1960.58 47.41
6142 34.6930 2.583585 2324.00 2011.51 48.21
6143 34.6980 2.583224 2374.00 2063.90 48.72
6144 34.7030 2.582864 2393.00 2116.93 48.92
6145 34.7080 2.582503 2411.00 2170.36 49.10
6146 34.7130 2.582142 2442.00 2223.55 49.42
6147 34.7180 2.581782 2578.00 2276.18 50.77
6148 34.7230 2.581422 2619.00 2327.80 51.18
6149 34.7280 2.581062 2609.00 2377.81 51.08
6150 34.7330 2.580701 2602.00 2425.89 51.01
6151 34.7380 2.580342 2630.00 2471.49 51.28
6152 34.7430 2.579982 2652.00 2514.32 51.50
6153 34.7480 2.579622 2673.00 2554.13 51.70
6154 34.7530 2.579262 2680.00 2591.16 51.77
6155 34.7580 2.578903 2648.00 2625.50 51.46
6156 34.7630 2.578543 2616.00 2657.58 51.15
6157 34.7680 2.578183 2579.00 2687.91 50.78
6158 34.7730 2.577824 2596.00 2717.15 50.95
6159 34.7780 2.577465 2704.00 2745.81 52.00
6160 34.7830 2.577106 2761.00 2774.44 52.55
6161 34.7880 2.576747 2754.00 2803.39 52.48
6162 34.7930 2.576388 2718.00 2832.91 52.13
6163 34.7980 2.576030 2701.00 2862.61 51.97
6164 34.8030 2.575671 2710.00 2892.46 52.06
6165 34.8080 2.575312 2753.00 2921.93 52.47
6166 34.8130 2.574954 2806.00 2950.46 52.97
6167 34.8180 2.574596 2892.00 2977.21 53.78
6168 34.8230 2.574237 2993.00 3001.36 54.71
6169 34.8280 2.573879 3019.00 3021.91 54.95
6170 34.8330 2.573521 3013.00 3037.75 54.89
6171 34.8380 2.573163 3021.00 3047.78 54.96
6172 34.8430 2.572806 2940.00 3050.85 54.22
6173 34.8480 2.572448 2909.00 3045.81 53.94
6174 34.8530 2.572090 2916.00 3031.67 54.00
6175 34.8580 2.571733 2864.00 3007.57 53.52
6176 34.8630 2.571376 2807.00 2973.00 52.98
6177 34.8680 2.571018 2723.00 2927.86 52.18
6178 34.8730 2.570661 2638.00 2872.39 51.36
6179 34.8780 2.570304 2595.00 2807.57 50.94
6180 34.8830 2.569947 2560.00 2734.66 50.60
6181 34.8880 2.569590 2488.00 2655.53 49.88
6182 34.8930 2.569233 2386.00 2571.98 48.85
6183 34.8980 2.568877 2307.00 2486.01 48.03
6184 34.9030 2.568520 2181.00 2399.70 46.70
6185 34.9080 2.568164 2087.00 2314.57 45.68
6186 34.9130 2.567807 2034.00 2232.03 45.10
6187 34.9180 2.567451 2001.00 2153.31 44.73
6188 34.9230 2.567095 2003.00 2079.19 44.75
6189 34.9280 2.566739 1990.00 2010.22 44.61
6190 34.9330 2.566383 1930.00 1946.76 43.93
6191 34.9380 2.566027 1840.00 1888.94 42.90
6192 34.9430 2.565671 1790.00 1836.91 42.31
6193 34.9480 2.565316 1761.00 1790.46 41.96
6194 34.9530 2.564960 1714.00 1749.45 41.40
6195 34.9580 2.564605 1710.00 1713.72 41.35
6196 34.9630 2.564250 1682.00 1682.92 41.01
6197 34.9680 2.563895 1673.00 1656.58 40.90
6198 34.9730 2.563539 1651.00 1634.72 40.63
6199 34.9780 2.563184 1608.00 1616.78 40.10
6200 34.9830 2.562829 1592.00 1602.40 39.90
6201 34.9880 2.562474 1552.00 1591.18 39.40
6202 34.9930 2.562120 1575.00 1582.74 39.69
6203 34.9980 2.561765 1620.00 1576.68 40.25
6204 35.0030 2.561411 1593.00 1572.64 39.91
6205 35.0080 2.561056 1594.00 1570.24 39.92
6206 35.0130 2.560702 1649.00 1569.15 40.61
6207 35.0180 2.560348 1654.00 1568.62 40.67
6208 35.0230 2.559994 1640.00 1569.31 40.50
6209 35.0280 2.559640 1656.00 1570.57 40.69
6210 35.0330 2.559286 1651.00 1572.28 40.63
6211 35.0380 2.558933 1627.00 1574.37 40.34
6212 35.0430 2.558578 1607.00 1576.81 40.09
6213 35.0480 2.558225 1622.00 1579.65 40.27
6214 35.0530 2.557871 1609.00 1582.91 40.11
6215 35.0580 2.557518 1569.00 1586.65 39.61
6216 35.0630 2.557165 1577.00 1590.90 39.71
6217 35.0680 2.556812 1611.00 1595.68 40.14
6218 35.0730 2.556459 1632.00 1600.99 40.40
6219 35.0780 2.556106 1636.00 1607.02 40.45
6220 35.0830 2.555753 1635.00 1613.33 40.44
6221 35.0880 2.555400 1619.00 1620.13 40.24
6222 35.0930 2.555048 1571.00 1627.39 39.64
6223 35.0980 2.554695 1534.00 1635.13 39.17
6224 35.1030 2.554343 1573.00 1643.38 39.66
6225 35.1080 2.553990 1618.00 1652.21 40.22
6226 35.1130 2.553638 1656.00 1661.71 40.69
6227 35.1180 2.553286 1631.00 1671.87 40.39
6228 35.1230 2.552934 1606.00 1682.99 40.07
6229 35.1280 2.552582 1655.00 1695.06 40.68
6230 35.1330 2.552230 1697.00 1708.10 41.19
6231 35.1380 2.551878 1683.00 1722.11 41.02
6232 35.1430 2.551527 1685.00 1737.07 41.05
6233 35.1480 2.551175 1707.00 1752.82 41.32
6234 35.1530 2.550824 1716.00 1769.19 41.42
6235 35.1580 2.550472 1720.00 1785.97 41.47
6236 35.1630 2.550122 1710.00 1802.80 41.35
6237 35.1680 2.549770 1736.00 1819.37 41.67
6238 35.1730 2.549419 1804.00 1835.22 42.47
6239 35.1780 2.549068 1830.00 1849.95 42.78
6240 35.1830 2.548718 1795.00 1863.12 42.37
6241 35.1880 2.548367 1762.00 1874.27 41.98
6242 35.1930 2.548016 1750.00 1883.05 41.83
6243 35.1980 2.547666 1698.00 1889.21 41.21
6244 35.2030 2.547315 1704.00 1892.59 41.28
6245 35.2080 2.546965 1727.00 1893.24 41.56
6246 35.2130 2.546615 1767.00 1891.41 42.04
6247 35.2180 2.546265 1777.00 1887.49 42.15
6248 35.2230 2.545915 1785.00 1882.03 42.25
6249 35.2280 2.545565 1854.00 1875.65 43.06
6250 35.2330 2.545215 1864.00 1868.99 43.17
6251 35.2380 2.544866 1855.00 1862.64 43.07
6252 35.2430 2.544516 1846.00 1857.14 42.97
6253 35.2480 2.544166 1838.00 1852.87 42.87
6254 35.2530 2.543817 1816.00 1850.11 42.61
6255 35.2580 2.543468 1808.00 1849.02 42.52
6256 35.2630 2.543118 1831.00 1849.63 42.79
6257 35.2680 2.542769 1882.00 1851.84 43.38
6258 35.2730 2.542420 1920.00 1855.46 43.82
6259 35.2780 2.542072 1897.00 1860.21 43.55
6260 35.2830 2.541723 1860.00 1865.72 43.13
6261 35.2880 2.541374 1833.00 1871.55 42.81
6262 35.2930 2.541025 1845.00 1877.18 42.95
6263 35.2980 2.540677 1858.00 1882.01 43.10
6264 35.3030 2.540328 1900.00 1885.44 43.59
6265 35.3080 2.539980 1915.00 1887.01 43.76
6266 35.3130 2.539632 1887.00 1885.75 43.44
6267 35.3180 2.539284 1873.00 1881.30 43.28
6268 35.3230 2.538936 1860.00 1873.25 43.13
6269 35.3280 2.538588 1909.00 1861.37 43.69
6270 35.3330 2.538240 1900.00 1845.65 43.59
6271 35.3380 2.537893 1793.00 1826.34 42.34
6272 35.3430 2.537545 1739.00 1803.96 41.70
6273 35.3480 2.537198 1750.00 1779.06 41.83
6274 35.3530 2.536850 1727.00 1752.50 41.56
6275 35.3580 2.536503 1676.00 1725.08 40.94
6276 35.3630 2.536156 1654.00 1697.68 40.67
6277 35.3680 2.535809 1647.00 1671.04 40.58
6278 35.3730 2.535462 1624.00 1645.77 40.30
6279 35.3780 2.535115 1623.00 1622.43 40.29
6280 35.3830 2.534768 1643.00 1601.41 40.53
6281 35.3880 2.534421 1591.00 1583.02 39.89
6282 35.3930 2.534075 1564.00 1567.46 39.55
6283 35.3980 2.533728 1557.00 1554.85 39.46
6284 35.4030 2.533382 1593.00 1545.30 39.91
6285 35.4080 2.533036 1589.00 1538.81 39.86
6286 35.4130 2.532690 1595.00 1535.39 39.94
6287 35.4180 2.532343 1630.00 1535.02 40.37
6288 35.4230 2.531997 1639.00 1537.65 40.48
6289 35.4280 2.531651 1669.00 1543.22 40.85
6290 35.4330 2.531306 1696.00 1551.67 41.18
6291 35.4380 2.530960 1727.00 1562.92 41.56
6292 35.4430 2.530614 1678.00 1576.88 40.96
6293 35.4480 2.530269 1705.00 1593.47 41.29
6294 35.4530 2.529923 1764.00 1612.61 42.00
6295 35.4580 2.529578 1801.00 1634.16 42.44
6296 35.4630 2.529233 1859.00 1658.04 43.12
6297 35.4680 2.528888 1877.00 1684.13 43.32
6298 35.4730 2.528543 1910.00 1712.25 43.70
6299 35.4780 2.528198 1938.00 1742.24 44.02
6300 35.4830 2.527853 1902.00 1773.98 43.61
6301 35.4880 2.527509 1966.00 1807.90 44.34
6302 35.4930 2.527164 1982.00 1842.29 44.52
6303 35.4980 2.526819 2000.00 1877.65 44.72
6304 35.5030 2.526475 2046.00 1913.66 45.23
6305 35.5080 2.526131 2120.00 1949.74 46.04
6306 35.5130 2.525786 2144.00 1985.44 46.30
6307 35.5180 2.525442 2201.00 2020.31 46.91
6308 35.5230 2.525099 2225.00 2053.73 47.17
6309 35.5280 2.524754 2221.00 2084.94 47.13
6310 35.5330 2.524411 2257.00 2113.26 47.51
6311 35.5380 2.524067 2281.00 2137.90 47.76
6312 35.5430 2.523723 2307.00 2158.00 48.03
6313 35.5480 2.523380 2285.00 2172.76 47.80
6314 35.5530 2.523036 2286.00 2181.44 47.81
6315 35.5580 2.522693 2237.00 2183.40 47.30
6316 35.5630 2.522350 2173.00 2178.17 46.62
6317 35.5680 2.522007 2106.00 2165.58 45.89
6318 35.5730 2.521664 2042.00 2145.69 45.19
6319 35.5780 2.521321 2024.00 2118.93 44.99
6320 35.5830 2.520978 2002.00 2086.04 44.74
6321 35.5880 2.520635 1916.00 2048.05 43.77
6322 35.5930 2.520293 1884.00 2006.20 43.41
6323 35.5980 2.519950 1874.00 1961.75 43.29
6324 35.6030 2.519608 1858.00 1915.99 43.10
6325 35.6080 2.519265 1794.00 1870.12 42.36
6326 35.6130 2.518923 1755.00 1825.16 41.89
6327 35.6180 2.518581 1714.00 1781.98 41.40
6328 35.6230 2.518239 1713.00 1741.35 41.39
6329 35.6280 2.517897 1720.00 1703.57 41.47
6330 35.6330 2.517555 1726.00 1669.06 41.55
6331 35.6380 2.517213 1679.00 1638.11 40.98
6332 35.6430 2.516872 1675.00 1610.74 40.93
6333 35.6480 2.516530 1591.00 1587.04 39.89
6334 35.6530 2.516189 1550.00 1566.95 39.37
6335 35.6580 2.515847 1570.00 1550.35 39.62
6336 35.6630 2.515506 1565.00 1537.12 39.56
6337 35.6680 2.515165 1543.00 1527.06 39.28
6338 35.6730 2.514824 1554.00 1519.95 39.42
6339 35.6780 2.514483 1564.00 1515.56 39.55
6340 35.6830 2.514142 1617.00 1513.61 40.21
6341 35.6880 2.513801 1562.00 1513.80 39.52
6342 35.6930 2.513460 1546.00 1515.82 39.32
6343 35.6980 2.513120 1599.00 1519.33 39.99
6344 35.7030 2.512779 1603.00 1523.95 40.04
6345 35.7080 2.512439 1592.00 1529.30 39.90
6346 35.7130 2.512099 1588.00 1534.99 39.85
6347 35.7180 2.511759 1606.00 1540.55 40.07
6348 35.7230 2.511418 1614.00 1545.54 40.17
6349 35.7280 2.511078 1595.00 1549.48 39.94
6350 35.7330 2.510738 1569.00 1551.92 39.61
6351 35.7380 2.510399 1547.00 1552.41 39.33
6352 35.7430 2.510059 1511.00 1550.53 38.87
6353 35.7480 2.509719 1518.00 1545.59 38.96
6354 35.7530 2.509380 1520.00 1538.09 38.99
6355 35.7580 2.509040 1495.00 1527.58 38.67
6356 35.7630 2.508701 1475.00 1514.09 38.41
6357 35.7680 2.508362 1441.00 1497.78 37.96
6358 35.7730 2.508023 1416.00 1478.98 37.63
6359 35.7780 2.507684 1420.00 1458.05 37.68
6360 35.7830 2.507345 1398.00 1435.38 37.39
6361 35.7880 2.507006 1350.00 1411.42 36.74
6362 35.7930 2.506667 1324.00 1386.55 36.39
6363 35.7980 2.506329 1288.00 1361.18 35.89
6364 35.8030 2.505990 1293.00 1335.58 35.96
6365 35.8080 2.505652 1277.00 1310.07 35.74
6366 35.8130 2.505313 1232.00 1284.92 35.10
6367 35.8180 2.504975 1226.00 1260.37 35.01
6368 35.8230 2.504637 1225.00 1236.58 35.00
6369 35.8280 2.504299 1229.00 1213.76 35.06
6370 35.8330 2.503961 1217.00 1192.05 34.89
6371 35.8380 2.503623 1178.00 1171.54 34.32
6372 35.8430 2.503285 1139.00 1152.30 33.75
6373 35.8480 2.502947 1140.00 1134.35 33.76
6374 35.8530 2.502610 1137.00 1117.75 33.72
6375 35.8580 2.502272 1126.00 1102.42 33.56
6376 35.8630 2.501935 1072.00 1088.34 32.74
6377 35.8680 2.501597 1062.00 1075.49 32.59
6378 35.8730 2.501260 1045.00 1063.77 32.33
6379 35.8780 2.500923 1051.00 1053.13 32.42
6380 35.8830 2.500586 1048.00 1043.50 32.37
6381 35.8880 2.500249 1015.00 1034.80 31.86
6382 35.8930 2.499912 1005.00 1026.96 31.70
6383 35.8980 2.499576 1035.00 1019.92 32.17
6384 35.9030 2.499239 1027.00 1013.60 32.05
6385 35.9080 2.498902 1027.00 1007.94 32.05
6386 35.9130 2.498566 1012.00 1002.88 31.81
6387 35.9180 2.498230 987.00 998.37 31.42
6388 35.9230 2.497893 979.00 994.37 31.29
6389 35.9280 2.497557 983.00 990.82 31.35
6390 35.9330 2.497221 962.00 987.52 31.02
6391 35.9380 2.496885 984.00 984.78 31.37
6392 35.9430 2.496549 959.00 982.39 30.97
6393 35.9480 2.496213 936.00 980.34 30.59
6394 35.9530 2.495878 917.00 978.60 30.28
6395 35.9580 2.495542 952.00 977.15 30.85
6396 35.9630 2.495207 1002.00 975.98 31.65
6397 35.9680 2.494872 991.00 975.08 31.48
6398 35.9730 2.494536 1003.00 974.45 31.67
6399 35.9780 2.494201 969.00 974.08 31.13
6400 35.9830 2.493865 973.00 973.97 31.19
6401 35.9880 2.493531 971.00 974.12 31.16
6402 35.9930 2.493196 959.00 974.53 30.97
6403 35.9980 2.492861 944.00 975.21 30.72
6404 36.0030 2.492526 971.00 976.16 31.16
6405 36.0080 2.492192 993.00 977.39 31.51
6406 36.0130 2.491857 983.00 978.92 31.35
6407 36.0180 2.491522 1008.00 980.75 31.75
6408 36.0230 2.491188 1013.00 982.90 31.83
6409 36.0280 2.490854 1042.00 985.38 32.28
6410 36.0330 2.490520 1035.00 988.20 32.17
6411 36.0380 2.490186 1073.00 991.40 32.76
6412 36.0430 2.489852 1040.00 994.97 32.25
6413 36.0480 2.489518 1011.00 998.93 31.80
6414 36.0530 2.489184 992.00 1003.31 31.50
6415 36.0580 2.488851 1008.00 1008.13 31.75
6416 36.0630 2.488517 1014.00 1013.40 31.84
6417 36.0680 2.488183 1005.00 1019.13 31.70
6418 36.0730 2.487850 1009.00 1025.31 31.76
6419 36.0780 2.487517 1075.00 1032.04 32.79
6420 36.0830 2.487183 1074.00 1039.30 32.77
6421 36.0880 2.486850 1052.00 1047.11 32.43
6422 36.0930 2.486517 1077.00 1055.49 32.82
6423 36.0980 2.486184 1132.00 1064.46 33.65
6424 36.1030 2.485851 1131.00 1074.04 33.63
6425 36.1080 2.485518 1143.00 1084.26 33.81
6426 36.1130 2.485186 1180.00 1095.14 34.35
6427 36.1180 2.484853 1188.00 1106.69 34.47
6428 36.1230 2.484521 1169.00 1118.94 34.19
6429 36.1280 2.484189 1170.00 1131.91 34.21
6430 36.1330 2.483856 1201.00 1145.62 34.66
6431 36.1380 2.483524 1232.00 1160.07 35.10
6432 36.1430 2.483192 1251.00 1175.45 35.37
6433 36.1480 2.482860 1265.00 1191.45 35.57
6434 36.1530 2.482528 1271.00 1208.22 35.65
6435 36.1580 2.482196 1300.00 1225.77 36.06
6436 36.1630 2.481864 1284.00 1244.09 35.83
6437 36.1680 2.481533 1299.00 1263.16 36.04
6438 36.1730 2.481201 1344.00 1282.94 36.66
6439 36.1780 2.480870 1351.00 1303.39 36.76
6440 36.1830 2.480539 1380.00 1324.47 37.15
6441 36.1880 2.480207 1461.00 1346.11 38.22
6442 36.1930 2.479876 1499.00 1368.18 38.72
6443 36.1980 2.479545 1530.00 1390.34 39.12
6444 36.2030 2.479214 1569.00 1413.03 39.61
6445 36.2080 2.478883 1562.00 1435.79 39.52
6446 36.2130 2.478552 1570.00 1458.51 39.62
6447 36.2180 2.478222 1556.00 1480.93 39.45
6448 36.2230 2.477891 1561.00 1503.00 39.51
6449 36.2280 2.477561 1631.00 1524.46 40.39
6450 36.2330 2.477230 1736.00 1545.08 41.67
6451 36.2380 2.476900 1710.00 1564.61 41.35
6452 36.2430 2.476569 1716.00 1582.76 41.42
6453 36.2480 2.476239 1745.00 1599.23 41.77
6454 36.2530 2.475909 1721.00 1613.70 41.48
6455 36.2580 2.475579 1662.00 1625.84 40.77
6456 36.2630 2.475250 1626.00 1635.62 40.32
6457 36.2680 2.474920 1609.00 1642.24 40.11
6458 36.2730 2.474590 1633.00 1645.77 40.41
6459 36.2780 2.474260 1622.00 1646.11 40.27
6460 36.2830 2.473931 1617.00 1643.36 40.21
6461 36.2880 2.473602 1633.00 1637.38 40.41
6462 36.2930 2.473272 1541.00 1628.58 39.26
6463 36.2980 2.472943 1524.00 1616.92 39.04
6464 36.3030 2.472614 1529.00 1602.75 39.10
6465 36.3080 2.472285 1468.00 1586.33 38.31
6466 36.3130 2.471956 1451.00 1567.91 38.09
6467 36.3180 2.471627 1420.00 1547.68 37.68
6468 36.3230 2.471298 1405.00 1525.79 37.48
6469 36.3280 2.470970 1415.00 1502.44 37.62
6470 36.3330 2.470641 1365.00 1477.80 36.95
6471 36.3380 2.470312 1323.00 1452.01 36.37
6472 36.3430 2.469984 1278.00 1425.35 35.75
6473 36.3480 2.469656 1260.00 1398.07 35.50
6474 36.3530 2.469327 1262.00 1370.53 35.52
6475 36.3580 2.468999 1230.00 1343.03 35.07
6476 36.3630 2.468671 1172.00 1315.90 34.23
6477 36.3680 2.468343 1197.00 1289.53 34.60
6478 36.3730 2.468016 1235.00 1264.12 35.14
6479 36.3780 2.467688 1195.00 1239.92 34.57
6480 36.3830 2.467360 1183.00 1217.12 34.39
6481 36.3880 2.467033 1195.00 1195.83 34.57
6482 36.3930 2.466705 1183.00 1177.24 34.39
6483 36.3980 2.466378 1130.00 1159.57 33.62
6484 36.4030 2.466051 1058.00 1142.99 32.53
6485 36.4080 2.465723 1024.00 1127.93 32.00
6486 36.4130 2.465396 1055.00 1114.32 32.48
6487 36.4180 2.465069 1102.00 1102.71 33.20
6488 36.4230 2.464742 1108.00 1091.79 33.29
6489 36.4280 2.464415 1087.00 1082.06 32.97
6490 36.4330 2.464089 1074.00 1073.41 32.77
6491 36.4380 2.463762 1096.00 1065.77 33.11
6492 36.4430 2.463436 1130.00 1059.03 33.62
6493 36.4480 2.463109 1105.00 1053.07 33.24
6494 36.4530 2.462783 1062.00 1047.83 32.59
6495 36.4580 2.462456 1007.00 1043.22 31.73
6496 36.4630 2.462130 1001.00 1039.16 31.64
6497 36.4680 2.461804 988.00 1035.61 31.43
6498 36.4730 2.461478 1016.00 1032.72 31.87
6499 36.4780 2.461152 1034.00 1030.06 32.16
6500 36.4830 2.460826 1066.00 1027.79 32.65
6501 36.4880 2.460501 1053.00 1025.91 32.45
6502 36.4930 2.460175 1085.00 1024.41 32.94
6503 36.4980 2.459849 1046.00 1023.27 32.34
6504 36.5030 2.459524 1027.00 1022.50 32.05
6505 36.5080 2.459199 1073.00 1022.07 32.76
6506 36.5130 2.458873 1088.00 1022.41 32.98
6507 36.5180 2.458548 1058.00 1022.61 32.53
6508 36.5230 2.458223 1063.00 1022.90 32.60
6509 36.5280 2.457898 1076.00 1023.65 32.80
6510 36.5330 2.457573 1058.00 1024.61 32.53
6511 36.5380 2.457248 1077.00 1025.75 32.82
6512 36.5430 2.456924 1109.00 1027.02 33.30
6513 36.5480 2.456599 1092.00 1028.37 33.05
6514 36.5530 2.456274 1101.00 1029.76 33.18
6515 36.5580 2.455950 1053.00 1031.10 32.45
6516 36.5630 2.455626 1002.00 1032.35 31.65
6517 36.5680 2.455301 1000.00 1033.40 31.62
6518 36.5730 2.454977 1043.00 1034.22 32.30
6519 36.5780 2.454653 1073.00 1034.72 32.76
6520 36.5830 2.454329 1071.00 1034.82 32.73
6521 36.5880 2.454005 1070.00 1034.46 32.71
6522 36.5930 2.453681 1091.00 1033.62 33.03
6523 36.5980 2.453357 1065.00 1032.26 32.63
6524 36.6030 2.453033 1054.00 1030.41 32.47
6525 36.6080 2.452710 1028.00 1028.11 32.06
6526 36.6130 2.452387 1021.00 1025.43 31.95
6527 36.6180 2.452063 1047.00 1022.48 32.36
6528 36.6230 2.451740 1041.00 1019.34 32.26
6529 36.6280 2.451417 1021.00 1016.16 31.95
6530 36.6330 2.451094 1027.00 1013.04 32.05
6531 36.6380 2.450771 1042.00 1010.08 32.28
6532 36.6430 2.450448 1033.00 1007.38 32.14
6533 36.6480 2.450125 1053.00 1005.00 32.45
6534 36.6530 2.449802 1000.00 1003.02 31.62
6535 36.6580 2.449479 1012.00 1001.48 31.81
6536 36.6630 2.449157 1003.00 1000.40 31.67
6537 36.6680 2.448834 993.00 999.83 31.51
6538 36.6730 2.448512 988.00 999.78 31.43
6539 36.6780 2.448189 998.00 1000.26 31.59
6540 36.6830 2.447867 997.00 1001.27 31.58
6541 36.6880 2.447545 993.00 1002.83 31.51
6542 36.6930 2.447223 1004.00 1004.91 31.69
6543 36.6980 2.446901 1003.00 1007.53 31.67
6544 36.7030 2.446579 1010.00 1010.69 31.78
6545 36.7080 2.446258 1039.00 1014.35 32.23
6546 36.7130 2.445936 1026.00 1018.64 32.03
6547 36.7180 2.445615 1014.00 1023.28 31.84
6548 36.7230 2.445293 997.00 1028.39 31.58
6549 36.7280 2.444971 1001.00 1033.95 31.64
6550 36.7330 2.444650 1046.00 1039.92 32.34
6551 36.7380 2.444329 1085.00 1046.29 32.94
6552 36.7430 2.444008 1091.00 1053.01 33.03
6553 36.7480 2.443686 1097.00 1060.05 33.12
6554 36.7530 2.443366 1128.00 1067.37 33.59
6555 36.7580 2.443045 1145.00 1074.92 33.84
6556 36.7630 2.442724 1206.00 1082.63 34.73
6557 36.7680 2.442403 1184.00 1090.45 34.41
6558 36.7730 2.442083 1134.00 1098.31 33.67
6559 36.7780 2.441762 1098.00 1106.11 33.14
6560 36.7830 2.441442 1088.00 1113.79 32.98
6561 36.7880 2.441122 1082.00 1121.22 32.89
6562 36.7930 2.440801 1067.00 1127.73 32.67
6563 36.7980 2.440481 1063.00 1134.39 32.60
6564 36.8030 2.440161 1078.00 1140.50 32.83
6565 36.8080 2.439841 1108.00 1145.99 33.29
6566 36.8130 2.439521 1123.00 1150.79 33.51
6567 36.8180 2.439201 1156.00 1154.87 34.00
6568 36.8230 2.438881 1142.00 1158.23 33.79
6569 36.8280 2.438562 1155.00 1160.91 33.99
6570 36.8330 2.438242 1134.00 1162.96 33.67
6571 36.8380 2.437923 1123.00 1164.48 33.51
6572 36.8430 2.437603 1131.00 1165.56 33.63
6573 36.8480 2.437284 1126.00 1166.28 33.56
6574 36.8530 2.436965 1119.00 1166.71 33.45
6575 36.8580 2.436646 1159.00 1166.79 34.04
6576 36.8630 2.436327 1179.00 1166.74 34.34
6577 36.8680 2.436008 1161.00 1166.43 34.07
6578 36.8730 2.435689 1182.00 1165.79 34.38
6579 36.8780 2.435370 1218.00 1164.73 34.90
6580 36.8830 2.435052 1202.00 1162.97 34.67
6581 36.8880 2.434733 1167.00 1160.73 34.16
6582 36.8930 2.434414 1133.00 1157.69 33.66
6583 36.8980 2.434096 1105.00 1153.74 33.24
6584 36.9030 2.433778 1106.00 1148.79 33.26
6585 36.9080 2.433460 1140.00 1142.78 33.76
6586 36.9130 2.433141 1112.00 1135.71 33.35
6587 36.9180 2.432823 1102.00 1126.29 33.20
6588 36.9230 2.432505 1064.00 1117.37 32.62
6589 36.9280 2.432187 1036.00 1107.73 32.19
6590 36.9330 2.431870 1008.00 1097.57 31.75
6591 36.9380 2.431552 1039.00 1087.13 32.23
6592 36.9430 2.431234 1034.00 1076.61 32.16
6593 36.9480 2.430917 1081.00 1066.20 32.88
6594 36.9530 2.430599 1126.00 1056.09 33.56
6595 36.9580 2.430282 1109.00 1046.42 33.30
6596 36.9630 2.429965 1067.00 1037.28 32.67
6597 36.9680 2.429648 1034.00 1028.77 32.16
6598 36.9730 2.429330 1016.00 1020.93 31.87
6599 36.9780 2.429013 1020.00 1013.83 31.94
6600 36.9830 2.428696 1040.00 1007.45 32.25
6601 36.9880 2.428380 1030.00 1001.81 32.09
6602 36.9930 2.428063 1010.00 996.91 31.78
6603 36.9980 2.427746 971.00 992.74 31.16
6604 37.0030 2.427430 976.00 989.26 31.24
6605 37.0080 2.427113 964.00 986.47 31.05
6606 37.0130 2.426797 991.00 984.33 31.48
6607 37.0180 2.426481 997.00 982.83 31.58
6608 37.0230 2.426164 992.00 981.92 31.50
6609 37.0280 2.425848 1017.00 981.60 31.89
6610 37.0330 2.425532 1041.00 981.82 32.26
6611 37.0380 2.425216 1026.00 982.57 32.03
6612 37.0430 2.424900 1038.00 983.82 32.22
6613 37.0480 2.424584 1052.00 985.55 32.43
6614 37.0530 2.424269 1006.00 987.74 31.72
6615 37.0580 2.423954 1030.00 990.39 32.09
6616 37.0630 2.423638 1039.00 993.61 32.23
6617 37.0680 2.423322 1045.00 997.11 32.33
6618 37.0730 2.423007 1042.00 1001.02 32.28
6619 37.0780 2.422692 1074.00 1005.20 32.77
6620 37.0830 2.422376 1076.00 1010.19 32.80
6621 37.0880 2.422061 1043.00 1015.29 32.30
6622 37.0930 2.421746 1028.00 1020.74 32.06
6623 37.0980 2.421432 1077.00 1026.55 32.82
6624 37.1030 2.421117 1057.00 1032.69 32.51
6625 37.1080 2.420802 1028.00 1039.15 32.06
6626 37.1130 2.420487 993.00 1045.92 31.51
6627 37.1180 2.420173 991.00 1052.94 31.48
6628 37.1230 2.419858 1016.00 1060.19 31.87
6629 37.1280 2.419544 1050.00 1067.63 32.40
6630 37.1330 2.419230 1083.00 1075.19 32.91
6631 37.1380 2.418915 1090.00 1082.78 33.02
6632 37.1430 2.418601 1138.00 1090.40 33.73
6633 37.1480 2.418287 1175.00 1097.94 34.28
6634 37.1530 2.417973 1168.00 1105.27 34.18
6635 37.1580 2.417659 1156.00 1112.20 34.00
6636 37.1630 2.417346 1158.00 1118.80 34.03
6637 37.1680 2.417032 1116.00 1124.84 33.41
6638 37.1730 2.416718 1078.00 1130.16 32.83
6639 37.1780 2.416404 1082.00 1134.62 32.89
6640 37.1830 2.416091 1094.00 1138.18 33.08
6641 37.1880 2.415778 1110.00 1140.48 33.32
6642 37.1930 2.415464 1115.00 1141.52 33.39
6643 37.1980 2.415151 1090.00 1141.25 33.02
6644 37.2030 2.414838 1102.00 1139.63 33.20
6645 37.2080 2.414525 1097.00 1136.72 33.12
6646 37.2130 2.414212 1103.00 1132.62 33.21
6647 37.2180 2.413899 1082.00 1127.49 32.89
6648 37.2230 2.413587 1111.00 1121.53 33.33
6649 37.2280 2.413274 1093.00 1114.99 33.06
6650 37.2330 2.412961 1087.00 1108.11 32.97
6651 37.2380 2.412649 1062.00 1101.12 32.59
6652 37.2430 2.412336 1038.00 1094.25 32.22
6653 37.2480 2.412024 1037.00 1087.68 32.20
6654 37.2530 2.411712 1046.00 1081.58 32.34
6655 37.2580 2.411400 1052.00 1076.07 32.43
6656 37.2630 2.411088 1103.00 1070.78 33.21
6657 37.2680 2.410775 1135.00 1066.73 33.69
6658 37.2730 2.410464 1121.00 1063.49 33.48
6659 37.2780 2.410152 1105.00 1061.10 33.24
6660 37.2830 2.409840 1089.00 1059.58 33.00
6661 37.2880 2.409528 1114.00 1058.94 33.38
6662 37.2930 2.409217 1114.00 1059.17 33.38
6663 37.2980 2.408905 1074.00 1060.28 32.77
6664 37.3030 2.408594 1044.00 1062.27 32.31
6665 37.3080 2.408283 1033.00 1065.11 32.14
6666 37.3130 2.407971 1067.00 1068.80 32.67
6667 37.3180 2.407660 1053.00 1073.32 32.45
6668 37.3230 2.407349 1089.00 1078.66 33.00
6669 37.3280 2.407038 1086.00 1084.81 32.95
6670 37.3330 2.406727 1072.00 1091.75 32.74
6671 37.3380 2.406416 1106.00 1099.47 33.26
6672 37.3430 2.406106 1118.00 1107.96 33.44
6673 37.3480 2.405795 1118.00 1117.19 33.44
6674 37.3530 2.405485 1129.00 1127.14 33.60
6675 37.3580 2.405174 1121.00 1137.81 33.48
6676 37.3630 2.404864 1108.00 1149.15 33.29
6677 37.3680 2.404553 1129.00 1161.15 33.60
6678 37.3730 2.404243 1184.00 1173.76 34.41
6679 37.3780 2.403933 1228.00 1186.94 35.04
6680 37.3830 2.403623 1219.00 1200.64 34.91
6681 37.3880 2.403313 1239.00 1214.78 35.20
6682 37.3930 2.403003 1260.00 1229.30 35.50
6683 37.3980 2.402694 1249.00 1243.52 35.34
6684 37.4030 2.402384 1274.00 1258.52 35.69
6685 37.4080 2.402074 1304.00 1273.60 36.11
6686 37.4130 2.401765 1311.00 1288.62 36.21
6687 37.4180 2.401455 1333.00 1303.42 36.51
6688 37.4230 2.401146 1352.00 1317.86 36.77
6689 37.4280 2.400836 1376.00 1331.78 37.09
6690 37.4330 2.400527 1380.00 1345.01 37.15
6691 37.4380 2.400218 1402.00 1357.42 37.44
6692 37.4430 2.399909 1388.00 1368.87 37.26
6693 37.4480 2.399600 1349.00 1379.31 36.73
6694 37.4530 2.399292 1338.00 1388.70 36.58
6695 37.4580 2.398983 1358.00 1397.06 36.85
6696 37.4630 2.398674 1438.00 1404.52 37.92
6697 37.4680 2.398365 1459.00 1411.22 38.20
6698 37.4730 2.398057 1467.00 1417.34 38.30
6699 37.4780 2.397748 1446.00 1423.14 38.03
6700 37.4830 2.397440 1413.00 1428.86 37.59
6701 37.4880 2.397132 1408.00 1434.78 37.52
6702 37.4930 2.396823 1410.00 1441.15 37.55
6703 37.4980 2.396515 1420.00 1448.24 37.68
6704 37.5030 2.396208 1443.00 1456.30 37.99
6705 37.5080 2.395900 1465.00 1465.54 38.28
6706 37.5130 2.395592 1516.00 1476.15 38.94
6707 37.5180 2.395284 1554.00 1488.32 39.42
6708 37.5230 2.394976 1591.00 1502.15 39.89
6709 37.5280 2.394669 1598.00 1517.71 39.97
6710 37.5330 2.394361 1570.00 1535.07 39.62
6711 37.5380 2.394054 1574.00 1554.21 39.67
6712 37.5430 2.393746 1668.00 1575.10 40.84
6713 37.5480 2.393439 1750.00 1597.61 41.83
6714 37.5530 2.393131 1806.00 1621.65 42.50
6715 37.5580 2.392825 1851.00 1647.07 43.02
6716 37.5630 2.392518 1877.00 1673.60 43.32
6717 37.5680 2.392211 1867.00 1700.97 43.21
6718 37.5730 2.391904 1878.00 1729.04 43.34
6719 37.5780 2.391597 1875.00 1757.16 43.30
6720 37.5830 2.391290 1925.00 1785.00 43.87
6721 37.5880 2.390984 1952.00 1812.15 44.18
6722 37.5930 2.390677 1941.00 1838.01 44.06
6723 37.5980 2.390371 1960.00 1861.99 44.27
6724 37.6030 2.390064 2016.00 1883.42 44.90
6725 37.6080 2.389758 2043.00 1901.64 45.20
6726 37.6130 2.389452 2011.00 1915.94 44.84
6727 37.6180 2.389146 1969.00 1925.64 44.37
6728 37.6230 2.388840 1991.00 1930.03 44.62
6729 37.6280 2.388534 1988.00 1928.80 44.59
6730 37.6330 2.388228 1932.00 1921.53 43.95
6731 37.6380 2.387922 1912.00 1908.11 43.73
6732 37.6430 2.387617 1838.00 1888.41 42.87
6733 37.6480 2.387311 1741.00 1862.77 41.73
6734 37.6530 2.387006 1697.00 1832.73 41.19
6735 37.6580 2.386700 1659.00 1798.51 40.73
6736 37.6630 2.386395 1621.00 1761.04 40.26
6737 37.6680 2.386090 1599.00 1721.24 39.99
6738 37.6730 2.385784 1543.00 1680.15 39.28
6739 37.6780 2.385479 1495.00 1638.56 38.67
6740 37.6830 2.385174 1443.00 1597.23 37.99
6741 37.6880 2.384869 1422.00 1556.86 37.71
6742 37.6930 2.384564 1392.00 1517.92 37.31
6743 37.6980 2.384259 1319.00 1480.80 36.32
6744 37.7030 2.383955 1325.00 1445.75 36.40
6745 37.7080 2.383650 1319.00 1412.95 36.32
6746 37.7130 2.383346 1303.00 1382.47 36.10
6747 37.7180 2.383041 1342.00 1354.33 36.63
6748 37.7230 2.382737 1384.00 1328.45 37.20
6749 37.7280 2.382432 1358.00 1304.79 36.85
6750 37.7330 2.382128 1305.00 1283.15 36.12
6751 37.7380 2.381824 1268.00 1263.42 35.61
6752 37.7430 2.381520 1255.00 1245.39 35.43
6753 37.7480 2.381216 1217.00 1228.83 34.89
6754 37.7530 2.380913 1207.00 1213.56 34.74
6755 37.7580 2.380609 1188.00 1199.34 34.47
6756 37.7630 2.380305 1174.00 1185.97 34.26
6757 37.7680 2.380001 1147.00 1173.24 33.87
6758 37.7730 2.379698 1122.00 1160.98 33.50
6759 37.7780 2.379394 1081.00 1149.05 32.88
6760 37.7830 2.379091 1071.00 1137.34 32.73
6761 37.7880 2.378788 1088.00 1125.79 32.98
6762 37.7930 2.378484 1115.00 1114.38 33.39
6763 37.7980 2.378181 1091.00 1103.13 33.03
6764 37.8030 2.377878 1086.00 1092.07 32.95
6765 37.8080 2.377575 1064.00 1081.26 32.62
6766 37.8130 2.377272 1011.00 1070.76 31.80
6767 37.8180 2.376969 995.00 1060.64 31.54
6768 37.8230 2.376667 980.00 1050.94 31.31
6769 37.8280 2.376364 991.00 1041.69 31.48
6770 37.8330 2.376061 1000.00 1032.94 31.62
6771 37.8380 2.375759 994.00 1024.33 31.53
6772 37.8430 2.375457 986.00 1016.60 31.40
6773 37.8480 2.375154 996.00 1009.39 31.56
6774 37.8530 2.374852 996.00 1002.69 31.56
6775 37.8580 2.374550 972.00 996.46 31.18
6776 37.8630 2.374248 968.00 990.72 31.11
6777 37.8680 2.373946 959.00 985.44 30.97
6778 37.8730 2.373644 953.00 980.58 30.87
6779 37.8780 2.373342 974.00 976.13 31.21
6780 37.8830 2.373040 965.00 972.07 31.06
6781 37.8880 2.372738 970.00 968.28 31.14
6782 37.8930 2.372437 969.00 964.92 31.13
6783 37.8980 2.372135 969.00 961.88 31.13
6784 37.9030 2.371834 972.00 959.13 31.18
6785 37.9080 2.371533 966.00 956.71 31.08
6786 37.9130 2.371232 951.00 954.48 30.84
6787 37.9180 2.370930 904.00 952.49 30.07
6788 37.9230 2.370629 909.00 950.80 30.15
6789 37.9280 2.370328 907.00 949.22 30.12
6790 37.9330 2.370027 925.00 947.82 30.41
6791 37.9380 2.369726 942.00 946.60 30.69
6792 37.9430 2.369426 939.00 945.53 30.64
6793 37.9480 2.369125 927.00 944.61 30.45
6794 37.9530 2.368824 924.00 943.82 30.40
6795 37.9580 2.368524 937.00 943.16 30.61
6796 37.9630 2.368223 945.00 942.62 30.74
6797 37.9680 2.367923 922.00 942.20 30.36
6798 37.9730 2.367623 910.00 941.89 30.17
6799 37.9780 2.367322 904.00 941.68 30.07
6800 37.9830 2.367022 896.00 941.57 29.93
6801 37.9880 2.366722 923.00 941.56 30.38
6802 37.9930 2.366422 947.00 941.65 30.77
6803 37.9980 2.366122 926.00 941.83 30.43
6804 38.0030 2.365823 911.00 942.11 30.18
6805 38.0080 2.365523 923.00 942.48 30.38
6806 38.0130 2.365223 918.00 942.94 30.30
6807 38.0180 2.364923 920.00 943.50 30.33
6808 38.0230 2.364624 955.00 944.15 30.90
6809 38.0280 2.364325 960.00 944.90 30.98
6810 38.0330 2.364025 946.00 945.75 30.76
6811 38.0380 2.363726 949.00 946.70 30.81
6812 38.0430 2.363427 939.00 947.76 30.64
6813 38.0480 2.363128 906.00 948.93 30.10
6814 38.0530 2.362829 916.00 950.21 30.27
6815 38.0580 2.362530 954.00 951.61 30.89
6816 38.0630 2.362231 958.00 953.14 30.95
6817 38.0680 2.361932 958.00 954.79 30.95
6818 38.0730 2.361634 939.00 956.59 30.64
6819 38.0780 2.361335 914.00 958.52 30.23
6820 38.0830 2.361037 908.00 960.61 30.13
6821 38.0880 2.360738 931.00 962.86 30.51
6822 38.0930 2.360440 969.00 965.27 31.13
6823 38.0980 2.360141 952.00 967.87 30.85
6824 38.1030 2.359843 933.00 970.65 30.55
6825 38.1080 2.359545 939.00 973.62 30.64
6826 38.1130 2.359247 955.00 976.80 30.90
6827 38.1180 2.358949 942.00 980.20 30.69
6828 38.1230 2.358651 939.00 983.83 30.64
6829 38.1280 2.358353 938.00 987.70 30.63
6830 38.1330 2.358056 945.00 991.82 30.74
6831 38.1380 2.357758 976.00 996.20 31.24
6832 38.1430 2.357460 998.00 1000.86 31.59
6833 38.1480 2.357163 987.00 1005.81 31.42
6834 38.1530 2.356865 970.00 1011.06 31.14
6835 38.1580 2.356568 986.00 1016.64 31.40
6836 38.1630 2.356271 1001.00 1022.55 31.64
6837 38.1680 2.355974 995.00 1028.82 31.54
6838 38.1730 2.355676 1012.00 1035.45 31.81
6839 38.1780 2.355380 1040.00 1042.49 32.25
6840 38.1830 2.355083 1055.00 1049.94 32.48
6841 38.1880 2.354786 1060.00 1057.82 32.56
6842 38.1930 2.354489 1083.00 1066.16 32.91
6843 38.1980 2.354192 1129.00 1074.99 33.60
6844 38.2030 2.353896 1115.00 1084.33 33.39
6845 38.2080 2.353599 1090.00 1094.18 33.02
6846 38.2130 2.353303 1093.00 1104.60 33.06
6847 38.2180 2.353006 1117.00 1115.59 33.42
6848 38.2230 2.352710 1136.00 1127.17 33.70
6849 38.2280 2.352414 1146.00 1139.35 33.85
6850 38.2330 2.352118 1147.00 1152.16 33.87
6851 38.2380 2.351822 1138.00 1165.61 33.73
6852 38.2430 2.351526 1144.00 1179.68 33.82
6853 38.2480 2.351230 1172.00 1194.41 34.23
6854 38.2530 2.350934 1191.00 1209.78 34.51
6855 38.2580 2.350638 1223.00 1225.76 34.97
6856 38.2630 2.350343 1262.00 1242.34 35.52
6857 38.2680 2.350047 1297.00 1259.51 36.01
6858 38.2730 2.349751 1319.00 1277.21 36.32
6859 38.2780 2.349456 1321.00 1295.42 36.35
6860 38.2830 2.349160 1317.00 1314.07 36.29
6861 38.2880 2.348866 1303.00 1333.11 36.10
6862 38.2930 2.348570 1300.00 1352.49 36.06
6863 38.2980 2.348275 1348.00 1372.09 36.72
6864 38.3030 2.347980 1424.00 1391.90 37.74
6865 38.3080 2.347685 1445.00 1411.86 38.01
6866 38.3130 2.347390 1455.00 1431.92 38.14
6867 38.3180 2.347095 1476.00 1452.08 38.42
6868 38.3230 2.346800 1498.00 1472.33 38.70
6869 38.3280 2.346506 1530.00 1492.85 39.12
6870 38.3330 2.346211 1574.00 1513.71 39.67
6871 38.3380 2.345917 1578.00 1535.11 39.72
6872 38.3430 2.345623 1563.00 1557.25 39.53
6873 38.3480 2.345328 1573.00 1580.40 39.66
6874 38.3530 2.345034 1638.00 1604.77 40.47
6875 38.3580 2.344739 1681.00 1630.67 41.00
6876 38.3630 2.344446 1678.00 1658.29 40.96
6877 38.3680 2.344151 1673.00 1687.82 40.90
6878 38.3730 2.343858 1687.00 1719.48 41.07
6879 38.3780 2.343564 1755.00 1753.07 41.89
6880 38.3830 2.343270 1860.00 1789.21 43.13
6881 38.3880 2.342976 1934.00 1827.67 43.98
6882 38.3930 2.342683 1975.00 1868.44 44.44
6883 38.3980 2.342389 1967.00 1911.59 44.35
6884 38.4030 2.342096 1940.00 1956.72 44.05
6885 38.4080 2.341802 1948.00 2003.89 44.14
6886 38.4130 2.341509 2022.00 2052.92 44.97
6887 38.4180 2.341216 2114.00 2103.53 45.98
6888 38.4230 2.340922 2197.00 2155.47 46.87
6889 38.4280 2.340629 2258.00 2208.59 47.52
6890 38.4330 2.340337 2297.00 2262.50 47.93
6891 38.4380 2.340044 2336.00 2317.00 48.33
6892 38.4430 2.339751 2390.00 2371.75 48.89
6893 38.4480 2.339458 2472.00 2426.57 49.72
6894 38.4530 2.339165 2534.00 2481.48 50.34
6895 38.4580 2.338872 2515.00 2536.22 50.15
6896 38.4630 2.338580 2480.00 2590.95 49.80
6897 38.4680 2.338288 2543.00 2645.78 50.43
6898 38.4730 2.337995 2684.00 2700.82 51.81
6899 38.4780 2.337703 2797.00 2756.36 52.89
6900 38.4830 2.337410 2845.00 2812.80 53.34
6901 38.4880 2.337118 2878.00 2870.39 53.65
6902 38.4930 2.336826 2916.00 2929.44 54.00
6903 38.4980 2.336534 2919.00 2990.40 54.03
6904 38.5030 2.336243 2958.00 3053.37 54.39
6905 38.5080 2.335951 3050.00 3118.61 55.23
6906 38.5130 2.335659 3176.00 3186.02 56.36
6907 38.5180 2.335367 3309.00 3255.60 57.52
6908 38.5230 2.335076 3423.00 3327.11 58.51
6909 38.5280 2.334784 3542.00 3399.94 59.51
6910 38.5330 2.334492 3635.00 3473.60 60.29
6911 38.5380 2.334201 3708.00 3547.27 60.89
6912 38.5430 2.333910 3795.00 3619.84 61.60
6913 38.5480 2.333619 3912.00 3690.17 62.55
6914 38.5530 2.333328 3999.00 3756.88 63.24
6915 38.5580 2.333037 4036.00 3818.45 63.53
6916 38.5630 2.332745 4083.00 3873.32 63.90
6917 38.5680 2.332454 4082.00 3919.69 63.89
6918 38.5730 2.332164 4066.00 3956.05 63.77
6919 38.5780 2.331873 4051.00 3980.84 63.65
6920 38.5830 2.331582 4040.00 3992.83 63.56
6921 38.5880 2.331291 4054.00 3991.13 63.67
6922 38.5930 2.331001 4025.00 3975.30 63.44
6923 38.5980 2.330711 3964.00 3945.46 62.96
6924 38.6030 2.330420 3933.00 3902.19 62.71
6925 38.6080 2.330130 3893.00 3846.60 62.39
6926 38.6130 2.329840 3803.00 3780.18 61.67
6927 38.6180 2.329550 3708.00 3704.71 60.89
6928 38.6230 2.329259 3579.00 3622.09 59.82
6929 38.6280 2.328970 3418.00 3534.24 58.46
6930 38.6330 2.328680 3305.00 3442.94 57.49
6931 38.6380 2.328390 3237.00 3350.02 56.89
6932 38.6430 2.328100 3139.00 3256.66 56.03
6933 38.6480 2.327810 3042.00 3164.17 55.15
6934 38.6530 2.327521 2984.00 3073.43 54.63
6935 38.6580 2.327231 2919.00 2984.89 54.03
6936 38.6630 2.326942 2842.00 2898.97 53.31
6937 38.6680 2.326653 2796.00 2815.82 52.88
6938 38.6730 2.326363 2743.00 2735.43 52.37
6939 38.6780 2.326074 2662.00 2657.71 51.59
6940 38.6830 2.325785 2587.00 2582.42 50.86
6941 38.6880 2.325496 2512.00 2509.43 50.12
6942 38.6930 2.325207 2440.00 2438.48 49.40
6943 38.6980 2.324918 2362.00 2369.19 48.60
6944 38.7030 2.324629 2280.00 2301.45 47.75
6945 38.7080 2.324340 2199.00 2235.10 46.89
6946 38.7130 2.324051 2140.00 2169.86 46.26
6947 38.7180 2.323763 2099.00 2105.85 45.81
6948 38.7230 2.323474 2058.00 2042.98 45.37
6949 38.7280 2.323186 2001.00 1981.58 44.73
6950 38.7330 2.322897 1923.00 1921.78 43.85
6951 38.7380 2.322609 1866.00 1863.81 43.20
6952 38.7430 2.322321 1812.00 1808.08 42.57
6953 38.7480 2.322033 1738.00 1754.72 41.69
6954 38.7530 2.321744 1677.00 1703.98 40.95
6955 38.7580 2.321457 1621.00 1656.11 40.26
6956 38.7630 2.321169 1564.00 1611.21 39.55
6957 38.7680 2.320881 1506.00 1569.26 38.81
6958 38.7730 2.320593 1456.00 1530.37 38.16
6959 38.7780 2.320305 1434.00 1494.49 37.87
6960 38.7830 2.320018 1416.00 1461.48 37.63
6961 38.7880 2.319730 1395.00 1431.32 37.35
6962 38.7930 2.319443 1391.00 1403.86 37.30
6963 38.7980 2.319155 1373.00 1379.11 37.05
6964 38.8030 2.318868 1351.00 1356.71 36.76
6965 38.8080 2.318581 1320.00 1336.60 36.33
6966 38.8130 2.318294 1309.00 1318.67 36.18
6967 38.8180 2.318006 1314.00 1302.76 36.25
6968 38.8230 2.317719 1320.00 1288.70 36.33
6969 38.8280 2.317432 1311.00 1276.37 36.21
6970 38.8330 2.317145 1275.00 1265.61 35.71
6971 38.8380 2.316859 1238.00 1256.27 35.19
6972 38.8430 2.316572 1213.00 1248.67 34.83
6973 38.8480 2.316285 1221.00 1241.74 34.94
6974 38.8530 2.315999 1228.00 1235.82 35.04
6975 38.8580 2.315712 1210.00 1230.72 34.79
6976 38.8630 2.315426 1216.00 1226.31 34.87
6977 38.8680 2.315140 1208.00 1222.45 34.76
6978 38.8730 2.314853 1192.00 1219.00 34.53
6979 38.8780 2.314567 1193.00 1215.77 34.54
6980 38.8830 2.314281 1186.00 1212.62 34.44
6981 38.8880 2.313995 1183.00 1209.40 34.39
6982 38.8930 2.313709 1175.00 1205.96 34.28
6983 38.8980 2.313423 1157.00 1202.14 34.01
6984 38.9030 2.313137 1139.00 1197.82 33.75
6985 38.9080 2.312851 1138.00 1192.87 33.73
6986 38.9130 2.312566 1146.00 1187.20 33.85
6987 38.9180 2.312280 1154.00 1180.75 33.97
6988 38.9230 2.311995 1146.00 1173.52 33.85
6989 38.9280 2.311709 1169.00 1165.51 34.19
6990 38.9330 2.311424 1175.00 1156.80 34.28
6991 38.9380 2.311139 1126.00 1147.51 33.56
6992 38.9430 2.310853 1069.00 1137.75 32.70
6993 38.9480 2.310568 1055.00 1127.57 32.48
6994 38.9530 2.310283 1068.00 1117.35 32.68
6995 38.9580 2.309998 1090.00 1107.13 33.02
6996 38.9630 2.309713 1092.00 1097.05 33.05
6997 38.9680 2.309428 1065.00 1087.20 32.63
6998 38.9730 2.309144 1030.00 1077.71 32.09
6999 38.9780 2.308859 1006.00 1068.63 31.72
7000 38.9830 2.308574 982.00 1060.03 31.34
7001 38.9880 2.308290 950.00 1051.94 30.82
7002 38.9930 2.308005 939.00 1044.39 30.64
7003 38.9980 2.307721 938.00 1037.39 30.63
7004 39.0030 2.307436 928.00 1030.96 30.46
7005 39.0080 2.307152 921.00 1025.09 30.35
7006 39.0130 2.306868 972.00 1019.77 31.18
7007 39.0180 2.306584 1023.00 1015.00 31.98
7008 39.0230 2.306300 1017.00 1010.77 31.89
7009 39.0280 2.306016 1005.00 1007.28 31.70
7010 39.0330 2.305732 1001.00 1004.08 31.64
7011 39.0380 2.305448 1009.00 1001.39 31.76
7012 39.0430 2.305165 997.00 999.18 31.58
7013 39.0480 2.304881 975.00 997.30 31.23
7014 39.0530 2.304597 966.00 996.04 31.08
7015 39.0580 2.304314 983.00 995.26 31.35
7016 39.0630 2.304030 1029.00 994.92 32.08
7017 39.0680 2.303747 1050.00 995.05 32.40
7018 39.0730 2.303463 1021.00 995.63 31.95
7019 39.0780 2.303180 1006.00 997.21 31.72
7020 39.0830 2.302897 1019.00 998.71 31.92
7021 39.0880 2.302614 1028.00 1000.67 32.06
7022 39.0930 2.302331 1025.00 1003.16 32.02
7023 39.0980 2.302048 1038.00 1006.08 32.22
7024 39.1030 2.301765 1080.00 1009.49 32.86
7025 39.1080 2.301483 1101.00 1013.42 33.18
7026 39.1130 2.301200 1084.00 1017.86 32.92
7027 39.1180 2.300917 1053.00 1022.82 32.45
7028 39.1230 2.300635 1011.00 1028.34 31.80
7029 39.1280 2.300352 985.00 1034.42 31.38
7030 39.1330 2.300070 989.00 1041.07 31.45
7031 39.1380 2.299788 993.00 1048.32 31.51
7032 39.1430 2.299505 1006.00 1056.17 31.72
7033 39.1480 2.299223 1048.00 1064.66 32.37
7034 39.1530 2.298941 1087.00 1073.78 32.97
7035 39.1580 2.298659 1122.00 1083.56 33.50
7036 39.1630 2.298377 1128.00 1094.03 33.59
7037 39.1680 2.298095 1161.00 1105.36 34.07
7038 39.1730 2.297813 1180.00 1117.22 34.35
7039 39.1780 2.297532 1189.00 1129.79 34.48
7040 39.1830 2.297250 1223.00 1143.08 34.97
7041 39.1880 2.296968 1216.00 1157.09 34.87
7042 39.1930 2.296687 1207.00 1171.80 34.74
7043 39.1980 2.296405 1220.00 1187.21 34.93
7044 39.2030 2.296124 1238.00 1203.31 35.19
7045 39.2080 2.295843 1269.00 1220.01 35.62
7046 39.2130 2.295562 1288.00 1237.33 35.89
7047 39.2180 2.295280 1295.00 1255.16 35.99
7048 39.2230 2.294999 1294.00 1273.43 35.97
7049 39.2280 2.294718 1308.00 1292.04 36.17
7050 39.2330 2.294437 1332.00 1310.88 36.50
7051 39.2380 2.294157 1324.00 1329.79 36.39
7052 39.2430 2.293876 1324.00 1348.62 36.39
7053 39.2480 2.293595 1338.00 1367.17 36.58
7054 39.2530 2.293314 1381.00 1385.21 37.16
7055 39.2580 2.293034 1431.00 1402.51 37.83
7056 39.2630 2.292753 1466.00 1419.06 38.29
7057 39.2680 2.292473 1498.00 1434.03 38.70
7058 39.2730 2.292193 1512.00 1447.37 38.88
7059 39.2780 2.291912 1493.00 1458.78 38.64
7060 39.2830 2.291632 1488.00 1468.29 38.57
7061 39.2880 2.291352 1489.00 1474.97 38.59
7062 39.2930 2.291072 1480.00 1478.93 38.47
7063 39.2980 2.290792 1489.00 1479.99 38.59
7064 39.3030 2.290512 1499.00 1478.08 38.72
7065 39.3080 2.290232 1486.00 1473.20 38.55
7066 39.3130 2.289953 1472.00 1465.46 38.37
7067 39.3180 2.289673 1479.00 1455.09 38.46
7068 39.3230 2.289393 1473.00 1442.35 38.38
7069 39.3280 2.289114 1486.00 1427.64 38.55
7070 39.3330 2.288834 1470.00 1411.39 38.34
7071 39.3380 2.288555 1454.00 1393.97 38.13
7072 39.3430 2.288275 1434.00 1375.86 37.87
7073 39.3480 2.287996 1407.00 1357.28 37.51
7074 39.3530 2.287717 1369.00 1338.85 37.00
7075 39.3580 2.287438 1338.00 1320.60 36.58
7076 39.3630 2.287159 1309.00 1302.87 36.18
7077 39.3680 2.286880 1303.00 1285.74 36.10
7078 39.3730 2.286601 1239.00 1269.26 35.20
7079 39.3780 2.286322 1220.00 1253.44 34.93
7080 39.3830 2.286043 1230.00 1238.27 35.07
7081 39.3880 2.285764 1207.00 1223.68 34.74
7082 39.3930 2.285486 1220.00 1209.55 34.93
7083 39.3980 2.285208 1193.00 1195.86 34.54
7084 39.4030 2.284929 1184.00 1182.40 34.41
7085 39.4080 2.284650 1155.00 1169.09 33.99
7086 39.4130 2.284372 1142.00 1156.10 33.79
7087 39.4180 2.284094 1149.00 1142.94 33.90
7088 39.4230 2.283816 1125.00 1129.83 33.54
7089 39.4280 2.283538 1114.00 1116.76 33.38
7090 39.4330 2.283260 1113.00 1103.77 33.36
7091 39.4380 2.282982 1093.00 1090.96 33.06
7092 39.4430 2.282704 1056.00 1078.41 32.50
7093 39.4480 2.282426 1048.00 1066.16 32.37
7094 39.4530 2.282148 1095.00 1054.44 33.09
7095 39.4580 2.281871 1111.00 1043.08 33.33
7096 39.4630 2.281593 1081.00 1032.26 32.88
7097 39.4680 2.281316 1047.00 1021.99 32.36
7098 39.4730 2.281038 1018.00 1012.31 31.91
7099 39.4780 2.280761 1025.00 1003.24 32.02
7100 39.4830 2.280483 1051.00 994.76 32.42
7101 39.4880 2.280206 1022.00 986.85 31.97
7102 39.4930 2.279929 983.00 979.53 31.35
7103 39.4980 2.279652 978.00 972.74 31.27
7104 39.5030 2.279375 974.00 966.49 31.21
7105 39.5080 2.279098 979.00 960.72 31.29
7106 39.5130 2.278821 986.00 955.42 31.40
7107 39.5180 2.278544 971.00 950.56 31.16
7108 39.5230 2.278267 970.00 946.10 31.14
7109 39.5280 2.277991 952.00 942.03 30.85
7110 39.5330 2.277714 942.00 938.29 30.69
7111 39.5380 2.277438 944.00 934.88 30.72
7112 39.5430 2.277161 954.00 931.76 30.89
7113 39.5480 2.276885 980.00 928.92 31.31
7114 39.5530 2.276608 985.00 926.32 31.38
7115 39.5580 2.276332 972.00 923.96 31.18
7116 39.5630 2.276056 942.00 921.81 30.69
7117 39.5680 2.275780 891.00 919.86 29.85
7118 39.5730 2.275504 898.00 918.11 29.97
7119 39.5780 2.275228 912.00 916.55 30.20
7120 39.5830 2.274952 895.00 915.16 29.92
7121 39.5880 2.274676 885.00 913.95 29.75
7122 39.5930 2.274401 917.00 912.91 30.28
7123 39.5980 2.274125 955.00 912.04 30.90
7124 39.6030 2.273849 950.00 911.34 30.82
7125 39.6080 2.273574 936.00 910.81 30.59
7126 39.6130 2.273299 929.00 910.26 30.48
7127 39.6180 2.273023 917.00 910.06 30.28
7128 39.6230 2.272748 929.00 910.09 30.48
7129 39.6280 2.272473 951.00 910.22 30.84
7130 39.6330 2.272197 933.00 910.51 30.55
7131 39.6380 2.271922 899.00 911.16 29.98
7132 39.6430 2.271647 890.00 911.80 29.83
7133 39.6480 2.271372 882.00 912.53 29.70
7134 39.6530 2.271097 859.00 913.51 29.31
7135 39.6580 2.270823 864.00 914.66 29.39
7136 39.6630 2.270548 891.00 916.00 29.85
7137 39.6680 2.270273 898.00 917.51 29.97
7138 39.6730 2.269999 888.00 919.20 29.80
7139 39.6780 2.269724 902.00 921.08 30.03
7140 39.6830 2.269450 917.00 923.14 30.28
7141 39.6880 2.269175 923.00 925.38 30.38
7142 39.6930 2.268901 903.00 927.81 30.05
7143 39.6980 2.268627 893.00 930.43 29.88
7144 39.7030 2.268353 915.00 933.24 30.25
7145 39.7080 2.268078 910.00 936.63 30.17
7146 39.7130 2.267804 915.00 939.80 30.25
7147 39.7180 2.267530 930.00 943.15 30.50
7148 39.7230 2.267256 937.00 946.66 30.61
7149 39.7280 2.266983 909.00 950.33 30.15
7150 39.7330 2.266709 892.00 954.15 29.87
7151 39.7380 2.266435 906.00 958.09 30.10
7152 39.7430 2.266161 941.00 962.13 30.68
7153 39.7480 2.265888 995.00 966.30 31.54
7154 39.7530 2.265615 988.00 970.48 31.43
7155 39.7580 2.265341 960.00 974.67 30.98
7156 39.7630 2.265068 937.00 978.84 30.61
7157 39.7680 2.264794 953.00 982.93 30.87
7158 39.7730 2.264521 942.00 986.91 30.69
7159 39.7780 2.264248 963.00 990.68 31.03
7160 39.7830 2.263975 992.00 994.18 31.50
7161 39.7880 2.263702 995.00 997.35 31.54
7162 39.7930 2.263429 978.00 1000.10 31.27
7163 39.7980 2.263156 950.00 1002.35 30.82
7164 39.8030 2.262884 959.00 1004.00 30.97
7165 39.8080 2.262611 965.00 1004.30 31.06
7166 39.8130 2.262338 940.00 1004.55 30.66
7167 39.8180 2.262066 950.00 1004.01 30.82
7168 39.8230 2.261793 948.00 1002.64 30.79
7169 39.8280 2.261521 937.00 1000.33 30.61
7170 39.8330 2.261249 936.00 997.47 30.59
7171 39.8380 2.260976 948.00 993.83 30.79
7172 39.8430 2.260704 955.00 989.45 30.90
7173 39.8480 2.260432 980.00 984.53 31.31
7174 39.8530 2.260160 974.00 979.21 31.21
7175 39.8580 2.259888 951.00 973.59 30.84
7176 39.8630 2.259616 921.00 967.82 30.35
7177 39.8680 2.259344 912.00 961.99 30.20
7178 39.8730 2.259072 921.00 956.21 30.35
7179 39.8780 2.258801 939.00 950.56 30.64
7180 39.8830 2.258529 955.00 945.11 30.90
7181 39.8880 2.258257 947.00 939.91 30.77
7182 39.8930 2.257986 953.00 934.98 30.87
7183 39.8980 2.257714 955.00 930.37 30.90
7184 39.9030 2.257443 940.00 926.08 30.66
7185 39.9080 2.257171 941.00 922.13 30.68
7186 39.9130 2.256901 942.00 918.51 30.69
7187 39.9180 2.256629 937.00 915.23 30.61
7188 39.9230 2.256358 925.00 912.28 30.41
7189 39.9280 2.256087 918.00 909.66 30.30
7190 39.9330 2.255816 891.00 907.35 29.85
7191 39.9380 2.255545 868.00 905.35 29.46
7192 39.9430 2.255275 879.00 903.64 29.65
7193 39.9480 2.255003 913.00 902.22 30.22
7194 39.9530 2.254733 914.00 901.07 30.23
7195 39.9580 2.254462 922.00 900.08 30.36
7196 39.9630 2.254192 928.00 899.45 30.46
7197 39.9680 2.253922 904.00 899.05 30.07
7198 39.9730 2.253651 893.00 898.89 29.88
7199 39.9780 2.253381 890.00 898.96 29.83
7200 39.9830 2.253110 886.00 899.25 29.77
7201 39.9880 2.252840 870.00 899.75 29.50
7202 39.9930 2.252570 887.00 900.47 29.78
7203 39.9980 2.252300 917.00 901.39 30.28
7204 40.0030 2.252030 886.00 902.52 29.77
7205 40.0080 2.251760 874.00 903.85 29.56
7206 40.0130 2.251490 897.00 905.38 29.95
7207 40.0180 2.251220 897.00 907.12 29.95
7208 40.0230 2.250951 935.00 909.06 30.58
7209 40.0280 2.250681 970.00 911.30 31.14
7210 40.0330 2.250412 949.00 913.64 30.81
7211 40.0380 2.250142 930.00 916.19 30.50
7212 40.0430 2.249873 963.00 918.95 31.03
7213 40.0480 2.249603 968.00 921.90 31.11
7214 40.0530 2.249334 941.00 925.07 30.68
7215 40.0580 2.249065 911.00 928.45 30.18
7216 40.0630 2.248796 937.00 932.03 30.61
7217 40.0680 2.248526 947.00 935.81 30.77
7218 40.0730 2.248257 917.00 939.80 30.28
7219 40.0780 2.247988 918.00 943.97 30.30
7220 40.0830 2.247720 907.00 948.34 30.12
7221 40.0880 2.247451 896.00 952.87 29.93
7222 40.0930 2.247182 962.00 957.56 31.02
7223 40.0980 2.246913 948.00 962.40 30.79
7224 40.1030 2.246645 942.00 967.34 30.69
7225 40.1080 2.246376 957.00 972.37 30.94
7226 40.1130 2.246108 978.00 977.46 31.27
7227 40.1180 2.245839 983.00 982.56 31.35
7228 40.1230 2.245571 999.00 987.63 31.61
7229 40.1280 2.245303 986.00 992.61 31.40
7230 40.1330 2.245034 950.00 997.45 30.82
7231 40.1380 2.244766 974.00 1002.07 31.21
7232 40.1430 2.244498 976.00 1006.39 31.24
7233 40.1480 2.244230 984.00 1010.34 31.37
7234 40.1530 2.243962 1013.00 1013.82 31.83
7235 40.1580 2.243694 981.00 1016.75 31.32
7236 40.1630 2.243427 954.00 1019.02 30.89
7237 40.1680 2.243159 980.00 1020.56 31.31
7238 40.1730 2.242891 998.00 1021.28 31.59
7239 40.1780 2.242624 993.00 1021.13 31.51
7240 40.1830 2.242356 1000.00 1020.06 31.62
7241 40.1880 2.242089 1020.00 1018.07 31.94
7242 40.1930 2.241821 1027.00 1015.17 32.05
7243 40.1980 2.241554 1015.00 1011.42 31.86
7244 40.2030 2.241287 978.00 1006.90 31.27
7245 40.2080 2.241019 948.00 1001.72 30.79
7246 40.2130 2.240752 938.00 996.01 30.63
7247 40.2180 2.240485 931.00 989.89 30.51
7248 40.2230 2.240218 926.00 983.51 30.43
7249 40.2280 2.239952 925.00 977.00 30.41
7250 40.2330 2.239685 921.00 970.45 30.35
7251 40.2380 2.239418 899.00 963.99 29.98
7252 40.2430 2.239151 905.00 957.69 30.08
7253 40.2480 2.238885 903.00 951.60 30.05
7254 40.2530 2.238618 907.00 945.80 30.12
7255 40.2580 2.238352 908.00 940.29 30.13
7256 40.2630 2.238085 899.00 935.13 29.98
7257 40.2680 2.237819 906.00 930.31 30.10
7258 40.2730 2.237552 930.00 925.84 30.50
7259 40.2780 2.237286 927.00 921.72 30.45
7260 40.2830 2.237020 911.00 917.95 30.18
7261 40.2880 2.236754 905.00 914.52 30.08
7262 40.2930 2.236488 896.00 911.41 29.93
7263 40.2980 2.236222 917.00 908.60 30.28
7264 40.3030 2.235956 915.00 906.10 30.25
7265 40.3080 2.235690 928.00 903.87 30.46
7266 40.3130 2.235425 928.00 901.89 30.46
7267 40.3180 2.235159 907.00 900.26 30.12
7268 40.3230 2.234893 859.00 898.75 29.31
7269 40.3280 2.234628 842.00 897.46 29.02
7270 40.3330 2.234362 828.00 896.36 28.77
7271 40.3380 2.234097 851.00 895.44 29.17
7272 40.3430 2.233831 878.00 894.69 29.63
7273 40.3480 2.233566 915.00 894.09 30.25
7274 40.3530 2.233301 932.00 893.63 30.53
7275 40.3580 2.233036 911.00 893.30 30.18
7276 40.3630 2.232771 895.00 893.09 29.92
7277 40.3680 2.232506 944.00 893.00 30.72
7278 40.3730 2.232240 955.00 893.30 30.90
7279 40.3780 2.231976 956.00 893.43 30.92
7280 40.3830 2.231711 921.00 893.66 30.35
7281 40.3880 2.231446 923.00 893.98 30.38
7282 40.3930 2.231181 930.00 894.41 30.50
7283 40.3980 2.230917 912.00 894.92 30.20
7284 40.4030 2.230652 898.00 895.54 29.97
7285 40.4080 2.230388 875.00 896.26 29.58
7286 40.4130 2.230124 898.00 897.08 29.97
7287 40.4180 2.229859 925.00 898.00 30.41
7288 40.4230 2.229595 933.00 899.05 30.55
7289 40.4280 2.229331 911.00 900.20 30.18
7290 40.4330 2.229066 879.00 901.47 29.65
7291 40.4380 2.228802 867.00 902.88 29.44
7292 40.4430 2.228538 880.00 904.41 29.66
7293 40.4480 2.228274 889.00 906.10 29.82
7294 40.4530 2.228011 912.00 907.95 30.20
7295 40.4580 2.227747 921.00 909.97 30.35
7296 40.4630 2.227483 897.00 912.17 29.95
7297 40.4680 2.227219 896.00 914.56 29.93
7298 40.4730 2.226956 924.00 917.17 30.40
7299 40.4780 2.226692 941.00 920.00 30.68
7300 40.4830 2.226429 926.00 923.08 30.43
7301 40.4880 2.226165 920.00 926.41 30.33
7302 40.4930 2.225902 933.00 930.03 30.55
7303 40.4980 2.225639 939.00 933.94 30.64
7304 40.5030 2.225375 964.00 938.17 31.05
7305 40.5080 2.225112 986.00 942.73 31.40
7306 40.5130 2.224849 967.00 947.65 31.10
7307 40.5180 2.224586 947.00 952.94 30.77
7308 40.5230 2.224323 949.00 958.62 30.81
7309 40.5280 2.224060 948.00 964.57 30.79
7310 40.5330 2.223797 963.00 971.10 31.03
7311 40.5380 2.223535 981.00 978.09 31.32
7312 40.5430 2.223272 1001.00 985.55 31.64
7313 40.5480 2.223009 1011.00 993.49 31.80
7314 40.5530 2.222747 1012.00 1001.95 31.81
7315 40.5580 2.222484 1067.00 1010.93 32.67
7316 40.5630 2.222222 1080.00 1020.45 32.86
7317 40.5680 2.221960 1008.00 1030.51 31.75
7318 40.5730 2.221697 979.00 1041.14 31.29
7319 40.5780 2.221435 1024.00 1052.33 32.00
7320 40.5830 2.221173 1070.00 1064.08 32.71
7321 40.5880 2.220911 1117.00 1076.41 33.42
7322 40.5930 2.220649 1139.00 1089.29 33.75
7323 40.5980 2.220387 1152.00 1102.72 33.94
7324 40.6030 2.220125 1196.00 1116.64 34.58
7325 40.6080 2.219863 1183.00 1131.05 34.39
7326 40.6130 2.219602 1182.00 1145.93 34.38
7327 40.6180 2.219340 1164.00 1161.17 34.12
7328 40.6230 2.219078 1174.00 1177.16 34.26
7329 40.6280 2.218817 1208.00 1193.01 34.76
7330 40.6330 2.218555 1232.00 1209.00 35.10
7331 40.6380 2.218294 1250.00 1225.03 35.36
7332 40.6430 2.218032 1308.00 1241.01 36.17
7333 40.6480 2.217771 1347.00 1256.74 36.70
7334 40.6530 2.217510 1348.00 1272.09 36.72
7335 40.6580 2.217248 1318.00 1286.61 36.30
7336 40.6630 2.216988 1299.00 1300.61 36.04
7337 40.6680 2.216727 1289.00 1313.63 35.90
7338 40.6730 2.216465 1298.00 1325.44 36.03
7339 40.6780 2.216204 1313.00 1335.84 36.24
7340 40.6830 2.215944 1314.00 1344.51 36.25
7341 40.6880 2.215683 1317.00 1351.50 36.29
7342 40.6930 2.215422 1337.00 1356.42 36.56
7343 40.6980 2.215162 1363.00 1359.47 36.92
7344 40.7030 2.214901 1354.00 1360.48 36.80
7345 40.7080 2.214640 1356.00 1359.46 36.82
7346 40.7130 2.214380 1381.00 1356.47 37.16
7347 40.7180 2.214120 1405.00 1351.62 37.48
7348 40.7230 2.213860 1375.00 1345.01 37.08
7349 40.7280 2.213599 1318.00 1336.79 36.30
7350 40.7330 2.213339 1259.00 1327.09 35.48
7351 40.7380 2.213079 1272.00 1316.03 35.67
7352 40.7430 2.212819 1279.00 1303.78 35.76
7353 40.7480 2.212559 1251.00 1290.44 35.37
7354 40.7530 2.212299 1242.00 1276.23 35.24
7355 40.7580 2.212039 1237.00 1261.30 35.17
7356 40.7630 2.211779 1216.00 1245.86 34.87
7357 40.7680 2.211519 1212.00 1230.14 34.81
7358 40.7730 2.211260 1182.00 1214.35 34.38
7359 40.7780 2.211000 1159.00 1198.72 34.04
7360 40.7830 2.210741 1117.00 1183.46 33.42
7361 40.7880 2.210481 1130.00 1168.73 33.62
7362 40.7930 2.210222 1120.00 1154.75 33.47
7363 40.7980 2.209963 1099.00 1141.56 33.15
7364 40.8030 2.209703 1098.00 1127.75 33.14
7365 40.8080 2.209444 1104.00 1116.47 33.23
7366 40.8130 2.209185 1112.00 1106.22 33.35
7367 40.8180 2.208926 1115.00 1097.02 33.39
7368 40.8230 2.208667 1147.00 1088.86 33.87
7369 40.8280 2.208408 1165.00 1081.72 34.13
7370 40.8330 2.208149 1126.00 1075.04 33.56
7371 40.8380 2.207890 1072.00 1069.90 32.74
7372 40.8430 2.207632 1049.00 1065.79 32.39
7373 40.8480 2.207373 1026.00 1062.49 32.03
7374 40.8530 2.207114 1021.00 1060.05 31.95
7375 40.8580 2.206856 1022.00 1058.41 31.97
7376 40.8630 2.206597 1011.00 1057.52 31.80
7377 40.8680 2.206339 1002.00 1057.33 31.65
7378 40.8730 2.206080 1015.00 1057.79 31.86
7379 40.8780 2.205822 1062.00 1058.85 32.59
7380 40.8830 2.205564 1070.00 1060.45 32.71
7381 40.8880 2.205306 1055.00 1062.54 32.48
7382 40.8930 2.205047 1053.00 1064.86 32.45
7383 40.8980 2.204790 1073.00 1067.81 32.76
7384 40.9030 2.204532 1099.00 1071.12 33.15
7385 40.9080 2.204274 1104.00 1074.76 33.23
7386 40.9130 2.204016 1096.00 1078.70 33.11
7387 40.9180 2.203758 1085.00 1082.91 32.94
7388 40.9230 2.203500 1091.00 1087.36 33.03
7389 40.9280 2.203243 1098.00 1092.06 33.14
7390 40.9330 2.202985 1142.00 1096.56 33.79
7391 40.9380 2.202728 1144.00 1101.67 33.82
7392 40.9430 2.202470 1151.00 1107.23 33.93
7393 40.9480 2.202213 1132.00 1112.70 33.65
7394 40.9530 2.201955 1124.00 1118.34 33.53
7395 40.9580 2.201698 1166.00 1124.13 34.15
7396 40.9630 2.201441 1164.00 1130.10 34.12
7397 40.9680 2.201184 1152.00 1136.27 33.94
7398 40.9730 2.200927 1157.00 1142.66 34.01
7399 40.9780 2.200670 1192.00 1149.33 34.53
7400 40.9830 2.200413 1185.00 1156.36 34.42
7401 40.9880 2.200156 1191.00 1163.81 34.51
7402 40.9930 2.199899 1222.00 1171.79 34.96
7403 40.9980 2.199642 1238.00 1180.38 35.19
7404 41.0030 2.199386 1230.00 1189.67 35.07
7405 41.0080 2.199129 1199.00 1199.77 34.63
7406 41.0130 2.198873 1169.00 1210.73 34.19
7407 41.0180 2.198616 1187.00 1222.63 34.45
7408 41.0230 2.198360 1206.00 1235.61 34.73
7409 41.0280 2.198103 1186.00 1249.50 34.44
7410 41.0330 2.197847 1228.00 1264.45 35.04
7411 41.0380 2.197591 1267.00 1280.42 35.59
7412 41.0430 2.197335 1332.00 1297.55 36.50
7413 41.0480 2.197078 1332.00 1315.56 36.50
7414 41.0530 2.196822 1326.00 1334.53 36.41
7415 41.0580 2.196566 1331.00 1354.40 36.48
7416 41.0630 2.196311 1370.00 1375.11 37.01
7417 41.0680 2.196055 1404.00 1396.55 37.47
7418 41.0730 2.195799 1414.00 1418.58 37.60
7419 41.0780 2.195543 1455.00 1441.08 38.14
7420 41.0830 2.195287 1526.00 1463.86 39.06
7421 41.0880 2.195032 1599.00 1486.81 39.99
7422 41.0930 2.194776 1620.00 1509.68 40.25
7423 41.0980 2.194521 1638.00 1532.25 40.47
7424 41.1030 2.194265 1617.00 1554.31 40.21
7425 41.1080 2.194010 1618.00 1575.60 40.22
7426 41.1130 2.193755 1666.00 1595.89 40.82
7427 41.1180 2.193500 1677.00 1614.88 40.95
7428 41.1230 2.193244 1652.00 1632.34 40.64
7429 41.1280 2.192989 1651.00 1648.01 40.63
7430 41.1330 2.192734 1642.00 1661.61 40.52
7431 41.1380 2.192479 1665.00 1672.88 40.80
7432 41.1430 2.192224 1679.00 1681.60 40.98
7433 41.1480 2.191970 1676.00 1687.53 40.94
7434 41.1530 2.191715 1672.00 1690.38 40.89
7435 41.1580 2.191460 1682.00 1690.26 41.01
7436 41.1630 2.191206 1706.00 1687.01 41.30
7437 41.1680 2.190951 1712.00 1680.68 41.38
7438 41.1730 2.190696 1708.00 1671.45 41.33
7439 41.1780 2.190442 1698.00 1659.61 41.21
7440 41.1830 2.190188 1694.00 1645.54 41.16
7441 41.1880 2.189933 1684.00 1629.75 41.04
7442 41.1930 2.189679 1625.00 1612.79 40.31
7443 41.1980 2.189425 1564.00 1595.17 39.55
7444 41.2030 2.189171 1554.00 1577.57 39.42
7445 41.2080 2.188916 1544.00 1560.35 39.29
7446 41.2130 2.188663 1521.00 1544.03 39.00
7447 41.2180 2.188409 1504.00 1529.05 38.78
7448 41.2230 2.188155 1488.00 1515.73 38.57
7449 41.2280 2.187901 1468.00 1504.38 38.31
7450 41.2330 2.187647 1460.00 1495.18 38.21
7451 41.2380 2.187393 1475.00 1488.31 38.41
7452 41.2430 2.187140 1481.00 1483.90 38.48
7453 41.2480 2.186886 1442.00 1482.01 37.97
7454 41.2530 2.186633 1400.00 1482.69 37.42
7455 41.2580 2.186379 1407.00 1485.94 37.51
7456 41.2630 2.186126 1426.00 1491.74 37.76
7457 41.2680 2.185873 1475.00 1500.06 38.41
7458 41.2730 2.185619 1489.00 1510.84 38.59
7459 41.2780 2.185366 1517.00 1524.00 38.95
7460 41.2830 2.185113 1524.00 1539.43 39.04
7461 41.2880 2.184860 1542.00 1557.02 39.27
7462 41.2930 2.184607 1587.00 1576.65 39.84
7463 41.2980 2.184354 1658.00 1598.13 40.72
7464 41.3030 2.184101 1707.00 1621.31 41.32
7465 41.3080 2.183848 1736.00 1646.02 41.67
7466 41.3130 2.183595 1747.00 1672.00 41.80
7467 41.3180 2.183343 1757.00 1699.02 41.92
7468 41.3230 2.183090 1780.00 1726.82 42.19
7469 41.3280 2.182837 1754.00 1755.11 41.88
7470 41.3330 2.182585 1761.00 1783.58 41.96
7471 41.3380 2.182333 1815.00 1811.92 42.60
7472 41.3430 2.182080 1856.00 1839.78 43.08
7473 41.3480 2.181828 1870.00 1866.84 43.24
7474 41.3530 2.181576 1909.00 1892.71 43.69
7475 41.3580 2.181323 1946.00 1917.16 44.11
7476 41.3630 2.181071 1939.00 1939.82 44.03
7477 41.3680 2.180819 1977.00 1960.43 44.46
7478 41.3730 2.180567 2034.00 1978.78 45.10
7479 41.3780 2.180315 2065.00 1994.59 45.44
7480 41.3830 2.180063 2077.00 2007.69 45.57
7481 41.3880 2.179811 2043.00 2017.87 45.20
7482 41.3930 2.179560 1995.00 2024.95 44.67
7483 41.3980 2.179308 1976.00 2028.81 44.45
7484 41.4030 2.179057 1981.00 2029.33 44.51
7485 41.4080 2.178805 2004.00 2026.49 44.77
7486 41.4130 2.178554 2021.00 2020.34 44.96
7487 41.4180 2.178302 2058.00 2011.06 45.37
7488 41.4230 2.178051 2070.00 1998.93 45.50
7489 41.4280 2.177799 2029.00 1984.34 45.04
7490 41.4330 2.177548 1965.00 1967.80 44.33
7491 41.4380 2.177297 1928.00 1949.86 43.91
7492 41.4430 2.177046 1928.00 1931.10 43.91
7493 41.4480 2.176795 1897.00 1912.08 43.55
7494 41.4530 2.176544 1875.00 1893.33 43.30
7495 41.4580 2.176293 1880.00 1875.33 43.36
7496 41.4630 2.176042 1844.00 1858.42 42.94
7497 41.4680 2.175791 1791.00 1842.88 42.32
7498 41.4730 2.175540 1805.00 1828.94 42.49
7499 41.4780 2.175290 1768.00 1816.70 42.05
7500 41.4830 2.175039 1737.00 1806.17 41.68
7501 41.4880 2.174788 1732.00 1797.38 41.62
7502 41.4930 2.174538 1736.00 1790.27 41.67
7503 41.4980 2.174287 1721.00 1784.76 41.48
7504 41.5030 2.174037 1721.00 1780.76 41.48
7505 41.5080 2.173787 1745.00 1778.25 41.77
7506 41.5130 2.173536 1775.00 1777.09 42.13
7507 41.5180 2.173286 1723.00 1777.27 41.51
7508 41.5230 2.173036 1724.00 1778.76 41.52
7509 41.5280 2.172786 1768.00 1781.55 42.05
7510 41.5330 2.172536 1793.00 1785.63 42.34
7511 41.5380 2.172286 1789.00 1790.83 42.30
7512 41.5430 2.172036 1786.00 1797.37 42.26
7513 41.5480 2.171786 1778.00 1805.02 42.17
7514 41.5530 2.171536 1802.00 1813.66 42.45
7515 41.5580 2.171287 1825.00 1823.10 42.72
7516 41.5630 2.171037 1812.00 1832.85 42.57
7517 41.5680 2.170787 1839.00 1843.15 42.88
7518 41.5730 2.170538 1803.00 1853.41 42.46
7519 41.5780 2.170289 1806.00 1863.25 42.50
7520 41.5830 2.170039 1859.00 1872.27 43.12
7521 41.5880 2.169790 1861.00 1880.04 43.14
7522 41.5930 2.169540 1879.00 1886.15 43.35
7523 41.5980 2.169291 1899.00 1890.17 43.58
7524 41.6030 2.169042 1887.00 1891.74 43.44
7525 41.6080 2.168793 1881.00 1890.56 43.37
7526 41.6130 2.168544 1907.00 1886.42 43.67
7527 41.6180 2.168295 1848.00 1879.23 42.99
7528 41.6230 2.168046 1843.00 1869.01 42.93
7529 41.6280 2.167797 1871.00 1855.94 43.26
7530 41.6330 2.167548 1851.00 1840.29 43.02
7531 41.6380 2.167300 1831.00 1822.47 42.79
7532 41.6430 2.167051 1828.00 1802.92 42.76
7533 41.6480 2.166802 1800.00 1782.20 42.43
7534 41.6530 2.166554 1808.00 1760.84 42.52
7535 41.6580 2.166305 1764.00 1739.33 42.00
7536 41.6630 2.166057 1717.00 1718.16 41.44
7537 41.6680 2.165809 1685.00 1697.76 41.05
7538 41.6730 2.165560 1623.00 1678.35 40.29
7539 41.6780 2.165312 1561.00 1660.41 39.51
7540 41.6830 2.165064 1568.00 1644.01 39.60
7541 41.6880 2.164816 1568.00 1629.25 39.60
7542 41.6930 2.164568 1553.00 1616.20 39.41
7543 41.6980 2.164320 1558.00 1604.80 39.47
7544 41.7030 2.164072 1554.00 1595.00 39.42
7545 41.7080 2.163824 1546.00 1586.66 39.32
7546 41.7130 2.163576 1556.00 1579.60 39.45
7547 41.7180 2.163328 1590.00 1573.63 39.87
7548 41.7230 2.163081 1623.00 1568.51 40.29
7549 41.7280 2.162833 1638.00 1563.96 40.47
7550 41.7330 2.162585 1621.00 1559.70 40.26
7551 41.7380 2.162338 1588.00 1555.43 39.85
7552 41.7430 2.162091 1613.00 1550.87 40.16
7553 41.7480 2.161843 1599.00 1545.72 39.99
7554 41.7530 2.161596 1547.00 1539.73 39.33
7555 41.7580 2.161349 1535.00 1532.66 39.18
7556 41.7630 2.161101 1491.00 1524.37 38.61
7557 41.7680 2.160854 1442.00 1514.72 37.97
7558 41.7730 2.160607 1452.00 1503.70 38.11
7559 41.7780 2.160360 1488.00 1491.33 38.57
7560 41.7830 2.160113 1514.00 1477.71 38.91
7561 41.7880 2.159866 1478.00 1463.01 38.44
7562 41.7930 2.159619 1444.00 1447.44 38.00
7563 41.7980 2.159373 1454.00 1431.27 38.13
7564 41.8030 2.159126 1462.00 1414.80 38.24
7565 41.8080 2.158879 1457.00 1398.22 38.17
7566 41.8130 2.158633 1419.00 1381.88 37.67
7567 41.8180 2.158386 1386.00 1366.05 37.23
7568 41.8230 2.158139 1393.00 1350.94 37.32
7569 41.8280 2.157893 1338.00 1336.80 36.58
7570 41.8330 2.157647 1304.00 1323.80 36.11
7571 41.8380 2.157400 1283.00 1312.10 35.82
7572 41.8430 2.157154 1278.00 1301.83 35.75
7573 41.8480 2.156908 1299.00 1293.08 36.04
7574 41.8530 2.156662 1325.00 1285.94 36.40
7575 41.8580 2.156416 1344.00 1280.46 36.66
7576 41.8630 2.156170 1318.00 1276.67 36.30
7577 41.8680 2.155924 1293.00 1274.59 35.96
7578 41.8730 2.155678 1274.00 1274.22 35.69
7579 41.8780 2.155432 1281.00 1275.57 35.79
7580 41.8830 2.155187 1314.00 1278.61 36.25
7581 41.8880 2.154941 1334.00 1283.32 36.52
7582 41.8930 2.154695 1330.00 1289.67 36.47
7583 41.8980 2.154450 1356.00 1297.62 36.82
7584 41.9030 2.154204 1368.00 1307.12 36.99
7585 41.9080 2.153959 1360.00 1318.11 36.88
7586 41.9130 2.153713 1366.00 1330.54 36.96
7587 41.9180 2.153468 1338.00 1344.31 36.58
7588 41.9230 2.153223 1343.00 1359.34 36.65
7589 41.9280 2.152977 1389.00 1375.56 37.27
7590 41.9330 2.152732 1415.00 1392.84 37.62
7591 41.9380 2.152487 1452.00 1411.19 38.11
7592 41.9430 2.152242 1475.00 1430.23 38.41
7593 41.9480 2.151997 1457.00 1449.95 38.17
7594 41.9530 2.151752 1479.00 1470.18 38.46
7595 41.9580 2.151507 1507.00 1490.74 38.82
7596 41.9630 2.151263 1512.00 1511.45 38.88
7597 41.9680 2.151018 1511.00 1532.11 38.87
7598 41.9730 2.150773 1561.00 1552.53 39.51
7599 41.9780 2.150528 1604.00 1572.45 40.05
7600 41.9830 2.150284 1611.00 1591.74 40.14
7601 41.9880 2.150039 1610.00 1610.17 40.12
7602 41.9930 2.149795 1643.00 1627.57 40.53
7603 41.9980 2.149551 1670.00 1643.85 40.87
7604 42.0030 2.149306 1650.00 1658.88 40.62
7605 42.0080 2.149062 1655.00 1672.75 40.68
7606 42.0130 2.148818 1670.00 1685.14 40.87
7607 42.0180 2.148574 1700.00 1696.21 41.23
7608 42.0230 2.148330 1737.00 1705.97 41.68
7609 42.0280 2.148086 1754.00 1714.42 41.88
7610 42.0330 2.147842 1773.00 1721.60 42.11
7611 42.0380 2.147598 1800.00 1727.46 42.43
7612 42.0430 2.147354 1800.00 1731.96 42.43
7613 42.0480 2.147110 1774.00 1734.99 42.12
7614 42.0530 2.146866 1754.00 1736.45 41.88
7615 42.0580 2.146623 1716.00 1736.17 41.42
7616 42.0630 2.146379 1700.00 1734.02 41.23
7617 42.0680 2.146136 1691.00 1729.87 41.12
7618 42.0730 2.145892 1706.00 1723.62 41.30
7619 42.0780 2.145649 1748.00 1715.24 41.81
7620 42.0830 2.145405 1745.00 1704.80 41.77
7621 42.0880 2.145162 1718.00 1692.40 41.45
7622 42.0930 2.144919 1702.00 1678.24 41.26
7623 42.0980 2.144675 1656.00 1662.63 40.69
7624 42.1030 2.144433 1637.00 1645.88 40.46
7625 42.1080 2.144189 1649.00 1628.26 40.61
7626 42.1130 2.143946 1658.00 1610.13 40.72
7627 42.1180 2.143703 1644.00 1591.80 40.55
7628 42.1230 2.143460 1604.00 1573.49 40.05
7629 42.1280 2.143218 1546.00 1555.46 39.32
7630 42.1330 2.142975 1509.00 1537.84 38.85
7631 42.1380 2.142732 1458.00 1520.80 38.18
7632 42.1430 2.142489 1427.00 1504.37 37.78
7633 42.1480 2.142247 1406.00 1488.73 37.50
7634 42.1530 2.142004 1401.00 1473.65 37.43
7635 42.1580 2.141762 1404.00 1459.18 37.47
7636 42.1630 2.141520 1401.00 1445.27 37.43
7637 42.1680 2.141277 1396.00 1431.84 37.36
7638 42.1730 2.141035 1370.00 1418.77 37.01
7639 42.1780 2.140793 1356.00 1405.91 36.82
7640 42.1830 2.140550 1334.00 1393.16 36.52
7641 42.1880 2.140308 1317.00 1380.27 36.29
7642 42.1930 2.140066 1302.00 1367.19 36.08
7643 42.1980 2.139824 1297.00 1353.74 36.01
7644 42.2030 2.139582 1301.00 1339.85 36.07
7645 42.2080 2.139340 1303.00 1325.49 36.10
7646 42.2130 2.139098 1312.00 1310.63 36.22
7647 42.2180 2.138857 1307.00 1295.30 36.15
7648 42.2230 2.138615 1272.00 1279.62 35.67
7649 42.2280 2.138373 1264.00 1263.71 35.55
7650 42.2330 2.138132 1265.00 1247.70 35.57
7651 42.2380 2.137890 1234.00 1231.95 35.13
7652 42.2430 2.137649 1209.00 1216.28 34.77
7653 42.2480 2.137407 1192.00 1200.99 34.53
7654 42.2530 2.137166 1191.00 1186.24 34.51
7655 42.2580 2.136925 1208.00 1172.14 34.76
7656 42.2630 2.136683 1211.00 1158.81 34.80
7657 42.2680 2.136442 1178.00 1146.28 34.32
7658 42.2730 2.136201 1124.00 1134.63 33.53
7659 42.2780 2.135960 1111.00 1123.90 33.33
7660 42.2830 2.135719 1134.00 1114.08 33.67
7661 42.2880 2.135478 1110.00 1105.18 33.32
7662 42.2930 2.135237 1077.00 1097.19 32.82
7663 42.2980 2.134996 1062.00 1090.10 32.59
7664 42.3030 2.134755 1081.00 1083.88 32.88
7665 42.3080 2.134515 1090.00 1078.48 33.02
7666 42.3130 2.134274 1068.00 1073.88 32.68
7667 42.3180 2.134033 1042.00 1070.04 32.28
7668 42.3230 2.133793 1009.00 1066.89 31.76
7669 42.3280 2.133553 1018.00 1064.39 31.91
7670 42.3330 2.133312 1027.00 1062.79 32.05
7671 42.3380 2.133072 1025.00 1061.41 32.02
7672 42.3430 2.132832 1029.00 1060.50 32.08
7673 42.3480 2.132591 1059.00 1059.99 32.54
7674 42.3530 2.132351 1061.00 1059.80 32.57
7675 42.3580 2.132111 1021.00 1059.87 31.95
7676 42.3630 2.131871 1018.00 1060.10 31.91
7677 42.3680 2.131631 1029.00 1060.42 32.08
7678 42.3730 2.131391 1037.00 1060.74 32.20
7679 42.3780 2.131151 1050.00 1060.97 32.40
7680 42.3830 2.130911 1036.00 1061.02 32.19
7681 42.3880 2.130671 1032.00 1060.81 32.12
7682 42.3930 2.130431 1052.00 1060.25 32.43
7683 42.3980 2.130192 1064.00 1059.27 32.62
7684 42.4030 2.129952 1062.00 1057.88 32.59
7685 42.4080 2.129713 1066.00 1055.87 32.65
7686 42.4130 2.129473 1047.00 1053.32 32.36
7687 42.4180 2.129234 1022.00 1050.21 31.97
7688 42.4230 2.128994 1035.00 1046.64 32.17
7689 42.4280 2.128755 1049.00 1042.54 32.39
7690 42.4330 2.128516 1049.00 1038.04 32.39
7691 42.4380 2.128277 1067.00 1033.60 32.67
7692 42.4430 2.128037 1052.00 1028.57 32.43
7693 42.4480 2.127798 1003.00 1023.41 31.67
7694 42.4530 2.127559 983.00 1018.23 31.35
7695 42.4580 2.127320 1031.00 1013.10 32.11
7696 42.4630 2.127081 1046.00 1008.12 32.34
7697 42.4680 2.126842 1015.00 1003.34 31.86
7698 42.4730 2.126604 990.00 998.76 31.46
7699 42.4780 2.126365 985.00 994.53 31.38
7700 42.4830 2.126126 977.00 990.63 31.26
7701 42.4880 2.125888 942.00 987.00 30.69
7702 42.4930 2.125649 927.00 983.84 30.45
7703 42.4980 2.125410 947.00 981.06 30.77
7704 42.5030 2.125172 978.00 978.67 31.27
7705 42.5080 2.124934 996.00 976.69 31.56
7706 42.5130 2.124695 988.00 975.11 31.43
7707 42.5180 2.124457 967.00 973.95 31.10
7708 42.5230 2.124219 973.00 973.20 31.19
7709 42.5280 2.123981 977.00 972.86 31.26
7710 42.5330 2.123742 965.00 972.95 31.06
7711 42.5380 2.123504 953.00 973.47 30.87
7712 42.5430 2.123266 922.00 974.41 30.36
7713 42.5480 2.123029 907.00 975.80 30.12
7714 42.5530 2.122790 930.00 977.64 30.50
7715 42.5580 2.122553 978.00 979.93 31.27
7716 42.5630 2.122315 990.00 982.69 31.46
7717 42.5680 2.122077 979.00 985.93 31.29
7718 42.5730 2.121840 1018.00 989.71 31.91
7719 42.5780 2.121602 1037.00 993.94 32.20
7720 42.5830 2.121364 1007.00 998.69 31.73
7721 42.5880 2.121127 978.00 1003.97 31.27
7722 42.5930 2.120890 952.00 1009.79 30.85
7723 42.5980 2.120652 943.00 1016.15 30.71
7724 42.6030 2.120415 932.00 1023.07 30.53
7725 42.6080 2.120178 957.00 1030.56 30.94
7726 42.6130 2.119941 1021.00 1038.62 31.95
7727 42.6180 2.119703 1033.00 1047.25 32.14
7728 42.6230 2.119466 1024.00 1056.47 32.00
7729 42.6280 2.119229 1042.00 1066.25 32.28
7730 42.6330 2.118992 1047.00 1076.59 32.36
7731 42.6380 2.118755 1055.00 1087.48 32.48
7732 42.6430 2.118518 1080.00 1098.90 32.86
7733 42.6480 2.118282 1098.00 1110.83 33.14
7734 42.6530 2.118045 1104.00 1123.23 33.23
7735 42.6580 2.117808 1108.00 1136.06 33.29
7736 42.6630 2.117572 1127.00 1149.28 33.57
7737 42.6680 2.117335 1160.00 1162.83 34.06
7738 42.6730 2.117098 1189.00 1176.62 34.48
7739 42.6780 2.116862 1214.00 1190.61 34.84
7740 42.6830 2.116626 1217.00 1204.68 34.89
7741 42.6880 2.116389 1205.00 1218.74 34.71
7742 42.6930 2.116153 1189.00 1232.66 34.48
7743 42.6980 2.115916 1148.00 1246.54 33.88
7744 42.7030 2.115681 1159.00 1259.86 34.04
7745 42.7080 2.115444 1204.00 1272.67 34.70
7746 42.7130 2.115208 1223.00 1284.86 34.97
7747 42.7180 2.114972 1239.00 1296.35 35.20
7748 42.7230 2.114736 1286.00 1306.91 35.86
7749 42.7280 2.114501 1338.00 1316.46 36.58
7750 42.7330 2.114265 1376.00 1324.93 37.09
7751 42.7380 2.114029 1385.00 1332.23 37.22
7752 42.7430 2.113793 1382.00 1338.17 37.18
7753 42.7480 2.113558 1371.00 1342.70 37.03
7754 42.7530 2.113322 1367.00 1345.72 36.97
7755 42.7580 2.113086 1392.00 1347.11 37.31
7756 42.7630 2.112851 1416.00 1346.81 37.63
7757 42.7680 2.112615 1429.00 1344.75 37.80
7758 42.7730 2.112380 1411.00 1340.87 37.56
7759 42.7780 2.112145 1411.00 1335.21 37.56
7760 42.7830 2.111909 1399.00 1327.83 37.40
7761 42.7880 2.111674 1383.00 1318.83 37.19
7762 42.7930 2.111439 1392.00 1308.47 37.31
7763 42.7980 2.111204 1392.00 1296.85 37.31
7764 42.8030 2.110969 1369.00 1284.29 37.00
7765 42.8080 2.110734 1354.00 1271.07 36.80
7766 42.8130 2.110499 1316.00 1257.47 36.28
7767 42.8180 2.110264 1264.00 1243.79 35.55
7768 42.8230 2.110029 1250.00 1230.24 35.36
7769 42.8280 2.109795 1254.00 1217.05 35.41
7770 42.8330 2.109560 1255.00 1204.44 35.43
7771 42.8380 2.109325 1222.00 1192.55 34.96
7772 42.8430 2.109091 1170.00 1181.54 34.21
7773 42.8480 2.108856 1167.00 1171.51 34.16
7774 42.8530 2.108622 1150.00 1162.55 33.91
7775 42.8580 2.108387 1120.00 1154.75 33.47
7776 42.8630 2.108153 1105.00 1148.15 33.24
7777 42.8680 2.107919 1109.00 1143.15 33.30
7778 42.8730 2.107684 1131.00 1139.09 33.63
7779 42.8780 2.107450 1127.00 1136.34 33.57
7780 42.8830 2.107216 1110.00 1134.90 33.32
7781 42.8880 2.106982 1093.00 1134.79 33.06
7782 42.8930 2.106748 1108.00 1135.98 33.29
7783 42.8980 2.106514 1148.00 1138.47 33.88
7784 42.9030 2.106280 1157.00 1142.23 34.01
7785 42.9080 2.106046 1122.00 1147.24 33.50
7786 42.9130 2.105812 1084.00 1153.46 32.92
7787 42.9180 2.105578 1064.00 1160.85 32.62
7788 42.9230 2.105345 1060.00 1169.38 32.56
7789 42.9280 2.105111 1101.00 1178.98 33.18
7790 42.9330 2.104878 1133.00 1189.61 33.66
7791 42.9380 2.104644 1131.00 1201.19 33.63
7792 42.9430 2.104410 1132.00 1213.65 33.65
7793 42.9480 2.104177 1152.00 1226.93 33.94
7794 42.9530 2.103944 1192.00 1240.92 34.53
7795 42.9580 2.103710 1242.00 1255.52 35.24
7796 42.9630 2.103477 1238.00 1270.64 35.19
7797 42.9680 2.103244 1228.00 1286.14 35.04
7798 42.9730 2.103011 1248.00 1301.87 35.33
7799 42.9780 2.102778 1268.00 1317.67 35.61
7800 42.9830 2.102545 1261.00 1333.38 35.51
7801 42.9880 2.102312 1251.00 1348.80 35.37
7802 42.9930 2.102079 1261.00 1363.69 35.51
7803 42.9980 2.101846 1292.00 1378.11 35.94
7804 43.0030 2.101613 1324.00 1391.28 36.39
7805 43.0080 2.101381 1322.00 1403.17 36.36
7806 43.0130 2.101148 1305.00 1413.28 36.12
7807 43.0180 2.100915 1311.00 1421.79 36.21
7808 43.0230 2.100683 1325.00 1428.19 36.40
7809 43.0280 2.100450 1354.00 1432.24 36.80
7810 43.0330 2.100218 1400.00 1433.74 37.42
7811 43.0380 2.099985 1413.00 1432.55 37.59
7812 43.0430 2.099753 1389.00 1428.59 37.27
7813 43.0480 2.099520 1366.00 1421.91 36.96
7814 43.0530 2.099288 1348.00 1412.62 36.72
7815 43.0580 2.099056 1362.00 1400.95 36.91
7816 43.0630 2.098824 1345.00 1387.21 36.67
7817 43.0680 2.098592 1321.00 1371.77 36.35
7818 43.0730 2.098360 1322.00 1354.82 36.36
7819 43.0780 2.098128 1321.00 1337.16 36.35
7820 43.0830 2.097896 1321.00 1319.01 36.35
7821 43.0880 2.097664 1345.00 1300.73 36.67
7822 43.0930 2.097432 1356.00 1282.67 36.82
7823 43.0980 2.097201 1345.00 1265.08 36.67
7824 43.1030 2.096969 1330.00 1248.25 36.47
7825 43.1080 2.096737 1280.00 1232.32 35.78
7826 43.1130 2.096506 1237.00 1217.44 35.17
7827 43.1180 2.096274 1227.00 1203.75 35.03
7828 43.1230 2.096043 1243.00 1191.28 35.26
7829 43.1280 2.095811 1236.00 1180.11 35.16
7830 43.1330 2.095580 1213.00 1170.25 34.83
7831 43.1380 2.095348 1217.00 1161.71 34.89
7832 43.1430 2.095117 1196.00 1154.48 34.58
7833 43.1480 2.094886 1178.00 1148.55 34.32
7834 43.1530 2.094655 1151.00 1143.86 33.93
7835 43.1580 2.094424 1162.00 1140.39 34.09
7836 43.1630 2.094193 1175.00 1138.09 34.28
7837 43.1680 2.093962 1167.00 1136.90 34.16
7838 43.1730 2.093731 1144.00 1136.76 33.82
7839 43.1780 2.093500 1151.00 1137.60 33.93
7840 43.1830 2.093269 1157.00 1139.36 34.01
7841 43.1880 2.093038 1162.00 1141.96 34.09
7842 43.1930 2.092808 1152.00 1145.33 33.94
7843 43.1980 2.092577 1163.00 1149.45 34.10
7844 43.2030 2.092346 1137.00 1154.13 33.72
7845 43.2080 2.092116 1102.00 1159.34 33.20
7846 43.2130 2.091885 1118.00 1165.02 33.44
7847 43.2180 2.091655 1133.00 1171.09 33.66
7848 43.2230 2.091424 1139.00 1177.48 33.75
7849 43.2280 2.091194 1171.00 1184.13 34.22
7850 43.2330 2.090964 1218.00 1191.01 34.90
7851 43.2380 2.090734 1242.00 1198.03 35.24
7852 43.2430 2.090504 1287.00 1205.19 35.87
7853 43.2480 2.090273 1326.00 1212.46 36.41
7854 43.2530 2.090044 1285.00 1219.80 35.85
7855 43.2580 2.089813 1247.00 1227.20 35.31
7856 43.2630 2.089583 1280.00 1234.64 35.78
7857 43.2680 2.089354 1266.00 1242.11 35.58
7858 43.2730 2.089124 1276.00 1249.65 35.72
7859 43.2780 2.088894 1279.00 1257.19 35.76
7860 43.2830 2.088664 1235.00 1264.81 35.14
7861 43.2880 2.088435 1211.00 1272.51 34.80
7862 43.2930 2.088205 1202.00 1280.34 34.67
7863 43.2980 2.087976 1213.00 1288.31 34.83
7864 43.3030 2.087746 1269.00 1296.43 35.62
7865 43.3080 2.087517 1304.00 1304.83 36.11
7866 43.3130 2.087287 1334.00 1313.46 36.52
7867 43.3180 2.087058 1346.00 1322.56 36.69
7868 43.3230 2.086828 1351.00 1331.62 36.76
7869 43.3280 2.086599 1365.00 1340.83 36.95
7870 43.3330 2.086370 1383.00 1350.11 37.19
7871 43.3380 2.086141 1382.00 1359.36 37.18
7872 43.3430 2.085912 1356.00 1368.46 36.82
7873 43.3480 2.085683 1341.00 1377.25 36.62
7874 43.3530 2.085454 1347.00 1385.56 36.70
7875 43.3580 2.085225 1377.00 1393.24 37.11
7876 43.3630 2.084996 1429.00 1400.11 37.80
7877 43.3680 2.084767 1472.00 1406.00 38.37
7878 43.3730 2.084539 1440.00 1410.78 37.95
7879 43.3780 2.084310 1431.00 1414.35 37.83
7880 43.3830 2.084081 1407.00 1416.65 37.51
7881 43.3880 2.083853 1413.00 1417.67 37.59
7882 43.3930 2.083624 1402.00 1417.45 37.44
7883 43.3980 2.083396 1422.00 1416.23 37.71
7884 43.4030 2.083167 1411.00 1413.91 37.56
7885 43.4080 2.082939 1388.00 1410.70 37.26
7886 43.4130 2.082711 1359.00 1406.80 36.86
7887 43.4180 2.082482 1348.00 1402.37 36.72
7888 43.4230 2.082254 1354.00 1397.54 36.80
7889 43.4280 2.082026 1350.00 1392.41 36.74
7890 43.4330 2.081798 1374.00 1387.05 37.07
7891 43.4380 2.081570 1383.00 1381.46 37.19
7892 43.4430 2.081342 1376.00 1375.66 37.09
7893 43.4480 2.081114 1399.00 1369.57 37.40
7894 43.4530 2.080886 1408.00 1363.13 37.52
7895 43.4580 2.080658 1381.00 1356.42 37.16
7896 43.4630 2.080431 1342.00 1349.01 36.63
7897 43.4680 2.080203 1301.00 1340.97 36.07
7898 43.4730 2.079975 1292.00 1332.23 35.94
7899 43.4780 2.079747 1295.00 1322.71 35.99
7900 43.4830 2.079520 1303.00 1312.40 36.10
7901 43.4880 2.079293 1288.00 1301.28 35.89
7902 43.4930 2.079065 1262.00 1289.41 35.52
7903 43.4980 2.078837 1261.00 1276.84 35.51
7904 43.5030 2.078610 1241.00 1263.68 35.23
7905 43.5080 2.078383 1239.00 1250.07 35.20
7906 43.5130 2.078156 1225.00 1235.72 35.00
7907 43.5180 2.077929 1206.00 1221.63 34.73
7908 43.5230 2.077702 1196.00 1207.54 34.58
7909 43.5280 2.077474 1208.00 1193.63 34.76
7910 43.5330 2.077247 1201.00 1180.00 34.66
7911 43.5380 2.077020 1180.00 1166.80 34.35
7912 43.5430 2.076793 1167.00 1154.11 34.16
7913 43.5480 2.076566 1136.00 1142.09 33.70
7914 43.5530 2.076340 1090.00 1130.75 33.02
7915 43.5580 2.076113 1064.00 1120.15 32.62
7916 43.5630 2.075886 1073.00 1110.32 32.76
7917 43.5680 2.075660 1116.00 1101.28 33.41
7918 43.5730 2.075433 1114.00 1093.01 33.38
7919 43.5780 2.075207 1108.00 1085.51 33.29
7920 43.5830 2.074980 1095.00 1078.74 33.09
7921 43.5880 2.074754 1074.00 1072.64 32.77
7922 43.5930 2.074527 1073.00 1067.19 32.76
7923 43.5980 2.074301 1047.00 1062.31 32.36
7924 43.6030 2.074075 1050.00 1057.95 32.40
7925 43.6080 2.073848 1036.00 1054.03 32.19
7926 43.6130 2.073622 1051.00 1050.55 32.42
7927 43.6180 2.073396 1025.00 1047.27 32.02
7928 43.6230 2.073170 1018.00 1044.18 31.91
7929 43.6280 2.072944 1010.00 1041.20 31.78
7930 43.6330 2.072718 1012.00 1038.24 31.81
7931 43.6380 2.072492 1040.00 1035.21 32.25
7932 43.6430 2.072266 1012.00 1032.04 31.81
7933 43.6480 2.072041 1008.00 1028.66 31.75
7934 43.6530 2.071815 1015.00 1025.01 31.86
7935 43.6580 2.071589 995.00 1021.06 31.54
7936 43.6630 2.071363 968.00 1016.79 31.11
7937 43.6680 2.071138 971.00 1012.19 31.16
7938 43.6730 2.070912 1029.00 1007.30 32.08
7939 43.6780 2.070687 1050.00 1002.14 32.40
7940 43.6830 2.070462 1049.00 996.77 32.39
7941 43.6880 2.070236 1012.00 991.26 31.81
7942 43.6930 2.070011 1014.00 985.66 31.84
7943 43.6980 2.069785 992.00 980.04 31.50
7944 43.7030 2.069560 996.00 974.47 31.56
7945 43.7080 2.069335 1004.00 968.99 31.69
7946 43.7130 2.069110 982.00 963.45 31.34
7947 43.7180 2.068885 980.00 958.30 31.31
7948 43.7230 2.068660 935.00 953.35 30.58
7949 43.7280 2.068435 926.00 948.64 30.43
7950 43.7330 2.068210 915.00 944.18 30.25
7951 43.7380 2.067986 922.00 940.03 30.36
7952 43.7430 2.067761 938.00 936.10 30.63
7953 43.7480 2.067536 944.00 932.43 30.72
7954 43.7530 2.067311 914.00 929.04 30.23
7955 43.7580 2.067087 906.00 925.91 30.10
7956 43.7630 2.066862 913.00 923.05 30.22
7957 43.7680 2.066638 905.00 919.93 30.08
7958 43.7730 2.066413 921.00 917.57 30.35
7959 43.7780 2.066189 947.00 915.46 30.77
7960 43.7830 2.065964 936.00 913.58 30.59
7961 43.7880 2.065740 889.00 911.89 29.82
7962 43.7930 2.065516 888.00 910.46 29.80
7963 43.7980 2.065291 882.00 909.24 29.70
7964 43.8030 2.065067 855.00 908.22 29.24
7965 43.8080 2.064843 852.00 907.40 29.19
7966 43.8130 2.064619 873.00 906.76 29.55
7967 43.8180 2.064395 907.00 906.31 30.12
7968 43.8230 2.064171 904.00 906.03 30.07
7969 43.8280 2.063947 884.00 906.00 29.73
7970 43.8330 2.063724 861.00 906.05 29.34
7971 43.8380 2.063500 847.00 906.26 29.10
7972 43.8430 2.063276 870.00 906.62 29.50
7973 43.8480 2.063052 903.00 907.13 30.05
7974 43.8530 2.062829 891.00 907.78 29.85
7975 43.8580 2.062605 882.00 908.57 29.70
7976 43.8630 2.062382 891.00 909.49 29.85
7977 43.8680 2.062158 906.00 910.38 30.10
7978 43.8730 2.061935 905.00 911.55 30.08
7979 43.8780 2.061711 868.00 912.83 29.46
7980 43.8830 2.061488 844.00 914.23 29.05
7981 43.8880 2.061265 848.00 915.73 29.12
7982 43.8930 2.061041 870.00 917.32 29.50
7983 43.8980 2.060818 890.00 918.99 29.83
7984 43.9030 2.060595 874.00 920.74 29.56
7985 43.9080 2.060372 882.00 922.54 29.70
7986 43.9130 2.060149 912.00 924.40 30.20
7987 43.9180 2.059926 904.00 926.28 30.07
7988 43.9230 2.059703 924.00 928.17 30.40
7989 43.9280 2.059480 932.00 930.06 30.53
7990 43.9330 2.059258 917.00 931.91 30.28
7991 43.9380 2.059035 948.00 933.71 30.79
7992 43.9430 2.058812 962.00 935.43 31.02
7993 43.9480 2.058589 954.00 937.05 30.89
7994 43.9530 2.058367 969.00 938.53 31.13
7995 43.9580 2.058145 961.00 939.85 31.00
7996 43.9630 2.057922 978.00 940.98 31.27
7997 43.9680 2.057700 973.00 941.90 31.19
7998 43.9730 2.057477 968.00 942.60 31.11
7999 43.9780 2.057255 952.00 942.78 30.85
8000 43.9830 2.057033 930.00 943.00 30.50
8001 43.9880 2.056810 945.00 942.98 30.74
8002 43.9930 2.056588 949.00 942.72 30.81
8003 43.9980 2.056366 910.00 941.95 30.17
8004 44.0030 2.056144 924.00 941.28 30.40
8005 44.0080 2.055922 922.00 940.43 30.36
8006 44.0130 2.055700 916.00 939.43 30.27
8007 44.0180 2.055478 910.00 938.29 30.17
8008 44.0230 2.055256 928.00 937.04 30.46
8009 44.0280 2.055034 898.00 935.70 29.97
8010 44.0330 2.054813 914.00 934.35 30.23
8011 44.0380 2.054591 958.00 932.86 30.95
8012 44.0430 2.054369 989.00 931.30 31.45
8013 44.0480 2.054148 974.00 929.75 31.21
8014 44.0530 2.053926 985.00 928.13 31.38
8015 44.0580 2.053705 985.00 926.52 31.38
8016 44.0630 2.053483 1001.00 924.91 31.64
8017 44.0680 2.053262 997.00 923.35 31.58
8018 44.0730 2.053041 967.00 921.84 31.10
8019 44.0780 2.052819 982.00 920.41 31.34
8020 44.0830 2.052598 988.00 919.08 31.43
8021 44.0880 2.052377 970.00 917.86 31.14
8022 44.0930 2.052156 963.00 916.77 31.03
8023 44.0980 2.051935 959.00 915.82 30.97
8024 44.1030 2.051713 923.00 915.03 30.38
8025 44.1080 2.051492 924.00 914.39 30.40
8026 44.1130 2.051272 916.00 913.92 30.27
8027 44.1180 2.051051 906.00 913.63 30.10
8028 44.1230 2.050830 934.00 913.46 30.56
8029 44.1280 2.050609 950.00 913.51 30.82
8030 44.1330 2.050389 931.00 913.75 30.51
8031 44.1380 2.050168 912.00 914.16 30.20
8032 44.1430 2.049947 920.00 914.57 30.33
8033 44.1480 2.049727 934.00 915.35 30.56
8034 44.1530 2.049506 924.00 916.31 30.40
8035 44.1580 2.049286 937.00 917.45 30.61
8036 44.1630 2.049065 918.00 918.77 30.30
8037 44.1680 2.048845 883.00 920.17 29.72
8038 44.1730 2.048625 873.00 922.05 29.55
8039 44.1780 2.048404 865.00 923.91 29.41
8040 44.1830 2.048184 860.00 925.96 29.33
8041 44.1880 2.047964 879.00 928.17 29.65
8042 44.1930 2.047744 872.00 930.75 29.53
8043 44.1980 2.047524 878.00 933.34 29.63
8044 44.2030 2.047304 892.00 936.11 29.87
8045 44.2080 2.047084 910.00 939.06 30.17
8046 44.2130 2.046864 916.00 942.20 30.27
8047 44.2180 2.046644 937.00 945.52 30.61
8048 44.2230 2.046424 933.00 949.03 30.55
8049 44.2280 2.046205 927.00 952.72 30.45
8050 44.2330 2.045985 956.00 956.60 30.92
8051 44.2380 2.045765 948.00 960.66 30.79
8052 44.2430 2.045546 925.00 964.89 30.41
8053 44.2480 2.045326 940.00 969.30 30.66
8054 44.2530 2.045107 933.00 973.89 30.55
8055 44.2580 2.044887 957.00 978.64 30.94
8056 44.2630 2.044668 961.00 983.54 31.00
8057 44.2680 2.044448 959.00 988.61 30.97
8058 44.2730 2.044229 987.00 993.82 31.42
8059 44.2780 2.044010 1005.00 999.18 31.70
8060 44.2830 2.043791 1010.00 1004.68 31.78
8061 44.2880 2.043572 1009.00 1010.32 31.76
8062 44.2930 2.043353 988.00 1016.13 31.43
8063 44.2980 2.043133 988.00 1022.09 31.43
8064 44.3030 2.042914 1000.00 1028.24 31.62
8065 44.3080 2.042696 1060.00 1034.60 32.56
8066 44.3130 2.042477 1141.00 1041.18 33.78
8067 44.3180 2.042258 1146.00 1048.04 33.85
8068 44.3230 2.042039 1102.00 1055.18 33.20
8069 44.3280 2.041820 1068.00 1062.65 32.68
8070 44.3330 2.041602 1067.00 1070.47 32.67
8071 44.3380 2.041383 1053.00 1078.67 32.45
8072 44.3430 2.041164 1105.00 1087.24 33.24
8073 44.3480 2.040946 1108.00 1096.21 33.29
8074 44.3530 2.040727 1076.00 1105.56 32.80
8075 44.3580 2.040509 1081.00 1115.28 32.88
8076 44.3630 2.040291 1116.00 1125.35 33.41
8077 44.3680 2.040072 1144.00 1135.73 33.82
8078 44.3730 2.039854 1158.00 1146.33 34.03
8079 44.3780 2.039636 1152.00 1157.21 33.94
8080 44.3830 2.039418 1134.00 1168.24 33.67
8081 44.3880 2.039199 1172.00 1179.36 34.23
8082 44.3930 2.038981 1199.00 1190.42 34.63
8083 44.3980 2.038764 1190.00 1201.46 34.50
8084 44.4030 2.038545 1210.00 1212.33 34.79
8085 44.4080 2.038327 1212.00 1222.93 34.81
8086 44.4130 2.038110 1241.00 1233.19 35.23
8087 44.4180 2.037892 1241.00 1242.99 35.23
8088 44.4230 2.037674 1245.00 1252.29 35.28
8089 44.4280 2.037456 1258.00 1261.02 35.47
8090 44.4330 2.037239 1261.00 1269.15 35.51
8091 44.4380 2.037021 1284.00 1276.66 35.83
8092 44.4430 2.036803 1298.00 1283.56 36.03
8093 44.4480 2.036586 1289.00 1290.25 35.90
8094 44.4530 2.036369 1246.00 1296.02 35.30
8095 44.4580 2.036151 1237.00 1301.30 35.17
8096 44.4630 2.035934 1254.00 1306.15 35.41
8097 44.4680 2.035717 1247.00 1310.25 35.31
8098 44.4730 2.035499 1223.00 1314.41 34.97
8099 44.4780 2.035282 1232.00 1318.28 35.10
8100 44.4830 2.035065 1270.00 1321.89 35.64
8101 44.4880 2.034848 1292.00 1325.25 35.94
8102 44.4930 2.034631 1312.00 1328.36 36.22
8103 44.4980 2.034414 1321.00 1331.24 36.35
8104 44.5030 2.034197 1295.00 1333.89 35.99
8105 44.5080 2.033980 1326.00 1336.34 36.41
8106 44.5130 2.033763 1357.00 1338.59 36.84
8107 44.5180 2.033546 1355.00 1340.77 36.81
8108 44.5230 2.033329 1367.00 1342.94 36.97
8109 44.5280 2.033113 1387.00 1345.16 37.24
8110 44.5330 2.032896 1347.00 1347.56 36.70
8111 44.5380 2.032679 1344.00 1350.21 36.66
8112 44.5430 2.032463 1361.00 1353.25 36.89
8113 44.5480 2.032246 1364.00 1356.74 36.93
8114 44.5530 2.032030 1411.00 1360.75 37.56
8115 44.5580 2.031813 1400.00 1365.31 37.42
8116 44.5630 2.031597 1424.00 1370.92 37.74
8117 44.5680 2.031381 1393.00 1376.70 37.32
8118 44.5730 2.031164 1363.00 1382.88 36.92
8119 44.5780 2.030948 1385.00 1389.52 37.22
8120 44.5830 2.030732 1382.00 1396.51 37.18
8121 44.5880 2.030516 1382.00 1403.78 37.18
8122 44.5930 2.030300 1401.00 1411.66 37.43
8123 44.5980 2.030084 1446.00 1419.14 38.03
8124 44.6030 2.029868 1492.00 1426.45 38.63
8125 44.6080 2.029652 1463.00 1433.71 38.25
8126 44.6130 2.029436 1471.00 1440.63 38.35
8127 44.6180 2.029220 1410.00 1447.33 37.55
8128 44.6230 2.029004 1457.00 1453.64 38.17
8129 44.6280 2.028789 1438.00 1459.55 37.92
8130 44.6330 2.028573 1468.00 1465.04 38.31
8131 44.6380 2.028358 1467.00 1470.10 38.30
8132 44.6430 2.028142 1458.00 1474.75 38.18
8133 44.6480 2.027926 1424.00 1479.03 37.74
8134 44.6530 2.027711 1431.00 1482.94 37.83
8135 44.6580 2.027495 1437.00 1486.55 37.91
8136 44.6630 2.027280 1483.00 1489.90 38.51
8137 44.6680 2.027065 1489.00 1493.06 38.59
8138 44.6730 2.026850 1428.00 1496.08 37.79
8139 44.6780 2.026634 1445.00 1499.06 38.01
8140 44.6830 2.026419 1458.00 1502.06 38.18
8141 44.6880 2.026204 1410.00 1505.18 37.55
8142 44.6930 2.025989 1406.00 1508.47 37.50
8143 44.6980 2.025774 1414.00 1512.02 37.60
8144 44.7030 2.025559 1408.00 1515.85 37.52
8145 44.7080 2.025344 1444.00 1520.00 38.00
8146 44.7130 2.025129 1480.00 1524.49 38.47
8147 44.7180 2.024915 1445.00 1529.31 38.01
8148 44.7230 2.024700 1465.00 1534.43 38.28
8149 44.7280 2.024485 1490.00 1539.83 38.60
8150 44.7330 2.024270 1456.00 1545.44 38.16
8151 44.7380 2.024056 1481.00 1551.25 38.48
8152 44.7430 2.023841 1535.00 1557.17 39.18
8153 44.7480 2.023627 1509.00 1563.21 38.85
8154 44.7530 2.023412 1480.00 1569.33 38.47
8155 44.7580 2.023198 1496.00 1575.55 38.68
8156 44.7630 2.022983 1486.00 1581.90 38.55
8157 44.7680 2.022769 1478.00 1588.44 38.44
8158 44.7730 2.022555 1524.00 1595.24 39.04
8159 44.7780 2.022340 1582.00 1602.38 39.77
8160 44.7830 2.022126 1599.00 1609.94 39.99
8161 44.7880 2.021912 1562.00 1617.98 39.52
8162 44.7930 2.021698 1614.00 1626.57 40.17
8163 44.7980 2.021484 1628.00 1635.66 40.35
8164 44.8030 2.021270 1705.00 1645.27 41.29
8165 44.8080 2.021056 1770.00 1655.34 42.07
8166 44.8130 2.020842 1816.00 1665.77 42.61
8167 44.8180 2.020628 1828.00 1676.41 42.76
8168 44.8230 2.020414 1766.00 1687.06 42.02
8169 44.8280 2.020201 1712.00 1697.69 41.38
8170 44.8330 2.019987 1745.00 1708.05 41.77
8171 44.8380 2.019773 1786.00 1717.97 42.26
8172 44.8430 2.019560 1811.00 1727.27 42.56
8173 44.8480 2.019346 1814.00 1735.85 42.59
8174 44.8530 2.019133 1738.00 1743.60 41.69
8175 44.8580 2.018919 1767.00 1750.49 42.04
8176 44.8630 2.018706 1815.00 1756.52 42.60
8177 44.8680 2.018493 1877.00 1761.74 43.32
8178 44.8730 2.018279 1823.00 1766.23 42.70
8179 44.8780 2.018066 1809.00 1770.10 42.53
8180 44.8830 2.017853 1788.00 1773.43 42.28
8181 44.8880 2.017640 1749.00 1776.31 41.82
8182 44.8930 2.017427 1743.00 1778.79 41.75
8183 44.8980 2.017214 1730.00 1780.89 41.59
8184 44.9030 2.017001 1771.00 1782.57 42.08
8185 44.9080 2.016788 1745.00 1783.75 41.77
8186 44.9130 2.016575 1731.00 1784.31 41.61
8187 44.9180 2.016362 1739.00 1784.06 41.70
8188 44.9230 2.016149 1747.00 1782.83 41.80
8189 44.9280 2.015936 1768.00 1780.39 42.05
8190 44.9330 2.015724 1750.00 1776.50 41.83
8191 44.9380 2.015511 1802.00 1770.94 42.45
8192 44.9430 2.015298 1756.00 1763.50 41.90
8193 44.9480 2.015086 1721.00 1754.00 41.48
8194 44.9530 2.014873 1736.00 1742.31 41.67
8195 44.9580 2.014661 1722.00 1728.36 41.50
8196 44.9630 2.014448 1730.00 1712.25 41.59
8197 44.9680 2.014236 1728.00 1693.83 41.57
8198 44.9730 2.014024 1769.00 1673.35 42.06
8199 44.9780 2.013811 1723.00 1651.09 41.51
8200 44.9830 2.013599 1668.00 1627.29 40.84
8201 44.9880 2.013387 1657.00 1602.33 40.71
8202 44.9930 2.013175 1593.00 1576.59 39.91
8203 44.9980 2.012963 1579.00 1550.40 39.74
8204 45.0030 2.012751 1562.00 1524.17 39.52
8205 45.0080 2.012539 1491.00 1498.23 38.61
8206 45.0130 2.012327 1468.00 1472.88 38.31
8207 45.0180 2.012115 1454.00 1448.39 38.13
8208 45.0230 2.011903 1454.00 1424.95 38.13
8209 45.0280 2.011691 1460.00 1402.77 38.21
8210 45.0330 2.011480 1389.00 1381.94 37.27
8211 45.0380 2.011268 1324.00 1362.55 36.39
8212 45.0430 2.011056 1383.00 1344.70 37.19
8213 45.0480 2.010845 1374.00 1328.40 37.07
8214 45.0530 2.010633 1367.00 1313.65 36.97
8215 45.0580 2.010422 1319.00 1300.47 36.32
8216 45.0630 2.010210 1313.00 1288.82 36.24
8217 45.0680 2.009999 1299.00 1278.66 36.04
8218 45.0730 2.009787 1235.00 1269.95 35.14
8219 45.0780 2.009576 1179.00 1262.64 34.34
8220 45.0830 2.009365 1195.00 1256.66 34.57
8221 45.0880 2.009154 1225.00 1251.95 35.00
8222 45.0930 2.008942 1206.00 1248.45 34.73
8223 45.0980 2.008731 1212.00 1246.10 34.81
8224 45.1030 2.008520 1266.00 1244.82 35.58
8225 45.1080 2.008309 1248.00 1244.59 35.33
8226 45.1130 2.008098 1185.00 1245.34 34.42
8227 45.1180 2.007887 1216.00 1247.04 34.87
8228 45.1230 2.007676 1259.00 1249.68 35.48
8229 45.1280 2.007466 1276.00 1253.22 35.72
8230 45.1330 2.007255 1305.00 1257.66 36.12
8231 45.1380 2.007044 1277.00 1262.97 35.74
8232 45.1430 2.006833 1226.00 1269.14 35.01
8233 45.1480 2.006623 1236.00 1276.08 35.16
8234 45.1530 2.006412 1256.00 1283.91 35.44
8235 45.1580 2.006202 1310.00 1292.52 36.19
8236 45.1630 2.005991 1292.00 1301.87 35.94
8237 45.1680 2.005781 1303.00 1311.90 36.10
8238 45.1730 2.005570 1324.00 1322.53 36.39
8239 45.1780 2.005360 1343.00 1333.70 36.65
8240 45.1830 2.005150 1335.00 1345.29 36.54
8241 45.1880 2.004940 1270.00 1357.21 35.64
8242 45.1930 2.004729 1247.00 1369.31 35.31
8243 45.1980 2.004519 1308.00 1381.47 36.17
8244 45.2030 2.004309 1355.00 1393.56 36.81
8245 45.2080 2.004099 1364.00 1405.13 36.93
8246 45.2130 2.003889 1391.00 1416.56 37.30
8247 45.2180 2.003679 1382.00 1427.43 37.18
8248 45.2230 2.003469 1355.00 1437.59 36.81
8249 45.2280 2.003259 1355.00 1446.86 36.81
8250 45.2330 2.003049 1386.00 1455.13 37.23
8251 45.2380 2.002840 1394.00 1462.32 37.34
8252 45.2430 2.002630 1446.00 1468.35 38.03
8253 45.2480 2.002420 1491.00 1473.22 38.61
8254 45.2530 2.002211 1489.00 1476.95 38.59
8255 45.2580 2.002001 1471.00 1479.61 38.35
8256 45.2630 2.001791 1467.00 1481.29 38.30
8257 45.2680 2.001582 1473.00 1482.12 38.38
8258 45.2730 2.001373 1428.00 1482.29 37.79
8259 45.2780 2.001163 1464.00 1481.93 38.26
8260 45.2830 2.000954 1472.00 1481.23 38.37
8261 45.2880 2.000745 1414.00 1480.35 37.60
8262 45.2930 2.000535 1419.00 1479.44 37.67
8263 45.2980 2.000326 1402.00 1478.65 37.44
8264 45.3030 2.000117 1463.00 1478.08 38.25
8265 45.3080 1.999908 1534.00 1477.85 39.17
8266 45.3130 1.999699 1474.00 1478.03 38.39
8267 45.3180 1.999490 1470.00 1478.79 38.34
8268 45.3230 1.999281 1555.00 1479.96 39.43
8269 45.3280 1.999072 1560.00 1481.66 39.50
8270 45.3330 1.998863 1522.00 1483.89 39.01
8271 45.3380 1.998654 1455.00 1486.65 38.14
8272 45.3430 1.998446 1445.00 1489.92 38.01
8273 45.3480 1.998237 1489.00 1493.67 38.59
8274 45.3530 1.998028 1502.00 1497.84 38.76
8275 45.3580 1.997819 1449.00 1502.38 38.07
8276 45.3630 1.997611 1425.00 1507.21 37.75
8277 45.3680 1.997402 1433.00 1512.23 37.85
8278 45.3730 1.997194 1434.00 1517.34 37.87
8279 45.3780 1.996986 1460.00 1522.40 38.21
8280 45.3830 1.996777 1470.00 1527.26 38.34
8281 45.3880 1.996569 1454.00 1531.74 38.13
8282 45.3930 1.996360 1435.00 1535.67 37.88
8283 45.3980 1.996152 1477.00 1538.85 38.43
8284 45.4030 1.995944 1527.00 1541.08 39.08
8285 45.4080 1.995736 1500.00 1542.21 38.73
8286 45.4130 1.995528 1495.00 1542.07 38.67
8287 45.4180 1.995320 1483.00 1540.57 38.51
8288 45.4230 1.995112 1479.00 1537.66 38.46
8289 45.4280 1.994904 1483.00 1533.35 38.51
8290 45.4330 1.994696 1504.00 1527.71 38.78
8291 45.4380 1.994488 1503.00 1520.87 38.77
8292 45.4430 1.994280 1519.00 1513.04 38.97
8293 45.4480 1.994072 1491.00 1504.43 38.61
8294 45.4530 1.993864 1471.00 1495.28 38.35
8295 45.4580 1.993657 1450.00 1485.87 38.08
8296 45.4630 1.993449 1446.00 1476.41 38.03
8297 45.4680 1.993242 1462.00 1467.14 38.24
8298 45.4730 1.993034 1480.00 1458.22 38.47
8299 45.4780 1.992826 1482.00 1449.82 38.50
8300 45.4830 1.992619 1476.00 1442.01 38.42
8301 45.4880 1.992412 1440.00 1434.46 37.95
8302 45.4930 1.992204 1437.00 1427.98 37.91
8303 45.4980 1.991997 1447.00 1422.16 38.04
8304 45.5030 1.991790 1417.00 1416.91 37.64
8305 45.5080 1.991583 1451.00 1412.18 38.09
8306 45.5130 1.991375 1487.00 1407.84 38.56
8307 45.5180 1.991168 1480.00 1403.74 38.47
8308 45.5230 1.990961 1418.00 1399.72 37.66
8309 45.5280 1.990754 1419.00 1395.62 37.67
8310 45.5330 1.990547 1444.00 1391.24 38.00
8311 45.5380 1.990340 1415.00 1386.39 37.62
8312 45.5430 1.990133 1419.00 1380.91 37.67
8313 45.5480 1.989927 1396.00 1374.62 37.36
8314 45.5530 1.989720 1383.00 1367.40 37.19
8315 45.5580 1.989513 1381.00 1359.14 37.16
8316 45.5630 1.989306 1376.00 1349.81 37.09
8317 45.5680 1.989100 1387.00 1339.40 37.24
8318 45.5730 1.988893 1393.00 1327.97 37.32
8319 45.5780 1.988687 1379.00 1315.63 37.13
8320 45.5830 1.988480 1342.00 1302.52 36.63
8321 45.5880 1.988274 1315.00 1288.83 36.26
8322 45.5930 1.988067 1274.00 1274.76 35.69
8323 45.5980 1.987861 1254.00 1260.50 35.41
8324 45.6030 1.987654 1224.00 1246.28 34.99
8325 45.6080 1.987448 1234.00 1232.25 35.13
8326 45.6130 1.987242 1252.00 1218.61 35.38
8327 45.6180 1.987036 1245.00 1205.50 35.28
8328 45.6230 1.986830 1211.00 1193.01 34.80
8329 45.6280 1.986624 1192.00 1181.27 34.53
8330 45.6330 1.986417 1168.00 1170.35 34.18
8331 45.6380 1.986211 1167.00 1160.36 34.16
8332 45.6430 1.986005 1180.00 1151.21 34.35
8333 45.6480 1.985800 1219.00 1143.00 34.91
8334 45.6530 1.985594 1202.00 1135.75 34.67
8335 45.6580 1.985388 1173.00 1129.45 34.25
8336 45.6630 1.985182 1147.00 1124.11 33.87
8337 45.6680 1.984976 1112.00 1119.72 33.35
8338 45.6730 1.984771 1083.00 1116.27 32.91
8339 45.6780 1.984565 1085.00 1113.70 32.94
8340 45.6830 1.984360 1126.00 1112.06 33.56
8341 45.6880 1.984154 1154.00 1111.30 33.97
8342 45.6930 1.983949 1129.00 1111.39 33.60
8343 45.6980 1.983743 1100.00 1112.29 33.17
8344 45.7030 1.983538 1069.00 1114.01 32.70
8345 45.7080 1.983332 1066.00 1116.45 32.65
8346 45.7130 1.983127 1078.00 1119.62 32.83
8347 45.7180 1.982922 1103.00 1123.49 33.21
8348 45.7230 1.982717 1123.00 1128.01 33.51
8349 45.7280 1.982511 1133.00 1133.14 33.66
8350 45.7330 1.982306 1119.00 1138.85 33.45
8351 45.7380 1.982101 1106.00 1145.02 33.26
8352 45.7430 1.981896 1121.00 1151.76 33.48
8353 45.7480 1.981691 1158.00 1158.97 34.03
8354 45.7530 1.981486 1195.00 1166.60 34.57
8355 45.7580 1.981281 1181.00 1174.63 34.37
8356 45.7630 1.981076 1156.00 1183.02 34.00
8357 45.7680 1.980872 1170.00 1191.77 34.21
8358 45.7730 1.980667 1234.00 1200.88 35.13
8359 45.7780 1.980462 1268.00 1210.34 35.61
8360 45.7830 1.980258 1248.00 1220.35 35.33
8361 45.7880 1.980053 1259.00 1230.56 35.48
8362 45.7930 1.979848 1278.00 1241.15 35.75
8363 45.7980 1.979644 1279.00 1252.17 35.76
8364 45.8030 1.979439 1257.00 1263.60 35.45
8365 45.8080 1.979235 1245.00 1275.46 35.28
8366 45.8130 1.979031 1261.00 1287.76 35.51
8367 45.8180 1.978826 1264.00 1300.45 35.55
8368 45.8230 1.978622 1263.00 1313.53 35.54
8369 45.8280 1.978418 1284.00 1326.96 35.83
8370 45.8330 1.978214 1301.00 1340.64 36.07
8371 45.8380 1.978009 1310.00 1354.53 36.19
8372 45.8430 1.977805 1351.00 1368.53 36.76
8373 45.8480 1.977601 1372.00 1382.29 37.04
8374 45.8530 1.977397 1384.00 1396.19 37.20
8375 45.8580 1.977193 1433.00 1409.87 37.85
8376 45.8630 1.976989 1421.00 1423.20 37.70
8377 45.8680 1.976785 1455.00 1436.05 38.14
8378 45.8730 1.976582 1454.00 1448.29 38.13
8379 45.8780 1.976378 1463.00 1459.79 38.25
8380 45.8830 1.976174 1474.00 1470.44 38.39
8381 45.8880 1.975971 1458.00 1480.12 38.18
8382 45.8930 1.975767 1451.00 1488.77 38.09
8383 45.8980 1.975563 1497.00 1496.34 38.69
8384 45.9030 1.975360 1544.00 1502.81 39.29
8385 45.9080 1.975156 1522.00 1508.21 39.01
8386 45.9130 1.974953 1478.00 1512.61 38.44
8387 45.9180 1.974749 1497.00 1516.09 38.69
8388 45.9230 1.974546 1546.00 1518.77 39.32
8389 45.9280 1.974342 1590.00 1520.78 39.87
8390 45.9330 1.974139 1580.00 1522.25 39.75
8391 45.9380 1.973936 1577.00 1523.19 39.71
8392 45.9430 1.973733 1604.00 1523.87 40.05
8393 45.9480 1.973530 1596.00 1524.28 39.95
8394 45.9530 1.973327 1534.00 1524.43 39.17
8395 45.9580 1.973124 1520.00 1524.21 38.99
8396 45.9630 1.972920 1550.00 1523.82 39.37
8397 45.9680 1.972718 1573.00 1523.09 39.66
8398 45.9730 1.972515 1531.00 1522.01 39.13
8399 45.9780 1.972312 1523.00 1520.47 39.03
8400 45.9830 1.972109 1559.00 1518.25 39.48
8401 45.9880 1.971906 1554.00 1515.43 39.42
8402 45.9930 1.971703 1516.00 1511.93 38.94
8403 45.9980 1.971501 1528.00 1507.69 39.09
8404 46.0030 1.971298 1536.00 1502.67 39.19
8405 46.0080 1.971096 1527.00 1496.84 39.08
8406 46.0130 1.970893 1517.00 1490.19 38.95
8407 46.0180 1.970690 1513.00 1482.68 38.90
8408 46.0230 1.970488 1514.00 1474.35 38.91
8409 46.0280 1.970286 1497.00 1465.06 38.69
8410 46.0330 1.970083 1474.00 1454.82 38.39
8411 46.0380 1.969881 1442.00 1443.64 37.97
8412 46.0430 1.969679 1457.00 1431.49 38.17
8413 46.0480 1.969476 1463.00 1418.43 38.25
8414 46.0530 1.969274 1444.00 1404.47 38.00
8415 46.0580 1.969072 1376.00 1389.70 37.09
8416 46.0630 1.968870 1336.00 1374.26 36.55
8417 46.0680 1.968668 1327.00 1358.28 36.43
8418 46.0730 1.968466 1346.00 1341.92 36.69
8419 46.0780 1.968264 1345.00 1325.38 36.67
8420 46.0830 1.968062 1323.00 1308.84 36.37
8421 46.0880 1.967860 1284.00 1292.48 35.83
8422 46.0930 1.967658 1271.00 1276.48 35.65
8423 46.0980 1.967456 1266.00 1260.97 35.58
8424 46.1030 1.967255 1268.00 1246.11 35.61
8425 46.1080 1.967053 1264.00 1231.96 35.55
8426 46.1130 1.966851 1227.00 1218.61 35.03
8427 46.1180 1.966650 1218.00 1206.12 34.90
8428 46.1230 1.966448 1194.00 1194.51 34.55
8429 46.1280 1.966247 1170.00 1183.78 34.21
8430 46.1330 1.966045 1172.00 1173.95 34.23
8431 46.1380 1.965844 1186.00 1164.92 34.44
8432 46.1430 1.965642 1179.00 1156.80 34.34
8433 46.1480 1.965441 1161.00 1149.48 34.07
8434 46.1530 1.965240 1171.00 1142.91 34.22
8435 46.1580 1.965039 1171.00 1137.03 34.22
8436 46.1630 1.964837 1172.00 1131.77 34.23
8437 46.1680 1.964636 1167.00 1127.07 34.16
8438 46.1730 1.964435 1154.00 1122.84 33.97
8439 46.1780 1.964234 1120.00 1119.00 33.47
8440 46.1830 1.964033 1111.00 1115.49 33.33
8441 46.1880 1.963832 1117.00 1112.20 33.42
8442 46.1930 1.963631 1119.00 1109.08 33.45
8443 46.1980 1.963430 1112.00 1106.05 33.35
8444 46.2030 1.963229 1085.00 1103.04 32.94
8445 46.2080 1.963029 1096.00 1100.02 33.11
8446 46.2130 1.962828 1096.00 1096.95 33.11
8447 46.2180 1.962627 1083.00 1093.81 32.91
8448 46.2230 1.962427 1090.00 1090.61 33.02
8449 46.2280 1.962226 1088.00 1087.37 32.98
8450 46.2330 1.962025 1082.00 1084.10 32.89
8451 46.2380 1.961825 1087.00 1080.86 32.97
8452 46.2430 1.961624 1110.00 1077.70 33.32
8453 46.2480 1.961424 1123.00 1074.65 33.51
8454 46.2530 1.961223 1106.00 1071.77 33.26
8455 46.2580 1.961023 1100.00 1069.11 33.17
8456 46.2630 1.960823 1107.00 1066.69 33.27
8457 46.2680 1.960623 1106.00 1064.84 33.26
8458 46.2730 1.960422 1085.00 1062.99 32.94
8459 46.2780 1.960222 1086.00 1061.45 32.95
8460 46.2830 1.960022 1097.00 1060.22 33.12
8461 46.2880 1.959822 1089.00 1059.29 33.00
8462 46.2930 1.959622 1079.00 1058.65 32.85
8463 46.2980 1.959422 1085.00 1058.29 32.94
8464 46.3030 1.959222 1077.00 1058.16 32.82
8465 46.3080 1.959022 1062.00 1058.25 32.59
8466 46.3130 1.958822 1032.00 1058.52 32.12
8467 46.3180 1.958622 1024.00 1058.92 32.00
8468 46.3230 1.958423 1058.00 1059.43 32.53
8469 46.3280 1.958223 1082.00 1060.00 32.89
8470 46.3330 1.958023 1100.00 1060.61 33.17
8471 46.3380 1.957824 1081.00 1061.21 32.88
8472 46.3430 1.957624 1034.00 1061.80 32.16
8473 46.3480 1.957425 1009.00 1062.34 31.76
8474 46.3530 1.957225 1035.00 1062.83 32.17
8475 46.3580 1.957025 1051.00 1063.26 32.42
8476 46.3630 1.956826 1047.00 1063.65 32.36
8477 46.3680 1.956627 1050.00 1063.98 32.40
8478 46.3730 1.956427 1046.00 1064.27 32.34
8479 46.3780 1.956228 1014.00 1064.53 31.84
8480 46.3830 1.956029 991.00 1064.74 31.48
8481 46.3880 1.955830 982.00 1064.91 31.34
8482 46.3930 1.955631 980.00 1065.03 31.31
8483 46.3980 1.955432 997.00 1065.24 31.58
8484 46.4030 1.955232 1010.00 1065.19 31.78
8485 46.4080 1.955033 1047.00 1065.00 32.36
8486 46.4130 1.954834 1075.00 1064.66 32.79
8487 46.4180 1.954636 1083.00 1064.13 32.91
8488 46.4230 1.954437 1082.00 1063.37 32.89
8489 46.4280 1.954238 1064.00 1062.37 32.62
8490 46.4330 1.954039 1039.00 1061.10 32.23
8491 46.4380 1.953840 1011.00 1059.57 31.80
8492 46.4430 1.953642 1010.00 1057.77 31.78
8493 46.4480 1.953443 1023.00 1055.73 31.98
8494 46.4530 1.953244 1031.00 1053.49 32.11
8495 46.4580 1.953046 1052.00 1051.09 32.43
8496 46.4630 1.952847 1078.00 1048.60 32.83
8497 46.4680 1.952649 1086.00 1046.09 32.95
8498 46.4730 1.952450 1089.00 1043.59 33.00
8499 46.4780 1.952252 1098.00 1041.24 33.14
8500 46.4830 1.952053 1064.00 1039.08 32.62
8501 46.4880 1.951855 1010.00 1037.16 31.78
8502 46.4930 1.951657 1009.00 1035.56 31.76
8503 46.4980 1.951459 1056.00 1034.32 32.50
8504 46.5030 1.951261 1085.00 1033.48 32.94
8505 46.5080 1.951062 1077.00 1033.08 32.82
8506 46.5130 1.950864 1051.00 1033.14 32.42
8507 46.5180 1.950666 1035.00 1033.70 32.17
8508 46.5230 1.950468 1039.00 1034.81 32.23
8509 46.5280 1.950270 1062.00 1036.39 32.59
8510 46.5330 1.950072 1083.00 1038.51 32.91
8511 46.5380 1.949875 1087.00 1041.16 32.97
8512 46.5430 1.949677 1085.00 1044.32 32.94
8513 46.5480 1.949479 1087.00 1048.04 32.97
8514 46.5530 1.949281 1085.00 1052.28 32.94
8515 46.5580 1.949084 1096.00 1057.04 33.11
8516 46.5630 1.948886 1137.00 1062.31 33.72
8517 46.5680 1.948688 1190.00 1068.06 34.50
8518 46.5730 1.948491 1213.00 1074.30 34.83
8519 46.5780 1.948293 1170.00 1081.00 34.21
8520 46.5830 1.948096 1132.00 1088.16 33.65
8521 46.5880 1.947898 1136.00 1095.70 33.70
8522 46.5930 1.947701 1130.00 1103.62 33.62
8523 46.5980 1.947503 1114.00 1111.89 33.38
8524 46.6030 1.947306 1112.00 1120.46 33.35
8525 46.6080 1.947109 1129.00 1129.33 33.60
8526 46.6130 1.946912 1145.00 1138.40 33.84
8527 46.6180 1.946715 1160.00 1147.65 34.06
8528 46.6230 1.946517 1180.00 1157.05 34.35
8529 46.6280 1.946320 1204.00 1166.50 34.70
8530 46.6330 1.946123 1231.00 1175.97 35.09
8531 46.6380 1.945926 1258.00 1185.41 35.47
8532 46.6430 1.945729 1282.00 1194.78 35.81
8533 46.6480 1.945533 1278.00 1204.07 35.75
8534 46.6530 1.945336 1245.00 1213.19 35.28
8535 46.6580 1.945139 1238.00 1222.18 35.19
8536 46.6630 1.944942 1271.00 1231.03 35.65
8537 46.6680 1.944745 1289.00 1239.78 35.90
8538 46.6730 1.944549 1276.00 1248.44 35.72
8539 46.6780 1.944352 1269.00 1257.11 35.62
8540 46.6830 1.944155 1273.00 1265.82 35.68
8541 46.6880 1.943959 1266.00 1274.64 35.58
8542 46.6930 1.943762 1281.00 1283.65 35.79
8543 46.6980 1.943566 1329.00 1292.91 36.46
8544 46.7030 1.943369 1344.00 1302.57 36.66
8545 46.7080 1.943173 1330.00 1312.46 36.47
8546 46.7130 1.942977 1332.00 1322.70 36.50
8547 46.7180 1.942780 1335.00 1333.28 36.54
8548 46.7230 1.942584 1342.00 1344.18 36.63
8549 46.7280 1.942388 1353.00 1355.32 36.78
8550 46.7330 1.942192 1352.00 1366.65 36.77
8551 46.7380 1.941996 1359.00 1378.06 36.86
8552 46.7430 1.941800 1383.00 1389.43 37.19
8553 46.7480 1.941603 1400.00 1400.63 37.42
8554 46.7530 1.941407 1390.00 1411.49 37.28
8555 46.7580 1.941211 1370.00 1421.84 37.01
8556 46.7630 1.941016 1367.00 1431.50 36.97
8557 46.7680 1.940820 1372.00 1440.34 37.04
8558 46.7730 1.940624 1366.00 1448.04 36.96
8559 46.7780 1.940428 1373.00 1454.49 37.05
8560 46.7830 1.940232 1397.00 1459.53 37.38
8561 46.7880 1.940037 1407.00 1463.01 37.51
8562 46.7930 1.939841 1404.00 1464.83 37.47
8563 46.7980 1.939646 1392.00 1464.93 37.31
8564 46.8030 1.939450 1372.00 1463.24 37.04
8565 46.8080 1.939254 1376.00 1459.77 37.09
8566 46.8130 1.939059 1419.00 1454.63 37.67
8567 46.8180 1.938863 1454.00 1447.87 38.13
8568 46.8230 1.938668 1468.00 1439.64 38.31
8569 46.8280 1.938473 1467.00 1430.09 38.30
8570 46.8330 1.938277 1446.00 1419.43 38.03
8571 46.8380 1.938082 1423.00 1407.86 37.72
8572 46.8430 1.937887 1394.00 1395.60 37.34
8573 46.8480 1.937692 1348.00 1382.92 36.72
8574 46.8530 1.937497 1321.00 1370.07 36.35
8575 46.8580 1.937302 1330.00 1357.25 36.47
8576 46.8630 1.937106 1362.00 1344.74 36.91
8577 46.8680 1.936912 1373.00 1332.74 37.05
8578 46.8730 1.936716 1347.00 1321.43 36.70
8579 46.8780 1.936522 1342.00 1311.00 36.63
8580 46.8830 1.936327 1336.00 1301.61 36.55
8581 46.8880 1.936132 1280.00 1293.40 35.78
8582 46.8930 1.935937 1245.00 1286.47 35.28
8583 46.8980 1.935742 1238.00 1280.89 35.19
8584 46.9030 1.935548 1226.00 1276.75 35.01
8585 46.9080 1.935353 1237.00 1274.14 35.17
8586 46.9130 1.935158 1250.00 1273.05 35.36
8587 46.9180 1.934964 1261.00 1273.53 35.51
8588 46.9230 1.934769 1275.00 1275.60 35.71
8589 46.9280 1.934575 1304.00 1279.29 36.11
8590 46.9330 1.934380 1334.00 1284.58 36.52
8591 46.9380 1.934186 1340.00 1291.51 36.61
8592 46.9430 1.933992 1336.00 1300.03 36.55
8593 46.9480 1.933797 1353.00 1310.15 36.78
8594 46.9530 1.933603 1393.00 1321.84 37.32
8595 46.9580 1.933409 1430.00 1334.94 37.82
8596 46.9630 1.933215 1465.00 1349.67 38.28
8597 46.9680 1.933021 1460.00 1365.87 38.21
8598 46.9730 1.932826 1457.00 1383.47 38.17
8599 46.9780 1.932632 1471.00 1402.39 38.35
8600 46.9830 1.932438 1436.00 1422.88 37.89
8601 46.9880 1.932244 1426.00 1444.29 37.76
8602 46.9930 1.932050 1418.00 1466.84 37.66
8603 46.9980 1.931856 1397.00 1490.38 37.38
8604 47.0030 1.931663 1427.00 1514.83 37.78
8605 47.0080 1.931469 1475.00 1540.27 38.41
8606 47.0130 1.931275 1535.00 1566.18 39.18
8607 47.0180 1.931081 1602.00 1592.65 40.03
8608 47.0230 1.930888 1626.00 1619.56 40.32
8609 47.0280 1.930694 1637.00 1646.73 40.46
8610 47.0330 1.930500 1671.00 1673.96 40.88
8611 47.0380 1.930307 1727.00 1701.37 41.56
8612 47.0430 1.930113 1756.00 1728.71 41.90
8613 47.0480 1.929920 1796.00 1755.88 42.38
8614 47.0530 1.929726 1865.00 1782.79 43.19
8615 47.0580 1.929533 1913.00 1809.33 43.74
8616 47.0630 1.929340 1939.00 1835.45 44.03
8617 47.0680 1.929146 1951.00 1861.00 44.17
8618 47.0730 1.928953 1934.00 1885.95 43.98
8619 47.0780 1.928760 1919.00 1910.23 43.81
8620 47.0830 1.928567 1922.00 1933.73 43.84
8621 47.0880 1.928374 1932.00 1956.44 43.95
8622 47.0930 1.928181 1958.00 1978.29 44.25
8623 47.0980 1.927988 1972.00 1999.30 44.41
8624 47.1030 1.927794 1966.00 2019.50 44.34
8625 47.1080 1.927602 1957.00 2038.98 44.24
8626 47.1130 1.927409 1935.00 2057.86 43.99
8627 47.1180 1.927216 1974.00 2076.31 44.43
8628 47.1230 1.927023 2016.00 2094.53 44.90
8629 47.1280 1.926830 2056.00 2112.70 45.34
8630 47.1330 1.926637 2122.00 2131.07 46.07
8631 47.1380 1.926445 2154.00 2149.69 46.41
8632 47.1430 1.926252 2161.00 2168.65 46.49
8633 47.1480 1.926059 2197.00 2188.24 46.87
8634 47.1530 1.925867 2209.00 2208.33 47.00
8635 47.1580 1.925674 2205.00 2228.89 46.96
8636 47.1630 1.925482 2216.00 2250.00 47.07
8637 47.1680 1.925289 2290.00 2270.94 47.85
8638 47.1730 1.925097 2354.00 2291.65 48.52
8639 47.1780 1.924905 2373.00 2311.80 48.71
8640 47.1830 1.924712 2396.00 2330.97 48.95
8641 47.1880 1.924520 2429.00 2348.67 49.28
8642 47.1930 1.924328 2381.00 2364.25 48.80
8643 47.1980 1.924135 2324.00 2377.46 48.21
8644 47.2030 1.923943 2354.00 2387.61 48.52
8645 47.2080 1.923751 2402.00 2394.19 49.01
8646 47.2130 1.923559 2441.00 2396.71 49.41
8647 47.2180 1.923367 2517.00 2394.76 50.17
8648 47.2230 1.923175 2538.00 2388.00 50.38
8649 47.2280 1.922983 2502.00 2376.17 50.02
8650 47.2330 1.922791 2456.00 2359.23 49.56
8651 47.2380 1.922599 2408.00 2337.12 49.07
8652 47.2430 1.922408 2364.00 2310.06 48.62
8653 47.2480 1.922216 2331.00 2278.20 48.28
8654 47.2530 1.922024 2283.00 2241.91 47.78
8655 47.2580 1.921833 2212.00 2201.66 47.03
8656 47.2630 1.921641 2179.00 2157.99 46.68
8657 47.2680 1.921449 2151.00 2111.36 46.38
8658 47.2730 1.921258 2110.00 2062.48 45.93
8659 47.2780 1.921066 2092.00 2011.93 45.74
8660 47.2830 1.920875 2053.00 1960.31 45.31
8661 47.2880 1.920683 2000.00 1908.20 44.72
8662 47.2930 1.920492 1956.00 1855.94 44.23
8663 47.2980 1.920300 1879.00 1804.44 43.35
8664 47.3030 1.920109 1813.00 1753.88 42.58
8665 47.3080 1.919918 1748.00 1704.60 41.81
8666 47.3130 1.919726 1678.00 1656.96 40.96
8667 47.3180 1.919535 1630.00 1611.18 40.37
8668 47.3230 1.919344 1611.00 1567.34 40.14
8669 47.3280 1.919153 1546.00 1525.66 39.32
8670 47.3330 1.918962 1491.00 1486.17 38.61
8671 47.3380 1.918771 1441.00 1448.93 37.96
8672 47.3430 1.918580 1426.00 1413.93 37.76
8673 47.3480 1.918389 1423.00 1381.33 37.72
8674 47.3530 1.918198 1381.00 1350.77 37.16
8675 47.3580 1.918007 1325.00 1322.31 36.40
8676 47.3630 1.917817 1326.00 1295.89 36.41
8677 47.3680 1.917626 1349.00 1271.48 36.73
8678 47.3730 1.917435 1352.00 1248.92 36.77
8679 47.3780 1.917244 1317.00 1228.17 36.29
8680 47.3830 1.917054 1255.00 1209.11 35.43
8681 47.3880 1.916863 1177.00 1191.65 34.31
8682 47.3930 1.916672 1129.00 1175.67 33.60
8683 47.3980 1.916482 1142.00 1160.79 33.79
8684 47.4030 1.916291 1153.00 1147.50 33.96
8685 47.4080 1.916101 1148.00 1135.40 33.88
8686 47.4130 1.915911 1150.00 1124.39 33.91
8687 47.4180 1.915720 1143.00 1114.41 33.81
8688 47.4230 1.915530 1150.00 1105.35 33.91
8689 47.4280 1.915340 1126.00 1097.13 33.56
8690 47.4330 1.915150 1109.00 1089.68 33.30
8691 47.4380 1.914959 1137.00 1082.97 33.72
8692 47.4430 1.914769 1173.00 1076.85 34.25
8693 47.4480 1.914579 1173.00 1071.30 34.25
8694 47.4530 1.914389 1115.00 1066.27 33.39
8695 47.4580 1.914199 1083.00 1061.71 32.91
8696 47.4630 1.914009 1067.00 1057.58 32.67
8697 47.4680 1.913819 1065.00 1053.84 32.63
8698 47.4730 1.913629 1103.00 1050.48 33.21
8699 47.4780 1.913439 1095.00 1047.41 33.09
8700 47.4830 1.913249 1097.00 1044.75 33.12
8701 47.4880 1.913060 1106.00 1042.43 33.26
8702 47.4930 1.912870 1132.00 1040.46 33.65
8703 47.4980 1.912680 1131.00 1038.82 33.63
8704 47.5030 1.912490 1121.00 1037.48 33.48
8705 47.5080 1.912301 1088.00 1036.55 32.98
8706 47.5130 1.912111 1068.00 1035.97 32.68
8707 47.5180 1.911922 1045.00 1035.39 32.33
8708 47.5230 1.911732 1058.00 1035.53 32.53
8709 47.5280 1.911543 1085.00 1036.01 32.94
8710 47.5330 1.911353 1074.00 1036.85 32.77
8711 47.5380 1.911164 1064.00 1038.01 32.62
8712 47.5430 1.910975 1086.00 1039.49 32.95
8713 47.5480 1.910785 1080.00 1041.27 32.86
8714 47.5530 1.910596 1106.00 1043.32 33.26
8715 47.5580 1.910407 1093.00 1045.61 33.06
8716 47.5630 1.910218 1057.00 1048.12 32.51
8717 47.5680 1.910029 1039.00 1050.80 32.23
8718 47.5730 1.909840 1088.00 1053.62 32.98
8719 47.5780 1.909651 1115.00 1056.53 33.39
8720 47.5830 1.909462 1117.00 1059.46 33.42
8721 47.5880 1.909273 1079.00 1062.39 32.85
8722 47.5930 1.909084 1072.00 1065.23 32.74
8723 47.5980 1.908895 1093.00 1067.92 33.06
8724 47.6030 1.908706 1084.00 1070.39 32.92
8725 47.6080 1.908517 1083.00 1072.57 32.91
8726 47.6130 1.908328 1137.00 1074.38 33.72
8727 47.6180 1.908140 1188.00 1075.74 34.47
8728 47.6230 1.907951 1166.00 1076.59 34.15
8729 47.6280 1.907762 1114.00 1076.85 33.38
8730 47.6330 1.907574 1092.00 1076.46 33.05
8731 47.6380 1.907385 1113.00 1075.39 33.36
8732 47.6430 1.907197 1111.00 1073.61 33.33
8733 47.6480 1.907008 1094.00 1071.11 33.08
8734 47.6530 1.906820 1095.00 1067.90 33.09
8735 47.6580 1.906631 1088.00 1064.02 32.98
8736 47.6630 1.906443 1091.00 1059.52 33.03
8737 47.6680 1.906255 1110.00 1054.44 33.32
8738 47.6730 1.906067 1092.00 1048.95 33.05
8739 47.6780 1.905878 1073.00 1043.09 32.76
8740 47.6830 1.905690 1072.00 1036.97 32.74
8741 47.6880 1.905502 1030.00 1030.66 32.09
8742 47.6930 1.905314 990.00 1024.27 31.46
8743 47.6980 1.905126 1001.00 1017.85 31.64
8744 47.7030 1.904938 1053.00 1011.51 32.45
8745 47.7080 1.904750 1070.00 1005.28 32.71
8746 47.7130 1.904562 1066.00 999.21 32.65
8747 47.7180 1.904374 1059.00 993.36 32.54
8748 47.7230 1.904186 1062.00 987.78 32.59
8749 47.7280 1.903998 1046.00 982.45 32.34
8750 47.7330 1.903811 1015.00 977.40 31.86
8751 47.7380 1.903623 1027.00 972.66 32.05
8752 47.7430 1.903435 1000.00 968.24 31.62
8753 47.7480 1.903247 960.00 964.14 30.98
8754 47.7530 1.903060 1002.00 960.36 31.65
8755 47.7580 1.902872 970.00 956.92 31.14
8756 47.7630 1.902685 945.00 953.84 30.74
8757 47.7680 1.902497 986.00 951.05 31.40
8758 47.7730 1.902310 998.00 948.58 31.59
8759 47.7780 1.902122 943.00 946.42 30.71
8760 47.7830 1.901935 968.00 944.58 31.11
8761 47.7880 1.901748 940.00 943.04 30.66
8762 47.7930 1.901560 917.00 941.80 30.28
8763 47.7980 1.901373 933.00 940.85 30.55
8764 47.8030 1.901186 939.00 940.19 30.64
8765 47.8080 1.900999 972.00 939.62 31.18
8766 47.8130 1.900812 951.00 939.52 30.84
8767 47.8180 1.900625 926.00 939.69 30.43
8768 47.8230 1.900438 955.00 940.12 30.90
8769 47.8280 1.900251 1000.00 940.80 31.62
8770 47.8330 1.900064 1030.00 941.68 32.09
8771 47.8380 1.899877 990.00 942.88 31.46
8772 47.8430 1.899690 972.00 944.30 31.18
8773 47.8480 1.899503 934.00 945.95 30.56
8774 47.8530 1.899316 930.00 947.79 30.50
8775 47.8580 1.899129 943.00 949.88 30.71
8776 47.8630 1.898943 972.00 952.19 31.18
8777 47.8680 1.898756 955.00 954.70 30.90
8778 47.8730 1.898569 951.00 957.39 30.84
8779 47.8780 1.898383 984.00 960.28 31.37
8780 47.8830 1.898196 1002.00 963.35 31.65
8781 47.8880 1.898010 1013.00 966.55 31.83
8782 47.8930 1.897823 941.00 969.93 30.68
8783 47.8980 1.897637 928.00 973.44 30.46
8784 47.9030 1.897450 945.00 977.07 30.74
8785 47.9080 1.897264 997.00 980.81 31.58
8786 47.9130 1.897078 1020.00 984.58 31.94
8787 47.9180 1.896891 996.00 988.48 31.56
8788 47.9230 1.896705 960.00 992.42 30.98
8789 47.9280 1.896519 938.00 996.41 30.63
8790 47.9330 1.896333 940.00 1000.42 30.66
8791 47.9380 1.896147 981.00 1004.42 31.32
8792 47.9430 1.895961 1004.00 1008.41 31.69
8793 47.9480 1.895775 1029.00 1012.37 32.08
8794 47.9530 1.895589 1083.00 1016.26 32.91
8795 47.9580 1.895403 1076.00 1020.05 32.80
8796 47.9630 1.895217 1047.00 1023.73 32.36
8797 47.9680 1.895031 1006.00 1027.25 31.72
8798 47.9730 1.894845 1040.00 1030.56 32.25
8799 47.9780 1.894659 1091.00 1033.61 33.03
8800 47.9830 1.894473 1131.00 1036.36 33.63
8801 47.9880 1.894288 1089.00 1038.73 33.00
8802 47.9930 1.894102 1042.00 1040.68 32.28
8803 47.9980 1.893916 1029.00 1042.14 32.08
8804 48.0030 1.893731 1014.00 1042.73 31.84
8805 48.0080 1.893545 994.00 1043.03 31.53
8806 48.0130 1.893360 1051.00 1042.89 32.42
8807 48.0180 1.893174 1120.00 1041.87 33.47
8808 48.0230 1.892989 1144.00 1040.17 33.82
8809 48.0280 1.892803 1112.00 1037.78 33.35
8810 48.0330 1.892618 1038.00 1034.74 32.22
8811 48.0380 1.892433 1007.00 1031.07 31.73
8812 48.0430 1.892248 1030.00 1026.85 32.09
8813 48.0480 1.892062 1059.00 1022.16 32.54
8814 48.0530 1.891877 1056.00 1017.06 32.50
8815 48.0580 1.891692 1017.00 1011.66 31.89
8816 48.0630 1.891507 984.00 1006.05 31.37
8817 48.0680 1.891322 969.00 1000.30 31.13
8818 48.0730 1.891137 1029.00 994.51 32.08
8819 48.0780 1.890952 1045.00 988.76 32.33
8820 48.0830 1.890767 1024.00 983.09 32.00
8821 48.0880 1.890582 991.00 977.55 31.48
8822 48.0930 1.890397 988.00 972.21 31.43
8823 48.0980 1.890212 969.00 967.09 31.13
8824 48.1030 1.890027 1003.00 962.22 31.67
8825 48.1080 1.889842 1018.00 957.62 31.91
8826 48.1130 1.889658 976.00 953.32 31.24
8827 48.1180 1.889473 953.00 949.32 30.87
8828 48.1230 1.889289 941.00 945.62 30.68
8829 48.1280 1.889104 969.00 942.24 31.13
8830 48.1330 1.888919 978.00 939.32 31.27
8831 48.1380 1.888735 996.00 936.57 31.56
8832 48.1430 1.888550 969.00 934.13 31.13
8833 48.1480 1.888366 943.00 931.74 30.71
8834 48.1530 1.888181 939.00 929.92 30.64
8835 48.1580 1.887997 946.00 928.39 30.76
8836 48.1630 1.887813 958.00 927.15 30.95
8837 48.1680 1.887629 955.00 926.21 30.90
8838 48.1730 1.887444 947.00 925.56 30.77
8839 48.1780 1.887260 962.00 925.18 31.02
8840 48.1830 1.887076 945.00 925.09 30.74
8841 48.1880 1.886892 915.00 925.27 30.25
8842 48.1930 1.886708 904.00 925.71 30.07
8843 48.1980 1.886524 919.00 926.43 30.32
8844 48.2030 1.886340 905.00 927.41 30.08
8845 48.2080 1.886156 893.00 928.65 29.88
8846 48.2130 1.885972 915.00 930.16 30.25
8847 48.2180 1.885788 965.00 931.92 31.06
8848 48.2230 1.885604 982.00 933.94 31.34
8849 48.2280 1.885420 1018.00 936.21 31.91
8850 48.2330 1.885236 1054.00 938.74 32.47
8851 48.2380 1.885053 1066.00 941.53 32.65
8852 48.2430 1.884869 1046.00 944.56 32.34
8853 48.2480 1.884685 1017.00 947.91 31.89
8854 48.2530 1.884502 997.00 951.43 31.58
8855 48.2580 1.884318 987.00 955.20 31.42
8856 48.2630 1.884135 978.00 959.21 31.27
8857 48.2680 1.883951 983.00 963.44 31.35
8858 48.2730 1.883768 978.00 967.90 31.27
8859 48.2780 1.883584 1007.00 972.56 31.73
8860 48.2830 1.883401 1051.00 977.44 32.42
8861 48.2880 1.883218 1037.00 982.51 32.20
8862 48.2930 1.883034 1009.00 987.77 31.76
8863 48.2980 1.882851 996.00 993.71 31.56
8864 48.3030 1.882668 979.00 999.28 31.29
8865 48.3080 1.882485 960.00 1004.98 30.98
8866 48.3130 1.882302 960.00 1010.79 30.98
8867 48.3180 1.882118 986.00 1016.67 31.40
8868 48.3230 1.881935 1025.00 1022.62 32.02
8869 48.3280 1.881752 1054.00 1028.60 32.47
8870 48.3330 1.881569 1041.00 1034.58 32.26
8871 48.3380 1.881386 1045.00 1040.54 32.33
8872 48.3430 1.881203 1099.00 1046.45 33.15
8873 48.3480 1.881021 1123.00 1052.28 33.51
8874 48.3530 1.880838 1081.00 1058.03 32.88
8875 48.3580 1.880655 1063.00 1063.69 32.60
8876 48.3630 1.880472 1061.00 1069.24 32.57
8877 48.3680 1.880290 1054.00 1074.65 32.47
8878 48.3730 1.880107 1049.00 1080.04 32.39
8879 48.3780 1.879924 1031.00 1085.38 32.11
8880 48.3830 1.879742 1036.00 1090.71 32.19
8881 48.3880 1.879559 1067.00 1096.04 32.67
8882 48.3930 1.879377 1083.00 1101.44 32.91
8883 48.3980 1.879194 1068.00 1106.91 32.68
8884 48.4030 1.879012 1074.00 1112.50 32.77
8885 48.4080 1.878829 1095.00 1118.23 33.09
8886 48.4130 1.878647 1073.00 1124.12 32.76
8887 48.4180 1.878465 1051.00 1130.16 32.42
8888 48.4230 1.878282 1064.00 1136.40 32.62
8889 48.4280 1.878100 1094.00 1142.73 33.08
8890 48.4330 1.877918 1123.00 1149.19 33.51
8891 48.4380 1.877736 1115.00 1155.73 33.39
8892 48.4430 1.877554 1122.00 1162.31 33.50
8893 48.4480 1.877371 1150.00 1168.89 33.91
8894 48.4530 1.877190 1171.00 1175.39 34.22
8895 48.4580 1.877007 1184.00 1181.78 34.41
8896 48.4630 1.876825 1212.00 1187.99 34.81
8897 48.4680 1.876644 1240.00 1193.91 35.21
8898 48.4730 1.876462 1243.00 1199.46 35.26
8899 48.4780 1.876280 1228.00 1204.57 35.04
8900 48.4830 1.876098 1224.00 1209.06 34.99
8901 48.4880 1.875916 1200.00 1212.88 34.64
8902 48.4930 1.875734 1189.00 1215.89 34.48
8903 48.4980 1.875553 1219.00 1218.05 34.91
8904 48.5030 1.875371 1235.00 1219.19 35.14
8905 48.5080 1.875190 1222.00 1219.05 34.96
8906 48.5130 1.875008 1230.00 1218.06 35.07
8907 48.5180 1.874826 1242.00 1215.99 35.24
8908 48.5230 1.874645 1214.00 1212.84 34.84
8909 48.5280 1.874463 1225.00 1208.68 35.00
8910 48.5330 1.874282 1231.00 1203.61 35.09
8911 48.5380 1.874101 1194.00 1197.74 34.55
8912 48.5430 1.873919 1182.00 1191.23 34.38
8913 48.5480 1.873738 1205.00 1184.25 34.71
8914 48.5530 1.873556 1229.00 1176.95 35.06
8915 48.5580 1.873376 1213.00 1169.51 34.83
8916 48.5630 1.873194 1204.00 1162.10 34.70
8917 48.5680 1.873013 1224.00 1154.87 34.99
8918 48.5730 1.872832 1217.00 1147.95 34.89
8919 48.5780 1.872651 1217.00 1141.48 34.89
8920 48.5830 1.872470 1231.00 1135.53 35.09
8921 48.5880 1.872289 1213.00 1130.21 34.83
8922 48.5930 1.872108 1165.00 1125.44 34.13
8923 48.5980 1.871927 1116.00 1121.54 33.41
8924 48.6030 1.871746 1082.00 1118.37 32.89
8925 48.6080 1.871565 1066.00 1116.02 32.65
8926 48.6130 1.871385 1103.00 1114.47 33.21
8927 48.6180 1.871204 1143.00 1113.71 33.81
8928 48.6230 1.871023 1146.00 1113.74 33.85
8929 48.6280 1.870842 1160.00 1114.52 34.06
8930 48.6330 1.870661 1185.00 1116.03 34.42
8931 48.6380 1.870481 1215.00 1118.22 34.86
8932 48.6430 1.870300 1213.00 1121.05 34.83
8933 48.6480 1.870120 1194.00 1124.46 34.55
8934 48.6530 1.869939 1184.00 1128.38 34.41
8935 48.6580 1.869759 1185.00 1132.74 34.42
8936 48.6630 1.869578 1192.00 1137.27 34.53
8937 48.6680 1.869398 1166.00 1142.27 34.15
8938 48.6730 1.869218 1151.00 1147.44 33.93
8939 48.6780 1.869037 1149.00 1152.68 33.90
8940 48.6830 1.868857 1146.00 1157.89 33.85
8941 48.6880 1.868677 1163.00 1162.95 34.10
8942 48.6930 1.868497 1168.00 1167.75 34.18
8943 48.6980 1.868316 1170.00 1172.17 34.21
8944 48.7030 1.868136 1135.00 1176.28 33.69
8945 48.7080 1.867956 1109.00 1179.62 33.30
8946 48.7130 1.867776 1140.00 1182.27 33.76
8947 48.7180 1.867596 1189.00 1184.16 34.48
8948 48.7230 1.867416 1215.00 1185.21 34.86
8949 48.7280 1.867236 1182.00 1185.40 34.38
8950 48.7330 1.867056 1173.00 1184.69 34.25
8951 48.7380 1.866877 1186.00 1183.11 34.44
8952 48.7430 1.866697 1189.00 1180.66 34.48
8953 48.7480 1.866517 1164.00 1177.40 34.12
8954 48.7530 1.866337 1170.00 1173.38 34.21
8955 48.7580 1.866158 1201.00 1168.67 34.66
8956 48.7630 1.865978 1219.00 1163.35 34.91
8957 48.7680 1.865798 1187.00 1157.51 34.45
8958 48.7730 1.865619 1163.00 1151.23 34.10
8959 48.7780 1.865439 1169.00 1144.61 34.19
8960 48.7830 1.865260 1173.00 1137.74 34.25
8961 48.7880 1.865080 1158.00 1130.76 34.03
8962 48.7930 1.864901 1169.00 1123.67 34.19
8963 48.7980 1.864721 1191.00 1116.61 34.51
8964 48.8030 1.864542 1217.00 1109.67 34.89
8965 48.8080 1.864363 1197.00 1102.96 34.60
8966 48.8130 1.864183 1177.00 1096.54 34.31
8967 48.8180 1.864004 1162.00 1090.52 34.09
8968 48.8230 1.863825 1152.00 1084.94 33.94
8969 48.8280 1.863646 1107.00 1079.88 33.27
8970 48.8330 1.863467 1105.00 1075.34 33.24
8971 48.8380 1.863288 1122.00 1071.49 33.50
8972 48.8430 1.863109 1110.00 1068.45 33.32
8973 48.8480 1.862930 1130.00 1065.99 33.62
8974 48.8530 1.862751 1163.00 1064.26 34.10
8975 48.8580 1.862571 1138.00 1063.31 33.73
8976 48.8630 1.862393 1103.00 1063.15 33.21
8977 48.8680 1.862214 1074.00 1063.79 32.77
8978 48.8730 1.862035 1059.00 1065.26 32.54
8979 48.8780 1.861856 1081.00 1067.67 32.88
8980 48.8830 1.861678 1076.00 1070.81 32.80
8981 48.8880 1.861499 1075.00 1074.80 32.79
8982 48.8930 1.861320 1061.00 1079.64 32.57
8983 48.8980 1.861142 1057.00 1085.32 32.51
8984 48.9030 1.860963 1044.00 1091.83 32.31
8985 48.9080 1.860784 1088.00 1099.17 32.98
8986 48.9130 1.860606 1116.00 1107.32 33.41
8987 48.9180 1.860427 1136.00 1116.25 33.70
8988 48.9230 1.860249 1136.00 1125.93 33.70
8989 48.9280 1.860070 1122.00 1136.33 33.50
8990 48.9330 1.859892 1106.00 1147.41 33.26
8991 48.9380 1.859714 1135.00 1159.14 33.69
8992 48.9430 1.859535 1163.00 1171.42 34.10
8993 48.9480 1.859357 1177.00 1184.23 34.31
8994 48.9530 1.859179 1170.00 1197.47 34.21
8995 48.9580 1.859001 1205.00 1211.10 34.71
8996 48.9630 1.858823 1234.00 1224.99 35.13
8997 48.9680 1.858645 1232.00 1239.05 35.10
8998 48.9730 1.858467 1243.00 1253.14 35.26
8999 48.9780 1.858289 1267.00 1267.22 35.59
9000 48.9830 1.858110 1272.00 1281.13 35.67
9001 48.9880 1.857933 1295.00 1294.74 35.99
9002 48.9930 1.857755 1259.00 1307.87 35.48
9003 48.9980 1.857577 1227.00 1320.40 35.03
9004 49.0030 1.857399 1223.00 1332.17 34.97
9005 49.0080 1.857221 1268.00 1343.01 35.61
9006 49.0130 1.857043 1299.00 1352.76 36.04
9007 49.0180 1.856866 1342.00 1361.31 36.63
9008 49.0230 1.856688 1376.00 1368.51 37.09
9009 49.0280 1.856510 1366.00 1374.26 36.96
9010 49.0330 1.856333 1360.00 1378.51 36.88
9011 49.0380 1.856155 1368.00 1381.22 36.99
9012 49.0430 1.855978 1403.00 1382.42 37.46
9013 49.0480 1.855800 1380.00 1382.17 37.15
9014 49.0530 1.855623 1379.00 1380.58 37.13
9015 49.0580 1.855445 1389.00 1377.79 37.27
9016 49.0630 1.855268 1381.00 1373.99 37.16
9017 49.0680 1.855090 1356.00 1369.36 36.82
9018 49.0730 1.854913 1339.00 1364.09 36.59
9019 49.0780 1.854736 1324.00 1358.32 36.39
9020 49.0830 1.854559 1324.00 1352.37 36.39
9021 49.0880 1.854381 1311.00 1346.33 36.21
9022 49.0930 1.854204 1286.00 1340.33 35.86
9023 49.0980 1.854027 1275.00 1334.47 35.71
9024 49.1030 1.853850 1294.00 1328.84 35.97
9025 49.1080 1.853673 1348.00 1323.48 36.72
9026 49.1130 1.853496 1359.00 1318.40 36.86
9027 49.1180 1.853319 1321.00 1313.61 36.35
9028 49.1230 1.853142 1293.00 1309.06 35.96
9029 49.1280 1.852965 1252.00 1304.70 35.38
9030 49.1330 1.852788 1224.00 1300.48 34.99
9031 49.1380 1.852611 1218.00 1296.29 34.90
9032 49.1430 1.852435 1224.00 1292.05 34.99
9033 49.1480 1.852258 1224.00 1287.65 34.99
9034 49.1530 1.852081 1237.00 1283.02 35.17
9035 49.1580 1.851904 1217.00 1278.06 34.89
9036 49.1630 1.851728 1209.00 1272.70 34.77
9037 49.1680 1.851551 1226.00 1266.88 35.01
9038 49.1730 1.851375 1216.00 1260.59 34.87
9039 49.1780 1.851198 1225.00 1253.80 35.00
9040 49.1830 1.851022 1184.00 1246.57 34.41
9041 49.1880 1.850845 1163.00 1238.93 34.10
9042 49.1930 1.850669 1177.00 1230.96 34.31
9043 49.1980 1.850492 1211.00 1222.76 34.80
9044 49.2030 1.850316 1226.00 1214.43 35.01
9045 49.2080 1.850140 1221.00 1206.10 34.94
9046 49.2130 1.849963 1211.00 1197.88 34.80
9047 49.2180 1.849787 1191.00 1189.86 34.51
9048 49.2230 1.849611 1170.00 1182.16 34.21
9049 49.2280 1.849435 1152.00 1174.85 33.94
9050 49.2330 1.849259 1134.00 1168.01 33.67
9051 49.2380 1.849082 1130.00 1161.69 33.62
9052 49.2430 1.848907 1135.00 1155.94 33.69
9053 49.2480 1.848730 1146.00 1150.77 33.85
9054 49.2530 1.848555 1149.00 1146.22 33.90
9055 49.2580 1.848379 1146.00 1142.27 33.85
9056 49.2630 1.848203 1128.00 1138.93 33.59
9057 49.2680 1.848027 1132.00 1136.18 33.65
9058 49.2730 1.847851 1173.00 1134.00 34.25
9059 49.2780 1.847675 1185.00 1132.36 34.42
9060 49.2830 1.847499 1192.00 1131.22 34.53
9061 49.2880 1.847324 1182.00 1130.55 34.38
9062 49.2930 1.847148 1173.00 1130.32 34.25
9063 49.2980 1.846972 1171.00 1130.48 34.22
9064 49.3030 1.846797 1184.00 1131.01 34.41
9065 49.3080 1.846621 1199.00 1131.76 34.63
9066 49.3130 1.846446 1180.00 1132.92 34.35
9067 49.3180 1.846270 1139.00 1134.31 33.75
9068 49.3230 1.846095 1123.00 1135.91 33.51
9069 49.3280 1.845919 1127.00 1137.75 33.57
9070 49.3330 1.845744 1100.00 1139.78 33.17
9071 49.3380 1.845569 1133.00 1141.99 33.66
9072 49.3430 1.845393 1166.00 1144.35 34.15
9073 49.3480 1.845218 1148.00 1146.85 33.88
9074 49.3530 1.845043 1138.00 1149.47 33.73
9075 49.3580 1.844867 1135.00 1152.18 33.69
9076 49.3630 1.844692 1132.00 1154.97 33.65
9077 49.3680 1.844517 1129.00 1157.81 33.60
9078 49.3730 1.844342 1096.00 1160.69 33.11
9079 49.3780 1.844167 1099.00 1163.58 33.15
9080 49.3830 1.843992 1129.00 1166.47 33.60
9081 49.3880 1.843817 1143.00 1169.35 33.81
9082 49.3930 1.843642 1129.00 1172.20 33.60
9083 49.3980 1.843467 1126.00 1175.01 33.56
9084 49.4030 1.843292 1151.00 1177.78 33.93
9085 49.4080 1.843117 1184.00 1180.51 34.41
9086 49.4130 1.842943 1209.00 1183.19 34.77
9087 49.4180 1.842768 1205.00 1185.87 34.71
9088 49.4230 1.842593 1172.00 1188.45 34.23
9089 49.4280 1.842419 1153.00 1190.98 33.96
9090 49.4330 1.842244 1136.00 1193.44 33.70
9091 49.4380 1.842069 1130.00 1195.85 33.62
9092 49.4430 1.841895 1131.00 1198.20 33.63
9093 49.4480 1.841720 1127.00 1200.27 33.57
9094 49.4530 1.841546 1124.00 1202.62 33.53
9095 49.4580 1.841371 1115.00 1204.68 33.39
9096 49.4630 1.841197 1141.00 1206.60 33.78
9097 49.4680 1.841022 1166.00 1208.35 34.15
9098 49.4730 1.840848 1182.00 1209.91 34.38
9099 49.4780 1.840674 1201.00 1211.24 34.66
9100 49.4830 1.840499 1181.00 1212.31 34.37
9101 49.4880 1.840325 1170.00 1212.94 34.21
9102 49.4930 1.840151 1167.00 1213.43 34.16
9103 49.4980 1.839977 1180.00 1213.60 34.35
9104 49.5030 1.839803 1232.00 1213.44 35.10
9105 49.5080 1.839629 1234.00 1212.97 35.13
9106 49.5130 1.839454 1221.00 1212.22 34.94
9107 49.5180 1.839280 1207.00 1211.17 34.74
9108 49.5230 1.839107 1231.00 1209.87 35.09
9109 49.5280 1.838933 1237.00 1208.36 35.17
9110 49.5330 1.838758 1230.00 1206.66 35.07
9111 49.5380 1.838585 1220.00 1204.82 34.93
9112 49.5430 1.838411 1209.00 1202.87 34.77
9113 49.5480 1.838237 1211.00 1200.84 34.80
9114 49.5530 1.838063 1217.00 1198.76 34.89
9115 49.5580 1.837890 1189.00 1196.66 34.48
9116 49.5630 1.837716 1165.00 1194.57 34.13
9117 49.5680 1.837542 1182.00 1192.52 34.38
9118 49.5730 1.837368 1195.00 1190.55 34.57
9119 49.5780 1.837195 1209.00 1188.71 34.77
9120 49.5830 1.837021 1212.00 1187.04 34.81
9121 49.5880 1.836848 1185.00 1185.61 34.42
9122 49.5930 1.836674 1162.00 1184.48 34.09
9123 49.5980 1.836501 1109.00 1183.72 33.30
9124 49.6030 1.836327 1114.00 1183.39 33.38
9125 49.6080 1.836154 1152.00 1183.58 33.94
9126 49.6130 1.835981 1172.00 1184.35 34.23
9127 49.6180 1.835807 1198.00 1185.78 34.61
9128 49.6230 1.835634 1219.00 1187.92 34.91
9129 49.6280 1.835461 1215.00 1190.86 34.86
9130 49.6330 1.835288 1188.00 1194.63 34.47
9131 49.6380 1.835114 1181.00 1199.28 34.37
9132 49.6430 1.834941 1176.00 1204.88 34.29
9133 49.6480 1.834768 1170.00 1211.44 34.21
9134 49.6530 1.834595 1172.00 1218.99 34.23
9135 49.6580 1.834422 1196.00 1227.56 34.58
9136 49.6630 1.834249 1233.00 1237.14 35.11
9137 49.6680 1.834076 1273.00 1247.74 35.68
9138 49.6730 1.833903 1290.00 1259.32 35.92
9139 49.6780 1.833731 1262.00 1271.88 35.52
9140 49.6830 1.833558 1243.00 1285.39 35.26
9141 49.6880 1.833385 1259.00 1299.77 35.48
9142 49.6930 1.833212 1266.00 1314.99 35.58
9143 49.6980 1.833040 1290.00 1330.99 35.92
9144 49.7030 1.832867 1300.00 1347.69 36.06
9145 49.7080 1.832694 1297.00 1365.00 36.01
9146 49.7130 1.832521 1321.00 1382.73 36.35
9147 49.7180 1.832349 1327.00 1401.03 36.43
9148 49.7230 1.832176 1332.00 1419.65 36.50
9149 49.7280 1.832004 1367.00 1438.47 36.97
9150 49.7330 1.831831 1359.00 1457.40 36.86
9151 49.7380 1.831659 1352.00 1476.28 36.77
9152 49.7430 1.831487 1382.00 1494.95 37.18
9153 49.7480 1.831314 1445.00 1513.27 38.01
9154 49.7530 1.831142 1491.00 1531.07 38.61
9155 49.7580 1.830970 1515.00 1548.14 38.92
9156 49.7630 1.830797 1519.00 1564.30 38.97
9157 49.7680 1.830625 1541.00 1579.34 39.26
9158 49.7730 1.830453 1589.00 1593.04 39.86
9159 49.7780 1.830281 1604.00 1604.85 40.05
9160 49.7830 1.830109 1609.00 1615.29 40.11
9161 49.7880 1.829937 1632.00 1623.85 40.40
9162 49.7930 1.829765 1639.00 1630.39 40.48
9163 49.7980 1.829593 1652.00 1634.78 40.64
9164 49.8030 1.829420 1671.00 1636.99 40.88
9165 49.8080 1.829249 1686.00 1637.01 41.06
9166 49.8130 1.829077 1681.00 1634.89 41.00
9167 49.8180 1.828905 1665.00 1630.75 40.80
9168 49.8230 1.828733 1656.00 1624.73 40.69
9169 49.8280 1.828561 1653.00 1617.06 40.66
9170 49.8330 1.828390 1647.00 1607.94 40.58
9171 49.8380 1.828218 1617.00 1597.65 40.21
9172 49.8430 1.828046 1586.00 1586.47 39.82
9173 49.8480 1.827874 1604.00 1574.71 40.05
9174 49.8530 1.827703 1627.00 1562.64 40.34
9175 49.8580 1.827531 1611.00 1550.52 40.14
9176 49.8630 1.827360 1556.00 1538.63 39.45
9177 49.8680 1.827188 1525.00 1527.19 39.05
9178 49.8730 1.827017 1558.00 1516.37 39.47
9179 49.8780 1.826845 1609.00 1506.35 40.11
9180 49.8830 1.826674 1594.00 1497.24 39.92
9181 49.8880 1.826503 1531.00 1489.14 39.13
9182 49.8930 1.826331 1465.00 1482.08 38.28
9183 49.8980 1.826160 1427.00 1476.09 37.78
9184 49.9030 1.825989 1389.00 1470.71 37.27
9185 49.9080 1.825817 1388.00 1466.80 37.26
9186 49.9130 1.825646 1425.00 1463.72 37.75
9187 49.9180 1.825475 1453.00 1461.62 38.12
9188 49.9230 1.825304 1461.00 1460.24 38.22
9189 49.9280 1.825133 1451.00 1459.46 38.09
9190 49.9330 1.824962 1438.00 1459.14 37.92
9191 49.9380 1.824791 1423.00 1458.68 37.72
9192 49.9430 1.824620 1389.00 1458.76 37.27
9193 49.9480 1.824449 1349.00 1458.77 36.73
9194 49.9530 1.824278 1351.00 1458.53 36.76
9195 49.9580 1.824107 1365.00 1457.85 36.95
9196 49.9630 1.823936 1376.00 1456.64 37.09
9197 49.9680 1.823766 1414.00 1454.58 37.60
9198 49.9730 1.823595 1439.00 1451.62 37.93
9199 49.9780 1.823424 1439.00 1447.63 37.93
9200 49.9830 1.823253 1427.00 1442.54 37.78
9201 49.9880 1.823083 1402.00 1436.31 37.44
9202 49.9930 1.822912 1366.00 1428.95 36.96
9203 49.9980 1.822742 1395.00 1420.49 37.35
9204 50.0030 1.822571 1433.00 1411.03 37.85
9205 50.0080 1.822401 1397.00 1400.68 37.38
9206 50.0130 1.822230 1368.00 1389.62 36.99
9207 50.0180 1.822060 1376.00 1378.06 37.09
9208 50.0230 1.821889 1370.00 1366.09 37.01
9209 50.0280 1.821719 1351.00 1353.97 36.76
9210 50.0330 1.821548 1366.00 1341.90 36.96
9211 50.0380 1.821378 1387.00 1330.02 37.24
9212 50.0430 1.821208 1363.00 1318.53 36.92
9213 50.0480 1.821038 1339.00 1307.56 36.59
9214 50.0530 1.820867 1329.00 1297.24 36.46
9215 50.0580 1.820697 1323.00 1287.66 36.37
9216 50.0630 1.820527 1300.00 1278.90 36.06
9217 50.0680 1.820357 1269.00 1271.03 35.62
9218 50.0730 1.820187 1249.00 1264.08 35.34
9219 50.0780 1.820017 1205.00 1258.05 34.71
9220 50.0830 1.819847 1177.00 1252.98 34.31
9221 50.0880 1.819677 1191.00 1248.83 34.51
9222 50.0930 1.819507 1221.00 1245.69 34.94
9223 50.0980 1.819337 1248.00 1243.34 35.33
9224 50.1030 1.819167 1239.00 1241.81 35.20
9225 50.1080 1.818998 1206.00 1241.06 34.73
9226 50.1130 1.818828 1198.00 1241.01 34.61
9227 50.1180 1.818658 1224.00 1241.58 34.99
9228 50.1230 1.818488 1235.00 1242.69 35.14
9229 50.1280 1.818319 1219.00 1244.23 34.91
9230 50.1330 1.818149 1207.00 1246.10 34.74
9231 50.1380 1.817980 1241.00 1248.16 35.23
9232 50.1430 1.817810 1286.00 1250.30 35.86
9233 50.1480 1.817641 1305.00 1252.38 36.12
9234 50.1530 1.817471 1302.00 1254.25 36.08
9235 50.1580 1.817302 1302.00 1255.79 36.08
9236 50.1630 1.817132 1285.00 1256.83 35.85
9237 50.1680 1.816963 1290.00 1257.24 35.92
9238 50.1730 1.816793 1320.00 1257.01 36.33
9239 50.1780 1.816624 1333.00 1255.86 36.51
9240 50.1830 1.816455 1288.00 1253.79 35.89
9241 50.1880 1.816286 1274.00 1250.74 35.69
9242 50.1930 1.816116 1271.00 1246.70 35.65
9243 50.1980 1.815947 1262.00 1241.66 35.52
9244 50.2030 1.815778 1257.00 1235.67 35.45
9245 50.2080 1.815609 1222.00 1228.80 34.96
9246 50.2130 1.815440 1238.00 1221.12 35.19
9247 50.2180 1.815271 1305.00 1212.75 36.12
9248 50.2230 1.815102 1313.00 1203.81 36.24
9249 50.2280 1.814933 1285.00 1194.41 35.85
9250 50.2330 1.814764 1221.00 1184.67 34.94
9251 50.2380 1.814595 1169.00 1174.68 34.19
9252 50.2430 1.814426 1176.00 1164.64 34.29
9253 50.2480 1.814257 1190.00 1154.44 34.50
9254 50.2530 1.814089 1195.00 1144.24 34.57
9255 50.2580 1.813920 1195.00 1134.09 34.57
9256 50.2630 1.813751 1205.00 1124.04 34.71
9257 50.2680 1.813582 1190.00 1114.10 34.50
9258 50.2730 1.813414 1142.00 1104.30 33.79
9259 50.2780 1.813245 1096.00 1094.66 33.11
9260 50.2830 1.813076 1070.00 1085.19 32.71
9261 50.2880 1.812908 1079.00 1075.90 32.85
9262 50.2930 1.812739 1098.00 1066.81 33.14
9263 50.2980 1.812571 1064.00 1057.94 32.62
9264 50.3030 1.812402 1053.00 1049.30 32.45
9265 50.3080 1.812234 1036.00 1040.91 32.19
9266 50.3130 1.812066 1025.00 1032.79 32.02
9267 50.3180 1.811897 1043.00 1024.97 32.30
9268 50.3230 1.811729 1047.00 1017.46 32.36
9269 50.3280 1.811561 1061.00 1010.28 32.57
9270 50.3330 1.811393 1082.00 1003.44 32.89
9271 50.3380 1.811224 1049.00 997.02 32.39
9272 50.3430 1.811056 1022.00 990.90 31.97
9273 50.3480 1.810888 1006.00 985.15 31.72
9274 50.3530 1.810720 1006.00 979.66 31.72
9275 50.3580 1.810552 1003.00 974.65 31.67
9276 50.3630 1.810384 1016.00 970.01 31.87
9277 50.3680 1.810216 1000.00 965.73 31.62
9278 50.3730 1.810048 989.00 961.79 31.45
9279 50.3780 1.809880 1020.00 958.21 31.94
9280 50.3830 1.809712 1034.00 955.01 32.16
9281 50.3880 1.809544 1019.00 952.09 31.92
9282 50.3930 1.809376 978.00 949.49 31.27
9283 50.3980 1.809209 961.00 947.21 31.00
9284 50.4030 1.809041 945.00 945.23 30.74
9285 50.4080 1.808873 942.00 943.55 30.69
9286 50.4130 1.808706 950.00 942.16 30.82
9287 50.4180 1.808538 953.00 941.06 30.87
9288 50.4230 1.808370 952.00 940.22 30.85
9289 50.4280 1.808203 950.00 939.66 30.82
9290 50.4330 1.808035 966.00 939.36 31.08
9291 50.4380 1.807868 979.00 939.33 31.29
9292 50.4430 1.807700 964.00 939.54 31.05
9293 50.4480 1.807533 956.00 940.02 30.92
9294 50.4530 1.807365 966.00 940.73 31.08
9295 50.4580 1.807198 956.00 941.69 30.92
9296 50.4630 1.807031 953.00 942.87 30.87
9297 50.4680 1.806863 965.00 944.29 31.06
9298 50.4730 1.806696 967.00 945.93 31.10
9299 50.4780 1.806529 934.00 947.78 30.56
9300 50.4830 1.806362 948.00 949.84 30.79
9301 50.4880 1.806195 945.00 952.11 30.74
9302 50.4930 1.806027 918.00 954.56 30.30
9303 50.4980 1.805860 928.00 957.20 30.46
9304 50.5030 1.805693 965.00 960.00 31.06
9305 50.5080 1.805526 956.00 962.95 30.92
9306 50.5130 1.805359 968.00 966.04 31.11
9307 50.5180 1.805192 1016.00 969.25 31.87
9308 50.5230 1.805025 1042.00 972.57 32.28
9309 50.5280 1.804858 1049.00 975.96 32.39
9310 50.5330 1.804692 1012.00 979.41 31.81
9311 50.5380 1.804525 988.00 982.90 31.43
9312 50.5430 1.804358 1010.00 986.38 31.78
9313 50.5480 1.804191 1032.00 989.85 32.12
9314 50.5530 1.804024 1022.00 993.27 31.97
9315 50.5580 1.803858 1015.00 996.61 31.86
9316 50.5630 1.803691 965.00 999.84 31.06
9317 50.5680 1.803524 945.00 1002.93 30.74
9318 50.5730 1.803358 940.00 1005.86 30.66
9319 50.5780 1.803191 976.00 1008.59 31.24
9320 50.5830 1.803025 1031.00 1011.11 32.11
9321 50.5880 1.802858 1082.00 1013.38 32.89
9322 50.5930 1.802692 1029.00 1015.39 32.08
9323 50.5980 1.802526 1021.00 1017.12 31.95
9324 50.6030 1.802359 1013.00 1018.55 31.83
9325 50.6080 1.802193 1004.00 1019.70 31.69
9326 50.6130 1.802027 1010.00 1020.55 31.78
9327 50.6180 1.801860 1038.00 1021.10 32.22
9328 50.6230 1.801694 993.00 1021.38 31.51
9329 50.6280 1.801528 1003.00 1021.38 31.67
9330 50.6330 1.801362 1062.00 1021.14 32.59
9331 50.6380 1.801196 1109.00 1020.68 33.30
9332 50.6430 1.801029 1058.00 1020.03 32.53
9333 50.6480 1.800863 1016.00 1019.21 31.87
9334 50.6530 1.800697 1023.00 1018.30 31.98
9335 50.6580 1.800531 1075.00 1017.31 32.79
9336 50.6630 1.800365 1105.00 1016.29 33.24
9337 50.6680 1.800200 1143.00 1015.29 33.81
9338 50.6730 1.800033 1099.00 1014.34 33.15
9339 50.6780 1.799868 1106.00 1013.48 33.26
9340 50.6830 1.799702 1071.00 1012.74 32.73
9341 50.6880 1.799536 1044.00 1012.17 32.31
9342 50.6930 1.799370 1056.00 1011.79 32.50
9343 50.6980 1.799204 1037.00 1011.64 32.20
9344 50.7030 1.799039 1042.00 1011.73 32.28
9345 50.7080 1.798873 1036.00 1012.09 32.19
9346 50.7130 1.798707 1017.00 1012.76 31.89
9347 50.7180 1.798542 1009.00 1013.75 31.76
9348 50.7230 1.798376 981.00 1015.10 31.32
9349 50.7280 1.798211 950.00 1016.83 30.82
9350 50.7330 1.798045 1008.00 1018.96 31.75
9351 50.7380 1.797880 1062.00 1021.53 32.59
9352 50.7430 1.797714 1056.00 1024.56 32.50
9353 50.7480 1.797549 1014.00 1028.06 31.84
9354 50.7530 1.797384 1009.00 1031.96 31.76
9355 50.7580 1.797218 1029.00 1036.48 32.08
9356 50.7630 1.797053 1057.00 1041.52 32.51
9357 50.7680 1.796888 1043.00 1047.11 32.30
9358 50.7730 1.796723 1050.00 1053.24 32.40
9359 50.7780 1.796557 1048.00 1059.91 32.37
9360 50.7830 1.796392 1079.00 1067.12 32.85
9361 50.7880 1.796227 1090.00 1074.86 33.02
9362 50.7930 1.796062 1078.00 1083.12 32.83
9363 50.7980 1.795897 1113.00 1091.86 33.36
9364 50.8030 1.795732 1112.00 1101.08 33.35
9365 50.8080 1.795567 1127.00 1110.73 33.57
9366 50.8130 1.795402 1063.00 1120.78 32.60
9367 50.8180 1.795237 1076.00 1131.18 32.80
9368 50.8230 1.795072 1104.00 1141.90 33.23
9369 50.8280 1.794908 1132.00 1152.87 33.65
9370 50.8330 1.794743 1184.00 1164.01 34.41
9371 50.8380 1.794578 1233.00 1175.29 35.11
9372 50.8430 1.794413 1247.00 1186.71 35.31
9373 50.8480 1.794248 1240.00 1197.99 35.21
9374 50.8530 1.794084 1293.00 1209.14 35.96
9375 50.8580 1.793919 1234.00 1220.07 35.13
9376 50.8630 1.793754 1226.00 1230.71 35.01
9377 50.8680 1.793590 1230.00 1240.92 35.07
9378 50.8730 1.793425 1219.00 1250.70 34.91
9379 50.8780 1.793261 1267.00 1259.86 35.59
9380 50.8830 1.793096 1289.00 1268.36 35.90
9381 50.8880 1.792932 1291.00 1276.16 35.93
9382 50.8930 1.792767 1319.00 1283.23 36.32
9383 50.8980 1.792603 1326.00 1289.53 36.41
9384 50.9030 1.792439 1317.00 1295.10 36.29
9385 50.9080 1.792274 1299.00 1299.97 36.04
9386 50.9130 1.792110 1304.00 1304.20 36.11
9387 50.9180 1.791946 1283.00 1307.87 35.82
9388 50.9230 1.791782 1276.00 1311.08 35.72
9389 50.9280 1.791617 1245.00 1313.95 35.28
9390 50.9330 1.791453 1254.00 1316.57 35.41
9391 50.9380 1.791289 1303.00 1319.05 36.10
9392 50.9430 1.791125 1316.00 1321.49 36.28
9393 50.9480 1.790961 1324.00 1323.99 36.39
9394 50.9530 1.790797 1303.00 1326.62 36.10
9395 50.9580 1.790633 1288.00 1329.44 35.89
9396 50.9630 1.790469 1283.00 1332.50 35.82
9397 50.9680 1.790305 1314.00 1335.82 36.25
9398 50.9730 1.790141 1363.00 1339.43 36.92
9399 50.9780 1.789978 1407.00 1343.32 37.51
9400 50.9830 1.789814 1368.00 1347.49 36.99
9401 50.9880 1.789650 1377.00 1351.92 37.11
9402 50.9930 1.789486 1377.00 1356.58 37.11
9403 50.9980 1.789322 1375.00 1361.47 37.08
9404 51.0030 1.789159 1390.00 1366.55 37.28
9405 51.0080 1.788995 1397.00 1371.80 37.38
9406 51.0130 1.788832 1387.00 1377.22 37.24
9407 51.0180 1.788668 1406.00 1382.81 37.50
9408 51.0230 1.788505 1404.00 1388.60 37.47
9409 51.0280 1.788341 1398.00 1394.61 37.39
9410 51.0330 1.788177 1388.00 1400.90 37.26
9411 51.0380 1.788014 1423.00 1407.54 37.72
9412 51.0430 1.787851 1428.00 1414.61 37.79
9413 51.0480 1.787687 1429.00 1422.21 37.80
9414 51.0530 1.787524 1449.00 1430.43 38.07
9415 51.0580 1.787361 1449.00 1439.37 38.07
9416 51.0630 1.787197 1407.00 1449.10 37.51
9417 51.0680 1.787034 1400.00 1459.70 37.42
9418 51.0730 1.786871 1445.00 1471.23 38.01
9419 51.0780 1.786708 1458.00 1483.73 38.18
9420 51.0830 1.786545 1415.00 1497.17 37.62
9421 51.0880 1.786381 1408.00 1511.56 37.52
9422 51.0930 1.786219 1435.00 1526.86 37.88
9423 51.0980 1.786055 1518.00 1542.96 38.96
9424 51.1030 1.785892 1568.00 1559.78 39.60
9425 51.1080 1.785729 1594.00 1577.22 39.92
9426 51.1130 1.785566 1623.00 1595.02 40.29
9427 51.1180 1.785403 1575.00 1613.15 39.69
9428 51.1230 1.785241 1584.00 1631.37 39.80
9429 51.1280 1.785078 1579.00 1649.43 39.74
9430 51.1330 1.784915 1591.00 1667.13 39.89
9431 51.1380 1.784752 1615.00 1684.17 40.19
9432 51.1430 1.784589 1652.00 1700.32 40.64
9433 51.1480 1.784427 1713.00 1715.32 41.39
9434 51.1530 1.784264 1693.00 1728.86 41.15
9435 51.1580 1.784101 1717.00 1740.70 41.44
9436 51.1630 1.783939 1776.00 1750.57 42.14
9437 51.1680 1.783776 1747.00 1758.21 41.80
9438 51.1730 1.783614 1754.00 1763.39 41.88
9439 51.1780 1.783451 1809.00 1765.94 42.53
9440 51.1830 1.783289 1869.00 1765.69 43.23
9441 51.1880 1.783126 1884.00 1762.54 43.41
9442 51.1930 1.782964 1906.00 1756.48 43.66
9443 51.1980 1.782801 1905.00 1747.53 43.65
9444 51.2030 1.782639 1894.00 1735.78 43.52
9445 51.2080 1.782477 1895.00 1721.49 43.53
9446 51.2130 1.782314 1862.00 1704.71 43.15
9447 51.2180 1.782152 1811.00 1685.79 42.56
9448 51.2230 1.781990 1774.00 1665.09 42.12
9449 51.2280 1.781828 1757.00 1642.95 41.92
9450 51.2330 1.781666 1744.00 1619.68 41.76
9451 51.2380 1.781504 1751.00 1595.68 41.85
9452 51.2430 1.781341 1724.00 1571.27 41.52
9453 51.2480 1.781179 1663.00 1546.76 40.78
9454 51.2530 1.781017 1636.00 1522.43 40.45
9455 51.2580 1.780855 1597.00 1498.52 39.96
9456 51.2630 1.780693 1557.00 1475.25 39.46
9457 51.2680 1.780531 1492.00 1452.77 38.63
9458 51.2730 1.780370 1458.00 1431.19 38.18
9459 51.2780 1.780208 1442.00 1410.46 37.97
9460 51.2830 1.780046 1443.00 1390.99 37.99
9461 51.2880 1.779884 1426.00 1372.64 37.76
9462 51.2930 1.779722 1387.00 1355.43 37.24
9463 51.2980 1.779561 1344.00 1339.33 36.66
9464 51.3030 1.779399 1313.00 1324.35 36.24
9465 51.3080 1.779237 1313.00 1310.45 36.24
9466 51.3130 1.779076 1314.00 1297.53 36.25
9467 51.3180 1.778914 1305.00 1285.59 36.12
9468 51.3230 1.778752 1273.00 1274.53 35.68
9469 51.3280 1.778591 1252.00 1264.29 35.38
9470 51.3330 1.778430 1234.00 1254.81 35.13
9471 51.3380 1.778268 1204.00 1245.98 34.70
9472 51.3430 1.778107 1205.00 1237.77 34.71
9473 51.3480 1.777945 1205.00 1230.10 34.71
9474 51.3530 1.777784 1207.00 1222.89 34.74
9475 51.3580 1.777622 1250.00 1216.09 35.36
9476 51.3630 1.777461 1270.00 1209.63 35.64
9477 51.3680 1.777300 1273.00 1203.45 35.68
9478 51.3730 1.777139 1261.00 1197.50 35.51
9479 51.3780 1.776978 1224.00 1191.72 34.99
9480 51.3830 1.776816 1192.00 1186.07 34.53
9481 51.3880 1.776655 1175.00 1180.52 34.28
9482 51.3930 1.776494 1176.00 1175.01 34.29
9483 51.3980 1.776333 1183.00 1169.54 34.39
9484 51.4030 1.776172 1180.00 1164.09 34.35
9485 51.4080 1.776011 1198.00 1158.66 34.61
9486 51.4130 1.775850 1182.00 1153.27 34.38
9487 51.4180 1.775689 1146.00 1147.93 33.85
9488 51.4230 1.775528 1137.00 1142.69 33.72
9489 51.4280 1.775367 1137.00 1137.58 33.72
9490 51.4330 1.775207 1157.00 1132.66 34.01
9491 51.4380 1.775046 1147.00 1127.98 33.87
9492 51.4430 1.774885 1132.00 1123.63 33.65
9493 51.4480 1.774724 1126.00 1119.61 33.56
9494 51.4530 1.774564 1128.00 1116.01 33.59
9495 51.4580 1.774403 1107.00 1112.89 33.27
9496 51.4630 1.774242 1087.00 1110.28 32.97
9497 51.4680 1.774082 1094.00 1108.23 33.08
9498 51.4730 1.773921 1108.00 1106.79 33.29
9499 51.4780 1.773760 1149.00 1105.97 33.90
9500 51.4830 1.773600 1169.00 1105.81 34.19
9501 51.4880 1.773439 1185.00 1106.32 34.42
9502 51.4930 1.773279 1213.00 1107.46 34.83
9503 51.4980 1.773118 1180.00 1109.35 34.35
9504 51.5030 1.772958 1127.00 1111.85 33.57
9505 51.5080 1.772798 1089.00 1115.11 33.00
9506 51.5130 1.772637 1095.00 1119.04 33.09
9507 51.5180 1.772477 1099.00 1123.63 33.15
9508 51.5230 1.772317 1095.00 1128.84 33.09
9509 51.5280 1.772157 1146.00 1134.66 33.85
9510 51.5330 1.771996 1153.00 1141.04 33.96
9511 51.5380 1.771836 1122.00 1147.93 33.50
9512 51.5430 1.771676 1117.00 1155.31 33.42
9513 51.5480 1.771516 1122.00 1163.11 33.50
9514 51.5530 1.771356 1136.00 1171.20 33.70
9515 51.5580 1.771196 1138.00 1179.67 33.73
9516 51.5630 1.771036 1130.00 1188.38 33.62
9517 51.5680 1.770876 1140.00 1197.24 33.76
9518 51.5730 1.770716 1162.00 1206.20 34.09
9519 51.5780 1.770556 1226.00 1215.17 35.01
9520 51.5830 1.770396 1224.00 1224.07 34.99
9521 51.5880 1.770236 1196.00 1232.83 34.58
9522 51.5930 1.770077 1202.00 1241.38 34.67
9523 51.5980 1.769917 1209.00 1249.68 34.77
9524 51.6030 1.769757 1219.00 1257.55 34.91
9525 51.6080 1.769597 1245.00 1265.00 35.28
9526 51.6130 1.769438 1240.00 1271.95 35.21
9527 51.6180 1.769278 1267.00 1278.35 35.59
9528 51.6230 1.769118 1307.00 1284.16 36.15
9529 51.6280 1.768959 1299.00 1289.36 36.04
9530 51.6330 1.768799 1305.00 1293.94 36.12
9531 51.6380 1.768640 1285.00 1297.91 35.85
9532 51.6430 1.768480 1273.00 1301.30 35.68
9533 51.6480 1.768321 1258.00 1304.15 35.47
9534 51.6530 1.768161 1240.00 1306.52 35.21
9535 51.6580 1.768002 1261.00 1308.50 35.51
9536 51.6630 1.767843 1298.00 1310.18 36.03
9537 51.6680 1.767683 1332.00 1311.62 36.50
9538 51.6730 1.767524 1360.00 1312.94 36.88
9539 51.6780 1.767365 1385.00 1314.19 37.22
9540 51.6830 1.767206 1370.00 1315.46 37.01
9541 51.6880 1.767046 1328.00 1316.79 36.44
9542 51.6930 1.766887 1303.00 1318.22 36.10
9543 51.6980 1.766728 1260.00 1319.77 35.50
9544 51.7030 1.766569 1242.00 1321.44 35.24
9545 51.7080 1.766410 1254.00 1323.23 35.41
9546 51.7130 1.766251 1297.00 1325.10 36.01
9547 51.7180 1.766092 1303.00 1327.01 36.10
9548 51.7230 1.765933 1326.00 1328.91 36.41
9549 51.7280 1.765774 1378.00 1330.75 37.12
9550 51.7330 1.765615 1409.00 1332.46 37.54
9551 51.7380 1.765456 1371.00 1333.98 37.03
9552 51.7430 1.765297 1375.00 1335.22 37.08
9553 51.7480 1.765139 1386.00 1336.12 37.23
9554 51.7530 1.764980 1405.00 1336.60 37.48
9555 51.7580 1.764821 1446.00 1336.58 38.03
9556 51.7630 1.764662 1446.00 1335.99 38.03
9557 51.7680 1.764503 1425.00 1334.74 37.75
9558 51.7730 1.764345 1428.00 1332.77 37.79
9559 51.7780 1.764186 1418.00 1330.02 37.66
9560 51.7830 1.764028 1415.00 1326.43 37.62
9561 51.7880 1.763869 1371.00 1321.96 37.03
9562 51.7930 1.763711 1324.00 1316.59 36.39
9563 51.7980 1.763552 1312.00 1310.32 36.22
9564 51.8030 1.763394 1295.00 1303.13 35.99
9565 51.8080 1.763235 1268.00 1295.09 35.61
9566 51.8130 1.763077 1277.00 1286.20 35.74
9567 51.8180 1.762918 1254.00 1276.55 35.41
9568 51.8230 1.762760 1244.00 1266.19 35.27
9569 51.8280 1.762602 1253.00 1255.21 35.40
9570 51.8330 1.762444 1218.00 1243.45 34.90
9571 51.8380 1.762285 1214.00 1231.54 34.84
9572 51.8430 1.762127 1180.00 1219.31 34.35
9573 51.8480 1.761969 1156.00 1206.88 34.00
9574 51.8530 1.761811 1095.00 1194.32 33.09
9575 51.8580 1.761653 1110.00 1181.74 33.32
9576 51.8630 1.761495 1198.00 1169.21 34.61
9577 51.8680 1.761337 1179.00 1156.81 34.34
9578 51.8730 1.761178 1170.00 1144.60 34.21
9579 51.8780 1.761021 1141.00 1132.62 33.78
9580 51.8830 1.760863 1141.00 1120.92 33.78
9581 51.8880 1.760705 1119.00 1109.53 33.45
9582 51.8930 1.760547 1111.00 1098.47 33.33
9583 51.8980 1.760389 1107.00 1087.75 33.27
9584 51.9030 1.760231 1102.00 1077.40 33.20
9585 51.9080 1.760073 1156.00 1067.41 34.00
9586 51.9130 1.759916 1163.00 1057.81 34.10
9587 51.9180 1.759758 1180.00 1048.60 34.35
9588 51.9230 1.759600 1166.00 1039.78 34.15
9589 51.9280 1.759442 1101.00 1031.37 33.18
9590 51.9330 1.759285 1059.00 1023.36 32.54
9591 51.9380 1.759127 1041.00 1015.78 32.26
9592 51.9430 1.758970 1052.00 1008.62 32.43
9593 51.9480 1.758812 1072.00 1001.89 32.74
9594 51.9530 1.758654 1050.00 995.59 32.40
9595 51.9580 1.758497 1024.00 989.72 32.00
9596 51.9630 1.758340 1020.00 984.27 31.94
9597 51.9680 1.758182 1026.00 979.24 32.03
9598 51.9730 1.758025 1033.00 974.45 32.14
9599 51.9780 1.757867 1001.00 970.23 31.64
9600 51.9830 1.757710 937.00 966.40 30.61
9601 51.9880 1.757553 925.00 962.95 30.41
9602 51.9930 1.757396 964.00 959.85 31.05
9603 51.9980 1.757238 1032.00 957.10 32.12
9604 52.0030 1.757081 1023.00 954.66 31.98
9605 52.0080 1.756924 1036.00 952.52 32.19
9606 52.0130 1.756767 1033.00 950.67 32.14
9607 52.0180 1.756610 986.00 949.08 31.40
9608 52.0230 1.756453 963.00 947.72 31.03
9609 52.0280 1.756296 933.00 946.59 30.55
9610 52.0330 1.756139 934.00 945.64 30.56
9611 52.0380 1.755982 907.00 944.86 30.12
9612 52.0430 1.755825 887.00 944.25 29.78
9613 52.0480 1.755668 937.00 943.74 30.61
9614 52.0530 1.755511 966.00 943.33 31.08
9615 52.0580 1.755354 988.00 942.99 31.43
9616 52.0630 1.755197 981.00 942.71 31.32
9617 52.0680 1.755040 980.00 942.45 31.31
9618 52.0730 1.754884 966.00 942.20 31.08
9619 52.0780 1.754727 942.00 941.93 30.69
9620 52.0830 1.754570 940.00 941.64 30.66
9621 52.0880 1.754414 930.00 941.30 30.50
9622 52.0930 1.754257 901.00 940.92 30.02
9623 52.0980 1.754100 922.00 940.47 30.36
9624 52.1030 1.753944 965.00 939.97 31.06
9625 52.1080 1.753787 966.00 939.41 31.08
9626 52.1130 1.753631 911.00 938.81 30.18
9627 52.1180 1.753474 924.00 938.14 30.40
9628 52.1230 1.753318 949.00 937.49 30.81
9629 52.1280 1.753161 968.00 936.86 31.11
9630 52.1330 1.753005 993.00 936.25 31.51
9631 52.1380 1.752849 958.00 935.70 30.95
9632 52.1430 1.752692 915.00 935.23 30.25
9633 52.1480 1.752536 949.00 934.85 30.81
9634 52.1530 1.752380 963.00 934.60 31.03
9635 52.1580 1.752224 980.00 934.49 31.31
9636 52.1630 1.752068 1012.00 934.54 31.81
9637 52.1680 1.751911 1010.00 934.77 31.78
9638 52.1730 1.751755 966.00 935.19 31.08
9639 52.1780 1.751599 970.00 935.82 31.14
9640 52.1830 1.751443 941.00 936.64 30.68
9641 52.1880 1.751287 915.00 937.72 30.25
9642 52.1930 1.751131 921.00 939.05 30.35
9643 52.1980 1.750975 937.00 940.62 30.61
9644 52.2030 1.750819 950.00 942.45 30.82
9645 52.2080 1.750663 942.00 944.54 30.69
9646 52.2130 1.750507 949.00 946.88 30.81
9647 52.2180 1.750351 940.00 949.50 30.66
9648 52.2230 1.750196 933.00 952.40 30.55
9649 52.2280 1.750040 901.00 955.57 30.02
9650 52.2330 1.749884 906.00 958.99 30.10
9651 52.2380 1.749728 899.00 962.71 29.98
9652 52.2430 1.749573 923.00 966.71 30.38
9653 52.2480 1.749417 938.00 970.98 30.63
9654 52.2530 1.749261 973.00 975.52 31.19
9655 52.2580 1.749106 977.00 980.32 31.26
9656 52.2630 1.748950 976.00 985.40 31.24
9657 52.2680 1.748795 970.00 990.74 31.14
9658 52.2730 1.748639 963.00 996.36 31.03
9659 52.2780 1.748484 1010.00 1002.23 31.78
9660 52.2830 1.748328 1021.00 1008.37 31.95
9661 52.2880 1.748173 987.00 1014.77 31.42
9662 52.2930 1.748017 961.00 1021.43 31.00
9663 52.2980 1.747862 983.00 1028.36 31.35
9664 52.3030 1.747707 974.00 1035.57 31.21
9665 52.3080 1.747551 971.00 1043.13 31.16
9666 52.3130 1.747396 983.00 1050.86 31.35
9667 52.3180 1.747241 1031.00 1058.76 32.11
9668 52.3230 1.747086 1078.00 1067.00 32.83
9669 52.3280 1.746930 1042.00 1075.48 32.28
9670 52.3330 1.746775 1058.00 1084.14 32.53
9671 52.3380 1.746620 1096.00 1092.98 33.11
9672 52.3430 1.746465 1126.00 1101.95 33.56
9673 52.3480 1.746310 1106.00 1110.99 33.26
9674 52.3530 1.746155 1044.00 1120.04 32.31
9675 52.3580 1.746000 1008.00 1129.05 31.75
9676 52.3630 1.745845 1039.00 1137.93 32.23
9677 52.3680 1.745690 1087.00 1146.60 32.97
9678 52.3730 1.745535 1111.00 1154.96 33.33
9679 52.3780 1.745381 1085.00 1162.92 32.94
9680 52.3830 1.745226 1096.00 1170.38 33.11
9681 52.3880 1.745071 1135.00 1177.22 33.69
9682 52.3930 1.744916 1115.00 1183.28 33.39
9683 52.3980 1.744761 1108.00 1188.60 33.29
9684 52.4030 1.744607 1164.00 1193.01 34.12
9685 52.4080 1.744452 1206.00 1196.41 34.73
9686 52.4130 1.744297 1190.00 1198.75 34.50
9687 52.4180 1.744143 1190.00 1200.00 34.50
9688 52.4230 1.743988 1167.00 1200.08 34.16
9689 52.4280 1.743834 1141.00 1198.91 33.78
9690 52.4330 1.743679 1126.00 1196.54 33.56
9691 52.4380 1.743525 1131.00 1193.00 33.63
9692 52.4430 1.743370 1175.00 1188.35 34.28
9693 52.4480 1.743216 1207.00 1182.64 34.74
9694 52.4530 1.743061 1199.00 1175.96 34.63
9695 52.4580 1.742907 1173.00 1168.42 34.25
9696 52.4630 1.742753 1148.00 1160.12 33.88
9697 52.4680 1.742598 1114.00 1151.18 33.38
9698 52.4730 1.742444 1104.00 1141.73 33.23
9699 52.4780 1.742290 1113.00 1131.87 33.36
9700 52.4830 1.742136 1117.00 1121.72 33.42
9701 52.4880 1.741981 1089.00 1111.37 33.00
9702 52.4930 1.741827 1062.00 1100.92 32.59
9703 52.4980 1.741673 1044.00 1090.46 32.31
9704 52.5030 1.741519 1040.00 1080.04 32.25
9705 52.5080 1.741365 1036.00 1069.75 32.19
9706 52.5130 1.741211 1014.00 1059.64 31.84
9707 52.5180 1.741057 1005.00 1049.75 31.70
9708 52.5230 1.740903 1007.00 1040.14 31.73
9709 52.5280 1.740749 986.00 1030.86 31.40
9710 52.5330 1.740595 984.00 1021.90 31.37
9711 52.5380 1.740441 1013.00 1013.32 31.83
9712 52.5430 1.740287 994.00 1005.16 31.53
9713 52.5480 1.740134 957.00 997.43 30.94
9714 52.5530 1.739980 950.00 990.11 30.82
9715 52.5580 1.739826 961.00 983.27 31.00
9716 52.5630 1.739672 957.00 976.89 30.94
9717 52.5680 1.739519 945.00 970.99 30.74
9718 52.5730 1.739365 926.00 965.54 30.43
9719 52.5780 1.739211 899.00 960.56 29.98
9720 52.5830 1.739058 917.00 956.04 30.28
9721 52.5880 1.738904 970.00 951.97 31.14
9722 52.5930 1.738751 993.00 948.35 31.51
9723 52.5980 1.738597 996.00 945.15 31.56
9724 52.6030 1.738443 1004.00 942.37 31.69
9725 52.6080 1.738290 992.00 940.00 31.50
9726 52.6130 1.738137 956.00 938.01 30.92
9727 52.6180 1.737983 908.00 936.41 30.13
9728 52.6230 1.737830 904.00 935.16 30.07
9729 52.6280 1.737677 950.00 934.26 30.82
9730 52.6330 1.737523 960.00 933.70 30.98
9731 52.6380 1.737370 956.00 933.19 30.92
9732 52.6430 1.737217 952.00 933.22 30.85
9733 52.6480 1.737064 940.00 933.52 30.66
9734 52.6530 1.736910 932.00 934.06 30.53
9735 52.6580 1.736757 949.00 934.86 30.81
9736 52.6630 1.736604 949.00 935.88 30.81
9737 52.6680 1.736451 955.00 936.92 30.90
9738 52.6730 1.736298 985.00 938.32 31.38
9739 52.6780 1.736145 978.00 939.88 31.27
9740 52.6830 1.735992 950.00 941.59 30.82
9741 52.6880 1.735839 937.00 943.41 30.61
9742 52.6930 1.735686 944.00 945.32 30.72
9743 52.6980 1.735533 961.00 947.31 31.00
9744 52.7030 1.735380 974.00 949.36 31.21
9745 52.7080 1.735227 970.00 951.44 31.14
9746 52.7130 1.735075 982.00 953.54 31.34
9747 52.7180 1.734922 1000.00 955.65 31.62
9748 52.7230 1.734769 1018.00 957.74 31.91
9749 52.7280 1.734616 1006.00 959.80 31.72
9750 52.7330 1.734463 982.00 961.83 31.34
9751 52.7380 1.734311 977.00 963.82 31.26
9752 52.7430 1.734158 967.00 965.76 31.10
9753 52.7480 1.734006 955.00 967.65 30.90
9754 52.7530 1.733853 926.00 969.50 30.43
9755 52.7580 1.733701 944.00 971.30 30.72
9756 52.7630 1.733548 993.00 973.07 31.51
9757 52.7680 1.733395 1016.00 974.80 31.87
9758 52.7730 1.733243 994.00 976.51 31.53
9759 52.7780 1.733091 1000.00 978.20 31.62
9760 52.7830 1.732938 1015.00 979.88 31.86
9761 52.7880 1.732786 1016.00 981.57 31.87
9762 52.7930 1.732634 1023.00 983.27 31.98
9763 52.7980 1.732481 1005.00 985.00 31.70
9764 52.8030 1.732329 985.00 986.81 31.38
9765 52.8080 1.732177 1016.00 988.60 31.87
9766 52.8130 1.732025 1020.00 990.52 31.94
9767 52.8180 1.731872 1011.00 992.53 31.80
9768 52.8230 1.731720 1021.00 994.64 31.95
9769 52.8280 1.731568 1007.00 996.89 31.73
9770 52.8330 1.731416 976.00 999.28 31.24
9771 52.8380 1.731264 992.00 1001.83 31.50
9772 52.8430 1.731112 1028.00 1004.30 32.06
9773 52.8480 1.730960 1046.00 1007.23 32.34
9774 52.8530 1.730808 1034.00 1010.35 32.16
9775 52.8580 1.730656 1013.00 1013.70 31.83
9776 52.8630 1.730504 1028.00 1017.26 32.06
9777 52.8680 1.730352 1052.00 1021.05 32.43
9778 52.8730 1.730200 1056.00 1025.07 32.50
9779 52.8780 1.730049 1045.00 1029.33 32.33
9780 52.8830 1.729897 1043.00 1033.80 32.30
9781 52.8880 1.729745 1055.00 1038.48 32.48
9782 52.8930 1.729593 1040.00 1043.36 32.25
9783 52.8980 1.729442 1034.00 1048.42 32.16
9784 52.9030 1.729290 1076.00 1053.64 32.80
9785 52.9080 1.729138 1128.00 1058.98 33.59
9786 52.9130 1.728987 1112.00 1064.44 33.35
9787 52.9180 1.728835 1119.00 1069.97 33.45
9788 52.9230 1.728683 1087.00 1075.54 32.97
9789 52.9280 1.728532 1078.00 1081.15 32.83
9790 52.9330 1.728380 1070.00 1086.72 32.71
9791 52.9380 1.728229 1059.00 1092.26 32.54
9792 52.9430 1.728078 1071.00 1097.72 32.73
9793 52.9480 1.727926 1073.00 1103.08 32.76
9794 52.9530 1.727775 1081.00 1108.31 32.88
9795 52.9580 1.727623 1081.00 1113.36 32.88
9796 52.9630 1.727472 1114.00 1118.23 33.38
9797 52.9680 1.727321 1134.00 1122.89 33.67
9798 52.9730 1.727170 1141.00 1127.30 33.78
9799 52.9780 1.727018 1133.00 1131.45 33.66
9800 52.9830 1.726867 1094.00 1135.33 33.08
9801 52.9880 1.726716 1069.00 1138.94 32.70
9802 52.9930 1.726565 1110.00 1142.25 33.32
9803 52.9980 1.726414 1145.00 1145.28 33.84
9804 53.0030 1.726263 1148.00 1148.02 33.88
9805 53.0080 1.726112 1157.00 1150.49 34.01
9806 53.0130 1.725960 1202.00 1152.68 34.67
9807 53.0180 1.725809 1185.00 1154.62 34.42
9808 53.0230 1.725659 1190.00 1156.31 34.50
9809 53.0280 1.725508 1187.00 1157.75 34.45
9810 53.0330 1.725357 1219.00 1158.98 34.91
9811 53.0380 1.725206 1271.00 1159.99 35.65
9812 53.0430 1.725055 1197.00 1160.81 34.60
9813 53.0480 1.724904 1177.00 1161.45 34.31
9814 53.0530 1.724753 1195.00 1161.74 34.57
9815 53.0580 1.724603 1191.00 1162.11 34.51
9816 53.0630 1.724452 1157.00 1162.33 34.01
9817 53.0680 1.724301 1120.00 1162.45 33.47
9818 53.0730 1.724151 1129.00 1162.48 33.60
9819 53.0780 1.724000 1135.00 1162.43 33.69
9820 53.0830 1.723849 1127.00 1162.32 33.57
9821 53.0880 1.723699 1173.00 1162.13 34.25
9822 53.0930 1.723548 1150.00 1161.88 33.91
9823 53.0980 1.723398 1138.00 1161.56 33.73
9824 53.1030 1.723247 1212.00 1161.16 34.81
9825 53.1080 1.723097 1264.00 1160.66 35.55
9826 53.1130 1.722946 1255.00 1160.07 35.43
9827 53.1180 1.722796 1194.00 1159.38 34.55
9828 53.1230 1.722646 1211.00 1158.59 34.80
9829 53.1280 1.722495 1218.00 1157.69 34.90
9830 53.1330 1.722345 1189.00 1156.71 34.48
9831 53.1380 1.722195 1204.00 1155.64 34.70
9832 53.1430 1.722044 1179.00 1154.53 34.34
9833 53.1480 1.721894 1181.00 1153.37 34.37
9834 53.1530 1.721744 1174.00 1152.15 34.26
9835 53.1580 1.721594 1133.00 1150.98 33.66
9836 53.1630 1.721444 1101.00 1149.83 33.18
9837 53.1680 1.721294 1150.00 1148.70 33.91
9838 53.1730 1.721144 1183.00 1147.60 34.39
9839 53.1780 1.720993 1199.00 1146.54 34.63
9840 53.1830 1.720844 1163.00 1145.49 34.10
9841 53.1880 1.720693 1131.00 1144.46 33.63
9842 53.1930 1.720544 1216.00 1143.42 34.87
9843 53.1980 1.720394 1215.00 1142.36 34.86
9844 53.2030 1.720244 1177.00 1141.26 34.31
9845 53.2080 1.720094 1188.00 1140.11 34.47
9846 53.2130 1.719944 1164.00 1138.93 34.12
9847 53.2180 1.719794 1187.00 1137.63 34.45
9848 53.2230 1.719644 1140.00 1136.25 33.76
9849 53.2280 1.719495 1103.00 1134.78 33.21
9850 53.2330 1.719345 1132.00 1133.23 33.65
9851 53.2380 1.719195 1162.00 1131.59 34.09
9852 53.2430 1.719046 1126.00 1129.87 33.56
9853 53.2480 1.718896 1106.00 1128.05 33.26
9854 53.2530 1.718746 1071.00 1126.14 32.73
9855 53.2580 1.718597 1107.00 1124.15 33.27
9856 53.2630 1.718447 1103.00 1122.06 33.21
9857 53.2680 1.718298 1130.00 1119.88 33.62
9858 53.2730 1.718148 1115.00 1117.60 33.39
9859 53.2780 1.717999 1083.00 1115.24 32.91
9860 53.2830 1.717849 1059.00 1112.79 32.54
9861 53.2880 1.717700 1109.00 1110.26 33.30
9862 53.2930 1.717551 1120.00 1107.68 33.47
9863 53.2980 1.717401 1054.00 1105.05 32.47
9864 53.3030 1.717252 1043.00 1102.41 32.30
9865 53.3080 1.717103 1076.00 1099.77 32.80
9866 53.3130 1.716953 1094.00 1097.35 33.08
9867 53.3180 1.716804 1057.00 1094.79 32.51
9868 53.3230 1.716655 1030.00 1092.28 32.09
9869 53.3280 1.716506 1090.00 1089.84 33.02
9870 53.3330 1.716357 1122.00 1087.48 33.50
9871 53.3380 1.716208 1081.00 1085.20 32.88
9872 53.3430 1.716058 1083.00 1082.97 32.91
9873 53.3480 1.715909 1052.00 1080.78 32.43
9874 53.3530 1.715760 1090.00 1078.61 33.02
9875 53.3580 1.715611 1110.00 1076.43 33.32
9876 53.3630 1.715463 1050.00 1074.20 32.40
9877 53.3680 1.715314 1005.00 1071.90 31.70
9878 53.3730 1.715165 1005.00 1069.48 31.70
9879 53.3780 1.715016 997.00 1066.91 31.58
9880 53.3830 1.714867 1026.00 1064.16 32.03
9881 53.3880 1.714718 1079.00 1061.22 32.85
9882 53.3930 1.714569 1072.00 1058.05 32.74
9883 53.3980 1.714421 1034.00 1054.64 32.16
9884 53.4030 1.714272 1027.00 1050.98 32.05
9885 53.4080 1.714123 1093.00 1047.07 33.06
9886 53.4130 1.713975 1021.00 1042.93 31.95
9887 53.4180 1.713826 1030.00 1038.54 32.09
9888 53.4230 1.713677 1034.00 1033.93 32.16
9889 53.4280 1.713529 1033.00 1029.12 32.14
9890 53.4330 1.713380 1020.00 1024.11 31.94
9891 53.4380 1.713232 993.00 1018.95 31.51
9892 53.4430 1.713083 1002.00 1013.65 31.65
9893 53.4480 1.712935 1021.00 1008.24 31.95
9894 53.4530 1.712786 998.00 1002.75 31.59
9895 53.4580 1.712638 964.00 997.21 31.05
9896 53.4630 1.712489 930.00 991.63 30.50
9897 53.4680 1.712341 934.00 986.05 30.56
9898 53.4730 1.712193 910.00 980.50 30.17
9899 53.4780 1.712044 909.00 974.98 30.15
9900 53.4830 1.711896 944.00 969.54 30.72
9901 53.4880 1.711748 930.00 964.20 30.50
9902 53.4930 1.711600 980.00 958.96 31.31
9903 53.4980 1.711452 966.00 953.83 31.08
9904 53.5030 1.711304 919.00 948.82 30.32
9905 53.5080 1.711155 900.00 943.96 30.00
9906 53.5130 1.711007 904.00 939.24 30.07
9907 53.5180 1.710859 881.00 934.68 29.68
9908 53.5230 1.710711 898.00 930.23 29.97
9909 53.5280 1.710563 879.00 926.01 29.65
9910 53.5330 1.710415 902.00 921.95 30.03
9911 53.5380 1.710267 884.00 918.06 29.73
9912 53.5430 1.710119 821.00 914.36 28.65
9913 53.5480 1.709971 832.00 910.83 28.84
9914 53.5530 1.709823 894.00 907.48 29.90
9915 53.5580 1.709676 881.00 904.30 29.68
9916 53.5630 1.709528 839.00 901.30 28.97
9917 53.5680 1.709380 887.00 898.46 29.78
9918 53.5730 1.709232 911.00 895.79 30.18
9919 53.5780 1.709085 910.00 893.27 30.17
9920 53.5830 1.708937 861.00 890.91 29.34
9921 53.5880 1.708789 890.00 888.70 29.83
9922 53.5930 1.708642 941.00 886.63 30.68
9923 53.5980 1.708494 917.00 884.70 30.28
9924 53.6030 1.708347 888.00 882.91 29.80
9925 53.6080 1.708199 884.00 881.22 29.73
9926 53.6130 1.708052 871.00 879.69 29.51
9927 53.6180 1.707904 892.00 878.27 29.87
9928 53.6230 1.707757 840.00 876.98 28.98
9929 53.6280 1.707609 851.00 875.81 29.17
9930 53.6330 1.707462 865.00 874.76 29.41
9931 53.6380 1.707314 851.00 873.81 29.17
9932 53.6430 1.707167 866.00 872.98 29.43
9933 53.6480 1.707020 853.00 872.26 29.21
9934 53.6530 1.706872 826.00 871.66 28.74
9935 53.6580 1.706725 832.00 871.17 28.84
9936 53.6630 1.706578 829.00 870.79 28.79
9937 53.6680 1.706431 847.00 870.53 29.10
9938 53.6730 1.706284 895.00 870.38 29.92
9939 53.6780 1.706136 937.00 870.36 30.61
9940 53.6830 1.705989 901.00 870.46 30.02
9941 53.6880 1.705842 909.00 870.69 30.15
9942 53.6930 1.705695 909.00 871.06 30.15
9943 53.6980 1.705548 923.00 871.56 30.38
9944 53.7030 1.705401 918.00 872.22 30.30
9945 53.7080 1.705254 878.00 873.03 29.63
9946 53.7130 1.705107 858.00 874.00 29.29
9947 53.7180 1.704960 910.00 875.18 30.17
9948 53.7230 1.704813 956.00 876.55 30.92
9949 53.7280 1.704667 943.00 878.04 30.71
9950 53.7330 1.704520 863.00 879.73 29.38
9951 53.7380 1.704373 827.00 881.61 28.76
9952 53.7430 1.704226 829.00 883.70 28.79
9953 53.7480 1.704080 822.00 886.01 28.67
9954 53.7530 1.703933 824.00 888.53 28.71
9955 53.7580 1.703786 843.00 891.29 29.03
9956 53.7630 1.703640 824.00 894.28 28.71
9957 53.7680 1.703493 820.00 897.52 28.64
9958 53.7730 1.703346 878.00 901.00 29.63
9959 53.7780 1.703200 920.00 904.73 30.33
9960 53.7830 1.703053 927.00 908.73 30.45
9961 53.7880 1.702907 925.00 912.98 30.41
9962 53.7930 1.702760 880.00 917.50 29.66
9963 53.7980 1.702614 874.00 922.28 29.56
9964 53.8030 1.702467 876.00 927.32 29.60
9965 53.8080 1.702321 905.00 932.43 30.08
9966 53.8130 1.702175 907.00 937.97 30.12
9967 53.8180 1.702028 896.00 943.74 29.93
9968 53.8230 1.701882 937.00 949.75 30.61
9969 53.8280 1.701735 973.00 955.96 31.19
9970 53.8330 1.701589 972.00 962.36 31.18
9971 53.8380 1.701443 949.00 968.94 30.81
9972 53.8430 1.701297 911.00 975.66 30.18
9973 53.8480 1.701151 899.00 982.49 29.98
9974 53.8530 1.701005 875.00 989.39 29.58
9975 53.8580 1.700858 870.00 996.33 29.50
9976 53.8630 1.700712 859.00 1003.26 29.31
9977 53.8680 1.700566 856.00 1010.13 29.26
9978 53.8730 1.700420 885.00 1016.89 29.75
9979 53.8780 1.700274 933.00 1023.47 30.55
9980 53.8830 1.700128 942.00 1029.80 30.69
9981 53.8880 1.699982 941.00 1035.84 30.68
9982 53.8930 1.699836 962.00 1041.51 31.02
9983 53.8980 1.699691 962.00 1046.73 31.02
9984 53.9030 1.699545 990.00 1051.43 31.46
9985 53.9080 1.699399 1016.00 1055.55 31.87
9986 53.9130 1.699253 1067.00 1059.06 32.67
9987 53.9180 1.699107 1053.00 1061.85 32.45
9988 53.9230 1.698962 1062.00 1063.89 32.59
9989 53.9280 1.698816 1069.00 1065.17 32.70
9990 53.9330 1.698670 1063.00 1065.65 32.60
9991 53.9380 1.698524 1069.00 1065.33 32.70
9992 53.9430 1.698379 1042.00 1064.09 32.28
9993 53.9480 1.698233 1009.00 1062.23 31.76
9994 53.9530 1.698088 1050.00 1059.64 32.40
9995 53.9580 1.697942 1085.00 1056.37 32.94
9996 53.9630 1.697797 1097.00 1052.48 33.12
9997 53.9680 1.697651 1101.00 1048.01 33.18
9998 53.9730 1.697506 1099.00 1043.05 33.15
9999 53.9780 1.697360 1090.00 1037.67 33.02
10000 53.9830 1.697215 1019.00 1031.92 31.92
10001 53.9880 1.697069 1006.00 1025.87 31.72
10002 53.9930 1.696924 1055.00 1019.59 32.48
10003 53.9980 1.696779 1068.00 1013.14 32.68
10004 54.0030 1.696633 1010.00 1006.58 31.78
10005 54.0080 1.696488 1006.00 999.96 31.72
10006 54.0130 1.696343 1022.00 993.32 31.97
10007 54.0180 1.696198 978.00 986.71 31.27
10008 54.0230 1.696053 952.00 980.20 30.85
10009 54.0280 1.695907 966.00 973.80 31.08
10010 54.0330 1.695762 944.00 967.48 30.72
10011 54.0380 1.695617 901.00 961.34 30.02
10012 54.0430 1.695472 885.00 955.37 29.75
10013 54.0480 1.695327 865.00 949.62 29.41
10014 54.0530 1.695182 856.00 944.10 29.26
10015 54.0580 1.695037 887.00 938.83 29.78
10016 54.0630 1.694892 888.00 933.83 29.80
10017 54.0680 1.694747 892.00 929.12 29.87
10018 54.0730 1.694602 941.00 924.70 30.68
10019 54.0780 1.694457 960.00 920.51 30.98
10020 54.0830 1.694313 952.00 916.70 30.85
10021 54.0880 1.694168 927.00 913.20 30.45
10022 54.0930 1.694023 928.00 910.01 30.46
10023 54.0980 1.693878 928.00 907.14 30.46
10024 54.1030 1.693733 915.00 904.58 30.25
10025 54.1080 1.693589 911.00 902.32 30.18
10026 54.1130 1.693444 892.00 900.37 29.87
10027 54.1180 1.693299 863.00 898.43 29.38
10028 54.1230 1.693155 880.00 897.06 29.66
10029 54.1280 1.693010 874.00 895.98 29.56
10030 54.1330 1.692866 878.00 894.97 29.63
10031 54.1380 1.692721 939.00 894.43 30.64
10032 54.1430 1.692576 948.00 894.15 30.79
10033 54.1480 1.692432 921.00 894.11 30.35
10034 54.1530 1.692288 932.00 894.31 30.53
10035 54.1580 1.692143 921.00 894.74 30.35
10036 54.1630 1.691999 860.00 895.39 29.33
10037 54.1680 1.691854 827.00 896.26 28.76
10038 54.1730 1.691710 808.00 897.32 28.43
10039 54.1780 1.691566 823.00 898.58 28.69
10040 54.1830 1.691421 846.00 900.02 29.09
10041 54.1880 1.691277 870.00 901.64 29.50
10042 54.1930 1.691133 885.00 903.44 29.75
10043 54.1980 1.690989 894.00 905.39 29.90
10044 54.2030 1.690845 903.00 907.51 30.05
10045 54.2080 1.690700 893.00 909.77 29.88
10046 54.2130 1.690556 876.00 912.17 29.60
10047 54.2180 1.690412 887.00 914.70 29.78
10048 54.2230 1.690268 917.00 917.34 30.28
10049 54.2280 1.690124 905.00 920.08 30.08
10050 54.2330 1.689980 900.00 922.91 30.00
10051 54.2380 1.689836 917.00 925.79 30.28
10052 54.2430 1.689692 906.00 928.72 30.10
10053 54.2480 1.689548 902.00 931.66 30.03
10054 54.2530 1.689404 923.00 934.58 30.38
10055 54.2580 1.689260 936.00 937.46 30.59
10056 54.2630 1.689116 945.00 940.25 30.74
10057 54.2680 1.688973 958.00 942.93 30.95
10058 54.2730 1.688829 988.00 945.41 31.43
10059 54.2780 1.688685 996.00 947.73 31.56
10060 54.2830 1.688542 975.00 949.82 31.23
10061 54.2880 1.688398 955.00 951.66 30.90
10062 54.2930 1.688254 956.00 953.18 30.92
10063 54.2980 1.688110 923.00 954.35 30.38
10064 54.3030 1.687967 906.00 955.16 30.10
10065 54.3080 1.687823 913.00 955.58 30.22
10066 54.3130 1.687680 899.00 955.64 29.98
10067 54.3180 1.687536 885.00 955.27 29.75
10068 54.3230 1.687392 901.00 954.51 30.02
10069 54.3280 1.687249 927.00 953.38 30.45
10070 54.3330 1.687106 914.00 951.85 30.23
10071 54.3380 1.686962 897.00 950.04 29.95
10072 54.3430 1.686819 887.00 947.95 29.78
10073 54.3480 1.686675 897.00 945.61 29.95
10074 54.3530 1.686532 906.00 943.11 30.10
10075 54.3580 1.686389 916.00 940.39 30.27
10076 54.3630 1.686246 943.00 937.58 30.71
10077 54.3680 1.686102 970.00 934.68 31.14
10078 54.3730 1.685959 1012.00 931.74 31.81
10079 54.3780 1.685816 995.00 928.78 31.54
10080 54.3830 1.685673 961.00 925.82 31.00
10081 54.3880 1.685529 928.00 922.89 30.46
10082 54.3930 1.685386 903.00 919.99 30.05
10083 54.3980 1.685243 904.00 917.15 30.07
10084 54.4030 1.685100 900.00 914.36 30.00
10085 54.4080 1.684957 858.00 911.64 29.29
10086 54.4130 1.684814 830.00 908.99 28.81
10087 54.4180 1.684671 859.00 906.41 29.31
10088 54.4230 1.684528 880.00 903.90 29.66
10089 54.4280 1.684385 881.00 901.47 29.68
10090 54.4330 1.684242 881.00 899.11 29.68
10091 54.4380 1.684099 892.00 896.84 29.87
10092 54.4430 1.683957 875.00 894.65 29.58
10093 54.4480 1.683814 870.00 892.55 29.50
10094 54.4530 1.683671 898.00 890.54 29.97
10095 54.4580 1.683528 900.00 888.64 30.00
10096 54.4630 1.683385 889.00 886.85 29.82
10097 54.4680 1.683243 880.00 885.17 29.66
10098 54.4730 1.683100 889.00 883.62 29.82
10099 54.4780 1.682957 898.00 882.20 29.97
10100 54.4830 1.682815 903.00 880.90 30.05
10101 54.4880 1.682672 909.00 879.75 30.15
10102 54.4930 1.682530 883.00 878.74 29.72
10103 54.4980 1.682387 874.00 877.87 29.56
10104 54.5030 1.682245 898.00 877.14 29.97
10105 54.5080 1.682102 900.00 876.55 30.00
10106 54.5130 1.681960 875.00 876.09 29.58
10107 54.5180 1.681817 858.00 875.78 29.29
10108 54.5230 1.681675 840.00 875.59 28.98
10109 54.5280 1.681532 831.00 875.53 28.83
10110 54.5330 1.681390 849.00 875.58 29.14
10111 54.5380 1.681248 874.00 875.72 29.56
10112 54.5430 1.681105 858.00 875.99 29.29
10113 54.5480 1.680963 829.00 876.37 28.79
10114 54.5530 1.680821 822.00 876.85 28.67
10115 54.5580 1.680679 846.00 877.42 29.09
10116 54.5630 1.680536 865.00 878.08 29.41
10117 54.5680 1.680394 882.00 878.82 29.70
10118 54.5730 1.680252 889.00 879.65 29.82
10119 54.5780 1.680110 908.00 880.57 30.13
10120 54.5830 1.679968 926.00 881.57 30.43
10121 54.5880 1.679826 925.00 882.67 30.41
10122 54.5930 1.679684 908.00 883.68 30.13
10123 54.5980 1.679542 877.00 884.95 29.61
10124 54.6030 1.679400 884.00 886.32 29.73
10125 54.6080 1.679258 912.00 887.77 30.20
10126 54.6130 1.679116 922.00 889.32 30.36
10127 54.6180 1.678974 903.00 890.94 30.05
10128 54.6230 1.678832 898.00 892.65 29.97
10129 54.6280 1.678690 924.00 894.42 30.40
10130 54.6330 1.678548 958.00 896.25 30.95
10131 54.6380 1.678407 941.00 898.12 30.68
10132 54.6430 1.678265 886.00 900.03 29.77
10133 54.6480 1.678123 887.00 901.96 29.78
10134 54.6530 1.677981 910.00 903.88 30.17
10135 54.6580 1.677840 903.00 905.77 30.05
10136 54.6630 1.677698 895.00 907.61 29.92
10137 54.6680 1.677557 908.00 909.38 30.13
10138 54.6730 1.677415 932.00 911.05 30.53
10139 54.6780 1.677273 947.00 912.59 30.77
10140 54.6830 1.677132 968.00 913.98 31.11
10141 54.6880 1.676990 980.00 915.13 31.31
10142 54.6930 1.676849 984.00 916.12 31.37
10143 54.6980 1.676707 979.00 916.90 31.29
10144 54.7030 1.676566 975.00 917.40 31.23
10145 54.7080 1.676425 964.00 917.62 31.05
10146 54.7130 1.676283 921.00 917.54 30.35
10147 54.7180 1.676142 921.00 917.15 30.35
10148 54.7230 1.676000 949.00 916.44 30.81
10149 54.7280 1.675859 926.00 915.41 30.43
10150 54.7330 1.675718 912.00 914.07 30.20
10151 54.7380 1.675577 920.00 912.41 30.33
10152 54.7430 1.675435 915.00 910.47 30.25
10153 54.7480 1.675294 909.00 908.26 30.15
10154 54.7530 1.675153 900.00 905.68 30.00
10155 54.7580 1.675012 886.00 903.04 29.77
10156 54.7630 1.674871 885.00 900.21 29.75
10157 54.7680 1.674730 887.00 897.23 29.78
10158 54.7730 1.674589 890.00 894.15 29.83
10159 54.7780 1.674448 913.00 891.00 30.22
10160 54.7830 1.674307 895.00 887.82 29.92
10161 54.7880 1.674166 880.00 884.53 29.66
10162 54.7930 1.674025 891.00 881.38 29.85
10163 54.7980 1.673884 888.00 878.27 29.80
10164 54.8030 1.673743 882.00 875.25 29.70
10165 54.8080 1.673602 868.00 872.31 29.46
10166 54.8130 1.673461 839.00 869.48 28.97
10167 54.8180 1.673320 799.00 866.78 28.27
10168 54.8230 1.673180 798.00 864.20 28.25
10169 54.8280 1.673039 827.00 861.75 28.76
10170 54.8330 1.672898 874.00 859.45 29.56
10171 54.8380 1.672757 918.00 857.29 30.30
10172 54.8430 1.672617 911.00 855.28 30.18
10173 54.8480 1.672476 867.00 853.46 29.44
10174 54.8530 1.672335 805.00 851.74 28.37
10175 54.8580 1.672195 776.00 850.16 27.86
10176 54.8630 1.672054 816.00 848.73 28.57
10177 54.8680 1.671914 857.00 847.42 29.27
10178 54.8730 1.671773 838.00 846.25 28.95
10179 54.8780 1.671633 845.00 845.16 29.07
10180 54.8830 1.671492 870.00 844.22 29.50
10181 54.8880 1.671352 841.00 843.39 29.00
10182 54.8930 1.671211 817.00 842.65 28.58
10183 54.8980 1.671071 831.00 842.00 28.83
10184 54.9030 1.670931 849.00 841.43 29.14
10185 54.9080 1.670790 858.00 840.93 29.29
10186 54.9130 1.670650 872.00 840.50 29.53
10187 54.9180 1.670510 876.00 840.10 29.60
10188 54.9230 1.670369 849.00 839.73 29.14
10189 54.9280 1.670229 827.00 839.39 28.76
10190 54.9330 1.670089 832.00 839.07 28.84
10191 54.9380 1.669949 848.00 838.76 29.12
10192 54.9430 1.669809 849.00 838.44 29.14
10193 54.9480 1.669669 847.00 838.11 29.10
10194 54.9530 1.669529 824.00 837.76 28.71
10195 54.9580 1.669388 778.00 837.40 27.89
10196 54.9630 1.669248 786.00 837.00 28.04
10197 54.9680 1.669109 824.00 836.59 28.71
10198 54.9730 1.668968 841.00 836.14 29.00
10199 54.9780 1.668828 842.00 835.68 29.02
10200 54.9830 1.668689 823.00 835.20 28.69
10201 54.9880 1.668549 822.00 834.71 28.67
10202 54.9930 1.668409 836.00 834.20 28.91
10203 54.9980 1.668269 824.00 833.70 28.71
10204 55.0030 1.668129 832.00 833.20 28.84
10205 55.0080 1.667989 858.00 832.72 29.29
10206 55.0130 1.667850 855.00 832.26 29.24
10207 55.0180 1.667710 808.00 831.83 28.43
10208 55.0230 1.667570 772.00 831.43 27.78
10209 55.0280 1.667430 791.00 831.07 28.12
10210 55.0330 1.667291 809.00 830.75 28.44
10211 55.0380 1.667151 830.00 830.49 28.81
10212 55.0430 1.667011 858.00 830.28 29.29
10213 55.0480 1.666872 862.00 830.12 29.36
10214 55.0530 1.666732 830.00 830.03 28.81
10215 55.0580 1.666593 800.00 829.99 28.28
10216 55.0630 1.666453 804.00 830.04 28.35
10217 55.0680 1.666314 822.00 830.13 28.67
10218 55.0730 1.666174 821.00 830.28 28.65
10219 55.0780 1.666035 805.00 830.50 28.37
10220 55.0830 1.665895 805.00 830.76 28.37
10221 55.0880 1.665756 852.00 831.10 29.19
10222 55.0930 1.665617 860.00 831.51 29.33
10223 55.0980 1.665478 794.00 831.97 28.18
10224 55.1030 1.665338 773.00 832.50 27.80
10225 55.1080 1.665199 775.00 833.07 27.84
10226 55.1130 1.665060 770.00 833.70 27.75
10227 55.1180 1.664920 807.00 834.38 28.41
10228 55.1230 1.664781 842.00 835.10 29.02
10229 55.1280 1.664642 863.00 835.86 29.38
10230 55.1330 1.664503 863.00 836.67 29.38
10231 55.1380 1.664364 856.00 837.49 29.26
10232 55.1430 1.664225 838.00 838.39 28.95
10233 55.1480 1.664086 854.00 839.26 29.22
10234 55.1530 1.663947 888.00 840.15 29.80
10235 55.1580 1.663808 861.00 841.04 29.34
10236 55.1630 1.663669 825.00 841.94 28.72
10237 55.1680 1.663530 792.00 842.84 28.14
10238 55.1730 1.663391 803.00 843.72 28.34
10239 55.1780 1.663252 847.00 844.59 29.10
10240 55.1830 1.663113 860.00 845.43 29.33
10241 55.1880 1.662974 860.00 846.24 29.33
10242 55.1930 1.662835 866.00 847.02 29.43
10243 55.1980 1.662696 876.00 847.76 29.60
10244 55.2030 1.662558 879.00 848.46 29.65
10245 55.2080 1.662419 864.00 849.11 29.39
10246 55.2130 1.662280 846.00 849.73 29.09
10247 55.2180 1.662142 823.00 850.32 28.69
10248 55.2230 1.662003 795.00 850.87 28.20
10249 55.2280 1.661864 798.00 851.40 28.25
10250 55.2330 1.661726 803.00 851.92 28.34
10251 55.2380 1.661587 802.00 852.50 28.32
10252 55.2430 1.661449 800.00 853.03 28.28
10253 55.2480 1.661310 828.00 853.58 28.77
10254 55.2530 1.661172 870.00 854.18 29.50
10255 55.2580 1.661033 880.00 854.83 29.66
10256 55.2630 1.660895 833.00 855.55 28.86
10257 55.2680 1.660756 802.00 856.36 28.32
10258 55.2730 1.660618 792.00 857.26 28.14
10259 55.2780 1.660480 798.00 858.27 28.25
10260 55.2830 1.660341 818.00 859.38 28.60
10261 55.2880 1.660203 840.00 860.65 28.98
10262 55.2930 1.660065 876.00 862.07 29.60
10263 55.2980 1.659926 885.00 863.63 29.75
10264 55.3030 1.659788 867.00 865.36 29.44
10265 55.3080 1.659650 859.00 867.26 29.31
10266 55.3130 1.659512 855.00 869.33 29.24
10267 55.3180 1.659373 880.00 871.58 29.66
10268 55.3230 1.659235 926.00 874.02 30.43
10269 55.3280 1.659097 933.00 876.65 30.55
10270 55.3330 1.658959 915.00 879.46 30.25
10271 55.3380 1.658821 905.00 882.48 30.08
10272 55.3430 1.658683 866.00 885.69 29.43
10273 55.3480 1.658545 835.00 889.09 28.90
10274 55.3530 1.658407 841.00 892.69 29.00
10275 55.3580 1.658269 847.00 896.49 29.10
10276 55.3630 1.658131 894.00 900.49 29.90
10277 55.3680 1.657993 923.00 904.67 30.38
10278 55.3730 1.657855 913.00 909.06 30.22
10279 55.3780 1.657718 905.00 913.62 30.08
10280 55.3830 1.657580 893.00 918.38 29.88
10281 55.3880 1.657442 903.00 923.30 30.05
10282 55.3930 1.657304 923.00 928.40 30.38
10283 55.3980 1.657166 979.00 933.66 31.29
10284 55.4030 1.657029 1030.00 939.03 32.09
10285 55.4080 1.656891 1020.00 944.57 31.94
10286 55.4130 1.656753 1003.00 950.23 31.67
10287 55.4180 1.656616 1000.00 955.99 31.62
10288 55.4230 1.656478 997.00 961.80 31.58
10289 55.4280 1.656340 984.00 967.65 31.37
10290 55.4330 1.656203 943.00 973.55 30.71
10291 55.4380 1.656065 934.00 979.40 30.56
10292 55.4430 1.655928 947.00 985.00 30.77
10293 55.4480 1.655790 958.00 990.67 30.95
10294 55.4530 1.655653 967.00 996.19 31.10
10295 55.4580 1.655516 973.00 1001.51 31.19
10296 55.4630 1.655378 975.00 1006.59 31.23
10297 55.4680 1.655241 977.00 1011.38 31.26
10298 55.4730 1.655103 990.00 1015.83 31.46
10299 55.4780 1.654966 1055.00 1019.91 32.48
10300 55.4830 1.654829 1089.00 1023.59 33.00
10301 55.4880 1.654691 1065.00 1026.84 32.63
10302 55.4930 1.654554 1036.00 1029.65 32.19
10303 55.4980 1.654417 1007.00 1032.00 31.73
10304 55.5030 1.654280 1004.00 1033.91 31.69
10305 55.5080 1.654143 1009.00 1035.38 31.76
10306 55.5130 1.654006 1004.00 1036.44 31.69
10307 55.5180 1.653868 981.00 1037.08 31.32
10308 55.5230 1.653731 990.00 1037.40 31.46
10309 55.5280 1.653594 1028.00 1037.41 32.06
10310 55.5330 1.653457 1047.00 1037.15 32.36
10311 55.5380 1.653320 1060.00 1036.64 32.56
10312 55.5430 1.653183 1046.00 1035.94 32.34
10313 55.5480 1.653046 1009.00 1035.05 31.76
10314 55.5530 1.652909 985.00 1034.02 31.38
10315 55.5580 1.652772 982.00 1032.85 31.34
10316 55.5630 1.652635 971.00 1031.55 31.16
10317 55.5680 1.652498 963.00 1030.12 31.03
10318 55.5730 1.652362 979.00 1028.56 31.29
10319 55.5780 1.652225 1022.00 1026.84 31.97
10320 55.5830 1.652088 1055.00 1024.95 32.48
10321 55.5880 1.651951 1071.00 1022.87 32.73
10322 55.5930 1.651815 1052.00 1020.57 32.43
10323 55.5980 1.651678 989.00 1018.05 31.45
10324 55.6030 1.651541 952.00 1015.24 30.85
10325 55.6080 1.651405 937.00 1012.14 30.61
10326 55.6130 1.651268 943.00 1008.73 30.71
10327 55.6180 1.651131 965.00 1005.02 31.06
10328 55.6230 1.650995 957.00 1001.00 30.94
10329 55.6280 1.650858 933.00 996.68 30.55
10330 55.6330 1.650722 946.00 992.07 30.76
10331 55.6380 1.650585 945.00 987.22 30.74
10332 55.6430 1.650449 926.00 982.15 30.43
10333 55.6480 1.650312 928.00 976.89 30.46
10334 55.6530 1.650176 939.00 971.51 30.64
10335 55.6580 1.650039 905.00 966.04 30.08
10336 55.6630 1.649903 884.00 960.53 29.73
10337 55.6680 1.649767 891.00 955.04 29.85
10338 55.6730 1.649630 889.00 949.58 29.82
10339 55.6780 1.649494 908.00 944.19 30.13
10340 55.6830 1.649358 934.00 938.92 30.56
10341 55.6880 1.649222 931.00 933.80 30.51
10342 55.6930 1.649085 912.00 928.84 30.20
10343 55.6980 1.648949 915.00 924.08 30.25
10344 55.7030 1.648813 934.00 919.52 30.56
10345 55.7080 1.648677 958.00 915.22 30.95
10346 55.7130 1.648541 936.00 911.10 30.59
10347 55.7180 1.648405 903.00 907.21 30.05
10348 55.7230 1.648269 895.00 903.55 29.92
10349 55.7280 1.648133 893.00 900.13 29.88
10350 55.7330 1.647997 886.00 896.93 29.77
10351 55.7380 1.647861 902.00 893.98 30.03
10352 55.7430 1.647725 896.00 891.24 29.93
10353 55.7480 1.647589 884.00 888.69 29.73
10354 55.7530 1.647453 888.00 886.37 29.80
10355 55.7580 1.647317 896.00 884.25 29.93
10356 55.7630 1.647181 869.00 882.30 29.48
10357 55.7680 1.647045 860.00 880.61 29.33
10358 55.7730 1.646909 894.00 879.02 29.90
10359 55.7780 1.646774 896.00 877.58 29.93
10360 55.7830 1.646638 887.00 876.28 29.78
10361 55.7880 1.646502 896.00 875.10 29.93
10362 55.7930 1.646366 870.00 874.03 29.50
10363 55.7980 1.646231 841.00 873.05 29.00
10364 55.8030 1.646095 850.00 872.16 29.15
10365 55.8080 1.645959 840.00 871.32 28.98
10366 55.8130 1.645824 846.00 870.54 29.09
10367 55.8180 1.645688 895.00 869.81 29.92
10368 55.8230 1.645553 926.00 869.10 30.43
10369 55.8280 1.645417 915.00 868.46 30.25
10370 55.8330 1.645282 876.00 867.77 29.60
10371 55.8380 1.645146 870.00 867.09 29.50
10372 55.8430 1.645011 859.00 866.41 29.31
10373 55.8480 1.644875 867.00 865.72 29.44
10374 55.8530 1.644740 865.00 865.04 29.41
10375 55.8580 1.644604 888.00 864.36 29.80
10376 55.8630 1.644469 882.00 863.68 29.70
10377 55.8680 1.644334 854.00 863.02 29.22
10378 55.8730 1.644199 848.00 862.36 29.12
10379 55.8780 1.644063 864.00 861.76 29.39
10380 55.8830 1.643928 856.00 861.24 29.26
10381 55.8880 1.643793 844.00 860.73 29.05
10382 55.8930 1.643658 847.00 860.28 29.10
10383 55.8980 1.643522 853.00 859.91 29.21
10384 55.9030 1.643387 830.00 859.61 28.81
10385 55.9080 1.643252 833.00 859.39 28.86
10386 55.9130 1.643117 852.00 859.26 29.19
10387 55.9180 1.642982 890.00 859.22 29.83
10388 55.9230 1.642847 882.00 859.28 29.70
10389 55.9280 1.642712 831.00 859.43 28.83
10390 55.9330 1.642577 828.00 859.67 28.77
10391 55.9380 1.642442 839.00 860.00 28.97
10392 55.9430 1.642307 857.00 860.41 29.27
10393 55.9480 1.642172 862.00 860.89 29.36
10394 55.9530 1.642037 844.00 861.44 29.05
10395 55.9580 1.641902 810.00 862.13 28.46
10396 55.9630 1.641767 786.00 862.78 28.04
10397 55.9680 1.641633 799.00 863.46 28.27
10398 55.9730 1.641498 828.00 864.14 28.77
10399 55.9780 1.641363 845.00 864.83 29.07
10400 55.9830 1.641228 850.00 865.51 29.15
10401 55.9880 1.641094 861.00 866.15 29.34
10402 55.9930 1.640959 878.00 866.74 29.63
10403 55.9980 1.640824 883.00 867.26 29.72
10404 56.0030 1.640690 926.00 867.70 30.43
10405 56.0080 1.640555 894.00 868.03 29.90
10406 56.0130 1.640420 836.00 868.24 28.91
10407 56.0180 1.640286 830.00 868.32 28.81
10408 56.0230 1.640151 852.00 868.20 29.19
10409 56.0280 1.640017 865.00 867.99 29.41
10410 56.0330 1.639882 891.00 867.64 29.85
10411 56.0380 1.639748 899.00 867.15 29.98
10412 56.0430 1.639613 860.00 866.51 29.33
10413 56.0480 1.639479 859.00 865.74 29.31
10414 56.0530 1.639344 902.00 864.85 30.03
10415 56.0580 1.639210 920.00 863.85 30.33
10416 56.0630 1.639076 906.00 862.77 30.10
10417 56.0680 1.638942 877.00 861.62 29.61
10418 56.0730 1.638807 874.00 860.43 29.56
10419 56.0780 1.638673 882.00 859.21 29.70
10420 56.0830 1.638539 881.00 857.98 29.68
10421 56.0880 1.638404 844.00 856.72 29.05
10422 56.0930 1.638270 822.00 855.54 28.67
10423 56.0980 1.638136 845.00 854.42 29.07
10424 56.1030 1.638002 875.00 853.36 29.58
10425 56.1080 1.637868 881.00 852.38 29.68
10426 56.1130 1.637734 859.00 851.49 29.31
10427 56.1180 1.637600 847.00 850.70 29.10
10428 56.1230 1.637466 847.00 850.02 29.10
10429 56.1280 1.637332 859.00 849.45 29.31
10430 56.1330 1.637198 843.00 849.01 29.03
10431 56.1380 1.637064 809.00 848.70 28.44
10432 56.1430 1.636930 822.00 848.52 28.67
10433 56.1480 1.636796 797.00 848.49 28.23
10434 56.1530 1.636662 804.00 848.59 28.35
10435 56.1580 1.636528 822.00 848.84 28.67
10436 56.1630 1.636394 837.00 849.22 28.93
10437 56.1680 1.636261 829.00 849.76 28.79
10438 56.1730 1.636127 816.00 850.35 28.57
10439 56.1780 1.635993 817.00 851.17 28.58
10440 56.1830 1.635859 826.00 852.14 28.74
10441 56.1880 1.635725 816.00 853.24 28.57
10442 56.1930 1.635592 853.00 854.48 29.21
10443 56.1980 1.635458 882.00 855.85 29.70
10444 56.2030 1.635324 917.00 857.35 30.28
10445 56.2080 1.635191 917.00 858.97 30.28
10446 56.2130 1.635057 910.00 860.70 30.17
10447 56.2180 1.634924 915.00 862.54 30.25
10448 56.2230 1.634790 876.00 864.48 29.60
10449 56.2280 1.634657 843.00 866.51 29.03
10450 56.2330 1.634523 870.00 868.61 29.50
10451 56.2380 1.634390 858.00 870.78 29.29
10452 56.2430 1.634256 838.00 873.00 28.95
10453 56.2480 1.634123 832.00 875.26 28.84
10454 56.2530 1.633989 870.00 877.54 29.50
10455 56.2580 1.633856 926.00 879.84 30.43
10456 56.2630 1.633723 965.00 882.13 31.06
10457 56.2680 1.633589 932.00 884.34 30.53
10458 56.2730 1.633456 905.00 886.58 30.08
10459 56.2780 1.633323 921.00 888.77 30.35
10460 56.2830 1.633190 939.00 890.92 30.64
10461 56.2880 1.633056 930.00 892.99 30.50
10462 56.2930 1.632923 922.00 895.00 30.36
10463 56.2980 1.632790 898.00 896.94 29.97
10464 56.3030 1.632657 893.00 898.80 29.88
10465 56.3080 1.632524 896.00 900.61 29.93
10466 56.3130 1.632391 881.00 902.36 29.68
10467 56.3180 1.632258 881.00 904.07 29.68
10468 56.3230 1.632125 891.00 905.77 29.85
10469 56.3280 1.631992 872.00 907.47 29.53
10470 56.3330 1.631859 877.00 909.20 29.61
10471 56.3380 1.631726 898.00 910.99 29.97
10472 56.3430 1.631593 898.00 912.80 29.97
10473 56.3480 1.631460 905.00 914.80 30.08
10474 56.3530 1.631327 886.00 916.94 29.77
10475 56.3580 1.631194 912.00 919.27 30.20
10476 56.3630 1.631061 922.00 921.80 30.36
10477 56.3680 1.630928 869.00 924.55 29.48
10478 56.3730 1.630795 840.00 927.59 28.98
10479 56.3780 1.630663 857.00 930.86 29.27
10480 56.3830 1.630530 850.00 934.41 29.15
10481 56.3880 1.630397 871.00 938.24 29.51
10482 56.3930 1.630265 916.00 942.39 30.27
10483 56.3980 1.630132 935.00 946.83 30.58
10484 56.4030 1.629999 954.00 951.58 30.89
10485 56.4080 1.629867 967.00 956.64 31.10
10486 56.4130 1.629734 976.00 962.00 31.24
10487 56.4180 1.629602 989.00 967.65 31.45
10488 56.4230 1.629469 967.00 973.58 31.10
10489 56.4280 1.629336 945.00 979.77 30.74
10490 56.4330 1.629204 933.00 986.21 30.55
10491 56.4380 1.629071 929.00 992.86 30.48
10492 56.4430 1.628939 903.00 999.72 30.05
10493 56.4480 1.628807 963.00 1006.75 31.03
10494 56.4530 1.628674 1013.00 1013.93 31.83
10495 56.4580 1.628542 1065.00 1021.16 32.63
10496 56.4630 1.628410 1067.00 1028.53 32.67
10497 56.4680 1.628277 1024.00 1035.95 32.00
10498 56.4730 1.628145 1037.00 1043.38 32.20
10499 56.4780 1.628013 1063.00 1050.79 32.60
10500 56.4830 1.627880 1044.00 1058.14 32.31
10501 56.4880 1.627748 1041.00 1065.39 32.26
10502 56.4930 1.627616 1043.00 1072.50 32.30
10503 56.4980 1.627484 1036.00 1079.45 32.19
10504 56.5030 1.627352 1047.00 1086.16 32.36
10505 56.5080 1.627219 1044.00 1092.56 32.31
10506 56.5130 1.627087 1050.00 1098.66 32.40
10507 56.5180 1.626955 1048.00 1104.38 32.37
10508 56.5230 1.626823 1063.00 1109.65 32.60
10509 56.5280 1.626691 1050.00 1114.40 32.40
10510 56.5330 1.626559 1054.00 1118.57 32.47
10511 56.5380 1.626427 1058.00 1122.19 32.53
10512 56.5430 1.626295 1087.00 1125.00 32.97
10513 56.5480 1.626163 1140.00 1127.03 33.76
10514 56.5530 1.626031 1187.00 1128.24 34.45
10515 56.5580 1.625899 1190.00 1128.60 34.50
10516 56.5630 1.625768 1180.00 1128.03 34.35
10517 56.5680 1.625636 1137.00 1126.52 33.72
10518 56.5730 1.625504 1127.00 1124.07 33.57
10519 56.5780 1.625372 1086.00 1120.69 32.95
10520 56.5830 1.625240 1104.00 1116.41 33.23
10521 56.5880 1.625109 1155.00 1111.29 33.99
10522 56.5930 1.624977 1115.00 1105.38 33.39
10523 56.5980 1.624845 1061.00 1098.75 32.57
10524 56.6030 1.624714 1042.00 1091.49 32.28
10525 56.6080 1.624582 1033.00 1083.70 32.14
10526 56.6130 1.624450 1042.00 1075.46 32.28
10527 56.6180 1.624319 1030.00 1066.90 32.09
10528 56.6230 1.624187 1007.00 1058.09 31.73
10529 56.6280 1.624056 1012.00 1049.13 31.81
10530 56.6330 1.623924 1002.00 1040.11 31.65
10531 56.6380 1.623793 976.00 1031.12 31.24
10532 56.6430 1.623661 945.00 1022.21 30.74
10533 56.6480 1.623530 961.00 1013.45 31.00
10534 56.6530 1.623398 971.00 1004.94 31.16
10535 56.6580 1.623267 961.00 996.64 31.00
10536 56.6630 1.623136 965.00 988.61 31.06
10537 56.6680 1.623004 953.00 980.89 30.87
10538 56.6730 1.622873 940.00 973.51 30.66
10539 56.6780 1.622742 939.00 966.48 30.64
10540 56.6830 1.622610 957.00 959.80 30.94
10541 56.6880 1.622479 977.00 953.48 31.26
10542 56.6930 1.622348 962.00 947.59 31.02
10543 56.6980 1.622217 944.00 941.99 30.72
10544 56.7030 1.622086 918.00 936.73 30.30
10545 56.7080 1.621954 909.00 931.82 30.15
10546 56.7130 1.621823 878.00 927.23 29.63
10547 56.7180 1.621692 864.00 922.97 29.39
10548 56.7230 1.621561 879.00 919.00 29.65
10549 56.7280 1.621430 892.00 915.32 29.87
10550 56.7330 1.621299 914.00 911.91 30.23
10551 56.7380 1.621168 914.00 908.77 30.23
10552 56.7430 1.621037 884.00 905.86 29.73
10553 56.7480 1.620906 873.00 903.20 29.55
10554 56.7530 1.620775 879.00 900.74 29.65
10555 56.7580 1.620644 885.00 898.50 29.75
10556 56.7630 1.620513 898.00 896.47 29.97
10557 56.7680 1.620382 845.00 894.63 29.07
10558 56.7730 1.620252 827.00 892.99 28.76
10559 56.7780 1.620121 827.00 891.67 28.76
10560 56.7830 1.619990 843.00 890.42 29.03
10561 56.7880 1.619859 842.00 889.39 29.02
10562 56.7930 1.619728 853.00 888.55 29.21
10563 56.7980 1.619598 857.00 887.96 29.27
10564 56.8030 1.619467 854.00 887.55 29.22
10565 56.8080 1.619336 846.00 887.35 29.09
10566 56.8130 1.619206 829.00 887.38 28.79
10567 56.8180 1.619075 842.00 887.64 29.02
10568 56.8230 1.618945 820.00 888.13 28.64
10569 56.8280 1.618814 840.00 888.86 28.98
10570 56.8330 1.618683 857.00 889.83 29.27
10571 56.8380 1.618553 859.00 891.03 29.31
10572 56.8430 1.618423 835.00 892.47 28.90
10573 56.8480 1.618292 834.00 894.15 28.88
10574 56.8530 1.618161 849.00 896.07 29.14
10575 56.8580 1.618031 860.00 898.21 29.33
10576 56.8630 1.617901 870.00 900.59 29.50
10577 56.8680 1.617770 907.00 903.18 30.12
10578 56.8730 1.617640 947.00 905.99 30.77
10579 56.8780 1.617510 944.00 909.00 30.72
10580 56.8830 1.617379 917.00 912.20 30.28
10581 56.8880 1.617249 922.00 915.58 30.36
10582 56.8930 1.617119 923.00 919.12 30.38
10583 56.8980 1.616989 926.00 922.81 30.43
10584 56.9030 1.616858 947.00 926.63 30.77
10585 56.9080 1.616728 954.00 930.55 30.89
10586 56.9130 1.616598 976.00 934.57 31.24
10587 56.9180 1.616468 930.00 938.65 30.50
10588 56.9230 1.616338 887.00 942.76 29.78
10589 56.9280 1.616208 879.00 946.92 29.65
10590 56.9330 1.616078 904.00 951.04 30.07
10591 56.9380 1.615947 941.00 955.12 30.68
10592 56.9430 1.615817 993.00 959.13 31.51
10593 56.9480 1.615687 992.00 963.04 31.50
10594 56.9530 1.615558 970.00 966.81 31.14
10595 56.9580 1.615428 977.00 970.41 31.26
10596 56.9630 1.615298 933.00 973.79 30.55
10597 56.9680 1.615168 945.00 976.92 30.74
10598 56.9730 1.615038 953.00 979.76 30.87
10599 56.9780 1.614908 974.00 982.26 31.21
10600 56.9830 1.614778 985.00 984.41 31.38
10601 56.9880 1.614648 1003.00 986.13 31.67
10602 56.9930 1.614519 1015.00 987.42 31.86
10603 56.9980 1.614389 1046.00 988.23 32.34
10604 57.0030 1.614259 1039.00 988.55 32.23
10605 57.0080 1.614129 1046.00 988.36 32.34
10606 57.0130 1.614000 1064.00 987.67 32.62
10607 57.0180 1.613870 1081.00 986.48 32.88
10608 57.0230 1.613740 1045.00 984.80 32.33
10609 57.0280 1.613611 1031.00 982.66 32.11
10610 57.0330 1.613481 1021.00 979.98 31.95
10611 57.0380 1.613352 967.00 977.03 31.10
10612 57.0430 1.613222 934.00 973.74 30.56
10613 57.0480 1.613093 940.00 970.17 30.66
10614 57.0530 1.612963 925.00 966.38 30.41
10615 57.0580 1.612834 927.00 962.42 30.45
10616 57.0630 1.612704 949.00 958.36 30.81
10617 57.0680 1.612575 935.00 954.20 30.58
10618 57.0730 1.612445 886.00 950.08 29.77
10619 57.0780 1.612316 858.00 946.02 29.29
10620 57.0830 1.612187 849.00 942.04 29.14
10621 57.0880 1.612057 889.00 938.19 29.82
10622 57.0930 1.611928 912.00 934.50 30.20
10623 57.0980 1.611799 926.00 931.00 30.43
10624 57.1030 1.611670 900.00 927.72 30.00
10625 57.1080 1.611540 887.00 924.67 29.78
10626 57.1130 1.611411 910.00 921.88 30.17
10627 57.1180 1.611282 908.00 919.36 30.13
10628 57.1230 1.611153 922.00 917.11 30.36
10629 57.1280 1.611024 946.00 915.14 30.76
10630 57.1330 1.610895 954.00 913.44 30.89
10631 57.1380 1.610765 919.00 912.05 30.32
10632 57.1430 1.610636 873.00 910.94 29.55
10633 57.1480 1.610507 868.00 910.12 29.46
10634 57.1530 1.610378 851.00 909.57 29.17
10635 57.1580 1.610249 857.00 909.29 29.27
10636 57.1630 1.610120 852.00 909.26 29.19
10637 57.1680 1.609991 868.00 909.48 29.46
10638 57.1730 1.609862 882.00 909.92 29.70
10639 57.1780 1.609734 879.00 910.58 29.65
10640 57.1830 1.609605 853.00 911.44 29.21
10641 57.1880 1.609476 918.00 912.48 30.30
10642 57.1930 1.609347 917.00 913.67 30.28
10643 57.1980 1.609218 939.00 915.02 30.64
10644 57.2030 1.609090 921.00 916.48 30.35
10645 57.2080 1.608961 903.00 918.06 30.05
10646 57.2130 1.608832 866.00 919.72 29.43
10647 57.2180 1.608703 844.00 921.47 29.05
10648 57.2230 1.608575 882.00 923.27 29.70
10649 57.2280 1.608446 925.00 925.13 30.41
10650 57.2330 1.608317 949.00 927.02 30.81
10651 57.2380 1.608189 994.00 928.94 31.53
10652 57.2430 1.608060 1020.00 930.88 31.94
10653 57.2480 1.607932 1009.00 932.83 31.76
10654 57.2530 1.607803 971.00 934.78 31.16
10655 57.2580 1.607675 952.00 936.72 30.85
10656 57.2630 1.607546 974.00 938.63 31.21
10657 57.2680 1.607417 939.00 940.52 30.64
10658 57.2730 1.607289 914.00 942.35 30.23
10659 57.2780 1.607161 909.00 944.11 30.15
10660 57.2830 1.607032 926.00 945.78 30.43
10661 57.2880 1.606904 955.00 947.38 30.90
10662 57.2930 1.606776 940.00 948.81 30.66
10663 57.2980 1.606647 954.00 950.08 30.89
10664 57.3030 1.606519 926.00 951.17 30.43
10665 57.3080 1.606391 938.00 952.05 30.63
10666 57.3130 1.606262 922.00 952.70 30.36
10667 57.3180 1.606134 968.00 953.09 31.11
10668 57.3230 1.606006 950.00 953.20 30.82
10669 57.3280 1.605878 903.00 953.02 30.05
10670 57.3330 1.605750 883.00 952.53 29.72
10671 57.3380 1.605621 950.00 951.72 30.82
10672 57.3430 1.605493 966.00 950.59 31.08
10673 57.3480 1.605365 951.00 949.15 30.84
10674 57.3530 1.605237 993.00 947.41 31.51
10675 57.3580 1.605109 1030.00 945.38 32.09
10676 57.3630 1.604981 1018.00 943.10 31.91
10677 57.3680 1.604853 1031.00 940.59 32.11
10678 57.3730 1.604725 1007.00 937.89 31.73
10679 57.3780 1.604597 969.00 935.03 31.13
10680 57.3830 1.604469 933.00 932.06 30.55
10681 57.3880 1.604341 906.00 929.01 30.10
10682 57.3930 1.604213 922.00 925.93 30.36
10683 57.3980 1.604086 916.00 922.85 30.27
10684 57.4030 1.603958 938.00 919.81 30.63
10685 57.4080 1.603830 937.00 916.83 30.61
10686 57.4130 1.603702 924.00 913.95 30.40
10687 57.4180 1.603574 893.00 911.20 29.88
10688 57.4230 1.603447 935.00 908.59 30.58
10689 57.4280 1.603319 937.00 906.15 30.61
10690 57.4330 1.603191 908.00 903.88 30.13
10691 57.4380 1.603064 894.00 901.82 29.90
10692 57.4430 1.602936 881.00 900.01 29.68
10693 57.4480 1.602808 927.00 898.30 30.45
10694 57.4530 1.602681 910.00 896.90 30.17
10695 57.4580 1.602553 875.00 895.73 29.58
10696 57.4630 1.602425 873.00 894.81 29.55
10697 57.4680 1.602298 901.00 894.14 30.02
10698 57.4730 1.602170 950.00 893.71 30.82
10699 57.4780 1.602043 942.00 893.55 30.69
10700 57.4830 1.601915 908.00 893.63 30.13
10701 57.4880 1.601788 902.00 893.95 30.03
10702 57.4930 1.601661 909.00 894.53 30.15
10703 57.4980 1.601533 894.00 895.34 29.90
10704 57.5030 1.601406 877.00 896.39 29.61
10705 57.5080 1.601279 876.00 897.66 29.60
10706 57.5130 1.601151 896.00 899.14 29.93
10707 57.5180 1.601024 914.00 900.86 30.23
10708 57.5230 1.600897 895.00 902.72 29.92
10709 57.5280 1.600769 855.00 904.76 29.24
10710 57.5330 1.600642 853.00 906.95 29.21
10711 57.5380 1.600515 866.00 909.26 29.43
10712 57.5430 1.600388 897.00 911.69 29.95
10713 57.5480 1.600261 953.00 914.20 30.87
10714 57.5530 1.600133 969.00 916.77 31.13
10715 57.5580 1.600006 957.00 919.39 30.94
10716 57.5630 1.599879 950.00 922.01 30.82
10717 57.5680 1.599752 961.00 924.61 31.00
10718 57.5730 1.599625 930.00 927.18 30.50
10719 57.5780 1.599498 905.00 929.70 30.08
10720 57.5830 1.599371 933.00 932.11 30.55
10721 57.5880 1.599244 926.00 934.43 30.43
10722 57.5930 1.599117 938.00 936.61 30.63
10723 57.5980 1.598990 985.00 938.63 31.38
10724 57.6030 1.598863 1042.00 940.46 32.28
10725 57.6080 1.598737 1075.00 942.08 32.79
10726 57.6130 1.598610 1068.00 943.48 32.68
10727 57.6180 1.598483 1050.00 944.63 32.40
10728 57.6230 1.598356 1018.00 945.51 31.91
10729 57.6280 1.598229 994.00 946.10 31.53
10730 57.6330 1.598103 969.00 946.39 31.13
10731 57.6380 1.597976 984.00 946.37 31.37
10732 57.6430 1.597849 984.00 946.03 31.37
10733 57.6480 1.597722 971.00 945.37 31.16
10734 57.6530 1.597596 989.00 944.37 31.45
10735 57.6580 1.597469 1002.00 943.05 31.65
10736 57.6630 1.597342 979.00 941.40 31.29
10737 57.6680 1.597216 933.00 939.43 30.55
10738 57.6730 1.597089 931.00 937.16 30.51
10739 57.6780 1.596963 937.00 934.61 30.61
10740 57.6830 1.596836 941.00 931.78 30.68
10741 57.6880 1.596710 931.00 928.70 30.51
10742 57.6930 1.596583 890.00 925.40 29.83
10743 57.6980 1.596457 869.00 921.89 29.48
10744 57.7030 1.596330 883.00 918.21 29.72
10745 57.7080 1.596204 892.00 914.39 29.87
10746 57.7130 1.596077 899.00 910.44 29.98
10747 57.7180 1.595951 921.00 906.40 30.35
10748 57.7230 1.595825 877.00 902.31 29.61
10749 57.7280 1.595698 905.00 898.20 30.08
10750 57.7330 1.595572 902.00 894.09 30.03
10751 57.7380 1.595446 885.00 890.01 29.75
10752 57.7430 1.595320 875.00 885.98 29.58
10753 57.7480 1.595193 876.00 882.02 29.60
10754 57.7530 1.595067 834.00 878.16 28.88
10755 57.7580 1.594941 843.00 874.44 29.03
10756 57.7630 1.594815 877.00 870.81 29.61
10757 57.7680 1.594689 872.00 867.32 29.53
10758 57.7730 1.594563 848.00 863.98 29.12
10759 57.7780 1.594436 852.00 860.80 29.19
10760 57.7830 1.594310 850.00 857.78 29.15
10761 57.7880 1.594184 831.00 854.94 28.83
10762 57.7930 1.594058 836.00 852.26 28.91
10763 57.7980 1.593932 856.00 849.76 29.26
10764 57.8030 1.593806 848.00 847.43 29.12
10765 57.8080 1.593680 869.00 845.28 29.48
10766 57.8130 1.593554 885.00 843.30 29.75
10767 57.8180 1.593428 866.00 841.50 29.43
10768 57.8230 1.593302 852.00 839.87 29.19
10769 57.8280 1.593177 821.00 838.40 28.65
10770 57.8330 1.593051 834.00 837.10 28.88
10771 57.8380 1.592925 859.00 835.96 29.31
10772 57.8430 1.592799 840.00 834.98 28.98
10773 57.8480 1.592674 833.00 834.15 28.86
10774 57.8530 1.592548 865.00 833.48 29.41
10775 57.8580 1.592422 859.00 832.95 29.31
10776 57.8630 1.592296 842.00 832.56 29.02
10777 57.8680 1.592171 864.00 832.31 29.39
10778 57.8730 1.592045 834.00 832.19 28.88
10779 57.8780 1.591919 827.00 832.19 28.76
10780 57.8830 1.591794 813.00 832.32 28.51
10781 57.8880 1.591668 803.00 832.57 28.34
10782 57.8930 1.591543 787.00 832.93 28.05
10783 57.8980 1.591417 803.00 833.35 28.34
10784 57.9030 1.591292 777.00 833.92 27.87
10785 57.9080 1.591166 763.00 834.59 27.62
10786 57.9130 1.591041 784.00 835.36 28.00
10787 57.9180 1.590915 824.00 836.21 28.71
10788 57.9230 1.590790 869.00 837.15 29.48
10789 57.9280 1.590664 909.00 838.16 30.15
10790 57.9330 1.590539 879.00 839.25 29.65
10791 57.9380 1.590414 855.00 840.40 29.24
10792 57.9430 1.590288 849.00 841.65 29.14
10793 57.9480 1.590163 832.00 842.93 28.84
10794 57.9530 1.590037 825.00 844.26 28.72
10795 57.9580 1.589912 817.00 845.65 28.58
10796 57.9630 1.589787 799.00 847.08 28.27
10797 57.9680 1.589662 792.00 848.57 28.14
10798 57.9730 1.589537 783.00 850.10 27.98
10799 57.9780 1.589411 848.00 851.68 29.12
10800 57.9830 1.589286 869.00 853.31 29.48
10801 57.9880 1.589161 854.00 855.00 29.22
10802 57.9930 1.589036 859.00 856.76 29.31
10803 57.9980 1.588911 867.00 858.56 29.44
10804 58.0030 1.588786 863.00 860.43 29.38
10805 58.0080 1.588661 872.00 862.36 29.53
10806 58.0130 1.588536 868.00 864.38 29.46
10807 58.0180 1.588411 869.00 866.47 29.48
10808 58.0230 1.588286 883.00 868.64 29.72
10809 58.0280 1.588161 881.00 870.89 29.68
10810 58.0330 1.588036 861.00 873.23 29.34
10811 58.0380 1.587911 838.00 875.66 28.95
10812 58.0430 1.587786 856.00 878.17 29.26
10813 58.0480 1.587661 844.00 880.76 29.05
10814 58.0530 1.587536 849.00 883.44 29.14
10815 58.0580 1.587412 882.00 886.20 29.70
10816 58.0630 1.587287 889.00 889.03 29.82
10817 58.0680 1.587162 907.00 891.93 30.12
10818 58.0730 1.587037 894.00 894.90 29.90
10819 58.0780 1.586913 914.00 897.92 30.23
10820 58.0830 1.586788 961.00 900.99 31.00
10821 58.0880 1.586663 911.00 904.11 30.18
10822 58.0930 1.586539 885.00 907.26 29.75
10823 58.0980 1.586414 886.00 910.42 29.77
10824 58.1030 1.586289 907.00 913.61 30.12
10825 58.1080 1.586165 943.00 916.79 30.71
10826 58.1130 1.586040 959.00 919.95 30.97
10827 58.1180 1.585916 948.00 923.09 30.79
10828 58.1230 1.585791 987.00 926.18 31.42
10829 58.1280 1.585667 1037.00 929.21 32.20
10830 58.1330 1.585542 999.00 932.17 31.61
10831 58.1380 1.585418 964.00 935.02 31.05
10832 58.1430 1.585293 931.00 937.77 30.51
10833 58.1480 1.585169 937.00 940.40 30.61
10834 58.1530 1.585044 1013.00 942.88 31.83
10835 58.1580 1.584920 1030.00 945.20 32.09
10836 58.1630 1.584796 1005.00 947.36 31.70
10837 58.1680 1.584671 980.00 949.32 31.31
10838 58.1730 1.584547 986.00 951.09 31.40
10839 58.1780 1.584423 991.00 952.64 31.48
10840 58.1830 1.584298 963.00 953.97 31.03
10841 58.1880 1.584174 976.00 955.06 31.24
10842 58.1930 1.584050 996.00 955.90 31.56
10843 58.1980 1.583926 1030.00 956.50 32.09
10844 58.2030 1.583802 1022.00 956.84 31.97
10845 58.2080 1.583678 968.00 956.93 31.11
10846 58.2130 1.583553 1008.00 956.77 31.75
10847 58.2180 1.583429 1015.00 956.36 31.86
10848 58.2230 1.583305 955.00 955.71 30.90
10849 58.2280 1.583181 965.00 954.83 31.06
10850 58.2330 1.583057 980.00 953.72 31.31
10851 58.2380 1.582933 989.00 952.52 31.45
10852 58.2430 1.582809 991.00 951.02 31.48
10853 58.2480 1.582685 991.00 949.34 31.48
10854 58.2530 1.582561 989.00 947.51 31.45
10855 58.2580 1.582437 978.00 945.54 31.27
10856 58.2630 1.582313 991.00 943.45 31.48
10857 58.2680 1.582190 934.00 941.26 30.56
10858 58.2730 1.582066 949.00 939.06 30.81
10859 58.2780 1.581942 958.00 936.72 30.95
10860 58.2830 1.581818 959.00 934.31 30.97
10861 58.2880 1.581694 954.00 931.87 30.89
10862 58.2930 1.581571 941.00 929.40 30.68
10863 58.2980 1.581447 885.00 926.92 29.75
10864 58.3030 1.581323 869.00 924.43 29.48
10865 58.3080 1.581200 904.00 921.98 30.07
10866 58.3130 1.581076 924.00 919.52 30.40
10867 58.3180 1.580952 903.00 917.08 30.05
10868 58.3230 1.580828 880.00 914.69 29.66
10869 58.3280 1.580705 901.00 912.35 30.02
10870 58.3330 1.580581 937.00 910.08 30.61
10871 58.3380 1.580458 943.00 907.89 30.71
10872 58.3430 1.580334 934.00 905.80 30.56
10873 58.3480 1.580211 928.00 903.82 30.46
10874 58.3530 1.580087 915.00 901.96 30.25
10875 58.3580 1.579964 887.00 900.23 29.78
10876 58.3630 1.579840 913.00 898.64 30.22
10877 58.3680 1.579717 910.00 897.22 30.17
10878 58.3730 1.579593 921.00 895.95 30.35
10879 58.3780 1.579470 903.00 894.84 30.05
10880 58.3830 1.579347 889.00 893.90 29.82
10881 58.3880 1.579223 910.00 893.18 30.17
10882 58.3930 1.579100 921.00 892.59 30.35
10883 58.3980 1.578977 922.00 892.24 30.36
10884 58.4030 1.578854 941.00 892.01 30.68
10885 58.4080 1.578730 967.00 891.93 31.10
10886 58.4130 1.578607 955.00 892.03 30.90
10887 58.4180 1.578484 899.00 892.30 29.98
10888 58.4230 1.578361 941.00 892.73 30.68
10889 58.4280 1.578237 953.00 893.31 30.87
10890 58.4330 1.578114 904.00 894.03 30.07
10891 58.4380 1.577991 882.00 894.89 29.70
10892 58.4430 1.577868 864.00 895.88 29.39
10893 58.4480 1.577745 886.00 896.98 29.77
10894 58.4530 1.577622 901.00 898.19 30.02
10895 58.4580 1.577499 909.00 899.49 30.15
10896 58.4630 1.577376 876.00 900.89 29.60
10897 58.4680 1.577253 872.00 902.36 29.53
10898 58.4730 1.577130 919.00 903.91 30.32
10899 58.4780 1.577007 912.00 905.51 30.20
10900 58.4830 1.576884 889.00 907.17 29.82
10901 58.4880 1.576761 947.00 908.87 30.77
10902 58.4930 1.576638 1007.00 910.60 31.73
10903 58.4980 1.576516 989.00 912.35 31.45
10904 58.5030 1.576393 976.00 914.12 31.24
10905 58.5080 1.576270 945.00 915.88 30.74
10906 58.5130 1.576147 917.00 917.63 30.28
10907 58.5180 1.576024 920.00 919.35 30.33
10908 58.5230 1.575902 919.00 921.04 30.32
10909 58.5280 1.575779 915.00 922.69 30.25
10910 58.5330 1.575656 898.00 924.27 29.97
10911 58.5380 1.575534 918.00 925.79 30.30
10912 58.5430 1.575411 950.00 927.26 30.82
10913 58.5480 1.575288 948.00 928.63 30.79
10914 58.5530 1.575166 947.00 929.92 30.77
10915 58.5580 1.575043 951.00 931.12 30.84
10916 58.5630 1.574921 959.00 932.24 30.97
10917 58.5680 1.574798 958.00 933.27 30.95
10918 58.5730 1.574676 946.00 934.22 30.76
10919 58.5780 1.574553 963.00 935.09 31.03
10920 58.5830 1.574431 975.00 935.87 31.23
10921 58.5880 1.574308 949.00 936.57 30.81
10922 58.5930 1.574186 930.00 937.17 30.50
10923 58.5980 1.574063 938.00 937.69 30.63
10924 58.6030 1.573941 937.00 938.11 30.61
10925 58.6080 1.573819 928.00 938.45 30.46
10926 58.6130 1.573696 912.00 938.64 30.20
10927 58.6180 1.573574 923.00 938.71 30.38
10928 58.6230 1.573452 941.00 938.64 30.68
10929 58.6280 1.573329 975.00 938.42 31.23
10930 58.6330 1.573207 936.00 938.05 30.59
10931 58.6380 1.573085 908.00 937.53 30.13
10932 58.6430 1.572963 928.00 936.84 30.46
10933 58.6480 1.572841 949.00 935.99 30.81
10934 58.6530 1.572718 941.00 934.99 30.68
10935 58.6580 1.572596 944.00 933.86 30.72
10936 58.6630 1.572474 940.00 932.60 30.66
10937 58.6680 1.572352 935.00 931.25 30.58
10938 58.6730 1.572230 916.00 929.82 30.27
10939 58.6780 1.572108 926.00 928.33 30.43
10940 58.6830 1.571986 930.00 926.81 30.50
10941 58.6880 1.571864 888.00 925.30 29.80
10942 58.6930 1.571742 921.00 923.83 30.35
10943 58.6980 1.571620 924.00 922.42 30.40
10944 58.7030 1.571498 921.00 921.10 30.35
10945 58.7080 1.571376 901.00 919.81 30.02
10946 58.7130 1.571254 887.00 918.72 29.78
10947 58.7180 1.571132 914.00 917.79 30.23
10948 58.7230 1.571010 974.00 917.03 31.21
10949 58.7280 1.570889 970.00 916.43 31.14
10950 58.7330 1.570767 926.00 916.00 30.43
10951 58.7380 1.570645 919.00 915.77 30.32
10952 58.7430 1.570523 944.00 915.72 30.72
10953 58.7480 1.570401 965.00 915.86 31.06
10954 58.7530 1.570280 942.00 916.16 30.69
10955 58.7580 1.570158 876.00 916.64 29.60
10956 58.7630 1.570036 899.00 917.26 29.98
10957 58.7680 1.569915 940.00 918.02 30.66
10958 58.7730 1.569793 975.00 918.93 31.23
10959 58.7780 1.569671 896.00 919.92 29.93
10960 58.7830 1.569550 899.00 920.98 29.98
10961 58.7880 1.569428 915.00 922.11 30.25
10962 58.7930 1.569307 911.00 923.27 30.18
10963 58.7980 1.569185 918.00 924.51 30.30
10964 58.8030 1.569064 959.00 925.66 30.97
10965 58.8080 1.568942 953.00 926.77 30.87
10966 58.8130 1.568821 955.00 927.82 30.90
10967 58.8180 1.568699 968.00 928.76 31.11
10968 58.8230 1.568578 954.00 929.60 30.89
10969 58.8280 1.568456 936.00 930.30 30.59
10970 58.8330 1.568335 979.00 930.85 31.29
10971 58.8380 1.568214 969.00 931.20 31.13
10972 58.8430 1.568092 984.00 931.37 31.37
10973 58.8480 1.567971 987.00 931.42 31.42
10974 58.8530 1.567850 976.00 931.30 31.24
10975 58.8580 1.567729 979.00 931.02 31.29
10976 58.8630 1.567607 941.00 930.60 30.68
10977 58.8680 1.567486 898.00 930.04 29.97
10978 58.8730 1.567365 876.00 929.35 29.60
10979 58.8780 1.567244 893.00 928.57 29.88
10980 58.8830 1.567123 939.00 927.73 30.64
10981 58.8880 1.567001 950.00 926.84 30.82
10982 58.8930 1.566880 948.00 925.95 30.79
10983 58.8980 1.566759 966.00 925.07 31.08
10984 58.9030 1.566638 966.00 924.24 31.08
10985 58.9080 1.566517 958.00 923.49 30.95
10986 58.9130 1.566396 968.00 922.85 31.11
10987 58.9180 1.566275 962.00 922.33 31.02
10988 58.9230 1.566154 958.00 922.10 30.95
10989 58.9280 1.566033 965.00 921.92 31.06
10990 58.9330 1.565912 977.00 921.94 31.26
10991 58.9380 1.565791 999.00 922.17 31.61
10992 58.9430 1.565670 998.00 922.63 31.59
10993 58.9480 1.565549 982.00 923.34 31.34
10994 58.9530 1.565429 965.00 924.30 31.06
10995 58.9580 1.565308 981.00 925.52 31.32
10996 58.9630 1.565187 1019.00 927.02 31.92
10997 58.9680 1.565066 1029.00 928.78 32.08
10998 58.9730 1.564945 985.00 930.81 31.38
10999 58.9780 1.564825 950.00 933.12 30.82
11000 58.9830 1.564704 921.00 935.69 30.35
11001 58.9880 1.564583 967.00 938.52 31.10
11002 58.9930 1.564463 991.00 941.61 31.48
11003 58.9980 1.564342 955.00 944.95 30.90
11004 59.0030 1.564221 955.00 948.52 30.90
11005 59.0080 1.564101 956.00 952.32 30.92
11006 59.0130 1.563980 954.00 956.33 30.89
11007 59.0180 1.563859 961.00 960.53 31.00
11008 59.0230 1.563739 959.00 964.92 30.97
11009 59.0280 1.563618 989.00 969.47 31.45
11010 59.0330 1.563498 1016.00 974.18 31.87
11011 59.0380 1.563377 1011.00 979.03 31.80
11012 59.0430 1.563257 995.00 984.00 31.54
11013 59.0480 1.563136 973.00 989.13 31.19
11014 59.0530 1.563016 1020.00 994.29 31.94
11015 59.0580 1.562896 1032.00 999.53 32.12
11016 59.0630 1.562775 1036.00 1004.83 32.19
11017 59.0680 1.562655 1014.00 1010.16 31.84
11018 59.0730 1.562535 1004.00 1015.54 31.69
11019 59.0780 1.562414 1032.00 1020.91 32.12
11020 59.0830 1.562294 1034.00 1026.26 32.16
11021 59.0880 1.562174 1035.00 1031.60 32.17
11022 59.0930 1.562054 1054.00 1036.89 32.47
11023 59.0980 1.561933 1061.00 1042.13 32.57
11024 59.1030 1.561813 1104.00 1047.40 33.23
11025 59.1080 1.561693 1100.00 1052.46 33.17
11026 59.1130 1.561573 1089.00 1057.41 33.00
11027 59.1180 1.561453 1081.00 1062.25 32.88
11028 59.1230 1.561332 1106.00 1066.94 33.26
11029 59.1280 1.561212 1071.00 1071.49 32.73
11030 59.1330 1.561092 1028.00 1075.89 32.06
11031 59.1380 1.560972 1013.00 1080.12 31.83
11032 59.1430 1.560852 999.00 1084.21 31.61
11033 59.1480 1.560732 999.00 1088.11 31.61
11034 59.1530 1.560612 1023.00 1091.83 31.98
11035 59.1580 1.560492 1054.00 1095.38 32.47
11036 59.1630 1.560372 1013.00 1098.75 31.83
11037 59.1680 1.560252 1020.00 1101.94 31.94
11038 59.1730 1.560132 1020.00 1104.95 31.94
11039 59.1780 1.560012 1035.00 1107.78 32.17
11040 59.1830 1.559893 1110.00 1110.42 33.32
11041 59.1880 1.559773 1093.00 1112.88 33.06
11042 59.1930 1.559653 1100.00 1115.15 33.17
11043 59.1980 1.559533 1109.00 1117.25 33.30
11044 59.2030 1.559413 1156.00 1119.16 34.00
11045 59.2080 1.559294 1142.00 1120.90 33.79
11046 59.2130 1.559174 1095.00 1122.46 33.09
11047 59.2180 1.559054 1055.00 1123.85 32.48
11048 59.2230 1.558934 1060.00 1125.09 32.56
11049 59.2280 1.558815 1155.00 1126.18 33.99
11050 59.2330 1.558695 1182.00 1127.13 34.38
11051 59.2380 1.558576 1160.00 1127.95 34.06
11052 59.2430 1.558456 1125.00 1128.65 33.54
11053 59.2480 1.558336 1144.00 1129.26 33.82
11054 59.2530 1.558217 1135.00 1129.77 33.69
11055 59.2580 1.558097 1103.00 1130.22 33.21
11056 59.2630 1.557978 1087.00 1130.58 32.97
11057 59.2680 1.557858 1146.00 1130.88 33.85
11058 59.2730 1.557739 1214.00 1131.12 34.84
11059 59.2780 1.557619 1191.00 1131.31 34.51
11060 59.2830 1.557500 1131.00 1131.40 33.63
11061 59.2880 1.557380 1171.00 1131.47 34.22
11062 59.2930 1.557261 1158.00 1131.48 34.03
11063 59.2980 1.557142 1148.00 1131.41 33.88
11064 59.3030 1.557022 1142.00 1131.28 33.79
11065 59.3080 1.556903 1145.00 1131.07 33.84
11066 59.3130 1.556784 1172.00 1130.77 34.23
11067 59.3180 1.556664 1184.00 1130.38 34.41
11068 59.3230 1.556545 1212.00 1129.88 34.81
11069 59.3280 1.556426 1209.00 1129.28 34.77
11070 59.3330 1.556306 1188.00 1128.56 34.47
11071 59.3380 1.556187 1148.00 1127.71 33.88
11072 59.3430 1.556068 1141.00 1126.72 33.78
11073 59.3480 1.555949 1139.00 1125.59 33.75
11074 59.3530 1.555830 1102.00 1124.30 33.20
11075 59.3580 1.555711 1067.00 1122.84 32.67
11076 59.3630 1.555592 1098.00 1121.20 33.14
11077 59.3680 1.555473 1101.00 1119.37 33.18
11078 59.3730 1.555354 1140.00 1117.34 33.76
11079 59.3780 1.555234 1158.00 1115.09 34.03
11080 59.3830 1.555115 1127.00 1112.60 33.57
11081 59.3880 1.554996 1131.00 1109.87 33.63
11082 59.3930 1.554878 1149.00 1106.86 33.90
11083 59.3980 1.554759 1099.00 1103.57 33.15
11084 59.4030 1.554640 1080.00 1099.99 32.86
11085 59.4080 1.554521 1117.00 1096.08 33.42
11086 59.4130 1.554402 1152.00 1091.84 33.94
11087 59.4180 1.554283 1179.00 1087.27 34.34
11088 59.4230 1.554164 1171.00 1082.35 34.22
11089 59.4280 1.554045 1139.00 1077.10 33.75
11090 59.4330 1.553926 1122.00 1071.52 33.50
11091 59.4380 1.553808 1095.00 1065.62 33.09
11092 59.4430 1.553689 1112.00 1059.44 33.35
11093 59.4480 1.553570 1103.00 1053.01 33.21
11094 59.4530 1.553452 1031.00 1046.37 32.11
11095 59.4580 1.553333 1029.00 1039.54 32.08
11096 59.4630 1.553214 1087.00 1032.57 32.97
11097 59.4680 1.553095 1070.00 1025.50 32.71
11098 59.4730 1.552977 1030.00 1018.39 32.09
11099 59.4780 1.552858 999.00 1011.26 31.61
11100 59.4830 1.552740 996.00 1004.17 31.56
11101 59.4880 1.552621 1023.00 997.14 31.98
11102 59.4930 1.552503 1019.00 990.21 31.92
11103 59.4980 1.552384 989.00 983.40 31.45
11104 59.5030 1.552266 997.00 976.74 31.58
11105 59.5080 1.552147 1011.00 970.26 31.80
11106 59.5130 1.552029 970.00 963.96 31.14
11107 59.5180 1.551910 963.00 957.88 31.03
11108 59.5230 1.551792 966.00 951.99 31.08
11109 59.5280 1.551673 945.00 946.32 30.74
11110 59.5330 1.551555 938.00 940.84 30.63
11111 59.5380 1.551437 942.00 935.60 30.69
11112 59.5430 1.551318 977.00 930.57 31.26
11113 59.5480 1.551200 983.00 925.76 31.35
11114 59.5530 1.551082 948.00 921.18 30.79
11115 59.5580 1.550963 939.00 916.80 30.64
11116 59.5630 1.550845 920.00 912.62 30.33
11117 59.5680 1.550727 882.00 908.64 29.70
11118 59.5730 1.550609 933.00 904.85 30.55
11119 59.5780 1.550490 974.00 901.32 31.21
11120 59.5830 1.550372 954.00 897.89 30.89
11121 59.5880 1.550254 921.00 894.64 30.35
11122 59.5930 1.550136 921.00 891.56 30.35
11123 59.5980 1.550018 892.00 888.64 29.87
11124 59.6030 1.549900 923.00 885.88 30.38
11125 59.6080 1.549782 962.00 883.27 31.02
11126 59.6130 1.549664 939.00 880.81 30.64
11127 59.6180 1.549546 914.00 878.49 30.23
11128 59.6230 1.549428 878.00 876.32 29.63
11129 59.6280 1.549310 860.00 874.28 29.33
11130 59.6330 1.549192 852.00 872.39 29.19
11131 59.6380 1.549074 881.00 870.64 29.68
11132 59.6430 1.548956 867.00 869.02 29.44
11133 59.6480 1.548838 876.00 867.55 29.60
11134 59.6530 1.548720 882.00 866.22 29.70
11135 59.6580 1.548602 887.00 865.02 29.78
11136 59.6630 1.548484 901.00 863.97 30.02
11137 59.6680 1.548367 915.00 863.06 30.25
11138 59.6730 1.548249 935.00 862.29 30.58
11139 59.6780 1.548131 912.00 861.67 30.20
11140 59.6830 1.548013 867.00 861.20 29.44
11141 59.6880 1.547896 869.00 860.86 29.48
11142 59.6930 1.547778 851.00 860.68 29.17
11143 59.6980 1.547660 872.00 860.64 29.53
11144 59.7030 1.547542 877.00 860.75 29.61
11145 59.7080 1.547425 888.00 861.01 29.80
11146 59.7130 1.547307 873.00 861.41 29.55
11147 59.7180 1.547190 855.00 861.96 29.24
11148 59.7230 1.547072 846.00 862.66 29.09
11149 59.7280 1.546954 846.00 863.50 29.09
11150 59.7330 1.546837 880.00 864.49 29.66
11151 59.7380 1.546719 852.00 865.62 29.19
11152 59.7430 1.546602 860.00 866.91 29.33
11153 59.7480 1.546484 870.00 868.31 29.50
11154 59.7530 1.546367 900.00 869.87 30.00
11155 59.7580 1.546249 922.00 871.58 30.36
11156 59.7630 1.546132 916.00 873.44 30.27
11157 59.7680 1.546015 877.00 875.43 29.61
11158 59.7730 1.545897 860.00 877.57 29.33
11159 59.7780 1.545780 903.00 879.84 30.05
11160 59.7830 1.545663 923.00 882.23 30.38
11161 59.7880 1.545545 938.00 884.76 30.63
11162 59.7930 1.545428 925.00 887.41 30.41
11163 59.7980 1.545311 912.00 890.17 30.20
11164 59.8030 1.545193 903.00 893.04 30.05
11165 59.8080 1.545076 881.00 896.01 29.68
11166 59.8130 1.544959 882.00 899.08 29.70
11167 59.8180 1.544842 881.00 902.22 29.68
11168 59.8230 1.544725 933.00 905.42 30.55
11169 59.8280 1.544607 938.00 908.68 30.63
11170 59.8330 1.544490 946.00 911.99 30.76
11171 59.8380 1.544373 941.00 915.29 30.68
11172 59.8430 1.544256 937.00 918.66 30.61
11173 59.8480 1.544139 929.00 922.04 30.48
11174 59.8530 1.544022 920.00 925.42 30.33
11175 59.8580 1.543905 912.00 928.82 30.20
11176 59.8630 1.543788 920.00 932.21 30.33
11177 59.8680 1.543671 918.00 935.44 30.30
11178 59.8730 1.543554 912.00 938.83 30.20
11179 59.8780 1.543437 909.00 942.23 30.15
11180 59.8830 1.543320 913.00 945.65 30.22
11181 59.8880 1.543203 941.00 949.10 30.68
11182 59.8930 1.543086 976.00 952.61 31.24
11183 59.8980 1.542970 964.00 956.18 31.05
11184 59.9030 1.542853 956.00 959.84 30.92
11185 59.9080 1.542736 930.00 963.60 30.50
11186 59.9130 1.542619 920.00 967.50 30.33
11187 59.9180 1.542502 957.00 971.54 30.94
11188 59.9230 1.542385 981.00 975.74 31.32
11189 59.9280 1.542269 995.00 980.12 31.54
11190 59.9330 1.542152 1040.00 984.68 32.25
11191 59.9380 1.542035 1043.00 989.44 32.30
11192 59.9430 1.541919 1036.00 994.38 32.19
11193 59.9480 1.541802 1022.00 999.52 31.97
11194 59.9530 1.541685 1012.00 1004.85 31.81
11195 59.9580 1.541569 994.00 1010.34 31.53
11196 59.9630 1.541452 1000.00 1015.99 31.62
11197 59.9680 1.541336 1003.00 1021.79 31.67
11198 59.9730 1.541219 1030.00 1027.68 32.09
11199 59.9780 1.541103 1009.00 1033.64 31.76
11200 59.9830 1.540986 996.00 1039.66 31.56
11201 59.9880 1.540870 1075.00 1045.68 32.79
11202 59.9930 1.540753 1068.00 1051.67 32.68
11203 59.9980 1.540637 1055.00 1057.58 32.48
11204 60.0030 1.540520 1042.00 1063.44 32.28
11205 60.0080 1.540404 1031.00 1069.06 32.11
11206 60.0130 1.540287 1038.00 1074.48 32.22
11207 60.0180 1.540171 1073.00 1079.65 32.76
11208 60.0230 1.540055 1117.00 1084.55 33.42
11209 60.0280 1.539938 1128.00 1089.13 33.59
11210 60.0330 1.539822 1107.00 1093.39 33.27
11211 60.0380 1.539706 1119.00 1097.28 33.45
11212 60.0430 1.539590 1099.00 1100.81 33.15
11213 60.0480 1.539473 1135.00 1103.98 33.69
11214 60.0530 1.539357 1135.00 1106.79 33.69
11215 60.0580 1.539241 1184.00 1109.27 34.41
11216 60.0630 1.539125 1193.00 1111.44 34.54
11217 60.0680 1.539008 1159.00 1113.32 34.04
11218 60.0730 1.538892 1145.00 1114.96 33.84
11219 60.0780 1.538776 1113.00 1116.39 33.36
11220 60.0830 1.538660 1106.00 1117.67 33.26
11221 60.0880 1.538544 1087.00 1118.83 32.97
11222 60.0930 1.538428 1108.00 1119.91 33.29
11223 60.0980 1.538312 1130.00 1120.96 33.62
11224 60.1030 1.538196 1167.00 1122.03 34.16
11225 60.1080 1.538080 1164.00 1123.13 34.12
11226 60.1130 1.537964 1149.00 1124.30 33.90
11227 60.1180 1.537848 1162.00 1125.56 34.09
11228 60.1230 1.537732 1115.00 1126.93 33.39
11229 60.1280 1.537616 1135.00 1128.41 33.69
11230 60.1330 1.537500 1120.00 1130.01 33.47
11231 60.1380 1.537385 1127.00 1131.72 33.57
11232 60.1430 1.537269 1130.00 1133.53 33.62
11233 60.1480 1.537153 1122.00 1135.43 33.50
11234 60.1530 1.537037 1138.00 1137.39 33.73
11235 60.1580 1.536921 1159.00 1139.39 34.04
11236 60.1630 1.536805 1170.00 1141.41 34.21
11237 60.1680 1.536690 1197.00 1143.41 34.60
11238 60.1730 1.536574 1158.00 1145.38 34.03
11239 60.1780 1.536458 1137.00 1147.28 33.72
11240 60.1830 1.536343 1154.00 1149.09 33.97
11241 60.1880 1.536227 1165.00 1150.79 34.13
11242 60.1930 1.536111 1133.00 1152.36 33.66
11243 60.1980 1.535995 1124.00 1153.79 33.53
11244 60.2030 1.535880 1135.00 1155.07 33.69
11245 60.2080 1.535764 1153.00 1156.20 33.96
11246 60.2130 1.535649 1183.00 1157.17 34.39
11247 60.2180 1.535533 1182.00 1157.98 34.38
11248 60.2230 1.535418 1168.00 1158.62 34.18
11249 60.2280 1.535302 1104.00 1159.11 33.23
11250 60.2330 1.535187 1112.00 1159.44 33.35
11251 60.2380 1.535071 1115.00 1159.60 33.39
11252 60.2430 1.534956 1093.00 1159.61 33.06
11253 60.2480 1.534840 1133.00 1159.43 33.66
11254 60.2530 1.534725 1168.00 1159.07 34.18
11255 60.2580 1.534610 1176.00 1158.48 34.29
11256 60.2630 1.534494 1142.00 1157.67 33.79
11257 60.2680 1.534379 1085.00 1156.59 32.94
11258 60.2730 1.534263 1097.00 1155.22 33.12
11259 60.2780 1.534148 1132.00 1153.52 33.65
11260 60.2830 1.534033 1180.00 1151.46 34.35
11261 60.2880 1.533918 1200.00 1149.01 34.64
11262 60.2930 1.533802 1174.00 1146.12 34.26
11263 60.2980 1.533687 1144.00 1142.80 33.82
11264 60.3030 1.533572 1093.00 1139.00 33.06
11265 60.3080 1.533457 1082.00 1134.71 32.89
11266 60.3130 1.533342 1110.00 1129.95 33.32
11267 60.3180 1.533226 1094.00 1124.72 33.08
11268 60.3230 1.533111 1066.00 1119.04 32.65
11269 60.3280 1.532996 1068.00 1112.88 32.68
11270 60.3330 1.532881 1054.00 1106.38 32.47
11271 60.3380 1.532766 1078.00 1099.47 32.83
11272 60.3430 1.532651 1082.00 1092.32 32.89
11273 60.3480 1.532536 1024.00 1084.94 32.00
11274 60.3530 1.532421 1033.00 1077.36 32.14
11275 60.3580 1.532306 1054.00 1069.66 32.47
11276 60.3630 1.532191 1054.00 1061.89 32.47
11277 60.3680 1.532076 1053.00 1054.10 32.45
11278 60.3730 1.531961 1042.00 1046.34 32.28
11279 60.3780 1.531846 1059.00 1038.67 32.54
11280 60.3830 1.531731 1069.00 1031.11 32.70
11281 60.3880 1.531616 1050.00 1023.72 32.40
11282 60.3930 1.531502 1044.00 1016.52 32.31
11283 60.3980 1.531387 1046.00 1009.54 32.34
11284 60.4030 1.531272 1010.00 1002.79 31.78
11285 60.4080 1.531157 1018.00 996.30 31.91
11286 60.4130 1.531043 996.00 990.07 31.56
11287 60.4180 1.530928 968.00 984.12 31.11
11288 60.4230 1.530813 956.00 978.45 30.92
11289 60.4280 1.530698 934.00 973.04 30.56
11290 60.4330 1.530584 924.00 967.91 30.40
11291 60.4380 1.530469 963.00 963.05 31.03
11292 60.4430 1.530354 981.00 958.44 31.32
11293 60.4480 1.530240 948.00 954.09 30.79
11294 60.4530 1.530125 926.00 949.97 30.43
11295 60.4580 1.530011 914.00 946.07 30.23
11296 60.4630 1.529896 932.00 942.38 30.53
11297 60.4680 1.529781 945.00 938.89 30.74
11298 60.4730 1.529667 965.00 935.58 31.06
11299 60.4780 1.529552 937.00 932.44 30.61
11300 60.4830 1.529438 943.00 929.46 30.71
11301 60.4880 1.529323 973.00 926.62 31.19
11302 60.4930 1.529209 969.00 923.90 31.13
11303 60.4980 1.529095 981.00 921.32 31.32
11304 60.5030 1.528980 957.00 918.82 30.94
11305 60.5080 1.528866 931.00 916.40 30.51
11306 60.5130 1.528751 909.00 914.07 30.15
11307 60.5180 1.528637 893.00 911.79 29.88
11308 60.5230 1.528523 889.00 909.57 29.82
11309 60.5280 1.528409 915.00 907.39 30.25
11310 60.5330 1.528294 954.00 905.23 30.89
11311 60.5380 1.528180 949.00 903.08 30.81
11312 60.5430 1.528066 907.00 900.94 30.12
11313 60.5480 1.527951 893.00 898.80 29.88
11314 60.5530 1.527837 896.00 896.64 29.93
11315 60.5580 1.527723 916.00 894.44 30.27
11316 60.5630 1.527609 916.00 892.26 30.27
11317 60.5680 1.527495 896.00 890.03 29.93
11318 60.5730 1.527381 897.00 887.76 29.95
11319 60.5780 1.527267 912.00 885.50 30.20
11320 60.5830 1.527153 943.00 883.17 30.71
11321 60.5880 1.527038 949.00 880.82 30.81
11322 60.5930 1.526924 926.00 878.45 30.43
11323 60.5980 1.526810 901.00 876.07 30.02
11324 60.6030 1.526696 883.00 873.68 29.72
11325 60.6080 1.526582 844.00 871.29 29.05
11326 60.6130 1.526469 811.00 868.93 28.48
11327 60.6180 1.526355 815.00 866.59 28.55
11328 60.6230 1.526241 853.00 864.28 29.21
11329 60.6280 1.526127 874.00 862.03 29.56
11330 60.6330 1.526013 883.00 859.81 29.72
11331 60.6380 1.525899 905.00 857.68 30.08
11332 60.6430 1.525785 875.00 855.63 29.58
11333 60.6480 1.525671 830.00 853.65 28.81
11334 60.6530 1.525557 839.00 851.77 28.97
11335 60.6580 1.525444 853.00 849.98 29.21
11336 60.6630 1.525330 889.00 848.30 29.82
11337 60.6680 1.525216 911.00 846.71 30.18
11338 60.6730 1.525102 869.00 845.24 29.48
11339 60.6780 1.524989 840.00 843.88 28.98
11340 60.6830 1.524875 816.00 842.59 28.57
11341 60.6880 1.524762 797.00 841.45 28.23
11342 60.6930 1.524648 790.00 840.38 28.11
11343 60.6980 1.524534 809.00 839.46 28.44
11344 60.7030 1.524421 836.00 838.66 28.91
11345 60.7080 1.524307 873.00 837.97 29.55
11346 60.7130 1.524193 883.00 837.40 29.72
11347 60.7180 1.524080 862.00 836.93 29.36
11348 60.7230 1.523966 800.00 836.58 28.28
11349 60.7280 1.523853 782.00 836.34 27.96
11350 60.7330 1.523739 809.00 836.20 28.44
11351 60.7380 1.523626 834.00 836.17 28.88
11352 60.7430 1.523512 885.00 836.24 29.75
11353 60.7480 1.523399 897.00 836.41 29.95
11354 60.7530 1.523286 853.00 836.68 29.21
11355 60.7580 1.523172 827.00 837.04 28.76
11356 60.7630 1.523059 857.00 837.49 29.27
11357 60.7680 1.522945 885.00 838.03 29.75
11358 60.7730 1.522832 937.00 838.64 30.61
11359 60.7780 1.522719 929.00 839.32 30.48
11360 60.7830 1.522606 879.00 840.06 29.65
11361 60.7880 1.522492 850.00 840.87 29.15
11362 60.7930 1.522379 820.00 841.72 28.64
11363 60.7980 1.522266 806.00 842.62 28.39
11364 60.8030 1.522153 803.00 843.55 28.34
11365 60.8080 1.522040 817.00 844.51 28.58
11366 60.8130 1.521926 836.00 845.50 28.91
11367 60.8180 1.521813 848.00 846.49 29.12
11368 60.8230 1.521700 825.00 847.47 28.72
11369 60.8280 1.521587 828.00 848.45 28.77
11370 60.8330 1.521474 852.00 849.42 29.19
11371 60.8380 1.521361 856.00 850.37 29.26
11372 60.8430 1.521248 867.00 851.30 29.44
11373 60.8480 1.521135 876.00 852.21 29.60
11374 60.8530 1.521022 845.00 853.11 29.07
11375 60.8580 1.520909 840.00 853.98 28.98
11376 60.8630 1.520796 850.00 854.83 29.15
11377 60.8680 1.520683 832.00 855.67 28.84
11378 60.8730 1.520570 847.00 856.50 29.10
11379 60.8780 1.520457 875.00 857.34 29.58
11380 60.8830 1.520344 897.00 858.19 29.95
11381 60.8880 1.520231 899.00 859.07 29.98
11382 60.8930 1.520118 895.00 859.99 29.92
11383 60.8980 1.520005 940.00 860.95 30.66
11384 60.9030 1.519893 950.00 861.97 30.82
11385 60.9080 1.519780 977.00 863.07 31.26
11386 60.9130 1.519667 953.00 864.23 30.87
11387 60.9180 1.519554 986.00 865.48 31.40
11388 60.9230 1.519442 1017.00 866.83 31.89
11389 60.9280 1.519329 996.00 868.27 31.56
11390 60.9330 1.519216 970.00 869.79 31.14
11391 60.9380 1.519104 948.00 871.43 30.79
11392 60.9430 1.518991 905.00 873.16 30.08
11393 60.9480 1.518878 864.00 874.98 29.39
11394 60.9530 1.518766 850.00 876.91 29.15
11395 60.9580 1.518653 882.00 878.89 29.70
11396 60.9630 1.518540 894.00 880.95 29.90
11397 60.9680 1.518428 885.00 883.07 29.75
11398 60.9730 1.518315 874.00 885.23 29.56
11399 60.9780 1.518203 905.00 887.42 30.08
11400 60.9830 1.518090 914.00 889.63 30.23
11401 60.9880 1.517978 899.00 891.81 29.98
11402 60.9930 1.517865 886.00 893.99 29.77
11403 60.9980 1.517753 880.00 896.12 29.66
11404 61.0030 1.517641 888.00 898.20 29.80
11405 61.0080 1.517528 893.00 900.19 29.88
11406 61.0130 1.517416 904.00 902.09 30.07
11407 61.0180 1.517303 896.00 903.84 29.93
11408 61.0230 1.517191 893.00 905.48 29.88
11409 61.0280 1.517079 897.00 906.98 29.95
11410 61.0330 1.516966 895.00 908.32 29.92
11411 61.0380 1.516854 907.00 909.48 30.12
11412 61.0430 1.516742 924.00 910.47 30.40
11413 61.0480 1.516630 899.00 911.28 29.98
11414 61.0530 1.516517 879.00 911.90 29.65
11415 61.0580 1.516405 913.00 912.33 30.22
11416 61.0630 1.516293 947.00 912.53 30.77
11417 61.0680 1.516181 929.00 912.57 30.48
11418 61.0730 1.516069 906.00 912.41 30.10
11419 61.0780 1.515957 931.00 912.08 30.51
11420 61.0830 1.515844 962.00 911.55 31.02
11421 61.0880 1.515732 944.00 910.91 30.72
11422 61.0930 1.515620 938.00 910.03 30.63
11423 61.0980 1.515508 913.00 908.97 30.22
11424 61.1030 1.515396 921.00 907.76 30.35
11425 61.1080 1.515284 861.00 906.39 29.34
11426 61.1130 1.515172 850.00 904.88 29.15
11427 61.1180 1.515060 894.00 903.24 29.90
11428 61.1230 1.514948 949.00 901.48 30.81
11429 61.1280 1.514836 1007.00 899.62 31.73
11430 61.1330 1.514724 1026.00 897.68 32.03
11431 61.1380 1.514613 965.00 895.67 31.06
11432 61.1430 1.514501 926.00 893.61 30.43
11433 61.1480 1.514389 923.00 891.53 30.38
11434 61.1530 1.514277 904.00 889.43 30.07
11435 61.1580 1.514165 897.00 887.34 29.95
11436 61.1630 1.514053 945.00 885.28 30.74
11437 61.1680 1.513942 962.00 883.26 31.02
11438 61.1730 1.513830 967.00 881.31 31.10
11439 61.1780 1.513718 949.00 879.44 30.81
11440 61.1830 1.513606 939.00 877.66 30.64
11441 61.1880 1.513495 933.00 875.98 30.55
11442 61.1930 1.513383 907.00 874.43 30.12
11443 61.1980 1.513271 907.00 873.01 30.12
11444 61.2030 1.513160 935.00 871.72 30.58
11445 61.2080 1.513048 926.00 870.58 30.43
11446 61.2130 1.512936 913.00 869.60 30.22
11447 61.2180 1.512825 897.00 868.77 29.95
11448 61.2230 1.512713 871.00 868.11 29.51
11449 61.2280 1.512602 885.00 867.61 29.75
11450 61.2330 1.512490 897.00 867.28 29.95
11451 61.2380 1.512379 898.00 867.11 29.97
11452 61.2430 1.512267 870.00 867.11 29.50
11453 61.2480 1.512156 833.00 867.28 28.86
11454 61.2530 1.512044 836.00 867.61 28.91
11455 61.2580 1.511933 856.00 868.11 29.26
11456 61.2630 1.511821 869.00 868.76 29.48
11457 61.2680 1.511710 849.00 869.57 29.14
11458 61.2730 1.511599 836.00 870.52 28.91
11459 61.2780 1.511487 858.00 871.60 29.29
11460 61.2830 1.511376 882.00 872.82 29.70
11461 61.2880 1.511265 885.00 874.16 29.75
11462 61.2930 1.511153 889.00 875.61 29.82
11463 61.2980 1.511042 857.00 877.16 29.27
11464 61.3030 1.510931 833.00 878.80 28.86
11465 61.3080 1.510820 858.00 880.52 29.29
11466 61.3130 1.510708 889.00 882.30 29.82
11467 61.3180 1.510597 906.00 884.13 30.10
11468 61.3230 1.510486 920.00 885.99 30.33
11469 61.3280 1.510375 912.00 887.87 30.20
11470 61.3330 1.510264 905.00 889.74 30.08
11471 61.3380 1.510153 911.00 891.60 30.18
11472 61.3430 1.510041 888.00 893.43 29.80
11473 61.3480 1.509930 858.00 895.21 29.29
11474 61.3530 1.509819 889.00 896.93 29.82
11475 61.3580 1.509708 925.00 898.58 30.41
11476 61.3630 1.509597 947.00 900.14 30.77
11477 61.3680 1.509486 953.00 901.62 30.87
11478 61.3730 1.509375 947.00 903.02 30.77
11479 61.3780 1.509264 935.00 904.32 30.58
11480 61.3830 1.509153 919.00 905.52 30.32
11481 61.3880 1.509042 928.00 906.65 30.46
11482 61.3930 1.508931 936.00 907.69 30.59
11483 61.3980 1.508821 927.00 908.65 30.45
11484 61.4030 1.508710 954.00 909.54 30.89
11485 61.4080 1.508599 942.00 910.36 30.69
11486 61.4130 1.508488 931.00 911.14 30.51
11487 61.4180 1.508377 938.00 911.87 30.63
11488 61.4230 1.508266 942.00 912.57 30.69
11489 61.4280 1.508156 949.00 913.23 30.81
11490 61.4330 1.508045 921.00 913.87 30.35
11491 61.4380 1.507934 919.00 914.49 30.32
11492 61.4430 1.507823 896.00 915.09 29.93
11493 61.4480 1.507713 867.00 915.69 29.44
11494 61.4530 1.507602 893.00 916.27 29.88
11495 61.4580 1.507491 924.00 916.84 30.40
11496 61.4630 1.507381 901.00 917.40 30.02
11497 61.4680 1.507270 872.00 917.95 29.53
11498 61.4730 1.507159 865.00 918.49 29.41
11499 61.4780 1.507049 886.00 919.03 29.77
11500 61.4830 1.506938 892.00 919.56 29.87
11501 61.4880 1.506828 906.00 920.09 30.10
11502 61.4930 1.506717 910.00 920.59 30.17
11503 61.4980 1.506607 924.00 921.09 30.40
11504 61.5030 1.506496 930.00 921.57 30.50
11505 61.5080 1.506386 920.00 922.03 30.33
11506 61.5130 1.506275 940.00 922.48 30.66
11507 61.5180 1.506165 954.00 922.91 30.89
11508 61.5230 1.506055 960.00 923.31 30.98
11509 61.5280 1.505944 962.00 923.67 31.02
11510 61.5330 1.505834 961.00 923.98 31.00
11511 61.5380 1.505723 934.00 924.25 30.56
11512 61.5430 1.505613 899.00 924.47 29.98
11513 61.5480 1.505503 877.00 924.62 29.61
11514 61.5530 1.505392 885.00 924.69 29.75
11515 61.5580 1.505282 892.00 924.68 29.87
11516 61.5630 1.505172 904.00 924.58 30.07
11517 61.5680 1.505062 923.00 924.38 30.38
11518 61.5730 1.504951 955.00 924.08 30.90
11519 61.5780 1.504841 952.00 923.68 30.85
11520 61.5830 1.504731 928.00 923.16 30.46
11521 61.5880 1.504621 941.00 922.55 30.68
11522 61.5930 1.504511 938.00 921.85 30.63
11523 61.5980 1.504401 929.00 921.04 30.48
11524 61.6030 1.504290 927.00 920.17 30.45
11525 61.6080 1.504180 930.00 919.24 30.50
11526 61.6130 1.504070 943.00 918.25 30.71
11527 61.6180 1.503960 958.00 917.23 30.95
11528 61.6230 1.503850 949.00 916.18 30.81
11529 61.6280 1.503740 948.00 915.13 30.79
11530 61.6330 1.503630 959.00 914.10 30.97
11531 61.6380 1.503520 945.00 913.07 30.74
11532 61.6430 1.503410 918.00 912.13 30.30
11533 61.6480 1.503300 913.00 911.27 30.22
11534 61.6530 1.503190 925.00 910.51 30.41
11535 61.6580 1.503080 929.00 909.88 30.48
11536 61.6630 1.502971 928.00 909.38 30.46
11537 61.6680 1.502861 937.00 909.06 30.61
11538 61.6730 1.502751 972.00 908.93 31.18
11539 61.6780 1.502641 983.00 909.00 31.35
11540 61.6830 1.502531 956.00 909.30 30.92
11541 61.6880 1.502421 908.00 909.84 30.13
11542 61.6930 1.502312 894.00 910.65 29.90
11543 61.6980 1.502202 919.00 911.74 30.32
11544 61.7030 1.502092 950.00 913.14 30.82
11545 61.7080 1.501983 948.00 914.83 30.79
11546 61.7130 1.501873 936.00 916.84 30.59
11547 61.7180 1.501763 940.00 919.20 30.66
11548 61.7230 1.501654 940.00 921.91 30.66
11549 61.7280 1.501544 938.00 924.97 30.63
11550 61.7330 1.501434 940.00 928.40 30.66
11551 61.7380 1.501325 956.00 932.20 30.92
11552 61.7430 1.501215 961.00 936.38 31.00
11553 61.7480 1.501106 967.00 940.95 31.10
11554 61.7530 1.500996 957.00 945.90 30.94
11555 61.7580 1.500887 928.00 951.24 30.46
11556 61.7630 1.500777 917.00 956.96 30.28
11557 61.7680 1.500667 929.00 963.06 30.48
11558 61.7730 1.500558 950.00 969.55 30.82
11559 61.7780 1.500449 954.00 976.40 30.89
11560 61.7830 1.500339 966.00 983.60 31.08
11561 61.7880 1.500230 1003.00 991.17 31.67
11562 61.7930 1.500120 1021.00 999.05 31.95
11563 61.7980 1.500011 1039.00 1007.24 32.23
11564 61.8030 1.499901 1048.00 1015.72 32.37
11565 61.8080 1.499792 1029.00 1024.45 32.08
11566 61.8130 1.499683 1017.00 1033.42 31.89
11567 61.8180 1.499574 1046.00 1042.58 32.34
11568 61.8230 1.499464 1048.00 1051.90 32.37
11569 61.8280 1.499355 1034.00 1061.33 32.16
11570 61.8330 1.499246 1046.00 1070.83 32.34
11571 61.8380 1.499137 1051.00 1080.35 32.42
11572 61.8430 1.499027 1039.00 1089.83 32.23
11573 61.8480 1.498918 1034.00 1099.22 32.16
11574 61.8530 1.498809 1045.00 1108.47 32.33
11575 61.8580 1.498700 1057.00 1117.50 32.51
11576 61.8630 1.498591 1084.00 1126.26 32.92
11577 61.8680 1.498482 1119.00 1134.69 33.45
11578 61.8730 1.498373 1138.00 1142.73 33.73
11579 61.8780 1.498264 1138.00 1150.33 33.73
11580 61.8830 1.498155 1116.00 1157.42 33.41
11581 61.8880 1.498045 1092.00 1163.98 33.05
11582 61.8930 1.497936 1095.00 1169.97 33.09
11583 61.8980 1.497827 1105.00 1175.35 33.24
11584 61.9030 1.497718 1168.00 1180.09 34.18
11585 61.9080 1.497609 1235.00 1184.19 35.14
11586 61.9130 1.497501 1239.00 1187.64 35.20
11587 61.9180 1.497392 1223.00 1190.44 34.97
11588 61.9230 1.497283 1201.00 1192.61 34.66
11589 61.9280 1.497174 1210.00 1194.17 34.79
11590 61.9330 1.497065 1227.00 1195.13 35.03
11591 61.9380 1.496956 1235.00 1195.51 35.14
11592 61.9430 1.496847 1273.00 1195.37 35.68
11593 61.9480 1.496739 1302.00 1194.73 36.08
11594 61.9530 1.496630 1274.00 1193.65 35.69
11595 61.9580 1.496521 1213.00 1192.15 34.83
11596 61.9630 1.496412 1195.00 1190.27 34.57
11597 61.9680 1.496303 1225.00 1188.07 35.00
11598 61.9730 1.496195 1238.00 1185.53 35.19
11599 61.9780 1.496086 1244.00 1182.78 35.27
11600 61.9830 1.495977 1246.00 1179.77 35.30
11601 61.9880 1.495869 1239.00 1176.56 35.20
11602 61.9930 1.495760 1218.00 1173.17 34.90
11603 61.9980 1.495651 1216.00 1169.60 34.87
11604 62.0030 1.495543 1211.00 1165.86 34.80
11605 62.0080 1.495434 1214.00 1161.97 34.84
11606 62.0130 1.495326 1236.00 1157.92 35.16
11607 62.0180 1.495217 1232.00 1153.71 35.10
11608 62.0230 1.495109 1241.00 1149.32 35.23
11609 62.0280 1.495000 1222.00 1144.77 34.96
11610 62.0330 1.494892 1181.00 1140.01 34.37
11611 62.0380 1.494783 1162.00 1135.06 34.09
11612 62.0430 1.494675 1150.00 1129.90 33.91
11613 62.0480 1.494566 1140.00 1124.53 33.76
11614 62.0530 1.494458 1122.00 1118.93 33.50
11615 62.0580 1.494349 1097.00 1113.12 33.12
11616 62.0630 1.494241 1090.00 1107.09 33.02
11617 62.0680 1.494133 1079.00 1100.88 32.85
11618 62.0730 1.494024 1052.00 1094.48 32.43
11619 62.0780 1.493916 1044.00 1087.94 32.31
11620 62.0830 1.493808 1068.00 1081.22 32.68
11621 62.0880 1.493699 1099.00 1074.46 33.15
11622 62.0930 1.493591 1092.00 1067.65 33.05
11623 62.0980 1.493483 1066.00 1060.83 32.65
11624 62.1030 1.493374 1059.00 1054.05 32.54
11625 62.1080 1.493266 1044.00 1047.34 32.31
11626 62.1130 1.493158 1041.00 1040.72 32.26
11627 62.1180 1.493050 1062.00 1034.26 32.59
11628 62.1230 1.492942 1082.00 1027.97 32.89
11629 62.1280 1.492834 1094.00 1021.87 33.08
11630 62.1330 1.492726 1067.00 1016.01 32.67
11631 62.1380 1.492617 1007.00 1010.39 31.73
11632 62.1430 1.492509 958.00 1005.04 30.95
11633 62.1480 1.492401 944.00 999.97 30.72
11634 62.1530 1.492293 936.00 995.17 30.59
11635 62.1580 1.492185 921.00 990.67 30.35
11636 62.1630 1.492077 941.00 986.46 30.68
11637 62.1680 1.491969 972.00 982.53 31.18
11638 62.1730 1.491861 968.00 978.89 31.11
11639 62.1780 1.491753 941.00 975.53 30.68
11640 62.1830 1.491645 921.00 972.44 30.35
11641 62.1880 1.491537 932.00 969.60 30.53
11642 62.1930 1.491429 978.00 967.02 31.27
11643 62.1980 1.491322 993.00 964.66 31.51
11644 62.2030 1.491214 979.00 962.53 31.29
11645 62.2080 1.491106 987.00 960.60 31.42
11646 62.2130 1.490998 978.00 958.86 31.27
11647 62.2180 1.490890 960.00 957.30 30.98
11648 62.2230 1.490782 952.00 955.90 30.85
11649 62.2280 1.490675 929.00 954.66 30.48
11650 62.2330 1.490567 903.00 953.56 30.05
11651 62.2380 1.490459 928.00 952.59 30.46
11652 62.2430 1.490352 952.00 951.80 30.85
11653 62.2480 1.490244 941.00 951.06 30.68
11654 62.2530 1.490136 942.00 950.43 30.69
11655 62.2580 1.490029 950.00 949.90 30.82
11656 62.2630 1.489921 951.00 949.46 30.84
11657 62.2680 1.489813 960.00 949.11 30.98
11658 62.2730 1.489706 966.00 948.85 31.08
11659 62.2780 1.489598 957.00 948.65 30.94
11660 62.2830 1.489491 956.00 948.54 30.92
11661 62.2880 1.489383 959.00 948.52 30.97
11662 62.2930 1.489275 951.00 948.59 30.84
11663 62.2980 1.489168 964.00 948.75 31.05
11664 62.3030 1.489060 948.00 949.00 30.79
11665 62.3080 1.488953 922.00 949.36 30.36
11666 62.3130 1.488845 920.00 949.83 30.33
11667 62.3180 1.488738 908.00 950.42 30.13
11668 62.3230 1.488631 897.00 951.14 29.95
11669 62.3280 1.488523 926.00 952.01 30.43
11670 62.3330 1.488416 959.00 953.02 30.97
11671 62.3380 1.488308 952.00 954.19 30.85
11672 62.3430 1.488201 954.00 955.54 30.89
11673 62.3480 1.488094 952.00 957.08 30.85
11674 62.3530 1.487986 916.00 958.81 30.27
11675 62.3580 1.487879 889.00 960.74 29.82
11676 62.3630 1.487772 874.00 962.89 29.56
11677 62.3680 1.487665 886.00 965.25 29.77
11678 62.3730 1.487557 924.00 967.89 30.40
11679 62.3780 1.487450 948.00 970.71 30.79
11680 62.3830 1.487343 972.00 973.76 31.18
11681 62.3880 1.487236 994.00 977.05 31.53
11682 62.3930 1.487128 982.00 980.60 31.34
11683 62.3980 1.487021 980.00 984.35 31.31
11684 62.4030 1.486914 986.00 988.32 31.40
11685 62.4080 1.486807 960.00 992.50 30.98
11686 62.4130 1.486700 955.00 996.89 30.90
11687 62.4180 1.486593 965.00 1001.47 31.06
11688 62.4230 1.486486 950.00 1006.22 30.82
11689 62.4280 1.486379 970.00 1011.12 31.14
11690 62.4330 1.486272 1010.00 1016.16 31.78
11691 62.4380 1.486165 1030.00 1021.31 32.09
11692 62.4430 1.486058 1029.00 1026.53 32.08
11693 62.4480 1.485951 1003.00 1031.82 31.67
11694 62.4530 1.485844 987.00 1037.15 31.42
11695 62.4580 1.485737 999.00 1042.46 31.61
11696 62.4630 1.485630 1020.00 1047.76 31.94
11697 62.4680 1.485523 1043.00 1053.01 32.30
11698 62.4730 1.485416 1047.00 1058.19 32.36
11699 62.4780 1.485309 1063.00 1063.27 32.60
11700 62.4830 1.485203 1070.00 1068.24 32.71
11701 62.4880 1.485096 1056.00 1073.08 32.50
11702 62.4930 1.484989 1070.00 1077.80 32.71
11703 62.4980 1.484882 1092.00 1082.38 33.05
11704 62.5030 1.484776 1091.00 1086.81 33.03
11705 62.5080 1.484669 1119.00 1091.11 33.45
11706 62.5130 1.484562 1150.00 1095.28 33.91
11707 62.5180 1.484455 1179.00 1099.32 34.34
11708 62.5230 1.484349 1196.00 1103.25 34.58
11709 62.5280 1.484242 1182.00 1107.11 34.38
11710 62.5330 1.484135 1142.00 1110.85 33.79
11711 62.5380 1.484029 1127.00 1114.51 33.57
11712 62.5430 1.483922 1121.00 1118.11 33.48
11713 62.5480 1.483815 1105.00 1121.63 33.24
11714 62.5530 1.483709 1092.00 1125.13 33.05
11715 62.5580 1.483602 1089.00 1128.53 33.00
11716 62.5630 1.483496 1089.00 1131.85 33.00
11717 62.5680 1.483389 1113.00 1135.07 33.36
11718 62.5730 1.483283 1132.00 1138.20 33.65
11719 62.5780 1.483176 1105.00 1141.22 33.24
11720 62.5830 1.483070 1091.00 1144.05 33.03
11721 62.5880 1.482963 1105.00 1146.76 33.24
11722 62.5930 1.482857 1130.00 1149.28 33.62
11723 62.5980 1.482750 1136.00 1151.57 33.70
11724 62.6030 1.482644 1152.00 1153.62 33.94
11725 62.6080 1.482538 1173.00 1155.41 34.25
11726 62.6130 1.482431 1193.00 1156.90 34.54
11727 62.6180 1.482325 1163.00 1158.11 34.10
11728 62.6230 1.482218 1153.00 1158.99 33.96
11729 62.6280 1.482112 1141.00 1159.53 33.78
11730 62.6330 1.482006 1094.00 1159.78 33.08
11731 62.6380 1.481900 1071.00 1159.73 32.73
11732 62.6430 1.481793 1114.00 1159.40 33.38
11733 62.6480 1.481687 1165.00 1158.82 34.13
11734 62.6530 1.481581 1134.00 1158.01 33.67
11735 62.6580 1.481475 1081.00 1157.00 32.88
11736 62.6630 1.481369 1079.00 1155.83 32.85
11737 62.6680 1.481262 1113.00 1154.55 33.36
11738 62.6730 1.481156 1124.00 1153.21 33.53
11739 62.6780 1.481050 1128.00 1151.81 33.59
11740 62.6830 1.480944 1126.00 1150.40 33.56
11741 62.6880 1.480838 1082.00 1149.01 32.89
11742 62.6930 1.480732 1076.00 1147.67 32.80
11743 62.6980 1.480626 1104.00 1146.31 33.23
11744 62.7030 1.480520 1116.00 1145.11 33.41
11745 62.7080 1.480414 1126.00 1143.98 33.56
11746 62.7130 1.480308 1127.00 1142.95 33.57
11747 62.7180 1.480202 1136.00 1142.00 33.70
11748 62.7230 1.480096 1147.00 1141.12 33.87
11749 62.7280 1.479990 1148.00 1140.31 33.88
11750 62.7330 1.479884 1139.00 1139.56 33.75
11751 62.7380 1.479778 1114.00 1138.85 33.38
11752 62.7430 1.479672 1112.00 1138.15 33.35
11753 62.7480 1.479566 1078.00 1137.46 32.83
11754 62.7530 1.479460 1085.00 1136.74 32.94
11755 62.7580 1.479354 1044.00 1135.98 32.31
11756 62.7630 1.479249 1035.00 1135.16 32.17
11757 62.7680 1.479143 1045.00 1134.24 32.33
11758 62.7730 1.479037 1069.00 1133.18 32.70
11759 62.7780 1.478931 1067.00 1132.01 32.67
11760 62.7830 1.478825 1091.00 1130.68 33.03
11761 62.7880 1.478720 1079.00 1129.16 32.85
11762 62.7930 1.478614 1046.00 1127.42 32.34
11763 62.7980 1.478508 1060.00 1125.43 32.56
11764 62.8030 1.478403 1102.00 1123.17 33.20
11765 62.8080 1.478297 1119.00 1120.62 33.45
11766 62.8130 1.478191 1126.00 1117.75 33.56
11767 62.8180 1.478086 1118.00 1114.54 33.44
11768 62.8230 1.477980 1079.00 1110.99 32.85
11769 62.8280 1.477874 1019.00 1107.09 31.92
11770 62.8330 1.477769 1037.00 1102.80 32.20
11771 62.8380 1.477663 1073.00 1098.20 32.76
11772 62.8430 1.477558 1078.00 1093.28 32.83
11773 62.8480 1.477452 1094.00 1088.04 33.08
11774 62.8530 1.477347 1070.00 1082.52 32.71
11775 62.8580 1.477241 1061.00 1076.73 32.57
11776 62.8630 1.477136 1128.00 1070.72 33.59
11777 62.8680 1.477030 1133.00 1064.52 33.66
11778 62.8730 1.476925 1109.00 1058.16 33.30
11779 62.8780 1.476820 1132.00 1051.70 33.65
11780 62.8830 1.476714 1139.00 1045.15 33.75
11781 62.8880 1.476609 1078.00 1038.59 32.83
11782 62.8930 1.476503 1023.00 1032.04 31.98
11783 62.8980 1.476398 1051.00 1025.49 32.42
11784 62.9030 1.476293 1107.00 1019.01 33.27
11785 62.9080 1.476187 1093.00 1012.62 33.06
11786 62.9130 1.476082 1042.00 1006.33 32.28
11787 62.9180 1.475977 1014.00 1000.07 31.84
11788 62.9230 1.475872 1055.00 994.07 32.48
11789 62.9280 1.475766 1081.00 988.22 32.88
11790 62.9330 1.475661 1064.00 982.56 32.62
11791 62.9380 1.475556 983.00 977.08 31.35
11792 62.9430 1.475451 961.00 971.79 31.00
11793 62.9480 1.475346 1010.00 966.69 31.78
11794 62.9530 1.475240 1018.00 961.79 31.91
11795 62.9580 1.475135 984.00 957.09 31.37
11796 62.9630 1.475030 979.00 952.58 31.29
11797 62.9680 1.474925 993.00 948.28 31.51
11798 62.9730 1.474820 1009.00 944.18 31.76
11799 62.9780 1.474715 994.00 940.27 31.53
11800 62.9830 1.474610 975.00 936.57 31.23
11801 62.9880 1.474505 974.00 933.05 31.21
11802 62.9930 1.474400 987.00 929.73 31.42
11803 62.9980 1.474295 911.00 926.61 30.18
11804 63.0030 1.474190 873.00 923.68 29.55
11805 63.0080 1.474085 857.00 920.95 29.27
11806 63.0130 1.473980 868.00 918.41 29.46
11807 63.0180 1.473875 918.00 916.07 30.30
11808 63.0230 1.473770 928.00 913.92 30.46
11809 63.0280 1.473665 894.00 911.98 29.90
11810 63.0330 1.473561 893.00 910.23 29.88
11811 63.0380 1.473456 928.00 908.69 30.46
11812 63.0430 1.473351 934.00 907.35 30.56
11813 63.0480 1.473246 929.00 906.22 30.48
11814 63.0530 1.473141 920.00 905.29 30.33
11815 63.0580 1.473037 916.00 904.58 30.27
11816 63.0630 1.472932 937.00 904.07 30.61
11817 63.0680 1.472827 913.00 903.77 30.22
11818 63.0730 1.472722 897.00 903.69 29.95
11819 63.0780 1.472618 901.00 903.82 30.02
11820 63.0830 1.472513 896.00 904.16 29.93
11821 63.0880 1.472408 925.00 904.70 30.41
11822 63.0930 1.472304 991.00 905.46 31.48
11823 63.0980 1.472199 1016.00 906.44 31.87
11824 63.1030 1.472094 998.00 907.62 31.59
11825 63.1080 1.471990 973.00 909.02 31.19
11826 63.1130 1.471885 939.00 910.62 30.64
11827 63.1180 1.471781 908.00 912.42 30.13
11828 63.1230 1.471676 894.00 914.43 29.90
11829 63.1280 1.471572 921.00 916.63 30.35
11830 63.1330 1.471467 952.00 919.02 30.85
11831 63.1380 1.471362 966.00 921.59 31.08
11832 63.1430 1.471258 964.00 924.34 31.05
11833 63.1480 1.471154 937.00 927.27 30.61
11834 63.1530 1.471049 931.00 930.34 30.51
11835 63.1580 1.470945 960.00 933.56 30.98
11836 63.1630 1.470840 946.00 936.92 30.76
11837 63.1680 1.470736 933.00 940.40 30.55
11838 63.1730 1.470631 946.00 943.98 30.76
11839 63.1780 1.470527 894.00 947.67 29.90
11840 63.1830 1.470423 875.00 951.42 29.58
11841 63.1880 1.470319 916.00 955.23 30.27
11842 63.1930 1.470214 963.00 959.07 31.03
11843 63.1980 1.470110 951.00 962.94 30.84
11844 63.2030 1.470006 954.00 966.80 30.89
11845 63.2080 1.469901 970.00 970.65 31.14
11846 63.2130 1.469797 1005.00 974.47 31.70
11847 63.2180 1.469693 975.00 978.25 31.23
11848 63.2230 1.469589 943.00 981.96 30.71
11849 63.2280 1.469485 950.00 985.59 30.82
11850 63.2330 1.469380 981.00 989.12 31.32
11851 63.2380 1.469276 973.00 992.56 31.19
11852 63.2430 1.469172 990.00 995.88 31.46
11853 63.2480 1.469068 1014.00 999.06 31.84
11854 63.2530 1.468964 1000.00 1002.11 31.62
11855 63.2580 1.468860 1002.00 1005.01 31.65
11856 63.2630 1.468756 1016.00 1007.77 31.87
11857 63.2680 1.468652 1028.00 1010.32 32.06
11858 63.2730 1.468548 1011.00 1012.67 31.80
11859 63.2780 1.468444 998.00 1014.81 31.59
11860 63.2830 1.468340 1021.00 1016.71 31.95
11861 63.2880 1.468236 1057.00 1018.38 32.51
11862 63.2930 1.468132 1022.00 1019.75 31.97
11863 63.2980 1.468028 989.00 1020.84 31.45
11864 63.3030 1.467924 977.00 1021.60 31.26
11865 63.3080 1.467820 1006.00 1022.02 31.72
11866 63.3130 1.467716 995.00 1022.07 31.54
11867 63.3180 1.467612 1017.00 1021.74 31.89
11868 63.3230 1.467509 1026.00 1021.01 32.03
11869 63.3280 1.467405 1048.00 1019.86 32.37
11870 63.3330 1.467301 1008.00 1018.29 31.75
11871 63.3380 1.467197 965.00 1016.30 31.06
11872 63.3430 1.467093 978.00 1013.88 31.27
11873 63.3480 1.466990 985.00 1011.04 31.38
11874 63.3530 1.466886 985.00 1007.82 31.38
11875 63.3580 1.466782 961.00 1004.23 31.00
11876 63.3630 1.466679 959.00 1000.28 30.97
11877 63.3680 1.466575 954.00 996.04 30.89
11878 63.3730 1.466471 951.00 991.51 30.84
11879 63.3780 1.466367 1031.00 986.76 32.11
11880 63.3830 1.466264 1037.00 981.81 32.20
11881 63.3880 1.466160 1023.00 976.72 31.98
11882 63.3930 1.466057 1073.00 971.53 32.76
11883 63.3980 1.465953 1018.00 966.22 31.91
11884 63.4030 1.465850 990.00 960.93 31.46
11885 63.4080 1.465746 952.00 955.66 30.85
11886 63.4130 1.465643 886.00 950.42 29.77
11887 63.4180 1.465539 885.00 945.26 29.75
11888 63.4230 1.465436 910.00 940.19 30.17
11889 63.4280 1.465332 949.00 935.30 30.81
11890 63.4330 1.465229 936.00 930.49 30.59
11891 63.4380 1.465125 904.00 925.88 30.07
11892 63.4430 1.465022 889.00 921.41 29.82
11893 63.4480 1.464918 893.00 917.12 29.88
11894 63.4530 1.464815 899.00 913.03 29.98
11895 63.4580 1.464712 915.00 909.14 30.25
11896 63.4630 1.464608 926.00 905.45 30.43
11897 63.4680 1.464505 891.00 901.98 29.85
11898 63.4730 1.464401 905.00 898.72 30.08
11899 63.4780 1.464298 880.00 895.67 29.66
11900 63.4830 1.464195 923.00 892.84 30.38
11901 63.4880 1.464092 948.00 890.22 30.79
11902 63.4930 1.463988 960.00 887.82 30.98
11903 63.4980 1.463885 910.00 885.61 30.17
11904 63.5030 1.463782 950.00 883.61 30.82
11905 63.5080 1.463679 899.00 881.81 29.98
11906 63.5130 1.463576 909.00 880.20 30.15
11907 63.5180 1.463472 860.00 878.77 29.33
11908 63.5230 1.463369 894.00 877.52 29.90
11909 63.5280 1.463266 903.00 876.43 30.05
11910 63.5330 1.463163 912.00 875.51 30.20
11911 63.5380 1.463060 882.00 874.73 29.70
11912 63.5430 1.462957 844.00 874.10 29.05
11913 63.5480 1.462854 835.00 873.59 28.90
11914 63.5530 1.462751 869.00 873.22 29.48
11915 63.5580 1.462648 852.00 872.95 29.19
11916 63.5630 1.462545 826.00 872.80 28.74
11917 63.5680 1.462442 863.00 872.74 29.38
11918 63.5730 1.462339 927.00 872.72 30.45
11919 63.5780 1.462236 974.00 872.85 31.21
11920 63.5830 1.462133 952.00 873.05 30.85
11921 63.5880 1.462030 910.00 873.31 30.17
11922 63.5930 1.461927 915.00 873.67 30.25
11923 63.5980 1.461824 901.00 874.11 30.02
11924 63.6030 1.461721 881.00 874.63 29.68
11925 63.6080 1.461618 944.00 875.24 30.72
11926 63.6130 1.461516 923.00 875.89 30.38
11927 63.6180 1.461413 904.00 876.67 30.07
11928 63.6230 1.461310 840.00 877.54 28.98
11929 63.6280 1.461207 870.00 878.54 29.50
11930 63.6330 1.461104 874.00 879.61 29.56
11931 63.6380 1.461002 879.00 880.80 29.65
11932 63.6430 1.460899 857.00 882.11 29.27
11933 63.6480 1.460796 863.00 883.53 29.38
11934 63.6530 1.460694 838.00 885.08 28.95
11935 63.6580 1.460591 880.00 886.75 29.66
11936 63.6630 1.460488 901.00 888.55 30.02
11937 63.6680 1.460386 881.00 890.47 29.68
11938 63.6730 1.460283 916.00 892.52 30.27
11939 63.6780 1.460180 934.00 894.69 30.56
11940 63.6830 1.460078 888.00 896.99 29.80
11941 63.6880 1.459975 839.00 899.39 28.97
11942 63.6930 1.459873 908.00 901.87 30.13
11943 63.6980 1.459770 862.00 904.46 29.36
11944 63.7030 1.459668 868.00 907.12 29.46
11945 63.7080 1.459565 911.00 909.84 30.18
11946 63.7130 1.459463 960.00 912.62 30.98
11947 63.7180 1.459360 910.00 915.42 30.17
11948 63.7230 1.459258 902.00 918.18 30.03
11949 63.7280 1.459155 957.00 920.98 30.94
11950 63.7330 1.459053 927.00 923.75 30.45
11951 63.7380 1.458950 910.00 926.44 30.17
11952 63.7430 1.458848 936.00 929.05 30.59
11953 63.7480 1.458745 947.00 931.54 30.77
11954 63.7530 1.458643 897.00 933.82 29.95
11955 63.7580 1.458541 919.00 935.98 30.32
11956 63.7630 1.458439 909.00 937.95 30.15
11957 63.7680 1.458336 905.00 939.72 30.08
11958 63.7730 1.458234 922.00 941.18 30.36
11959 63.7780 1.458132 1010.00 942.36 31.78
11960 63.7830 1.458030 992.00 943.23 31.50
11961 63.7880 1.457927 979.00 943.77 31.29
11962 63.7930 1.457825 980.00 943.97 31.31
11963 63.7980 1.457723 994.00 943.81 31.53
11964 63.8030 1.457621 985.00 943.31 31.38
11965 63.8080 1.457519 975.00 942.44 31.23
11966 63.8130 1.457416 969.00 941.22 31.13
11967 63.8180 1.457314 1004.00 939.67 31.69
11968 63.8230 1.457212 968.00 937.79 31.11
11969 63.8280 1.457110 1003.00 935.60 31.67
11970 63.8330 1.457008 987.00 933.14 31.42
11971 63.8380 1.456906 1005.00 930.42 31.70
11972 63.8430 1.456804 948.00 927.49 30.79
11973 63.8480 1.456702 960.00 924.36 30.98
11974 63.8530 1.456600 935.00 921.07 30.58
11975 63.8580 1.456498 918.00 917.64 30.30
11976 63.8630 1.456396 916.00 914.12 30.27
11977 63.8680 1.456294 909.00 910.41 30.15
11978 63.8730 1.456192 945.00 906.77 30.74
11979 63.8780 1.456090 937.00 903.11 30.61
11980 63.8830 1.455988 911.00 899.45 30.18
11981 63.8880 1.455886 921.00 895.81 30.35
11982 63.8930 1.455784 939.00 892.18 30.64
11983 63.8980 1.455682 940.00 888.65 30.66
11984 63.9030 1.455581 948.00 885.19 30.79
11985 63.9080 1.455479 958.00 881.82 30.95
11986 63.9130 1.455377 937.00 878.55 30.61
11987 63.9180 1.455275 892.00 875.38 29.87
11988 63.9230 1.455173 859.00 872.34 29.31
11989 63.9280 1.455072 820.00 869.41 28.64
11990 63.9330 1.454970 882.00 866.61 29.70
11991 63.9380 1.454868 908.00 863.95 30.13
11992 63.9430 1.454766 889.00 861.42 29.82
11993 63.9480 1.454665 958.00 859.03 30.95
11994 63.9530 1.454563 971.00 856.78 31.16
11995 63.9580 1.454461 930.00 854.67 30.50
11996 63.9630 1.454360 895.00 852.71 29.92
11997 63.9680 1.454258 854.00 850.89 29.22
11998 63.9730 1.454157 867.00 849.21 29.44
11999 63.9780 1.454055 839.00 847.67 28.97
12000 63.9830 1.453954 841.00 846.28 29.00
12001 63.9880 1.453852 821.00 845.03 28.65
12002 63.9930 1.453750 826.00 843.91 28.74
12003 63.9980 1.453649 832.00 842.92 28.84
12004 64.0030 1.453547 848.00 842.06 29.12
12005 64.0080 1.453446 877.00 841.32 29.61
12006 64.0130 1.453344 870.00 840.71 29.50
12007 64.0180 1.453243 854.00 840.21 29.22
12008 64.0230 1.453141 847.00 839.82 29.10
12009 64.0280 1.453040 855.00 839.53 29.24
12010 64.0330 1.452939 838.00 839.34 28.95
12011 64.0380 1.452837 835.00 839.24 28.90
12012 64.0430 1.452736 858.00 839.21 29.29
12013 64.0480 1.452635 877.00 839.27 29.61
12014 64.0530 1.452533 820.00 839.40 28.64
12015 64.0580 1.452432 780.00 839.59 27.93
12016 64.0630 1.452331 832.00 839.84 28.84
12017 64.0680 1.452229 895.00 840.14 29.92
12018 64.0730 1.452128 864.00 840.48 29.39
12019 64.0780 1.452027 853.00 840.85 29.21
12020 64.0830 1.451926 842.00 841.25 29.02
12021 64.0880 1.451825 834.00 841.68 28.88
12022 64.0930 1.451723 815.00 842.12 28.55
12023 64.0980 1.451622 825.00 842.58 28.72
12024 64.1030 1.451521 839.00 843.05 28.97
12025 64.1080 1.451420 859.00 843.55 29.31
12026 64.1130 1.451319 857.00 844.05 29.27
12027 64.1180 1.451218 842.00 844.57 29.02
12028 64.1230 1.451116 867.00 845.10 29.44
12029 64.1280 1.451015 858.00 845.65 29.29
12030 64.1330 1.450914 825.00 846.23 28.72
12031 64.1380 1.450813 840.00 846.83 28.98
12032 64.1430 1.450712 803.00 847.47 28.34
12033 64.1480 1.450611 857.00 848.13 29.27
12034 64.1530 1.450510 856.00 848.84 29.26
12035 64.1580 1.450409 819.00 849.61 28.62
12036 64.1630 1.450308 837.00 850.42 28.93
12037 64.1680 1.450207 836.00 851.31 28.91
12038 64.1730 1.450107 872.00 852.26 29.53
12039 64.1780 1.450006 872.00 853.28 29.53
12040 64.1830 1.449905 890.00 854.37 29.83
12041 64.1880 1.449804 875.00 855.53 29.58
12042 64.1930 1.449703 857.00 856.78 29.27
12043 64.1980 1.449602 913.00 858.10 30.22
12044 64.2030 1.449501 902.00 859.50 30.03
12045 64.2080 1.449400 883.00 861.05 29.72
12046 64.2130 1.449300 900.00 862.62 30.00
12047 64.2180 1.449199 922.00 864.26 30.36
12048 64.2230 1.449098 885.00 865.98 29.75
12049 64.2280 1.448997 873.00 867.77 29.55
12050 64.2330 1.448897 874.00 869.63 29.56
12051 64.2380 1.448796 865.00 871.56 29.41
12052 64.2430 1.448695 814.00 873.55 28.53
12053 64.2480 1.448595 810.00 875.59 28.46
12054 64.2530 1.448494 842.00 877.68 29.02
12055 64.2580 1.448393 852.00 879.81 29.19
12056 64.2630 1.448293 852.00 881.97 29.19
12057 64.2680 1.448192 866.00 884.15 29.43
12058 64.2730 1.448091 892.00 886.36 29.87
12059 64.2780 1.447991 909.00 888.57 30.15
12060 64.2830 1.447890 907.00 890.79 30.12
12061 64.2880 1.447790 925.00 893.00 30.41
12062 64.2930 1.447689 928.00 895.19 30.46
12063 64.2980 1.447589 889.00 897.38 29.82
12064 64.3030 1.447488 863.00 899.52 29.38
12065 64.3080 1.447388 851.00 901.63 29.17
12066 64.3130 1.447287 878.00 903.70 29.63
12067 64.3180 1.447187 866.00 905.71 29.43
12068 64.3230 1.447086 838.00 907.66 28.95
12069 64.3280 1.446986 871.00 909.54 29.51
12070 64.3330 1.446886 905.00 911.34 30.08
12071 64.3380 1.446785 880.00 913.05 29.66
12072 64.3430 1.446685 877.00 914.65 29.61
12073 64.3480 1.446585 896.00 916.15 29.93
12074 64.3530 1.446484 885.00 917.53 29.75
12075 64.3580 1.446384 917.00 918.78 30.28
12076 64.3630 1.446284 923.00 919.88 30.38
12077 64.3680 1.446183 921.00 920.83 30.35
12078 64.3730 1.446083 912.00 921.62 30.20
12079 64.3780 1.445983 931.00 922.24 30.51
12080 64.3830 1.445883 978.00 922.67 31.27
12081 64.3880 1.445782 969.00 922.92 31.13
12082 64.3930 1.445682 938.00 922.97 30.63
12083 64.3980 1.445582 929.00 922.82 30.48
12084 64.4030 1.445482 944.00 922.46 30.72
12085 64.4080 1.445382 958.00 921.89 30.95
12086 64.4130 1.445282 912.00 921.11 30.20
12087 64.4180 1.445182 879.00 920.12 29.65
12088 64.4230 1.445081 890.00 918.93 29.83
12089 64.4280 1.444981 893.00 917.58 29.88
12090 64.4330 1.444881 900.00 916.03 30.00
12091 64.4380 1.444781 945.00 914.31 30.74
12092 64.4430 1.444681 913.00 912.44 30.22
12093 64.4480 1.444581 924.00 910.45 30.40
12094 64.4530 1.444481 992.00 908.33 31.50
12095 64.4580 1.444381 963.00 906.14 31.03
12096 64.4630 1.444281 890.00 903.88 29.83
12097 64.4680 1.444181 879.00 901.59 29.65
12098 64.4730 1.444082 884.00 899.27 29.73
12099 64.4780 1.443982 887.00 896.95 29.78
12100 64.4830 1.443882 888.00 894.65 29.80
12101 64.4880 1.443782 857.00 892.38 29.27
12102 64.4930 1.443682 849.00 890.15 29.14
12103 64.4980 1.443582 901.00 888.00 30.02
12104 64.5030 1.443482 900.00 885.92 30.00
12105 64.5080 1.443382 877.00 883.92 29.61
12106 64.5130 1.443283 838.00 882.02 28.95
12107 64.5180 1.443183 835.00 880.23 28.90
12108 64.5230 1.443083 865.00 878.55 29.41
12109 64.5280 1.442983 893.00 876.99 29.88
12110 64.5330 1.442884 892.00 875.54 29.87
12111 64.5380 1.442784 877.00 874.27 29.61
12112 64.5430 1.442684 883.00 873.09 29.72
12113 64.5480 1.442585 879.00 872.04 29.65
12114 64.5530 1.442485 877.00 871.12 29.61
12115 64.5580 1.442385 901.00 870.34 30.02
12116 64.5630 1.442286 900.00 869.71 30.00
12117 64.5680 1.442186 863.00 869.21 29.38
12118 64.5730 1.442086 834.00 868.85 28.88
12119 64.5780 1.441987 852.00 868.63 29.19
12120 64.5830 1.441887 858.00 868.54 29.29
12121 64.5880 1.441788 837.00 868.58 28.93
12122 64.5930 1.441688 818.00 868.76 28.60
12123 64.5980 1.441589 825.00 869.06 28.72
12124 64.6030 1.441489 855.00 869.48 29.24
12125 64.6080 1.441390 859.00 870.01 29.31
12126 64.6130 1.441290 875.00 870.65 29.58
12127 64.6180 1.441191 874.00 871.39 29.56
12128 64.6230 1.441091 850.00 872.22 29.15
12129 64.6280 1.440992 832.00 873.12 28.84
12130 64.6330 1.440892 827.00 874.09 28.76
12131 64.6380 1.440793 826.00 875.07 28.74
12132 64.6430 1.440694 844.00 876.13 29.05
12133 64.6480 1.440594 852.00 877.22 29.19
12134 64.6530 1.440495 848.00 878.36 29.12
12135 64.6580 1.440396 841.00 879.46 29.00
12136 64.6630 1.440297 835.00 880.55 28.90
12137 64.6680 1.440197 831.00 881.61 28.83
12138 64.6730 1.440098 839.00 882.62 28.97
12139 64.6780 1.439999 847.00 883.58 29.10
12140 64.6830 1.439899 843.00 884.52 29.03
12141 64.6880 1.439800 843.00 885.34 29.03
12142 64.6930 1.439701 840.00 886.08 28.98
12143 64.6980 1.439602 839.00 886.74 28.97
12144 64.7030 1.439503 882.00 887.30 29.70
12145 64.7080 1.439404 897.00 887.76 29.95
12146 64.7130 1.439305 883.00 888.14 29.72
12147 64.7180 1.439205 897.00 888.42 29.95
12148 64.7230 1.439106 891.00 888.60 29.85
12149 64.7280 1.439007 883.00 888.67 29.72
12150 64.7330 1.438908 872.00 888.69 29.53
12151 64.7380 1.438809 876.00 888.64 29.60
12152 64.7430 1.438710 900.00 888.52 30.00
12153 64.7480 1.438611 887.00 888.36 29.78
12154 64.7530 1.438512 865.00 888.16 29.41
12155 64.7580 1.438413 839.00 887.92 28.97
12156 64.7630 1.438314 823.00 887.68 28.69
12157 64.7680 1.438215 820.00 887.43 28.64
12158 64.7730 1.438116 853.00 887.17 29.21
12159 64.7780 1.438017 869.00 886.95 29.48
12160 64.7830 1.437918 845.00 886.74 29.07
12161 64.7880 1.437819 859.00 886.58 29.31
12162 64.7930 1.437721 870.00 886.46 29.50
12163 64.7980 1.437622 846.00 886.38 29.09
12164 64.8030 1.437523 829.00 886.37 28.79
12165 64.8080 1.437424 835.00 886.41 28.90
12166 64.8130 1.437325 851.00 886.53 29.17
12167 64.8180 1.437226 861.00 886.71 29.34
12168 64.8230 1.437128 857.00 886.96 29.27
12169 64.8280 1.437029 853.00 887.29 29.21
12170 64.8330 1.436930 840.00 887.69 28.98
12171 64.8380 1.436832 833.00 888.18 28.86
12172 64.8430 1.436733 850.00 888.74 29.15
12173 64.8480 1.436634 852.00 889.39 29.19
12174 64.8530 1.436535 854.00 890.11 29.22
12175 64.8580 1.436437 863.00 890.92 29.38
12176 64.8630 1.436338 862.00 891.81 29.36
12177 64.8680 1.436239 863.00 892.79 29.38
12178 64.8730 1.436141 855.00 893.84 29.24
12179 64.8780 1.436042 848.00 894.96 29.12
12180 64.8830 1.435944 856.00 896.15 29.26
12181 64.8880 1.435845 867.00 897.40 29.44
12182 64.8930 1.435747 876.00 898.71 29.60
12183 64.8980 1.435648 852.00 900.05 29.19
12184 64.9030 1.435549 851.00 901.43 29.17
12185 64.9080 1.435451 885.00 902.83 29.75
12186 64.9130 1.435353 884.00 904.23 29.73
12187 64.9180 1.435254 871.00 905.60 29.51
12188 64.9230 1.435156 884.00 906.95 29.73
12189 64.9280 1.435057 906.00 908.24 30.10
12190 64.9330 1.434959 914.00 909.45 30.23
12191 64.9380 1.434860 895.00 910.56 29.92
12192 64.9430 1.434762 884.00 911.55 29.73
12193 64.9480 1.434664 913.00 912.40 30.22
12194 64.9530 1.434565 903.00 913.09 30.05
12195 64.9580 1.434467 876.00 913.60 29.60
12196 64.9630 1.434369 861.00 913.91 29.34
12197 64.9680 1.434270 861.00 914.02 29.34
12198 64.9730 1.434172 864.00 913.90 29.39
12199 64.9780 1.434074 889.00 913.56 29.82
12200 64.9830 1.433975 931.00 913.04 30.51
12201 64.9880 1.433877 934.00 912.24 30.56
12202 64.9930 1.433779 931.00 911.22 30.51
12203 64.9980 1.433681 935.00 910.00 30.58
12204 65.0030 1.433583 937.00 908.57 30.61
12205 65.0080 1.433484 946.00 906.91 30.76
12206 65.0130 1.433386 946.00 905.13 30.76
12207 65.0180 1.433288 943.00 903.19 30.71
12208 65.0230 1.433190 916.00 901.12 30.27
12209 65.0280 1.433092 879.00 898.95 29.65
12210 65.0330 1.432994 839.00 896.68 28.97
12211 65.0380 1.432896 824.00 894.36 28.71
12212 65.0430 1.432798 827.00 891.98 28.76
12213 65.0480 1.432700 830.00 889.62 28.81
12214 65.0530 1.432602 835.00 887.21 28.90
12215 65.0580 1.432504 852.00 884.80 29.19
12216 65.0630 1.432405 875.00 882.41 29.58
12217 65.0680 1.432308 878.00 880.06 29.63
12218 65.0730 1.432210 878.00 877.76 29.63
12219 65.0780 1.432112 861.00 875.50 29.34
12220 65.0830 1.432014 830.00 873.30 28.81
12221 65.0880 1.431916 852.00 871.18 29.19
12222 65.0930 1.431818 864.00 869.18 29.39
12223 65.0980 1.431720 872.00 867.20 29.53
12224 65.1030 1.431622 887.00 865.38 29.78
12225 65.1080 1.431524 875.00 863.56 29.58
12226 65.1130 1.431427 866.00 861.83 29.43
12227 65.1180 1.431329 880.00 860.18 29.66
12228 65.1230 1.431231 854.00 858.59 29.22
12229 65.1280 1.431133 844.00 857.09 29.05
12230 65.1330 1.431035 855.00 855.67 29.24
12231 65.1380 1.430938 831.00 854.31 28.83
12232 65.1430 1.430840 810.00 853.01 28.46
12233 65.1480 1.430742 808.00 851.78 28.43
12234 65.1530 1.430644 826.00 850.59 28.74
12235 65.1580 1.430547 829.00 849.46 28.79
12236 65.1630 1.430449 816.00 848.39 28.57
12237 65.1680 1.430351 807.00 847.34 28.41
12238 65.1730 1.430254 827.00 846.33 28.76
12239 65.1780 1.430156 878.00 845.35 29.63
12240 65.1830 1.430058 889.00 844.41 29.82
12241 65.1880 1.429961 876.00 843.50 29.60
12242 65.1930 1.429863 855.00 842.63 29.24
12243 65.1980 1.429766 863.00 841.78 29.38
12244 65.2030 1.429668 860.00 840.97 29.33
12245 65.2080 1.429571 840.00 840.20 28.98
12246 65.2130 1.429473 861.00 839.46 29.34
12247 65.2180 1.429376 858.00 838.76 29.29
12248 65.2230 1.429278 842.00 838.07 29.02
12249 65.2280 1.429181 863.00 837.45 29.38
12250 65.2330 1.429083 877.00 836.86 29.61
12251 65.2380 1.428986 859.00 836.33 29.31
12252 65.2430 1.428889 848.00 835.83 29.12
12253 65.2480 1.428791 847.00 835.38 29.10
12254 65.2530 1.428694 843.00 834.96 29.03
12255 65.2580 1.428596 852.00 834.58 29.19
12256 65.2630 1.428499 854.00 834.24 29.22
12257 65.2680 1.428402 831.00 833.93 28.83
12258 65.2730 1.428304 829.00 833.67 28.79
12259 65.2780 1.428207 796.00 833.42 28.21
12260 65.2830 1.428110 795.00 833.18 28.20
12261 65.2880 1.428012 811.00 832.99 28.48
12262 65.2930 1.427915 834.00 832.82 28.88
12263 65.2980 1.427818 829.00 832.66 28.79
12264 65.3030 1.427721 783.00 832.53 27.98
12265 65.3080 1.427624 774.00 832.40 27.82
12266 65.3130 1.427526 786.00 832.28 28.04
12267 65.3180 1.427429 810.00 832.18 28.46
12268 65.3230 1.427332 812.00 832.08 28.50
12269 65.3280 1.427235 811.00 831.99 28.48
12270 65.3330 1.427138 824.00 831.91 28.71
12271 65.3380 1.427041 811.00 831.83 28.48
12272 65.3430 1.426943 831.00 831.75 28.83
12273 65.3480 1.426846 838.00 831.67 28.95
12274 65.3530 1.426749 839.00 831.59 28.97
12275 65.3580 1.426652 838.00 831.51 28.95
12276 65.3630 1.426555 842.00 831.42 29.02
12277 65.3680 1.426458 828.00 831.34 28.77
12278 65.3730 1.426361 785.00 831.25 28.02
12279 65.3780 1.426264 791.00 831.14 28.12
12280 65.3830 1.426167 824.00 831.02 28.71
12281 65.3880 1.426070 831.00 830.88 28.83
12282 65.3930 1.425973 828.00 830.73 28.77
12283 65.3980 1.425876 825.00 830.58 28.72
12284 65.4030 1.425780 795.00 830.39 28.20
12285 65.4080 1.425683 818.00 830.17 28.60
12286 65.4130 1.425586 820.00 829.94 28.64
12287 65.4180 1.425489 819.00 829.68 28.62
12288 65.4230 1.425392 814.00 829.40 28.53
12289 65.4280 1.425295 820.00 829.12 28.64
12290 65.4330 1.425198 820.00 828.80 28.64
12291 65.4380 1.425102 811.00 828.47 28.48
12292 65.4430 1.425005 815.00 828.13 28.55
12293 65.4480 1.424908 802.00 827.78 28.32
12294 65.4530 1.424811 777.00 827.42 27.87
12295 65.4580 1.424715 815.00 827.07 28.55
12296 65.4630 1.424618 812.00 826.71 28.50
12297 65.4680 1.424521 799.00 826.36 28.27
12298 65.4730 1.424425 795.00 826.02 28.20
12299 65.4780 1.424328 785.00 825.69 28.02
12300 65.4830 1.424231 791.00 825.38 28.12
12301 65.4880 1.424135 755.00 825.08 27.48
12302 65.4930 1.424038 824.00 824.80 28.71
12303 65.4980 1.423941 829.00 824.54 28.79
12304 65.5030 1.423845 836.00 824.30 28.91
12305 65.5080 1.423748 814.00 824.12 28.53
12306 65.5130 1.423652 807.00 823.93 28.41
12307 65.5180 1.423555 813.00 823.75 28.51
12308 65.5230 1.423458 794.00 823.59 28.18
12309 65.5280 1.423362 797.00 823.46 28.23
12310 65.5330 1.423266 834.00 823.34 28.88
12311 65.5380 1.423169 838.00 823.24 28.95
12312 65.5430 1.423073 848.00 823.15 29.12
12313 65.5480 1.422976 856.00 823.09 29.26
12314 65.5530 1.422880 826.00 823.03 28.74
12315 65.5580 1.422783 808.00 822.99 28.43
12316 65.5630 1.422687 789.00 822.96 28.09
12317 65.5680 1.422591 781.00 822.84 27.95
12318 65.5730 1.422494 781.00 822.83 27.95
12319 65.5780 1.422398 791.00 822.83 28.12
12320 65.5830 1.422302 796.00 822.83 28.21
12321 65.5880 1.422205 798.00 822.84 28.25
12322 65.5930 1.422109 762.00 822.84 27.60
12323 65.5980 1.422013 752.00 822.85 27.42
12324 65.6030 1.421916 790.00 822.78 28.11
12325 65.6080 1.421820 782.00 822.77 27.96
12326 65.6130 1.421724 792.00 822.77 28.14
12327 65.6180 1.421628 768.00 822.75 27.71
12328 65.6230 1.421531 756.00 822.77 27.50
12329 65.6280 1.421435 775.00 822.74 27.84
12330 65.6330 1.421339 830.00 822.69 28.81
12331 65.6380 1.421243 857.00 822.64 29.27
12332 65.6430 1.421147 812.00 822.58 28.50
12333 65.6480 1.421051 759.00 822.47 27.55
12334 65.6530 1.420954 765.00 822.40 27.66
12335 65.6580 1.420858 760.00 822.33 27.57
12336 65.6630 1.420762 778.00 822.26 27.89
12337 65.6680 1.420666 814.00 822.18 28.53
12338 65.6730 1.420570 795.00 822.12 28.20
12339 65.6780 1.420474 817.00 822.07 28.58
12340 65.6830 1.420378 806.00 822.04 28.39
12341 65.6880 1.420282 780.00 822.02 27.93
12342 65.6930 1.420186 788.00 822.01 28.07
12343 65.6980 1.420090 779.00 822.03 27.91
12344 65.7030 1.419994 753.00 822.08 27.44
12345 65.7080 1.419898 785.00 822.15 28.02
12346 65.7130 1.419802 808.00 822.26 28.43
12347 65.7180 1.419706 798.00 822.41 28.25
12348 65.7230 1.419611 815.00 822.59 28.55
12349 65.7280 1.419515 796.00 822.83 28.21
12350 65.7330 1.419419 802.00 823.10 28.32
12351 65.7380 1.419323 810.00 823.43 28.46
12352 65.7430 1.419227 827.00 823.76 28.76
12353 65.7480 1.419131 796.00 824.19 28.21
12354 65.7530 1.419036 761.00 824.61 27.59
12355 65.7580 1.418939 818.00 825.15 28.60
12356 65.7630 1.418844 835.00 825.74 28.90
12357 65.7680 1.418748 811.00 826.40 28.48
12358 65.7730 1.418652 813.00 827.11 28.51
12359 65.7780 1.418557 853.00 827.88 29.21
12360 65.7830 1.418461 852.00 828.70 29.19
12361 65.7880 1.418365 854.00 829.58 29.22
12362 65.7930 1.418270 835.00 830.51 28.90
12363 65.7980 1.418174 816.00 831.51 28.57
12364 65.8030 1.418078 853.00 832.55 29.21
12365 65.8080 1.417983 875.00 833.62 29.58
12366 65.8130 1.417887 886.00 834.74 29.77
12367 65.8180 1.417791 879.00 835.89 29.65
12368 65.8230 1.417696 837.00 837.07 28.93
12369 65.8280 1.417600 881.00 838.27 29.68
12370 65.8330 1.417505 857.00 839.49 29.27
12371 65.8380 1.417409 836.00 840.72 28.91
12372 65.8430 1.417313 856.00 841.95 29.26
12373 65.8480 1.417218 860.00 843.16 29.33
12374 65.8530 1.417123 858.00 844.40 29.29
12375 65.8580 1.417027 849.00 845.58 29.14
12376 65.8630 1.416932 847.00 846.72 29.10
12377 65.8680 1.416836 835.00 847.83 28.90
12378 65.8730 1.416741 845.00 848.88 29.07
12379 65.8780 1.416645 829.00 849.88 28.79
12380 65.8830 1.416550 795.00 850.81 28.20
12381 65.8880 1.416455 794.00 851.68 28.18
12382 65.8930 1.416359 822.00 852.48 28.67
12383 65.8980 1.416264 835.00 853.20 28.90
12384 65.9030 1.416169 844.00 853.84 29.05
12385 65.9080 1.416073 836.00 854.41 28.91
12386 65.9130 1.415978 838.00 854.90 28.95
12387 65.9180 1.415883 861.00 855.32 29.34
12388 65.9230 1.415787 848.00 855.65 29.12
12389 65.9280 1.415692 854.00 855.93 29.22
12390 65.9330 1.415597 859.00 856.16 29.31
12391 65.9380 1.415502 846.00 856.33 29.09
12392 65.9430 1.415406 860.00 856.47 29.33
12393 65.9480 1.415311 856.00 856.56 29.26
12394 65.9530 1.415216 855.00 856.63 29.24
12395 65.9580 1.415121 850.00 856.68 29.15
12396 65.9630 1.415026 885.00 856.73 29.75
12397 65.9680 1.414931 908.00 856.78 30.13
12398 65.9730 1.414835 884.00 856.83 29.73
12399 65.9780 1.414740 856.00 856.92 29.26
12400 65.9830 1.414645 841.00 857.03 29.00
12401 65.9880 1.414550 848.00 857.19 29.12
12402 65.9930 1.414455 878.00 857.40 29.63
12403 65.9980 1.414360 855.00 857.64 29.24
12404 66.0030 1.414265 852.00 857.98 29.19
12405 66.0080 1.414170 859.00 858.40 29.31
12406 66.0130 1.414075 829.00 858.92 28.79
12407 66.0180 1.413980 842.00 859.52 29.02
12408 66.0230 1.413885 836.00 860.21 28.91
12409 66.0280 1.413790 824.00 861.01 28.71
12410 66.0330 1.413695 850.00 861.93 29.15
12411 66.0380 1.413600 860.00 862.96 29.33
12412 66.0430 1.413505 882.00 864.10 29.70
12413 66.0480 1.413411 893.00 865.37 29.88
12414 66.0530 1.413316 871.00 866.76 29.51
12415 66.0580 1.413221 856.00 868.27 29.26
12416 66.0630 1.413126 836.00 869.92 28.91
12417 66.0680 1.413031 815.00 871.68 28.55
12418 66.0730 1.412936 859.00 873.58 29.31
12419 66.0780 1.412842 878.00 875.60 29.63
12420 66.0830 1.412747 874.00 877.75 29.56
12421 66.0880 1.412652 894.00 880.02 29.90
12422 66.0930 1.412557 882.00 882.41 29.70
12423 66.0980 1.412462 885.00 884.92 29.75
12424 66.1030 1.412368 859.00 887.55 29.31
12425 66.1080 1.412273 810.00 890.30 28.46
12426 66.1130 1.412179 848.00 893.15 29.12
12427 66.1180 1.412084 869.00 896.11 29.48
12428 66.1230 1.411989 897.00 899.17 29.95
12429 66.1280 1.411894 897.00 902.33 29.95
12430 66.1330 1.411800 910.00 905.60 30.17
12431 66.1380 1.411705 932.00 908.95 30.53
12432 66.1430 1.411611 924.00 912.39 30.40
12433 66.1480 1.411516 892.00 915.90 29.87
12434 66.1530 1.411422 895.00 919.48 29.92
12435 66.1580 1.411327 861.00 923.14 29.34
12436 66.1630 1.411232 878.00 926.85 29.63
12437 66.1680 1.411138 914.00 930.61 30.23
12438 66.1730 1.411044 925.00 934.41 30.41
12439 66.1780 1.410949 936.00 938.24 30.59
12440 66.1830 1.410854 965.00 942.09 31.06
12441 66.1880 1.410760 969.00 945.94 31.13
12442 66.1930 1.410666 973.00 949.80 31.19
12443 66.1980 1.410571 987.00 953.65 31.42
12444 66.2030 1.410477 994.00 957.49 31.53
12445 66.2080 1.410382 1028.00 961.28 32.06
12446 66.2130 1.410288 1015.00 965.05 31.86
12447 66.2180 1.410194 1023.00 968.70 31.98
12448 66.2230 1.410099 996.00 972.38 31.56
12449 66.2280 1.410005 967.00 975.99 31.10
12450 66.2330 1.409910 979.00 979.53 31.29
12451 66.2380 1.409816 992.00 983.01 31.50
12452 66.2430 1.409722 993.00 986.42 31.51
12453 66.2480 1.409628 1032.00 989.79 32.12
12454 66.2530 1.409533 1020.00 993.09 31.94
12455 66.2580 1.409439 1034.00 996.33 32.16
12456 66.2630 1.409345 1026.00 999.52 32.03
12457 66.2680 1.409251 995.00 1002.66 31.54
12458 66.2730 1.409157 996.00 1005.75 31.56
12459 66.2780 1.409062 989.00 1008.82 31.45
12460 66.2830 1.408968 1016.00 1011.86 31.87
12461 66.2880 1.408874 1020.00 1014.85 31.94
12462 66.2930 1.408780 1016.00 1017.81 31.87
12463 66.2980 1.408686 1006.00 1020.76 31.72
12464 66.3030 1.408592 1010.00 1023.68 31.78
12465 66.3080 1.408498 1017.00 1026.57 31.89
12466 66.3130 1.408404 1006.00 1029.43 31.72
12467 66.3180 1.408310 1020.00 1032.25 31.94
12468 66.3230 1.408216 1051.00 1035.03 32.42
12469 66.3280 1.408121 1032.00 1037.76 32.12
12470 66.3330 1.408027 996.00 1040.42 31.56
12471 66.3380 1.407933 979.00 1043.01 31.29
12472 66.3430 1.407839 983.00 1045.53 31.35
12473 66.3480 1.407745 1011.00 1047.95 31.80
12474 66.3530 1.407652 1049.00 1050.26 32.39
12475 66.3580 1.407557 1089.00 1052.47 33.00
12476 66.3630 1.407464 1106.00 1054.42 33.26
12477 66.3680 1.407370 1071.00 1056.37 32.73
12478 66.3730 1.407276 1068.00 1058.19 32.68
12479 66.3780 1.407182 1073.00 1059.86 32.76
12480 66.3830 1.407088 1083.00 1061.39 32.91
12481 66.3880 1.406994 1080.00 1062.77 32.86
12482 66.3930 1.406900 1055.00 1064.02 32.48
12483 66.3980 1.406807 1058.00 1065.12 32.53
12484 66.4030 1.406713 1092.00 1066.10 33.05
12485 66.4080 1.406619 1108.00 1066.97 33.29
12486 66.4130 1.406525 1086.00 1067.73 32.95
12487 66.4180 1.406432 1085.00 1068.40 32.94
12488 66.4230 1.406338 1110.00 1069.00 33.32
12489 66.4280 1.406244 1117.00 1069.54 33.42
12490 66.4330 1.406150 1092.00 1070.03 33.05
12491 66.4380 1.406057 1060.00 1070.50 32.56
12492 66.4430 1.405963 1061.00 1070.94 32.57
12493 66.4480 1.405869 1066.00 1071.37 32.65
12494 66.4530 1.405776 1084.00 1071.80 32.92
12495 66.4580 1.405682 1075.00 1072.23 32.79
12496 66.4630 1.405588 1063.00 1072.66 32.60
12497 66.4680 1.405495 1059.00 1073.10 32.54
12498 66.4730 1.405401 1046.00 1073.56 32.34
12499 66.4780 1.405308 1084.00 1074.00 32.92
12500 66.4830 1.405214 1115.00 1074.38 33.39
12501 66.4880 1.405121 1110.00 1074.79 33.32
12502 66.4930 1.405027 1105.00 1075.15 33.24
12503 66.4980 1.404934 1095.00 1075.47 33.09
12504 66.5030 1.404840 1078.00 1075.72 32.83
12505 66.5080 1.404746 1062.00 1075.87 32.59
12506 66.5130 1.404653 1013.00 1075.94 31.83
12507 66.5180 1.404560 1000.00 1075.89 31.62
12508 66.5230 1.404466 1030.00 1075.70 32.09
12509 66.5280 1.404373 1072.00 1075.36 32.74
12510 66.5330 1.404279 1084.00 1074.86 32.92
12511 66.5380 1.404186 1065.00 1074.17 32.63
12512 66.5430 1.404093 1083.00 1073.29 32.91
12513 66.5480 1.403999 1120.00 1072.20 33.47
12514 66.5530 1.403906 1110.00 1070.91 33.32
12515 66.5580 1.403813 1073.00 1069.40 32.76
12516 66.5630 1.403719 1060.00 1067.67 32.56
12517 66.5680 1.403626 1078.00 1065.72 32.83
12518 66.5730 1.403533 1081.00 1063.56 32.88
12519 66.5780 1.403439 1092.00 1061.09 33.05
12520 66.5830 1.403346 1102.00 1058.52 33.20
12521 66.5880 1.403253 1070.00 1055.76 32.71
12522 66.5930 1.403160 1038.00 1052.82 32.22
12523 66.5980 1.403066 1050.00 1049.72 32.40
12524 66.6030 1.402973 1088.00 1046.46 32.98
12525 66.6080 1.402880 1102.00 1043.07 33.20
12526 66.6130 1.402787 1110.00 1039.55 33.32
12527 66.6180 1.402694 1123.00 1035.91 33.51
12528 66.6230 1.402601 1105.00 1032.19 33.24
12529 66.6280 1.402508 1087.00 1028.39 32.97
12530 66.6330 1.402414 1095.00 1024.51 33.09
12531 66.6380 1.402321 1081.00 1020.59 32.88
12532 66.6430 1.402228 1083.00 1016.61 32.91
12533 66.6480 1.402135 1100.00 1012.59 33.17
12534 66.6530 1.402042 1068.00 1008.54 32.68
12535 66.6580 1.401949 1031.00 1004.47 32.11
12536 66.6630 1.401856 1012.00 1000.37 31.81
12537 66.6680 1.401763 1028.00 996.27 32.06
12538 66.6730 1.401670 1063.00 992.15 32.60
12539 66.6780 1.401577 1056.00 988.03 32.50
12540 66.6830 1.401484 1043.00 983.93 32.30
12541 66.6880 1.401391 1040.00 979.82 32.25
12542 66.6930 1.401298 1018.00 975.73 31.91
12543 66.6980 1.401205 988.00 971.68 31.43
12544 66.7030 1.401112 1007.00 967.64 31.73
12545 66.7080 1.401020 1021.00 963.66 31.95
12546 66.7130 1.400927 994.00 959.72 31.53
12547 66.7180 1.400834 989.00 955.85 31.45
12548 66.7230 1.400741 996.00 952.06 31.56
12549 66.7280 1.400648 969.00 948.34 31.13
12550 66.7330 1.400555 925.00 944.72 30.41
12551 66.7380 1.400463 936.00 941.21 30.59
12552 66.7430 1.400370 953.00 937.81 30.87
12553 66.7480 1.400277 944.00 934.55 30.72
12554 66.7530 1.400185 950.00 931.43 30.82
12555 66.7580 1.400092 969.00 928.45 31.13
12556 66.7630 1.399999 968.00 925.64 31.11
12557 66.7680 1.399906 967.00 922.98 31.10
12558 66.7730 1.399814 976.00 920.50 31.24
12559 66.7780 1.399721 956.00 918.19 30.92
12560 66.7830 1.399628 941.00 916.05 30.68
12561 66.7880 1.399536 918.00 914.09 30.30
12562 66.7930 1.399443 894.00 912.31 29.90
12563 66.7980 1.399351 897.00 910.70 29.95
12564 66.8030 1.399258 902.00 909.27 30.03
12565 66.8080 1.399165 939.00 908.01 30.64
12566 66.8130 1.399073 967.00 906.94 31.10
12567 66.8180 1.398980 948.00 905.99 30.79
12568 66.8230 1.398888 947.00 905.18 30.77
12569 66.8280 1.398795 971.00 904.52 31.16
12570 66.8330 1.398703 958.00 903.98 30.95
12571 66.8380 1.398610 885.00 903.55 29.75
12572 66.8430 1.398517 855.00 903.23 29.24
12573 66.8480 1.398425 862.00 902.99 29.36
12574 66.8530 1.398333 857.00 902.83 29.27
12575 66.8580 1.398240 860.00 902.72 29.33
12576 66.8630 1.398148 863.00 902.65 29.38
12577 66.8680 1.398055 860.00 902.61 29.33
12578 66.8730 1.397963 882.00 902.57 29.70
12579 66.8780 1.397871 903.00 902.53 30.05
12580 66.8830 1.397778 941.00 902.45 30.68
12581 66.8880 1.397686 956.00 902.34 30.92
12582 66.8930 1.397594 932.00 902.17 30.53
12583 66.8980 1.397501 889.00 901.93 29.82
12584 66.9030 1.397409 867.00 901.61 29.44
12585 66.9080 1.397317 875.00 901.20 29.58
12586 66.9130 1.397224 894.00 900.68 29.90
12587 66.9180 1.397132 889.00 900.12 29.82
12588 66.9230 1.397040 873.00 899.41 29.55
12589 66.9280 1.396948 874.00 898.57 29.56
12590 66.9330 1.396856 906.00 897.61 30.10
12591 66.9380 1.396763 918.00 896.54 30.30
12592 66.9430 1.396671 923.00 895.37 30.38
12593 66.9480 1.396579 915.00 894.10 30.25
12594 66.9530 1.396487 908.00 892.74 30.13
12595 66.9580 1.396395 907.00 891.31 30.12
12596 66.9630 1.396303 906.00 889.80 30.10
12597 66.9680 1.396210 889.00 888.24 29.82
12598 66.9730 1.396118 853.00 886.64 29.21
12599 66.9780 1.396026 855.00 885.01 29.24
12600 66.9830 1.395934 868.00 883.35 29.46
12601 66.9880 1.395842 852.00 881.71 29.19
12602 66.9930 1.395750 841.00 880.08 29.00
12603 66.9980 1.395658 849.00 878.47 29.14
12604 67.0030 1.395566 870.00 876.91 29.50
12605 67.0080 1.395474 873.00 875.39 29.55
12606 67.0130 1.395382 861.00 873.94 29.34
12607 67.0180 1.395290 856.00 872.57 29.26
12608 67.0230 1.395198 855.00 871.27 29.24
12609 67.0280 1.395106 873.00 870.04 29.55
12610 67.0330 1.395015 895.00 868.94 29.92
12611 67.0380 1.394922 902.00 867.94 30.03
12612 67.0430 1.394831 887.00 867.06 29.78
12613 67.0480 1.394739 857.00 866.30 29.27
12614 67.0530 1.394647 830.00 865.66 28.81
12615 67.0580 1.394555 829.00 865.16 28.79
12616 67.0630 1.394463 842.00 864.78 29.02
12617 67.0680 1.394372 847.00 864.54 29.10
12618 67.0730 1.394280 870.00 864.44 29.50
12619 67.0780 1.394188 868.00 864.48 29.46
12620 67.0830 1.394096 858.00 864.67 29.29
12621 67.0880 1.394004 864.00 865.00 29.39
12622 67.0930 1.393913 862.00 865.47 29.36
12623 67.0980 1.393821 863.00 866.08 29.38
12624 67.1030 1.393729 849.00 866.85 29.14
12625 67.1080 1.393637 838.00 867.76 28.95
12626 67.1130 1.393546 839.00 868.82 28.97
12627 67.1180 1.393454 840.00 870.02 28.98
12628 67.1230 1.393362 853.00 871.35 29.21
12629 67.1280 1.393271 874.00 872.72 29.56
12630 67.1330 1.393179 838.00 874.33 28.95
12631 67.1380 1.393088 814.00 876.06 28.53
12632 67.1430 1.392996 804.00 877.91 28.35
12633 67.1480 1.392904 813.00 879.87 28.51
12634 67.1530 1.392813 850.00 881.95 29.15
12635 67.1580 1.392721 849.00 884.12 29.14
12636 67.1630 1.392630 831.00 886.39 28.83
12637 67.1680 1.392538 823.00 888.75 28.69
12638 67.1730 1.392447 836.00 891.18 28.91
12639 67.1780 1.392355 869.00 893.67 29.48
12640 67.1830 1.392264 850.00 896.22 29.15
12641 67.1880 1.392172 850.00 898.81 29.15
12642 67.1930 1.392081 870.00 901.44 29.50
12643 67.1980 1.391990 857.00 904.09 29.27
12644 67.2030 1.391898 857.00 906.76 29.27
12645 67.2080 1.391807 877.00 909.42 29.61
12646 67.2130 1.391716 877.00 912.09 29.61
12647 67.2180 1.391624 886.00 914.74 29.77
12648 67.2230 1.391533 905.00 917.37 30.08
12649 67.2280 1.391441 916.00 919.97 30.27
12650 67.2330 1.391350 907.00 922.53 30.12
12651 67.2380 1.391259 913.00 925.06 30.22
12652 67.2430 1.391168 919.00 927.54 30.32
12653 67.2480 1.391076 943.00 929.97 30.71
12654 67.2530 1.390985 953.00 932.35 30.87
12655 67.2580 1.390893 950.00 934.68 30.82
12656 67.2630 1.390802 937.00 936.95 30.61
12657 67.2680 1.390711 910.00 939.17 30.17
12658 67.2730 1.390620 913.00 941.33 30.22
12659 67.2780 1.390529 934.00 943.43 30.56
12660 67.2830 1.390438 943.00 945.47 30.71
12661 67.2880 1.390346 934.00 947.44 30.56
12662 67.2930 1.390255 955.00 949.34 30.90
12663 67.2980 1.390164 939.00 951.19 30.64
12664 67.3030 1.390073 930.00 952.95 30.50
12665 67.3080 1.389982 922.00 954.63 30.36
12666 67.3130 1.389891 933.00 956.24 30.55
12667 67.3180 1.389800 953.00 957.75 30.87
12668 67.3230 1.389709 969.00 959.17 31.13
12669 67.3280 1.389618 951.00 960.49 30.84
12670 67.3330 1.389527 914.00 961.70 30.23
12671 67.3380 1.389436 920.00 962.81 30.33
12672 67.3430 1.389344 949.00 963.81 30.81
12673 67.3480 1.389253 978.00 964.69 31.27
12674 67.3530 1.389163 966.00 965.47 31.08
12675 67.3580 1.389072 984.00 966.15 31.37
12676 67.3630 1.388981 1014.00 966.72 31.84
12677 67.3680 1.388890 1031.00 967.20 32.11
12678 67.3730 1.388799 1022.00 967.61 31.97
12679 67.3780 1.388708 1012.00 967.94 31.81
12680 67.3830 1.388617 992.00 968.22 31.50
12681 67.3880 1.388526 995.00 968.47 31.54
12682 67.3930 1.388435 1012.00 968.67 31.81
12683 67.3980 1.388345 987.00 968.89 31.42
12684 67.4030 1.388254 993.00 969.07 31.51
12685 67.4080 1.388163 976.00 969.28 31.24
12686 67.4130 1.388072 983.00 969.51 31.35
12687 67.4180 1.387981 975.00 969.77 31.23
12688 67.4230 1.387890 1000.00 970.08 31.62
12689 67.4280 1.387800 932.00 970.43 30.53
12690 67.4330 1.387709 924.00 970.83 30.40
12691 67.4380 1.387618 944.00 971.28 30.72
12692 67.4430 1.387527 960.00 971.77 30.98
12693 67.4480 1.387437 926.00 972.31 30.43
12694 67.4530 1.387346 913.00 972.88 30.22
12695 67.4580 1.387256 922.00 973.47 30.36
12696 67.4630 1.387165 932.00 974.07 30.53
12697 67.4680 1.387074 937.00 974.66 30.61
12698 67.4730 1.386984 936.00 975.22 30.59
12699 67.4780 1.386893 940.00 975.75 30.66
12700 67.4830 1.386802 948.00 976.21 30.79
12701 67.4880 1.386712 977.00 976.62 31.26
12702 67.4930 1.386621 967.00 976.89 31.10
12703 67.4980 1.386531 966.00 977.03 31.08
12704 67.5030 1.386440 964.00 977.03 31.05
12705 67.5080 1.386350 975.00 976.85 31.23
12706 67.5130 1.386259 970.00 976.50 31.14
12707 67.5180 1.386169 966.00 975.96 31.08
12708 67.5230 1.386078 971.00 975.23 31.16
12709 67.5280 1.385988 1001.00 974.28 31.64
12710 67.5330 1.385897 991.00 973.16 31.48
12711 67.5380 1.385807 956.00 971.80 30.92
12712 67.5430 1.385716 1012.00 970.25 31.81
12713 67.5480 1.385626 1066.00 968.51 32.65
12714 67.5530 1.385535 1045.00 966.61 32.33
12715 67.5580 1.385445 1052.00 964.57 32.43
12716 67.5630 1.385355 1062.00 962.40 32.59
12717 67.5680 1.385264 1037.00 960.13 32.20
12718 67.5730 1.385174 1018.00 957.78 31.91
12719 67.5780 1.385084 997.00 955.38 31.58
12720 67.5830 1.384993 975.00 952.95 31.23
12721 67.5880 1.384903 988.00 950.55 31.43
12722 67.5930 1.384813 1006.00 948.16 31.72
12723 67.5980 1.384723 975.00 945.82 31.23
12724 67.6030 1.384632 947.00 943.55 30.77
12725 67.6080 1.384542 932.00 941.37 30.53
12726 67.6130 1.384452 946.00 939.30 30.76
12727 67.6180 1.384362 950.00 937.37 30.82
12728 67.6230 1.384272 941.00 935.51 30.68
12729 67.6280 1.384181 943.00 933.86 30.71
12730 67.6330 1.384091 965.00 932.40 31.06
12731 67.6380 1.384001 966.00 931.10 31.08
12732 67.6430 1.383911 948.00 929.99 30.79
12733 67.6480 1.383821 961.00 929.08 31.00
12734 67.6530 1.383731 964.00 928.35 31.05
12735 67.6580 1.383641 930.00 927.82 30.50
12736 67.6630 1.383551 906.00 927.47 30.10
12737 67.6680 1.383460 899.00 927.35 29.98
12738 67.6730 1.383370 841.00 927.41 29.00
12739 67.6780 1.383280 841.00 927.65 29.00
12740 67.6830 1.383190 905.00 928.08 30.08
12741 67.6880 1.383100 928.00 928.70 30.46
12742 67.6930 1.383010 903.00 929.48 30.05
12743 67.6980 1.382920 886.00 930.42 29.77
12744 67.7030 1.382830 894.00 931.53 29.90
12745 67.7080 1.382740 891.00 932.77 29.85
12746 67.7130 1.382650 862.00 934.15 29.36
12747 67.7180 1.382561 875.00 935.64 29.58
12748 67.7230 1.382471 935.00 937.25 30.58
12749 67.7280 1.382381 934.00 938.95 30.56
12750 67.7330 1.382291 929.00 940.73 30.48
12751 67.7380 1.382201 914.00 942.59 30.23
12752 67.7430 1.382111 938.00 944.51 30.63
12753 67.7480 1.382021 930.00 946.47 30.50
12754 67.7530 1.381932 937.00 948.47 30.61
12755 67.7580 1.381842 927.00 950.49 30.45
12756 67.7630 1.381752 937.00 952.52 30.61
12757 67.7680 1.381662 965.00 954.55 31.06
12758 67.7730 1.381572 996.00 956.57 31.56
12759 67.7780 1.381483 985.00 958.57 31.38
12760 67.7830 1.381393 929.00 960.53 30.48
12761 67.7880 1.381303 920.00 962.45 30.33
12762 67.7930 1.381214 932.00 964.32 30.53
12763 67.7980 1.381124 945.00 966.12 30.74
12764 67.8030 1.381034 930.00 967.84 30.50
12765 67.8080 1.380944 936.00 969.46 30.59
12766 67.8130 1.380855 949.00 970.99 30.81
12767 67.8180 1.380765 933.00 972.41 30.55
12768 67.8230 1.380676 899.00 973.69 29.98
12769 67.8280 1.380586 906.00 974.85 30.10
12770 67.8330 1.380496 918.00 975.85 30.30
12771 67.8380 1.380407 963.00 976.70 31.03
12772 67.8430 1.380317 991.00 977.38 31.48
12773 67.8480 1.380228 1006.00 977.87 31.72
12774 67.8530 1.380138 999.00 978.18 31.61
12775 67.8580 1.380049 988.00 978.29 31.43
12776 67.8630 1.379959 976.00 978.20 31.24
12777 67.8680 1.379870 1018.00 977.89 31.91
12778 67.8730 1.379780 1011.00 977.36 31.80
12779 67.8780 1.379691 1002.00 976.60 31.65
12780 67.8830 1.379601 1006.00 975.61 31.72
12781 67.8880 1.379512 1000.00 974.40 31.62
12782 67.8930 1.379422 982.00 972.95 31.34
12783 67.8980 1.379333 943.00 971.27 30.71
12784 67.9030 1.379244 945.00 969.37 30.74
12785 67.9080 1.379154 986.00 967.29 31.40
12786 67.9130 1.379065 987.00 964.96 31.42
12787 67.9180 1.378975 953.00 962.43 30.87
12788 67.9230 1.378886 946.00 959.71 30.76
12789 67.9280 1.378797 955.00 956.82 30.90
12790 67.9330 1.378708 963.00 953.78 31.03
12791 67.9380 1.378618 980.00 950.60 31.31
12792 67.9430 1.378529 990.00 947.29 31.46
12793 67.9480 1.378440 1019.00 943.89 31.92
12794 67.9530 1.378350 1020.00 940.39 31.94
12795 67.9580 1.378261 1036.00 936.83 32.19
12796 67.9630 1.378172 1008.00 933.23 31.75
12797 67.9680 1.378083 965.00 929.62 31.06
12798 67.9730 1.377993 965.00 925.99 31.06
12799 67.9780 1.377904 963.00 922.38 31.03
12800 67.9830 1.377815 930.00 918.79 30.50
12801 67.9880 1.377726 926.00 915.24 30.43
12802 67.9930 1.377637 919.00 911.74 30.32
12803 67.9980 1.377548 936.00 908.33 30.59
12804 68.0030 1.377459 963.00 904.99 31.03
12805 68.0080 1.377370 960.00 901.74 30.98
12806 68.0130 1.377280 956.00 898.61 30.92
12807 68.0180 1.377192 929.00 895.58 30.48
12808 68.0230 1.377102 944.00 892.68 30.72
12809 68.0280 1.377013 949.00 889.91 30.81
12810 68.0330 1.376924 952.00 887.28 30.85
12811 68.0380 1.376835 950.00 884.79 30.82
12812 68.0430 1.376746 927.00 882.46 30.45
12813 68.0480 1.376657 896.00 880.27 29.93
12814 68.0530 1.376568 890.00 878.24 29.83
12815 68.0580 1.376479 864.00 876.38 29.39
12816 68.0630 1.376390 858.00 874.68 29.29
12817 68.0680 1.376302 855.00 873.15 29.24
12818 68.0730 1.376213 877.00 871.79 29.61
12819 68.0780 1.376124 870.00 870.60 29.50
12820 68.0830 1.376035 887.00 869.58 29.78
12821 68.0880 1.375946 888.00 868.73 29.80
12822 68.0930 1.375857 885.00 868.06 29.75
12823 68.0980 1.375768 896.00 867.59 29.93
12824 68.1030 1.375679 888.00 867.26 29.80
12825 68.1080 1.375591 881.00 867.11 29.68
12826 68.1130 1.375502 883.00 867.13 29.72
12827 68.1180 1.375413 887.00 867.32 29.78
12828 68.1230 1.375324 892.00 867.68 29.87
12829 68.1280 1.375236 889.00 868.22 29.82
12830 68.1330 1.375147 892.00 868.91 29.87
12831 68.1380 1.375058 880.00 869.77 29.66
12832 68.1430 1.374969 887.00 870.77 29.78
12833 68.1480 1.374881 879.00 871.94 29.65
12834 68.1530 1.374792 888.00 873.27 29.80
12835 68.1580 1.374703 919.00 874.74 30.32
12836 68.1630 1.374615 888.00 876.37 29.80
12837 68.1680 1.374526 859.00 878.12 29.31
12838 68.1730 1.374438 872.00 880.01 29.53
12839 68.1780 1.374349 878.00 882.03 29.63
12840 68.1830 1.374260 901.00 884.16 30.02
12841 68.1880 1.374171 886.00 886.41 29.77
12842 68.1930 1.374083 879.00 888.77 29.65
12843 68.1980 1.373994 888.00 891.23 29.80
12844 68.2030 1.373906 877.00 893.78 29.61
12845 68.2080 1.373817 868.00 896.38 29.46
12846 68.2130 1.373729 896.00 899.08 29.93
12847 68.2180 1.373640 905.00 901.84 30.08
12848 68.2230 1.373552 892.00 904.65 29.87
12849 68.2280 1.373464 872.00 907.52 29.53
12850 68.2330 1.373375 892.00 910.42 29.87
12851 68.2380 1.373286 922.00 913.35 30.36
12852 68.2430 1.373198 943.00 916.31 30.71
12853 68.2480 1.373110 912.00 919.28 30.20
12854 68.2530 1.373021 910.00 922.25 30.17
12855 68.2580 1.372933 899.00 925.23 29.98
12856 68.2630 1.372844 912.00 928.20 30.20
12857 68.2680 1.372756 906.00 931.16 30.10
12858 68.2730 1.372668 887.00 934.09 29.78
12859 68.2780 1.372579 884.00 936.98 29.73
12860 68.2830 1.372491 865.00 939.85 29.41
12861 68.2880 1.372403 896.00 942.69 29.93
12862 68.2930 1.372315 916.00 945.47 30.27
12863 68.2980 1.372226 920.00 948.15 30.33
12864 68.3030 1.372138 921.00 950.80 30.35
12865 68.3080 1.372050 941.00 953.36 30.68
12866 68.3130 1.371961 948.00 955.82 30.79
12867 68.3180 1.371873 941.00 958.21 30.68
12868 68.3230 1.371785 946.00 960.45 30.76
12869 68.3280 1.371697 970.00 962.56 31.14
12870 68.3330 1.371609 990.00 964.51 31.46
12871 68.3380 1.371521 975.00 966.30 31.23
12872 68.3430 1.371432 957.00 967.91 30.94
12873 68.3480 1.371344 959.00 969.32 30.97
12874 68.3530 1.371256 976.00 970.59 31.24
12875 68.3580 1.371168 969.00 971.59 31.13
12876 68.3630 1.371080 984.00 972.37 31.37
12877 68.3680 1.370992 971.00 972.92 31.16
12878 68.3730 1.370904 968.00 973.23 31.11
12879 68.3780 1.370816 1019.00 973.31 31.92
12880 68.3830 1.370728 1032.00 973.16 32.12
12881 68.3880 1.370640 1020.00 972.78 31.94
12882 68.3930 1.370552 999.00 972.18 31.61
12883 68.3980 1.370464 1001.00 971.38 31.64
12884 68.4030 1.370376 1020.00 970.39 31.94
12885 68.4080 1.370288 1013.00 969.21 31.83
12886 68.4130 1.370200 1001.00 967.89 31.64
12887 68.4180 1.370112 974.00 966.42 31.21
12888 68.4230 1.370024 960.00 964.84 30.98
12889 68.4280 1.369936 949.00 963.17 30.81
12890 68.4330 1.369848 955.00 961.44 30.90
12891 68.4380 1.369760 969.00 959.65 31.13
12892 68.4430 1.369672 998.00 957.85 31.59
12893 68.4480 1.369584 1024.00 956.05 32.00
12894 68.4530 1.369497 1000.00 954.25 31.62
12895 68.4580 1.369409 954.00 952.50 30.89
12896 68.4630 1.369321 942.00 950.80 30.69
12897 68.4680 1.369233 954.00 949.17 30.89
12898 68.4730 1.369145 942.00 947.62 30.69
12899 68.4780 1.369058 937.00 946.16 30.61
12900 68.4830 1.368970 931.00 944.81 30.51
12901 68.4880 1.368882 936.00 943.57 30.59
12902 68.4930 1.368794 929.00 942.44 30.48
12903 68.4980 1.368706 926.00 941.44 30.43
12904 68.5030 1.368619 908.00 940.59 30.13
12905 68.5080 1.368531 907.00 939.83 30.12
12906 68.5130 1.368443 905.00 939.21 30.08
12907 68.5180 1.368356 897.00 938.71 29.95
12908 68.5230 1.368268 933.00 938.33 30.55
12909 68.5280 1.368181 954.00 938.07 30.89
12910 68.5330 1.368093 934.00 937.93 30.56
12911 68.5380 1.368005 911.00 937.90 30.18
12912 68.5430 1.367918 927.00 937.95 30.45
12913 68.5480 1.367830 959.00 938.11 30.97
12914 68.5530 1.367742 967.00 938.34 31.10
12915 68.5580 1.367655 988.00 938.66 31.43
12916 68.5630 1.367567 962.00 939.04 31.02
12917 68.5680 1.367480 942.00 939.49 30.69
12918 68.5730 1.367392 940.00 940.00 30.66
12919 68.5780 1.367305 937.00 940.53 30.61
12920 68.5830 1.367217 921.00 941.12 30.35
12921 68.5880 1.367130 921.00 941.75 30.35
12922 68.5930 1.367042 928.00 942.41 30.46
12923 68.5980 1.366955 924.00 943.09 30.40
12924 68.6030 1.366868 906.00 943.80 30.10
12925 68.6080 1.366780 919.00 944.53 30.32
12926 68.6130 1.366693 905.00 945.27 30.08
12927 68.6180 1.366605 914.00 946.03 30.23
12928 68.6230 1.366518 923.00 946.81 30.38
12929 68.6280 1.366431 921.00 947.62 30.35
12930 68.6330 1.366343 903.00 948.45 30.05
12931 68.6380 1.366256 900.00 949.32 30.00
12932 68.6430 1.366169 919.00 950.22 30.32
12933 68.6480 1.366081 962.00 951.16 31.02
12934 68.6530 1.365994 986.00 952.14 31.40
12935 68.6580 1.365907 992.00 953.17 31.50
12936 68.6630 1.365819 1027.00 954.24 32.05
12937 68.6680 1.365732 1016.00 955.36 31.87
12938 68.6730 1.365645 983.00 956.53 31.35
12939 68.6780 1.365558 964.00 957.75 31.05
12940 68.6830 1.365471 967.00 959.02 31.10
12941 68.6880 1.365383 986.00 960.33 31.40
12942 68.6930 1.365296 988.00 961.69 31.43
12943 68.6980 1.365209 976.00 963.09 31.24
12944 68.7030 1.365122 969.00 964.52 31.13
12945 68.7080 1.365035 979.00 965.98 31.29
12946 68.7130 1.364948 989.00 967.46 31.45
12947 68.7180 1.364860 979.00 968.96 31.29
12948 68.7230 1.364773 962.00 970.47 31.02
12949 68.7280 1.364686 959.00 971.98 30.97
12950 68.7330 1.364599 970.00 973.50 31.14
12951 68.7380 1.364512 988.00 975.00 31.43
12952 68.7430 1.364425 1009.00 976.51 31.76
12953 68.7480 1.364338 1020.00 978.00 31.94
12954 68.7530 1.364251 998.00 979.49 31.59
12955 68.7580 1.364164 990.00 980.96 31.46
12956 68.7630 1.364077 1000.00 982.42 31.62
12957 68.7680 1.363990 1032.00 983.87 32.12
12958 68.7730 1.363903 1058.00 985.30 32.53
12959 68.7780 1.363816 1031.00 986.72 32.11
12960 68.7830 1.363729 978.00 988.13 31.27
12961 68.7880 1.363642 949.00 989.51 30.81
12962 68.7930 1.363555 951.00 990.86 30.84
12963 68.7980 1.363469 971.00 992.19 31.16
12964 68.8030 1.363382 962.00 993.48 31.02
12965 68.8080 1.363295 954.00 994.72 30.89
12966 68.8130 1.363208 956.00 995.90 30.92
12967 68.8180 1.363121 971.00 997.01 31.16
12968 68.8230 1.363034 966.00 998.03 31.08
12969 68.8280 1.362947 957.00 998.95 30.94
12970 68.8330 1.362860 972.00 999.75 31.18
12971 68.8380 1.362774 1000.00 1000.41 31.62
12972 68.8430 1.362687 1030.00 1000.92 32.09
12973 68.8480 1.362600 1038.00 1001.25 32.22
12974 68.8530 1.362513 1018.00 1001.39 31.91
12975 68.8580 1.362427 1004.00 1001.32 31.69
12976 68.8630 1.362340 995.00 1001.03 31.54
12977 68.8680 1.362253 1013.00 1000.50 31.83
12978 68.8730 1.362167 1027.00 999.74 32.05
12979 68.8780 1.362080 1032.00 998.72 32.12
12980 68.8830 1.361993 1044.00 997.46 32.31
12981 68.8880 1.361907 1027.00 995.95 32.05
12982 68.8930 1.361820 980.00 994.19 31.31
12983 68.8980 1.361733 982.00 992.13 31.34
12984 68.9030 1.361647 1022.00 989.91 31.97
12985 68.9080 1.361560 1035.00 987.48 32.17
12986 68.9130 1.361474 1029.00 984.86 32.08
12987 68.9180 1.361387 1018.00 982.07 31.91
12988 68.9230 1.361301 1021.00 979.12 31.95
12989 68.9280 1.361214 1035.00 976.06 32.17
12990 68.9330 1.361127 1040.00 972.90 32.25
12991 68.9380 1.361041 1015.00 969.66 31.86
12992 68.9430 1.360954 1027.00 966.38 32.05
12993 68.9480 1.360868 1019.00 963.09 31.92
12994 68.9530 1.360781 981.00 959.80 31.32
12995 68.9580 1.360695 977.00 956.54 31.26
12996 68.9630 1.360608 985.00 953.34 31.38
12997 68.9680 1.360522 983.00 950.22 31.35
12998 68.9730 1.360436 963.00 947.21 31.03
12999 68.9780 1.360349 941.00 944.31 30.68
13000 68.9830 1.360263 945.00 941.57 30.74
13001 68.9880 1.360176 973.00 938.97 31.19
13002 68.9930 1.360090 977.00 936.56 31.26
13003 68.9980 1.360004 970.00 934.34 31.14
13004 69.0030 1.359918 958.00 932.32 30.95
13005 69.0080 1.359831 950.00 930.52 30.82
13006 69.0130 1.359745 941.00 928.96 30.68
13007 69.0180 1.359658 950.00 927.63 30.82
13008 69.0230 1.359572 969.00 926.55 31.13
13009 69.0280 1.359486 958.00 925.72 30.95
13010 69.0330 1.359400 946.00 925.16 30.76
13011 69.0380 1.359313 947.00 924.87 30.77
13012 69.0430 1.359227 932.00 924.86 30.53
13013 69.0480 1.359141 925.00 925.13 30.41
13014 69.0530 1.359055 941.00 925.69 30.68
13015 69.0580 1.358968 945.00 926.55 30.74
13016 69.0630 1.358882 922.00 927.70 30.36
13017 69.0680 1.358796 881.00 929.15 29.68
13018 69.0730 1.358710 867.00 930.90 29.44
13019 69.0780 1.358624 870.00 932.95 29.50
13020 69.0830 1.358538 870.00 935.31 29.50
13021 69.0880 1.358452 860.00 937.97 29.33
13022 69.0930 1.358366 874.00 940.94 29.56
13023 69.0980 1.358279 896.00 944.20 29.93
13024 69.1030 1.358194 877.00 947.77 29.61
13025 69.1080 1.358107 869.00 951.61 29.48
13026 69.1130 1.358021 895.00 955.76 29.92
13027 69.1180 1.357935 925.00 960.20 30.41
13028 69.1230 1.357849 950.00 964.91 30.82
13029 69.1280 1.357763 947.00 969.89 30.77
13030 69.1330 1.357677 930.00 975.14 30.50
13031 69.1380 1.357591 923.00 980.62 30.38
13032 69.1430 1.357505 925.00 986.35 30.41
13033 69.1480 1.357419 917.00 992.29 30.28
13034 69.1530 1.357334 890.00 998.43 29.83
13035 69.1580 1.357248 882.00 1004.76 29.70
13036 69.1630 1.357162 889.00 1011.26 29.82
13037 69.1680 1.357076 930.00 1017.88 30.50
13038 69.1730 1.356990 955.00 1024.65 30.90
13039 69.1780 1.356904 946.00 1031.50 30.76
13040 69.1830 1.356818 928.00 1038.42 30.46
13041 69.1880 1.356732 950.00 1045.39 30.82
13042 69.1930 1.356646 988.00 1052.37 31.43
13043 69.1980 1.356561 1002.00 1059.34 31.65
13044 69.2030 1.356475 987.00 1066.28 31.42
13045 69.2080 1.356389 989.00 1073.14 31.45
13046 69.2130 1.356303 995.00 1079.92 31.54
13047 69.2180 1.356218 1006.00 1086.57 31.72
13048 69.2230 1.356132 989.00 1093.07 31.45
13049 69.2280 1.356046 978.00 1099.42 31.27
13050 69.2330 1.355960 997.00 1105.55 31.58
13051 69.2380 1.355875 1018.00 1111.47 31.91
13052 69.2430 1.355789 1047.00 1117.16 32.36
13053 69.2480 1.355703 1060.00 1122.56 32.56
13054 69.2530 1.355618 1081.00 1127.70 32.88
13055 69.2580 1.355532 1093.00 1132.52 33.06
13056 69.2630 1.355446 1081.00 1137.02 32.88
13057 69.2680 1.355361 1069.00 1141.17 32.70
13058 69.2730 1.355275 1080.00 1144.94 32.86
13059 69.2780 1.355190 1091.00 1148.32 33.03
13060 69.2830 1.355104 1095.00 1151.29 33.09
13061 69.2880 1.355018 1077.00 1153.82 32.82
13062 69.2930 1.354933 1063.00 1155.90 32.60
13063 69.2980 1.354847 1049.00 1157.51 32.39
13064 69.3030 1.354762 1062.00 1158.62 32.59
13065 69.3080 1.354676 1092.00 1159.23 33.05
13066 69.3130 1.354591 1117.00 1159.32 33.42
13067 69.3180 1.354505 1145.00 1158.89 33.84
13068 69.3230 1.354420 1182.00 1157.93 34.38
13069 69.3280 1.354334 1222.00 1156.44 34.96
13070 69.3330 1.354249 1247.00 1154.42 35.31
13071 69.3380 1.354163 1241.00 1151.88 35.23
13072 69.3430 1.354078 1236.00 1148.84 35.16
13073 69.3480 1.353993 1226.00 1145.30 35.01
13074 69.3530 1.353907 1209.00 1141.32 34.77
13075 69.3580 1.353822 1218.00 1136.89 34.90
13076 69.3630 1.353737 1214.00 1132.04 34.84
13077 69.3680 1.353651 1206.00 1126.81 34.73
13078 69.3730 1.353566 1222.00 1121.25 34.96
13079 69.3780 1.353480 1246.00 1115.38 35.30
13080 69.3830 1.353395 1242.00 1109.23 35.24
13081 69.3880 1.353310 1205.00 1102.86 34.71
13082 69.3930 1.353225 1173.00 1096.29 34.25
13083 69.3980 1.353139 1153.00 1089.56 33.96
13084 69.4030 1.353054 1140.00 1082.71 33.76
13085 69.4080 1.352969 1156.00 1075.77 34.00
13086 69.4130 1.352883 1173.00 1068.77 34.25
13087 69.4180 1.352798 1170.00 1061.75 34.21
13088 69.4230 1.352713 1182.00 1054.74 34.38
13089 69.4280 1.352628 1193.00 1047.76 34.54
13090 69.4330 1.352543 1184.00 1040.83 34.41
13091 69.4380 1.352458 1153.00 1034.00 33.96
13092 69.4430 1.352372 1129.00 1027.27 33.60
13093 69.4480 1.352287 1108.00 1020.67 33.29
13094 69.4530 1.352202 1076.00 1014.23 32.80
13095 69.4580 1.352117 1068.00 1007.95 32.68
13096 69.4630 1.352032 1072.00 1001.86 32.74
13097 69.4680 1.351947 1060.00 995.99 32.56
13098 69.4730 1.351862 1040.00 990.33 32.25
13099 69.4780 1.351777 1001.00 984.89 31.64
13100 69.4830 1.351691 971.00 979.70 31.16
13101 69.4880 1.351606 944.00 974.76 30.72
13102 69.4930 1.351522 960.00 970.07 30.98
13103 69.4980 1.351436 1008.00 965.65 31.75
13104 69.5030 1.351351 1006.00 961.50 31.72
13105 69.5080 1.351267 961.00 957.62 31.00
13106 69.5130 1.351181 929.00 954.01 30.48
13107 69.5180 1.351097 918.00 950.68 30.30
13108 69.5230 1.351012 928.00 947.62 30.46
13109 69.5280 1.350927 930.00 944.86 30.50
13110 69.5330 1.350842 928.00 942.34 30.46
13111 69.5380 1.350757 943.00 940.10 30.71
13112 69.5430 1.350672 940.00 938.11 30.66
13113 69.5480 1.350587 928.00 936.39 30.46
13114 69.5530 1.350502 912.00 934.92 30.20
13115 69.5580 1.350417 902.00 933.69 30.03
13116 69.5630 1.350332 893.00 932.70 29.88
13117 69.5680 1.350248 875.00 931.95 29.58
13118 69.5730 1.350163 881.00 931.41 29.68
13119 69.5780 1.350078 903.00 931.10 30.05
13120 69.5830 1.349993 909.00 930.98 30.15
13121 69.5880 1.349908 928.00 931.06 30.46
13122 69.5930 1.349824 936.00 931.32 30.59
13123 69.5980 1.349739 944.00 931.75 30.72
13124 69.6030 1.349654 957.00 932.34 30.94
13125 69.6080 1.349570 997.00 933.08 31.58
13126 69.6130 1.349485 982.00 933.95 31.34
13127 69.6180 1.349400 959.00 934.92 30.97
13128 69.6230 1.349315 915.00 936.01 30.25
13129 69.6280 1.349231 915.00 937.18 30.25
13130 69.6330 1.349146 917.00 938.43 30.28
13131 69.6380 1.349061 910.00 939.74 30.17
13132 69.6430 1.348977 922.00 941.10 30.36
13133 69.6480 1.348892 934.00 942.48 30.56
13134 69.6530 1.348808 919.00 943.88 30.32
13135 69.6580 1.348723 908.00 945.28 30.13
13136 69.6630 1.348638 936.00 946.68 30.59
13137 69.6680 1.348554 946.00 948.06 30.76
13138 69.6730 1.348469 944.00 949.42 30.72
13139 69.6780 1.348385 933.00 950.75 30.55
13140 69.6830 1.348300 913.00 952.03 30.22
13141 69.6880 1.348216 924.00 953.28 30.40
13142 69.6930 1.348131 900.00 954.48 30.00
13143 69.6980 1.348047 925.00 955.63 30.41
13144 69.7030 1.347962 995.00 956.73 31.54
13145 69.7080 1.347878 989.00 957.78 31.45
13146 69.7130 1.347794 963.00 958.79 31.03
13147 69.7180 1.347709 941.00 959.74 30.68
13148 69.7230 1.347625 970.00 960.65 31.14
13149 69.7280 1.347540 935.00 961.51 30.58
13150 69.7330 1.347456 917.00 962.32 30.28
13151 69.7380 1.347371 971.00 963.09 31.16
13152 69.7430 1.347287 1002.00 963.82 31.65
13153 69.7480 1.347203 1028.00 964.49 32.06
13154 69.7530 1.347118 1033.00 965.12 32.14
13155 69.7580 1.347034 1014.00 965.70 31.84
13156 69.7630 1.346950 963.00 966.22 31.03
13157 69.7680 1.346866 963.00 966.69 31.03
13158 69.7730 1.346781 934.00 967.10 30.56
13159 69.7780 1.346697 940.00 967.45 30.66
13160 69.7830 1.346613 953.00 967.73 30.87
13161 69.7880 1.346528 979.00 967.95 31.29
13162 69.7930 1.346444 1033.00 968.11 32.14
13163 69.7980 1.346360 974.00 968.19 31.21
13164 69.8030 1.346276 997.00 968.20 31.58
13165 69.8080 1.346192 1007.00 968.15 31.73
13166 69.8130 1.346107 967.00 968.03 31.10
13167 69.8180 1.346023 940.00 967.84 30.66
13168 69.8230 1.345939 955.00 967.60 30.90
13169 69.8280 1.345855 1030.00 967.31 32.09
13170 69.8330 1.345771 1037.00 966.97 32.20
13171 69.8380 1.345687 984.00 966.58 31.37
13172 69.8430 1.345603 961.00 966.15 31.00
13173 69.8480 1.345518 958.00 965.68 30.95
13174 69.8530 1.345434 988.00 965.16 31.43
13175 69.8580 1.345350 986.00 964.62 31.40
13176 69.8630 1.345266 976.00 964.06 31.24
13177 69.8680 1.345182 954.00 963.48 30.89
13178 69.8730 1.345098 961.00 962.82 31.00
13179 69.8780 1.345014 985.00 962.11 31.38
13180 69.8830 1.344930 986.00 961.33 31.40
13181 69.8880 1.344846 993.00 960.51 31.51
13182 69.8930 1.344762 976.00 959.64 31.24
13183 69.8980 1.344678 971.00 958.70 31.16
13184 69.9030 1.344594 993.00 957.68 31.51
13185 69.9080 1.344510 980.00 956.58 31.31
13186 69.9130 1.344427 978.00 955.41 31.27
13187 69.9180 1.344343 970.00 954.14 31.14
13188 69.9230 1.344259 985.00 952.79 31.38
13189 69.9280 1.344175 948.00 951.34 30.79
13190 69.9330 1.344091 935.00 949.81 30.58
13191 69.9380 1.344007 932.00 948.21 30.53
13192 69.9430 1.343923 960.00 946.50 30.98
13193 69.9480 1.343840 957.00 944.73 30.94
13194 69.9530 1.343756 935.00 942.89 30.58
13195 69.9580 1.343672 937.00 940.99 30.61
13196 69.9630 1.343588 949.00 939.04 30.81
13197 69.9680 1.343504 927.00 937.05 30.45
13198 69.9730 1.343421 920.00 935.04 30.33
13199 69.9780 1.343337 946.00 933.00 30.76
13200 69.9830 1.343253 986.00 930.96 31.40
13201 69.9880 1.343169 982.00 928.93 31.34
13202 69.9930 1.343086 965.00 926.91 31.06
13203 69.9980 1.343002 986.00 924.91 31.40
13204 70.0030 1.342918 982.00 922.96 31.34
13205 70.0080 1.342834 967.00 921.04 31.10
13206 70.0130 1.342751 966.00 919.18 31.08
13207 70.0180 1.342667 953.00 917.38 30.87
13208 70.0230 1.342584 926.00 915.65 30.43
13209 70.0280 1.342500 912.00 913.98 30.20
13210 70.0330 1.342416 944.00 912.39 30.72
13211 70.0380 1.342333 976.00 910.89 31.24
13212 70.0430 1.342249 964.00 909.46 31.05
13213 70.0480 1.342166 928.00 908.11 30.46
13214 70.0530 1.342082 920.00 906.84 30.33
13215 70.0580 1.341999 935.00 905.65 30.58
13216 70.0630 1.341915 938.00 904.54 30.63
13217 70.0680 1.341832 900.00 903.49 30.00
13218 70.0730 1.341748 856.00 902.52 29.26
13219 70.0780 1.341664 878.00 901.60 29.63
13220 70.0830 1.341581 922.00 900.73 30.36
13221 70.0880 1.341498 952.00 899.91 30.85
13222 70.0930 1.341414 946.00 899.12 30.76
13223 70.0980 1.341331 938.00 898.36 30.63
13224 70.1030 1.341247 928.00 897.62 30.46
13225 70.1080 1.341164 927.00 896.89 30.45
13226 70.1130 1.341080 936.00 896.15 30.59
13227 70.1180 1.340997 956.00 895.40 30.92
13228 70.1230 1.340914 958.00 894.62 30.95
13229 70.1280 1.340830 931.00 893.82 30.51
13230 70.1330 1.340747 905.00 892.98 30.08
13231 70.1380 1.340664 900.00 892.09 30.00
13232 70.1430 1.340580 898.00 891.16 29.97
13233 70.1480 1.340497 886.00 890.16 29.77
13234 70.1530 1.340414 880.00 889.09 29.66
13235 70.1580 1.340330 893.00 887.96 29.88
13236 70.1630 1.340247 906.00 886.75 30.10
13237 70.1680 1.340164 909.00 885.47 30.15
13238 70.1730 1.340081 913.00 884.11 30.22
13239 70.1780 1.339997 908.00 882.68 30.13
13240 70.1830 1.339914 910.00 881.18 30.17
13241 70.1880 1.339831 910.00 879.61 30.17
13242 70.1930 1.339748 901.00 877.98 30.02
13243 70.1980 1.339665 905.00 876.29 30.08
13244 70.2030 1.339581 912.00 874.56 30.20
13245 70.2080 1.339498 905.00 872.78 30.08
13246 70.2130 1.339415 894.00 870.96 29.90
13247 70.2180 1.339332 888.00 869.12 29.80
13248 70.2230 1.339249 891.00 867.27 29.85
13249 70.2280 1.339166 889.00 865.41 29.82
13250 70.2330 1.339083 885.00 863.55 29.75
13251 70.2380 1.339000 866.00 861.70 29.43
13252 70.2430 1.338917 841.00 859.86 29.00
13253 70.2480 1.338833 837.00 858.05 28.93
13254 70.2530 1.338750 836.00 856.22 28.91
13255 70.2580 1.338667 832.00 854.47 28.84
13256 70.2630 1.338584 834.00 852.77 28.88
13257 70.2680 1.338501 853.00 851.11 29.21
13258 70.2730 1.338418 902.00 849.50 30.03
13259 70.2780 1.338335 938.00 847.94 30.63
13260 70.2830 1.338253 940.00 846.43 30.66
13261 70.2880 1.338169 918.00 844.98 30.30
13262 70.2930 1.338087 891.00 843.59 29.85
13263 70.2980 1.338004 883.00 842.25 29.72
13264 70.3030 1.337921 899.00 840.97 29.98
13265 70.3080 1.337838 898.00 839.74 29.97
13266 70.3130 1.337755 873.00 838.57 29.55
13267 70.3180 1.337672 868.00 837.46 29.46
13268 70.3230 1.337589 877.00 836.41 29.61
13269 70.3280 1.337506 874.00 835.41 29.56
13270 70.3330 1.337424 861.00 834.44 29.34
13271 70.3380 1.337341 828.00 833.55 28.77
13272 70.3430 1.337258 820.00 832.72 28.64
13273 70.3480 1.337175 809.00 831.93 28.44
13274 70.3530 1.337092 800.00 831.20 28.28
13275 70.3580 1.337010 800.00 830.53 28.28
13276 70.3630 1.336927 805.00 829.91 28.37
13277 70.3680 1.336844 810.00 829.35 28.46
13278 70.3730 1.336761 788.00 828.85 28.07
13279 70.3780 1.336679 772.00 828.41 27.78
13280 70.3830 1.336596 773.00 828.02 27.80
13281 70.3880 1.336513 799.00 827.71 28.27
13282 70.3930 1.336431 797.00 827.45 28.23
13283 70.3980 1.336348 802.00 827.27 28.32
13284 70.4030 1.336265 848.00 827.11 29.12
13285 70.4080 1.336183 901.00 827.06 30.02
13286 70.4130 1.336100 905.00 827.08 30.08
13287 70.4180 1.336017 871.00 827.17 29.51
13288 70.4230 1.335935 843.00 827.34 29.03
13289 70.4280 1.335852 830.00 827.54 28.81
13290 70.4330 1.335770 849.00 827.85 29.14
13291 70.4380 1.335687 814.00 828.23 28.53
13292 70.4430 1.335604 794.00 828.69 28.18
13293 70.4480 1.335522 800.00 829.22 28.28
13294 70.4530 1.335439 826.00 829.82 28.74
13295 70.4580 1.335357 812.00 830.49 28.50
13296 70.4630 1.335274 817.00 831.24 28.58
13297 70.4680 1.335192 844.00 832.05 29.05
13298 70.4730 1.335109 835.00 832.92 28.90
13299 70.4780 1.335027 834.00 833.86 28.88
13300 70.4830 1.334944 834.00 834.86 28.88
13301 70.4880 1.334862 851.00 835.92 29.17
13302 70.4930 1.334780 828.00 837.04 28.77
13303 70.4980 1.334697 816.00 838.20 28.57
13304 70.5030 1.334615 808.00 839.41 28.43
13305 70.5080 1.334532 786.00 840.65 28.04
13306 70.5130 1.334450 801.00 841.93 28.30
13307 70.5180 1.334368 814.00 843.22 28.53
13308 70.5230 1.334285 858.00 844.54 29.29
13309 70.5280 1.334203 868.00 845.87 29.46
13310 70.5330 1.334121 865.00 847.21 29.41
13311 70.5380 1.334038 873.00 848.53 29.55
13312 70.5430 1.333956 874.00 849.83 29.56
13313 70.5480 1.333874 865.00 851.11 29.41
13314 70.5530 1.333791 874.00 852.35 29.56
13315 70.5580 1.333709 879.00 853.53 29.65
13316 70.5630 1.333627 892.00 854.67 29.87
13317 70.5680 1.333545 875.00 855.75 29.58
13318 70.5730 1.333463 846.00 856.75 29.09
13319 70.5780 1.333380 838.00 857.68 28.95
13320 70.5830 1.333298 850.00 858.53 29.15
13321 70.5880 1.333216 867.00 859.25 29.44
13322 70.5930 1.333134 864.00 859.91 29.39
13323 70.5980 1.333052 859.00 860.47 29.31
13324 70.6030 1.332970 870.00 860.93 29.50
13325 70.6080 1.332887 885.00 861.29 29.75
13326 70.6130 1.332805 897.00 861.55 29.95
13327 70.6180 1.332723 921.00 861.67 30.35
13328 70.6230 1.332641 926.00 861.75 30.43
13329 70.6280 1.332559 913.00 861.73 30.22
13330 70.6330 1.332477 909.00 861.63 30.15
13331 70.6380 1.332395 898.00 861.46 29.97
13332 70.6430 1.332313 875.00 861.22 29.58
13333 70.6480 1.332231 870.00 860.90 29.50
13334 70.6530 1.332149 864.00 860.53 29.39
13335 70.6580 1.332067 865.00 860.12 29.41
13336 70.6630 1.331985 857.00 859.66 29.27
13337 70.6680 1.331903 852.00 859.17 29.19
13338 70.6730 1.331821 869.00 858.65 29.48
13339 70.6780 1.331739 902.00 858.10 30.03
13340 70.6830 1.331657 932.00 857.53 30.53
13341 70.6880 1.331575 929.00 856.95 30.48
13342 70.6930 1.331493 924.00 856.35 30.40
13343 70.6980 1.331411 930.00 855.76 30.50
13344 70.7030 1.331329 895.00 855.15 29.92
13345 70.7080 1.331247 856.00 854.55 29.26
13346 70.7130 1.331166 840.00 853.95 28.98
13347 70.7180 1.331084 834.00 853.35 28.88
13348 70.7230 1.331002 827.00 852.75 28.76
13349 70.7280 1.330920 841.00 852.16 29.00
13350 70.7330 1.330838 874.00 851.56 29.56
13351 70.7380 1.330756 891.00 850.98 29.85
13352 70.7430 1.330675 879.00 850.40 29.65
13353 70.7480 1.330593 870.00 849.81 29.50
13354 70.7530 1.330511 876.00 849.24 29.60
13355 70.7580 1.330429 860.00 848.65 29.33
13356 70.7630 1.330347 828.00 848.09 28.77
13357 70.7680 1.330266 806.00 847.53 28.39
13358 70.7730 1.330184 800.00 846.98 28.28
13359 70.7780 1.330102 807.00 846.43 28.41
13360 70.7830 1.330021 828.00 845.90 28.77
13361 70.7880 1.329939 843.00 845.35 29.03
13362 70.7930 1.329857 850.00 844.80 29.15
13363 70.7980 1.329776 864.00 844.25 29.39
13364 70.8030 1.329694 883.00 843.70 29.72
13365 70.8080 1.329612 868.00 843.13 29.46
13366 70.8130 1.329531 830.00 842.56 28.81
13367 70.8180 1.329449 820.00 841.97 28.64
13368 70.8230 1.329368 832.00 841.37 28.84
13369 70.8280 1.329286 844.00 840.75 29.05
13370 70.8330 1.329204 844.00 840.11 29.05
13371 70.8380 1.329123 850.00 839.45 29.15
13372 70.8430 1.329041 855.00 838.76 29.24
13373 70.8480 1.328960 853.00 838.05 29.21
13374 70.8530 1.328878 846.00 837.32 29.09
13375 70.8580 1.328797 837.00 836.55 28.93
13376 70.8630 1.328715 836.00 835.77 28.91
13377 70.8680 1.328634 827.00 834.96 28.76
13378 70.8730 1.328552 823.00 834.14 28.69
13379 70.8780 1.328471 824.00 833.30 28.71
13380 70.8830 1.328389 829.00 832.45 28.79
13381 70.8880 1.328308 842.00 831.60 29.02
13382 70.8930 1.328226 847.00 830.75 29.10
13383 70.8980 1.328145 844.00 829.91 29.05
13384 70.9030 1.328064 830.00 829.08 28.81
13385 70.9080 1.327982 837.00 828.26 28.93
13386 70.9130 1.327901 866.00 827.48 29.43
13387 70.9180 1.327820 846.00 826.72 29.09
13388 70.9230 1.327738 792.00 826.00 28.14
13389 70.9280 1.327657 783.00 825.33 27.98
13390 70.9330 1.327576 795.00 824.71 28.20
13391 70.9380 1.327494 815.00 824.14 28.55
13392 70.9430 1.327413 815.00 823.63 28.55
13393 70.9480 1.327332 810.00 823.18 28.46
13394 70.9530 1.327250 814.00 822.81 28.53
13395 70.9580 1.327169 837.00 822.51 28.93
13396 70.9630 1.327088 826.00 822.28 28.74
13397 70.9680 1.327007 833.00 822.13 28.86
13398 70.9730 1.326926 844.00 822.07 29.05
13399 70.9780 1.326844 837.00 822.09 28.93
13400 70.9830 1.326763 816.00 822.21 28.57
13401 70.9880 1.326682 806.00 822.41 28.39
13402 70.9930 1.326601 776.00 822.71 27.86
13403 70.9980 1.326520 750.00 823.11 27.39
13404 71.0030 1.326439 777.00 823.60 27.87
13405 71.0080 1.326357 771.00 824.20 27.77
13406 71.0130 1.326276 814.00 824.90 28.53
13407 71.0180 1.326195 822.00 825.67 28.67
13408 71.0230 1.326114 822.00 826.58 28.67
13409 71.0280 1.326033 823.00 827.58 28.69
13410 71.0330 1.325952 838.00 828.69 28.95
13411 71.0380 1.325871 843.00 829.90 29.03
13412 71.0430 1.325790 846.00 831.22 29.09
13413 71.0480 1.325709 841.00 832.64 29.00
13414 71.0530 1.325628 824.00 834.16 28.71
13415 71.0580 1.325547 815.00 835.78 28.55
13416 71.0630 1.325466 831.00 837.50 28.83
13417 71.0680 1.325385 840.00 839.31 28.98
13418 71.0730 1.325304 847.00 841.22 29.10
13419 71.0780 1.325223 871.00 843.23 29.51
13420 71.0830 1.325142 868.00 845.32 29.46
13421 71.0880 1.325061 884.00 847.51 29.73
13422 71.0930 1.324980 885.00 849.78 29.75
13423 71.0980 1.324899 866.00 852.12 29.43
13424 71.1030 1.324818 862.00 854.55 29.36
13425 71.1080 1.324737 851.00 857.05 29.17
13426 71.1130 1.324656 850.00 859.63 29.15
13427 71.1180 1.324576 859.00 862.27 29.31
13428 71.1230 1.324495 872.00 864.97 29.53
13429 71.1280 1.324414 865.00 867.73 29.41
13430 71.1330 1.324333 876.00 870.55 29.60
13431 71.1380 1.324252 884.00 873.42 29.73
13432 71.1430 1.324172 897.00 876.34 29.95
13433 71.1480 1.324091 902.00 879.29 30.03
13434 71.1530 1.324010 914.00 882.28 30.23
13435 71.1580 1.323929 897.00 885.31 29.95
13436 71.1630 1.323848 871.00 888.35 29.51
13437 71.1680 1.323768 846.00 891.41 29.09
13438 71.1730 1.323687 830.00 894.49 28.81
13439 71.1780 1.323606 842.00 897.56 29.02
13440 71.1830 1.323526 842.00 900.64 29.02
13441 71.1880 1.323445 857.00 903.71 29.27
13442 71.1930 1.323364 896.00 906.75 29.93
13443 71.1980 1.323284 911.00 909.77 30.18
13444 71.2030 1.323203 892.00 912.76 29.87
13445 71.2080 1.323122 890.00 915.71 29.83
13446 71.2130 1.323042 899.00 918.61 29.98
13447 71.2180 1.322961 919.00 921.47 30.32
13448 71.2230 1.322881 935.00 924.26 30.58
13449 71.2280 1.322800 937.00 927.00 30.61
13450 71.2330 1.322719 923.00 929.68 30.38
13451 71.2380 1.322639 916.00 932.28 30.27
13452 71.2430 1.322558 913.00 934.82 30.22
13453 71.2480 1.322478 931.00 937.33 30.51
13454 71.2530 1.322397 948.00 939.71 30.79
13455 71.2580 1.322317 959.00 942.01 30.97
13456 71.2630 1.322236 942.00 944.21 30.69
13457 71.2680 1.322156 945.00 946.33 30.74
13458 71.2730 1.322075 979.00 948.34 31.29
13459 71.2780 1.321995 977.00 950.23 31.26
13460 71.2830 1.321914 961.00 952.01 31.00
13461 71.2880 1.321834 986.00 953.66 31.40
13462 71.2930 1.321754 1006.00 955.15 31.72
13463 71.2980 1.321673 1004.00 956.49 31.69
13464 71.3030 1.321593 987.00 957.65 31.42
13465 71.3080 1.321512 979.00 958.62 31.29
13466 71.3130 1.321432 988.00 959.40 31.43
13467 71.3180 1.321352 1007.00 959.95 31.73
13468 71.3230 1.321271 1007.00 960.28 31.73
13469 71.3280 1.321191 979.00 960.38 31.29
13470 71.3330 1.321111 981.00 960.22 31.32
13471 71.3380 1.321030 1001.00 959.80 31.64
13472 71.3430 1.320950 990.00 959.14 31.46
13473 71.3480 1.320870 985.00 958.20 31.38
13474 71.3530 1.320789 992.00 956.98 31.50
13475 71.3580 1.320709 962.00 955.52 31.02
13476 71.3630 1.320629 940.00 953.80 30.66
13477 71.3680 1.320549 930.00 951.85 30.50
13478 71.3730 1.320468 914.00 949.67 30.23
13479 71.3780 1.320388 902.00 947.27 30.03
13480 71.3830 1.320308 900.00 944.67 30.00
13481 71.3880 1.320228 910.00 941.89 30.17
13482 71.3930 1.320148 919.00 938.94 30.32
13483 71.3980 1.320067 921.00 935.84 30.35
13484 71.4030 1.319987 921.00 932.61 30.35
13485 71.4080 1.319907 929.00 929.27 30.48
13486 71.4130 1.319827 943.00 925.88 30.71
13487 71.4180 1.319747 941.00 922.38 30.68
13488 71.4230 1.319667 925.00 918.80 30.41
13489 71.4280 1.319587 938.00 915.20 30.63
13490 71.4330 1.319507 951.00 911.56 30.84
13491 71.4380 1.319426 948.00 907.90 30.79
13492 71.4430 1.319346 943.00 904.25 30.71
13493 71.4480 1.319266 957.00 900.61 30.94
13494 71.4530 1.319186 956.00 896.99 30.92
13495 71.4580 1.319106 927.00 893.36 30.45
13496 71.4630 1.319026 904.00 889.82 30.07
13497 71.4680 1.318946 891.00 886.33 29.85
13498 71.4730 1.318866 883.00 882.93 29.72
13499 71.4780 1.318787 890.00 879.57 29.83
13500 71.4830 1.318706 881.00 876.28 29.68
13501 71.4880 1.318627 883.00 873.08 29.72
13502 71.4930 1.318547 874.00 869.96 29.56
13503 71.4980 1.318467 853.00 866.94 29.21
13504 71.5030 1.318387 842.00 864.02 29.02
13505 71.5080 1.318307 841.00 861.20 29.00
13506 71.5130 1.318227 858.00 858.49 29.29
13507 71.5180 1.318147 865.00 855.88 29.41
13508 71.5230 1.318067 873.00 853.39 29.55
13509 71.5280 1.317987 890.00 851.01 29.83
13510 71.5330 1.317908 915.00 848.75 30.25
13511 71.5380 1.317828 912.00 846.60 30.20
13512 71.5430 1.317748 932.00 844.58 30.53
13513 71.5480 1.317668 938.00 842.68 30.63
13514 71.5530 1.317588 913.00 840.90 30.22
13515 71.5580 1.317509 863.00 839.24 29.38
13516 71.5630 1.317429 861.00 837.70 29.34
13517 71.5680 1.317349 850.00 836.29 29.15
13518 71.5730 1.317269 835.00 835.00 28.90
13519 71.5780 1.317189 835.00 833.83 28.90
13520 71.5830 1.317110 835.00 832.78 28.90
13521 71.5880 1.317030 841.00 831.85 29.00
13522 71.5930 1.316950 834.00 831.04 28.88
13523 71.5980 1.316871 815.00 830.36 28.55
13524 71.6030 1.316791 792.00 829.79 28.14
13525 71.6080 1.316711 795.00 829.35 28.20
13526 71.6130 1.316632 800.00 829.02 28.28
13527 71.6180 1.316552 813.00 828.81 28.51
13528 71.6230 1.316473 822.00 828.71 28.67
13529 71.6280 1.316393 806.00 828.73 28.39
13530 71.6330 1.316313 809.00 828.87 28.44
13531 71.6380 1.316234 821.00 829.12 28.65
13532 71.6430 1.316154 806.00 829.49 28.39
13533 71.6480 1.316075 776.00 829.91 27.86
13534 71.6530 1.315995 788.00 830.50 28.07
13535 71.6580 1.315916 822.00 831.17 28.67
13536 71.6630 1.315836 837.00 831.98 28.93
13537 71.6680 1.315757 843.00 832.91 29.03
13538 71.6730 1.315677 830.00 833.93 28.81
13539 71.6780 1.315598 825.00 835.06 28.72
13540 71.6830 1.315518 837.00 836.29 28.93
13541 71.6880 1.315439 852.00 837.62 29.19
13542 71.6930 1.315359 869.00 839.05 29.48
13543 71.6980 1.315280 871.00 840.58 29.51
13544 71.7030 1.315200 849.00 842.21 29.14
13545 71.7080 1.315121 832.00 843.94 28.84
13546 71.7130 1.315042 866.00 845.76 29.43
13547 71.7180 1.314962 885.00 847.67 29.75
13548 71.7230 1.314883 870.00 849.69 29.50
13549 71.7280 1.314803 893.00 851.79 29.88
13550 71.7330 1.314724 898.00 853.96 29.97
13551 71.7380 1.314645 887.00 856.23 29.78
13552 71.7430 1.314565 849.00 858.58 29.14
13553 71.7480 1.314486 843.00 861.00 29.03
13554 71.7530 1.314407 879.00 863.51 29.65
13555 71.7580 1.314327 881.00 866.08 29.68
13556 71.7630 1.314248 871.00 868.73 29.51
13557 71.7680 1.314169 871.00 871.43 29.51
13558 71.7730 1.314090 895.00 874.21 29.92
13559 71.7780 1.314011 878.00 877.03 29.63
13560 71.7830 1.313931 872.00 879.91 29.53
13561 71.7880 1.313852 883.00 882.84 29.72
13562 71.7930 1.313773 881.00 885.81 29.68
13563 71.7980 1.313694 869.00 888.82 29.48
13564 71.8030 1.313614 827.00 891.87 28.76
13565 71.8080 1.313535 872.00 894.94 29.53
13566 71.8130 1.313456 927.00 898.04 30.45
13567 71.8180 1.313377 932.00 901.16 30.53
13568 71.8230 1.313298 937.00 904.29 30.61
13569 71.8280 1.313219 929.00 907.43 30.48
13570 71.8330 1.313140 958.00 910.58 30.95
13571 71.8380 1.313061 965.00 913.72 31.06
13572 71.8430 1.312981 951.00 916.86 30.84
13573 71.8480 1.312902 919.00 919.99 30.32
13574 71.8530 1.312823 890.00 923.10 29.83
13575 71.8580 1.312744 875.00 926.20 29.58
13576 71.8630 1.312665 882.00 929.28 29.70
13577 71.8680 1.312586 933.00 932.33 30.55
13578 71.8730 1.312507 935.00 935.35 30.58
13579 71.8780 1.312428 917.00 938.33 30.28
13580 71.8830 1.312349 897.00 941.29 29.95
13581 71.8880 1.312270 919.00 944.17 30.32
13582 71.8930 1.312191 915.00 947.03 30.25
13583 71.8980 1.312112 912.00 949.84 30.20
13584 71.9030 1.312033 938.00 952.60 30.63
13585 71.9080 1.311954 955.00 955.29 30.90
13586 71.9130 1.311875 967.00 957.90 31.10
13587 71.9180 1.311797 961.00 960.44 31.00
13588 71.9230 1.311718 931.00 962.89 30.51
13589 71.9280 1.311639 912.00 965.23 30.20
13590 71.9330 1.311560 910.00 967.47 30.17
13591 71.9380 1.311481 923.00 969.57 30.38
13592 71.9430 1.311402 927.00 971.53 30.45
13593 71.9480 1.311323 927.00 973.33 30.45
13594 71.9530 1.311244 919.00 974.99 30.32
13595 71.9580 1.311166 898.00 976.44 29.97
13596 71.9630 1.311087 902.00 977.71 30.03
13597 71.9680 1.311008 913.00 978.76 30.22
13598 71.9730 1.310929 924.00 979.59 30.40
13599 71.9780 1.310851 935.00 980.19 30.58
13600 71.9830 1.310772 959.00 980.52 30.97
13601 71.9880 1.310693 966.00 980.62 31.08
13602 71.9930 1.310614 960.00 980.48 30.98
13603 71.9980 1.310536 929.00 980.07 30.48
13604 72.0030 1.310457 926.00 979.40 30.43
13605 72.0080 1.310378 921.00 978.47 30.35
13606 72.0130 1.310300 940.00 977.29 30.66
13607 72.0180 1.310221 953.00 975.85 30.87
13608 72.0230 1.310142 957.00 974.17 30.94
13609 72.0280 1.310064 952.00 972.26 30.85
13610 72.0330 1.309985 945.00 970.12 30.74
13611 72.0380 1.309906 955.00 967.78 30.90
13612 72.0430 1.309828 972.00 965.23 31.18
13613 72.0480 1.309749 992.00 962.51 31.50
13614 72.0530 1.309671 989.00 959.58 31.45
13615 72.0580 1.309592 992.00 956.55 31.50
13616 72.0630 1.309513 975.00 953.38 31.23
13617 72.0680 1.309435 958.00 950.12 30.95
13618 72.0730 1.309356 949.00 946.75 30.81
13619 72.0780 1.309278 938.00 943.29 30.63
13620 72.0830 1.309199 937.00 939.78 30.61
13621 72.0880 1.309121 948.00 936.22 30.79
13622 72.0930 1.309042 938.00 932.62 30.63
13623 72.0980 1.308964 923.00 929.03 30.38
13624 72.1030 1.308885 918.00 925.41 30.30
13625 72.1080 1.308807 932.00 921.81 30.53
13626 72.1130 1.308728 956.00 918.25 30.92
13627 72.1180 1.308650 952.00 914.71 30.85
13628 72.1230 1.308572 938.00 911.21 30.63
13629 72.1280 1.308493 929.00 907.78 30.48
13630 72.1330 1.308415 926.00 904.39 30.43
13631 72.1380 1.308336 921.00 901.10 30.35
13632 72.1430 1.308258 937.00 897.86 30.61
13633 72.1480 1.308180 938.00 894.72 30.63
13634 72.1530 1.308101 917.00 891.66 30.28
13635 72.1580 1.308023 899.00 888.70 29.98
13636 72.1630 1.307945 886.00 885.84 29.77
13637 72.1680 1.307866 877.00 883.07 29.61
13638 72.1730 1.307788 855.00 880.41 29.24
13639 72.1780 1.307710 841.00 877.86 29.00
13640 72.1830 1.307632 859.00 875.43 29.31
13641 72.1880 1.307553 874.00 873.10 29.56
13642 72.1930 1.307475 867.00 870.90 29.44
13643 72.1980 1.307397 855.00 868.81 29.24
13644 72.2030 1.307319 846.00 866.84 29.09
13645 72.2080 1.307240 852.00 865.00 29.19
13646 72.2130 1.307162 864.00 863.28 29.39
13647 72.2180 1.307084 869.00 861.69 29.48
13648 72.2230 1.307006 870.00 860.22 29.50
13649 72.2280 1.306928 876.00 858.87 29.60
13650 72.2330 1.306849 873.00 857.65 29.55
13651 72.2380 1.306771 870.00 856.56 29.50
13652 72.2430 1.306693 870.00 855.59 29.50
13653 72.2480 1.306615 860.00 854.76 29.33
13654 72.2530 1.306537 853.00 854.04 29.21
13655 72.2580 1.306459 860.00 853.45 29.33
13656 72.2630 1.306381 876.00 852.99 29.60
13657 72.2680 1.306303 885.00 852.64 29.75
13658 72.2730 1.306225 901.00 852.42 30.02
13659 72.2780 1.306147 897.00 852.33 29.95
13660 72.2830 1.306069 864.00 852.35 29.39
13661 72.2880 1.305991 833.00 852.49 28.86
13662 72.2930 1.305913 824.00 852.74 28.71
13663 72.2980 1.305835 838.00 853.11 28.95
13664 72.3030 1.305757 872.00 853.58 29.53
13665 72.3080 1.305679 891.00 854.18 29.85
13666 72.3130 1.305601 887.00 854.86 29.78
13667 72.3180 1.305523 885.00 855.66 29.75
13668 72.3230 1.305445 892.00 856.53 29.87
13669 72.3280 1.305367 866.00 857.50 29.43
13670 72.3330 1.305289 841.00 858.54 29.00
13671 72.3380 1.305211 844.00 859.67 29.05
13672 72.3430 1.305133 859.00 860.85 29.31
13673 72.3480 1.305055 860.00 862.09 29.33
13674 72.3530 1.304977 856.00 863.38 29.26
13675 72.3580 1.304899 860.00 864.70 29.33
13676 72.3630 1.304822 865.00 866.06 29.41
13677 72.3680 1.304744 868.00 867.43 29.46
13678 72.3730 1.304666 872.00 868.80 29.53
13679 72.3780 1.304588 863.00 870.17 29.38
13680 72.3830 1.304510 855.00 871.53 29.24
13681 72.3880 1.304433 839.00 872.85 28.97
13682 72.3930 1.304355 832.00 874.14 28.84
13683 72.3980 1.304277 841.00 875.37 29.00
13684 72.4030 1.304199 839.00 876.55 28.97
13685 72.4080 1.304121 846.00 877.66 29.09
13686 72.4130 1.304044 863.00 878.67 29.38
13687 72.4180 1.303966 864.00 879.62 29.39
13688 72.4230 1.303888 863.00 880.49 29.38
13689 72.4280 1.303811 877.00 881.26 29.61
13690 72.4330 1.303733 884.00 881.94 29.73
13691 72.4380 1.303655 886.00 882.53 29.77
13692 72.4430 1.303578 904.00 883.03 30.07
13693 72.4480 1.303500 913.00 883.44 30.22
13694 72.4530 1.303422 900.00 883.76 30.00
13695 72.4580 1.303345 873.00 884.02 29.55
13696 72.4630 1.303267 875.00 884.22 29.58
13697 72.4680 1.303190 905.00 884.34 30.08
13698 72.4730 1.303112 928.00 884.42 30.46
13699 72.4780 1.303034 939.00 884.46 30.64
13700 72.4830 1.302957 942.00 884.46 30.69
13701 72.4880 1.302879 917.00 884.44 30.28
13702 72.4930 1.302802 903.00 884.41 30.05
13703 72.4980 1.302724 881.00 884.37 29.68
13704 72.5030 1.302647 855.00 884.33 29.24
13705 72.5080 1.302569 853.00 884.30 29.21
13706 72.5130 1.302492 841.00 884.29 29.00
13707 72.5180 1.302414 840.00 884.30 28.98
13708 72.5230 1.302337 867.00 884.34 29.44
13709 72.5280 1.302259 869.00 884.43 29.48
13710 72.5330 1.302182 873.00 884.56 29.55
13711 72.5380 1.302104 876.00 884.75 29.60
13712 72.5430 1.302027 858.00 884.98 29.29
13713 72.5480 1.301950 851.00 885.28 29.17
13714 72.5530 1.301872 862.00 885.63 29.36
13715 72.5580 1.301795 875.00 886.05 29.58
13716 72.5630 1.301717 904.00 886.52 30.07
13717 72.5680 1.301640 892.00 887.06 29.87
13718 72.5730 1.301563 872.00 887.58 29.53
13719 72.5780 1.301485 857.00 888.23 29.27
13720 72.5830 1.301408 835.00 888.93 28.90
13721 72.5880 1.301331 827.00 889.68 28.76
13722 72.5930 1.301253 825.00 890.47 28.72
13723 72.5980 1.301176 826.00 891.30 28.74
13724 72.6030 1.301099 838.00 892.16 28.95
13725 72.6080 1.301021 879.00 893.04 29.65
13726 72.6130 1.300944 910.00 893.95 30.17
13727 72.6180 1.300867 892.00 894.86 29.87
13728 72.6230 1.300790 894.00 895.80 29.90
13729 72.6280 1.300712 900.00 896.73 30.00
13730 72.6330 1.300635 890.00 897.67 29.83
13731 72.6380 1.300558 887.00 898.59 29.78
13732 72.6430 1.300481 885.00 899.51 29.75
13733 72.6480 1.300404 883.00 900.41 29.72
13734 72.6530 1.300326 865.00 901.30 29.41
13735 72.6580 1.300249 857.00 902.18 29.27
13736 72.6630 1.300172 870.00 903.03 29.50
13737 72.6680 1.300095 903.00 903.88 30.05
13738 72.6730 1.300018 912.00 904.72 30.20
13739 72.6780 1.299941 921.00 905.56 30.35
13740 72.6830 1.299864 914.00 906.37 30.23
13741 72.6880 1.299787 897.00 907.18 29.95
13742 72.6930 1.299710 885.00 907.99 29.75
13743 72.6980 1.299632 900.00 908.79 30.00
13744 72.7030 1.299555 914.00 909.60 30.23
13745 72.7080 1.299478 906.00 910.43 30.10
13746 72.7130 1.299401 886.00 911.26 29.77
13747 72.7180 1.299324 884.00 912.12 29.73
13748 72.7230 1.299247 920.00 913.00 30.33
13749 72.7280 1.299170 914.00 913.91 30.23
13750 72.7330 1.299093 880.00 914.84 29.66
13751 72.7380 1.299016 863.00 915.81 29.38
13752 72.7430 1.298939 884.00 916.82 29.73
13753 72.7480 1.298862 909.00 917.87 30.15
13754 72.7530 1.298786 914.00 918.96 30.23
13755 72.7580 1.298709 942.00 920.11 30.69
13756 72.7630 1.298632 952.00 921.30 30.85
13757 72.7680 1.298555 953.00 922.55 30.87
13758 72.7730 1.298478 947.00 923.85 30.77
13759 72.7780 1.298401 920.00 925.20 30.33
13760 72.7830 1.298324 902.00 926.60 30.03
13761 72.7880 1.298247 882.00 928.04 29.70
13762 72.7930 1.298170 860.00 929.55 29.33
13763 72.7980 1.298094 880.00 931.09 29.66
13764 72.8030 1.298017 900.00 932.66 30.00
13765 72.8080 1.297940 892.00 934.26 29.87
13766 72.8130 1.297863 884.00 935.88 29.73
13767 72.8180 1.297786 888.00 937.50 29.80
13768 72.8230 1.297710 880.00 939.12 29.66
13769 72.8280 1.297633 866.00 940.70 29.43
13770 72.8330 1.297556 878.00 942.28 29.63
13771 72.8380 1.297479 911.00 943.80 30.18
13772 72.8430 1.297403 925.00 945.27 30.41
13773 72.8480 1.297326 940.00 946.66 30.66
13774 72.8530 1.297249 957.00 947.95 30.94
13775 72.8580 1.297172 937.00 949.13 30.61
13776 72.8630 1.297096 935.00 950.19 30.58
13777 72.8680 1.297019 922.00 951.11 30.36
13778 72.8730 1.296943 920.00 951.87 30.33
13779 72.8780 1.296866 931.00 952.46 30.51
13780 72.8830 1.296789 940.00 952.88 30.66
13781 72.8880 1.296713 929.00 953.11 30.48
13782 72.8930 1.296636 936.00 953.14 30.59
13783 72.8980 1.296559 941.00 952.98 30.68
13784 72.9030 1.296483 916.00 952.62 30.27
13785 72.9080 1.296406 900.00 952.05 30.00
13786 72.9130 1.296330 917.00 951.29 30.28
13787 72.9180 1.296253 940.00 950.34 30.66
13788 72.9230 1.296177 936.00 949.21 30.59
13789 72.9280 1.296100 933.00 947.90 30.55
13790 72.9330 1.296023 954.00 946.44 30.89
13791 72.9380 1.295947 944.00 944.83 30.72
13792 72.9430 1.295870 990.00 943.08 31.46
13793 72.9480 1.295794 1009.00 941.22 31.76
13794 72.9530 1.295717 970.00 939.25 31.14
13795 72.9580 1.295641 977.00 937.20 31.26
13796 72.9630 1.295565 949.00 935.04 30.81
13797 72.9680 1.295488 900.00 932.87 30.00
13798 72.9730 1.295412 918.00 930.65 30.30
13799 72.9780 1.295335 908.00 928.41 30.13
13800 72.9830 1.295259 895.00 926.15 29.92
13801 72.9880 1.295182 886.00 923.89 29.77
13802 72.9930 1.295106 892.00 921.63 29.87
13803 72.9980 1.295030 868.00 919.39 29.46
13804 73.0030 1.294953 870.00 917.16 29.50
13805 73.0080 1.294877 876.00 914.95 29.60
13806 73.0130 1.294801 864.00 912.77 29.39
13807 73.0180 1.294724 889.00 910.61 29.82
13808 73.0230 1.294648 903.00 908.48 30.05
13809 73.0280 1.294572 890.00 906.38 29.83
13810 73.0330 1.294496 895.00 904.30 29.92
13811 73.0380 1.294419 894.00 902.23 29.90
13812 73.0430 1.294343 860.00 900.18 29.33
13813 73.0480 1.294267 849.00 898.14 29.14
13814 73.0530 1.294190 853.00 896.10 29.21
13815 73.0580 1.294114 843.00 894.06 29.03
13816 73.0630 1.294038 835.00 892.01 28.90
13817 73.0680 1.293962 851.00 889.94 29.17
13818 73.0730 1.293885 863.00 887.84 29.38
13819 73.0780 1.293809 832.00 885.72 28.84
13820 73.0830 1.293733 829.00 883.56 28.79
13821 73.0880 1.293657 842.00 881.36 29.02
13822 73.0930 1.293581 840.00 879.12 28.98
13823 73.0980 1.293505 843.00 876.82 29.03
13824 73.1030 1.293429 867.00 874.48 29.44
13825 73.1080 1.293352 901.00 872.10 30.02
13826 73.1130 1.293276 906.00 869.67 30.10
13827 73.1180 1.293200 896.00 867.20 29.93
13828 73.1230 1.293124 896.00 864.68 29.93
13829 73.1280 1.293048 882.00 862.13 29.70
13830 73.1330 1.292972 863.00 859.49 29.38
13831 73.1380 1.292896 850.00 856.87 29.15
13832 73.1430 1.292820 892.00 854.22 29.87
13833 73.1480 1.292744 922.00 851.57 30.36
13834 73.1530 1.292668 924.00 848.89 30.40
13835 73.1580 1.292592 901.00 846.20 30.02
13836 73.1630 1.292516 854.00 843.51 29.22
13837 73.1680 1.292440 847.00 840.84 29.10
13838 73.1730 1.292364 823.00 838.17 28.69
13839 73.1780 1.292288 850.00 835.53 29.15
13840 73.1830 1.292212 842.00 832.92 29.02
13841 73.1880 1.292136 839.00 830.33 28.97
13842 73.1930 1.292060 842.00 827.79 29.02
13843 73.1980 1.291984 850.00 825.29 29.15
13844 73.2030 1.291908 842.00 822.84 29.02
13845 73.2080 1.291832 865.00 820.45 29.41
13846 73.2130 1.291757 857.00 818.10 29.27
13847 73.2180 1.291681 832.00 815.82 28.84
13848 73.2230 1.291605 818.00 813.61 28.60
13849 73.2280 1.291529 815.00 811.46 28.55
13850 73.2330 1.291453 816.00 809.38 28.57
13851 73.2380 1.291377 837.00 807.37 28.93
13852 73.2430 1.291302 847.00 805.44 29.10
13853 73.2480 1.291226 840.00 803.58 28.98
13854 73.2530 1.291150 832.00 801.80 28.84
13855 73.2580 1.291074 824.00 800.10 28.71
13856 73.2630 1.290998 837.00 798.47 28.93
13857 73.2680 1.290923 846.00 796.93 29.09
13858 73.2730 1.290847 813.00 795.47 28.51
13859 73.2780 1.290771 778.00 794.09 27.89
13860 73.2830 1.290695 757.00 792.78 27.51
13861 73.2880 1.290620 753.00 791.57 27.44
13862 73.2930 1.290544 757.00 790.43 27.51
13863 73.2980 1.290468 763.00 789.37 27.62
13864 73.3030 1.290393 762.00 788.39 27.60
13865 73.3080 1.290317 786.00 787.49 28.04
13866 73.3130 1.290241 794.00 786.67 28.18
13867 73.3180 1.290166 794.00 785.92 28.18
13868 73.3230 1.290090 804.00 785.25 28.35
13869 73.3280 1.290014 804.00 784.66 28.35
13870 73.3330 1.289939 795.00 784.13 28.20
13871 73.3380 1.289863 776.00 783.68 27.86
13872 73.3430 1.289788 774.00 783.29 27.82
13873 73.3480 1.289712 789.00 782.98 28.09
13874 73.3530 1.289636 813.00 782.76 28.51
13875 73.3580 1.289561 815.00 782.58 28.55
13876 73.3630 1.289485 839.00 782.46 28.97
13877 73.3680 1.289410 832.00 782.40 28.84
13878 73.3730 1.289334 771.00 782.40 27.77
13879 73.3780 1.289259 731.00 782.45 27.04
13880 73.3830 1.289183 743.00 782.56 27.26
13881 73.3880 1.289108 769.00 782.72 27.73
13882 73.3930 1.289032 782.00 782.93 27.96
13883 73.3980 1.288957 796.00 783.18 28.21
13884 73.4030 1.288882 791.00 783.48 28.12
13885 73.4080 1.288806 802.00 783.82 28.32
13886 73.4130 1.288731 839.00 784.19 28.97
13887 73.4180 1.288655 824.00 784.60 28.71
13888 73.4230 1.288580 812.00 785.04 28.50
13889 73.4280 1.288504 811.00 785.50 28.48
13890 73.4330 1.288429 814.00 785.98 28.53
13891 73.4380 1.288354 817.00 786.49 28.58
13892 73.4430 1.288278 807.00 787.01 28.41
13893 73.4480 1.288203 800.00 787.54 28.28
13894 73.4530 1.288128 761.00 788.08 27.59
13895 73.4580 1.288052 752.00 788.61 27.42
13896 73.4630 1.287977 783.00 789.16 27.98
13897 73.4680 1.287902 805.00 789.72 28.37
13898 73.4730 1.287826 807.00 790.26 28.41
13899 73.4780 1.287751 789.00 790.80 28.09
13900 73.4830 1.287676 789.00 791.32 28.09
13901 73.4880 1.287601 789.00 791.77 28.09
13902 73.4930 1.287525 782.00 792.28 27.96
13903 73.4980 1.287450 785.00 792.75 28.02
13904 73.5030 1.287375 804.00 793.20 28.35
13905 73.5080 1.287300 832.00 793.63 28.84
13906 73.5130 1.287224 847.00 794.05 29.10
13907 73.5180 1.287149 829.00 794.45 28.79
13908 73.5230 1.287074 823.00 794.82 28.69
13909 73.5280 1.286999 817.00 795.17 28.58
13910 73.5330 1.286924 822.00 795.50 28.67
13911 73.5380 1.286849 820.00 795.82 28.64
13912 73.5430 1.286773 799.00 796.11 28.27
13913 73.5480 1.286698 772.00 796.39 27.78
13914 73.5530 1.286623 768.00 796.64 27.71
13915 73.5580 1.286548 769.00 796.88 27.73
13916 73.5630 1.286473 760.00 797.07 27.57
13917 73.5680 1.286398 757.00 797.26 27.51
13918 73.5730 1.286323 772.00 797.44 27.78
13919 73.5780 1.286248 792.00 797.59 28.14
13920 73.5830 1.286173 800.00 797.73 28.28
13921 73.5880 1.286098 790.00 797.84 28.11
13922 73.5930 1.286023 778.00 797.92 27.89
13923 73.5980 1.285948 778.00 797.98 27.89
13924 73.6030 1.285873 789.00 797.96 28.09
13925 73.6080 1.285798 784.00 797.97 28.00
13926 73.6130 1.285723 758.00 797.94 27.53
13927 73.6180 1.285648 746.00 797.82 27.31
13928 73.6230 1.285573 763.00 797.73 27.62
13929 73.6280 1.285498 780.00 797.60 27.93
13930 73.6330 1.285423 789.00 797.44 28.09
13931 73.6380 1.285348 795.00 797.24 28.20
13932 73.6430 1.285273 788.00 797.01 28.07
13933 73.6480 1.285198 786.00 796.75 28.04
13934 73.6530 1.285123 783.00 796.46 27.98
13935 73.6580 1.285048 756.00 796.15 27.50
13936 73.6630 1.284974 746.00 795.80 27.31
13937 73.6680 1.284899 760.00 795.44 27.57
13938 73.6730 1.284824 768.00 795.06 27.71
13939 73.6780 1.284749 789.00 794.67 28.09
13940 73.6830 1.284674 824.00 794.28 28.71
13941 73.6880 1.284599 850.00 793.87 29.15
13942 73.6930 1.284525 860.00 793.48 29.33
13943 73.6980 1.284450 862.00 793.06 29.36
13944 73.7030 1.284375 841.00 792.68 29.00
13945 73.7080 1.284300 814.00 792.32 28.53
13946 73.7130 1.284225 801.00 791.98 28.30
13947 73.7180 1.284151 805.00 791.66 28.37
13948 73.7230 1.284076 807.00 791.37 28.41
13949 73.7280 1.284001 809.00 791.12 28.44
13950 73.7330 1.283926 808.00 790.90 28.43
13951 73.7380 1.283852 822.00 790.72 28.67
13952 73.7430 1.283777 813.00 790.59 28.51
13953 73.7480 1.283702 803.00 790.49 28.34
13954 73.7530 1.283628 803.00 790.45 28.34
13955 73.7580 1.283553 797.00 790.45 28.23
13956 73.7630 1.283479 778.00 790.50 27.89
13957 73.7680 1.283404 772.00 790.60 27.78
13958 73.7730 1.283329 768.00 790.75 27.71
13959 73.7780 1.283255 782.00 790.96 27.96
13960 73.7830 1.283180 789.00 791.22 28.09
13961 73.7880 1.283105 782.00 791.53 27.96
13962 73.7930 1.283031 798.00 791.90 28.25
13963 73.7980 1.282956 830.00 792.32 28.81
13964 73.8030 1.282882 855.00 792.79 29.24
13965 73.8080 1.282807 871.00 793.32 29.51
13966 73.8130 1.282733 873.00 793.89 29.55
13967 73.8180 1.282658 860.00 794.52 29.33
13968 73.8230 1.282584 831.00 795.19 28.83
13969 73.8280 1.282509 813.00 795.92 28.51
13970 73.8330 1.282435 810.00 796.68 28.46
13971 73.8380 1.282360 827.00 797.49 28.76
13972 73.8430 1.282286 848.00 798.34 29.12
13973 73.8480 1.282211 835.00 799.22 28.90
13974 73.8530 1.282137 796.00 800.14 28.21
13975 73.8580 1.282062 784.00 801.09 28.00
13976 73.8630 1.281988 801.00 802.06 28.30
13977 73.8680 1.281914 808.00 803.06 28.43
13978 73.8730 1.281839 826.00 804.07 28.74
13979 73.8780 1.281765 841.00 805.10 29.00
13980 73.8830 1.281690 837.00 806.14 28.93
13981 73.8880 1.281616 839.00 807.18 28.97
13982 73.8930 1.281542 837.00 808.23 28.93
13983 73.8980 1.281467 823.00 809.27 28.69
13984 73.9030 1.281393 828.00 810.30 28.77
13985 73.9080 1.281319 816.00 811.33 28.57
13986 73.9130 1.281244 800.00 812.34 28.28
13987 73.9180 1.281170 786.00 813.33 28.04
13988 73.9230 1.281096 785.00 814.31 28.02
13989 73.9280 1.281021 800.00 815.26 28.28
13990 73.9330 1.280947 815.00 816.19 28.55
13991 73.9380 1.280873 809.00 817.09 28.44
13992 73.9430 1.280799 793.00 817.95 28.16
13993 73.9480 1.280725 793.00 818.79 28.16
13994 73.9530 1.280650 807.00 819.60 28.41
13995 73.9580 1.280576 797.00 820.37 28.23
13996 73.9630 1.280502 779.00 821.10 27.91
13997 73.9680 1.280428 795.00 821.80 28.20
13998 73.9730 1.280354 802.00 822.44 28.32
13999 73.9780 1.280279 800.00 823.05 28.28
14000 73.9830 1.280205 807.00 823.58 28.41
14001 73.9880 1.280131 819.00 824.09 28.62
14002 73.9930 1.280057 837.00 824.54 28.93
14003 73.9980 1.279983 846.00 824.94 29.09
14004 74.0030 1.279909 836.00 825.29 28.91
14005 74.0080 1.279835 815.00 825.58 28.55
14006 74.0130 1.279760 804.00 825.79 28.35
14007 74.0180 1.279686 807.00 825.96 28.41
14008 74.0230 1.279612 830.00 826.07 28.81
14009 74.0280 1.279538 842.00 826.13 29.02
14010 74.0330 1.279464 831.00 826.13 28.83
14011 74.0380 1.279390 835.00 826.07 28.90
14012 74.0430 1.279316 830.00 825.97 28.81
14013 74.0480 1.279242 816.00 825.81 28.57
14014 74.0530 1.279168 826.00 825.61 28.74
14015 74.0580 1.279094 843.00 825.37 29.03
14016 74.0630 1.279020 831.00 825.11 28.83
14017 74.0680 1.278946 813.00 824.80 28.51
14018 74.0730 1.278872 809.00 824.46 28.44
14019 74.0780 1.278798 804.00 824.10 28.35
14020 74.0830 1.278724 802.00 823.72 28.32
14021 74.0880 1.278651 801.00 823.32 28.30
14022 74.0930 1.278576 811.00 822.90 28.48
14023 74.0980 1.278503 836.00 822.46 28.91
14024 74.1030 1.278429 857.00 822.02 29.27
14025 74.1080 1.278355 852.00 821.57 29.19
14026 74.1130 1.278281 834.00 821.07 28.88
14027 74.1180 1.278207 854.00 820.60 29.22
14028 74.1230 1.278133 891.00 820.12 29.85
14029 74.1280 1.278059 884.00 819.64 29.73
14030 74.1330 1.277986 869.00 819.14 29.48
14031 74.1380 1.277912 862.00 818.65 29.36
14032 74.1430 1.277838 875.00 818.13 29.58
14033 74.1480 1.277764 869.00 817.60 29.48
14034 74.1530 1.277691 830.00 817.06 28.81
14035 74.1580 1.277617 801.00 816.51 28.30
14036 74.1630 1.277543 798.00 815.94 28.25
14037 74.1680 1.277469 823.00 815.37 28.69
14038 74.1730 1.277395 823.00 814.77 28.69
14039 74.1780 1.277322 800.00 814.17 28.28
14040 74.1830 1.277248 783.00 813.54 27.98
14041 74.1880 1.277174 780.00 812.90 27.93
14042 74.1930 1.277101 795.00 812.24 28.20
14043 74.1980 1.277027 815.00 811.58 28.55
14044 74.2030 1.276953 823.00 810.90 28.69
14045 74.2080 1.276880 832.00 810.22 28.84
14046 74.2130 1.276806 834.00 809.53 28.88
14047 74.2180 1.276732 820.00 808.85 28.64
14048 74.2230 1.276659 789.00 808.17 28.09
14049 74.2280 1.276585 768.00 807.49 27.71
14050 74.2330 1.276511 768.00 806.84 27.71
14051 74.2380 1.276438 773.00 806.20 27.80
14052 74.2430 1.276364 791.00 805.57 28.12
14053 74.2480 1.276291 814.00 804.94 28.53
14054 74.2530 1.276217 825.00 804.39 28.72
14055 74.2580 1.276143 814.00 803.88 28.53
14056 74.2630 1.276070 802.00 803.41 28.32
14057 74.2680 1.275996 806.00 802.99 28.39
14058 74.2730 1.275923 812.00 802.63 28.50
14059 74.2780 1.275849 799.00 802.32 28.27
14060 74.2830 1.275776 802.00 802.08 28.32
14061 74.2880 1.275702 818.00 801.91 28.60
14062 74.2930 1.275629 814.00 801.81 28.53
14063 74.2980 1.275556 808.00 801.78 28.43
14064 74.3030 1.275482 820.00 801.83 28.64
14065 74.3080 1.275409 811.00 801.97 28.48
14066 74.3130 1.275335 775.00 802.18 27.84
14067 74.3180 1.275262 733.00 802.47 27.07
14068 74.3230 1.275188 736.00 802.87 27.13
14069 74.3280 1.275115 755.00 803.35 27.48
14070 74.3330 1.275041 758.00 803.93 27.53
14071 74.3380 1.274968 763.00 804.60 27.62
14072 74.3430 1.274895 774.00 805.37 27.82
14073 74.3480 1.274821 773.00 806.24 27.80
14074 74.3530 1.274748 783.00 807.21 27.98
14075 74.3580 1.274675 787.00 808.28 28.05
14076 74.3630 1.274601 795.00 809.46 28.20
14077 74.3680 1.274528 810.00 810.73 28.46
14078 74.3730 1.274455 824.00 812.12 28.71
14079 74.3780 1.274382 820.00 813.60 28.64
14080 74.3830 1.274308 794.00 815.19 28.18
14081 74.3880 1.274235 788.00 816.88 28.07
14082 74.3930 1.274162 800.00 818.67 28.28
14083 74.3980 1.274088 807.00 820.57 28.41
14084 74.4030 1.274015 798.00 822.57 28.25
14085 74.4080 1.273942 792.00 824.66 28.14
14086 74.4130 1.273869 809.00 826.85 28.44
14087 74.4180 1.273795 828.00 829.13 28.77
14088 74.4230 1.273722 839.00 831.51 28.97
14089 74.4280 1.273649 845.00 833.96 29.07
14090 74.4330 1.273576 859.00 836.50 29.31
14091 74.4380 1.273503 862.00 839.12 29.36
14092 74.4430 1.273430 831.00 841.80 28.83
14093 74.4480 1.273357 828.00 844.56 28.77
14094 74.4530 1.273283 834.00 847.38 28.88
14095 74.4580 1.273210 833.00 850.22 28.86
14096 74.4630 1.273137 838.00 853.13 28.95
14097 74.4680 1.273064 840.00 856.07 28.98
14098 74.4730 1.272991 841.00 859.03 29.00
14099 74.4780 1.272918 844.00 862.03 29.05
14100 74.4830 1.272845 847.00 865.02 29.10
14101 74.4880 1.272772 851.00 868.00 29.17
14102 74.4930 1.272699 871.00 870.97 29.51
14103 74.4980 1.272626 877.00 873.91 29.61
14104 74.5030 1.272553 858.00 876.80 29.29
14105 74.5080 1.272480 855.00 879.64 29.24
14106 74.5130 1.272407 860.00 882.41 29.33
14107 74.5180 1.272334 862.00 885.09 29.36
14108 74.5230 1.272261 859.00 887.64 29.31
14109 74.5280 1.272188 846.00 890.10 29.09
14110 74.5330 1.272115 860.00 892.43 29.33
14111 74.5380 1.272042 871.00 894.61 29.51
14112 74.5430 1.271969 882.00 896.62 29.70
14113 74.5480 1.271896 889.00 898.47 29.82
14114 74.5530 1.271823 895.00 900.12 29.92
14115 74.5580 1.271750 914.00 901.57 30.23
14116 74.5630 1.271677 929.00 902.80 30.48
14117 74.5680 1.271604 924.00 903.81 30.40
14118 74.5730 1.271532 928.00 904.60 30.46
14119 74.5780 1.271459 937.00 905.14 30.61
14120 74.5830 1.271386 920.00 905.45 30.33
14121 74.5880 1.271313 905.00 905.52 30.08
14122 74.5930 1.271240 901.00 905.34 30.02
14123 74.5980 1.271167 910.00 904.93 30.17
14124 74.6030 1.271095 942.00 904.29 30.69
14125 74.6080 1.271022 944.00 903.42 30.72
14126 74.6130 1.270949 913.00 902.34 30.22
14127 74.6180 1.270876 892.00 901.05 29.87
14128 74.6230 1.270803 901.00 899.56 30.02
14129 74.6280 1.270731 936.00 897.89 30.59
14130 74.6330 1.270658 914.00 896.05 30.23
14131 74.6380 1.270585 882.00 894.05 29.70
14132 74.6430 1.270513 883.00 891.90 29.72
14133 74.6480 1.270440 898.00 889.63 29.97
14134 74.6530 1.270367 902.00 887.23 30.03
14135 74.6580 1.270294 892.00 884.73 29.87
14136 74.6630 1.270222 902.00 882.15 30.03
14137 74.6680 1.270149 932.00 879.48 30.53
14138 74.6730 1.270076 973.00 876.75 31.19
14139 74.6780 1.270004 1013.00 873.98 31.83
14140 74.6830 1.269931 1010.00 871.16 31.78
14141 74.6880 1.269858 966.00 868.32 31.08
14142 74.6930 1.269786 912.00 865.47 30.20
14143 74.6980 1.269713 882.00 862.61 29.70
14144 74.7030 1.269641 863.00 859.75 29.38
14145 74.7080 1.269568 859.00 856.92 29.31
14146 74.7130 1.269496 853.00 854.11 29.21
14147 74.7180 1.269423 825.00 851.34 28.72
14148 74.7230 1.269351 809.00 848.61 28.44
14149 74.7280 1.269278 824.00 845.93 28.71
14150 74.7330 1.269205 856.00 843.31 29.26
14151 74.7380 1.269133 866.00 840.75 29.43
14152 74.7430 1.269060 853.00 838.26 29.21
14153 74.7480 1.268988 850.00 835.84 29.15
14154 74.7530 1.268915 851.00 833.50 29.17
14155 74.7580 1.268843 847.00 831.23 29.10
14156 74.7630 1.268770 846.00 829.04 29.09
14157 74.7680 1.268698 842.00 826.92 29.02
14158 74.7730 1.268625 832.00 824.89 28.84
14159 74.7780 1.268553 849.00 822.94 29.14
14160 74.7830 1.268481 847.00 821.06 29.10
14161 74.7880 1.268408 821.00 819.26 28.65
14162 74.7930 1.268336 808.00 817.53 28.43
14163 74.7980 1.268263 828.00 815.86 28.77
14164 74.8030 1.268191 862.00 814.27 29.36
14165 74.8080 1.268119 885.00 812.73 29.75
14166 74.8130 1.268046 883.00 811.25 29.72
14167 74.8180 1.267974 861.00 809.82 29.34
14168 74.8230 1.267902 832.00 808.44 28.84
14169 74.8280 1.267829 828.00 807.10 28.77
14170 74.8330 1.267757 830.00 805.80 28.81
14171 74.8380 1.267685 845.00 804.52 29.07
14172 74.8430 1.267613 841.00 803.27 29.00
14173 74.8480 1.267540 817.00 802.04 28.58
14174 74.8530 1.267468 796.00 800.82 28.21
14175 74.8580 1.267396 787.00 799.61 28.05
14176 74.8630 1.267323 780.00 798.41 27.93
14177 74.8680 1.267251 791.00 797.22 28.12
14178 74.8730 1.267179 826.00 796.02 28.74
14179 74.8780 1.267107 846.00 794.83 29.09
14180 74.8830 1.267035 832.00 793.63 28.84
14181 74.8880 1.266962 807.00 792.43 28.41
14182 74.8930 1.266890 791.00 791.22 28.12
14183 74.8980 1.266818 784.00 790.02 28.00
14184 74.9030 1.266746 790.00 788.81 28.11
14185 74.9080 1.266674 819.00 787.60 28.62
14186 74.9130 1.266601 830.00 786.40 28.81
14187 74.9180 1.266529 845.00 785.21 29.07
14188 74.9230 1.266457 843.00 784.03 29.03
14189 74.9280 1.266385 820.00 782.86 28.64
14190 74.9330 1.266313 818.00 781.70 28.60
14191 74.9380 1.266241 826.00 780.56 28.74
14192 74.9430 1.266169 804.00 779.44 28.35
14193 74.9480 1.266097 783.00 778.35 27.98
14194 74.9530 1.266025 753.00 777.28 27.44
14195 74.9580 1.265953 751.00 776.24 27.40
14196 74.9630 1.265881 759.00 775.22 27.55
14197 74.9680 1.265809 768.00 774.25 27.71
14198 74.9730 1.265737 775.00 773.32 27.84
14199 74.9780 1.265665 757.00 772.43 27.51
14200 74.9830 1.265593 733.00 771.58 27.07
14201 74.9880 1.265521 754.00 770.75 27.46
14202 74.9930 1.265449 776.00 769.98 27.86
14203 74.9980 1.265377 779.00 769.27 27.91
14204 75.0030 1.265305 795.00 768.60 28.20
14205 75.0080 1.265233 796.00 767.97 28.21
14206 75.0130 1.265161 807.00 767.39 28.41
14207 75.0180 1.265089 827.00 766.86 28.76
14208 75.0230 1.265017 839.00 766.37 28.97
14209 75.0280 1.264945 833.00 765.94 28.86
14210 75.0330 1.264873 804.00 765.54 28.35
14211 75.0380 1.264802 793.00 765.20 28.16
14212 75.0430 1.264729 776.00 764.90 27.86
14213 75.0480 1.264658 781.00 764.65 27.95
14214 75.0530 1.264586 797.00 764.45 28.23
14215 75.0580 1.264514 792.00 764.30 28.14
14216 75.0630 1.264442 767.00 764.18 27.69
14217 75.0680 1.264370 764.00 764.12 27.64
14218 75.0730 1.264299 772.00 764.09 27.78
14219 75.0780 1.264227 788.00 764.11 28.07
14220 75.0830 1.264155 805.00 764.17 28.37
14221 75.0880 1.264083 808.00 764.28 28.43
14222 75.0930 1.264012 798.00 764.42 28.25
14223 75.0980 1.263940 797.00 764.60 28.23
14224 75.1030 1.263868 794.00 764.81 28.18
14225 75.1080 1.263796 815.00 765.07 28.55
14226 75.1130 1.263725 818.00 765.36 28.60
14227 75.1180 1.263653 827.00 765.69 28.76
14228 75.1230 1.263581 823.00 766.04 28.69
14229 75.1280 1.263510 795.00 766.44 28.20
14230 75.1330 1.263438 782.00 766.86 27.96
14231 75.1380 1.263366 772.00 767.32 27.78
14232 75.1430 1.263294 766.00 767.81 27.68
14233 75.1480 1.263223 759.00 768.32 27.55
14234 75.1530 1.263151 764.00 768.87 27.64
14235 75.1580 1.263080 784.00 769.44 28.00
14236 75.1630 1.263008 815.00 770.04 28.55
14237 75.1680 1.262936 809.00 770.66 28.44
14238 75.1730 1.262865 779.00 771.31 27.91
14239 75.1780 1.262793 781.00 771.97 27.95
14240 75.1830 1.262722 798.00 772.66 28.25
14241 75.1880 1.262650 789.00 773.35 28.09
14242 75.1930 1.262578 746.00 774.06 27.31
14243 75.1980 1.262507 746.00 774.77 27.31
14244 75.2030 1.262435 756.00 775.49 27.50
14245 75.2080 1.262364 766.00 776.21 27.68
14246 75.2130 1.262292 745.00 776.93 27.29
14247 75.2180 1.262221 737.00 777.64 27.15
14248 75.2230 1.262149 754.00 778.33 27.46
14249 75.2280 1.262078 779.00 779.01 27.91
14250 75.2330 1.262006 772.00 779.67 27.78
14251 75.2380 1.261935 777.00 780.29 27.87
14252 75.2430 1.261864 768.00 780.89 27.71
14253 75.2480 1.261792 754.00 781.45 27.46
14254 75.2530 1.261721 761.00 781.97 27.59
14255 75.2580 1.261649 791.00 782.43 28.12
14256 75.2630 1.261578 844.00 782.86 29.05
14257 75.2680 1.261506 854.00 783.23 29.22
14258 75.2730 1.261435 837.00 783.56 28.93
14259 75.2780 1.261364 822.00 783.83 28.67
14260 75.2830 1.261292 799.00 784.05 28.27
14261 75.2880 1.261221 804.00 784.21 28.35
14262 75.2930 1.261150 817.00 784.31 28.58
14263 75.2980 1.261078 815.00 784.36 28.55
14264 75.3030 1.261007 811.00 784.36 28.48
14265 75.3080 1.260936 799.00 784.30 28.27
14266 75.3130 1.260864 794.00 784.21 28.18
14267 75.3180 1.260793 783.00 784.06 27.98
14268 75.3230 1.260722 786.00 783.88 28.04
14269 75.3280 1.260651 785.00 783.65 28.02
14270 75.3330 1.260579 780.00 783.40 27.93
14271 75.3380 1.260508 780.00 783.12 27.93
14272 75.3430 1.260437 793.00 782.81 28.16
14273 75.3480 1.260366 816.00 782.50 28.57
14274 75.3530 1.260294 854.00 782.16 29.22
14275 75.3580 1.260223 868.00 781.81 29.46
14276 75.3630 1.260152 839.00 781.45 28.97
14277 75.3680 1.260081 849.00 781.09 29.14
14278 75.3730 1.260010 841.00 780.74 29.00
14279 75.3780 1.259938 836.00 780.38 28.91
14280 75.3830 1.259867 798.00 780.04 28.25
14281 75.3880 1.259796 772.00 779.70 27.78
14282 75.3930 1.259725 779.00 779.38 27.91
14283 75.3980 1.259654 821.00 779.06 28.65
14284 75.4030 1.259583 849.00 778.77 29.14
14285 75.4080 1.259512 834.00 778.49 28.88
14286 75.4130 1.259441 825.00 778.24 28.72
14287 75.4180 1.259369 809.00 778.00 28.44
14288 75.4230 1.259298 832.00 777.78 28.84
14289 75.4280 1.259227 839.00 777.60 28.97
14290 75.4330 1.259156 849.00 777.42 29.14
14291 75.4380 1.259085 833.00 777.27 28.86
14292 75.4430 1.259014 835.00 777.15 28.90
14293 75.4480 1.258943 808.00 777.04 28.43
14294 75.4530 1.258872 761.00 776.96 27.59
14295 75.4580 1.258801 745.00 776.90 27.29
14296 75.4630 1.258730 755.00 776.86 27.48
14297 75.4680 1.258659 792.00 776.84 28.14
14298 75.4730 1.258588 811.00 776.85 28.48
14299 75.4780 1.258517 816.00 776.87 28.57
14300 75.4830 1.258446 799.00 776.92 28.27
14301 75.4880 1.258376 792.00 776.98 28.14
14302 75.4930 1.258305 784.00 777.07 28.00
14303 75.4980 1.258234 754.00 777.16 27.46
14304 75.5030 1.258163 745.00 777.28 27.29
14305 75.5080 1.258092 732.00 777.41 27.06
14306 75.5130 1.258021 749.00 777.55 27.37
14307 75.5180 1.257950 786.00 777.70 28.04
14308 75.5230 1.257879 802.00 777.86 28.32
14309 75.5280 1.257808 810.00 778.03 28.46
14310 75.5330 1.257738 791.00 778.20 28.12
14311 75.5380 1.257667 810.00 778.38 28.46
14312 75.5430 1.257596 789.00 778.55 28.09
14313 75.5480 1.257525 765.00 778.72 27.66
14314 75.5530 1.257454 751.00 778.89 27.40
14315 75.5580 1.257384 742.00 779.05 27.24
14316 75.5630 1.257313 755.00 779.21 27.48
14317 75.5680 1.257242 746.00 779.36 27.31
14318 75.5730 1.257171 737.00 779.49 27.15
14319 75.5780 1.257100 760.00 779.62 27.57
14320 75.5830 1.257030 800.00 779.73 28.28
14321 75.5880 1.256959 807.00 779.83 28.41
14322 75.5930 1.256888 814.00 779.91 28.53
14323 75.5980 1.256818 847.00 779.98 29.10
14324 75.6030 1.256747 816.00 780.04 28.57
14325 75.6080 1.256676 804.00 780.08 28.35
14326 75.6130 1.256606 780.00 780.11 27.93
14327 75.6180 1.256535 790.00 780.13 28.11
14328 75.6230 1.256464 806.00 780.13 28.39
14329 75.6280 1.256394 787.00 780.14 28.05
14330 75.6330 1.256323 806.00 780.13 28.39
14331 75.6380 1.256252 801.00 780.14 28.30
14332 75.6430 1.256182 771.00 780.12 27.77
14333 75.6480 1.256111 757.00 780.12 27.51
14334 75.6530 1.256041 770.00 780.09 27.75
14335 75.6580 1.255970 781.00 780.08 27.95
14336 75.6630 1.255899 758.00 780.05 27.53
14337 75.6680 1.255829 752.00 780.05 27.42
14338 75.6730 1.255758 787.00 780.06 28.05
14339 75.6780 1.255688 822.00 780.07 28.67
14340 75.6830 1.255617 816.00 780.09 28.57
14341 75.6880 1.255547 808.00 780.13 28.43
14342 75.6930 1.255476 805.00 780.17 28.37
14343 75.6980 1.255406 816.00 780.22 28.57
14344 75.7030 1.255335 791.00 780.29 28.12
14345 75.7080 1.255265 771.00 780.36 27.77
14346 75.7130 1.255194 774.00 780.45 27.82
14347 75.7180 1.255124 768.00 780.54 27.71
14348 75.7230 1.255053 793.00 780.64 28.16
14349 75.7280 1.254983 795.00 780.76 28.20
14350 75.7330 1.254912 778.00 780.89 27.89
14351 75.7380 1.254842 771.00 781.02 27.77
14352 75.7430 1.254772 758.00 781.17 27.53
14353 75.7480 1.254701 736.00 781.33 27.13
14354 75.7530 1.254631 728.00 781.49 26.98
14355 75.7580 1.254560 726.00 781.67 26.94
14356 75.7630 1.254490 745.00 781.86 27.29
14357 75.7680 1.254420 759.00 782.06 27.55
14358 75.7730 1.254349 782.00 782.27 27.96
14359 75.7780 1.254279 788.00 782.49 28.07
14360 75.7830 1.254209 780.00 782.73 27.93
14361 75.7880 1.254138 786.00 782.91 28.04
14362 75.7930 1.254068 781.00 783.15 27.95
14363 75.7980 1.253998 785.00 783.42 28.02
14364 75.8030 1.253928 809.00 783.71 28.44
14365 75.8080 1.253857 804.00 784.01 28.35
14366 75.8130 1.253787 808.00 784.32 28.43
14367 75.8180 1.253717 808.00 784.65 28.43
14368 75.8230 1.253646 806.00 785.02 28.39
14369 75.8280 1.253576 801.00 785.38 28.30
14370 75.8330 1.253506 824.00 785.77 28.71
14371 75.8380 1.253436 843.00 786.17 29.03
14372 75.8430 1.253366 839.00 786.59 28.97
14373 75.8480 1.253295 816.00 787.03 28.57
14374 75.8530 1.253225 788.00 787.50 28.07
14375 75.8580 1.253155 786.00 787.98 28.04
14376 75.8630 1.253085 790.00 788.49 28.11
14377 75.8680 1.253015 791.00 789.04 28.12
14378 75.8730 1.252945 769.00 789.60 27.73
14379 75.8780 1.252874 760.00 790.20 27.57
14380 75.8830 1.252804 776.00 790.83 27.86
14381 75.8880 1.252734 776.00 791.49 27.86
14382 75.8930 1.252664 764.00 792.19 27.64
14383 75.8980 1.252594 760.00 792.93 27.57
14384 75.9030 1.252524 772.00 793.71 27.78
14385 75.9080 1.252454 801.00 794.54 28.30
14386 75.9130 1.252384 815.00 795.42 28.55
14387 75.9180 1.252314 804.00 796.35 28.35
14388 75.9230 1.252244 782.00 797.34 27.96
14389 75.9280 1.252174 769.00 798.39 27.73
14390 75.9330 1.252104 767.00 799.50 27.69
14391 75.9380 1.252034 784.00 800.67 28.00
14392 75.9430 1.251964 822.00 801.91 28.67
14393 75.9480 1.251894 832.00 803.23 28.84
14394 75.9530 1.251824 829.00 804.62 28.79
14395 75.9580 1.251754 819.00 806.10 28.62
14396 75.9630 1.251684 824.00 807.65 28.71
14397 75.9680 1.251614 785.00 809.27 28.02
14398 75.9730 1.251544 780.00 810.97 27.93
14399 75.9780 1.251474 801.00 812.74 28.30
14400 75.9830 1.251404 833.00 814.60 28.86
14401 75.9880 1.251334 817.00 816.54 28.58
14402 75.9930 1.251264 795.00 818.55 28.20
14403 75.9980 1.251194 783.00 820.64 27.98
14404 76.0030 1.251125 794.00 822.80 28.18
14405 76.0080 1.251055 784.00 825.02 28.00
14406 76.0130 1.250985 784.00 827.31 28.00
14407 76.0180 1.250915 780.00 829.66 27.93
14408 76.0230 1.250845 791.00 832.07 28.12
14409 76.0280 1.250775 807.00 834.52 28.41
14410 76.0330 1.250706 822.00 837.01 28.67
14411 76.0380 1.250636 825.00 839.53 28.72
14412 76.0430 1.250566 801.00 842.09 28.30
14413 76.0480 1.250496 772.00 844.66 27.78
14414 76.0530 1.250426 763.00 847.24 27.62
14415 76.0580 1.250357 759.00 849.82 27.55
14416 76.0630 1.250287 759.00 852.39 27.55
14417 76.0680 1.250217 790.00 854.95 28.11
14418 76.0730 1.250147 821.00 857.47 28.65
14419 76.0780 1.250078 821.00 859.97 28.65
14420 76.0830 1.250008 809.00 862.43 28.44
14421 76.0880 1.249938 818.00 864.84 28.60
14422 76.0930 1.249869 825.00 867.20 28.72
14423 76.0980 1.249799 804.00 869.49 28.35
14424 76.1030 1.249729 795.00 871.73 28.20
14425 76.1080 1.249660 817.00 873.90 28.58
14426 76.1130 1.249590 818.00 876.00 28.60
14427 76.1180 1.249520 823.00 878.03 28.69
14428 76.1230 1.249451 837.00 880.00 28.93
14429 76.1280 1.249381 855.00 881.90 29.24
14430 76.1330 1.249311 835.00 883.75 28.90
14431 76.1380 1.249242 822.00 885.53 28.67
14432 76.1430 1.249172 842.00 887.24 29.02
14433 76.1480 1.249103 858.00 888.90 29.29
14434 76.1530 1.249033 872.00 890.50 29.53
14435 76.1580 1.248964 900.00 892.06 30.00
14436 76.1630 1.248894 904.00 893.56 30.07
14437 76.1680 1.248824 878.00 895.01 29.63
14438 76.1730 1.248755 862.00 896.41 29.36
14439 76.1780 1.248685 849.00 897.77 29.14
14440 76.1830 1.248616 835.00 899.08 28.90
14441 76.1880 1.248546 833.00 900.35 28.86
14442 76.1930 1.248477 847.00 901.56 29.10
14443 76.1980 1.248407 843.00 902.71 29.03
14444 76.2030 1.248338 843.00 903.81 29.03
14445 76.2080 1.248268 837.00 904.85 28.93
14446 76.2130 1.248199 847.00 905.82 29.10
14447 76.2180 1.248130 879.00 906.71 29.65
14448 76.2230 1.248060 898.00 907.52 29.97
14449 76.2280 1.247991 892.00 908.25 29.87
14450 76.2330 1.247921 880.00 908.88 29.66
14451 76.2380 1.247852 857.00 909.41 29.27
14452 76.2430 1.247783 852.00 909.82 29.19
14453 76.2480 1.247713 866.00 910.12 29.43
14454 76.2530 1.247644 890.00 910.30 29.83
14455 76.2580 1.247574 898.00 910.35 29.97
14456 76.2630 1.247505 917.00 910.28 30.28
14457 76.2680 1.247436 922.00 910.05 30.36
14458 76.2730 1.247366 910.00 909.68 30.17
14459 76.2780 1.247297 895.00 909.17 29.92
14460 76.2830 1.247228 895.00 908.50 29.92
14461 76.2880 1.247159 899.00 907.68 29.98
14462 76.2930 1.247089 911.00 906.72 30.18
14463 76.2980 1.247020 921.00 905.61 30.35
14464 76.3030 1.246951 916.00 904.37 30.27
14465 76.3080 1.246881 904.00 902.98 30.07
14466 76.3130 1.246812 913.00 901.45 30.22
14467 76.3180 1.246743 947.00 899.80 30.77
14468 76.3230 1.246674 952.00 898.03 30.85
14469 76.3280 1.246605 917.00 896.16 30.28
14470 76.3330 1.246535 884.00 894.17 29.73
14471 76.3380 1.246466 860.00 892.09 29.33
14472 76.3430 1.246397 845.00 889.92 29.07
14473 76.3480 1.246328 851.00 887.67 29.17
14474 76.3530 1.246259 858.00 885.36 29.29
14475 76.3580 1.246189 851.00 882.99 29.17
14476 76.3630 1.246120 831.00 880.59 28.83
14477 76.3680 1.246051 829.00 878.16 28.79
14478 76.3730 1.245982 860.00 875.71 29.33
14479 76.3780 1.245913 883.00 873.25 29.72
14480 76.3830 1.245844 893.00 870.79 29.88
14481 76.3880 1.245775 907.00 868.35 30.12
14482 76.3930 1.245706 909.00 865.93 30.15
14483 76.3980 1.245637 895.00 863.55 29.92
14484 76.4030 1.245568 882.00 861.21 29.70
14485 76.4080 1.245499 862.00 858.91 29.36
14486 76.4130 1.245429 844.00 856.68 29.05
14487 76.4180 1.245360 831.00 854.51 28.83
14488 76.4230 1.245291 827.00 852.41 28.76
14489 76.4280 1.245222 818.00 850.40 28.60
14490 76.4330 1.245153 818.00 848.47 28.60
14491 76.4380 1.245084 824.00 846.62 28.71
14492 76.4430 1.245015 829.00 844.87 28.79
14493 76.4480 1.244946 851.00 843.22 29.17
14494 76.4530 1.244877 870.00 841.66 29.50
14495 76.4580 1.244808 868.00 840.20 29.46
14496 76.4630 1.244740 851.00 838.83 29.17
14497 76.4680 1.244671 821.00 837.54 28.65
14498 76.4730 1.244602 815.00 836.37 28.55
14499 76.4780 1.244533 809.00 835.30 28.44
14500 76.4830 1.244464 810.00 834.34 28.46
14501 76.4880 1.244395 817.00 833.46 28.58
14502 76.4930 1.244326 820.00 832.66 28.64
14503 76.4980 1.244257 821.00 831.95 28.65
14504 76.5030 1.244188 830.00 831.32 28.81
14505 76.5080 1.244119 833.00 830.76 28.86
14506 76.5130 1.244051 832.00 830.27 28.84
14507 76.5180 1.243982 837.00 829.81 28.93
14508 76.5230 1.243913 830.00 829.45 28.81
14509 76.5280 1.243844 803.00 829.16 28.34
14510 76.5330 1.243775 797.00 828.89 28.23
14511 76.5380 1.243706 818.00 828.66 28.60
14512 76.5430 1.243638 837.00 828.47 28.93
14513 76.5480 1.243569 848.00 828.30 29.12
14514 76.5530 1.243500 866.00 828.15 29.43
14515 76.5580 1.243431 881.00 828.01 29.68
14516 76.5630 1.243363 869.00 827.88 29.48
14517 76.5680 1.243294 845.00 827.74 29.07
14518 76.5730 1.243225 841.00 827.61 29.00
14519 76.5780 1.243156 844.00 827.46 29.05
14520 76.5830 1.243088 849.00 827.29 29.14
14521 76.5880 1.243019 843.00 827.11 29.03
14522 76.5930 1.242950 821.00 826.92 28.65
14523 76.5980 1.242882 822.00 826.69 28.67
14524 76.6030 1.242813 835.00 826.44 28.90
14525 76.6080 1.242744 837.00 826.16 28.93
14526 76.6130 1.242676 825.00 825.85 28.72
14527 76.6180 1.242607 811.00 825.51 28.48
14528 76.6230 1.242539 810.00 825.14 28.46
14529 76.6280 1.242470 823.00 824.74 28.69
14530 76.6330 1.242401 837.00 824.32 28.93
14531 76.6380 1.242333 845.00 823.87 29.07
14532 76.6430 1.242264 848.00 823.38 29.12
14533 76.6480 1.242195 846.00 822.88 29.09
14534 76.6530 1.242127 824.00 822.35 28.71
14535 76.6580 1.242059 815.00 821.80 28.55
14536 76.6630 1.241990 828.00 821.24 28.77
14537 76.6680 1.241921 837.00 820.67 28.93
14538 76.6730 1.241853 844.00 820.09 29.05
14539 76.6780 1.241784 848.00 819.51 29.12
14540 76.6830 1.241716 836.00 818.93 28.91
14541 76.6880 1.241647 828.00 818.36 28.77
14542 76.6930 1.241579 833.00 817.79 28.86
14543 76.6980 1.241510 845.00 817.23 29.07
14544 76.7030 1.241442 850.00 816.69 29.15
14545 76.7080 1.241373 843.00 816.16 29.03
14546 76.7130 1.241305 835.00 815.66 28.90
14547 76.7180 1.241237 834.00 815.17 28.88
14548 76.7230 1.241168 828.00 814.71 28.77
14549 76.7280 1.241100 828.00 814.28 28.77
14550 76.7330 1.241031 831.00 813.87 28.83
14551 76.7380 1.240963 825.00 813.49 28.72
14552 76.7430 1.240894 817.00 813.14 28.58
14553 76.7480 1.240826 800.00 812.83 28.28
14554 76.7530 1.240758 793.00 812.55 28.16
14555 76.7580 1.240689 788.00 812.30 28.07
14556 76.7630 1.240621 770.00 812.10 27.75
14557 76.7680 1.240553 755.00 811.92 27.48
14558 76.7730 1.240484 770.00 811.77 27.75
14559 76.7780 1.240416 788.00 811.65 28.07
14560 76.7830 1.240348 790.00 811.57 28.11
14561 76.7880 1.240279 797.00 811.52 28.23
14562 76.7930 1.240211 796.00 811.49 28.21
14563 76.7980 1.240143 784.00 811.50 28.00
14564 76.8030 1.240075 769.00 811.54 27.73
14565 76.8080 1.240006 770.00 811.60 27.75
14566 76.8130 1.239938 799.00 811.69 28.27
14567 76.8180 1.239870 831.00 811.80 28.83
14568 76.8230 1.239802 839.00 811.94 28.97
14569 76.8280 1.239733 840.00 812.10 28.98
14570 76.8330 1.239665 848.00 812.27 29.12
14571 76.8380 1.239597 859.00 812.47 29.31
14572 76.8430 1.239529 853.00 812.69 29.21
14573 76.8480 1.239461 824.00 812.92 28.71
14574 76.8530 1.239393 813.00 813.17 28.51
14575 76.8580 1.239324 818.00 813.45 28.60
14576 76.8630 1.239256 820.00 813.73 28.64
14577 76.8680 1.239188 826.00 814.04 28.74
14578 76.8730 1.239120 830.00 814.37 28.81
14579 76.8780 1.239052 837.00 814.72 28.93
14580 76.8830 1.238984 840.00 815.09 28.98
14581 76.8880 1.238916 823.00 815.48 28.69
14582 76.8930 1.238847 813.00 815.89 28.51
14583 76.8980 1.238779 824.00 816.33 28.71
14584 76.9030 1.238711 835.00 816.79 28.90
14585 76.9080 1.238643 833.00 817.27 28.86
14586 76.9130 1.238575 828.00 817.77 28.77
14587 76.9180 1.238507 823.00 818.30 28.69
14588 76.9230 1.238439 826.00 818.84 28.74
14589 76.9280 1.238371 826.00 819.41 28.74
14590 76.9330 1.238303 838.00 819.99 28.95
14591 76.9380 1.238235 849.00 820.59 29.14
14592 76.9430 1.238167 830.00 821.20 28.81
14593 76.9480 1.238099 803.00 821.81 28.34
14594 76.9530 1.238031 790.00 822.43 28.11
14595 76.9580 1.237963 781.00 823.05 27.95
14596 76.9630 1.237895 793.00 823.65 28.16
14597 76.9680 1.237827 799.00 824.24 28.27
14598 76.9730 1.237759 793.00 824.84 28.16
14599 76.9780 1.237691 800.00 825.42 28.28
14600 76.9830 1.237623 824.00 825.98 28.71
14601 76.9880 1.237556 832.00 826.53 28.84
14602 76.9930 1.237488 826.00 827.04 28.74
14603 76.9980 1.237420 818.00 827.51 28.60
14604 77.0030 1.237352 814.00 827.94 28.53
14605 77.0080 1.237284 825.00 828.34 28.72
14606 77.0130 1.237216 835.00 828.68 28.90
14607 77.0180 1.237148 833.00 828.98 28.86
14608 77.0230 1.237080 844.00 829.23 29.05
14609 77.0280 1.237013 852.00 829.44 29.19
14610 77.0330 1.236945 832.00 829.59 28.84
14611 77.0380 1.236877 801.00 829.69 28.30
14612 77.0430 1.236809 797.00 829.74 28.23
14613 77.0480 1.236742 798.00 829.74 28.25
14614 77.0530 1.236674 798.00 829.69 28.25
14615 77.0580 1.236606 811.00 829.60 28.48
14616 77.0630 1.236538 835.00 829.47 28.90
14617 77.0680 1.236470 846.00 829.30 29.09
14618 77.0730 1.236403 840.00 829.09 28.98
14619 77.0780 1.236335 844.00 828.86 29.05
14620 77.0830 1.236267 848.00 828.59 29.12
14621 77.0880 1.236200 846.00 828.30 29.09
14622 77.0930 1.236132 857.00 827.99 29.27
14623 77.0980 1.236064 871.00 827.67 29.51
14624 77.1030 1.235996 867.00 827.34 29.44
14625 77.1080 1.235929 866.00 826.99 29.43
14626 77.1130 1.235861 870.00 826.65 29.50
14627 77.1180 1.235793 841.00 826.30 29.00
14628 77.1230 1.235726 820.00 825.97 28.64
14629 77.1280 1.235658 810.00 825.63 28.46
14630 77.1330 1.235591 820.00 825.32 28.64
14631 77.1380 1.235523 827.00 825.01 28.76
14632 77.1430 1.235455 822.00 824.72 28.67
14633 77.1480 1.235388 819.00 824.46 28.62
14634 77.1530 1.235320 803.00 824.22 28.34
14635 77.1580 1.235253 769.00 824.00 27.73
14636 77.1630 1.235185 756.00 823.81 27.50
14637 77.1680 1.235117 752.00 823.64 27.42
14638 77.1730 1.235050 763.00 823.51 27.62
14639 77.1780 1.234982 786.00 823.40 28.04
14640 77.1830 1.234915 828.00 823.32 28.77
14641 77.1880 1.234847 855.00 823.26 29.24
14642 77.1930 1.234780 843.00 823.22 29.03
14643 77.1980 1.234712 821.00 823.22 28.65
14644 77.2030 1.234645 830.00 823.24 28.81
14645 77.2080 1.234577 849.00 823.29 29.14
14646 77.2130 1.234510 831.00 823.36 28.83
14647 77.2180 1.234442 843.00 823.45 29.03
14648 77.2230 1.234375 841.00 823.56 29.00
14649 77.2280 1.234308 808.00 823.66 28.43
14650 77.2330 1.234240 779.00 823.76 27.91
14651 77.2380 1.234173 758.00 823.88 27.53
14652 77.2430 1.234105 745.00 823.98 27.29
14653 77.2480 1.234038 734.00 824.09 27.09
14654 77.2530 1.233971 746.00 824.17 27.31
14655 77.2580 1.233903 742.00 824.24 27.24
14656 77.2630 1.233836 745.00 824.29 27.29
14657 77.2680 1.233769 763.00 824.32 27.62
14658 77.2730 1.233701 760.00 824.32 27.57
14659 77.2780 1.233634 770.00 824.28 27.75
14660 77.2830 1.233566 778.00 824.22 27.89
14661 77.2880 1.233499 781.00 824.12 27.95
14662 77.2930 1.233432 774.00 823.99 27.82
14663 77.2980 1.233365 773.00 823.84 27.80
14664 77.3030 1.233297 786.00 823.64 28.04
14665 77.3080 1.233230 780.00 823.43 27.93
14666 77.3130 1.233163 791.00 823.18 28.12
14667 77.3180 1.233095 834.00 822.91 28.88
14668 77.3230 1.233028 878.00 822.63 29.63
14669 77.3280 1.232961 880.00 822.34 29.66
14670 77.3330 1.232894 867.00 822.06 29.44
14671 77.3380 1.232826 844.00 821.76 29.05
14672 77.3430 1.232759 851.00 821.46 29.17
14673 77.3480 1.232692 823.00 821.17 28.69
14674 77.3530 1.232625 801.00 820.89 28.30
14675 77.3580 1.232558 800.00 820.63 28.28
14676 77.3630 1.232491 760.00 820.40 27.57
14677 77.3680 1.232423 732.00 820.20 27.06
14678 77.3730 1.232356 766.00 820.02 27.68
14679 77.3780 1.232289 807.00 819.89 28.41
14680 77.3830 1.232222 842.00 819.79 29.02
14681 77.3880 1.232155 821.00 819.73 28.65
14682 77.3930 1.232088 788.00 819.72 28.07
14683 77.3980 1.232020 784.00 819.75 28.00
14684 77.4030 1.231954 770.00 819.82 27.75
14685 77.4080 1.231886 767.00 819.95 27.69
14686 77.4130 1.231819 781.00 820.12 27.95
14687 77.4180 1.231752 806.00 820.33 28.39
14688 77.4230 1.231685 827.00 820.58 28.76
14689 77.4280 1.231618 870.00 820.88 29.50
14690 77.4330 1.231551 877.00 821.22 29.61
14691 77.4380 1.231484 861.00 821.59 29.34
14692 77.4430 1.231417 862.00 822.02 29.36
14693 77.4480 1.231350 837.00 822.47 28.93
14694 77.4530 1.231283 815.00 822.95 28.55
14695 77.4580 1.231216 828.00 823.42 28.77
14696 77.4630 1.231149 828.00 823.96 28.77
14697 77.4680 1.231082 787.00 824.51 28.05
14698 77.4730 1.231015 762.00 825.09 27.60
14699 77.4780 1.230948 791.00 825.69 28.12
14700 77.4830 1.230881 821.00 826.31 28.65
14701 77.4880 1.230814 818.00 826.94 28.60
14702 77.4930 1.230747 846.00 827.55 29.09
14703 77.4980 1.230680 840.00 828.21 28.98
14704 77.5030 1.230613 818.00 828.86 28.60
14705 77.5080 1.230547 841.00 829.55 29.00
14706 77.5130 1.230480 869.00 830.24 29.48
14707 77.5180 1.230413 853.00 830.95 29.21
14708 77.5230 1.230346 816.00 831.67 28.57
14709 77.5280 1.230279 800.00 832.40 28.28
14710 77.5330 1.230212 800.00 833.14 28.28
14711 77.5380 1.230145 817.00 833.89 28.58
14712 77.5430 1.230079 829.00 834.65 28.79
14713 77.5480 1.230012 826.00 835.43 28.74
14714 77.5530 1.229945 847.00 836.22 29.10
14715 77.5580 1.229878 851.00 837.02 29.17
14716 77.5630 1.229811 850.00 837.83 29.15
14717 77.5680 1.229745 840.00 838.65 28.98
14718 77.5730 1.229678 852.00 839.48 29.19
14719 77.5780 1.229611 859.00 840.32 29.31
14720 77.5830 1.229544 856.00 841.16 29.26
14721 77.5880 1.229478 861.00 842.01 29.34
14722 77.5930 1.229411 846.00 842.85 29.09
14723 77.5980 1.229344 853.00 843.69 29.21
14724 77.6030 1.229278 871.00 844.52 29.51
14725 77.6080 1.229211 843.00 845.34 29.03
14726 77.6130 1.229144 831.00 846.14 28.83
14727 77.6180 1.229077 844.00 846.92 29.05
14728 77.6230 1.229011 864.00 847.66 29.39
14729 77.6280 1.228944 859.00 848.38 29.31
14730 77.6330 1.228877 863.00 849.06 29.38
14731 77.6380 1.228811 848.00 849.69 29.12
14732 77.6430 1.228744 856.00 850.27 29.26
14733 77.6480 1.228677 867.00 850.79 29.44
14734 77.6530 1.228611 851.00 851.25 29.17
14735 77.6580 1.228544 859.00 851.64 29.31
14736 77.6630 1.228478 874.00 851.95 29.56
14737 77.6680 1.228411 876.00 852.19 29.60
14738 77.6730 1.228345 883.00 852.34 29.72
14739 77.6780 1.228278 918.00 852.39 30.30
14740 77.6830 1.228211 877.00 852.36 29.61
14741 77.6880 1.228145 865.00 852.24 29.41
14742 77.6930 1.228078 876.00 852.03 29.60
14743 77.6980 1.228012 872.00 851.72 29.53
14744 77.7030 1.227945 861.00 851.32 29.34
14745 77.7080 1.227879 850.00 850.82 29.15
14746 77.7130 1.227812 845.00 850.22 29.07
14747 77.7180 1.227746 821.00 849.52 28.65
14748 77.7230 1.227679 812.00 848.73 28.50
14749 77.7280 1.227613 819.00 847.86 28.62
14750 77.7330 1.227546 814.00 846.91 28.53
14751 77.7380 1.227480 819.00 845.87 28.62
14752 77.7430 1.227414 830.00 844.74 28.81
14753 77.7480 1.227347 842.00 843.55 29.02
14754 77.7530 1.227281 856.00 842.27 29.26
14755 77.7580 1.227214 865.00 840.93 29.41
14756 77.7630 1.227148 876.00 839.52 29.60
14757 77.7680 1.227081 836.00 838.04 28.91
14758 77.7730 1.227015 845.00 836.51 29.07
14759 77.7780 1.226948 823.00 834.92 28.69
14760 77.7830 1.226882 786.00 833.27 28.04
14761 77.7880 1.226816 813.00 831.58 28.51
14762 77.7930 1.226750 825.00 829.84 28.72
14763 77.7980 1.226683 841.00 828.05 29.00
14764 77.8030 1.226617 822.00 826.23 28.67
14765 77.8080 1.226550 845.00 824.37 29.07
14766 77.8130 1.226484 828.00 822.48 28.77
14767 77.8180 1.226418 803.00 820.57 28.34
14768 77.8230 1.226352 782.00 818.63 27.96
14769 77.8280 1.226285 794.00 816.68 28.18
14770 77.8330 1.226219 843.00 814.71 29.03
14771 77.8380 1.226153 837.00 812.74 28.93
14772 77.8430 1.226086 832.00 810.77 28.84
14773 77.8480 1.226020 824.00 808.80 28.71
14774 77.8530 1.225954 804.00 806.83 28.35
14775 77.8580 1.225888 786.00 804.89 28.04
14776 77.8630 1.225822 795.00 802.96 28.20
14777 77.8680 1.225755 839.00 801.05 28.97
14778 77.8730 1.225689 829.00 799.18 28.79
14779 77.8780 1.225623 826.00 797.34 28.74
14780 77.8830 1.225557 820.00 795.54 28.64
14781 77.8880 1.225491 797.00 793.79 28.23
14782 77.8930 1.225424 765.00 792.09 27.66
14783 77.8980 1.225358 766.00 790.45 27.68
14784 77.9030 1.225292 777.00 788.86 27.87
14785 77.9080 1.225226 757.00 787.33 27.51
14786 77.9130 1.225160 751.00 785.86 27.40
14787 77.9180 1.225094 765.00 784.47 27.66
14788 77.9230 1.225028 790.00 783.14 28.11
14789 77.9280 1.224962 807.00 781.89 28.41
14790 77.9330 1.224895 805.00 780.70 28.37
14791 77.9380 1.224829 811.00 779.60 28.48
14792 77.9430 1.224763 794.00 778.57 28.18
14793 77.9480 1.224697 784.00 777.62 28.00
14794 77.9530 1.224631 770.00 776.75 27.75
14795 77.9580 1.224565 760.00 775.96 27.57
14796 77.9630 1.224499 754.00 775.25 27.46
14797 77.9680 1.224433 765.00 774.62 27.66
14798 77.9730 1.224367 758.00 774.07 27.53
14799 77.9780 1.224301 775.00 773.62 27.84
14800 77.9830 1.224235 810.00 773.23 28.46
14801 77.9880 1.224169 818.00 772.92 28.60
14802 77.9930 1.224103 797.00 772.69 28.23
14803 77.9980 1.224037 773.00 772.54 27.80
14804 78.0030 1.223971 752.00 772.46 27.42
14805 78.0080 1.223905 719.00 772.46 26.81
14806 78.0130 1.223840 708.00 772.53 26.61
14807 78.0180 1.223774 758.00 772.68 27.53
14808 78.0230 1.223708 793.00 772.90 28.16
14809 78.0280 1.223642 797.00 773.18 28.23
14810 78.0330 1.223576 793.00 773.52 28.16
14811 78.0380 1.223510 787.00 773.93 28.05
14812 78.0430 1.223444 788.00 774.40 28.07
14813 78.0480 1.223378 800.00 774.93 28.28
14814 78.0530 1.223312 823.00 775.52 28.69
14815 78.0580 1.223246 823.00 776.16 28.69
14816 78.0630 1.223181 803.00 776.85 28.34
14817 78.0680 1.223115 759.00 777.58 27.55
14818 78.0730 1.223049 779.00 778.35 27.91
14819 78.0780 1.222983 750.00 779.17 27.39
14820 78.0830 1.222917 744.00 780.02 27.28
14821 78.0880 1.222852 757.00 780.90 27.51
14822 78.0930 1.222786 774.00 781.81 27.82
14823 78.0980 1.222720 789.00 782.74 28.09
14824 78.1030 1.222654 790.00 783.70 28.11
14825 78.1080 1.222589 774.00 784.67 27.82
14826 78.1130 1.222523 764.00 785.65 27.64
14827 78.1180 1.222457 776.00 786.64 27.86
14828 78.1230 1.222391 790.00 787.64 28.11
14829 78.1280 1.222326 800.00 788.63 28.28
14830 78.1330 1.222260 814.00 789.63 28.53
14831 78.1380 1.222194 827.00 790.60 28.76
14832 78.1430 1.222129 846.00 791.58 29.09
14833 78.1480 1.222063 807.00 792.54 28.41
14834 78.1530 1.221997 774.00 793.49 27.82
14835 78.1580 1.221932 789.00 794.42 28.09
14836 78.1630 1.221866 787.00 795.33 28.05
14837 78.1680 1.221800 807.00 796.22 28.41
14838 78.1730 1.221735 841.00 797.08 29.00
14839 78.1780 1.221669 828.00 797.92 28.77
14840 78.1830 1.221603 848.00 798.74 29.12
14841 78.1880 1.221538 836.00 799.54 28.91
14842 78.1930 1.221472 775.00 800.31 27.84
14843 78.1980 1.221407 764.00 801.06 27.64
14844 78.2030 1.221341 763.00 801.79 27.62
14845 78.2080 1.221275 755.00 802.51 27.48
14846 78.2130 1.221210 757.00 803.21 27.51
14847 78.2180 1.221144 754.00 803.90 27.46
14848 78.2230 1.221079 790.00 804.58 28.11
14849 78.2280 1.221013 826.00 805.25 28.74
14850 78.2330 1.220948 800.00 805.92 28.28
14851 78.2380 1.220882 769.00 806.60 27.73
14852 78.2430 1.220817 751.00 807.28 27.40
14853 78.2480 1.220751 782.00 807.98 27.96
14854 78.2530 1.220686 796.00 808.68 28.21
14855 78.2580 1.220620 778.00 809.39 27.89
14856 78.2630 1.220555 791.00 810.12 28.12
14857 78.2680 1.220489 813.00 810.88 28.51
14858 78.2730 1.220424 800.00 811.65 28.28
14859 78.2780 1.220358 771.00 812.45 27.77
14860 78.2830 1.220293 772.00 813.28 27.78
14861 78.2880 1.220228 762.00 814.11 27.60
14862 78.2930 1.220162 763.00 814.99 27.62
14863 78.2980 1.220097 782.00 815.90 27.96
14864 78.3030 1.220031 797.00 816.83 28.23
14865 78.3080 1.219966 787.00 817.79 28.05
14866 78.3130 1.219901 773.00 818.78 27.80
14867 78.3180 1.219835 809.00 819.78 28.44
14868 78.3230 1.219770 849.00 820.81 29.14
14869 78.3280 1.219705 829.00 821.86 28.79
14870 78.3330 1.219639 791.00 822.91 28.12
14871 78.3380 1.219574 780.00 823.98 27.93
14872 78.3430 1.219509 807.00 825.05 28.41
14873 78.3480 1.219443 804.00 826.13 28.35
14874 78.3530 1.219378 798.00 827.20 28.25
14875 78.3580 1.219313 799.00 828.26 28.27
14876 78.3630 1.219248 806.00 829.31 28.39
14877 78.3680 1.219182 788.00 830.34 28.07
14878 78.3730 1.219117 758.00 831.35 27.53
14879 78.3780 1.219052 762.00 832.33 27.60
14880 78.3830 1.218986 813.00 833.28 28.51
14881 78.3880 1.218921 853.00 834.20 29.21
14882 78.3930 1.218856 828.00 835.07 28.77
14883 78.3980 1.218791 800.00 835.91 28.28
14884 78.4030 1.218726 794.00 836.69 28.18
14885 78.4080 1.218660 797.00 837.43 28.23
14886 78.4130 1.218595 804.00 838.11 28.35
14887 78.4180 1.218530 811.00 838.74 28.48
14888 78.4230 1.218465 815.00 839.33 28.55
14889 78.4280 1.218400 822.00 839.85 28.67
14890 78.4330 1.218335 843.00 840.32 29.03
14891 78.4380 1.218269 839.00 840.73 28.97
14892 78.4430 1.218204 841.00 841.09 29.00
14893 78.4480 1.218139 842.00 841.40 29.02
14894 78.4530 1.218074 856.00 841.66 29.26
14895 78.4580 1.218009 881.00 841.86 29.68
14896 78.4630 1.217944 881.00 842.01 29.68
14897 78.4680 1.217879 864.00 842.12 29.39
14898 78.4730 1.217814 847.00 842.17 29.10
14899 78.4780 1.217749 838.00 842.17 28.95
14900 78.4830 1.217684 839.00 842.12 28.97
14901 78.4880 1.217619 832.00 842.03 28.84
14902 78.4930 1.217554 836.00 841.88 28.91
14903 78.4980 1.217489 819.00 841.68 28.62
14904 78.5030 1.217424 811.00 841.43 28.48
14905 78.5080 1.217358 847.00 841.12 29.10
14906 78.5130 1.217294 874.00 840.76 29.56
14907 78.5180 1.217229 872.00 840.34 29.53
14908 78.5230 1.217163 867.00 839.85 29.44
14909 78.5280 1.217099 861.00 839.30 29.34
14910 78.5330 1.217034 841.00 838.68 29.00
14911 78.5380 1.216969 820.00 837.99 28.64
14912 78.5430 1.216904 809.00 837.23 28.44
14913 78.5480 1.216839 811.00 836.40 28.48
14914 78.5530 1.216774 828.00 835.49 28.77
14915 78.5580 1.216709 834.00 834.51 28.88
14916 78.5630 1.216644 834.00 833.43 28.88
14917 78.5680 1.216579 843.00 832.30 29.03
14918 78.5730 1.216514 823.00 831.08 28.69
14919 78.5780 1.216449 814.00 829.78 28.53
14920 78.5830 1.216385 815.00 828.41 28.55
14921 78.5880 1.216320 821.00 826.96 28.65
14922 78.5930 1.216255 841.00 825.45 29.00
14923 78.5980 1.216190 840.00 823.87 28.98
14924 78.6030 1.216125 817.00 822.23 28.58
14925 78.6080 1.216060 818.00 820.54 28.60
14926 78.6130 1.215996 808.00 818.80 28.43
14927 78.6180 1.215931 788.00 817.02 28.07
14928 78.6230 1.215866 791.00 815.20 28.12
14929 78.6280 1.215801 811.00 813.35 28.48
14930 78.6330 1.215736 802.00 811.47 28.32
14931 78.6380 1.215672 792.00 809.58 28.14
14932 78.6430 1.215607 783.00 807.66 27.98
14933 78.6480 1.215542 769.00 805.74 27.73
14934 78.6530 1.215477 786.00 803.82 28.04
14935 78.6580 1.215413 804.00 801.89 28.35
14936 78.6630 1.215348 809.00 799.98 28.44
14937 78.6680 1.215283 805.00 798.09 28.37
14938 78.6730 1.215218 786.00 796.19 28.04
14939 78.6780 1.215154 796.00 794.31 28.21
14940 78.6830 1.215089 816.00 792.46 28.57
14941 78.6880 1.215024 809.00 790.62 28.44
14942 78.6930 1.214960 794.00 788.80 28.18
14943 78.6980 1.214895 802.00 787.00 28.32
14944 78.7030 1.214830 819.00 785.23 28.62
14945 78.7080 1.214766 810.00 783.50 28.46
14946 78.7130 1.214701 814.00 781.79 28.53
14947 78.7180 1.214637 819.00 780.11 28.62
14948 78.7230 1.214572 825.00 778.46 28.72
14949 78.7280 1.214507 814.00 776.83 28.53
14950 78.7330 1.214443 775.00 775.24 27.84
14951 78.7380 1.214378 763.00 773.68 27.62
14952 78.7430 1.214314 761.00 772.15 27.59
14953 78.7480 1.214249 734.00 770.64 27.09
14954 78.7530 1.214185 722.00 769.17 26.87
14955 78.7580 1.214120 749.00 767.72 27.37
14956 78.7630 1.214055 773.00 766.30 27.80
14957 78.7680 1.213991 774.00 764.91 27.82
14958 78.7730 1.213926 786.00 763.55 28.04
14959 78.7780 1.213862 802.00 762.23 28.32
14960 78.7830 1.213797 810.00 760.93 28.46
14961 78.7880 1.213733 812.00 759.66 28.50
14962 78.7930 1.213668 783.00 758.42 27.98
14963 78.7980 1.213604 750.00 757.20 27.39
14964 78.8030 1.213539 743.00 756.02 27.26
14965 78.8080 1.213475 740.00 754.87 27.20
14966 78.8130 1.213410 742.00 753.75 27.24
14967 78.8180 1.213346 745.00 752.66 27.29
14968 78.8230 1.213282 732.00 751.61 27.06
14969 78.8280 1.213217 712.00 750.58 26.68
14970 78.8330 1.213153 716.00 749.58 26.76
14971 78.8380 1.213088 736.00 748.61 27.13
14972 78.8430 1.213024 760.00 747.67 27.57
14973 78.8480 1.212960 774.00 746.77 27.82
14974 78.8530 1.212895 777.00 745.90 27.87
14975 78.8580 1.212831 787.00 745.06 28.05
14976 78.8630 1.212767 810.00 744.26 28.46
14977 78.8680 1.212702 800.00 743.48 28.28
14978 78.8730 1.212638 789.00 742.75 28.09
14979 78.8780 1.212574 762.00 742.04 27.60
14980 78.8830 1.212509 755.00 741.37 27.48
14981 78.8880 1.212445 780.00 740.73 27.93
14982 78.8930 1.212381 795.00 740.12 28.20
14983 78.8980 1.212316 770.00 739.55 27.75
14984 78.9030 1.212252 740.00 739.01 27.20
14985 78.9080 1.212188 726.00 738.50 26.94
14986 78.9130 1.212124 720.00 738.03 26.83
14987 78.9180 1.212059 709.00 737.60 26.63
14988 78.9230 1.211995 707.00 737.20 26.59
14989 78.9280 1.211931 715.00 736.84 26.74
14990 78.9330 1.211867 695.00 736.51 26.36
14991 78.9380 1.211802 684.00 736.21 26.15
14992 78.9430 1.211738 690.00 735.95 26.27
14993 78.9480 1.211674 701.00 735.72 26.48
14994 78.9530 1.211610 699.00 735.53 26.44
14995 78.9580 1.211546 717.00 735.37 26.78
14996 78.9630 1.211481 734.00 735.24 27.09
14997 78.9680 1.211417 724.00 735.15 26.91
14998 78.9730 1.211353 720.00 735.09 26.83
14999 78.9780 1.211289 723.00 735.07 26.89
15000 78.9830 1.211225 758.00 735.07 27.53
15001 78.9880 1.211161 736.00 735.11 27.13
15002 78.9930 1.211097 694.00 735.18 26.34
15003 78.9980 1.211032 684.00 735.29 26.15
15004 79.0030 1.210968 721.00 735.43 26.85
15005 79.0080 1.210904 759.00 735.60 27.55
15006 79.0130 1.210840 760.00 735.81 27.57
15007 79.0180 1.210776 730.00 736.04 27.02
15008 79.0230 1.210712 737.00 736.32 27.15
15009 79.0280 1.210648 768.00 736.62 27.71
15010 79.0330 1.210584 792.00 736.95 28.14
15011 79.0380 1.210520 747.00 737.32 27.33
15012 79.0430 1.210456 717.00 737.72 26.78
15013 79.0480 1.210392 728.00 738.15 26.98
15014 79.0530 1.210328 722.00 738.62 26.87
15015 79.0580 1.210264 733.00 739.11 27.07
15016 79.0630 1.210200 741.00 739.65 27.22
15017 79.0680 1.210136 752.00 740.21 27.42
15018 79.0730 1.210072 776.00 740.81 27.86
15019 79.0780 1.210008 752.00 741.44 27.42
15020 79.0830 1.209944 733.00 742.10 27.07
15021 79.0880 1.209880 755.00 742.80 27.48
15022 79.0930 1.209816 764.00 743.52 27.64
15023 79.0980 1.209752 768.00 744.28 27.71
15024 79.1030 1.209688 754.00 745.07 27.46
15025 79.1080 1.209624 747.00 745.89 27.33
15026 79.1130 1.209561 755.00 746.73 27.48
15027 79.1180 1.209497 763.00 747.62 27.62
15028 79.1230 1.209433 757.00 748.53 27.51
15029 79.1280 1.209369 772.00 749.46 27.78
15030 79.1330 1.209305 778.00 750.41 27.89
15031 79.1380 1.209241 775.00 751.40 27.84
15032 79.1430 1.209177 779.00 752.40 27.91
15033 79.1480 1.209113 761.00 753.42 27.59
15034 79.1530 1.209050 762.00 754.46 27.60
15035 79.1580 1.208986 756.00 755.52 27.50
15036 79.1630 1.208922 759.00 756.58 27.55
15037 79.1680 1.208858 724.00 757.66 26.91
15038 79.1730 1.208794 729.00 758.75 27.00
15039 79.1780 1.208731 734.00 759.85 27.09
15040 79.1830 1.208667 748.00 760.94 27.35
15041 79.1880 1.208603 771.00 762.04 27.77
15042 79.1930 1.208539 778.00 763.13 27.89
15043 79.1980 1.208476 761.00 764.21 27.59
15044 79.2030 1.208412 786.00 765.28 28.04
15045 79.2080 1.208348 821.00 766.34 28.65
15046 79.2130 1.208284 819.00 767.39 28.62
15047 79.2180 1.208220 790.00 768.41 28.11
15048 79.2230 1.208157 747.00 769.40 27.33
15049 79.2280 1.208093 717.00 770.37 26.78
15050 79.2330 1.208030 735.00 771.30 27.11
15051 79.2380 1.207966 713.00 772.21 26.70
15052 79.2430 1.207902 721.00 773.08 26.85
15053 79.2480 1.207839 709.00 773.91 26.63
15054 79.2530 1.207775 715.00 774.70 26.74
15055 79.2580 1.207711 749.00 775.45 27.37
15056 79.2630 1.207648 789.00 776.15 28.09
15057 79.2680 1.207584 806.00 776.79 28.39
15058 79.2730 1.207520 784.00 777.40 28.00
15059 79.2780 1.207457 738.00 777.94 27.17
15060 79.2830 1.207393 761.00 778.42 27.59
15061 79.2880 1.207330 759.00 778.84 27.55
15062 79.2930 1.207266 765.00 779.20 27.66
15063 79.2980 1.207203 763.00 779.50 27.62
15064 79.3030 1.207139 778.00 779.72 27.89
15065 79.3080 1.207075 836.00 779.88 28.91
15066 79.3130 1.207012 831.00 779.95 28.83
15067 79.3180 1.206948 837.00 779.96 28.93
15068 79.3230 1.206885 800.00 779.88 28.28
15069 79.3280 1.206821 777.00 779.75 27.87
15070 79.3330 1.206758 764.00 779.56 27.64
15071 79.3380 1.206694 793.00 779.30 28.16
15072 79.3430 1.206631 792.00 778.97 28.14
15073 79.3480 1.206567 826.00 778.58 28.74
15074 79.3530 1.206504 842.00 778.11 29.02
15075 79.3580 1.206440 830.00 777.59 28.81
15076 79.3630 1.206377 803.00 777.01 28.34
15077 79.3680 1.206314 792.00 776.37 28.14
15078 79.3730 1.206250 807.00 775.68 28.41
15079 79.3780 1.206187 783.00 774.94 27.98
15080 79.3830 1.206123 812.00 774.16 28.50
15081 79.3880 1.206060 828.00 773.33 28.77
15082 79.3930 1.205996 819.00 772.48 28.62
15083 79.3980 1.205933 827.00 771.59 28.76
15084 79.4030 1.205870 828.00 770.66 28.77
15085 79.4080 1.205806 806.00 769.71 28.39
15086 79.4130 1.205743 817.00 768.75 28.58
15087 79.4180 1.205680 812.00 767.77 28.50
15088 79.4230 1.205616 769.00 766.78 27.73
15089 79.4280 1.205553 791.00 765.78 28.12
15090 79.4330 1.205490 781.00 764.78 27.95
15091 79.4380 1.205426 796.00 763.78 28.21
15092 79.4430 1.205363 843.00 762.78 29.03
15093 79.4480 1.205300 802.00 761.78 28.32
15094 79.4530 1.205236 774.00 760.79 27.82
15095 79.4580 1.205173 771.00 759.82 27.77
15096 79.4630 1.205110 773.00 758.85 27.80
15097 79.4680 1.205047 763.00 757.90 27.62
15098 79.4730 1.204983 719.00 756.97 26.81
15099 79.4780 1.204920 734.00 756.06 27.09
15100 79.4830 1.204857 763.00 755.17 27.62
15101 79.4880 1.204794 751.00 754.30 27.40
15102 79.4930 1.204730 755.00 753.45 27.48
15103 79.4980 1.204667 738.00 752.63 27.17
15104 79.5030 1.204604 735.00 751.84 27.11
15105 79.5080 1.204541 743.00 751.08 27.26
15106 79.5130 1.204478 755.00 750.34 27.48
15107 79.5180 1.204414 767.00 749.63 27.69
15108 79.5230 1.204351 759.00 748.95 27.55
15109 79.5280 1.204288 770.00 748.31 27.75
15110 79.5330 1.204225 775.00 747.69 27.84
15111 79.5380 1.204162 772.00 747.11 27.78
15112 79.5430 1.204099 756.00 746.55 27.50
15113 79.5480 1.204036 744.00 746.03 27.28
15114 79.5530 1.203972 765.00 745.54 27.66
15115 79.5580 1.203910 754.00 745.08 27.46
15116 79.5630 1.203846 766.00 744.64 27.68
15117 79.5680 1.203783 751.00 744.24 27.40
15118 79.5730 1.203720 725.00 743.86 26.93
15119 79.5780 1.203657 715.00 743.51 26.74
15120 79.5830 1.203594 755.00 743.18 27.48
15121 79.5880 1.203531 755.00 742.88 27.48
15122 79.5930 1.203468 768.00 742.60 27.71
15123 79.5980 1.203405 759.00 742.34 27.55
15124 79.6030 1.203342 747.00 742.10 27.33
15125 79.6080 1.203279 767.00 741.88 27.69
15126 79.6130 1.203216 759.00 741.66 27.55
15127 79.6180 1.203153 726.00 741.46 26.94
15128 79.6230 1.203090 720.00 741.27 26.83
15129 79.6280 1.203027 748.00 741.09 27.35
15130 79.6330 1.202964 759.00 740.92 27.55
15131 79.6380 1.202901 768.00 740.73 27.71
15132 79.6430 1.202838 758.00 740.57 27.53
15133 79.6480 1.202775 735.00 740.40 27.11
15134 79.6530 1.202712 713.00 740.23 26.70
15135 79.6580 1.202649 732.00 740.05 27.06
15136 79.6630 1.202586 734.00 739.87 27.09
15137 79.6680 1.202523 748.00 739.69 27.35
15138 79.6730 1.202461 746.00 739.50 27.31
15139 79.6780 1.202398 752.00 739.30 27.42
15140 79.6830 1.202335 745.00 739.09 27.29
15141 79.6880 1.202272 710.00 738.87 26.65
15142 79.6930 1.202209 712.00 738.64 26.68
15143 79.6980 1.202146 732.00 738.40 27.06
15144 79.7030 1.202083 739.00 738.15 27.18
15145 79.7080 1.202021 739.00 737.89 27.18
15146 79.7130 1.201958 766.00 737.62 27.68
15147 79.7180 1.201895 794.00 737.35 28.18
15148 79.7230 1.201832 763.00 737.06 27.62
15149 79.7280 1.201769 747.00 736.77 27.33
15150 79.7330 1.201706 752.00 736.46 27.42
15151 79.7380 1.201644 740.00 736.16 27.20
15152 79.7430 1.201581 741.00 735.84 27.22
15153 79.7480 1.201518 757.00 735.52 27.51
15154 79.7530 1.201455 746.00 735.20 27.31
15155 79.7580 1.201393 729.00 734.88 27.00
15156 79.7630 1.201330 755.00 734.55 27.48
15157 79.7680 1.201267 792.00 734.23 28.14
15158 79.7730 1.201205 788.00 733.90 28.07
15159 79.7780 1.201142 764.00 733.58 27.64
15160 79.7830 1.201079 761.00 733.25 27.59
15161 79.7880 1.201016 771.00 732.93 27.77
15162 79.7930 1.200954 772.00 732.62 27.78
15163 79.7980 1.200891 779.00 732.31 27.91
15164 79.8030 1.200828 779.00 732.01 27.91
15165 79.8080 1.200766 765.00 731.71 27.66
15166 79.8130 1.200703 753.00 731.42 27.44
15167 79.8180 1.200640 757.00 731.15 27.51
15168 79.8230 1.200578 787.00 730.88 28.05
15169 79.8280 1.200515 807.00 730.63 28.41
15170 79.8330 1.200453 805.00 730.39 28.37
15171 79.8380 1.200390 800.00 730.16 28.28
15172 79.8430 1.200327 797.00 729.94 28.23
15173 79.8480 1.200265 772.00 729.74 27.78
15174 79.8530 1.200202 734.00 729.56 27.09
15175 79.8580 1.200140 719.00 729.40 26.81
15176 79.8630 1.200077 752.00 729.25 27.42
15177 79.8680 1.200015 761.00 729.15 27.59
15178 79.8730 1.199952 747.00 729.04 27.33
15179 79.8780 1.199889 734.00 728.95 27.09
15180 79.8830 1.199827 728.00 728.88 26.98
15181 79.8880 1.199764 743.00 728.83 27.26
15182 79.8930 1.199702 755.00 728.80 27.48
15183 79.8980 1.199639 752.00 728.79 27.42
15184 79.9030 1.199577 745.00 728.81 27.29
15185 79.9080 1.199515 718.00 728.85 26.80
15186 79.9130 1.199452 727.00 728.92 26.96
15187 79.9180 1.199389 741.00 729.01 27.22
15188 79.9230 1.199327 741.00 729.12 27.22
15189 79.9280 1.199265 728.00 729.26 26.98
15190 79.9330 1.199202 716.00 729.42 26.76
15191 79.9380 1.199140 725.00 729.61 26.93
15192 79.9430 1.199077 718.00 729.82 26.80
15193 79.9480 1.199015 725.00 730.05 26.93
15194 79.9530 1.198952 753.00 730.31 27.44
15195 79.9580 1.198890 757.00 730.59 27.51
15196 79.9630 1.198828 742.00 730.91 27.24
15197 79.9680 1.198765 723.00 731.24 26.89
15198 79.9730 1.198703 721.00 731.60 26.85
15199 79.9780 1.198641 740.00 731.99 27.20
15200 79.9830 1.198578 737.00 732.40 27.15
15201 79.9880 1.198516 745.00 732.84 27.29
15202 79.9930 1.198454 743.00 733.30 27.26
15203 79.9980 1.198391 750.00 733.78 27.39
15204 80.0030 1.198329 773.00 734.30 27.80
15205 80.0080 1.198267 773.00 734.84 27.80
15206 80.0130 1.198204 762.00 735.40 27.60
15207 80.0180 1.198142 742.00 736.00 27.24
15208 80.0230 1.198080 742.00 736.61 27.24
15209 80.0280 1.198017 741.00 737.26 27.22
15210 80.0330 1.197955 733.00 737.93 27.07
15211 80.0380 1.197893 748.00 738.62 27.35
15212 80.0430 1.197831 760.00 739.34 27.57
15213 80.0480 1.197769 763.00 740.09 27.62
15214 80.0530 1.197706 772.00 740.85 27.78
15215 80.0580 1.197644 775.00 741.64 27.84
15216 80.0630 1.197582 784.00 742.46 28.00
15217 80.0680 1.197520 778.00 743.29 27.89
15218 80.0730 1.197458 756.00 744.14 27.50
15219 80.0780 1.197395 737.00 745.01 27.15
15220 80.0830 1.197333 708.00 745.91 26.61
15221 80.0880 1.197271 688.00 746.83 26.23
15222 80.0930 1.197209 701.00 747.75 26.48
15223 80.0980 1.197147 719.00 748.70 26.81
15224 80.1030 1.197085 737.00 749.65 27.15
15225 80.1080 1.197022 757.00 750.62 27.51
15226 80.1130 1.196960 763.00 751.59 27.62
15227 80.1180 1.196898 784.00 752.56 28.00
15228 80.1230 1.196836 788.00 753.54 28.07
15229 80.1280 1.196774 766.00 754.52 27.68
15230 80.1330 1.196712 751.00 755.50 27.40
15231 80.1380 1.196650 743.00 756.47 27.26
15232 80.1430 1.196588 752.00 757.44 27.42
15233 80.1480 1.196526 768.00 758.40 27.71
15234 80.1530 1.196464 772.00 759.34 27.78
15235 80.1580 1.196401 750.00 760.27 27.39
15236 80.1630 1.196339 755.00 761.18 27.48
15237 80.1680 1.196277 763.00 762.08 27.62
15238 80.1730 1.196216 771.00 762.95 27.77
15239 80.1780 1.196154 755.00 763.80 27.48
15240 80.1830 1.196092 746.00 764.63 27.31
15241 80.1880 1.196029 740.00 765.43 27.20
15242 80.1930 1.195968 739.00 766.20 27.18
15243 80.1980 1.195906 758.00 766.95 27.53
15244 80.2030 1.195844 788.00 767.67 28.07
15245 80.2080 1.195782 802.00 768.36 28.32
15246 80.2130 1.195720 805.00 769.03 28.37
15247 80.2180 1.195658 796.00 769.66 28.21
15248 80.2230 1.195596 784.00 770.28 28.00
15249 80.2280 1.195534 801.00 770.87 28.30
15250 80.2330 1.195472 801.00 771.43 28.30
15251 80.2380 1.195410 754.00 771.96 27.46
15252 80.2430 1.195348 740.00 772.48 27.20
15253 80.2480 1.195286 770.00 772.97 27.75
15254 80.2530 1.195224 806.00 773.44 28.39
15255 80.2580 1.195162 821.00 773.89 28.65
15256 80.2630 1.195101 833.00 774.33 28.86
15257 80.2680 1.195039 843.00 774.75 29.03
15258 80.2730 1.194977 843.00 775.16 29.03
15259 80.2780 1.194915 820.00 775.54 28.64
15260 80.2830 1.194853 780.00 775.92 27.93
15261 80.2880 1.194791 728.00 776.28 26.98
15262 80.2930 1.194730 731.00 776.63 27.04
15263 80.2980 1.194668 773.00 776.97 27.80
15264 80.3030 1.194606 762.00 777.30 27.60
15265 80.3080 1.194544 750.00 777.62 27.39
15266 80.3130 1.194482 755.00 777.92 27.48
15267 80.3180 1.194421 745.00 778.22 27.29
15268 80.3230 1.194359 753.00 778.50 27.44
15269 80.3280 1.194297 779.00 778.78 27.91
15270 80.3330 1.194235 768.00 779.03 27.71
15271 80.3380 1.194174 795.00 779.29 28.20
15272 80.3430 1.194112 823.00 779.52 28.69
15273 80.3480 1.194050 845.00 779.75 29.07
15274 80.3530 1.193989 828.00 779.96 28.77
15275 80.3580 1.193927 782.00 780.16 27.96
15276 80.3630 1.193865 812.00 780.35 28.50
15277 80.3680 1.193804 818.00 780.52 28.60
15278 80.3730 1.193742 801.00 780.68 28.30
15279 80.3780 1.193680 763.00 780.82 27.62
15280 80.3830 1.193619 758.00 780.96 27.53
15281 80.3880 1.193557 773.00 781.08 27.80
15282 80.3930 1.193495 766.00 781.18 27.68
15283 80.3980 1.193434 768.00 781.28 27.71
15284 80.4030 1.193372 780.00 781.36 27.93
15285 80.4080 1.193310 793.00 781.44 28.16
15286 80.4130 1.193249 789.00 781.51 28.09
15287 80.4180 1.193187 779.00 781.58 27.91
15288 80.4230 1.193126 788.00 781.63 28.07
15289 80.4280 1.193064 789.00 781.69 28.09
15290 80.4330 1.193002 782.00 781.75 27.96
15291 80.4380 1.192941 795.00 781.81 28.20
15292 80.4430 1.192879 797.00 781.87 28.23
15293 80.4480 1.192818 799.00 781.94 28.27
15294 80.4530 1.192756 807.00 782.02 28.41
15295 80.4580 1.192695 796.00 782.10 28.21
15296 80.4630 1.192633 804.00 782.19 28.35
15297 80.4680 1.192572 791.00 782.29 28.12
15298 80.4730 1.192510 762.00 782.40 27.60
15299 80.4780 1.192449 745.00 782.52 27.29
15300 80.4830 1.192387 757.00 782.66 27.51
15301 80.4880 1.192326 789.00 782.80 28.09
15302 80.4930 1.192264 774.00 782.96 27.82
15303 80.4980 1.192203 768.00 783.13 27.71
15304 80.5030 1.192141 796.00 783.32 28.21
15305 80.5080 1.192080 803.00 783.51 28.34
15306 80.5130 1.192019 784.00 783.72 28.00
15307 80.5180 1.191957 778.00 783.94 27.89
15308 80.5230 1.191896 793.00 784.17 28.16
15309 80.5280 1.191834 768.00 784.41 27.71
15310 80.5330 1.191773 769.00 784.67 27.73
15311 80.5380 1.191712 775.00 784.93 27.84
15312 80.5430 1.191650 764.00 785.20 27.64
15313 80.5480 1.191589 758.00 785.47 27.53
15314 80.5530 1.191527 779.00 785.76 27.91
15315 80.5580 1.191466 798.00 786.05 28.25
15316 80.5630 1.191405 824.00 786.34 28.71
15317 80.5680 1.191344 816.00 786.64 28.57
15318 80.5730 1.191282 821.00 786.94 28.65
15319 80.5780 1.191221 785.00 787.24 28.02
15320 80.5830 1.191160 753.00 787.55 27.44
15321 80.5880 1.191098 764.00 787.84 27.64
15322 80.5930 1.191037 782.00 788.14 27.96
15323 80.5980 1.190976 787.00 788.43 28.05
15324 80.6030 1.190915 790.00 788.71 28.11
15325 80.6080 1.190853 798.00 788.97 28.25
15326 80.6130 1.190792 807.00 789.23 28.41
15327 80.6180 1.190731 798.00 789.48 28.25
15328 80.6230 1.190669 801.00 789.70 28.30
15329 80.6280 1.190608 796.00 789.91 28.21
15330 80.6330 1.190547 802.00 790.09 28.32
15331 80.6380 1.190486 799.00 790.26 28.27
15332 80.6430 1.190425 788.00 790.41 28.07
15333 80.6480 1.190363 775.00 790.52 27.84
15334 80.6530 1.190302 784.00 790.62 28.00
15335 80.6580 1.190241 773.00 790.69 27.80
15336 80.6630 1.190180 752.00 790.74 27.42
15337 80.6680 1.190119 775.00 790.77 27.84
15338 80.6730 1.190058 826.00 790.77 28.74
15339 80.6780 1.189996 792.00 790.74 28.14
15340 80.6830 1.189935 739.00 790.70 27.18
15341 80.6880 1.189874 759.00 790.63 27.55
15342 80.6930 1.189813 767.00 790.54 27.69
15343 80.6980 1.189752 801.00 790.44 28.30
15344 80.7030 1.189691 826.00 790.32 28.74
15345 80.7080 1.189630 797.00 790.19 28.23
15346 80.7130 1.189569 793.00 790.05 28.16
15347 80.7180 1.189507 796.00 789.90 28.21
15348 80.7230 1.189446 804.00 789.74 28.35
15349 80.7280 1.189385 800.00 789.58 28.28
15350 80.7330 1.189324 825.00 789.42 28.72
15351 80.7380 1.189263 819.00 789.26 28.62
15352 80.7430 1.189202 803.00 789.11 28.34
15353 80.7480 1.189141 798.00 788.97 28.25
15354 80.7530 1.189080 800.00 788.84 28.28
15355 80.7580 1.189019 803.00 788.73 28.34
15356 80.7630 1.188958 816.00 788.63 28.57
15357 80.7680 1.188897 819.00 788.55 28.62
15358 80.7730 1.188836 812.00 788.49 28.50
15359 80.7780 1.188775 806.00 788.46 28.39
15360 80.7830 1.188714 805.00 788.45 28.37
15361 80.7880 1.188653 806.00 788.46 28.39
15362 80.7930 1.188592 783.00 788.52 27.98
15363 80.7980 1.188531 785.00 788.59 28.02
15364 80.8030 1.188470 796.00 788.68 28.21
15365 80.8080 1.188410 806.00 788.81 28.39
15366 80.8130 1.188349 793.00 788.97 28.16
15367 80.8180 1.188288 780.00 789.15 27.93
15368 80.8230 1.188227 778.00 789.37 27.89
15369 80.8280 1.188166 786.00 789.61 28.04
15370 80.8330 1.188105 779.00 789.87 27.91
15371 80.8380 1.188044 793.00 790.17 28.16
15372 80.8430 1.187983 797.00 790.48 28.23
15373 80.8480 1.187922 783.00 790.82 27.98
15374 80.8530 1.187862 784.00 791.17 28.00
15375 80.8580 1.187801 788.00 791.54 28.07
15376 80.8630 1.187740 764.00 791.92 27.64
15377 80.8680 1.187679 753.00 792.32 27.44
15378 80.8730 1.187618 748.00 792.72 27.35
15379 80.8780 1.187558 750.00 793.12 27.39
15380 80.8830 1.187497 789.00 793.52 28.09
15381 80.8880 1.187436 804.00 793.92 28.35
15382 80.8930 1.187375 790.00 794.30 28.11
15383 80.8980 1.187314 766.00 794.67 27.68
15384 80.9030 1.187254 749.00 795.03 27.37
15385 80.9080 1.187193 761.00 795.37 27.59
15386 80.9130 1.187132 794.00 795.67 28.18
15387 80.9180 1.187071 805.00 795.95 28.37
15388 80.9230 1.187011 799.00 796.18 28.27
15389 80.9280 1.186950 812.00 796.38 28.50
15390 80.9330 1.186889 824.00 796.54 28.71
15391 80.9380 1.186828 817.00 796.65 28.58
15392 80.9430 1.186768 806.00 796.71 28.39
15393 80.9480 1.186707 809.00 796.73 28.44
15394 80.9530 1.186646 802.00 796.69 28.32
15395 80.9580 1.186586 794.00 796.60 28.18
15396 80.9630 1.186525 783.00 796.47 27.98
15397 80.9680 1.186464 775.00 796.28 27.84
15398 80.9730 1.186404 797.00 796.03 28.23
15399 80.9780 1.186343 786.00 795.73 28.04
15400 80.9830 1.186282 763.00 795.36 27.62
15401 80.9880 1.186222 776.00 794.98 27.86
15402 80.9930 1.186161 809.00 794.55 28.44
15403 80.9980 1.186101 822.00 794.09 28.67
15404 81.0030 1.186040 836.00 793.59 28.91
15405 81.0080 1.185979 860.00 793.07 29.33
15406 81.0130 1.185919 855.00 792.52 29.24
15407 81.0180 1.185858 829.00 791.95 28.79
15408 81.0230 1.185798 791.00 791.36 28.12
15409 81.0280 1.185737 785.00 790.76 28.02
15410 81.0330 1.185677 810.00 790.15 28.46
15411 81.0380 1.185616 822.00 789.54 28.67
15412 81.0430 1.185556 819.00 788.94 28.62
15413 81.0480 1.185495 808.00 788.34 28.43
15414 81.0530 1.185435 800.00 787.75 28.28
15415 81.0580 1.185374 799.00 787.17 28.27
15416 81.0630 1.185314 807.00 786.61 28.41
15417 81.0680 1.185253 799.00 786.08 28.27
15418 81.0730 1.185193 781.00 785.56 27.95
15419 81.0780 1.185132 776.00 785.07 27.86
15420 81.0830 1.185072 784.00 784.61 28.00
15421 81.0880 1.185011 797.00 784.17 28.23
15422 81.0930 1.184951 812.00 783.76 28.50
15423 81.0980 1.184891 840.00 783.38 28.98
15424 81.1030 1.184830 847.00 783.04 29.10
15425 81.1080 1.184770 829.00 782.72 28.79
15426 81.1130 1.184709 803.00 782.45 28.34
15427 81.1180 1.184649 778.00 782.20 27.89
15428 81.1230 1.184588 770.00 781.98 27.75
15429 81.1280 1.184528 774.00 781.79 27.82
15430 81.1330 1.184468 773.00 781.63 27.80
15431 81.1380 1.184407 780.00 781.49 27.93
15432 81.1430 1.184347 801.00 781.39 28.30
15433 81.1480 1.184286 800.00 781.30 28.28
15434 81.1530 1.184226 776.00 781.24 27.86
15435 81.1580 1.184166 756.00 781.20 27.50
15436 81.1630 1.184106 745.00 781.18 27.29
15437 81.1680 1.184045 744.00 781.18 27.28
15438 81.1730 1.183985 751.00 781.19 27.40
15439 81.1780 1.183925 757.00 781.21 27.51
15440 81.1830 1.183864 757.00 781.22 27.51
15441 81.1880 1.183804 758.00 781.28 27.53
15442 81.1930 1.183744 770.00 781.34 27.75
15443 81.1980 1.183684 777.00 781.42 27.87
15444 81.2030 1.183623 779.00 781.51 27.91
15445 81.2080 1.183563 770.00 781.60 27.75
15446 81.2130 1.183503 765.00 781.71 27.66
15447 81.2180 1.183442 773.00 781.82 27.80
15448 81.2230 1.183382 794.00 781.94 28.18
15449 81.2280 1.183322 801.00 782.06 28.30
15450 81.2330 1.183262 776.00 782.19 27.86
15451 81.2380 1.183202 756.00 782.32 27.50
15452 81.2430 1.183142 756.00 782.46 27.50
15453 81.2480 1.183081 781.00 782.59 27.95
15454 81.2530 1.183021 809.00 782.71 28.44
15455 81.2580 1.182961 809.00 782.85 28.44
15456 81.2630 1.182901 812.00 782.98 28.50
15457 81.2680 1.182841 790.00 783.11 28.11
15458 81.2730 1.182781 783.00 783.24 27.98
15459 81.2780 1.182720 788.00 783.35 28.07
15460 81.2830 1.182660 805.00 783.46 28.37
15461 81.2880 1.182600 811.00 783.56 28.48
15462 81.2930 1.182540 796.00 783.64 28.21
15463 81.2980 1.182480 809.00 783.70 28.44
15464 81.3030 1.182420 846.00 783.74 29.09
15465 81.3080 1.182360 871.00 783.77 29.51
15466 81.3130 1.182300 863.00 783.78 29.38
15467 81.3180 1.182240 832.00 783.76 28.84
15468 81.3230 1.182180 802.00 783.73 28.32
15469 81.3280 1.182119 786.00 783.67 28.04
15470 81.3330 1.182060 780.00 783.60 27.93
15471 81.3380 1.182000 771.00 783.50 27.77
15472 81.3430 1.181939 766.00 783.38 27.68
15473 81.3480 1.181879 779.00 783.24 27.91
15474 81.3530 1.181819 788.00 783.09 28.07
15475 81.3580 1.181759 791.00 782.91 28.12
15476 81.3630 1.181700 775.00 782.73 27.84
15477 81.3680 1.181640 770.00 782.53 27.75
15478 81.3730 1.181579 763.00 782.32 27.62
15479 81.3780 1.181520 760.00 782.10 27.57
15480 81.3830 1.181460 750.00 781.87 27.39
15481 81.3880 1.181400 744.00 781.65 27.28
15482 81.3930 1.181340 761.00 781.41 27.59
15483 81.3980 1.181280 776.00 781.17 27.86
15484 81.4030 1.181220 783.00 780.93 27.98
15485 81.4080 1.181160 787.00 780.69 28.05
15486 81.4130 1.181100 812.00 780.46 28.50
15487 81.4180 1.181040 807.00 780.22 28.41
15488 81.4230 1.180980 781.00 779.99 27.95
15489 81.4280 1.180920 758.00 779.76 27.53
15490 81.4330 1.180861 758.00 779.53 27.53
15491 81.4380 1.180801 792.00 779.31 28.14
15492 81.4430 1.180741 798.00 779.09 28.25
15493 81.4480 1.180681 752.00 778.88 27.42
15494 81.4530 1.180621 755.00 778.68 27.48
15495 81.4580 1.180561 786.00 778.47 28.04
15496 81.4630 1.180501 794.00 778.27 28.18
15497 81.4680 1.180442 770.00 778.08 27.75
15498 81.4730 1.180382 788.00 777.89 28.07
15499 81.4780 1.180322 795.00 777.70 28.20
15500 81.4830 1.180262 783.00 777.52 27.98
15501 81.4880 1.180202 812.00 777.33 28.50
15502 81.4930 1.180143 832.00 777.16 28.84
15503 81.4980 1.180083 823.00 777.00 28.69
15504 81.5030 1.180023 822.00 776.85 28.67
15505 81.5080 1.179963 814.00 776.71 28.53
15506 81.5130 1.179904 781.00 776.57 27.95
15507 81.5180 1.179844 771.00 776.45 27.77
15508 81.5230 1.179784 764.00 776.34 27.64
15509 81.5280 1.179724 746.00 776.25 27.31
15510 81.5330 1.179665 739.00 776.17 27.18
15511 81.5380 1.179605 747.00 776.10 27.33
15512 81.5430 1.179545 744.00 776.06 27.28
15513 81.5480 1.179486 753.00 776.04 27.44
15514 81.5530 1.179426 755.00 776.04 27.48
15515 81.5580 1.179366 773.00 776.05 27.80
15516 81.5630 1.179307 750.00 776.09 27.39
15517 81.5680 1.179247 717.00 776.16 26.78
15518 81.5730 1.179187 701.00 776.25 26.48
15519 81.5780 1.179128 708.00 776.37 26.61
15520 81.5830 1.179068 756.00 776.52 27.50
15521 81.5880 1.179009 787.00 776.69 28.05
15522 81.5930 1.178949 785.00 776.88 28.02
15523 81.5980 1.178889 794.00 777.10 28.18
15524 81.6030 1.178830 787.00 777.34 28.05
15525 81.6080 1.178770 763.00 777.60 27.62
15526 81.6130 1.178711 753.00 777.88 27.44
15527 81.6180 1.178651 785.00 778.20 28.02
15528 81.6230 1.178591 831.00 778.51 28.83
15529 81.6280 1.178532 845.00 778.84 29.07
15530 81.6330 1.178472 847.00 779.18 29.10
15531 81.6380 1.178413 807.00 779.53 28.41
15532 81.6430 1.178353 761.00 779.89 27.59
15533 81.6480 1.178294 745.00 780.25 27.29
15534 81.6530 1.178234 751.00 780.61 27.40
15535 81.6580 1.178175 786.00 780.97 28.04
15536 81.6630 1.178115 819.00 781.32 28.62
15537 81.6680 1.178056 802.00 781.67 28.32
15538 81.6730 1.177996 774.00 782.01 27.82
15539 81.6780 1.177937 755.00 782.34 27.48
15540 81.6830 1.177878 761.00 782.65 27.59
15541 81.6880 1.177818 766.00 782.95 27.68
15542 81.6930 1.177759 770.00 783.23 27.75
15543 81.6980 1.177699 814.00 783.49 28.53
15544 81.7030 1.177640 792.00 783.74 28.14
15545 81.7080 1.177580 767.00 783.96 27.69
15546 81.7130 1.177521 733.00 784.16 27.07
15547 81.7180 1.177462 769.00 784.34 27.73
15548 81.7230 1.177402 782.00 784.50 27.96
15549 81.7280 1.177343 772.00 784.64 27.78
15550 81.7330 1.177283 753.00 784.76 27.44
15551 81.7380 1.177224 747.00 784.86 27.33
15552 81.7430 1.177165 749.00 784.94 27.37
15553 81.7480 1.177105 760.00 785.00 27.57
15554 81.7530 1.177046 780.00 785.05 27.93
15555 81.7580 1.176986 779.00 785.08 27.91
15556 81.7630 1.176927 772.00 785.11 27.78
15557 81.7680 1.176868 759.00 785.14 27.55
15558 81.7730 1.176809 743.00 785.15 27.26
15559 81.7780 1.176749 740.00 785.15 27.20
15560 81.7830 1.176690 737.00 785.16 27.15
15561 81.7880 1.176631 783.00 785.15 27.98
15562 81.7930 1.176571 812.00 785.17 28.50
15563 81.7980 1.176512 787.00 785.19 28.05
15564 81.8030 1.176453 787.00 785.22 28.05
15565 81.8080 1.176394 789.00 785.26 28.09
15566 81.8130 1.176334 811.00 785.31 28.48
15567 81.8180 1.176275 827.00 785.39 28.76
15568 81.8230 1.176216 827.00 785.48 28.76
15569 81.8280 1.176157 842.00 785.60 29.02
15570 81.8330 1.176098 810.00 785.73 28.46
15571 81.8380 1.176038 794.00 785.89 28.18
15572 81.8430 1.175979 821.00 786.07 28.65
15573 81.8480 1.175920 842.00 786.28 29.02
15574 81.8530 1.175861 813.00 786.51 28.51
15575 81.8580 1.175802 781.00 786.77 27.95
15576 81.8630 1.175743 761.00 787.06 27.59
15577 81.8680 1.175683 757.00 787.36 27.51
15578 81.8730 1.175624 745.00 787.70 27.29
15579 81.8780 1.175565 748.00 788.05 27.35
15580 81.8830 1.175506 748.00 788.43 27.35
15581 81.8880 1.175447 736.00 788.83 27.13
15582 81.8930 1.175388 739.00 789.24 27.18
15583 81.8980 1.175328 774.00 789.68 27.82
15584 81.9030 1.175269 787.00 790.13 28.05
15585 81.9080 1.175210 781.00 790.59 27.95
15586 81.9130 1.175151 798.00 791.06 28.25
15587 81.9180 1.175092 769.00 791.55 27.73
15588 81.9230 1.175033 759.00 792.04 27.55
15589 81.9280 1.174974 777.00 792.54 27.87
15590 81.9330 1.174915 791.00 793.04 28.12
15591 81.9380 1.174856 803.00 793.54 28.34
15592 81.9430 1.174797 802.00 794.04 28.32
15593 81.9480 1.174738 833.00 794.54 28.86
15594 81.9530 1.174679 835.00 795.03 28.90
15595 81.9580 1.174620 829.00 795.52 28.79
15596 81.9630 1.174561 823.00 796.00 28.69
15597 81.9680 1.174502 827.00 796.48 28.76
15598 81.9730 1.174443 829.00 796.95 28.79
15599 81.9780 1.174384 810.00 797.39 28.46
15600 81.9830 1.174325 781.00 797.83 27.95
15601 81.9880 1.174266 749.00 798.26 27.37
15602 81.9930 1.174207 746.00 798.68 27.31
15603 81.9980 1.174148 759.00 799.08 27.55
15604 82.0030 1.174089 763.00 799.47 27.62
15605 82.0080 1.174030 754.00 799.84 27.46
15606 82.0130 1.173971 749.00 800.19 27.37
15607 82.0180 1.173912 743.00 800.53 27.26
15608 82.0230 1.173854 774.00 800.84 27.82
15609 82.0280 1.173795 802.00 801.13 28.32
15610 82.0330 1.173736 793.00 801.41 28.16
15611 82.0380 1.173677 764.00 801.66 27.64
15612 82.0430 1.173618 753.00 801.90 27.44
15613 82.0480 1.173559 762.00 802.11 27.60
15614 82.0530 1.173500 780.00 802.29 27.93
15615 82.0580 1.173442 807.00 802.46 28.41
15616 82.0630 1.173383 804.00 802.60 28.35
15617 82.0680 1.173324 794.00 802.71 28.18
15618 82.0730 1.173265 812.00 802.80 28.50
15619 82.0780 1.173206 828.00 802.87 28.77
15620 82.0830 1.173147 800.00 802.91 28.28
15621 82.0880 1.173089 797.00 802.92 28.23
15622 82.0930 1.173030 820.00 802.92 28.64
15623 82.0980 1.172971 842.00 802.89 29.02
15624 82.1030 1.172912 837.00 802.84 28.93
15625 82.1080 1.172853 811.00 802.78 28.48
15626 82.1130 1.172795 792.00 802.69 28.14
15627 82.1180 1.172736 779.00 802.59 27.91
15628 82.1230 1.172677 757.00 802.48 27.51
15629 82.1280 1.172619 739.00 802.35 27.18
15630 82.1330 1.172560 763.00 802.21 27.62
15631 82.1380 1.172501 804.00 802.07 28.35
15632 82.1430 1.172442 817.00 801.91 28.58
15633 82.1480 1.172384 797.00 801.75 28.23
15634 82.1530 1.172325 778.00 801.58 27.89
15635 82.1580 1.172266 783.00 801.41 27.98
15636 82.1630 1.172208 779.00 801.23 27.91
15637 82.1680 1.172149 762.00 801.05 27.60
15638 82.1730 1.172090 759.00 800.87 27.55
15639 82.1780 1.172032 772.00 800.69 27.78
15640 82.1830 1.171973 786.00 800.51 28.04
15641 82.1880 1.171914 791.00 800.32 28.12
15642 82.1930 1.171856 793.00 800.13 28.16
15643 82.1980 1.171797 802.00 799.94 28.32
15644 82.2030 1.171739 806.00 799.74 28.39
15645 82.2080 1.171680 802.00 799.54 28.32
15646 82.2130 1.171621 781.00 799.33 27.95
15647 82.2180 1.171563 760.00 799.12 27.57
15648 82.2230 1.171504 769.00 798.91 27.73
15649 82.2280 1.171446 799.00 798.69 28.27
15650 82.2330 1.171387 798.00 798.46 28.25
15651 82.2380 1.171329 793.00 798.24 28.16
15652 82.2430 1.171270 796.00 798.01 28.21
15653 82.2480 1.171211 797.00 797.77 28.23
15654 82.2530 1.171153 803.00 797.53 28.34
15655 82.2580 1.171094 781.00 797.29 27.95
15656 82.2630 1.171036 761.00 797.04 27.59
15657 82.2680 1.170977 747.00 796.80 27.33
15658 82.2730 1.170919 752.00 796.56 27.42
15659 82.2780 1.170860 769.00 796.32 27.73
15660 82.2830 1.170802 774.00 796.09 27.82
15661 82.2880 1.170743 748.00 795.86 27.35
15662 82.2930 1.170685 750.00 795.65 27.39
15663 82.2980 1.170627 768.00 795.45 27.71
15664 82.3030 1.170568 765.00 795.26 27.66
15665 82.3080 1.170510 786.00 795.08 28.04
15666 82.3130 1.170451 837.00 794.92 28.93
15667 82.3180 1.170393 826.00 794.77 28.74
15668 82.3230 1.170334 779.00 794.63 27.91
15669 82.3280 1.170276 754.00 794.51 27.46
15670 82.3330 1.170218 758.00 794.41 27.53
15671 82.3380 1.170159 784.00 794.32 28.00
15672 82.3430 1.170101 826.00 794.25 28.74
15673 82.3480 1.170042 834.00 794.19 28.88
15674 82.3530 1.169984 835.00 794.15 28.90
15675 82.3580 1.169926 827.00 794.11 28.76
15676 82.3630 1.169867 815.00 794.09 28.55
15677 82.3680 1.169809 814.00 794.08 28.53
15678 82.3730 1.169751 814.00 794.08 28.53
15679 82.3780 1.169692 802.00 794.08 28.32
15680 82.3830 1.169634 782.00 794.10 27.96
15681 82.3880 1.169576 775.00 794.10 27.84
15682 82.3930 1.169517 778.00 794.10 27.89
15683 82.3980 1.169459 794.00 794.10 28.18
15684 82.4030 1.169401 817.00 794.09 28.58
15685 82.4080 1.169343 867.00 794.07 29.44
15686 82.4130 1.169284 858.00 794.03 29.29
15687 82.4180 1.169226 813.00 793.99 28.51
15688 82.4230 1.169168 790.00 793.92 28.11
15689 82.4280 1.169109 830.00 793.84 28.81
15690 82.4330 1.169051 875.00 793.73 29.58
15691 82.4380 1.168993 855.00 793.61 29.24
15692 82.4430 1.168935 844.00 793.46 29.05
15693 82.4480 1.168877 835.00 793.29 28.90
15694 82.4530 1.168818 816.00 793.09 28.57
15695 82.4580 1.168760 818.00 792.86 28.60
15696 82.4630 1.168702 828.00 792.62 28.77
15697 82.4680 1.168644 797.00 792.34 28.23
15698 82.4730 1.168586 781.00 792.05 27.95
15699 82.4780 1.168527 792.00 791.73 28.14
15700 82.4830 1.168469 814.00 791.39 28.53
15701 82.4880 1.168411 789.00 791.02 28.09
15702 82.4930 1.168353 748.00 790.65 27.35
15703 82.4980 1.168295 744.00 790.26 27.28
15704 82.5030 1.168237 748.00 789.86 27.35
15705 82.5080 1.168179 760.00 789.45 27.57
15706 82.5130 1.168121 787.00 789.04 28.05
15707 82.5180 1.168062 811.00 788.62 28.48
15708 82.5230 1.168004 801.00 788.20 28.30
15709 82.5280 1.167946 755.00 787.79 27.48
15710 82.5330 1.167888 722.00 787.38 26.87
15711 82.5380 1.167830 727.00 786.99 26.96
15712 82.5430 1.167772 732.00 786.60 27.06
15713 82.5480 1.167714 759.00 786.24 27.55
15714 82.5530 1.167656 772.00 785.89 27.78
15715 82.5580 1.167598 767.00 785.57 27.69
15716 82.5630 1.167540 764.00 785.27 27.64
15717 82.5680 1.167482 759.00 784.98 27.55
15718 82.5730 1.167424 752.00 784.73 27.42
15719 82.5780 1.167366 752.00 784.52 27.42
15720 82.5830 1.167308 755.00 784.33 27.48
15721 82.5880 1.167250 764.00 784.17 27.64
15722 82.5930 1.167192 791.00 784.05 28.12
15723 82.5980 1.167134 792.00 783.96 28.14
15724 82.6030 1.167076 780.00 783.90 27.93
15725 82.6080 1.167018 768.00 783.88 27.71
15726 82.6130 1.166960 768.00 783.89 27.71
15727 82.6180 1.166902 749.00 783.95 27.37
15728 82.6230 1.166844 761.00 784.02 27.59
15729 82.6280 1.166786 780.00 784.14 27.93
15730 82.6330 1.166728 790.00 784.28 28.11
15731 82.6380 1.166670 800.00 784.45 28.28
15732 82.6430 1.166613 762.00 784.66 27.60
15733 82.6480 1.166555 736.00 784.88 27.13
15734 82.6530 1.166497 761.00 785.14 27.59
15735 82.6580 1.166439 757.00 785.42 27.51
15736 82.6630 1.166381 780.00 785.73 27.93
15737 82.6680 1.166323 767.00 786.06 27.69
15738 82.6730 1.166265 791.00 786.40 28.12
15739 82.6780 1.166207 767.00 786.77 27.69
15740 82.6830 1.166150 775.00 787.15 27.84
15741 82.6880 1.166092 780.00 787.53 27.93
15742 82.6930 1.166034 774.00 787.94 27.82
15743 82.6980 1.165976 762.00 788.35 27.60
15744 82.7030 1.165918 747.00 788.76 27.33
15745 82.7080 1.165861 761.00 789.15 27.59
15746 82.7130 1.165803 789.00 789.57 28.09
15747 82.7180 1.165745 765.00 789.98 27.66
15748 82.7230 1.165687 753.00 790.40 27.44
15749 82.7280 1.165630 785.00 790.80 28.02
15750 82.7330 1.165572 778.00 791.20 27.89
15751 82.7380 1.165514 775.00 791.59 27.84
15752 82.7430 1.165456 783.00 791.97 27.98
15753 82.7480 1.165398 775.00 792.33 27.84
15754 82.7530 1.165341 809.00 792.68 28.44
15755 82.7580 1.165283 832.00 793.02 28.84
15756 82.7630 1.165225 795.00 793.33 28.20
15757 82.7680 1.165168 787.00 793.62 28.05
15758 82.7730 1.165110 769.00 793.90 27.73
15759 82.7780 1.165052 752.00 794.16 27.42
15760 82.7830 1.164994 761.00 794.39 27.59
15761 82.7880 1.164937 794.00 794.61 28.18
15762 82.7930 1.164879 797.00 794.80 28.23
15763 82.7980 1.164822 762.00 794.96 27.60
15764 82.8030 1.164764 769.00 795.10 27.73
15765 82.8080 1.164706 759.00 795.22 27.55
15766 82.8130 1.164649 789.00 795.31 28.09
15767 82.8180 1.164591 769.00 795.36 27.73
15768 82.8230 1.164533 770.00 795.39 27.75
15769 82.8280 1.164476 779.00 795.39 27.91
15770 82.8330 1.164418 758.00 795.35 27.53
15771 82.8380 1.164361 745.00 795.28 27.29
15772 82.8430 1.164303 771.00 795.17 27.77
15773 82.8480 1.164245 741.00 795.03 27.22
15774 82.8530 1.164188 743.00 794.83 27.26
15775 82.8580 1.164130 737.00 794.60 27.15
15776 82.8630 1.164073 742.00 794.34 27.24
15777 82.8680 1.164015 756.00 794.04 27.50
15778 82.8730 1.163958 788.00 793.70 28.07
15779 82.8780 1.163900 780.00 793.31 27.93
15780 82.8830 1.163842 804.00 792.89 28.35
15781 82.8880 1.163785 834.00 792.42 28.88
15782 82.8930 1.163728 828.00 791.91 28.77
15783 82.8980 1.163670 807.00 791.36 28.41
15784 82.9030 1.163613 813.00 790.77 28.51
15785 82.9080 1.163555 814.00 790.14 28.53
15786 82.9130 1.163498 807.00 789.48 28.41
15787 82.9180 1.163440 808.00 788.77 28.43
15788 82.9230 1.163383 815.00 788.03 28.55
15789 82.9280 1.163325 799.00 787.26 28.27
15790 82.9330 1.163268 773.00 786.45 27.80
15791 82.9380 1.163210 755.00 785.60 27.48
15792 82.9430 1.163153 744.00 784.73 27.28
15793 82.9480 1.163096 750.00 783.83 27.39
15794 82.9530 1.163038 780.00 782.90 27.93
15795 82.9580 1.162981 787.00 781.94 28.05
15796 82.9630 1.162923 793.00 780.95 28.16
15797 82.9680 1.162866 793.00 779.94 28.16
15798 82.9730 1.162809 766.00 778.91 27.68
15799 82.9780 1.162751 759.00 777.86 27.55
15800 82.9830 1.162694 773.00 776.79 27.80
15801 82.9880 1.162636 775.00 775.71 27.84
15802 82.9930 1.162579 756.00 774.61 27.50
15803 82.9980 1.162522 744.00 773.50 27.28
15804 83.0030 1.162464 736.00 772.38 27.13
15805 83.0080 1.162407 757.00 771.25 27.51
15806 83.0130 1.162350 780.00 770.12 27.93
15807 83.0180 1.162292 773.00 768.98 27.80
15808 83.0230 1.162235 766.00 767.85 27.68
15809 83.0280 1.162178 761.00 766.71 27.59
15810 83.0330 1.162121 755.00 765.59 27.48
15811 83.0380 1.162063 733.00 764.47 27.07
15812 83.0430 1.162006 737.00 763.36 27.15
15813 83.0480 1.161949 757.00 762.26 27.51
15814 83.0530 1.161892 764.00 761.18 27.64
15815 83.0580 1.161834 758.00 760.12 27.53
15816 83.0630 1.161777 768.00 759.07 27.71
15817 83.0680 1.161720 777.00 758.04 27.87
15818 83.0730 1.161663 811.00 757.04 28.48
15819 83.0780 1.161605 826.00 756.06 28.74
15820 83.0830 1.161548 804.00 755.10 28.35
15821 83.0880 1.161491 770.00 754.17 27.75
15822 83.0930 1.161434 733.00 753.27 27.07
15823 83.0980 1.161377 722.00 752.40 26.87
15824 83.1030 1.161319 733.00 751.55 27.07
15825 83.1080 1.161262 757.00 750.74 27.51
15826 83.1130 1.161205 766.00 749.95 27.68
15827 83.1180 1.161148 763.00 749.19 27.62
15828 83.1230 1.161091 758.00 748.47 27.53
15829 83.1280 1.161034 758.00 747.78 27.53
15830 83.1330 1.160977 763.00 747.11 27.62
15831 83.1380 1.160919 757.00 746.48 27.51
15832 83.1430 1.160862 758.00 745.89 27.53
15833 83.1480 1.160805 768.00 745.32 27.71
15834 83.1530 1.160748 767.00 744.78 27.69
15835 83.1580 1.160691 796.00 744.28 28.21
15836 83.1630 1.160634 795.00 743.80 28.20
15837 83.1680 1.160577 754.00 743.36 27.46
15838 83.1730 1.160520 718.00 742.95 26.80
15839 83.1780 1.160463 725.00 742.57 26.93
15840 83.1830 1.160406 738.00 742.22 27.17
15841 83.1880 1.160349 727.00 741.91 26.96
15842 83.1930 1.160292 715.00 741.62 26.74
15843 83.1980 1.160235 716.00 741.37 26.76
15844 83.2030 1.160178 748.00 741.15 27.35
15845 83.2080 1.160121 777.00 740.96 27.87
15846 83.2130 1.160064 787.00 740.80 28.05
15847 83.2180 1.160007 803.00 740.68 28.34
15848 83.2230 1.159950 801.00 740.57 28.30
15849 83.2280 1.159893 768.00 740.52 27.71
15850 83.2330 1.159836 757.00 740.48 27.51
15851 83.2380 1.159779 779.00 740.48 27.91
15852 83.2430 1.159722 795.00 740.52 28.20
15853 83.2480 1.159665 803.00 740.59 28.34
15854 83.2530 1.159608 764.00 740.68 27.64
15855 83.2580 1.159551 712.00 740.81 26.68
15856 83.2630 1.159494 704.00 740.98 26.53
15857 83.2680 1.159437 737.00 741.17 27.15
15858 83.2730 1.159380 711.00 741.39 26.66
15859 83.2780 1.159323 699.00 741.65 26.44
15860 83.2830 1.159266 701.00 741.94 26.48
15861 83.2880 1.159209 721.00 742.26 26.85
15862 83.2930 1.159153 770.00 742.62 27.75
15863 83.2980 1.159096 815.00 743.01 28.55
15864 83.3030 1.159039 809.00 743.43 28.44
15865 83.3080 1.158982 757.00 743.88 27.51
15866 83.3130 1.158925 719.00 744.37 26.81
15867 83.3180 1.158868 737.00 744.88 27.15
15868 83.3230 1.158812 753.00 745.42 27.44
15869 83.3280 1.158755 753.00 746.00 27.44
15870 83.3330 1.158698 742.00 746.60 27.24
15871 83.3380 1.158641 757.00 747.23 27.51
15872 83.3430 1.158584 754.00 747.90 27.46
15873 83.3480 1.158527 742.00 748.59 27.24
15874 83.3530 1.158471 731.00 749.30 27.04
15875 83.3580 1.158414 733.00 750.05 27.07
15876 83.3630 1.158357 744.00 750.82 27.28
15877 83.3680 1.158300 753.00 751.61 27.44
15878 83.3730 1.158244 739.00 752.43 27.18
15879 83.3780 1.158187 704.00 753.28 26.53
15880 83.3830 1.158130 745.00 754.15 27.29
15881 83.3880 1.158073 787.00 755.05 28.05
15882 83.3930 1.158017 816.00 755.97 28.57
15883 83.3980 1.157960 835.00 756.91 28.90
15884 83.4030 1.157903 799.00 757.87 28.27
15885 83.4080 1.157847 744.00 758.86 27.28
15886 83.4130 1.157790 746.00 759.86 27.31
15887 83.4180 1.157733 744.00 760.89 27.28
15888 83.4230 1.157677 746.00 761.93 27.31
15889 83.4280 1.157620 794.00 763.00 28.18
15890 83.4330 1.157563 826.00 764.08 28.74
15891 83.4380 1.157506 800.00 765.18 28.28
15892 83.4430 1.157450 811.00 766.30 28.48
15893 83.4480 1.157393 819.00 767.43 28.62
15894 83.4530 1.157337 792.00 768.58 28.14
15895 83.4580 1.157280 784.00 769.74 28.00
15896 83.4630 1.157223 772.00 770.91 27.78
15897 83.4680 1.157167 746.00 772.09 27.31
15898 83.4730 1.157110 757.00 773.28 27.51
15899 83.4780 1.157054 779.00 774.48 27.91
15900 83.4830 1.156997 775.00 775.68 27.84
15901 83.4880 1.156940 785.00 776.88 28.02
15902 83.4930 1.156884 784.00 778.09 28.00
15903 83.4980 1.156827 766.00 779.29 27.68
15904 83.5030 1.156771 771.00 780.48 27.77
15905 83.5080 1.156714 769.00 781.65 27.73
15906 83.5130 1.156658 760.00 782.83 27.57
15907 83.5180 1.156601 777.00 783.99 27.87
15908 83.5230 1.156545 806.00 785.13 28.39
15909 83.5280 1.156488 824.00 786.25 28.71
15910 83.5330 1.156432 800.00 787.34 28.28
15911 83.5380 1.156375 768.00 788.40 27.71
15912 83.5430 1.156319 764.00 789.42 27.64
15913 83.5480 1.156262 772.00 790.42 27.78
15914 83.5530 1.156206 806.00 791.37 28.39
15915 83.5580 1.156149 841.00 792.27 29.00
15916 83.5630 1.156093 824.00 793.13 28.71
15917 83.5680 1.156036 815.00 793.95 28.55
15918 83.5730 1.155980 824.00 794.70 28.71
15919 83.5780 1.155923 816.00 795.39 28.57
15920 83.5830 1.155867 831.00 796.02 28.83
15921 83.5880 1.155811 840.00 796.59 28.98
15922 83.5930 1.155754 825.00 797.09 28.72
15923 83.5980 1.155698 807.00 797.52 28.41
15924 83.6030 1.155641 796.00 797.89 28.21
15925 83.6080 1.155585 774.00 798.17 27.82
15926 83.6130 1.155529 765.00 798.39 27.66
15927 83.6180 1.155472 794.00 798.54 28.18
15928 83.6230 1.155416 837.00 798.61 28.93
15929 83.6280 1.155360 854.00 798.61 29.22
15930 83.6330 1.155303 847.00 798.55 29.10
15931 83.6380 1.155247 835.00 798.41 28.90
15932 83.6430 1.155190 840.00 798.21 28.98
15933 83.6480 1.155134 850.00 797.93 29.15
15934 83.6530 1.155078 849.00 797.60 29.14
15935 83.6580 1.155021 849.00 797.20 29.14
15936 83.6630 1.154965 831.00 796.74 28.83
15937 83.6680 1.154909 824.00 796.23 28.71
15938 83.6730 1.154853 814.00 795.65 28.53
15939 83.6780 1.154796 823.00 795.04 28.69
15940 83.6830 1.154740 828.00 794.38 28.77
15941 83.6880 1.154684 808.00 793.68 28.43
15942 83.6930 1.154627 804.00 792.94 28.35
15943 83.6980 1.154571 819.00 792.17 28.62
15944 83.7030 1.154515 821.00 791.38 28.65
15945 83.7080 1.154459 789.00 790.54 28.09
15946 83.7130 1.154402 785.00 789.69 28.02
15947 83.7180 1.154346 809.00 788.83 28.44
15948 83.7230 1.154290 824.00 787.96 28.71
15949 83.7280 1.154234 841.00 787.07 29.00
15950 83.7330 1.154178 831.00 786.18 28.83
15951 83.7380 1.154122 797.00 785.29 28.23
15952 83.7430 1.154065 799.00 784.39 28.27
15953 83.7480 1.154009 835.00 783.50 28.90
15954 83.7530 1.153953 834.00 782.62 28.88
15955 83.7580 1.153897 808.00 781.74 28.43
15956 83.7630 1.153841 811.00 780.87 28.48
15957 83.7680 1.153785 805.00 780.02 28.37
15958 83.7730 1.153728 771.00 779.18 27.77
15959 83.7780 1.153672 757.00 778.36 27.51
15960 83.7830 1.153616 767.00 777.55 27.69
15961 83.7880 1.153560 767.00 776.76 27.69
15962 83.7930 1.153504 771.00 775.99 27.77
15963 83.7980 1.153448 783.00 775.25 27.98
15964 83.8030 1.153392 791.00 774.52 28.12
15965 83.8080 1.153336 784.00 773.81 28.00
15966 83.8130 1.153280 769.00 773.13 27.73
15967 83.8180 1.153224 794.00 772.46 28.18
15968 83.8230 1.153167 817.00 771.81 28.58
15969 83.8280 1.153111 798.00 771.18 28.25
15970 83.8330 1.153055 782.00 770.57 27.96
15971 83.8380 1.152999 786.00 769.97 28.04
15972 83.8430 1.152943 779.00 769.40 27.91
15973 83.8480 1.152887 779.00 768.83 27.91
15974 83.8530 1.152831 792.00 768.28 28.14
15975 83.8580 1.152775 797.00 767.75 28.23
15976 83.8630 1.152719 777.00 767.23 27.87
15977 83.8680 1.152663 748.00 766.72 27.35
15978 83.8730 1.152607 744.00 766.22 27.28
15979 83.8780 1.152551 734.00 765.73 27.09
15980 83.8830 1.152495 724.00 765.26 26.91
15981 83.8880 1.152439 724.00 764.80 26.91
15982 83.8930 1.152383 719.00 764.34 26.81
15983 83.8980 1.152327 720.00 763.90 26.83
15984 83.9030 1.152272 722.00 763.47 26.87
15985 83.9080 1.152216 756.00 763.05 27.50
15986 83.9130 1.152160 781.00 762.65 27.95
15987 83.9180 1.152104 771.00 762.27 27.77
15988 83.9230 1.152048 761.00 761.89 27.59
15989 83.9280 1.151992 763.00 761.53 27.62
15990 83.9330 1.151936 772.00 761.19 27.78
15991 83.9380 1.151880 758.00 760.87 27.53
15992 83.9430 1.151824 755.00 760.57 27.48
15993 83.9480 1.151768 765.00 760.29 27.66
15994 83.9530 1.151713 788.00 760.04 28.07
15995 83.9580 1.151657 811.00 759.82 28.48
15996 83.9630 1.151601 770.00 759.61 27.75
15997 83.9680 1.151545 724.00 759.44 26.91
15998 83.9730 1.151489 725.00 759.30 26.93
15999 83.9780 1.151433 736.00 759.19 27.13
16000 83.9830 1.151378 731.00 759.11 27.04
16001 83.9880 1.151322 738.00 759.07 27.17
16002 83.9930 1.151266 740.00 759.06 27.20
16003 83.9980 1.151210 742.00 759.09 27.24
16004 84.0030 1.151154 752.00 759.15 27.42
16005 84.0080 1.151099 748.00 759.24 27.35
16006 84.0130 1.151043 736.00 759.38 27.13
16007 84.0180 1.150987 743.00 759.55 27.26
16008 84.0230 1.150931 755.00 759.76 27.48
16009 84.0280 1.150876 743.00 760.01 27.26
16010 84.0330 1.150820 726.00 760.30 26.94
16011 84.0380 1.150764 735.00 760.62 27.11
16012 84.0430 1.150708 774.00 760.98 27.82
16013 84.0480 1.150653 781.00 761.38 27.95
16014 84.0530 1.150597 758.00 761.82 27.53
16015 84.0580 1.150541 743.00 762.29 27.26
16016 84.0630 1.150486 744.00 762.80 27.28
16017 84.0680 1.150430 764.00 763.34 27.64
16018 84.0730 1.150374 779.00 763.92 27.91
16019 84.0780 1.150319 796.00 764.53 28.21
16020 84.0830 1.150263 794.00 765.19 28.18
16021 84.0880 1.150207 747.00 765.86 27.33
16022 84.0930 1.150151 724.00 766.57 26.91
16023 84.0980 1.150096 729.00 767.31 27.00
16024 84.1030 1.150040 745.00 768.08 27.29
16025 84.1080 1.149985 791.00 768.88 28.12
16026 84.1130 1.149929 821.00 769.70 28.65
16027 84.1180 1.149873 800.00 770.55 28.28
16028 84.1230 1.149818 791.00 771.42 28.12
16029 84.1280 1.149762 809.00 772.31 28.44
16030 84.1330 1.149707 810.00 773.23 28.46
16031 84.1380 1.149651 784.00 774.16 28.00
16032 84.1430 1.149595 750.00 775.12 27.39
16033 84.1480 1.149540 753.00 776.08 27.44
16034 84.1530 1.149484 775.00 777.07 27.84
16035 84.1580 1.149429 783.00 778.06 27.98
16036 84.1630 1.149373 760.00 779.06 27.57
16037 84.1680 1.149318 767.00 780.07 27.69
16038 84.1730 1.149262 797.00 781.08 28.23
16039 84.1780 1.149207 784.00 782.09 28.00
16040 84.1830 1.149151 786.00 783.10 28.04
16041 84.1880 1.149096 778.00 784.11 27.89
16042 84.1930 1.149040 785.00 785.11 28.02
16043 84.1980 1.148985 805.00 786.10 28.37
16044 84.2030 1.148929 797.00 787.08 28.23
16045 84.2080 1.148874 785.00 788.04 28.02
16046 84.2130 1.148818 773.00 788.99 27.80
16047 84.2180 1.148763 749.00 789.90 27.37
16048 84.2230 1.148707 758.00 790.79 27.53
16049 84.2280 1.148652 758.00 791.66 27.53
16050 84.2330 1.148596 755.00 792.49 27.48
16051 84.2380 1.148541 800.00 793.28 28.28
16052 84.2430 1.148486 842.00 794.04 29.02
16053 84.2480 1.148430 844.00 794.75 29.05
16054 84.2530 1.148375 845.00 795.42 29.07
16055 84.2580 1.148319 843.00 796.05 29.03
16056 84.2630 1.148264 808.00 796.63 28.43
16057 84.2680 1.148209 820.00 797.16 28.64
16058 84.2730 1.148153 843.00 797.64 29.03
16059 84.2780 1.148098 825.00 798.07 28.72
16060 84.2830 1.148043 825.00 798.44 28.72
16061 84.2880 1.147987 852.00 798.76 29.19
16062 84.2930 1.147932 860.00 799.03 29.33
16063 84.2980 1.147877 871.00 799.24 29.51
16064 84.3030 1.147821 858.00 799.39 29.29
16065 84.3080 1.147766 850.00 799.50 29.15
16066 84.3130 1.147710 858.00 799.55 29.29
16067 84.3180 1.147655 839.00 799.55 28.97
16068 84.3230 1.147600 810.00 799.50 28.46
16069 84.3280 1.147545 788.00 799.40 28.07
16070 84.3330 1.147489 776.00 799.25 27.86
16071 84.3380 1.147434 771.00 799.05 27.77
16072 84.3430 1.147379 791.00 798.82 28.12
16073 84.3480 1.147323 811.00 798.53 28.48
16074 84.3530 1.147268 796.00 798.20 28.21
16075 84.3580 1.147213 774.00 797.84 27.82
16076 84.3630 1.147158 794.00 797.44 28.18
16077 84.3680 1.147102 807.00 797.00 28.41
16078 84.3730 1.147047 783.00 796.53 27.98
16079 84.3780 1.146992 781.00 796.04 27.95
16080 84.3830 1.146937 796.00 795.52 28.21
16081 84.3880 1.146882 800.00 794.97 28.28
16082 84.3930 1.146826 783.00 794.40 27.98
16083 84.3980 1.146771 762.00 793.80 27.60
16084 84.4030 1.146716 772.00 793.20 27.78
16085 84.4080 1.146661 787.00 792.59 28.05
16086 84.4130 1.146606 772.00 791.96 27.78
16087 84.4180 1.146551 771.00 791.33 27.77
16088 84.4230 1.146495 771.00 790.69 27.77
16089 84.4280 1.146440 784.00 790.04 28.00
16090 84.4330 1.146385 792.00 789.40 28.14
16091 84.4380 1.146330 782.00 788.75 27.96
16092 84.4430 1.146275 792.00 788.11 28.14
16093 84.4480 1.146220 778.00 787.47 27.89
16094 84.4530 1.146165 762.00 786.84 27.60
16095 84.4580 1.146109 757.00 786.21 27.51
16096 84.4630 1.146055 751.00 785.59 27.40
16097 84.4680 1.145999 745.00 784.98 27.29
16098 84.4730 1.145944 746.00 784.38 27.31
16099 84.4780 1.145889 756.00 783.79 27.50
16100 84.4830 1.145834 780.00 783.21 27.93
16101 84.4880 1.145779 779.00 782.65 27.91
16102 84.4930 1.145724 792.00 782.09 28.14
16103 84.4980 1.145669 813.00 781.55 28.51
16104 84.5030 1.145614 814.00 781.03 28.53
16105 84.5080 1.145559 805.00 780.51 28.37
16106 84.5130 1.145504 788.00 780.01 28.07
16107 84.5180 1.145449 783.00 779.53 27.98
16108 84.5230 1.145394 782.00 779.05 27.96
16109 84.5280 1.145339 790.00 778.58 28.11
16110 84.5330 1.145284 786.00 778.13 28.04
16111 84.5380 1.145229 757.00 777.69 27.51
16112 84.5430 1.145174 744.00 777.26 27.28
16113 84.5480 1.145119 770.00 776.85 27.75
16114 84.5530 1.145064 803.00 776.45 28.34
16115 84.5580 1.145009 780.00 776.06 27.93
16116 84.5630 1.144954 765.00 775.68 27.66
16117 84.5680 1.144899 791.00 775.32 28.12
16118 84.5730 1.144844 783.00 774.98 27.98
16119 84.5780 1.144789 767.00 774.64 27.69
16120 84.5830 1.144735 736.00 774.32 27.13
16121 84.5880 1.144680 712.00 774.01 26.68
16122 84.5930 1.144625 728.00 773.72 26.98
16123 84.5980 1.144570 757.00 773.43 27.51
16124 84.6030 1.144515 750.00 773.17 27.39
16125 84.6080 1.144460 731.00 772.92 27.04
16126 84.6130 1.144405 727.00 772.68 26.96
16127 84.6180 1.144350 751.00 772.46 27.40
16128 84.6230 1.144295 762.00 772.25 27.60
16129 84.6280 1.144241 755.00 772.05 27.48
16130 84.6330 1.144186 768.00 771.88 27.71
16131 84.6380 1.144131 777.00 771.71 27.87
16132 84.6430 1.144076 780.00 771.56 27.93
16133 84.6480 1.144021 765.00 771.42 27.66
16134 84.6530 1.143967 738.00 771.30 27.17
16135 84.6580 1.143912 736.00 771.19 27.13
16136 84.6630 1.143857 745.00 771.10 27.29
16137 84.6680 1.143802 778.00 771.02 27.89
16138 84.6730 1.143747 815.00 770.96 28.55
16139 84.6780 1.143693 828.00 770.91 28.77
16140 84.6830 1.143638 797.00 770.88 28.23
16141 84.6880 1.143583 773.00 770.87 27.80
16142 84.6930 1.143528 776.00 770.87 27.86
16143 84.6980 1.143474 782.00 770.89 27.96
16144 84.7030 1.143419 781.00 770.93 27.95
16145 84.7080 1.143364 755.00 770.99 27.48
16146 84.7130 1.143309 751.00 771.06 27.40
16147 84.7180 1.143255 786.00 771.15 28.04
16148 84.7230 1.143200 808.00 771.27 28.43
16149 84.7280 1.143145 792.00 771.40 28.14
16150 84.7330 1.143091 799.00 771.54 28.27
16151 84.7380 1.143036 810.00 771.72 28.46
16152 84.7430 1.142981 782.00 771.90 27.96
16153 84.7480 1.142926 776.00 772.10 27.86
16154 84.7530 1.142872 793.00 772.33 28.16
16155 84.7580 1.142817 802.00 772.56 28.32
16156 84.7630 1.142763 787.00 772.82 28.05
16157 84.7680 1.142708 771.00 773.09 27.77
16158 84.7730 1.142653 751.00 773.37 27.40
16159 84.7780 1.142599 742.00 773.66 27.24
16160 84.7830 1.142544 753.00 773.98 27.44
16161 84.7880 1.142490 787.00 774.30 28.05
16162 84.7930 1.142435 808.00 774.63 28.43
16163 84.7980 1.142380 792.00 774.98 28.14
16164 84.8030 1.142326 772.00 775.33 27.78
16165 84.8080 1.142271 765.00 775.69 27.66
16166 84.8130 1.142216 767.00 776.06 27.69
16167 84.8180 1.142162 780.00 776.44 27.93
16168 84.8230 1.142107 781.00 776.83 27.95
16169 84.8280 1.142053 764.00 777.22 27.64
16170 84.8330 1.141998 775.00 777.61 27.84
16171 84.8380 1.141944 797.00 778.01 28.23
16172 84.8430 1.141889 792.00 778.42 28.14
16173 84.8480 1.141835 790.00 778.83 28.11
16174 84.8530 1.141780 784.00 779.25 28.00
16175 84.8580 1.141726 768.00 779.67 27.71
16176 84.8630 1.141671 751.00 780.10 27.40
16177 84.8680 1.141617 754.00 780.54 27.46
16178 84.8730 1.141562 784.00 780.98 28.00
16179 84.8780 1.141508 793.00 781.43 28.16
16180 84.8830 1.141453 773.00 781.89 27.80
16181 84.8880 1.141399 755.00 782.35 27.48
16182 84.8930 1.141344 735.00 782.82 27.11
16183 84.8980 1.141290 749.00 783.30 27.37
loop_
_pd_proc_info_excluded_regions
'from 2.997 to 4.000'
loop_
_restr_angle_atom_site_label_1
_restr_angle_site_symmetry_1
_restr_angle_atom_site_label_2
_restr_angle_site_symmetry_2
_restr_angle_atom_site_label_3
_restr_angle_site_symmetry_3
_restr_angle_target
_restr_angle_target_weight_param
C9 . C3 . C8 . 110.47 1.5
C9 . C3 . C4 . 110.47 1.5
C9 . C3 . C2 . 110.47 1.5
C10 . C7 . C2 . 110.47 1.5
C10 . C7 . C6 . 110.47 1.5
C10 . C7 . C1 . 110.47 1.5
C7 . C2 . C3 . 110.47 1.5
C7 . C6 . N2 . 110.47 1.5
C7 . C1 . N1 . 110.47 1.5
C2 . C7 . C6 . 110.47 1.5
C6 . C7 . C1 . 110.47 1.5
C2 . C3 . C4 . 110.47 1.5
C4 . C3 . C8 . 110.47 1.5
N1 . C5 . N2 . 110.47 1.5
C6 . N2 . C8 . 110.47 1.5
N1 . C4 . C3 . 110.47 1.5
loop_
_restr_distance_atom_site_label_1
_restr_distance_site_symmetry_1
_restr_distance_atom_site_label_2
_restr_distance_site_symmetry_2
_restr_distance_target
_restr_distance_target_weight_param
C3 . C9 . 1.5 0.07
C10 . C7 . 1.5 0.07
C5 . N1 . 1.5 0.07
C5 . N2 . 1.5 0.07
C6 . N2 . 1.5 0.07
C8 . N2 . 1.5 0.07
C6 . C7 . 1.5 0.07
C2 . C7 . 1.5 0.07
C2 . C3 . 1.5 0.07
C7 . C1 . 1.5 0.07
C1 . N1 . 1.5 0.07
C4 . N1 . 1.5 0.07
C8 . C3 . 1.5 0.07
C4 . C3 . 1.5 0.07
loop_
_restr_equal_angle_atom_site_label_1
_restr_equal_angle_site_symmetry_1
_restr_equal_angle_atom_site_label_2
_restr_equal_angle_site_symmetry_2
_restr_equal_angle_atom_site_label_3
_restr_equal_angle_site_symmetry_3
_restr_equal_angle_class_class_id
_restr_equal_angle_class_target_weight_param
? ? ? ? ? ? ? ?
loop_
_restr_equal_distance_atom_site_label_1
_restr_equal_distance_site_symmetry_1
_restr_equal_distance_atom_site_label_2
_restr_equal_distance_site_symmetry_2
_restr_equal_distance_class_class_id
_restr_equal_distance_class_target_weight_param
? ? ? ? ? ?
loop_
_restr_equal_torsion_atom_site_label_1
_restr_equal_torsion_site_symmetry_1
_restr_equal_torsion_atom_site_label_2
_restr_equal_torsion_site_symmetry_2
_restr_equal_torsion_atom_site_label_3
_restr_equal_torsion_site_symmetry_3
_restr_equal_torsion_atom_site_label_4
_restr_equal_torsion_site_symmetry_4
_restr_equal_torsion_class_class_id
_restr_equal_torsion_class_target_weight_param
? ? ? ? ? ? ? ? ? ?
loop_
_restr_torsion_atom_site_label_1
_restr_torsion_site_symmetry_1
_restr_torsion_atom_site_label_2
_restr_torsion_site_symmetry_2
_restr_torsion_atom_site_label_3
_restr_torsion_site_symmetry_3
_restr_torsion_atom_site_label_4
_restr_torsion_site_symmetry_4
_restr_torsion_angle_target
_restr_torsion_weight_param
? ? ? ? ? ? ? ? ? ?
loop_
_jana_atom_site_adp_c_label
_jana_atom_site_adp_c_type_symbol
_jana_atom_site_adp_c_111
_jana_atom_site_adp_c_112
_jana_atom_site_adp_c_113
_jana_atom_site_adp_c_122
_jana_atom_site_adp_c_123
_jana_atom_site_adp_c_133
_jana_atom_site_adp_c_222
_jana_atom_site_adp_c_223
_jana_atom_site_adp_c_233
_jana_atom_site_adp_c_333
? ? ? ? ? ? ? ? ? ? ? ?
loop_
_jana_atom_site_adp_d_label
_jana_atom_site_adp_d_type_symbol
_jana_atom_site_adp_d_1111
_jana_atom_site_adp_d_1112
_jana_atom_site_adp_d_1113
_jana_atom_site_adp_d_1122
_jana_atom_site_adp_d_1123
_jana_atom_site_adp_d_1133
_jana_atom_site_adp_d_1222
_jana_atom_site_adp_d_1223
_jana_atom_site_adp_d_1233
_jana_atom_site_adp_d_1333
_jana_atom_site_adp_d_2222
_jana_atom_site_adp_d_2223
_jana_atom_site_adp_d_2233
_jana_atom_site_adp_d_2333
_jana_atom_site_adp_d_3333
? ? ? ? ? ? ? ? ? ? ? ? ? ? ? ? ?
loop_
_jana_atom_site_adp_e_label
_jana_atom_site_adp_e_type_symbol
_jana_atom_site_adp_e_11111
_jana_atom_site_adp_e_11112
_jana_atom_site_adp_e_11113
_jana_atom_site_adp_e_11122
_jana_atom_site_adp_e_11123
_jana_atom_site_adp_e_11133
_jana_atom_site_adp_e_11222
_jana_atom_site_adp_e_11223
_jana_atom_site_adp_e_11233
_jana_atom_site_adp_e_11333
_jana_atom_site_adp_e_12222
_jana_atom_site_adp_e_12223
_jana_atom_site_adp_e_12233
_jana_atom_site_adp_e_12333
_jana_atom_site_adp_e_13333
_jana_atom_site_adp_e_22222
_jana_atom_site_adp_e_22223
_jana_atom_site_adp_e_22233
_jana_atom_site_adp_e_22333
_jana_atom_site_adp_e_23333
_jana_atom_site_adp_e_33333
? ? ? ? ? ? ? ? ? ? ? ? ? ? ? ? ? ? ? ? ? ? ?
loop_
_jana_atom_site_adp_f_label
_jana_atom_site_adp_f_type_symbol
_jana_atom_site_adp_f_111111
_jana_atom_site_adp_f_111112
_jana_atom_site_adp_f_111113
_jana_atom_site_adp_f_111122
_jana_atom_site_adp_f_111123
_jana_atom_site_adp_f_111133
_jana_atom_site_adp_f_111222
_jana_atom_site_adp_f_111223
_jana_atom_site_adp_f_111233
_jana_atom_site_adp_f_111333
_jana_atom_site_adp_f_112222
_jana_atom_site_adp_f_112223
_jana_atom_site_adp_f_112233
_jana_atom_site_adp_f_112333
_jana_atom_site_adp_f_113333
_jana_atom_site_adp_f_122222
_jana_atom_site_adp_f_122223
_jana_atom_site_adp_f_122233
_jana_atom_site_adp_f_122333
_jana_atom_site_adp_f_123333
_jana_atom_site_adp_f_133333
_jana_atom_site_adp_f_222222
_jana_atom_site_adp_f_222223
_jana_atom_site_adp_f_222233
_jana_atom_site_adp_f_222333
_jana_atom_site_adp_f_223333
_jana_atom_site_adp_f_233333
_jana_atom_site_adp_f_333333
? ? ? ? ? ? ? ? ? ? ? ? ? ? ? ? ? ? ? ? ? ? ? ? ? ? ? ? ? ?
loop_
_publcif_info_exptl_table_extra_item
?
loop_
_publcif_info_exptl_table_header_item
?
