#------------------------------------------------------------------------------
#$Date: 2021-07-05 20:10:48 +0300 (Mon, 05 Jul 2021) $
#$Revision: 267123 $
#$URL: file:///home/coder/svn-repositories/cod/cif/7/24/28/7242882.cif $
#------------------------------------------------------------------------------
#
# This file is available in the Crystallography Open Database (COD),
# http://www.crystallography.net/
#
# All data on this site have been placed in the public domain by the
# contributors.
#
data_7242882
loop_
_publ_author_name
'Richardson, Jonathan G.'
'Mizuno, Asato'
'Shuku, Yoshiaki'
'Awaga, Kunio'
'Robertson, Neil'
'Morrison, Carole A.'
'Warren, Mark R.'
'Allan, David R.'
'Moggach, Stephen A.'
_publ_section_title
;
 Evaluating the high-pressure structural response and crystal lattice
 interactions of the magnetically-bistable organic radical TTTA
;
_journal_issue                   25
_journal_name_full               CrystEngComm
_journal_page_first              4444
_journal_page_last               4450
_journal_paper_doi               10.1039/D1CE00577D
_journal_volume                  23
_journal_year                    2021
_chemical_formula_moiety         'C2 N3 S3'
_chemical_formula_sum            'C2 N3 S3'
_chemical_formula_weight         162.24
_space_group_IT_number           14
_space_group_name_Hall           '-P 2ybc'
_space_group_name_H-M_alt        'P 1 21/c 1'
_symmetry_cell_setting           monoclinic
_symmetry_space_group_name_Hall  '-P 2ybc'
_symmetry_space_group_name_H-M   'P 1 21/c 1'
_atom_sites_solution_hydrogens   difmap
_atom_sites_solution_primary     direct
_audit_creation_date             2021-04-22
_audit_creation_method           CRYSTALS_ver_14.61_build_6999
_audit_update_record
;
2021-04-27 deposited with the CCDC.	2021-05-18 downloaded from the CCDC.
;
_cell_angle_alpha                90
_cell_angle_beta                 104.46(6)
_cell_angle_gamma                90
_cell_formula_units_Z            4
_cell_length_a                   9.240(12)
_cell_length_b                   3.3710(4)
_cell_length_c                   14.596(3)
_cell_measurement_reflns_used    902
_cell_measurement_temperature    293
_cell_measurement_theta_max      22
_cell_measurement_theta_min      4
_cell_volume                     440.2(6)
_computing_cell_refinement       'USER DEFINED CELL REFINEMENT'
_computing_data_collection       'USER DEFINED DATA COLLECTION'
_computing_data_reduction
; 
 CrysAlisPro (Rigaku Oxford Diffraction, 2017) 
;
_computing_molecular_graphics    'CAMERON (Watkin et al., 1996)'
_computing_publication_material  'CRYSTALS (Betteridge et al., 2003)'
_computing_structure_refinement  'CRYSTALS (Betteridge et al., 2003)'
_computing_structure_solution    'SHELXS 86 (Sheldrick, 1986)'
_diffrn_ambient_pressure         2540000
_diffrn_ambient_temperature      293
_diffrn_measured_fraction_theta_full 0.295
_diffrn_measured_fraction_theta_max 0.247
_diffrn_measurement_device       Area
_diffrn_measurement_device_type  Synchrotron
_diffrn_measurement_method       \w
_diffrn_radiation_monochromator  'focussing mirrors'
_diffrn_radiation_type           synchrotron
_diffrn_radiation_wavelength     0.48590
_diffrn_reflns_av_R_equivalents  0.027
_diffrn_reflns_av_unetI/netI     0.040
_diffrn_reflns_limit_h_max       7
_diffrn_reflns_limit_h_min       -6
_diffrn_reflns_limit_k_max       5
_diffrn_reflns_limit_k_min       -5
_diffrn_reflns_limit_l_max       19
_diffrn_reflns_limit_l_min       -19
_diffrn_reflns_number            2284
_diffrn_reflns_theta_full        17.066
_diffrn_reflns_theta_max         22.755
_diffrn_reflns_theta_min         3.860
_diffrn_standards_number         0
_exptl_absorpt_coefficient_mu    0.513
_exptl_absorpt_correction_T_max  0.95
_exptl_absorpt_correction_T_min  0.63
_exptl_absorpt_correction_type   multi-scan
_exptl_absorpt_process_details   'DENZO/SCALEPACK (Otwinowski & Minor, 1997)'
_exptl_crystal_colour            black
_exptl_crystal_density_diffrn    2.448
_exptl_crystal_density_meas      ?
_exptl_crystal_density_method    'not measured'
_exptl_crystal_description       block
_exptl_crystal_F_000             324
_exptl_crystal_size_max          0.120
_exptl_crystal_size_mid          0.100
_exptl_crystal_size_min          0.100
_refine_diff_density_max         0.43
_refine_diff_density_min         -0.38
_refine_ls_extinction_method     None
_refine_ls_goodness_of_fit_ref   1.0084
_refine_ls_hydrogen_treatment    noref
_refine_ls_matrix_type           full
_refine_ls_number_parameters     73
_refine_ls_number_reflns         458
_refine_ls_number_restraints     104
_refine_ls_R_factor_all          0.0717
_refine_ls_R_factor_gt           0.0488
_refine_ls_shift/su_max          0.0000685
_refine_ls_shift/su_mean         0.0000083
_refine_ls_structure_factor_coef Fsqd
_refine_ls_weighting_details
;
 Method= Modified Sheldrick 
 w=1/[\s^2^(F^2^) + ( 0.01P)^2^ + 2.81P] 
 ,where P=(max(Fo^2^,0) + 2Fc^2^)/3 
;
_refine_ls_weighting_scheme      calc
_refine_ls_wR_factor_all         0.1445
_refine_ls_wR_factor_gt          0.1346
_refine_ls_wR_factor_ref         0.0944
_reflns_limit_h_max              4
_reflns_limit_h_min              -7
_reflns_limit_k_max              5
_reflns_limit_k_min              0
_reflns_limit_l_max              19
_reflns_limit_l_min              0
_reflns_number_gt                339
_reflns_number_total             463
_reflns_threshold_expression     I>2.0\s(I)
_oxford_diffrn_Wilson_B_factor   0.00
_oxford_diffrn_Wilson_scale      0.00
_oxford_refine_ls_r_factor_ref   0.0628
_oxford_refine_ls_scale          0.768(4)
_oxford_reflns_number_all        463
_iucr_refine_instructions_details
;
#
# Punched on 22/04/21 at 21:19:17
#
#LIST     12                                                                    
BLOCK SCALE X'S  U'S 
END                                                                             
#
# Punched on 22/04/21 at 21:19:17
#
#LIST     16                                                                    
DIST   1.659,.01= S(1) TO N(2) 
DIST   1.734,.01= S(1) TO C(5) 
DIST   1.656,.01= N(2) TO S(3) 
DIST   1.735,.01= S(3) TO C(4) 
DIST   1.430,.01= C(4) TO C(5) 
DIST   1.313,.01= C(4) TO N(8) 
DIST   1.318,.01= C(5) TO N(6) 
DIST   1.645,.01= N(6) TO S(7) 
DIST   1.646,.01= S(7) TO N(8) 
ANGL  98,1= C(5) TO S(1) TO N(2) 
ANGL 117,1= S(3) TO N(2) TO S(1) 
ANGL  98,1= C(4) TO S(3) TO N(2) 
ANGL 114,1= C(5) TO C(4) TO S(3) 
ANGL 132,1= N(8) TO C(4) TO S(3) 
ANGL 114,1= N(8) TO C(4) TO C(5) 
ANGL 114,1= C(4) TO C(5) TO S(1) 
ANGL 132,1= N(6) TO C(5) TO S(1) 
ANGL 114,1= N(6) TO C(5) TO C(4) 
ANGL 106,1= S(7) TO N(6) TO C(5) 
ANGL  99,1= N(8) TO S(7) TO N(6) 
ANGL 106,1= S(7) TO N(8) TO C(4) 
REM   HREST   START (DO NOT REMOVE THIS LINE) 
REM   HREST   END (DO NOT REMOVE THIS LINE) 
PLANAR 0.01 N(2) S(1) S(3) C(4) C(5) N(6) S(7) N(8) 
REM   DELU   START (DO NOT REMOVE THIS LINE) 
VIBR .0, 0.00200 = S(1) TO N(2) 
VIBR .0, 0.00200 = S(1) TO C(5) 
VIBR .0, 0.00500 = C(5) TO N(2) 
VIBR .0, 0.00200 = N(2) TO S(3) 
VIBR .0, 0.00500 = S(3) TO S(1) 
VIBR .0, 0.00200 = S(3) TO C(4) 
VIBR .0, 0.00500 = C(4) TO N(2) 
VIBR .0, 0.00200 = C(4) TO C(5) 
VIBR .0, 0.00200 = C(4) TO N(8) 
VIBR .0, 0.00500 = C(5) TO S(3) 
VIBR .0, 0.00500 = N(8) TO S(3) 
VIBR .0, 0.00500 = N(8) TO C(5) 
VIBR .0, 0.00200 = C(5) TO N(6) 
VIBR .0, 0.00500 = S(1) TO C(4) 
VIBR .0, 0.00500 = N(6) TO C(4) 
VIBR .0, 0.00500 = N(6) TO S(1) 
VIBR .0, 0.00200 = N(6) TO S(7) 
VIBR .0, 0.00500 = S(7) TO C(5) 
VIBR .0, 0.00200 = S(7) TO N(8) 
VIBR .0, 0.00500 = N(8) TO N(6) 
VIBR .0, 0.00500 = S(7) TO C(4) 
REM   DELU   END (DO NOT REMOVE THIS LINE) 
REM   THERMSIM   START (DO NOT REMOVE THIS LINE) 
U(IJ) .0, 0.04000 = S(1) TO N(2) 
U(IJ) .0, 0.04000 = S(1) TO C(5) 
U(IJ) .0, 0.04000 = N(2) TO S(3) 
U(IJ) .0, 0.04000 = S(3) TO C(4) 
U(IJ) .0, 0.04000 = C(4) TO C(5) 
U(IJ) .0, 0.04000 = C(4) TO N(8) 
U(IJ) .0, 0.04000 = C(5) TO N(6) 
U(IJ) .0, 0.04000 = N(6) TO S(7) 
U(IJ) .0, 0.04000 = S(7) TO N(8) 
REM   THERMSIM   END (DO NOT REMOVE THIS LINE) 
END                                                                             
;
_cod_data_source_file            d1ce00577d2.cif
_cod_data_source_block           254GPa
_cod_depositor_comments
;
The following automatic conversions were performed:

data item '_exptl_crystal_density_meas' value 'not measured' was
changed to '?' -- the value is perceived as not measured.

Automatic conversion script
Id: cif_fix_values 7556 2019-12-06 15:28:31Z antanas 

 Adding full bibliography for 7242874--7242883.cif.
;
_cod_original_cell_volume        440.3(6)
_cod_original_sg_symbol_H-M      'P 1 21/c 1 '
_cod_database_code               7242882
_oxford_refine_reflns_threshold_expression_ref I>-3.0\s(I)
_iucr_refine_reflections_details
; 
 
# Data was input as F-squared 
# punching LIST  6 as LIST  6 with all keys set 
# NBGNXT=    36 
#LIST   6 
READ NCOEF= 8 TYPE=FIX, F'S = FSQ UNIT=DATA, CHECK=NO L30=NO ARCH=NO 
STORE  NCOEF= 6 
OUTPUT INDICES     /FO/        SIGMA(/FO/) RATIO/JCODE CORRECTIONS SERIAL 
CONT 
INPUT  H           K           L           /FO/        SIGMA(/FO/) JCODE 
CONT   CORRECTIONS SERIAL 
FOR (I4,I4,I4,F10.2,F8.2,F4.0,F7.4,F7.0) 
END 
   0  -1   0      0.09    1.24  0. 1.0000     0. 
   0  -1   0     -0.11    0.72  0. 1.0000     0. 
   0   1   0      0.43    1.14  0. 1.0000     0. 
   0   1   0      0.64    0.65  0. 1.0000     0. 
   0   1   0      0.93    0.66  0. 1.0000     0. 
   0   1   0      0.03    0.87  0. 1.0000     0. 
   1  -1   0   9993.40  189.18  0. 1.0000     0. 
   1  -1   0   9117.36  194.41  0. 1.0000     0. 
  -1  -1   0   9835.55  189.75  0. 1.0000     0. 
  -1  -1   0   9736.46  285.06  0. 1.0000     0. 
   1   1   0   9668.31  192.83  0. 1.0000     0. 
   1   1   0   9966.25  187.16  0. 1.0000     0. 
  -1   1   0   9999.99  187.17  0. 1.0000     0. 
  -1   1   0   9794.58  187.14  0. 1.0000     0. 
  -1   1   0   9814.94  189.94  0. 1.0000     0. 
   1   1   0   9922.19  185.53  0. 1.0000     0. 
   1   1   0   9876.81  184.39  0. 1.0000     0. 
   0   2   0    948.22   19.58  0. 1.0000     0. 
   0   2   0    937.94   18.98  0. 1.0000     0. 
  -1  -2   0   1060.37   33.93  0. 1.0000     0. 
   1  -2   0   1058.72   21.54  0. 1.0000     0. 
   1  -2   0   1062.07   22.92  0. 1.0000     0. 
   1   2   0   1064.53   21.18  0. 1.0000     0. 
   1   2   0   1057.88   21.28  0. 1.0000     0. 
  -1   2   0   1048.77   20.70  0. 1.0000     0. 
  -1   2   0   1054.44   22.86  0. 1.0000     0. 
   1   2   0   1068.93   23.83  0. 1.0000     0. 
  -1   2   0   1067.16   22.17  0. 1.0000     0. 
  -1   2   0   1059.72   21.39  0. 1.0000     0. 
   1   3   0     15.18    5.07  0. 1.0000     0. 
  -2  -3   0    692.86   25.52  0. 1.0000     0. 
   2  -3   0    652.03   16.75  0. 1.0000     0. 
   2  -3   0    706.86   15.91  0. 1.0000     0. 
  -2  -3   0    686.76   15.49  0. 1.0000     0. 
  -2   3   0    664.37   14.09  0. 1.0000     0. 
   2   3   0    686.38   14.50  0. 1.0000     0. 
   2   3   0    650.75   18.34  0. 1.0000     0. 
  -3   3   0      2.41    2.80  0. 1.0000     0. 
  -3   3   0      5.30    2.82  0. 1.0000     0. 
   3   3   0      2.04    6.35  0. 1.0000     0. 
   3   3   0     23.10    3.80  0. 1.0000     0. 
  -1  -1   1     79.62    2.64  0. 1.0000     0. 
   1  -1  -1     82.09    2.11  0. 1.0000     0. 
  -1  -1   1     80.02    3.57  0. 1.0000     0. 
   1  -1  -1     80.57    2.32  0. 1.0000     0. 
   1   1  -1     80.86    2.95  0. 1.0000     0. 
   1   1  -1     81.58    2.40  0. 1.0000     0. 
   1   1  -1     78.91    2.26  0. 1.0000     0. 
   1   1  -1     79.73    2.27  0. 1.0000     0. 
  -1   1   1     77.54    2.92  0. 1.0000     0. 
  -1   1   1     80.17    2.13  0. 1.0000     0. 
   0  -1   1    511.01   11.35  0. 1.0000     0. 
   0  -1   1    528.13   10.87  0. 1.0000     0. 
   0  -1  -1    537.41   10.78  0. 1.0000     0. 
   0  -1  -1    542.64   11.02  0. 1.0000     0. 
   0   1  -1    558.02   10.70  0. 1.0000     0. 
   0   1   1    540.16   10.65  0. 1.0000     0. 
   0   1   1    524.11   12.38  0. 1.0000     0. 
   0   1  -1    527.46   11.84  0. 1.0000     0. 
   0   1  -1    533.16   10.50  0. 1.0000     0. 
   0   1   1    535.75   10.74  0. 1.0000     0. 
   0   1   1    533.18   10.65  0. 1.0000     0. 
   0   1  -1    541.73   10.76  0. 1.0000     0. 
   1  -1   1   3297.20   66.51  0. 1.0000     0. 
  -1  -1  -1   3256.57   98.92  0. 1.0000     0. 
  -1   1  -1   3408.06   65.61  0. 1.0000     0. 
   1   1   1   3366.67   63.88  0. 1.0000     0. 
   1   1   1   3407.41   66.57  0. 1.0000     0. 
   1   1   1   3419.66   65.02  0. 1.0000     0. 
   3   2  -1    237.54    6.03  0. 1.0000     0. 
  -1  -2   1   1270.33   39.63  0. 1.0000     0. 
   1  -2  -1   1294.30   25.94  0. 1.0000     0. 
  -1  -2   1   1279.06   27.06  0. 1.0000     0. 
   1  -2  -1   1281.77   26.24  0. 1.0000     0. 
   1   2  -1   1268.28   27.53  0. 1.0000     0. 
  -1   2   1   1276.85   25.47  0. 1.0000     0. 
   1   2  -1   1276.97   24.96  0. 1.0000     0. 
  -1   2   1   1294.23   26.29  0. 1.0000     0. 
  -1   2   1   1269.75   26.40  0. 1.0000     0. 
   1   2  -1   1282.61   25.23  0. 1.0000     0. 
   0  -2  -1    302.29    7.41  0. 1.0000     0. 
   0  -2   1    305.31    7.50  0. 1.0000     0. 
   0  -2   1    298.24    8.83  0. 1.0000     0. 
   0   2  -1    300.03    7.51  0. 1.0000     0. 
   0   2  -1    301.16    6.49  0. 1.0000     0. 
   0   2  -1    286.59    6.93  0. 1.0000     0. 
   0   2   1    298.64    6.79  0. 1.0000     0. 
   0   2   1    296.56    8.77  0. 1.0000     0. 
  -1  -2  -1      4.65    3.89  0. 1.0000     0. 
   1  -2   1      4.12    1.62  0. 1.0000     0. 
   1   2   1      1.44    3.58  0. 1.0000     0. 
  -1   2  -1      3.12    1.56  0. 1.0000     0. 
  -1   2  -1      4.12    1.61  0. 1.0000     0. 
   1   2   1      3.81    1.81  0. 1.0000     0. 
  -1   2  -1      2.55    2.56  0. 1.0000     0. 
   1   2   1      5.19    1.94  0. 1.0000     0. 
  -2  -2  -1   1536.95   44.99  0. 1.0000     0. 
   2  -2   1   1558.40   32.01  0. 1.0000     0. 
   2   2   1   1533.85   30.23  0. 1.0000     0. 
   2   2   1   1527.40   31.69  0. 1.0000     0. 
  -2   2  -1   1515.62   30.79  0. 1.0000     0. 
  -3  -3   1     12.64    3.32  0. 1.0000     0. 
  -3   3   1     18.38    2.77  0. 1.0000     0. 
  -3   3   1     11.78    2.76  0. 1.0000     0. 
   3   3  -1     13.55    6.16  0. 1.0000     0. 
   3   3  -1     14.20    3.62  0. 1.0000     0. 
   2  -3  -1    103.34    5.46  0. 1.0000     0. 
  -2  -3   1    121.14    5.43  0. 1.0000     0. 
  -2  -3   1    111.37    8.80  0. 1.0000     0. 
   2  -3  -1    111.15    4.79  0. 1.0000     0. 
  -2   3   1    124.65    3.90  0. 1.0000     0. 
   2   3  -1    128.82    4.99  0. 1.0000     0. 
  -2   3   1    114.96    4.66  0. 1.0000     0. 
   2   3  -1    106.94    7.70  0. 1.0000     0. 
   2   3  -1    131.47    4.88  0. 1.0000     0. 
   1   3  -1    229.68    8.79  0. 1.0000     0. 
   1  -3   1     47.22    3.23  0. 1.0000     0. 
  -1  -3  -1     48.24    3.90  0. 1.0000     0. 
   1  -3   1     36.70    6.25  0. 1.0000     0. 
  -1  -3  -1     49.78    3.98  0. 1.0000     0. 
  -1  -3  -1     54.48    7.43  0. 1.0000     0. 
   1  -3   1     47.22    3.62  0. 1.0000     0. 
  -1   3  -1     36.97    4.72  0. 1.0000     0. 
  -1   3  -1     44.69    3.13  0. 1.0000     0. 
  -1   3  -1     48.74    3.03  0. 1.0000     0. 
   1   3   1     36.56    4.56  0. 1.0000     0. 
   1   3   1     42.31    5.81  0. 1.0000     0. 
   1   3   1     47.24    3.43  0. 1.0000     0. 
  -1   3  -1     33.84    5.29  0. 1.0000     0. 
   1   3   1     46.62    4.23  0. 1.0000     0. 
  -2  -3  -1    267.98   13.06  0. 1.0000     0. 
  -2  -3  -1    261.69    8.21  0. 1.0000     0. 
   2  -3   1    260.47    7.62  0. 1.0000     0. 
   2   3   1    280.86    7.31  0. 1.0000     0. 
  -2   3  -1    257.22    6.97  0. 1.0000     0. 
   2   3   1    253.17   10.98  0. 1.0000     0. 
   2   3   1    258.48    7.44  0. 1.0000     0. 
   3   3   1    354.71    9.09  0. 1.0000     0. 
  -3   3  -1    355.99    9.35  0. 1.0000     0. 
   3   3   1    367.14   12.97  0. 1.0000     0. 
   2  -1  -2   1007.21   20.09  0. 1.0000     0. 
  -2  -1   2    987.24   20.91  0. 1.0000     0. 
   1  -1  -2     98.11    2.86  0. 1.0000     0. 
  -1  -1   2    105.56    3.30  0. 1.0000     0. 
  -1  -1   2     97.17    3.90  0. 1.0000     0. 
   1   1  -2    101.85    3.25  0. 1.0000     0. 
  -1   1   2    103.14    3.33  0. 1.0000     0. 
  -1   1   2    103.94    2.63  0. 1.0000     0. 
   1   1  -2    103.10    2.72  0. 1.0000     0. 
   1   1  -2    101.92    2.69  0. 1.0000     0. 
   0  -1   2   1194.24   24.20  0. 1.0000     0. 
   0  -1  -2   1222.59   24.31  0. 1.0000     0. 
   0  -1   2   1219.92   25.06  0. 1.0000     0. 
   0   1   2   1178.96   23.61  0. 1.0000     0. 
   0   1  -2   1189.45   23.84  0. 1.0000     0. 
   0   1   2   1231.06   23.72  0. 1.0000     0. 
   0   1   2   1246.07   23.26  0. 1.0000     0. 
   0   1  -2   1265.19   23.19  0. 1.0000     0. 
   0   1   2   1245.79   24.86  0. 1.0000     0. 
   0   1  -2   1180.04   24.60  0. 1.0000     0. 
   0   1  -2   1230.60   23.87  0. 1.0000     0. 
   1  -1   2   1760.94   34.98  0. 1.0000     0. 
  -1  -1  -2   1710.77   52.19  0. 1.0000     0. 
  -1   1  -2   1751.52   34.82  0. 1.0000     0. 
   1   1   2   1747.16   34.23  0. 1.0000     0. 
   1   1   2   1739.01   36.14  0. 1.0000     0. 
   3   2  -2    693.72   14.80  0. 1.0000     0. 
  -3   2   2    687.13   14.51  0. 1.0000     0. 
  -1  -2   2    173.95    5.64  0. 1.0000     0. 
  -1  -2   2    164.28    4.81  0. 1.0000     0. 
   1  -2  -2    168.46    4.68  0. 1.0000     0. 
  -1   2   2    167.59    4.37  0. 1.0000     0. 
  -1   2   2    167.97    4.40  0. 1.0000     0. 
   1   2  -2    162.68    5.03  0. 1.0000     0. 
   1   2  -2    171.36    4.67  0. 1.0000     0. 
   0  -2  -2    448.75   10.09  0. 1.0000     0. 
   0  -2   2    449.54   12.23  0. 1.0000     0. 
   0  -2   2    437.03    9.80  0. 1.0000     0. 
   0  -2  -2    438.25   15.98  0. 1.0000     0. 
   0  -2   2    444.02   10.00  0. 1.0000     0. 
   0  -2  -2    446.05    9.99  0. 1.0000     0. 
   0   2   2    416.28    9.87  0. 1.0000     0. 
   0   2  -2    435.19   10.55  0. 1.0000     0. 
   0   2   2    441.13    9.42  0. 1.0000     0. 
   0   2   2    433.66   11.45  0. 1.0000     0. 
   0   2  -2    452.94   10.00  0. 1.0000     0. 
   0   2  -2    444.07    9.29  0. 1.0000     0. 
   2  -2   2   1491.86   30.80  0. 1.0000     0. 
  -2  -2  -2   1404.27   42.52  0. 1.0000     0. 
   2   2   2   1434.37   29.38  0. 1.0000     0. 
  -2   2  -2   1451.10   28.36  0. 1.0000     0. 
   2   2   2   1434.71   28.48  0. 1.0000     0. 
   3  -3  -2      3.63    3.70  0. 1.0000     0. 
  -3  -3   2     12.39    4.00  0. 1.0000     0. 
  -3   3   2      9.82    3.08  0. 1.0000     0. 
   3   3  -2     10.61    3.45  0. 1.0000     0. 
  -2  -3   2    240.94   11.81  0. 1.0000     0. 
   2  -3  -2    253.03    7.39  0. 1.0000     0. 
  -2  -3   2    246.99    7.81  0. 1.0000     0. 
  -2  -3   2    235.25    7.35  0. 1.0000     0. 
   2   3  -2    253.05    7.53  0. 1.0000     0. 
  -2   3   2    247.07    6.67  0. 1.0000     0. 
   1  -3  -2     -1.64    3.25  0. 1.0000     0. 
  -1  -3   2      1.22    2.45  0. 1.0000     0. 
  -1  -3   2      3.13    4.13  0. 1.0000     0. 
  -1  -3   2     -9.00    6.18  0. 1.0000     0. 
  -1  -3   2      3.25    3.00  0. 1.0000     0. 
  -1   3   2      2.03    2.78  0. 1.0000     0. 
   1   3  -2     -4.75    3.38  0. 1.0000     0. 
  -1   3   2     -5.12    4.59  0. 1.0000     0. 
   1   3  -2     -0.12    3.93  0. 1.0000     0. 
   0  -3   2      2.98    2.49  0. 1.0000     0. 
   0  -3   2     -1.85    4.80  0. 1.0000     0. 
   0  -3   2      5.29    5.91  0. 1.0000     0. 
   0  -3   2     -0.88    2.72  0. 1.0000     0. 
   0  -3  -2     -2.27    3.27  0. 1.0000     0. 
   0  -3  -2     -3.58    6.43  0. 1.0000     0. 
   0   3   2     -3.24    2.94  0. 1.0000     0. 
   0   3  -2     -4.59    2.97  0. 1.0000     0. 
   0   3  -2     -0.57    4.34  0. 1.0000     0. 
   0   3   2     -9.14    5.77  0. 1.0000     0. 
  -1  -3  -2    581.15   15.82  0. 1.0000     0. 
   1  -3   2    615.48   13.85  0. 1.0000     0. 
  -1  -3  -2    622.68   22.51  0. 1.0000     0. 
   1  -3   2    636.30   14.43  0. 1.0000     0. 
   1   3   2    602.60   16.71  0. 1.0000     0. 
   1   3   2    601.91   13.24  0. 1.0000     0. 
  -1   3  -2    592.19   13.06  0. 1.0000     0. 
  -2  -3  -2     54.23    7.26  0. 1.0000     0. 
   2  -3   2     55.80    3.60  0. 1.0000     0. 
   2   3   2     50.14    4.18  0. 1.0000     0. 
  -2   3  -2     61.61    3.36  0. 1.0000     0. 
   2   3   2     55.48    6.80  0. 1.0000     0. 
  -3  -3  -2     11.05    6.91  0. 1.0000     0. 
   3   3   2     47.08    7.36  0. 1.0000     0. 
   3  -4  -2      2.41    5.08  0. 1.0000     0. 
  -3   4   2      2.72    3.57  0. 1.0000     0. 
   2  -4  -2      9.61    4.77  0. 1.0000     0. 
  -2   4   2     13.86    6.06  0. 1.0000     0. 
  -2   4   2      6.21    3.57  0. 1.0000     0. 
  -1  -4   2     -0.91    3.15  0. 1.0000     0. 
   1  -4  -2    -12.42    8.63  0. 1.0000     0. 
  -1   4   2     -5.23    3.94  0. 1.0000     0. 
   0  -4   2     -2.04    3.33  0. 1.0000     0. 
   0  -4  -2    -10.45    9.83  0. 1.0000     0. 
   0   4   2    -12.11    4.45  0. 1.0000     0. 
  -1  -4  -2     -5.28    8.07  0. 1.0000     0. 
  -1  -4  -2     -0.08    4.25  0. 1.0000     0. 
   1  -4   2     -3.77    3.44  0. 1.0000     0. 
   1   4   2      1.70    4.67  0. 1.0000     0. 
   1   4   2     -9.16    7.28  0. 1.0000     0. 
  -2  -4  -2     41.87    5.09  0. 1.0000     0. 
  -2  -4  -2     48.78    9.44  0. 1.0000     0. 
   2  -4   2     22.41    7.57  0. 1.0000     0. 
   2   4   2     32.37    7.64  0. 1.0000     0. 
   2   4   2     35.88    5.45  0. 1.0000     0. 
  -3  -4  -2     12.92    9.82  0. 1.0000     0. 
   4   4   2     -0.85    9.11  0. 1.0000     0. 
   1   0  -3      0.34    0.51  0. 1.0000     0. 
   1   0  -3      0.04    0.35  0. 1.0000     0. 
   1   0  -3      0.44    0.41  0. 1.0000     0. 
  -1   0   3     -0.11    0.60  0. 1.0000     0. 
  -1   0   3     -0.01    0.56  0. 1.0000     0. 
  -1   0   3     -0.20    0.40  0. 1.0000     0. 
   0   0   3      0.23    0.31  0. 1.0000     0. 
   0   0  -3      0.25    0.53  0. 1.0000     0. 
   0   0  -3     -0.05    0.71  0. 1.0000     0. 
   0   0   3      0.12    0.81  0. 1.0000     0. 
   0   0  -3     -0.09    0.33  0. 1.0000     0. 
   0   0   3      0.16    0.48  0. 1.0000     0. 
   2  -1  -3    326.38    7.69  0. 1.0000     0. 
  -2  -1   3    324.50    7.97  0. 1.0000     0. 
   2   1  -3    339.76    7.32  0. 1.0000     0. 
  -2   1   3    327.69    8.18  0. 1.0000     0. 
   1  -1  -3    462.38   10.09  0. 1.0000     0. 
  -1  -1   3    477.45   10.52  0. 1.0000     0. 
  -1   1   3    472.36   11.29  0. 1.0000     0. 
   1   1  -3    476.71    9.57  0. 1.0000     0. 
   1   1  -3    472.53   10.10  0. 1.0000     0. 
   0   1   3    174.20    5.37  0. 1.0000     0. 
   0   1  -3    175.64    4.03  0. 1.0000     0. 
   0   1   3    165.68    3.57  0. 1.0000     0. 
   0   1  -3    172.16    3.56  0. 1.0000     0. 
   1   1   3    693.04   16.10  0. 1.0000     0. 
  -3  -2   3    321.83    9.35  0. 1.0000     0. 
   3  -2  -3    335.88    8.63  0. 1.0000     0. 
  -3   2   3    330.76    7.77  0. 1.0000     0. 
   3   2  -3    332.30    7.72  0. 1.0000     0. 
   2  -2  -3    236.28    6.29  0. 1.0000     0. 
  -2  -2   3    238.67    7.46  0. 1.0000     0. 
   2   2  -3    243.89    6.13  0. 1.0000     0. 
  -2   2   3    238.57    5.96  0. 1.0000     0. 
  -2   2   3    233.64    7.54  0. 1.0000     0. 
   2   2  -3    239.70    6.95  0. 1.0000     0. 
   1  -2   3    134.95    4.42  0. 1.0000     0. 
  -1  -2  -3    132.38    7.67  0. 1.0000     0. 
   1   2   3    137.99    4.25  0. 1.0000     0. 
   1   2   3    137.31    3.75  0. 1.0000     0. 
   1   2   3    137.51    6.60  0. 1.0000     0. 
  -1   2  -3    138.60    3.98  0. 1.0000     0. 
   2  -2   3     91.16    3.90  0. 1.0000     0. 
  -2  -2  -3    100.31    6.69  0. 1.0000     0. 
   2   2   3    108.14    4.09  0. 1.0000     0. 
  -2   2  -3    104.26    3.40  0. 1.0000     0. 
   2   2   3    104.08    3.05  0. 1.0000     0. 
   2   2   3    104.19    6.14  0. 1.0000     0. 
  -3  -3   3    289.54    8.68  0. 1.0000     0. 
   3  -3  -3    281.50    9.12  0. 1.0000     0. 
   3   3  -3    290.59    8.12  0. 1.0000     0. 
  -2  -3   3      1.62    3.98  0. 1.0000     0. 
   2  -3  -3      0.63    3.33  0. 1.0000     0. 
   2   3  -3      6.80    3.74  0. 1.0000     0. 
  -2   3   3      2.46    2.71  0. 1.0000     0. 
  -2   3   3      9.88    4.86  0. 1.0000     0. 
   2   3  -3      8.45    3.93  0. 1.0000     0. 
   1  -3  -3      1.48    3.05  0. 1.0000     0. 
  -1  -3   3     10.65    4.17  0. 1.0000     0. 
  -1  -3   3      5.47    2.59  0. 1.0000     0. 
  -1   3   3      7.91    2.87  0. 1.0000     0. 
   1   3  -3      8.72    3.87  0. 1.0000     0. 
   1   3  -3      3.71    3.01  0. 1.0000     0. 
  -1   3   3      9.12    4.73  0. 1.0000     0. 
   0  -3  -3    199.50   11.51  0. 1.0000     0. 
   0  -3   3    204.59    8.30  0. 1.0000     0. 
   0  -3   3    192.91    6.24  0. 1.0000     0. 
   0  -3  -3    200.78    6.47  0. 1.0000     0. 
   0   3   3    192.92    8.86  0. 1.0000     0. 
   0   3   3    197.73    5.98  0. 1.0000     0. 
   0   3  -3    190.29    5.92  0. 1.0000     0. 
   0   3  -3    199.87    7.44  0. 1.0000     0. 
  -1  -3  -3    107.27    4.56  0. 1.0000     0. 
   1  -3   3     91.31    4.25  0. 1.0000     0. 
  -1  -3  -3     88.21    8.54  0. 1.0000     0. 
  -1   3  -3     87.19    6.23  0. 1.0000     0. 
   1   3   3     99.55    4.34  0. 1.0000     0. 
   1   3   3     94.34    7.47  0. 1.0000     0. 
  -1   3  -3     99.13    4.05  0. 1.0000     0. 
  -2  -3  -3      3.02    5.99  0. 1.0000     0. 
   2  -3   3      3.60    2.88  0. 1.0000     0. 
  -2   3  -3      4.79    2.67  0. 1.0000     0. 
   2   3   3      1.32    3.58  0. 1.0000     0. 
   2   3   3     -0.61    6.39  0. 1.0000     0. 
  -3  -4   3      6.16    4.97  0. 1.0000     0. 
   3  -4  -3      4.14    4.90  0. 1.0000     0. 
  -3   4   3      3.29    3.78  0. 1.0000     0. 
   3   4  -3      9.54    5.50  0. 1.0000     0. 
   3   4  -3     -2.53    5.07  0. 1.0000     0. 
  -2  -4   3     11.84    4.96  0. 1.0000     0. 
   2  -4  -3     11.47    4.53  0. 1.0000     0. 
  -2  -4   3      9.22    3.53  0. 1.0000     0. 
  -2   4   3      5.73    3.76  0. 1.0000     0. 
   2   4  -3     10.35    5.31  0. 1.0000     0. 
   2   4  -3      4.25    4.90  0. 1.0000     0. 
  -2   4   3      5.99    5.80  0. 1.0000     0. 
  -1  -4   3     67.53    4.46  0. 1.0000     0. 
   1  -4  -3     68.43    9.76  0. 1.0000     0. 
  -1  -4   3     81.79    6.06  0. 1.0000     0. 
   1  -4  -3     61.87    5.19  0. 1.0000     0. 
  -1   4   3     66.12    4.69  0. 1.0000     0. 
   1   4  -3     72.44    6.61  0. 1.0000     0. 
  -1   4   3     67.66    7.02  0. 1.0000     0. 
   0  -4   3      0.50    3.35  0. 1.0000     0. 
   0  -4  -3     -0.22    9.44  0. 1.0000     0. 
   0  -4   3      2.84    5.91  0. 1.0000     0. 
   0  -4  -3      6.16    4.10  0. 1.0000     0. 
   0   4  -3     -0.45    6.06  0. 1.0000     0. 
   0   4  -3      3.65    3.73  0. 1.0000     0. 
   0   4   3     -1.67    6.40  0. 1.0000     0. 
   0   4   3      0.27    4.09  0. 1.0000     0. 
  -1  -4  -3     15.38    4.85  0. 1.0000     0. 
  -1  -4  -3     10.90    8.09  0. 1.0000     0. 
   1  -4   3     14.63    3.66  0. 1.0000     0. 
   1  -4   3     20.20    6.53  0. 1.0000     0. 
   1   4   3     11.40    7.10  0. 1.0000     0. 
  -1   4  -3     19.38    3.93  0. 1.0000     0. 
  -1   4  -3     20.10    6.27  0. 1.0000     0. 
   1   4   3     16.33    4.82  0. 1.0000     0. 
   2  -4   3     -2.39    7.56  0. 1.0000     0. 
  -2  -4  -3     -3.11    4.66  0. 1.0000     0. 
  -2  -4  -3      4.25    8.15  0. 1.0000     0. 
   2  -4   3      6.27    3.91  0. 1.0000     0. 
  -2   4  -3      0.08    3.56  0. 1.0000     0. 
   2   4   3     -3.72    7.08  0. 1.0000     0. 
   2   4   3     13.50    4.81  0. 1.0000     0. 
   4   4   3      2.99    9.27  0. 1.0000     0. 
  -1   0   4   2553.44   50.47  0. 1.0000     0. 
  -1   0   4   2625.59   49.91  0. 1.0000     0. 
  -1   0   4   2589.15   51.70  0. 1.0000     0. 
   1   0  -4   2586.63   50.42  0. 1.0000     0. 
   1   0  -4   2668.61   49.29  0. 1.0000     0. 
   0   0   4   2298.54   43.89  0. 1.0000     0. 
   0   0   4   2239.46   45.53  0. 1.0000     0. 
   0   0  -4   2295.11   42.78  0. 1.0000     0. 
  -1  -1   4   2002.23   38.91  0. 1.0000     0. 
   1  -1  -4   1888.76   38.22  0. 1.0000     0. 
  -1   1   4   1925.76   39.71  0. 1.0000     0. 
   1   1  -4   1923.19   38.01  0. 1.0000     0. 
   0   1   4   1028.00   22.29  0. 1.0000     0. 
   0   1  -4   1042.92   20.73  0. 1.0000     0. 
  -3  -2   4    627.75   14.78  0. 1.0000     0. 
   3  -2  -4    635.74   14.21  0. 1.0000     0. 
   3   2  -4    632.35   13.79  0. 1.0000     0. 
   3   2  -4    631.96   15.06  0. 1.0000     0. 
  -3   2   4    634.79   14.13  0. 1.0000     0. 
  -3   2   4    635.52   14.79  0. 1.0000     0. 
   2  -2  -4     42.09    3.12  0. 1.0000     0. 
  -2  -2   4     50.92    3.68  0. 1.0000     0. 
   2   2  -4     43.77    3.88  0. 1.0000     0. 
   2   2  -4     48.62    2.99  0. 1.0000     0. 
   2   2  -4     46.71    3.17  0. 1.0000     0. 
  -2   2   4     43.21    2.59  0. 1.0000     0. 
  -2   2   4     47.55    4.18  0. 1.0000     0. 
   1  -2  -4    176.60    4.22  0. 1.0000     0. 
  -1  -2   4    177.29    7.01  0. 1.0000     0. 
  -1  -2   4    162.48    7.46  0. 1.0000     0. 
  -1  -2   4    168.56    4.52  0. 1.0000     0. 
   1  -2  -4    172.97    5.39  0. 1.0000     0. 
   1  -2  -4    171.59    5.16  0. 1.0000     0. 
  -1   2   4    169.42    4.24  0. 1.0000     0. 
   1   2  -4    171.01    5.58  0. 1.0000     0. 
   1   2  -4    173.80    5.22  0. 1.0000     0. 
  -1   2   4    179.08    4.62  0. 1.0000     0. 
  -1   2   4    171.60    6.79  0. 1.0000     0. 
   1   2  -4    175.48    4.10  0. 1.0000     0. 
   1   2  -4    168.53    5.07  0. 1.0000     0. 
   0  -2  -4     35.85    5.20  0. 1.0000     0. 
   0  -2   4     31.90    2.11  0. 1.0000     0. 
   0  -2   4     29.85    2.25  0. 1.0000     0. 
   0  -2  -4     30.73    2.28  0. 1.0000     0. 
   0  -2  -4     30.55    2.56  0. 1.0000     0. 
   0   2   4     36.39    2.18  0. 1.0000     0. 
   0   2   4     33.04    4.70  0. 1.0000     0. 
   0   2  -4     32.86    1.76  0. 1.0000     0. 
   0   2  -4     31.75    2.39  0. 1.0000     0. 
   0   2   4     32.55    2.58  0. 1.0000     0. 
   0   2   4     32.77    2.23  0. 1.0000     0. 
   0   2  -4     30.34    3.32  0. 1.0000     0. 
  -1  -2  -4    174.28    8.79  0. 1.0000     0. 
   1  -2   4    168.20    5.00  0. 1.0000     0. 
  -1   2  -4    166.57    4.73  0. 1.0000     0. 
   1   2   4    170.37    4.02  0. 1.0000     0. 
  -1   2  -4    166.30    4.52  0. 1.0000     0. 
   1   2   4    167.76    5.11  0. 1.0000     0. 
   1   2   4    168.54    7.87  0. 1.0000     0. 
  -2  -2  -4    252.56   10.30  0. 1.0000     0. 
   2  -2   4    187.76    6.21  0. 1.0000     0. 
   3  -3  -4     -3.47    3.84  0. 1.0000     0. 
  -3  -3   4      2.05    4.09  0. 1.0000     0. 
  -3   3   4      4.08    4.80  0. 1.0000     0. 
  -3   3   4     -2.57    2.92  0. 1.0000     0. 
   3   3  -4      5.67    3.64  0. 1.0000     0. 
   3   3  -4      1.09    3.76  0. 1.0000     0. 
  -2  -3   4    128.01    5.95  0. 1.0000     0. 
   2  -3  -4    130.10    5.36  0. 1.0000     0. 
   2   3  -4    126.43    5.57  0. 1.0000     0. 
  -2   3   4    129.93    6.90  0. 1.0000     0. 
   2   3  -4    123.14    5.72  0. 1.0000     0. 
  -2   3   4    123.59    4.71  0. 1.0000     0. 
  -1  -3   4     21.91    2.88  0. 1.0000     0. 
   1  -3  -4     29.86    3.64  0. 1.0000     0. 
  -1  -3   4     24.99    5.14  0. 1.0000     0. 
   1   3  -4     22.97    3.30  0. 1.0000     0. 
  -1   3   4     28.01    5.37  0. 1.0000     0. 
  -1   3   4     22.51    3.12  0. 1.0000     0. 
   1   3  -4     19.46    4.46  0. 1.0000     0. 
   0  -3  -4     95.84    9.11  0. 1.0000     0. 
   0  -3   4    100.69    7.18  0. 1.0000     0. 
   0  -3  -4    105.60    4.33  0. 1.0000     0. 
   0  -3   4     81.42    4.32  0. 1.0000     0. 
   0   3  -4     97.99    4.38  0. 1.0000     0. 
   0   3  -4     85.86    6.14  0. 1.0000     0. 
   0   3   4    101.36    4.31  0. 1.0000     0. 
   0   3   4    101.05    6.98  0. 1.0000     0. 
  -1  -3  -4     29.42    6.67  0. 1.0000     0. 
  -1  -3  -4     22.07    3.71  0. 1.0000     0. 
   1  -3   4     22.61    2.95  0. 1.0000     0. 
   1   3   4     15.17    6.15  0. 1.0000     0. 
  -1   3  -4     19.57    2.96  0. 1.0000     0. 
   1   3   4     23.85    3.50  0. 1.0000     0. 
  -1   3  -4     25.39    4.78  0. 1.0000     0. 
  -2  -3  -4     -0.37    6.12  0. 1.0000     0. 
   2  -3   4     -1.25    2.97  0. 1.0000     0. 
  -2   3  -4      1.12    2.75  0. 1.0000     0. 
   2   3   4      2.11    6.59  0. 1.0000     0. 
   2   3   4      1.81    3.80  0. 1.0000     0. 
   5   4  -4      2.71    5.22  0. 1.0000     0. 
  -4  -4   4      2.37    4.31  0. 1.0000     0. 
  -4   4   4     -1.96    3.91  0. 1.0000     0. 
   4   4  -4      2.25    5.26  0. 1.0000     0. 
  -3  -4   4      6.63    5.04  0. 1.0000     0. 
   3  -4  -4     -0.81    4.92  0. 1.0000     0. 
   3   4  -4     -0.59    5.12  0. 1.0000     0. 
   3   4  -4      0.70    5.56  0. 1.0000     0. 
  -3   4   4      6.46    3.74  0. 1.0000     0. 
   2  -4  -4      1.63    4.47  0. 1.0000     0. 
  -2  -4   4      0.77    3.15  0. 1.0000     0. 
  -2  -4   4     -2.72    5.22  0. 1.0000     0. 
  -2   4   4      3.15    3.70  0. 1.0000     0. 
   2   4  -4      3.47    4.97  0. 1.0000     0. 
  -2   4   4      2.74    6.25  0. 1.0000     0. 
   2   4  -4      5.43    5.60  0. 1.0000     0. 
  -1  -4   4      1.56    3.34  0. 1.0000     0. 
   1  -4  -4     -4.03    4.27  0. 1.0000     0. 
   1  -4  -4     10.50    8.57  0. 1.0000     0. 
  -1  -4   4      4.16    5.21  0. 1.0000     0. 
   1   4  -4      1.73    5.60  0. 1.0000     0. 
  -1   4   4      3.62    6.32  0. 1.0000     0. 
   1   4  -4      0.72    4.02  0. 1.0000     0. 
  -1   4   4     -5.85    3.70  0. 1.0000     0. 
   0  -4   4     -3.17    5.82  0. 1.0000     0. 
   0  -4  -4     -0.44    9.31  0. 1.0000     0. 
   0  -4   4      4.22    3.46  0. 1.0000     0. 
   0  -4  -4     -0.58    4.11  0. 1.0000     0. 
   0   4  -4    -10.42    6.28  0. 1.0000     0. 
   0   4  -4     -1.22    3.68  0. 1.0000     0. 
   0   4   4      9.59    4.14  0. 1.0000     0. 
   0   4   4      4.25    6.94  0. 1.0000     0. 
   1  -4   4     10.05    6.98  0. 1.0000     0. 
  -1  -4  -4     12.02    7.97  0. 1.0000     0. 
   1  -4   4      7.66    3.73  0. 1.0000     0. 
  -1  -4  -4      4.40    4.10  0. 1.0000     0. 
   1   4   4      3.84    7.16  0. 1.0000     0. 
   1   4   4      7.47    4.77  0. 1.0000     0. 
  -1   4  -4      2.27    6.15  0. 1.0000     0. 
  -1   4  -4      1.35    3.78  0. 1.0000     0. 
  -2  -4  -4     -0.71    8.27  0. 1.0000     0. 
   2  -4   4     -2.60    3.75  0. 1.0000     0. 
   2  -4   4     -8.72    7.98  0. 1.0000     0. 
   2   4   4     -0.22    4.92  0. 1.0000     0. 
  -3  -4  -4      0.46   10.42  0. 1.0000     0. 
  -3   4  -4      6.40    3.90  0. 1.0000     0. 
   3   4   4      6.41    9.21  0. 1.0000     0. 
   4   4   4     -0.43    8.81  0. 1.0000     0. 
   2   0  -5      0.07    0.67  0. 1.0000     0. 
  -2   0   5      0.13    0.76  0. 1.0000     0. 
   1   0  -5      0.46    0.77  0. 1.0000     0. 
  -1   0   5     -0.22    1.25  0. 1.0000     0. 
   1   0  -5      0.54    0.76  0. 1.0000     0. 
  -1   0   5     -0.24    0.66  0. 1.0000     0. 
  -1   0   5      0.06    1.36  0. 1.0000     0. 
   1   0  -5      0.42    0.69  0. 1.0000     0. 
   0   0   5      0.38    0.89  0. 1.0000     0. 
   0   0   5      0.72    1.54  0. 1.0000     0. 
   0   0   5     -0.10    0.60  0. 1.0000     0. 
   0   0  -5     -0.05    1.05  0. 1.0000     0. 
   0   0  -5      0.63    0.71  0. 1.0000     0. 
   0   0  -5      0.24    1.47  0. 1.0000     0. 
   3  -1  -5    977.02   20.56  0. 1.0000     0. 
  -3  -1   5    933.75   19.20  0. 1.0000     0. 
   3   1  -5    943.57   19.50  0. 1.0000     0. 
  -3   1   5    955.21   19.12  0. 1.0000     0. 
   2   1  -5    237.62    5.74  0. 1.0000     0. 
  -2   1   5    241.06    5.67  0. 1.0000     0. 
   0  -1  -5    158.53    7.33  0. 1.0000     0. 
   0  -1   5    164.31    4.11  0. 1.0000     0. 
   0   1  -5    148.43    4.81  0. 1.0000     0. 
   0   1   5    155.54    4.34  0. 1.0000     0. 
   1  -1   5    236.31    5.73  0. 1.0000     0. 
  -1  -1  -5    232.82    9.75  0. 1.0000     0. 
  -1   1  -5    237.72    5.68  0. 1.0000     0. 
   1   1   5    230.82    7.97  0. 1.0000     0. 
   1   1   5    235.17    6.12  0. 1.0000     0. 
  -1   1  -5    231.86    6.68  0. 1.0000     0. 
   3  -2  -5     33.51    3.25  0. 1.0000     0. 
  -3  -2   5     29.31    3.44  0. 1.0000     0. 
  -3   2   5     32.53    4.34  0. 1.0000     0. 
   3   2  -5     36.58    3.00  0. 1.0000     0. 
   3   2  -5     27.56    3.38  0. 1.0000     0. 
  -3   2   5     31.97    2.64  0. 1.0000     0. 
   2  -2  -5    375.02    9.01  0. 1.0000     0. 
  -2  -2   5    372.09   10.02  0. 1.0000     0. 
   2   2  -5    381.41    9.13  0. 1.0000     0. 
   2   2  -5    378.40    9.57  0. 1.0000     0. 
  -2   2   5    371.93    8.78  0. 1.0000     0. 
  -2   2   5    375.70   10.15  0. 1.0000     0. 
   1  -2  -5    104.92    3.90  0. 1.0000     0. 
  -1  -2   5     93.13    2.98  0. 1.0000     0. 
  -1  -2   5     84.03    5.81  0. 1.0000     0. 
  -1   2   5     98.58    3.46  0. 1.0000     0. 
   1   2  -5     97.63    3.72  0. 1.0000     0. 
   1   2  -5     95.39    4.30  0. 1.0000     0. 
  -1   2   5     98.57    5.75  0. 1.0000     0. 
   0  -2  -5    241.83   10.91  0. 1.0000     0. 
   0  -2  -5    237.70    6.91  0. 1.0000     0. 
   0  -2   5    225.14    6.60  0. 1.0000     0. 
   0   2  -5    247.48    7.16  0. 1.0000     0. 
   0   2   5    246.09    8.24  0. 1.0000     0. 
   0   2  -5    239.29    6.03  0. 1.0000     0. 
   0   2   5    232.04    6.45  0. 1.0000     0. 
  -1  -2  -5      2.83    4.67  0. 1.0000     0. 
   1  -2   5      0.58    1.80  0. 1.0000     0. 
   1   2   5      1.21    2.34  0. 1.0000     0. 
   1   2   5      0.12    4.79  0. 1.0000     0. 
  -1   2  -5      3.38    3.20  0. 1.0000     0. 
  -1   2  -5      1.89    2.08  0. 1.0000     0. 
   4  -3  -5     48.04    4.93  0. 1.0000     0. 
  -4  -3   5     39.48    4.82  0. 1.0000     0. 
  -3  -3   5    212.91    8.19  0. 1.0000     0. 
   3  -3  -5    223.12    7.54  0. 1.0000     0. 
  -3   3   5    217.87    9.13  0. 1.0000     0. 
   3   3  -5    210.21    8.29  0. 1.0000     0. 
   3   3  -5    228.12    7.13  0. 1.0000     0. 
  -2  -3   5    324.87   10.53  0. 1.0000     0. 
   2  -3  -5    338.50    8.75  0. 1.0000     0. 
  -2   3   5    338.14   10.71  0. 1.0000     0. 
   2   3  -5    330.98    9.59  0. 1.0000     0. 
  -2   3   5    327.62    8.19  0. 1.0000     0. 
   2   3  -5    317.98    9.39  0. 1.0000     0. 
  -1  -3   5    194.12    7.56  0. 1.0000     0. 
  -1  -3   5    239.69    9.17  0. 1.0000     0. 
   1  -3  -5    254.00    7.08  0. 1.0000     0. 
   1   3  -5    241.74    6.86  0. 1.0000     0. 
  -1   3   5    249.94    9.30  0. 1.0000     0. 
   1   3  -5    246.70    8.04  0. 1.0000     0. 
  -1   3   5    243.82    6.43  0. 1.0000     0. 
   0  -3  -5      7.09    3.61  0. 1.0000     0. 
   0  -3   5     -0.60    2.69  0. 1.0000     0. 
   0  -3   5      0.12    5.45  0. 1.0000     0. 
   0  -3  -5      3.75    7.18  0. 1.0000     0. 
   0   3  -5      4.10    3.08  0. 1.0000     0. 
   0   3  -5     -2.65    4.73  0. 1.0000     0. 
   0   3   5     -3.24    3.50  0. 1.0000     0. 
   0   3   5      4.25    5.77  0. 1.0000     0. 
  -1  -3  -5     14.36    3.83  0. 1.0000     0. 
   1  -3   5     18.15    3.05  0. 1.0000     0. 
  -1  -3  -5     17.51    7.23  0. 1.0000     0. 
   1   3   5     21.86    6.17  0. 1.0000     0. 
  -1   3  -5     16.34    3.08  0. 1.0000     0. 
  -1   3  -5     15.28    4.91  0. 1.0000     0. 
   1   3   5     15.57    3.55  0. 1.0000     0. 
  -3  -3  -5      1.58    7.66  0. 1.0000     0. 
   5   4  -5     10.32    5.38  0. 1.0000     0. 
  -4  -4   5      6.75    4.89  0. 1.0000     0. 
   4   4  -5     12.95    5.62  0. 1.0000     0. 
  -4   4   5      4.07    3.72  0. 1.0000     0. 
  -2  -4   5    242.55   10.22  0. 1.0000     0. 
   2  -4  -5    253.50    8.66  0. 1.0000     0. 
  -2  -4   5    255.66    8.51  0. 1.0000     0. 
  -2   4   5    256.19   10.68  0. 1.0000     0. 
   2   4  -5    246.47    8.89  0. 1.0000     0. 
   2   4  -5    243.72    9.57  0. 1.0000     0. 
  -2   4   5    245.77    7.56  0. 1.0000     0. 
  -1  -4   5    157.27    8.29  0. 1.0000     0. 
   1  -4  -5    137.20   12.43  0. 1.0000     0. 
   1  -4  -5    160.16    6.98  0. 1.0000     0. 
  -1   4   5    163.57    8.97  0. 1.0000     0. 
   1   4  -5    139.02    8.31  0. 1.0000     0. 
   1   4  -5    153.84    6.81  0. 1.0000     0. 
  -1   4   5    159.54    6.07  0. 1.0000     0. 
   0  -4   5     84.43    7.85  0. 1.0000     0. 
   0  -4  -5    100.33   10.98  0. 1.0000     0. 
   0  -4  -5     87.63    5.69  0. 1.0000     0. 
   0   4  -5     82.85    7.86  0. 1.0000     0. 
   0   4   5     92.99    8.85  0. 1.0000     0. 
   0   4   5     86.10    5.39  0. 1.0000     0. 
   0   4  -5     81.39    5.11  0. 1.0000     0. 
  -1  -4  -5    194.52   12.81  0. 1.0000     0. 
  -1   4  -5    193.22    6.99  0. 1.0000     0. 
   2  -4   5     17.07    8.17  0. 1.0000     0. 
   2  -4   5      9.57    4.00  0. 1.0000     0. 
  -2  -4  -5      1.34    5.39  0. 1.0000     0. 
  -2  -4  -5      5.37    8.13  0. 1.0000     0. 
  -2   4  -5      1.99    3.75  0. 1.0000     0. 
   2   4   5      6.46    5.12  0. 1.0000     0. 
  -3  -4  -5    109.60   14.48  0. 1.0000     0. 
   3   4   5     99.29   11.05  0. 1.0000     0. 
  -3   4  -5     56.00    4.76  0. 1.0000     0. 
   1   0  -6     59.25    2.01  0. 1.0000     0. 
  -1   0   6     60.72    2.67  0. 1.0000     0. 
   1   0  -6     60.14    1.85  0. 1.0000     0. 
   1   0  -6     57.02    1.93  0. 1.0000     0. 
  -1   0   6     60.20    2.68  0. 1.0000     0. 
  -1   0   6     58.42    1.84  0. 1.0000     0. 
   0   0   6    228.56    5.13  0. 1.0000     0. 
  -3  -1   6   1511.58   32.68  0. 1.0000     0. 
   3  -1  -6   1586.50   30.31  0. 1.0000     0. 
   3   1  -6   1597.13   31.90  0. 1.0000     0. 
  -3   1   6   1551.11   31.31  0. 1.0000     0. 
   3   1  -6   1566.06   31.03  0. 1.0000     0. 
  -2  -1   6      1.21    1.97  0. 1.0000     0. 
   2  -1  -6      0.54    1.49  0. 1.0000     0. 
   2   1  -6     -0.31    1.68  0. 1.0000     0. 
  -2   1   6     -0.46    1.54  0. 1.0000     0. 
   2   1  -6      1.09    1.64  0. 1.0000     0. 
  -2   1   6     -0.63    2.52  0. 1.0000     0. 
  -1  -1   6     33.49    3.46  0. 1.0000     0. 
   1  -1  -6     35.61    2.12  0. 1.0000     0. 
   1   1  -6     35.28    2.43  0. 1.0000     0. 
  -1   1   6     33.31    2.03  0. 1.0000     0. 
  -1   1   6     32.72    3.45  0. 1.0000     0. 
   1   1  -6     35.25    2.11  0. 1.0000     0. 
   0  -1   6   1668.16   31.14  0. 1.0000     0. 
   0  -1  -6   1563.92   50.02  0. 1.0000     0. 
   0   1   6   1591.60   32.48  0. 1.0000     0. 
   0   1   6   1584.13   33.08  0. 1.0000     0. 
   0   1  -6   1627.23   32.40  0. 1.0000     0. 
   0   1  -6   1562.86   32.55  0. 1.0000     0. 
  -1  -1  -6      4.49    3.25  0. 1.0000     0. 
   1  -1   6      6.08    1.40  0. 1.0000     0. 
   1   1   6     10.46    3.67  0. 1.0000     0. 
  -1   1  -6      7.25    2.33  0. 1.0000     0. 
  -1   1  -6      5.16    1.49  0. 1.0000     0. 
   1   1   6      4.84    2.05  0. 1.0000     0. 
   4  -2  -6    477.79   13.39  0. 1.0000     0. 
  -4  -2   6    520.15   11.71  0. 1.0000     0. 
   4   2  -6    505.60   11.48  0. 1.0000     0. 
  -2  -2   6    260.28    8.38  0. 1.0000     0. 
   2  -2  -6    263.07    7.15  0. 1.0000     0. 
  -2   2   6    261.90    8.45  0. 1.0000     0. 
   2   2  -6    264.44    7.44  0. 1.0000     0. 
   2   2  -6    263.03    7.06  0. 1.0000     0. 
  -1  -2   6    219.57    6.26  0. 1.0000     0. 
   1  -2  -6    227.12    6.49  0. 1.0000     0. 
  -1  -2   6    230.10    8.40  0. 1.0000     0. 
   1   2  -6    226.90    6.20  0. 1.0000     0. 
   1   2  -6    232.91    6.95  0. 1.0000     0. 
  -1   2   6    226.37    8.58  0. 1.0000     0. 
   0  -2   6    792.03   18.38  0. 1.0000     0. 
   0  -2  -6    832.19   17.35  0. 1.0000     0. 
   0   2  -6    815.33   18.19  0. 1.0000     0. 
   0   2  -6    819.79   16.92  0. 1.0000     0. 
   0   2   6    794.12   19.25  0. 1.0000     0. 
   2  -2   6     13.62    2.53  0. 1.0000     0. 
   2   2   6     16.03    5.89  0. 1.0000     0. 
   2   2   6     18.74    3.88  0. 1.0000     0. 
  -2   2  -6     18.47    2.51  0. 1.0000     0. 
   5   3  -6      5.76    4.09  0. 1.0000     0. 
  -4   3   6    134.04    5.10  0. 1.0000     0. 
   4   3  -6    126.74    5.50  0. 1.0000     0. 
  -2  -3   6    132.93    6.67  0. 1.0000     0. 
   2  -3  -6    134.09    5.51  0. 1.0000     0. 
   2   3  -6    122.41    5.72  0. 1.0000     0. 
   1  -3  -6    118.31    5.22  0. 1.0000     0. 
  -1  -3   6    116.11    6.98  0. 1.0000     0. 
  -1   3   6    109.36    7.86  0. 1.0000     0. 
   1   3  -6    108.83    4.83  0. 1.0000     0. 
   0  -3   6      0.74    6.07  0. 1.0000     0. 
   0  -3  -6     10.48    3.87  0. 1.0000     0. 
   0   3  -6      2.72    3.39  0. 1.0000     0. 
   0   3   6    -10.34    6.78  0. 1.0000     0. 
  -2  -3  -6     76.52    8.94  0. 1.0000     0. 
   2  -3   6     50.74    3.85  0. 1.0000     0. 
   2   3   6     48.46    4.74  0. 1.0000     0. 
  -3  -3  -6     36.76    9.07  0. 1.0000     0. 
   5   4  -6     15.67    5.51  0. 1.0000     0. 
   4  -4  -6      6.57    5.38  0. 1.0000     0. 
  -4  -4   6     -0.20    5.32  0. 1.0000     0. 
   4   4  -6      3.49    5.50  0. 1.0000     0. 
  -4   4   6      3.47    3.79  0. 1.0000     0. 
   4   4  -6      1.71    6.25  0. 1.0000     0. 
  -3  -4   6     -1.94    5.31  0. 1.0000     0. 
   3  -4  -6      2.69    4.91  0. 1.0000     0. 
   3   4  -6      1.31    5.91  0. 1.0000     0. 
  -3   4   6      6.06    6.54  0. 1.0000     0. 
   3   4  -6      4.58    5.19  0. 1.0000     0. 
  -3   4   6     -1.47    3.81  0. 1.0000     0. 
  -1  -4  -6      3.05    8.00  0. 1.0000     0. 
  -1  -4  -6     11.46    4.89  0. 1.0000     0. 
   1  -4   6      7.38    3.74  0. 1.0000     0. 
   1  -4   6     -1.23    7.60  0. 1.0000     0. 
  -1   4  -6      4.03    6.00  0. 1.0000     0. 
  -1   4  -6      2.55    3.89  0. 1.0000     0. 
   1   4   6      7.46    4.93  0. 1.0000     0. 
   1   4   6      3.15    7.78  0. 1.0000     0. 
  -2  -4  -6      8.51    8.23  0. 1.0000     0. 
   2  -4   6      6.61    3.97  0. 1.0000     0. 
   2  -4   6      8.18    8.25  0. 1.0000     0. 
  -2  -4  -6      3.66    5.41  0. 1.0000     0. 
  -2   4  -6     12.97    3.86  0. 1.0000     0. 
   2   4   6     11.61    8.82  0. 1.0000     0. 
   2   4   6      6.93    5.05  0. 1.0000     0. 
  -3  -4  -6     -2.88   10.25  0. 1.0000     0. 
   3   4   6     -5.77    9.93  0. 1.0000     0. 
  -3   4  -6      2.26    4.14  0. 1.0000     0. 
   3  -5  -6      7.17    6.34  0. 1.0000     0. 
   3  -5  -6     20.60   10.07  0. 1.0000     0. 
  -3   5   6     13.69    4.64  0. 1.0000     0. 
   2  -5  -6     20.41   11.31  0. 1.0000     0. 
   2  -5  -6     26.56    6.05  0. 1.0000     0. 
  -2   5   6     30.12    5.34  0. 1.0000     0. 
  -2   5   6     32.02    7.79  0. 1.0000     0. 
  -1  -5   6      3.72    4.48  0. 1.0000     0. 
   1  -5  -6     19.78    5.79  0. 1.0000     0. 
   1  -5  -6     15.20   10.63  0. 1.0000     0. 
  -1   5   6     11.73    7.87  0. 1.0000     0. 
  -1   5   6     17.14    4.95  0. 1.0000     0. 
   0  -5   6     21.68    4.85  0. 1.0000     0. 
   0  -5   6     16.72    7.45  0. 1.0000     0. 
   0  -5  -6     18.29   10.06  0. 1.0000     0. 
   0  -5  -6     18.06    5.81  0. 1.0000     0. 
   0   5   6     16.48    5.89  0. 1.0000     0. 
   0   5   6     25.80    8.32  0. 1.0000     0. 
   1  -5   6     17.35    4.76  0. 1.0000     0. 
   1  -5   6      0.14    7.65  0. 1.0000     0. 
  -1  -5  -6     12.15    5.52  0. 1.0000     0. 
   1   5   6     14.33    5.69  0. 1.0000     0. 
   1   5   6     10.18    9.09  0. 1.0000     0. 
   2  -5   6      9.56    8.71  0. 1.0000     0. 
  -2  -5  -6      0.12    5.89  0. 1.0000     0. 
   2   5   6     18.64   10.05  0. 1.0000     0. 
  -3   0   7      0.18    1.24  0. 1.0000     0. 
  -2   0   7      1.84    1.67  0. 1.0000     0. 
   2   0  -7      0.84    1.23  0. 1.0000     0. 
   2   0  -7      0.40    1.26  0. 1.0000     0. 
   2   0  -7     -1.02    1.55  0. 1.0000     0. 
  -2   0   7      0.30    1.83  0. 1.0000     0. 
  -2   0   7     -0.22    1.08  0. 1.0000     0. 
   1   0  -7      0.07    1.14  0. 1.0000     0. 
  -1   0   7     -1.60    2.14  0. 1.0000     0. 
   1   0  -7     -0.44    1.39  0. 1.0000     0. 
  -1   0   7     -1.22    2.14  0. 1.0000     0. 
   1   0  -7      0.09    2.16  0. 1.0000     0. 
  -1   0   7     -0.96    1.15  0. 1.0000     0. 
   1   0  -7     -0.47    1.19  0. 1.0000     0. 
  -1   0   7      0.25    0.89  0. 1.0000     0. 
   0   0  -7      0.55    2.34  0. 1.0000     0. 
   0   0  -7      0.98    1.69  0. 1.0000     0. 
   0   0  -7      0.05    1.18  0. 1.0000     0. 
   0   0   7      0.94    1.54  0. 1.0000     0. 
   0   0   7     -0.39    2.47  0. 1.0000     0. 
   0   0   7      0.45    0.97  0. 1.0000     0. 
   4   1  -7    117.38    3.55  0. 1.0000     0. 
   3  -1  -7     10.96    2.20  0. 1.0000     0. 
  -3  -1   7     13.60    2.52  0. 1.0000     0. 
   3   1  -7      9.48    2.61  0. 1.0000     0. 
   3   1  -7     12.17    2.07  0. 1.0000     0. 
  -3   1   7     11.14    3.10  0. 1.0000     0. 
  -3   1   7     11.47    2.18  0. 1.0000     0. 
   2  -1  -7    247.90    6.16  0. 1.0000     0. 
  -2  -1   7    250.92    6.91  0. 1.0000     0. 
  -2   1   7    247.80    7.34  0. 1.0000     0. 
  -2   1   7    250.27    5.90  0. 1.0000     0. 
   2   1  -7    245.71    6.33  0. 1.0000     0. 
   2   1  -7    244.52    6.64  0. 1.0000     0. 
   1  -1  -7   1304.66   24.65  0. 1.0000     0. 
  -1  -1   7   1301.66   28.69  0. 1.0000     0. 
  -1   1   7   1251.75   26.91  0. 1.0000     0. 
   1   1  -7   1269.64   26.05  0. 1.0000     0. 
  -1   1   7   1276.69   25.37  0. 1.0000     0. 
   1   1  -7   1252.72   26.84  0. 1.0000     0. 
   0  -1  -7    100.55    6.91  0. 1.0000     0. 
   0  -1   7    105.60    3.46  0. 1.0000     0. 
   0   1   7    103.21    3.55  0. 1.0000     0. 
   0   1  -7    109.60    3.50  0. 1.0000     0. 
   0   1  -7    109.19    4.65  0. 1.0000     0. 
   0   1   7    111.68    5.41  0. 1.0000     0. 
   1  -1   7    964.95   17.38  0. 1.0000     0. 
  -1  -1  -7    878.02   30.59  0. 1.0000     0. 
  -1   1  -7    909.69   20.53  0. 1.0000     0. 
   1   1   7    916.20   19.09  0. 1.0000     0. 
  -1   1  -7    906.07   20.19  0. 1.0000     0. 
   1   1   7    917.82   20.86  0. 1.0000     0. 
  -4  -2   7     53.80    4.16  0. 1.0000     0. 
   4  -2  -7     45.32    4.02  0. 1.0000     0. 
   4   2  -7     50.61    5.11  0. 1.0000     0. 
   3  -2  -7    219.55    6.51  0. 1.0000     0. 
  -3  -2   7    214.68    7.51  0. 1.0000     0. 
   3   2  -7    217.03    7.44  0. 1.0000     0. 
  -3   2   7    209.11    8.15  0. 1.0000     0. 
  -1  -2  -7     23.40    5.70  0. 1.0000     0. 
  -1   2  -7     29.49    2.78  0. 1.0000     0. 
   1   2   7     29.25    5.98  0. 1.0000     0. 
  -5  -3   7      1.88    3.78  0. 1.0000     0. 
   5   3  -7     20.49    4.43  0. 1.0000     0. 
  -4   3   7    153.39    5.84  0. 1.0000     0. 
   4   3  -7    163.64    6.09  0. 1.0000     0. 
  -3   3   7     20.74    3.38  0. 1.0000     0. 
   3   3  -7     28.57    4.70  0. 1.0000     0. 
  -2  -3   7     13.35    4.76  0. 1.0000     0. 
  -2   3   7     17.35    3.43  0. 1.0000     0. 
   2   3  -7     13.38    3.73  0. 1.0000     0. 
   0  -3  -7     46.68    9.27  0. 1.0000     0. 
   0  -3   7     30.21    6.53  0. 1.0000     0. 
   0  -3   7     34.63    3.31  0. 1.0000     0. 
   0   3   7     32.83    4.16  0. 1.0000     0. 
  -1  -3  -7     26.52    7.32  0. 1.0000     0. 
   1  -3   7     23.09    3.60  0. 1.0000     0. 
   1   3   7     28.35    4.46  0. 1.0000     0. 
  -1   3  -7     21.95    5.50  0. 1.0000     0. 
   2  -3   7     26.23    3.54  0. 1.0000     0. 
  -2  -3  -7     33.96    7.50  0. 1.0000     0. 
   2   3   7     21.48    4.63  0. 1.0000     0. 
   2   3   7     25.68    8.01  0. 1.0000     0. 
  -3  -3  -7      7.58    7.10  0. 1.0000     0. 
   3   3   7     20.57    8.36  0. 1.0000     0. 
  -5  -4   7     13.25    4.98  0. 1.0000     0. 
  -5   4   7      4.44    4.26  0. 1.0000     0. 
   4  -4  -7      4.36    5.28  0. 1.0000     0. 
  -4  -4   7     12.67    5.48  0. 1.0000     0. 
   4   4  -7     -1.42    5.59  0. 1.0000     0. 
   4   4  -7     11.73    5.66  0. 1.0000     0. 
  -4   4   7      8.77    4.08  0. 1.0000     0. 
   3  -4  -7      1.53    4.89  0. 1.0000     0. 
  -3  -4   7     -0.31    5.51  0. 1.0000     0. 
  -3  -4   7     -0.33    3.49  0. 1.0000     0. 
  -3   4   7      1.85    3.86  0. 1.0000     0. 
   3   4  -7      2.82    5.76  0. 1.0000     0. 
   3   4  -7     -0.24    5.28  0. 1.0000     0. 
  -3   4   7     -5.00    6.28  0. 1.0000     0. 
   2  -4  -7     41.92    9.46  0. 1.0000     0. 
  -2  -4   7     51.09    6.21  0. 1.0000     0. 
   2  -4  -7     52.77    5.57  0. 1.0000     0. 
   2   4  -7     56.86    6.83  0. 1.0000     0. 
   2   4  -7     59.36    5.24  0. 1.0000     0. 
  -2   4   7     64.52    8.02  0. 1.0000     0. 
  -2   4   7     54.01    4.65  0. 1.0000     0. 
   1  -4  -7      9.86    4.59  0. 1.0000     0. 
   1  -4  -7      6.09    9.21  0. 1.0000     0. 
  -1  -4   7      4.18    3.56  0. 1.0000     0. 
  -1  -4   7      9.98    6.04  0. 1.0000     0. 
   1   4  -7     11.44    4.02  0. 1.0000     0. 
   1   4  -7     15.59    6.62  0. 1.0000     0. 
  -1   4   7     14.21    4.48  0. 1.0000     0. 
  -1   4   7      7.67    6.69  0. 1.0000     0. 
   0  -4   7     18.54    4.06  0. 1.0000     0. 
   0  -4  -7     24.39    4.96  0. 1.0000     0. 
   0  -4   7     11.64    7.35  0. 1.0000     0. 
   0  -4  -7     13.69    8.79  0. 1.0000     0. 
   0   4   7     19.95    4.15  0. 1.0000     0. 
   0   4   7     17.41    8.00  0. 1.0000     0. 
   0   4  -7     18.91    4.29  0. 1.0000     0. 
   0   4  -7     11.80    6.11  0. 1.0000     0. 
   1  -4   7     15.95    7.96  0. 1.0000     0. 
  -1  -4  -7     27.69    9.53  0. 1.0000     0. 
   1  -4   7     24.81    4.15  0. 1.0000     0. 
  -1  -4  -7     30.75    5.27  0. 1.0000     0. 
   1   4   7     33.89    8.48  0. 1.0000     0. 
  -1   4  -7     12.16    6.17  0. 1.0000     0. 
   1   4   7     33.30    5.06  0. 1.0000     0. 
  -1   4  -7     30.44    4.53  0. 1.0000     0. 
   2  -4   7      0.18    8.46  0. 1.0000     0. 
   2  -4   7     -3.85    4.11  0. 1.0000     0. 
  -2  -4  -7      4.52    8.31  0. 1.0000     0. 
  -2  -4  -7     -2.97    5.26  0. 1.0000     0. 
   2   4   7      7.32    5.42  0. 1.0000     0. 
   2   4   7    -18.70    9.15  0. 1.0000     0. 
  -2   4  -7     -1.95    3.98  0. 1.0000     0. 
  -3  -4  -7      2.44    8.76  0. 1.0000     0. 
   3   4   7     -4.54    9.65  0. 1.0000     0. 
  -4  -5   7     -1.27    5.86  0. 1.0000     0. 
  -3  -5   7      8.81    6.32  0. 1.0000     0. 
   3  -5  -7     -3.71    6.11  0. 1.0000     0. 
   3   5  -7     -5.09    6.21  0. 1.0000     0. 
  -3   5   7    -10.31    7.60  0. 1.0000     0. 
   2  -5  -7      3.11    5.55  0. 1.0000     0. 
  -2  -5   7      4.40    5.95  0. 1.0000     0. 
  -2   5   7     -1.11    7.43  0. 1.0000     0. 
   2   5  -7      0.55    6.33  0. 1.0000     0. 
  -1  -5   7     12.70    7.16  0. 1.0000     0. 
  -1  -5   7      3.33    3.93  0. 1.0000     0. 
   1  -5  -7      8.81    5.92  0. 1.0000     0. 
   1   5  -7     14.52    5.31  0. 1.0000     0. 
  -1   5   7     10.74    7.95  0. 1.0000     0. 
   0  -5  -7      3.92    5.50  0. 1.0000     0. 
   0  -5   7     11.20    7.76  0. 1.0000     0. 
   0   5   7      0.54    8.29  0. 1.0000     0. 
   0   5  -7      1.57    6.87  0. 1.0000     0. 
   0   5  -7      2.20    5.32  0. 1.0000     0. 
   1  -5   7      3.59    7.42  0. 1.0000     0. 
  -1  -5  -7      0.22    5.35  0. 1.0000     0. 
   1   5   7      8.41    9.09  0. 1.0000     0. 
  -1   5  -7      0.70    4.64  0. 1.0000     0. 
  -2   0   8     51.61    2.92  0. 1.0000     0. 
   2   0  -8     51.22    2.59  0. 1.0000     0. 
  -2   0   8     49.29    2.56  0. 1.0000     0. 
  -2   0   8     51.25    1.93  0. 1.0000     0. 
   2   0  -8     46.85    2.22  0. 1.0000     0. 
   2   0  -8     46.71    2.10  0. 1.0000     0. 
   1   0  -8    843.04   26.35  0. 1.0000     0. 
  -1   0   8    856.04   17.10  0. 1.0000     0. 
  -1   0   8    866.50   16.55  0. 1.0000     0. 
   1   0  -8    861.14   17.71  0. 1.0000     0. 
  -1   0   8    856.98   18.49  0. 1.0000     0. 
   1   0  -8    809.73   18.69  0. 1.0000     0. 
   1   0  -8    862.47   16.82  0. 1.0000     0. 
  -1   0   8    856.50   17.62  0. 1.0000     0. 
   0   0  -8    640.45   20.83  0. 1.0000     0. 
   0   0   8    657.99   15.12  0. 1.0000     0. 
   0   0  -8    655.46   13.41  0. 1.0000     0. 
  -4  -1   8     78.85    3.68  0. 1.0000     0. 
  -4   1   8     82.51    3.21  0. 1.0000     0. 
   4   1  -8     77.86    3.47  0. 1.0000     0. 
  -3  -1   8     -0.11    2.67  0. 1.0000     0. 
   3  -1  -8      1.17    2.16  0. 1.0000     0. 
   3   1  -8     -1.07    2.14  0. 1.0000     0. 
  -3   1   8      1.76    3.04  0. 1.0000     0. 
   3   1  -8     -0.93    2.85  0. 1.0000     0. 
  -3   1   8      0.78    1.94  0. 1.0000     0. 
  -1  -1  -8   1015.25   33.98  0. 1.0000     0. 
   1  -1   8   1082.57   21.18  0. 1.0000     0. 
   1   1   8   1060.68   24.01  0. 1.0000     0. 
   1   1   8   1062.89   22.44  0. 1.0000     0. 
  -1   1  -8   1061.22   22.44  0. 1.0000     0. 
   5   2  -8    143.59    5.31  0. 1.0000     0. 
  -4  -2   8     59.92    4.48  0. 1.0000     0. 
   4  -2  -8     67.00    4.44  0. 1.0000     0. 
  -4   2   8     58.52    3.59  0. 1.0000     0. 
   4   2  -8     64.42    3.79  0. 1.0000     0. 
   4   2  -8     63.38    4.91  0. 1.0000     0. 
   3  -2  -8      3.60    2.81  0. 1.0000     0. 
  -3  -2   8      3.69    3.77  0. 1.0000     0. 
   3   2  -8      2.36    3.62  0. 1.0000     0. 
   3   2  -8      1.92    3.05  0. 1.0000     0. 
  -3   2   8      3.70    4.48  0. 1.0000     0. 
  -3   2   8      6.38    2.51  0. 1.0000     0. 
  -2  -2   8    150.67    6.77  0. 1.0000     0. 
   2  -2  -8    156.61    5.26  0. 1.0000     0. 
  -2   2   8    149.17    4.93  0. 1.0000     0. 
  -2   2   8    152.21    7.05  0. 1.0000     0. 
   2   2  -8    158.11    5.74  0. 1.0000     0. 
   2   2  -8    162.85    5.48  0. 1.0000     0. 
  -1  -2   8     32.72    2.88  0. 1.0000     0. 
  -1  -2   8     29.77    5.38  0. 1.0000     0. 
   1  -2  -8     27.90    6.28  0. 1.0000     0. 
   1  -2  -8     32.32    2.98  0. 1.0000     0. 
  -1   2   8     33.02    2.96  0. 1.0000     0. 
   1   2  -8     35.20    3.17  0. 1.0000     0. 
  -1   2   8     26.90    5.33  0. 1.0000     0. 
   1   2  -8     24.23    3.99  0. 1.0000     0. 
   0  -2  -8    130.40    9.79  0. 1.0000     0. 
   0  -2   8    130.64    4.72  0. 1.0000     0. 
   0  -2  -8    138.35    4.99  0. 1.0000     0. 
   0   2   8    130.50    7.42  0. 1.0000     0. 
   0   2  -8    128.75    4.60  0. 1.0000     0. 
   0   2  -8    122.82    6.80  0. 1.0000     0. 
   0   2   8    127.66    5.07  0. 1.0000     0. 
   1  -2   8    175.11    5.62  0. 1.0000     0. 
  -1  -2  -8    175.61   10.26  0. 1.0000     0. 
  -1   2  -8    173.33    5.32  0. 1.0000     0. 
  -1   2  -8    172.62    7.54  0. 1.0000     0. 
   1   2   8    168.44    6.61  0. 1.0000     0. 
   1   2   8    174.73    8.80  0. 1.0000     0. 
  -5  -3   8     41.33    4.55  0. 1.0000     0. 
  -5   3   8     31.21    4.05  0. 1.0000     0. 
   5   3  -8     66.44    4.86  0. 1.0000     0. 
   4  -3  -8    189.36    7.56  0. 1.0000     0. 
  -4  -3   8    179.07    7.99  0. 1.0000     0. 
   4   3  -8    182.21    7.93  0. 1.0000     0. 
  -4   3   8    182.85    9.00  0. 1.0000     0. 
   4   3  -8    191.59    6.92  0. 1.0000     0. 
  -4   3   8    186.15    6.14  0. 1.0000     0. 
   3  -3  -8     14.47    4.09  0. 1.0000     0. 
  -3   3   8     11.00    3.41  0. 1.0000     0. 
   3   3  -8     14.34    4.41  0. 1.0000     0. 
  -3   3   8      9.72    5.87  0. 1.0000     0. 
  -2  -3   8     -1.40    2.90  0. 1.0000     0. 
   2   3  -8      3.98    4.43  0. 1.0000     0. 
  -2   3   8      1.73    3.33  0. 1.0000     0. 
  -1  -3   8    184.95    6.19  0. 1.0000     0. 
   1  -3  -8    178.47   11.94  0. 1.0000     0. 
  -1   3   8    184.99    5.78  0. 1.0000     0. 
   1   3  -8    175.11    8.25  0. 1.0000     0. 
   0  -3   8      0.19    2.93  0. 1.0000     0. 
   0  -3  -8      9.51    8.23  0. 1.0000     0. 
   0   3   8      0.61    3.84  0. 1.0000     0. 
   0   3  -8      0.65    5.44  0. 1.0000     0. 
   1  -3   8     34.33    3.73  0. 1.0000     0. 
  -1  -3  -8     33.95    7.47  0. 1.0000     0. 
  -1  -3  -8     33.67    4.43  0. 1.0000     0. 
  -1   3  -8     38.94    3.69  0. 1.0000     0. 
  -1   3  -8     32.97    6.11  0. 1.0000     0. 
   1   3   8     35.19    4.70  0. 1.0000     0. 
   1   3   8     40.17    7.44  0. 1.0000     0. 
   3   3   8      4.83    8.14  0. 1.0000     0. 
  -5  -4   8     12.95    4.86  0. 1.0000     0. 
   5   4  -8     18.31    6.03  0. 1.0000     0. 
  -5   4   8     10.59    4.21  0. 1.0000     0. 
  -4  -4   8     19.21    5.64  0. 1.0000     0. 
   4  -4  -8     22.32    5.72  0. 1.0000     0. 
   4   4  -8     20.52    6.27  0. 1.0000     0. 
  -4   4   8     21.50    4.22  0. 1.0000     0. 
   4   4  -8     28.13    6.35  0. 1.0000     0. 
  -3  -4   8     -0.50    5.26  0. 1.0000     0. 
   3  -4  -8      2.97    4.64  0. 1.0000     0. 
  -3  -4   8      5.26    3.79  0. 1.0000     0. 
  -3   4   8      2.65    3.99  0. 1.0000     0. 
  -3   4   8      4.70    6.26  0. 1.0000     0. 
   3   4  -8     -5.22    5.54  0. 1.0000     0. 
   3   4  -8      0.38    5.77  0. 1.0000     0. 
  -2  -4   8     -0.43    3.48  0. 1.0000     0. 
   2  -4  -8      5.82    9.21  0. 1.0000     0. 
   2  -4  -8      4.44    4.64  0. 1.0000     0. 
  -2  -4   8     -8.56    6.01  0. 1.0000     0. 
   2   4  -8      2.45    4.44  0. 1.0000     0. 
  -2   4   8     -0.48    4.24  0. 1.0000     0. 
   2   4  -8      5.76    6.24  0. 1.0000     0. 
  -2   4   8      0.15    6.54  0. 1.0000     0. 
   1  -4  -8     14.01   10.38  0. 1.0000     0. 
   1  -4  -8      0.56    4.43  0. 1.0000     0. 
  -1  -4   8     -0.70    3.71  0. 1.0000     0. 
  -1  -4   8      5.30    6.16  0. 1.0000     0. 
   1   4  -8     -0.48    6.53  0. 1.0000     0. 
   1   4  -8      4.28    4.45  0. 1.0000     0. 
  -1   4   8     -2.09    4.45  0. 1.0000     0. 
  -1   4   8     -0.15    6.45  0. 1.0000     0. 
   0  -4   8      4.28    7.88  0. 1.0000     0. 
   0  -4   8     15.42    3.94  0. 1.0000     0. 
   0  -4  -8     12.08    8.93  0. 1.0000     0. 
   0  -4  -8     19.58    4.92  0. 1.0000     0. 
   0   4   8     14.07    4.13  0. 1.0000     0. 
   0   4   8     20.19    7.76  0. 1.0000     0. 
   0   4  -8     13.01    4.36  0. 1.0000     0. 
   0   4  -8     18.64    6.39  0. 1.0000     0. 
   1  -4   8      0.49    8.12  0. 1.0000     0. 
   1  -4   8      3.62    3.86  0. 1.0000     0. 
  -1  -4  -8      3.78    5.07  0. 1.0000     0. 
  -1  -4  -8     -7.15    9.55  0. 1.0000     0. 
  -1   4  -8     -1.17    4.36  0. 1.0000     0. 
   1   4   8     -9.18    8.53  0. 1.0000     0. 
   1   4   8     -3.07    4.78  0. 1.0000     0. 
  -1   4  -8     -2.07    6.07  0. 1.0000     0. 
  -2  -4  -8     10.15    5.44  0. 1.0000     0. 
  -2  -4  -8      3.41    9.05  0. 1.0000     0. 
   2  -4   8      0.79    4.21  0. 1.0000     0. 
   2  -4   8    -10.57    8.63  0. 1.0000     0. 
   2   4   8     -4.79    8.75  0. 1.0000     0. 
   2   4   8     13.73    6.00  0. 1.0000     0. 
  -2   4  -8      5.93    4.10  0. 1.0000     0. 
  -3  -4  -8      2.98    7.51  0. 1.0000     0. 
   3   4   8      5.19   10.00  0. 1.0000     0. 
   4   0  -9      0.21    1.39  0. 1.0000     0. 
   3   0  -9     -1.50    1.89  0. 1.0000     0. 
  -4  -1   9     46.23    3.57  0. 1.0000     0. 
  -4   1   9     49.13    2.95  0. 1.0000     0. 
   4   1  -9     45.71    3.10  0. 1.0000     0. 
   3  -1  -9     38.62    2.86  0. 1.0000     0. 
  -3  -1   9     41.68    3.39  0. 1.0000     0. 
  -3   1   9     39.50    4.19  0. 1.0000     0. 
   3   1  -9     45.40    3.00  0. 1.0000     0. 
   3   1  -9     43.90    3.63  0. 1.0000     0. 
  -3   1   9     38.38    2.67  0. 1.0000     0. 
   2  -1  -9     42.06    2.76  0. 1.0000     0. 
  -2  -1   9     43.35    3.82  0. 1.0000     0. 
  -2   1   9     41.29    4.24  0. 1.0000     0. 
  -2   1   9     44.17    2.62  0. 1.0000     0. 
   2   1  -9     41.93    3.25  0. 1.0000     0. 
   2   1  -9     42.98    2.92  0. 1.0000     0. 
  -1  -1   9    361.93   10.55  0. 1.0000     0. 
  -1  -1   9    357.92    8.28  0. 1.0000     0. 
   1  -1  -9    352.09    8.71  0. 1.0000     0. 
   1  -1  -9    347.40   13.46  0. 1.0000     0. 
  -1   1   9    350.73    8.38  0. 1.0000     0. 
  -1   1   9    350.86   10.44  0. 1.0000     0. 
   1   1  -9    343.80    9.24  0. 1.0000     0. 
   1   1  -9    356.65    8.42  0. 1.0000     0. 
   0  -1  -9     22.83    4.74  0. 1.0000     0. 
   0  -1   9     28.99    2.19  0. 1.0000     0. 
   0   1  -9     29.76    3.50  0. 1.0000     0. 
   0   1  -9     27.91    2.35  0. 1.0000     0. 
   0   1   9     23.18    4.85  0. 1.0000     0. 
   0   1   9     25.37    2.67  0. 1.0000     0. 
   1  -1   9      6.80    2.10  0. 1.0000     0. 
  -1  -1  -9      8.43    4.80  0. 1.0000     0. 
  -1   1  -9      6.12    2.35  0. 1.0000     0. 
   1   1   9      6.42    3.22  0. 1.0000     0. 
   1   1   9      6.16    4.91  0. 1.0000     0. 
   2   1   9    232.99   10.60  0. 1.0000     0. 
  -5  -2   9     -3.15    3.30  0. 1.0000     0. 
   5   2  -9      0.11    3.46  0. 1.0000     0. 
  -4  -2   9    431.70   11.87  0. 1.0000     0. 
   4  -2  -9    427.73   11.15  0. 1.0000     0. 
   4   2  -9    432.28   10.42  0. 1.0000     0. 
  -4   2   9    431.15   12.55  0. 1.0000     0. 
   4   2  -9    426.46   11.88  0. 1.0000     0. 
  -4   2   9    431.84   10.66  0. 1.0000     0. 
  -3  -2   9     40.89    4.45  0. 1.0000     0. 
   3  -2  -9     38.83    3.70  0. 1.0000     0. 
  -3   2   9     35.86    3.31  0. 1.0000     0. 
   3   2  -9     37.62    3.96  0. 1.0000     0. 
   3   2  -9     40.64    4.11  0. 1.0000     0. 
  -3   2   9     42.87    5.28  0. 1.0000     0. 
   2  -2  -9     78.75    4.17  0. 1.0000     0. 
  -2  -2   9     78.52    5.51  0. 1.0000     0. 
   2   2  -9     83.66    4.21  0. 1.0000     0. 
   2   2  -9     83.61    4.81  0. 1.0000     0. 
  -2   2   9     78.37    6.18  0. 1.0000     0. 
  -2   2   9     79.00    3.86  0. 1.0000     0. 
   1  -2  -9     -1.81    6.00  0. 1.0000     0. 
  -1  -2   9      1.10    5.15  0. 1.0000     0. 
  -1  -2   9     -0.44    2.19  0. 1.0000     0. 
   1  -2  -9      1.97    3.09  0. 1.0000     0. 
   1   2  -9      1.96    3.02  0. 1.0000     0. 
  -1   2   9     -0.07    2.83  0. 1.0000     0. 
   1   2  -9      1.41    3.76  0. 1.0000     0. 
  -1   2   9      5.82    5.31  0. 1.0000     0. 
   0  -2   9      4.28    2.35  0. 1.0000     0. 
   0  -2  -9      2.16    3.24  0. 1.0000     0. 
   0  -2  -9     -0.32    6.20  0. 1.0000     0. 
   0   2   9      4.46    5.40  0. 1.0000     0. 
   0   2   9      3.59    3.19  0. 1.0000     0. 
   0   2  -9      9.16    2.87  0. 1.0000     0. 
   0   2  -9      2.76    4.53  0. 1.0000     0. 
  -1   2  -9    100.78    4.36  0. 1.0000     0. 
  -2  -2  -9      1.52    6.64  0. 1.0000     0. 
   2  -2   9      4.08    2.68  0. 1.0000     0. 
   2   2   9     -1.98    6.78  0. 1.0000     0. 
  -2   2  -9      6.19    3.15  0. 1.0000     0. 
   5  -3  -9      0.76    4.49  0. 1.0000     0. 
  -5  -3   9      5.13    4.33  0. 1.0000     0. 
   5   3  -9      1.49    4.28  0. 1.0000     0. 
  -5   3   9      6.44    3.65  0. 1.0000     0. 
   4  -3  -9    176.97    7.49  0. 1.0000     0. 
  -4  -3   9    181.68    7.76  0. 1.0000     0. 
  -4   3   9    176.60    6.21  0. 1.0000     0. 
   4   3  -9    166.67    7.64  0. 1.0000     0. 
   4   3  -9    176.58    6.90  0. 1.0000     0. 
  -3  -3   9     13.67    5.02  0. 1.0000     0. 
   3  -3  -9      9.01    3.98  0. 1.0000     0. 
   3   3  -9      7.00    4.81  0. 1.0000     0. 
   3   3  -9     13.02    4.57  0. 1.0000     0. 
  -3   3   9     10.04    3.54  0. 1.0000     0. 
  -3   3   9     12.49    5.73  0. 1.0000     0. 
   2  -3  -9    320.17    9.15  0. 1.0000     0. 
  -2  -3   9    310.21    9.08  0. 1.0000     0. 
  -2  -3   9    309.26   11.72  0. 1.0000     0. 
   2   3  -9    308.45   10.44  0. 1.0000     0. 
   2   3  -9    321.39    9.16  0. 1.0000     0. 
  -2   3   9    316.15   11.29  0. 1.0000     0. 
  -2   3   9    317.91    8.49  0. 1.0000     0. 
   1  -3  -9     14.85    4.20  0. 1.0000     0. 
  -1  -3   9     10.99    3.28  0. 1.0000     0. 
  -1  -3   9     12.75    6.30  0. 1.0000     0. 
   1  -3  -9      6.01    7.86  0. 1.0000     0. 
  -1   3   9     13.26    6.65  0. 1.0000     0. 
   1   3  -9     12.96    5.35  0. 1.0000     0. 
   1   3  -9     20.16    3.95  0. 1.0000     0. 
  -1   3   9     18.16    4.00  0. 1.0000     0. 
   0  -3   9      6.16    6.57  0. 1.0000     0. 
   0  -3   9     -1.84    2.98  0. 1.0000     0. 
   0  -3  -9      0.09    4.15  0. 1.0000     0. 
   0  -3  -9      7.70    7.76  0. 1.0000     0. 
   0   3  -9      3.15    5.52  0. 1.0000     0. 
   0   3  -9      4.06    3.64  0. 1.0000     0. 
   0   3   9      5.30    3.70  0. 1.0000     0. 
   0   3   9     -1.82    6.55  0. 1.0000     0. 
  -1  -3  -9    153.25   11.80  0. 1.0000     0. 
   1  -3   9    119.79    5.75  0. 1.0000     0. 
   1   3   9    143.54    9.00  0. 1.0000     0. 
  -1   3  -9    135.95    5.44  0. 1.0000     0. 
   2  -3   9      0.99    3.35  0. 1.0000     0. 
  -2  -3  -9      4.20    7.65  0. 1.0000     0. 
  -2   3  -9      1.96    3.24  0. 1.0000     0. 
   2   3   9      2.16    5.09  0. 1.0000     0. 
   2   3   9      4.94    7.65  0. 1.0000     0. 
   3   3   9    -27.73   10.01  0. 1.0000     0. 
  -5  -4   9     -6.39    5.10  0. 1.0000     0. 
  -5   4   9      0.10    4.12  0. 1.0000     0. 
   5   4  -9     -4.73    6.20  0. 1.0000     0. 
   4  -4  -9      0.79    5.32  0. 1.0000     0. 
  -4  -4   9      0.21    5.32  0. 1.0000     0. 
  -4   4   9      2.61    6.81  0. 1.0000     0. 
   4   4  -9     -1.18    5.57  0. 1.0000     0. 
  -4   4   9      3.92    4.27  0. 1.0000     0. 
   4   4  -9      1.95    6.00  0. 1.0000     0. 
   3  -4  -9    406.99   11.64  0. 1.0000     0. 
  -3  -4   9    389.48   13.28  0. 1.0000     0. 
  -3   4   9    397.83   10.57  0. 1.0000     0. 
   3   4  -9    393.85   13.30  0. 1.0000     0. 
  -3   4   9    399.15   13.88  0. 1.0000     0. 
   3   4  -9    401.51   12.90  0. 1.0000     0. 
  -2  -4   9     13.84    3.88  0. 1.0000     0. 
   2  -4  -9     13.79    9.77  0. 1.0000     0. 
  -2  -4   9     22.45    6.19  0. 1.0000     0. 
   2  -4  -9     15.13    4.92  0. 1.0000     0. 
   2   4  -9     41.56    5.14  0. 1.0000     0. 
  -2   4   9     29.18    7.20  0. 1.0000     0. 
   2   4  -9      9.92    6.60  0. 1.0000     0. 
  -2   4   9     17.93    4.05  0. 1.0000     0. 
  -1  -4   9     47.91    4.62  0. 1.0000     0. 
  -1  -4   9     49.09    7.31  0. 1.0000     0. 
   1  -4  -9     56.57   11.94  0. 1.0000     0. 
   1  -4  -9     55.61    5.41  0. 1.0000     0. 
   1   4  -9     62.33    5.30  0. 1.0000     0. 
  -1   4   9     57.12    5.40  0. 1.0000     0. 
  -1   4   9     59.52    7.96  0. 1.0000     0. 
   1   4  -9     41.33    7.90  0. 1.0000     0. 
   0  -4   9    107.81    5.56  0. 1.0000     0. 
   0  -4   9     80.57   10.17  0. 1.0000     0. 
   0  -4  -9    100.45    6.63  0. 1.0000     0. 
   0  -4  -9    128.30   11.70  0. 1.0000     0. 
   0   4  -9    104.97    5.92  0. 1.0000     0. 
   0   4   9    104.43    5.72  0. 1.0000     0. 
   0   4  -9    109.68    8.41  0. 1.0000     0. 
   0   4   9     91.33    9.70  0. 1.0000     0. 
  -1  -4  -9     -8.60    9.26  0. 1.0000     0. 
   1  -4   9    -12.60    8.34  0. 1.0000     0. 
  -1  -4  -9      8.18    5.27  0. 1.0000     0. 
   1  -4   9      1.25    3.67  0. 1.0000     0. 
   1   4   9     -4.00    5.45  0. 1.0000     0. 
  -1   4  -9      0.70    4.28  0. 1.0000     0. 
   1   4   9      5.76    8.31  0. 1.0000     0. 
  -1   4  -9      2.26    6.25  0. 1.0000     0. 
  -2  -4  -9     19.56    5.96  0. 1.0000     0. 
  -2  -4  -9     25.64    9.95  0. 1.0000     0. 
   2  -4   9     16.16    4.52  0. 1.0000     0. 
   2  -4   9     19.73    9.02  0. 1.0000     0. 
   2   4   9     15.00    9.28  0. 1.0000     0. 
  -2   4  -9     18.57    4.32  0. 1.0000     0. 
   3   4   9     10.73   10.70  0. 1.0000     0. 
   4   0 -10     -0.32    1.94  0. 1.0000     0. 
  -4   0  10      0.42    1.94  0. 1.0000     0. 
  -3   0  10   3382.38   64.43  0. 1.0000     0. 
   3   0 -10   3330.46   65.38  0. 1.0000     0. 
   2   0 -10      1.71    1.65  0. 1.0000     0. 
   2   0 -10      0.96    2.24  0. 1.0000     0. 
  -2   0  10      0.92    2.81  0. 1.0000     0. 
  -1   0  10    496.06   10.77  0. 1.0000     0. 
   1   0 -10    507.54   11.55  0. 1.0000     0. 
  -1   0  10    488.10   11.79  0. 1.0000     0. 
   0   0  10   2994.06   55.92  0. 1.0000     0. 
   0   0 -10   2708.52   96.20  0. 1.0000     0. 
  -1   0 -10   1452.59   29.47  0. 1.0000     0. 
   1   0  10   1469.12   30.51  0. 1.0000     0. 
   5   1 -10     21.51    2.78  0. 1.0000     0. 
  -4  -1  10    988.97   22.26  0. 1.0000     0. 
  -4   1  10    992.45   20.90  0. 1.0000     0. 
   4   1 -10    991.83   20.07  0. 1.0000     0. 
  -2  -1  10     69.09    4.66  0. 1.0000     0. 
  -2   1  10     70.49    3.26  0. 1.0000     0. 
   2   1 -10     68.02    3.58  0. 1.0000     0. 
   2   1 -10     67.00    4.11  0. 1.0000     0. 
  -2   1  10     72.05    5.25  0. 1.0000     0. 
  -1  -1  10    122.33    3.90  0. 1.0000     0. 
   1   1 -10    108.84    5.27  0. 1.0000     0. 
  -1   1  10    118.45    6.60  0. 1.0000     0. 
  -1   1  10    111.87    4.27  0. 1.0000     0. 
  -1  -1 -10    910.94   31.02  0. 1.0000     0. 
   1  -1  10    936.70   19.86  0. 1.0000     0. 
   1   1  10    925.97   23.07  0. 1.0000     0. 
  -1   1 -10    930.49   19.89  0. 1.0000     0. 
   2   1  10    207.03    9.61  0. 1.0000     0. 
  -5  -2  10     61.58    4.76  0. 1.0000     0. 
  -4  -2  10    723.58   17.33  0. 1.0000     0. 
   4  -2 -10    739.09   16.70  0. 1.0000     0. 
   4   2 -10    725.79   15.80  0. 1.0000     0. 
  -4   2  10    721.10   17.80  0. 1.0000     0. 
   4   2 -10    693.70   17.45  0. 1.0000     0. 
  -4   2  10    709.61   16.54  0. 1.0000     0. 
   3  -2 -10     17.15    3.57  0. 1.0000     0. 
  -3  -2  10     10.09    4.09  0. 1.0000     0. 
  -3   2  10     14.16    5.34  0. 1.0000     0. 
   3   2 -10     16.24    4.06  0. 1.0000     0. 
  -3   2  10     14.06    3.01  0. 1.0000     0. 
   3   2 -10     10.90    3.87  0. 1.0000     0. 
  -2  -2  10    144.24    7.85  0. 1.0000     0. 
  -2  -2  10    155.25    5.18  0. 1.0000     0. 
   2  -2 -10    156.97    5.44  0. 1.0000     0. 
  -2   2  10    154.60    5.26  0. 1.0000     0. 
   2   2 -10    155.33    6.25  0. 1.0000     0. 
   2   2 -10    151.41    5.66  0. 1.0000     0. 
  -2   2  10    149.87    7.81  0. 1.0000     0. 
  -1  -2  10    607.91   13.83  0. 1.0000     0. 
  -1  -2  10    568.25   18.21  0. 1.0000     0. 
   1  -2 -10    614.11   22.61  0. 1.0000     0. 
   1  -2 -10    603.97   14.00  0. 1.0000     0. 
  -1   2  10    605.02   16.31  0. 1.0000     0. 
  -1   2  10    602.55   13.72  0. 1.0000     0. 
   1   2 -10    609.50   14.88  0. 1.0000     0. 
   1   2 -10    611.29   13.68  0. 1.0000     0. 
   0  -2  10     -1.60    2.47  0. 1.0000     0. 
   0  -2 -10     -1.64    3.45  0. 1.0000     0. 
   0  -2 -10     -1.27    6.09  0. 1.0000     0. 
   0   2  10      1.61    5.66  0. 1.0000     0. 
   0   2 -10     -1.37    2.98  0. 1.0000     0. 
   0   2 -10      5.15    4.86  0. 1.0000     0. 
   0   2  10      4.13    3.01  0. 1.0000     0. 
   1  -2  10     16.64    2.89  0. 1.0000     0. 
  -1  -2 -10     19.95    6.81  0. 1.0000     0. 
   1   2  10     19.66    4.27  0. 1.0000     0. 
   1   2  10     18.67    6.78  0. 1.0000     0. 
   5  -3 -10    377.59   12.07  0. 1.0000     0. 
  -5  -3  10    395.64   11.75  0. 1.0000     0. 
   5   3 -10    381.34   10.73  0. 1.0000     0. 
   4  -3 -10      5.23    4.56  0. 1.0000     0. 
  -4  -3  10      4.34    4.70  0. 1.0000     0. 
  -4   3  10     -0.55    5.90  0. 1.0000     0. 
   4   3 -10      8.16    4.67  0. 1.0000     0. 
   4   3 -10      0.61    4.77  0. 1.0000     0. 
   3  -3 -10     30.34    4.51  0. 1.0000     0. 
  -3  -3  10     36.40    5.23  0. 1.0000     0. 
  -3   3  10     22.91    6.20  0. 1.0000     0. 
   3   3 -10     31.94    4.87  0. 1.0000     0. 
   3   3 -10     30.73    5.37  0. 1.0000     0. 
   2  -3 -10    156.17    6.53  0. 1.0000     0. 
  -2  -3  10    150.49    8.13  0. 1.0000     0. 
   2   3 -10    139.92    6.53  0. 1.0000     0. 
  -2   3  10    140.90    8.29  0. 1.0000     0. 
  -1  -3  10    200.78   11.35  0. 1.0000     0. 
   1  -3 -10    216.04    7.82  0. 1.0000     0. 
  -1   3  10    225.24   10.18  0. 1.0000     0. 
   1   3 -10    217.36    7.19  0. 1.0000     0. 
   0  -3 -10     95.18    5.68  0. 1.0000     0. 
   0  -3  10     65.47    8.40  0. 1.0000     0. 
   0   3  10    103.16    8.33  0. 1.0000     0. 
   0   3 -10     86.16    5.06  0. 1.0000     0. 
  -1  -3 -10     -0.86    4.34  0. 1.0000     0. 
   1   3  10      0.17    7.25  0. 1.0000     0. 
  -1   3 -10      5.66    3.50  0. 1.0000     0. 
   2   3  10     16.67    8.76  0. 1.0000     0. 
  -2   3 -10     27.79    3.71  0. 1.0000     0. 
   3   3  10     -0.22    8.65  0. 1.0000     0. 
   6   4 -10      4.82    5.64  0. 1.0000     0. 
  -5  -4  10     -2.45    5.74  0. 1.0000     0. 
   5  -4 -10     -1.61    5.97  0. 1.0000     0. 
  -5   4  10      2.86    4.38  0. 1.0000     0. 
   5   4 -10      3.61    5.77  0. 1.0000     0. 
   4  -4 -10      3.41    5.87  0. 1.0000     0. 
  -4  -4  10      4.28    5.72  0. 1.0000     0. 
   4   4 -10      1.53    5.50  0. 1.0000     0. 
   4   4 -10     17.03    6.76  0. 1.0000     0. 
  -4   4  10      2.35    4.46  0. 1.0000     0. 
  -4   4  10      6.56    7.10  0. 1.0000     0. 
  -3  -4  10      3.80    5.97  0. 1.0000     0. 
  -3  -4  10      1.12    3.94  0. 1.0000     0. 
   3  -4 -10     14.67    9.98  0. 1.0000     0. 
   3  -4 -10      2.79    5.16  0. 1.0000     0. 
   3   4 -10      6.50    5.67  0. 1.0000     0. 
  -3   4  10      0.09    4.16  0. 1.0000     0. 
  -3   4  10     -4.57    7.27  0. 1.0000     0. 
   3   4 -10     12.24    6.31  0. 1.0000     0. 
  -2  -4  10     20.38    5.99  0. 1.0000     0. 
   2  -4 -10      4.95    9.62  0. 1.0000     0. 
  -2  -4  10     12.43    4.01  0. 1.0000     0. 
   2   4 -10     19.85    6.80  0. 1.0000     0. 
  -2   4  10     15.18    4.47  0. 1.0000     0. 
  -2   4  10     17.27    7.13  0. 1.0000     0. 
   2   4 -10     12.86    4.59  0. 1.0000     0. 
   1  -4 -10      1.24   10.44  0. 1.0000     0. 
  -1  -4  10      1.80    6.39  0. 1.0000     0. 
  -1  -4  10     10.86    3.91  0. 1.0000     0. 
  -1   4  10      5.52    4.65  0. 1.0000     0. 
   1   4 -10      7.28    4.48  0. 1.0000     0. 
  -1   4  10      8.57    7.14  0. 1.0000     0. 
   1   4 -10     13.27    7.53  0. 1.0000     0. 
   0  -4  10      0.68    8.33  0. 1.0000     0. 
   0  -4 -10     11.46    9.47  0. 1.0000     0. 
   0  -4 -10     17.94    5.26  0. 1.0000     0. 
   0  -4  10     12.28    4.11  0. 1.0000     0. 
   0   4 -10     15.53    6.77  0. 1.0000     0. 
   0   4  10      9.42    8.02  0. 1.0000     0. 
   0   4 -10      6.88    4.49  0. 1.0000     0. 
   0   4  10     13.85    5.14  0. 1.0000     0. 
  -1  -4 -10      7.27    5.69  0. 1.0000     0. 
   1  -4  10      2.47    8.54  0. 1.0000     0. 
   1  -4  10      1.27    3.69  0. 1.0000     0. 
  -1  -4 -10      7.47    9.22  0. 1.0000     0. 
   1   4  10      9.43    5.77  0. 1.0000     0. 
   1   4  10      7.84    8.88  0. 1.0000     0. 
  -1   4 -10      2.23    6.19  0. 1.0000     0. 
  -1   4 -10     15.48    4.59  0. 1.0000     0. 
   2  -4  10      2.14    9.21  0. 1.0000     0. 
   2  -4  10      1.86    4.18  0. 1.0000     0. 
  -2  -4 -10     -3.37    9.73  0. 1.0000     0. 
  -2  -4 -10     -2.67    6.19  0. 1.0000     0. 
  -2   4 -10      2.94    4.16  0. 1.0000     0. 
   2   4  10     -0.65    9.43  0. 1.0000     0. 
   3   4  10      2.36    9.77  0. 1.0000     0. 
  -4   0  11      0.29    2.32  0. 1.0000     0. 
   4   0 -11     -0.68    2.33  0. 1.0000     0. 
   0   0  11      0.42    4.46  0. 1.0000     0. 
   0   0  11      1.93    1.81  0. 1.0000     0. 
   0   0 -11      1.42    2.05  0. 1.0000     0. 
  -1   0 -11      1.04    1.99  0. 1.0000     0. 
   1   0  11      0.10    4.69  0. 1.0000     0. 
  -4  -1  11      3.76    3.54  0. 1.0000     0. 
   4  -1 -11      5.22    3.09  0. 1.0000     0. 
   4   1 -11      4.73    3.18  0. 1.0000     0. 
  -4   1  11      6.00    2.69  0. 1.0000     0. 
   4   1 -11      1.59    3.99  0. 1.0000     0. 
  -3  -1  11    152.44    6.03  0. 1.0000     0. 
   3  -1 -11    149.38    4.97  0. 1.0000     0. 
  -3   1  11    149.04    6.65  0. 1.0000     0. 
  -3   1  11    150.29    4.63  0. 1.0000     0. 
   3   1 -11    150.72    5.76  0. 1.0000     0. 
   3   1 -11    138.21    5.22  0. 1.0000     0. 
   2  -1 -11   1030.88   22.57  0. 1.0000     0. 
  -2  -1  11   1134.90   21.84  0. 1.0000     0. 
  -2  -1  11   1082.50   24.39  0. 1.0000     0. 
   2   1 -11   1051.12   23.58  0. 1.0000     0. 
  -2   1  11   1078.12   23.72  0. 1.0000     0. 
  -2   1  11   1075.83   22.73  0. 1.0000     0. 
   2   1 -11   1077.21   22.44  0. 1.0000     0. 
  -1  -1  11    250.08    6.45  0. 1.0000     0. 
  -1  -1  11    236.49    9.35  0. 1.0000     0. 
   1  -1 -11    244.83    6.96  0. 1.0000     0. 
   1  -1 -11    241.56   12.35  0. 1.0000     0. 
  -1   1  11    232.77    9.14  0. 1.0000     0. 
   1   1 -11    235.62    6.73  0. 1.0000     0. 
  -1   1  11    241.98    6.67  0. 1.0000     0. 
   1   1 -11    238.81    7.71  0. 1.0000     0. 
   0  -1  11     45.15    2.86  0. 1.0000     0. 
   0  -1 -11     40.75    5.99  0. 1.0000     0. 
   0   1  11     42.86    5.97  0. 1.0000     0. 
   0   1  11     36.44    3.90  0. 1.0000     0. 
   0   1 -11     40.29    4.27  0. 1.0000     0. 
   0   1 -11     38.29    3.28  0. 1.0000     0. 
  -1  -1 -11    430.08   16.61  0. 1.0000     0. 
   1  -1  11    404.83   10.25  0. 1.0000     0. 
  -1   1 -11    407.25   10.04  0. 1.0000     0. 
   1   1  11    398.79   13.76  0. 1.0000     0. 
   2   1  11    268.35   10.95  0. 1.0000     0. 
   5  -2 -11     43.42    4.87  0. 1.0000     0. 
   5   2 -11     46.54    4.48  0. 1.0000     0. 
  -3  -2  11    225.40    8.42  0. 1.0000     0. 
   3  -2 -11    234.23    7.26  0. 1.0000     0. 
  -3   2  11    227.61    8.89  0. 1.0000     0. 
  -3   2  11    221.91    6.92  0. 1.0000     0. 
   3   2 -11    229.45    7.44  0. 1.0000     0. 
   3   2 -11    225.69    7.50  0. 1.0000     0. 
   2  -2 -11      8.55    3.30  0. 1.0000     0. 
  -2  -2  11     16.73    5.52  0. 1.0000     0. 
  -2  -2  11     11.98    2.82  0. 1.0000     0. 
   2   2 -11     13.60    4.27  0. 1.0000     0. 
  -2   2  11     10.62    5.62  0. 1.0000     0. 
   2   2 -11     16.69    3.58  0. 1.0000     0. 
  -2   2  11     13.27    3.25  0. 1.0000     0. 
   1  -2 -11    818.17   28.58  0. 1.0000     0. 
  -1  -2  11    818.33   21.76  0. 1.0000     0. 
  -1  -2  11    800.20   18.14  0. 1.0000     0. 
   1  -2 -11    765.85   17.83  0. 1.0000     0. 
  -1   2  11    797.42   17.74  0. 1.0000     0. 
   1   2 -11    813.25   18.71  0. 1.0000     0. 
   1   2 -11    780.47   17.48  0. 1.0000     0. 
  -1   2  11    784.59   20.09  0. 1.0000     0. 
   0  -2 -11    138.26    9.99  0. 1.0000     0. 
   0  -2 -11    138.22    6.19  0. 1.0000     0. 
   0   2 -11    145.29    5.30  0. 1.0000     0. 
   0   2  11    127.93    8.52  0. 1.0000     0. 
  -2  -2 -11    355.37   21.17  0. 1.0000     0. 
  -5  -3  11    178.28    7.87  0. 1.0000     0. 
   5  -3 -11    184.40    7.92  0. 1.0000     0. 
  -5   3  11    178.06    6.78  0. 1.0000     0. 
   5   3 -11    166.35    9.12  0. 1.0000     0. 
  -4  -3  11     11.82    5.32  0. 1.0000     0. 
   4  -3 -11     10.11    4.64  0. 1.0000     0. 
   4   3 -11     10.70    5.61  0. 1.0000     0. 
  -4   3  11     13.51    6.33  0. 1.0000     0. 
   0   3  11    109.68    9.12  0. 1.0000     0. 
  -1  -3 -11     20.34    4.96  0. 1.0000     0. 
  -1  -3 -11     11.13    8.15  0. 1.0000     0. 
   1  -3  11     13.32    3.42  0. 1.0000     0. 
  -1   3 -11     19.16    3.85  0. 1.0000     0. 
   1   3  11     13.30    7.35  0. 1.0000     0. 
  -1   3 -11     14.97    5.85  0. 1.0000     0. 
   1   3  11     21.74    5.01  0. 1.0000     0. 
   2  -3  11     12.34    3.80  0. 1.0000     0. 
  -2  -3 -11     10.67    9.55  0. 1.0000     0. 
   2   3  11     15.46    8.45  0. 1.0000     0. 
  -2   3 -11      7.50    3.54  0. 1.0000     0. 
   6   4 -11      8.20    6.09  0. 1.0000     0. 
  -5  -4  11      8.21    5.96  0. 1.0000     0. 
   5  -4 -11      8.10    5.77  0. 1.0000     0. 
  -5   4  11      4.29    4.38  0. 1.0000     0. 
   5   4 -11     12.14    6.43  0. 1.0000     0. 
  -4  -4  11      2.40    3.84  0. 1.0000     0. 
   4  -4 -11      1.17    5.63  0. 1.0000     0. 
  -4  -4  11      5.51    5.89  0. 1.0000     0. 
  -4   4  11     -2.44    4.34  0. 1.0000     0. 
  -4   4  11      0.96    7.65  0. 1.0000     0. 
   4   4 -11     -1.60    6.26  0. 1.0000     0. 
   4   4 -11     -2.86    5.64  0. 1.0000     0. 
   3  -4 -11      3.73    9.83  0. 1.0000     0. 
   3  -4 -11     10.17    5.42  0. 1.0000     0. 
  -3  -4  11     12.23    6.26  0. 1.0000     0. 
  -3  -4  11      3.95    3.71  0. 1.0000     0. 
   3   4 -11     16.51    5.88  0. 1.0000     0. 
   3   4 -11      6.84    6.65  0. 1.0000     0. 
  -3   4  11      5.38    4.28  0. 1.0000     0. 
  -3   4  11     18.84    7.86  0. 1.0000     0. 
  -2  -4  11      4.43    6.12  0. 1.0000     0. 
   2  -4 -11      6.69   10.00  0. 1.0000     0. 
   2  -4 -11      3.76    4.76  0. 1.0000     0. 
  -2  -4  11      5.14    3.86  0. 1.0000     0. 
  -2   4  11      2.46    4.57  0. 1.0000     0. 
  -2   4  11     14.51    7.55  0. 1.0000     0. 
   2   4 -11     10.01    5.05  0. 1.0000     0. 
   2   4 -11     16.02    7.03  0. 1.0000     0. 
   1  -4 -11     12.39    9.83  0. 1.0000     0. 
  -1  -4  11     14.09    7.06  0. 1.0000     0. 
  -1  -4  11     14.17    4.17  0. 1.0000     0. 
   1  -4 -11     23.02    5.29  0. 1.0000     0. 
  -1   4  11     23.50    7.91  0. 1.0000     0. 
  -1   4  11     25.98    4.74  0. 1.0000     0. 
   1   4 -11     17.33    4.80  0. 1.0000     0. 
   1   4 -11     16.95    7.57  0. 1.0000     0. 
   0  -4 -11     55.24   10.22  0. 1.0000     0. 
   0  -4 -11     48.40    5.98  0. 1.0000     0. 
   0  -4  11     17.76    9.08  0. 1.0000     0. 
   0  -4  11     34.57    5.02  0. 1.0000     0. 
   0   4 -11     39.94    5.12  0. 1.0000     0. 
   0   4  11     42.32    9.29  0. 1.0000     0. 
   0   4 -11     38.04    7.49  0. 1.0000     0. 
   0   4  11     35.33    5.88  0. 1.0000     0. 
   1  -4  11      8.53    8.98  0. 1.0000     0. 
   1  -4  11     16.63    4.24  0. 1.0000     0. 
  -1  -4 -11     14.76    9.60  0. 1.0000     0. 
  -1  -4 -11     14.76    5.58  0. 1.0000     0. 
   1   4  11     16.67    5.36  0. 1.0000     0. 
  -1   4 -11     16.20    4.67  0. 1.0000     0. 
  -1   4 -11     20.67    7.27  0. 1.0000     0. 
   1   4  11      9.78    9.47  0. 1.0000     0. 
  -2  -4 -11     34.45    6.68  0. 1.0000     0. 
   2  -4  11     16.48    9.61  0. 1.0000     0. 
   2  -4  11     27.04    4.47  0. 1.0000     0. 
  -2  -4 -11     56.08   12.29  0. 1.0000     0. 
  -2   4 -11     15.82    4.45  0. 1.0000     0. 
   2   4  11     45.95   10.31  0. 1.0000     0. 
   4   0 -12   1282.11   25.78  0. 1.0000     0. 
   3   0 -12    229.23    6.47  0. 1.0000     0. 
   3   0 -12    239.48    6.83  0. 1.0000     0. 
   2   0 -12    557.55   13.00  0. 1.0000     0. 
   2   0 -12    576.29   12.35  0. 1.0000     0. 
   1   0 -12     15.67    2.53  0. 1.0000     0. 
   1   0 -12     18.43    3.22  0. 1.0000     0. 
   0   0 -12    808.30   16.82  0. 1.0000     0. 
  -5   1  12     22.21    3.17  0. 1.0000     0. 
   5   1 -12     29.26    3.51  0. 1.0000     0. 
  -4  -1  12    105.89    5.20  0. 1.0000     0. 
   4  -1 -12    102.68    4.76  0. 1.0000     0. 
   4   1 -12     99.20    4.62  0. 1.0000     0. 
  -4   1  12    104.00    4.21  0. 1.0000     0. 
   4   1 -12     98.95    6.09  0. 1.0000     0. 
  -2  -1  12    621.74   13.10  0. 1.0000     0. 
   2  -1 -12    580.97   13.30  0. 1.0000     0. 
   2   1 -12    596.44   14.64  0. 1.0000     0. 
  -2   1  12    594.76   15.57  0. 1.0000     0. 
  -2   1  12    595.02   13.64  0. 1.0000     0. 
   0  -1  12    184.82    5.34  0. 1.0000     0. 
   0  -1 -12    176.20   10.29  0. 1.0000     0. 
   0   1  12    182.55    8.38  0. 1.0000     0. 
   0   1 -12    162.79    5.77  0. 1.0000     0. 
   0   1  12    172.32    6.29  0. 1.0000     0. 
  -1  -1 -12      8.81    8.37  0. 1.0000     0. 
   1  -1  12      8.03    2.55  0. 1.0000     0. 
  -1   1 -12      4.33    2.99  0. 1.0000     0. 
   1   1  12     10.50    6.19  0. 1.0000     0. 
   2   1  12    323.65   11.81  0. 1.0000     0. 
  -5   2  12     23.22    3.62  0. 1.0000     0. 
   5   2 -12     18.50    3.74  0. 1.0000     0. 
   4  -2 -12     16.98    4.04  0. 1.0000     0. 
  -4   2  12     19.76    5.71  0. 1.0000     0. 
   4   2 -12     22.29    4.25  0. 1.0000     0. 
  -3  -2  12    395.47   11.89  0. 1.0000     0. 
   3  -2 -12    383.61   10.09  0. 1.0000     0. 
   3   2 -12    377.78   10.85  0. 1.0000     0. 
  -3   2  12    390.01   11.68  0. 1.0000     0. 
  -2  -2  12    106.64    7.68  0. 1.0000     0. 
   2  -2 -12    121.01    5.19  0. 1.0000     0. 
  -2   2  12    101.66    7.79  0. 1.0000     0. 
   2   2 -12    114.83    5.25  0. 1.0000     0. 
   1  -2 -12    348.66    9.26  0. 1.0000     0. 
  -1  -2  12    342.43   12.59  0. 1.0000     0. 
  -1   2  12    354.37   12.10  0. 1.0000     0. 
   1   2 -12    351.07    9.50  0. 1.0000     0. 
   0  -2 -12      4.80    3.73  0. 1.0000     0. 
   0  -2  12      8.51    7.15  0. 1.0000     0. 
   0   2 -12      5.32    3.32  0. 1.0000     0. 
   0   2  12      8.29    6.76  0. 1.0000     0. 
   1  -2  12    504.65   12.40  0. 1.0000     0. 
  -1  -2 -12    531.68   21.30  0. 1.0000     0. 
   1   2  12    500.50   13.40  0. 1.0000     0. 
  -2  -2 -12     22.53    7.75  0. 1.0000     0. 
  -2   2 -12     12.40    3.36  0. 1.0000     0. 
   6   3 -12      2.38    4.55  0. 1.0000     0. 
  -4  -3  12      3.87    5.27  0. 1.0000     0. 
   4  -3 -12      4.34    4.47  0. 1.0000     0. 
   4   3 -12      5.41    5.52  0. 1.0000     0. 
   4   3 -12      8.77    5.30  0. 1.0000     0. 
  -4   3  12      8.90    6.11  0. 1.0000     0. 
  -4   3  12      5.99    3.94  0. 1.0000     0. 
  -3  -3  12      5.57    5.32  0. 1.0000     0. 
   3  -3 -12      1.65    4.65  0. 1.0000     0. 
  -3  -3  12      1.17    3.31  0. 1.0000     0. 
  -3   3  12     -6.93    6.58  0. 1.0000     0. 
   3   3 -12      5.18    4.73  0. 1.0000     0. 
  -3   3  12      1.51    3.90  0. 1.0000     0. 
   3   3 -12     -0.18    5.15  0. 1.0000     0. 
   2  -3 -12    249.56    8.32  0. 1.0000     0. 
  -2  -3  12    239.79   10.43  0. 1.0000     0. 
  -2  -3  12    237.32    8.06  0. 1.0000     0. 
   2  -3 -12    242.37   14.75  0. 1.0000     0. 
  -2   3  12    251.18    7.53  0. 1.0000     0. 
   2   3 -12    265.93    9.55  0. 1.0000     0. 
  -2   3  12    251.38   10.16  0. 1.0000     0. 
   2   3 -12    255.27    7.94  0. 1.0000     0. 
  -1  -3  12      3.07    3.32  0. 1.0000     0. 
   1  -3 -12     -6.75    9.88  0. 1.0000     0. 
  -1  -3  12     -0.29    6.83  0. 1.0000     0. 
   1  -3 -12     -0.28    4.33  0. 1.0000     0. 
  -1   3  12      4.13    7.09  0. 1.0000     0. 
   1   3 -12     -1.45    6.42  0. 1.0000     0. 
   1   3 -12     -1.57    4.16  0. 1.0000     0. 
  -1   3  12     -2.61    4.28  0. 1.0000     0. 
   0  -3  12      0.43    3.39  0. 1.0000     0. 
   0  -3 -12      4.79    8.02  0. 1.0000     0. 
   0  -3 -12      5.58    4.94  0. 1.0000     0. 
   0  -3  12      0.49    7.55  0. 1.0000     0. 
   0   3 -12      2.35    4.11  0. 1.0000     0. 
   0   3  12      6.66    4.90  0. 1.0000     0. 
   0   3 -12     -4.18    6.07  0. 1.0000     0. 
   0   3  12      3.11    7.38  0. 1.0000     0. 
  -1   3 -12     15.98    6.13  0. 1.0000     0. 
  -2  -3 -12    300.53   18.10  0. 1.0000     0. 
  -6  -4  12     -0.31    4.65  0. 1.0000     0. 
   5  -4 -12      4.26    6.04  0. 1.0000     0. 
  -5  -4  12      1.54    5.86  0. 1.0000     0. 
  -5   4  12     -0.10    3.56  0. 1.0000     0. 
   5   4 -12     -1.46    7.04  0. 1.0000     0. 
  -4  -4  12     -6.72    3.92  0. 1.0000     0. 
  -4  -4  12     -3.55    5.73  0. 1.0000     0. 
   4  -4 -12     -0.47    5.63  0. 1.0000     0. 
   4   4 -12     -1.49    6.67  0. 1.0000     0. 
   4   4 -12     -0.13    5.52  0. 1.0000     0. 
  -4   4  12      0.80    7.76  0. 1.0000     0. 
  -4   4  12     -7.40    4.52  0. 1.0000     0. 
  -3  -4  12      0.58    3.77  0. 1.0000     0. 
   3  -4 -12      3.50    5.05  0. 1.0000     0. 
   3  -4 -12     -2.93    9.92  0. 1.0000     0. 
  -3  -4  12      4.31    6.25  0. 1.0000     0. 
   3   4 -12      0.46    6.67  0. 1.0000     0. 
   3   4 -12      0.89    5.60  0. 1.0000     0. 
  -3   4  12      7.22    7.72  0. 1.0000     0. 
  -3   4  12      3.04    4.61  0. 1.0000     0. 
   2  -4 -12      6.23    4.97  0. 1.0000     0. 
  -2  -4  12      0.25    3.98  0. 1.0000     0. 
  -2  -4  12      9.43    6.67  0. 1.0000     0. 
   2  -4 -12      8.64   11.49  0. 1.0000     0. 
  -2   4  12      3.96    4.98  0. 1.0000     0. 
   2   4 -12      5.90    5.17  0. 1.0000     0. 
  -2   4  12     -1.84    7.84  0. 1.0000     0. 
   2   4 -12     -4.37    7.39  0. 1.0000     0. 
  -1  -4  12      6.07    4.17  0. 1.0000     0. 
   1  -4 -12     14.30    5.24  0. 1.0000     0. 
   1  -4 -12     14.87    9.37  0. 1.0000     0. 
  -1  -4  12      3.18    7.19  0. 1.0000     0. 
   1   4 -12      5.71    6.59  0. 1.0000     0. 
  -1   4  12     11.56    4.42  0. 1.0000     0. 
  -1   4  12     20.70    7.98  0. 1.0000     0. 
   1   4 -12     10.38    4.90  0. 1.0000     0. 
   0  -4  12     11.58    9.28  0. 1.0000     0. 
   0  -4  12     30.41    4.53  0. 1.0000     0. 
   0  -4 -12     23.33    9.34  0. 1.0000     0. 
   0  -4 -12     35.84    5.66  0. 1.0000     0. 
   0   4 -12     29.76    5.15  0. 1.0000     0. 
   0   4  12     26.68    5.78  0. 1.0000     0. 
   0   4 -12     24.34    7.56  0. 1.0000     0. 
   0   4  12      7.53    8.84  0. 1.0000     0. 
  -1  -4 -12      0.12    5.43  0. 1.0000     0. 
   1  -4  12     -4.67    8.97  0. 1.0000     0. 
   1  -4  12     -1.07    4.41  0. 1.0000     0. 
  -1   4 -12      6.85    4.84  0. 1.0000     0. 
   1   4  12      1.60    9.33  0. 1.0000     0. 
  -2  -4 -12      5.97    6.07  0. 1.0000     0. 
   2  -4  12    -13.72    8.97  0. 1.0000     0. 
  -2   4 -12     -1.37    4.12  0. 1.0000     0. 
   2   4  12      1.63    9.06  0. 1.0000     0. 
   4  -1 -13     -0.98    3.38  0. 1.0000     0. 
  -4  -1  13      0.21    3.82  0. 1.0000     0. 
   4   1 -13      0.59    4.31  0. 1.0000     0. 
  -4   1  13     -0.68    3.09  0. 1.0000     0. 
  -4   1  13      1.23    4.68  0. 1.0000     0. 
   4   1 -13     -0.10    3.33  0. 1.0000     0. 
  -3  -1  13     14.32    4.34  0. 1.0000     0. 
   3  -1 -13     12.38    3.21  0. 1.0000     0. 
  -3   1  13     12.51    4.79  0. 1.0000     0. 
  -3   1  13     14.58    3.14  0. 1.0000     0. 
   3   1 -13     12.03    3.84  0. 1.0000     0. 
   3   1 -13     14.20    4.10  0. 1.0000     0. 
  -2  -1  13     15.57    2.45  0. 1.0000     0. 
  -2  -1  13     10.17    4.79  0. 1.0000     0. 
   2  -1 -13     19.17    6.46  0. 1.0000     0. 
   2  -1 -13     11.55    2.98  0. 1.0000     0. 
   2   1 -13     19.35    4.37  0. 1.0000     0. 
  -2   1  13     15.70    2.88  0. 1.0000     0. 
   2   1 -13     15.73    3.51  0. 1.0000     0. 
  -2   1  13     20.95    5.42  0. 1.0000     0. 
   1  -1 -13     20.57    6.14  0. 1.0000     0. 
  -1  -1  13     24.82    2.74  0. 1.0000     0. 
  -1  -1  13     23.08    6.31  0. 1.0000     0. 
   1  -1 -13     26.83    3.73  0. 1.0000     0. 
   1   1 -13     24.15    3.38  0. 1.0000     0. 
  -1   1  13     20.83    5.65  0. 1.0000     0. 
  -1   1  13     19.07    3.27  0. 1.0000     0. 
   1   1 -13     25.21    4.94  0. 1.0000     0. 
   0  -1 -13    138.60    9.25  0. 1.0000     0. 
   0  -1  13    145.40    4.77  0. 1.0000     0. 
   0   1 -13    134.03    5.18  0. 1.0000     0. 
   0   1  13    138.80    8.77  0. 1.0000     0. 
   0   1 -13    132.80    6.75  0. 1.0000     0. 
   0   1  13    124.85    5.37  0. 1.0000     0. 
   2   1  13    162.76    9.25  0. 1.0000     0. 
   6   2 -13     11.68    4.23  0. 1.0000     0. 
  -5  -2  13     35.83    5.37  0. 1.0000     0. 
   5  -2 -13     22.95    4.75  0. 1.0000     0. 
   5   2 -13     29.27    4.37  0. 1.0000     0. 
   5   2 -13     26.61    6.19  0. 1.0000     0. 
  -5   2  13     20.96    3.72  0. 1.0000     0. 
  -4   2  13     69.18    4.42  0. 1.0000     0. 
   4   2 -13     71.16    5.49  0. 1.0000     0. 
  -3  -2  13      2.20    2.98  0. 1.0000     0. 
  -3   2  13     -1.11    3.45  0. 1.0000     0. 
   3   2 -13      3.08    4.61  0. 1.0000     0. 
  -2  -2  13      4.69    2.95  0. 1.0000     0. 
   2  -2 -13     -1.70    7.43  0. 1.0000     0. 
  -2   2  13      6.19    3.25  0. 1.0000     0. 
   2   2 -13      4.69    4.95  0. 1.0000     0. 
   1  -2 -13    118.02   10.68  0. 1.0000     0. 
  -1  -2  13    130.13    5.08  0. 1.0000     0. 
  -1   2  13    124.64    5.72  0. 1.0000     0. 
   1   2 -13    123.37    7.41  0. 1.0000     0. 
   0  -2  13     27.82    3.82  0. 1.0000     0. 
   0  -2 -13     27.10    7.40  0. 1.0000     0. 
   0   2 -13     24.76    5.58  0. 1.0000     0. 
   0   2  13     25.65    4.67  0. 1.0000     0. 
  -1  -2 -13    243.32   13.61  0. 1.0000     0. 
   1  -2  13    231.02    7.40  0. 1.0000     0. 
  -1   2 -13    234.81    7.49  0. 1.0000     0. 
   1   2  13    230.74    8.60  0. 1.0000     0. 
  -2   2 -13     -1.48    3.35  0. 1.0000     0. 
   2   2  13      2.97    8.32  0. 1.0000     0. 
  -6  -3  13     47.64    5.63  0. 1.0000     0. 
   6   3 -13     27.06    5.28  0. 1.0000     0. 
  -5  -3  13     74.49    6.65  0. 1.0000     0. 
   5   3 -13     59.04    6.70  0. 1.0000     0. 
   5   3 -13     66.50    6.25  0. 1.0000     0. 
  -4  -3  13     75.30    6.80  0. 1.0000     0. 
   4   3 -13     79.15    6.63  0. 1.0000     0. 
  -4   3  13     78.02    7.62  0. 1.0000     0. 
   4   3 -13     73.52    6.41  0. 1.0000     0. 
   0  -3  13    226.34    8.65  0. 1.0000     0. 
   0  -3 -13    255.16   14.39  0. 1.0000     0. 
   0   3 -13    245.38   10.80  0. 1.0000     0. 
   0   3 -13    250.23    7.90  0. 1.0000     0. 
   0   3  13    243.80   12.08  0. 1.0000     0. 
   1  -3  13     -3.14    8.71  0. 1.0000     0. 
   1  -3  13     -3.18    3.78  0. 1.0000     0. 
  -1  -3 -13      4.66    8.30  0. 1.0000     0. 
  -1  -3 -13      3.75    4.61  0. 1.0000     0. 
  -1   3 -13      1.70    3.96  0. 1.0000     0. 
   1   3  13     -0.89    4.88  0. 1.0000     0. 
   1   3  13      5.66    8.40  0. 1.0000     0. 
  -2  -3 -13      8.95   10.52  0. 1.0000     0. 
  -2   3 -13     -3.68    4.14  0. 1.0000     0. 
   2   3  13     31.52    9.79  0. 1.0000     0. 
  -5  -4  13      3.04    6.19  0. 1.0000     0. 
   5  -4 -13      6.38    5.97  0. 1.0000     0. 
   5   4 -13     12.06    6.50  0. 1.0000     0. 
  -4  -4  13     79.59    7.37  0. 1.0000     0. 
   4  -4 -13     68.22    6.92  0. 1.0000     0. 
  -4   4  13     72.86    9.09  0. 1.0000     0. 
   4   4 -13     81.69    7.06  0. 1.0000     0. 
  -3  -4  13     32.93    7.15  0. 1.0000     0. 
   3  -4 -13     42.44    5.95  0. 1.0000     0. 
   3   4 -13     43.24    6.54  0. 1.0000     0. 
   2  -4 -13     -1.08    5.12  0. 1.0000     0. 
  -2  -4  13      5.63    6.90  0. 1.0000     0. 
  -2  -4  13      0.13    3.94  0. 1.0000     0. 
   2   4 -13     -0.47    5.41  0. 1.0000     0. 
  -2   4  13      2.56    7.68  0. 1.0000     0. 
   1  -4 -13     92.50    6.73  0. 1.0000     0. 
  -1   4  13     98.46    9.49  0. 1.0000     0. 
   1   4 -13    112.59    6.49  0. 1.0000     0. 
   0  -4  13      0.17    8.60  0. 1.0000     0. 
   0  -4 -13      9.64    5.41  0. 1.0000     0. 
   0   4 -13     15.53    5.21  0. 1.0000     0. 
   0   4  13     12.00    8.42  0. 1.0000     0. 
   5   1 -14     50.54    4.13  0. 1.0000     0. 
  -5   1  14     60.78    3.96  0. 1.0000     0. 
   4  -1 -14    495.36   13.26  0. 1.0000     0. 
  -4  -1  14    532.79   13.15  0. 1.0000     0. 
   4   1 -14    532.32   13.62  0. 1.0000     0. 
  -4   1  14    532.64   13.97  0. 1.0000     0. 
   4   1 -14    530.09   13.07  0. 1.0000     0. 
  -4   1  14    534.82   12.30  0. 1.0000     0. 
   1  -1 -14    760.99   16.58  0. 1.0000     0. 
  -1   1  14    762.06   19.84  0. 1.0000     0. 
   1   1 -14    762.23   16.72  0. 1.0000     0. 
  -1   1  14    748.30   17.45  0. 1.0000     0. 
   0  -1 -14     67.91    4.62  0. 1.0000     0. 
   0  -1  14     74.62    3.79  0. 1.0000     0. 
   0  -1 -14     67.75    7.29  0. 1.0000     0. 
   0   1  14     81.17    7.09  0. 1.0000     0. 
   0   1  14     70.18    4.73  0. 1.0000     0. 
   0   1 -14     65.90    4.20  0. 1.0000     0. 
  -1   1 -14     21.47    3.60  0. 1.0000     0. 
   1   1  14     19.48    6.68  0. 1.0000     0. 
   2   1  14    468.63   15.57  0. 1.0000     0. 
  -6   2  14    123.59    5.47  0. 1.0000     0. 
   6   2 -14    142.79    5.82  0. 1.0000     0. 
   4  -2 -14      0.93    4.01  0. 1.0000     0. 
  -4  -2  14     -0.94    4.89  0. 1.0000     0. 
   4   2 -14      1.25    4.85  0. 1.0000     0. 
  -4   2  14      1.89    3.75  0. 1.0000     0. 
   4   2 -14      2.38    5.09  0. 1.0000     0. 
  -4   2  14     -0.37    5.78  0. 1.0000     0. 
  -3  -2  14     27.98    5.90  0. 1.0000     0. 
  -3  -2  14     25.22    3.56  0. 1.0000     0. 
   3  -2 -14     24.79    4.16  0. 1.0000     0. 
  -3   2  14     22.44    3.65  0. 1.0000     0. 
   3   2 -14     18.25    4.56  0. 1.0000     0. 
   3   2 -14     22.48    5.03  0. 1.0000     0. 
  -3   2  14     23.75    6.08  0. 1.0000     0. 
  -2  -2  14     47.38    7.11  0. 1.0000     0. 
   2  -2 -14     49.42    8.90  0. 1.0000     0. 
  -2  -2  14     44.80    3.86  0. 1.0000     0. 
   2  -2 -14     38.38    4.47  0. 1.0000     0. 
   2   2 -14     53.11    5.75  0. 1.0000     0. 
  -2   2  14     35.23    4.26  0. 1.0000     0. 
  -2   2  14     48.89    7.31  0. 1.0000     0. 
   2   2 -14     38.78    4.62  0. 1.0000     0. 
  -1  -2  14     11.76    6.84  0. 1.0000     0. 
   1  -2 -14     16.51    7.60  0. 1.0000     0. 
  -1  -2  14      5.75    3.05  0. 1.0000     0. 
   1  -2 -14      9.66    3.91  0. 1.0000     0. 
   1   2 -14      8.62    4.04  0. 1.0000     0. 
  -1   2  14      7.90    6.97  0. 1.0000     0. 
   1   2 -14     -0.22    5.84  0. 1.0000     0. 
  -1   2  14      9.24    3.68  0. 1.0000     0. 
   0  -2  14      3.57    3.22  0. 1.0000     0. 
   0  -2  14      7.47    7.59  0. 1.0000     0. 
   0  -2 -14      3.62    7.66  0. 1.0000     0. 
   0  -2 -14      4.65    4.70  0. 1.0000     0. 
   0   2  14      0.17    7.46  0. 1.0000     0. 
   0   2 -14      7.54    5.49  0. 1.0000     0. 
   0   2  14      5.46    4.36  0. 1.0000     0. 
   0   2 -14      2.98    3.57  0. 1.0000     0. 
  -1   2 -14     34.82    4.44  0. 1.0000     0. 
   1   2  14     35.28    9.14  0. 1.0000     0. 
   2   2  14      1.13    8.00  0. 1.0000     0. 
  -6  -3  14     29.23    5.32  0. 1.0000     0. 
   6   3 -14     31.47    5.76  0. 1.0000     0. 
  -5  -3  14     60.16    6.41  0. 1.0000     0. 
   5   3 -14     62.59    7.14  0. 1.0000     0. 
   5   3 -14     64.92    6.36  0. 1.0000     0. 
  -4  -3  14      0.11    3.60  0. 1.0000     0. 
  -4  -3  14    -10.84    6.02  0. 1.0000     0. 
   4  -3 -14      0.79    4.76  0. 1.0000     0. 
  -4   3  14     -4.33    6.95  0. 1.0000     0. 
   4   3 -14     -5.55    5.99  0. 1.0000     0. 
   4   3 -14     -2.09    5.72  0. 1.0000     0. 
  -4   3  14      0.57    4.26  0. 1.0000     0. 
   3  -3 -14      0.77    8.66  0. 1.0000     0. 
   3  -3 -14      0.20    4.73  0. 1.0000     0. 
  -3  -3  14      1.36    3.42  0. 1.0000     0. 
  -3  -3  14      2.55    5.99  0. 1.0000     0. 
   3   3 -14      3.16    5.21  0. 1.0000     0. 
  -3   3  14      5.15    6.94  0. 1.0000     0. 
   3   3 -14     -7.21    6.11  0. 1.0000     0. 
  -3   3  14      0.10    4.29  0. 1.0000     0. 
   2  -3 -14     30.12   10.93  0. 1.0000     0. 
  -2  -3  14     20.71    4.02  0. 1.0000     0. 
   2  -3 -14      0.93    4.57  0. 1.0000     0. 
  -2  -3  14     19.73    6.79  0. 1.0000     0. 
  -2   3  14     31.33    6.97  0. 1.0000     0. 
   2   3 -14     17.80    4.97  0. 1.0000     0. 
   2   3 -14     22.68    6.82  0. 1.0000     0. 
  -2   3  14      2.70    5.14  0. 1.0000     0. 
  -1  -3  14     -1.35    3.71  0. 1.0000     0. 
  -1  -3  14      2.51    7.40  0. 1.0000     0. 
   1  -3 -14     -0.10    4.67  0. 1.0000     0. 
   1  -3 -14     -1.09    8.62  0. 1.0000     0. 
  -1   3  14     -2.89    4.39  0. 1.0000     0. 
   1   3 -14      0.10    4.45  0. 1.0000     0. 
  -1   3  14     -0.17    7.60  0. 1.0000     0. 
   1   3 -14     17.06    6.45  0. 1.0000     0. 
   0  -3 -14      0.10    5.36  0. 1.0000     0. 
   0  -3 -14     38.71    9.91  0. 1.0000     0. 
   0  -3  14     22.13    8.89  0. 1.0000     0. 
   0  -3  14     24.50    4.30  0. 1.0000     0. 
   0   3  14     30.71    8.59  0. 1.0000     0. 
   0   3  14      4.30    5.36  0. 1.0000     0. 
   0   3 -14     36.90    5.00  0. 1.0000     0. 
   0   3 -14     20.65    6.79  0. 1.0000     0. 
   1  -3  14     21.35    4.19  0. 1.0000     0. 
  -1  -3 -14     -2.63    5.53  0. 1.0000     0. 
   1  -3  14      2.06    8.90  0. 1.0000     0. 
  -1  -3 -14     24.75    9.39  0. 1.0000     0. 
  -1   3 -14     19.09    4.33  0. 1.0000     0. 
   1   3  14      5.02    5.58  0. 1.0000     0. 
   1   3  14      2.98    8.73  0. 1.0000     0. 
  -2  -3 -14     -4.90    9.48  0. 1.0000     0. 
   2   3  14      8.32    9.66  0. 1.0000     0. 
  -5  -1  15    299.89    8.57  0. 1.0000     0. 
  -5   1  15    303.78    8.38  0. 1.0000     0. 
   5   1 -15    294.26    9.01  0. 1.0000     0. 
  -4  -1  15    159.87    7.01  0. 1.0000     0. 
   4   1 -15    156.75    6.68  0. 1.0000     0. 
   4   1 -15    160.09    7.17  0. 1.0000     0. 
  -4   1  15    157.96    5.78  0. 1.0000     0. 
  -3  -1  15     60.04    5.62  0. 1.0000     0. 
  -3  -1  15     64.67    3.69  0. 1.0000     0. 
  -3   1  15     64.66    3.98  0. 1.0000     0. 
   3   1 -15     62.15    4.97  0. 1.0000     0. 
   3   1 -15     59.17    5.32  0. 1.0000     0. 
  -2  -1  15    256.36    7.36  0. 1.0000     0. 
  -2  -1  15    255.09    9.18  0. 1.0000     0. 
  -2   1  15    262.26    7.46  0. 1.0000     0. 
   2   1 -15    235.52    7.72  0. 1.0000     0. 
   2   1 -15    253.42    9.13  0. 1.0000     0. 
  -1  -1  15     96.37    7.86  0. 1.0000     0. 
  -1  -1  15    105.66    4.47  0. 1.0000     0. 
   1   1 -15    102.77    4.96  0. 1.0000     0. 
  -1   1  15    110.98    5.52  0. 1.0000     0. 
   1   1 -15     99.81    6.36  0. 1.0000     0. 
   0  -1  15      8.44    7.13  0. 1.0000     0. 
   0  -1  15      9.02    2.96  0. 1.0000     0. 
   0   1 -15      8.17    3.43  0. 1.0000     0. 
  -1   1 -15     75.50    4.30  0. 1.0000     0. 
   5  -2 -15     38.11    5.31  0. 1.0000     0. 
  -5  -2  15     34.83    5.69  0. 1.0000     0. 
   5   2 -15     48.39    5.44  0. 1.0000     0. 
   5   2 -15     43.96    6.05  0. 1.0000     0. 
  -5   2  15     40.67    4.30  0. 1.0000     0. 
  -4  -2  15    114.01    7.17  0. 1.0000     0. 
   4  -2 -15    107.11    5.91  0. 1.0000     0. 
  -4   2  15    112.10    5.30  0. 1.0000     0. 
   4   2 -15    120.57    6.56  0. 1.0000     0. 
   4   2 -15    112.87    7.13  0. 1.0000     0. 
  -4   2  15    112.18    8.09  0. 1.0000     0. 
  -3  -2  15    302.07   11.35  0. 1.0000     0. 
   3  -2 -15    304.82    9.05  0. 1.0000     0. 
  -3  -2  15    300.42    9.33  0. 1.0000     0. 
   3  -2 -15    306.60   15.06  0. 1.0000     0. 
   3   2 -15    303.40    9.67  0. 1.0000     0. 
   3   2 -15    300.40   10.35  0. 1.0000     0. 
  -3   2  15    305.57    8.56  0. 1.0000     0. 
  -3   2  15    304.20   11.07  0. 1.0000     0. 
   2  -2 -15     38.83   10.06  0. 1.0000     0. 
  -2  -2  15     21.53    3.51  0. 1.0000     0. 
   2  -2 -15     25.25    4.21  0. 1.0000     0. 
  -2  -2  15     19.30    6.49  0. 1.0000     0. 
   2   2 -15     33.31    4.81  0. 1.0000     0. 
  -2   2  15     27.49    4.46  0. 1.0000     0. 
   2   2 -15     14.65    6.16  0. 1.0000     0. 
  -2   2  15     13.90    7.24  0. 1.0000     0. 
   1  -2 -15      6.81    4.20  0. 1.0000     0. 
  -1  -2  15     10.22    3.47  0. 1.0000     0. 
   1  -2 -15     10.00    8.05  0. 1.0000     0. 
  -1  -2  15      8.00    7.35  0. 1.0000     0. 
  -1   2  15      9.25    4.22  0. 1.0000     0. 
  -1   2  15     13.19    7.79  0. 1.0000     0. 
   1   2 -15     12.71    5.44  0. 1.0000     0. 
   1   2 -15     13.17    4.41  0. 1.0000     0. 
   0  -2  15     85.51    9.76  0. 1.0000     0. 
   0  -2 -15     91.66    6.04  0. 1.0000     0. 
   0  -2 -15     97.88    9.84  0. 1.0000     0. 
   0  -2  15     85.11    4.74  0. 1.0000     0. 
   0   2  15     97.55    8.51  0. 1.0000     0. 
   0   2  15     95.92    5.90  0. 1.0000     0. 
   0   2 -15     90.55    5.18  0. 1.0000     0. 
  -1  -2 -15      7.06    9.05  0. 1.0000     0. 
   1  -2  15      4.47    3.55  0. 1.0000     0. 
   1   2  15      8.03    9.04  0. 1.0000     0. 
  -1   2 -15      2.12    4.00  0. 1.0000     0. 
   2   2  15      7.45    8.09  0. 1.0000     0. 
  -6  -3  15     41.92    5.63  0. 1.0000     0. 
   6   3 -15     52.91    6.52  0. 1.0000     0. 
  -5  -3  15      0.21    5.45  0. 1.0000     0. 
   5  -3 -15     -3.08    5.71  0. 1.0000     0. 
  -5   3  15     -2.94    7.24  0. 1.0000     0. 
   5   3 -15      1.01    6.16  0. 1.0000     0. 
   5   3 -15      4.63    5.97  0. 1.0000     0. 
  -5   3  15      1.70    4.23  0. 1.0000     0. 
  -4  -3  15      1.84    5.59  0. 1.0000     0. 
   4  -3 -15      0.82    4.75  0. 1.0000     0. 
  -4  -3  15     -2.51    3.69  0. 1.0000     0. 
  -4   3  15     -0.88    4.31  0. 1.0000     0. 
  -4   3  15      3.03    6.52  0. 1.0000     0. 
   4   3 -15    -11.98    6.30  0. 1.0000     0. 
   4   3 -15     -3.24    5.76  0. 1.0000     0. 
  -3  -3  15     34.93    4.29  0. 1.0000     0. 
  -3  -3  15     43.49    6.79  0. 1.0000     0. 
   3  -3 -15     39.25    9.99  0. 1.0000     0. 
   3   3 -15     28.03    6.52  0. 1.0000     0. 
   3   3 -15     41.19    5.62  0. 1.0000     0. 
  -3   3  15     46.35    7.65  0. 1.0000     0. 
  -2  -3  15      4.22    3.73  0. 1.0000     0. 
   2  -3 -15      8.41   10.59  0. 1.0000     0. 
  -2  -3  15     -0.93    6.65  0. 1.0000     0. 
   2  -3 -15      0.77    4.69  0. 1.0000     0. 
  -2   3  15      3.05    4.83  0. 1.0000     0. 
  -2   3  15      0.76    6.96  0. 1.0000     0. 
   2   3 -15      9.01    7.04  0. 1.0000     0. 
   2   3 -15      4.04    5.09  0. 1.0000     0. 
  -1  -3  15     40.13    8.22  0. 1.0000     0. 
   1  -3 -15     40.95   10.11  0. 1.0000     0. 
  -1  -3  15     42.20    4.71  0. 1.0000     0. 
   1   3 -15     57.91    5.39  0. 1.0000     0. 
   1   3 -15     33.29    6.82  0. 1.0000     0. 
  -1   3  15     47.96    8.79  0. 1.0000     0. 
   0  -3  15     13.45    3.92  0. 1.0000     0. 
   0  -3 -15     -0.95    5.32  0. 1.0000     0. 
   0  -3  15      7.48    8.47  0. 1.0000     0. 
   0  -3 -15     18.75    9.51  0. 1.0000     0. 
   0   3  15      0.74    5.89  0. 1.0000     0. 
   0   3 -15     10.10    6.23  0. 1.0000     0. 
   0   3  15     16.63    8.38  0. 1.0000     0. 
   0   3 -15     13.06    4.78  0. 1.0000     0. 
   1  -3  15      5.43    4.21  0. 1.0000     0. 
  -1  -3 -15      3.96    9.70  0. 1.0000     0. 
  -1  -3 -15      1.15    5.55  0. 1.0000     0. 
   1  -3  15     14.12    9.31  0. 1.0000     0. 
  -1   3 -15      5.84    4.31  0. 1.0000     0. 
   1   3  15     30.45    9.06  0. 1.0000     0. 
   2   3  15     79.74    9.72  0. 1.0000     0. 
   6   2 -16     40.43    5.49  0. 1.0000     0. 
  -6   2  16     49.57    4.52  0. 1.0000     0. 
   5  -2 -16      0.31    5.03  0. 1.0000     0. 
  -5  -2  16      0.39    5.47  0. 1.0000     0. 
   5   2 -16     -5.08    5.05  0. 1.0000     0. 
  -5   2  16     -2.23    3.92  0. 1.0000     0. 
   5   2 -16     -4.44    5.77  0. 1.0000     0. 
  -3  -2  16    621.77   15.04  0. 1.0000     0. 
   3  -2 -16    608.52   14.80  0. 1.0000     0. 
   3  -2 -16    619.38   24.40  0. 1.0000     0. 
  -3  -2  16    589.73   17.62  0. 1.0000     0. 
   3   2 -16    619.04   15.71  0. 1.0000     0. 
  -3   2  16    616.24   14.38  0. 1.0000     0. 
   3   2 -16    610.09   16.70  0. 1.0000     0. 
  -3   2  16    616.73   16.22  0. 1.0000     0. 
  -2  -2  16     -0.72    3.36  0. 1.0000     0. 
   2  -2 -16      7.62    9.25  0. 1.0000     0. 
   2  -2 -16      4.18    4.27  0. 1.0000     0. 
  -2  -2  16     -1.04    6.26  0. 1.0000     0. 
   2   2 -16     -1.52    4.71  0. 1.0000     0. 
  -2   2  16      2.14    4.43  0. 1.0000     0. 
   2   2 -16      3.88    6.62  0. 1.0000     0. 
  -2   2  16     -2.66    6.97  0. 1.0000     0. 
   0  -2 -16    303.32    9.86  0. 1.0000     0. 
   0  -2  16    296.31    9.11  0. 1.0000     0. 
   0  -2 -16    301.38   16.54  0. 1.0000     0. 
   0  -2  16    315.23   13.76  0. 1.0000     0. 
   0   2 -16    322.66    9.13  0. 1.0000     0. 
   0   2  16    317.10   12.74  0. 1.0000     0. 
   0   2  16    291.73    9.54  0. 1.0000     0. 
   0   2 -16    296.77   12.07  0. 1.0000     0. 
  -1  -2 -16      1.96    4.61  0. 1.0000     0. 
  -1  -2 -16      8.21   10.97  0. 1.0000     0. 
  -1   2 -16      3.26    4.13  0. 1.0000     0. 
   1   2  16     -8.31    8.33  0. 1.0000     0. 
   2   2  16      2.75    9.19  0. 1.0000     0. 
  -6  -3  16     78.91    6.37  0. 1.0000     0. 
   6   3 -16     73.45    6.99  0. 1.0000     0. 
  -5  -3  16     23.19    5.98  0. 1.0000     0. 
   5   3 -16     14.72    6.48  0. 1.0000     0. 
   5   3 -16     10.87    6.56  0. 1.0000     0. 
  -5   3  16     14.73    7.75  0. 1.0000     0. 
   4  -3 -16     85.40   11.00  0. 1.0000     0. 
  -4  -3  16     76.32    5.43  0. 1.0000     0. 
  -4  -3  16     74.96    7.20  0. 1.0000     0. 
  -4   3  16     76.15    8.25  0. 1.0000     0. 
   4   3 -16     65.61    7.12  0. 1.0000     0. 
   4   3 -16     73.88    7.55  0. 1.0000     0. 
   3  -3 -16      6.27   10.05  0. 1.0000     0. 
  -3  -3  16     10.42    6.52  0. 1.0000     0. 
   3  -3 -16      0.11    5.27  0. 1.0000     0. 
  -3  -3  16      2.85    3.98  0. 1.0000     0. 
   3   3 -16      2.30    6.69  0. 1.0000     0. 
  -3   3  16     11.53    7.67  0. 1.0000     0. 
  -3   3  16     -1.80    4.59  0. 1.0000     0. 
   3   3 -16     -7.98    5.51  0. 1.0000     0. 
   2  -3 -16    183.72   14.08  0. 1.0000     0. 
  -2  -3  16    175.68   10.51  0. 1.0000     0. 
  -2  -3  16    177.54    7.06  0. 1.0000     0. 
   2   3 -16    169.40    8.10  0. 1.0000     0. 
   2   3 -16    167.39   10.58  0. 1.0000     0. 
  -2   3  16    184.58   10.33  0. 1.0000     0. 
   1  -3 -16     58.56   10.23  0. 1.0000     0. 
  -1  -3  16     38.10    8.29  0. 1.0000     0. 
  -1  -3  16     55.61    4.93  0. 1.0000     0. 
   1   3 -16     70.41    5.48  0. 1.0000     0. 
   1   3 -16     73.86    7.95  0. 1.0000     0. 
  -1   3  16     59.25    9.46  0. 1.0000     0. 
   0  -3  16     11.99    8.31  0. 1.0000     0. 
   0  -3  16      1.31    3.52  0. 1.0000     0. 
   0  -3 -16      9.73    9.00  0. 1.0000     0. 
   0   3 -16     11.86    6.56  0. 1.0000     0. 
   0   3  16     32.18    9.06  0. 1.0000     0. 
   0   3 -16      8.15    4.74  0. 1.0000     0. 
   1  -3  16     66.49   11.15  0. 1.0000     0. 
   1  -3  16     80.05    5.49  0. 1.0000     0. 
  -1  -3 -16     93.11   12.79  0. 1.0000     0. 
   1   3  16     83.81    9.65  0. 1.0000     0. 
  -1   3 -16     82.70    5.37  0. 1.0000     0. 
  -2  -3 -16     -3.96    5.21  0. 1.0000     0. 
   2   3  16     16.20    8.63  0. 1.0000     0. 
  -6  -2  17      3.12    4.61  0. 1.0000     0. 
  -6   2  17      4.37    4.29  0. 1.0000     0. 
   6   2 -17      5.13    5.50  0. 1.0000     0. 
  -5  -2  17     81.48    7.08  0. 1.0000     0. 
   5  -2 -17     87.40    6.66  0. 1.0000     0. 
   5   2 -17     69.11    7.41  0. 1.0000     0. 
   5   2 -17     73.41    6.51  0. 1.0000     0. 
  -5   2  17     76.35    5.40  0. 1.0000     0. 
  -4  -2  17     39.61    4.07  0. 1.0000     0. 
  -4  -2  17     41.00    6.36  0. 1.0000     0. 
   4  -2 -17     40.21    5.30  0. 1.0000     0. 
   4  -2 -17     49.29    9.59  0. 1.0000     0. 
   4   2 -17     43.64    6.38  0. 1.0000     0. 
  -4   2  17     48.85    7.31  0. 1.0000     0. 
  -4   2  17     40.79    4.76  0. 1.0000     0. 
   4   2 -17     55.54    6.51  0. 1.0000     0. 
  -3  -2  17     91.66    7.49  0. 1.0000     0. 
  -3  -2  17     89.77    5.19  0. 1.0000     0. 
   3  -2 -17     97.45    5.83  0. 1.0000     0. 
   3  -2 -17     89.99   11.21  0. 1.0000     0. 
  -3   2  17     93.86    8.21  0. 1.0000     0. 
  -3   2  17     88.47    5.77  0. 1.0000     0. 
   3   2 -17     87.84    7.39  0. 1.0000     0. 
   3   2 -17     90.37    6.47  0. 1.0000     0. 
  -2  -2  17     20.70    7.00  0. 1.0000     0. 
   2  -2 -17     32.34    4.70  0. 1.0000     0. 
  -2  -2  17     29.01    3.95  0. 1.0000     0. 
   2  -2 -17     22.76    8.93  0. 1.0000     0. 
   2   2 -17     34.30    4.98  0. 1.0000     0. 
  -2   2  17     35.08    7.54  0. 1.0000     0. 
  -2   2  17     35.71    4.42  0. 1.0000     0. 
   2   2 -17     37.26    7.21  0. 1.0000     0. 
   1  -2 -17      0.09    4.57  0. 1.0000     0. 
  -1  -2  17     -4.19    8.51  0. 1.0000     0. 
  -1  -2  17      1.02    3.84  0. 1.0000     0. 
   1  -2 -17      3.74    8.95  0. 1.0000     0. 
   1   2 -17      7.09    6.25  0. 1.0000     0. 
   1   2 -17      4.72    4.69  0. 1.0000     0. 
  -1   2  17     -5.64    8.39  0. 1.0000     0. 
  -1   2  17      0.43    4.86  0. 1.0000     0. 
   0  -2 -17    467.52   21.45  0. 1.0000     0. 
   0  -2  17    455.41   17.92  0. 1.0000     0. 
   0  -2  17    463.52   12.32  0. 1.0000     0. 
   0  -2 -17    438.79   13.77  0. 1.0000     0. 
   0   2  17    489.53   15.60  0. 1.0000     0. 
   0   2 -17    471.05   12.42  0. 1.0000     0. 
   0   2  17    463.02   13.76  0. 1.0000     0. 
  -1  -2 -17     57.78    6.14  0. 1.0000     0. 
  -1   2 -17     70.92    5.18  0. 1.0000     0. 
   1   2  17     79.67    9.00  0. 1.0000     0. 
  -6   3  17      6.88    5.13  0. 1.0000     0. 
   6   3 -17      0.21    5.19  0. 1.0000     0. 
  -5  -3  17     32.92    6.52  0. 1.0000     0. 
   5  -3 -17     -1.79    6.38  0. 1.0000     0. 
  -5  -3  17     10.82    4.26  0. 1.0000     0. 
   5   3 -17     19.19    6.67  0. 1.0000     0. 
  -5   3  17     28.66    8.02  0. 1.0000     0. 
   5   3 -17     25.43    6.79  0. 1.0000     0. 
  -5   3  17      2.55    5.12  0. 1.0000     0. 
   4  -3 -17     54.78   11.06  0. 1.0000     0. 
  -4  -3  17     51.45    6.86  0. 1.0000     0. 
  -4  -3  17     42.41    4.65  0. 1.0000     0. 
   4   3 -17     43.44    6.99  0. 1.0000     0. 
  -4   3  17     62.23    7.96  0. 1.0000     0. 
   4   3 -17     66.17    7.93  0. 1.0000     0. 
  -3  -3  17      3.27    4.05  0. 1.0000     0. 
  -3  -3  17      6.06    6.47  0. 1.0000     0. 
   3  -3 -17      1.23    5.41  0. 1.0000     0. 
   3  -3 -17     -0.26   11.27  0. 1.0000     0. 
  -3   3  17     -0.89    5.15  0. 1.0000     0. 
  -3   3  17     -0.99    7.71  0. 1.0000     0. 
   3   3 -17      1.19    5.85  0. 1.0000     0. 
   3   3 -17      3.05    7.08  0. 1.0000     0. 
   2  -3 -17     57.22   10.72  0. 1.0000     0. 
  -2  -3  17     58.71    8.58  0. 1.0000     0. 
  -2  -3  17     57.06    4.92  0. 1.0000     0. 
   2   3 -17     43.37    8.05  0. 1.0000     0. 
  -2   3  17     59.32    8.78  0. 1.0000     0. 
   2   3 -17     64.04    6.14  0. 1.0000     0. 
   1  -3 -17     64.08   11.04  0. 1.0000     0. 
  -1  -3  17     56.52    8.81  0. 1.0000     0. 
  -1  -3  17     52.39    5.18  0. 1.0000     0. 
  -1   3  17     47.77    9.49  0. 1.0000     0. 
   1   3 -17     54.92    7.78  0. 1.0000     0. 
   1   3 -17     47.87    5.47  0. 1.0000     0. 
   0  -3  17     12.46    4.25  0. 1.0000     0. 
   0  -3 -17     -0.10    5.31  0. 1.0000     0. 
   0  -3  17     13.57    9.24  0. 1.0000     0. 
   0  -3 -17     21.18    9.52  0. 1.0000     0. 
   0   3  17     -1.69    6.21  0. 1.0000     0. 
   0   3  17     22.19    9.17  0. 1.0000     0. 
   0   3 -17     18.68    5.06  0. 1.0000     0. 
   1  -3  17      8.24    9.24  0. 1.0000     0. 
  -1  -3 -17      2.34    5.82  0. 1.0000     0. 
   1   3  17      4.98    8.83  0. 1.0000     0. 
  -1   3 -17     11.97    4.83  0. 1.0000     0. 
   7   2 -18     12.94    5.07  0. 1.0000     0. 
  -6  -2  18     96.21    6.60  0. 1.0000     0. 
   6   2 -18     94.28    6.82  0. 1.0000     0. 
  -5  -2  18      0.85    3.77  0. 1.0000     0. 
  -5  -2  18     -1.36    5.89  0. 1.0000     0. 
   5   2 -18     -2.23    5.90  0. 1.0000     0. 
  -5   2  18      1.43    4.37  0. 1.0000     0. 
   5   2 -18      1.16    6.46  0. 1.0000     0. 
  -4  -2  18     -1.53    3.32  0. 1.0000     0. 
  -4  -2  18     -4.45    6.12  0. 1.0000     0. 
  -4   2  18     -0.66    4.33  0. 1.0000     0. 
   4   2 -18      6.30    6.31  0. 1.0000     0. 
   4   2 -18      5.24    6.10  0. 1.0000     0. 
  -3  -2  18     -1.07    3.56  0. 1.0000     0. 
  -3  -2  18     -3.00    6.14  0. 1.0000     0. 
   3   2 -18     -1.44    5.48  0. 1.0000     0. 
  -3   2  18     -0.21    5.01  0. 1.0000     0. 
   3   2 -18      3.70    6.44  0. 1.0000     0. 
  -2  -2  18      2.79    7.04  0. 1.0000     0. 
  -2  -2  18      1.21    3.72  0. 1.0000     0. 
   2   2 -18      4.61    5.39  0. 1.0000     0. 
   2   2 -18      5.80    6.05  0. 1.0000     0. 
  -2   2  18      2.98    4.49  0. 1.0000     0. 
  -1  -2  18      9.23    7.77  0. 1.0000     0. 
  -1  -2  18      1.91    3.88  0. 1.0000     0. 
   1   2 -18      4.27    5.75  0. 1.0000     0. 
  -1   2  18      8.18    5.61  0. 1.0000     0. 
   1   2 -18      2.43    4.85  0. 1.0000     0. 
   0  -2  18     27.74    9.98  0. 1.0000     0. 
   0  -2  18     19.88    4.38  0. 1.0000     0. 
   0   2 -18     35.57    5.37  0. 1.0000     0. 
   1  -2  18     -2.04    9.17  0. 1.0000     0. 
  -1   2 -18      5.48    4.39  0. 1.0000     0. 
  -5  -3  18      0.78    6.29  0. 1.0000     0. 
   5  -3 -18      0.12    6.09  0. 1.0000     0. 
  -5   3  18     -0.83    8.06  0. 1.0000     0. 
   5   3 -18      4.16    6.77  0. 1.0000     0. 
  -4  -3  18     18.09    6.68  0. 1.0000     0. 
  -4  -3  18      3.57    3.33  0. 1.0000     0. 
   4  -3 -18     -0.55    5.87  0. 1.0000     0. 
   4  -3 -18     26.90   11.13  0. 1.0000     0. 
  -4   3  18     17.96    7.85  0. 1.0000     0. 
   4   3 -18     25.74    6.70  0. 1.0000     0. 
  -3  -3  18     33.51    6.97  0. 1.0000     0. 
   3  -3 -18     37.12   12.34  0. 1.0000     0. 
   3   3 -18     21.19    6.29  0. 1.0000     0. 
  -3   3  18     32.20    8.71  0. 1.0000     0. 
   2  -3 -18      3.74    5.39  0. 1.0000     0. 
  -2  -3  18     14.59    7.59  0. 1.0000     0. 
   2  -3 -18     12.35   10.46  0. 1.0000     0. 
   2   3 -18      9.86    6.38  0. 1.0000     0. 
  -2   3  18      0.32    5.01  0. 1.0000     0. 
  -2   3  18     15.49    8.46  0. 1.0000     0. 
   2   3 -18     10.72    5.74  0. 1.0000     0. 
  -1  -3  18      5.71    8.40  0. 1.0000     0. 
   1  -3 -18      0.62    5.22  0. 1.0000     0. 
  -1   3  18     10.14    8.90  0. 1.0000     0. 
   1   3 -18      7.75    5.31  0. 1.0000     0. 
   0  -3  18     -2.58    9.68  0. 1.0000     0. 
   0  -3 -18      3.75    5.63  0. 1.0000     0. 
   0   3 -18      7.62    5.17  0. 1.0000     0. 
   0   3  18     -5.09    9.12  0. 1.0000     0. 
   3  -3 -19     -0.45    6.27  0. 1.0000     0. 
  -3   3  19     52.51    9.35  0. 1.0000     0. 
-512 
#   2346 reflections output 
;
loop_
_symmetry_equiv_pos_as_xyz
x,y,z
-x,-y,-z
-x,y+1/2,-z+1/2
x,-y+1/2,z+1/2
loop_
_atom_site_label
_atom_site_type_symbol
_atom_site_fract_x
_atom_site_fract_y
_atom_site_fract_z
_atom_site_U_iso_or_equiv
_atom_site_occupancy
_atom_site_adp_type
_atom_site_refinement_flags_posn
_atom_site_refinement_flags_adp
_atom_site_refinement_flags_occupancy
_atom_site_disorder_assembly
_atom_site_disorder_group
_atom_site_attached_hydrogens
S1 S 0.4411(4) 0.2964(5) 0.33843(12) 0.0333 1.0000 Uani D U . . . .
N2 N 0.3146(8) 0.1836(13) 0.2400(3) 0.0370 1.0000 Uani D U . . . .
S3 S 0.1459(4) 0.0671(4) 0.24949(10) 0.0305 1.0000 Uani D U . . . .
C4 C 0.1773(8) 0.1214(12) 0.3714(3) 0.0244 1.0000 Uani D U . . . .
C5 C 0.3268(7) 0.2436(13) 0.4160(3) 0.0249 1.0000 Uani D U . . . .
N6 N 0.3529(8) 0.2949(11) 0.5084(3) 0.0273 1.0000 Uani D U . . . .
S7 S 0.1944(4) 0.1823(4) 0.53651(10) 0.0270 1.0000 Uani D U . . . .
N8 N 0.0901(8) 0.0726(12) 0.4297(3) 0.0257 1.0000 Uani D U . . . .
loop_
_atom_site_aniso_label
_atom_site_aniso_U_11
_atom_site_aniso_U_22
_atom_site_aniso_U_33
_atom_site_aniso_U_23
_atom_site_aniso_U_13
_atom_site_aniso_U_12
S1 0.032(4) 0.0472(8) 0.0240(8) 0.0116(6) 0.0139(14) 0.0108(12)
N2 0.053(5) 0.040(2) 0.0213(18) 0.0028(18) 0.016(2) -0.006(4)
S3 0.044(4) 0.0344(6) 0.0145(6) 0.0016(5) 0.0091(12) 0.0038(10)
C4 0.034(5) 0.025(2) 0.0151(15) 0.0033(15) 0.008(2) 0.001(3)
C5 0.027(5) 0.031(2) 0.0182(18) 0.0034(17) 0.008(2) 0.009(4)
N6 0.034(5) 0.0303(19) 0.0185(17) 0.0021(15) 0.009(3) -0.001(3)
S7 0.035(5) 0.0320(6) 0.0151(6) -0.0003(4) 0.0091(14) -0.0006(10)
N8 0.033(5) 0.0287(18) 0.0172(16) -0.0012(14) 0.009(2) -0.001(3)
loop_
_atom_type_symbol
_atom_type_scat_dispersion_real
_atom_type_scat_dispersion_imag
_atom_type_scat_Cromer_Mann_a1
_atom_type_scat_Cromer_Mann_b1
_atom_type_scat_Cromer_Mann_a2
_atom_type_scat_Cromer_Mann_b2
_atom_type_scat_Cromer_Mann_a3
_atom_type_scat_Cromer_Mann_b3
_atom_type_scat_Cromer_Mann_a4
_atom_type_scat_Cromer_Mann_b4
_atom_type_scat_Cromer_Mann_c
_atom_type_scat_source
C 0.0006 0.0007 2.3100 20.8439 1.0200 10.2075 1.5886 0.5687 0.8650 51.6512
0.2156 'International Tables Vol C 4.2.6.8 and 6.1.1.4'
N 0.0016 0.0014 12.2126 0.0057 3.1322 9.8933 2.0125 28.9975 1.1663 0.5826
-11.5290 'International Tables Vol C 4.2.6.8 and 6.1.1.4'
S 0.0630 0.0572 6.9053 1.4679 5.2034 22.2151 1.4379 0.2536 1.5863 56.1720
0.8669 'International Tables Vol C 4.2.6.8 and 6.1.1.4'
loop_
_geom_angle_atom_site_label_1
_geom_angle_site_symmetry_1
_geom_angle_atom_site_label_2
_geom_angle_site_symmetry_2
_geom_angle_atom_site_label_3
_geom_angle_site_symmetry_3
_geom_angle
_geom_angle_publ_flag
N2 . S1 . C5 . 97.4(3) yes
S1 . N2 . S3 . 117.4(3) yes
N2 . S3 . C4 . 98.1(3) yes
S3 . C4 . C5 . 113.0(4) yes
S3 . C4 . N8 . 132.3(4) yes
C5 . C4 . N8 . 114.7(4) yes
C4 . C5 . S1 . 114.0(3) yes
C4 . C5 . N6 . 114.2(4) yes
S1 . C5 . N6 . 131.8(4) yes
C5 . N6 . S7 . 106.0(4) yes
N6 . S7 . N8 . 99.2(3) yes
C4 . N8 . S7 . 105.9(4) yes
loop_
_geom_bond_atom_site_label_1
_geom_bond_site_symmetry_1
_geom_bond_atom_site_label_2
_geom_bond_site_symmetry_2
_geom_bond_distance
_geom_bond_publ_flag
S1 . N2 . 1.654(6) yes
S1 . C5 . 1.739(5) yes
N2 . S3 . 1.646(7) yes
S3 . C4 . 1.739(4) yes
C4 . C5 . 1.433(7) yes
C4 . N8 . 1.320(6) yes
C5 . N6 . 1.322(5) yes
N6 . S7 . 1.660(7) yes
S7 . N8 . 1.657(5) yes
loop_
_oxford_refln_omitted_index_h
_oxford_refln_omitted_index_k
_oxford_refln_omitted_index_l
_oxford_refln_omitted_flag
_oxford_refln_omitted_details
-4 1 7 x .
-5 2 8 x .
-5 1 10 x .
3 3 6 x .
2 2 12 x .
