#------------------------------------------------------------------------------
#$Date: 2021-07-05 20:10:48 +0300 (Mon, 05 Jul 2021) $
#$Revision: 267123 $
#$URL: file:///home/coder/svn-repositories/cod/cif/7/24/28/7242881.cif $
#------------------------------------------------------------------------------
#
# This file is available in the Crystallography Open Database (COD),
# http://www.crystallography.net/
#
# All data on this site have been placed in the public domain by the
# contributors.
#
data_7242881
loop_
_publ_author_name
'Richardson, Jonathan G.'
'Mizuno, Asato'
'Shuku, Yoshiaki'
'Awaga, Kunio'
'Robertson, Neil'
'Morrison, Carole A.'
'Warren, Mark R.'
'Allan, David R.'
'Moggach, Stephen A.'
_publ_section_title
;
 Evaluating the high-pressure structural response and crystal lattice
 interactions of the magnetically-bistable organic radical TTTA
;
_journal_issue                   25
_journal_name_full               CrystEngComm
_journal_page_first              4444
_journal_page_last               4450
_journal_paper_doi               10.1039/D1CE00577D
_journal_volume                  23
_journal_year                    2021
_chemical_formula_moiety         'C2 N3 S3'
_chemical_formula_sum            'C2 N3 S3'
_chemical_formula_weight         162.24
_space_group_IT_number           14
_space_group_name_Hall           '-P 2ybc'
_space_group_name_H-M_alt        'P 1 21/c 1'
_symmetry_cell_setting           monoclinic
_symmetry_space_group_name_Hall  '-P 2ybc'
_symmetry_space_group_name_H-M   'P 1 21/c 1'
_atom_sites_solution_hydrogens   difmap
_atom_sites_solution_primary     direct
_audit_creation_date             2021-04-22
_audit_creation_method           CRYSTALS_ver_14.61_build_6999
_audit_update_record
;
2021-04-27 deposited with the CCDC.	2021-05-18 downloaded from the CCDC.
;
_cell_angle_alpha                90
_cell_angle_beta                 104.31(6)
_cell_angle_gamma                90
_cell_formula_units_Z            4
_cell_length_a                   9.323(11)
_cell_length_b                   3.4191(4)
_cell_length_c                   14.678(3)
_cell_measurement_reflns_used    792
_cell_measurement_temperature    293
_cell_measurement_theta_max      19
_cell_measurement_theta_min      3
_cell_volume                     453.4(6)
_computing_cell_refinement       'USER DEFINED CELL REFINEMENT'
_computing_data_collection       'USER DEFINED DATA COLLECTION'
_computing_data_reduction
; 
 CrysAlisPro (Rigaku Oxford Diffraction, 2017) 
;
_computing_molecular_graphics    'CAMERON (Watkin et al., 1996)'
_computing_publication_material  'CRYSTALS (Betteridge et al., 2003)'
_computing_structure_refinement  'CRYSTALS (Betteridge et al., 2003)'
_computing_structure_solution    'SHELXS 86 (Sheldrick, 1986)'
_diffrn_ambient_pressure         1760000
_diffrn_ambient_temperature      293
_diffrn_measured_fraction_theta_full 0.314
_diffrn_measured_fraction_theta_max 0.310
_diffrn_measurement_device       Area
_diffrn_measurement_device_type  Synchrotron
_diffrn_measurement_method       \w
_diffrn_radiation_monochromator  'focussing mirrors'
_diffrn_radiation_type           synchrotron
_diffrn_radiation_wavelength     0.48590
_diffrn_reflns_av_R_equivalents  0.018
_diffrn_reflns_av_unetI/netI     0.027
_diffrn_reflns_limit_h_max       6
_diffrn_reflns_limit_h_min       -6
_diffrn_reflns_limit_k_max       4
_diffrn_reflns_limit_k_min       -4
_diffrn_reflns_limit_l_max       17
_diffrn_reflns_limit_l_min       -17
_diffrn_reflns_number            1699
_diffrn_reflns_theta_full        17.980
_diffrn_reflns_theta_max         18.729
_diffrn_reflns_theta_min         3.839
_diffrn_standards_number         0
_exptl_absorpt_coefficient_mu    0.498
_exptl_absorpt_correction_T_max  0.95
_exptl_absorpt_correction_T_min  0.84
_exptl_absorpt_correction_type   multi-scan
_exptl_absorpt_process_details   'DENZO/SCALEPACK (Otwinowski & Minor, 1997)'
_exptl_crystal_colour            black
_exptl_crystal_density_diffrn    2.377
_exptl_crystal_density_meas      ?
_exptl_crystal_density_method    'not measured'
_exptl_crystal_description       block
_exptl_crystal_F_000             324
_exptl_crystal_size_max          0.120
_exptl_crystal_size_mid          0.100
_exptl_crystal_size_min          0.100
_refine_diff_density_max         0.25
_refine_diff_density_min         -0.21
_refine_ls_extinction_method     None
_refine_ls_goodness_of_fit_ref   1.0008
_refine_ls_hydrogen_treatment    noref
_refine_ls_matrix_type           full
_refine_ls_number_parameters     73
_refine_ls_number_reflns         338
_refine_ls_number_restraints     104
_refine_ls_R_factor_all          0.0458
_refine_ls_R_factor_gt           0.0359
_refine_ls_shift/su_max          0.0001715
_refine_ls_shift/su_mean         0.0000116
_refine_ls_structure_factor_coef Fsqd
_refine_ls_weighting_details
;
 Method= Modified Sheldrick 
 w=1/[\s^2^(F^2^) + ( 0.00P)^2^ + 1.51P] 
 ,where P=(max(Fo^2^,0) + 2Fc^2^)/3 
;
_refine_ls_weighting_scheme      calc
_refine_ls_wR_factor_all         0.1147
_refine_ls_wR_factor_gt          0.1103
_refine_ls_wR_factor_ref         0.0571
_reflns_limit_h_max              4
_reflns_limit_h_min              -6
_reflns_limit_k_max              4
_reflns_limit_k_min              0
_reflns_limit_l_max              17
_reflns_limit_l_min              0
_reflns_number_gt                272
_reflns_number_total             343
_reflns_threshold_expression     I>2.0\s(I)
_oxford_diffrn_Wilson_B_factor   0.00
_oxford_diffrn_Wilson_scale      0.00
_oxford_refine_ls_r_factor_ref   0.0367
_oxford_refine_ls_scale          0.747(3)
_oxford_reflns_number_all        343
_iucr_refine_instructions_details
;
#
# Punched on 22/04/21 at 21:00:40
#
#LIST     12                                                                    
BLOCK SCALE X'S  U'S 
END                                                                             
#
# Punched on 22/04/21 at 21:00:40
#
#LIST     16                                                                    
DIST   1.659,.01= S(1) TO N(2) 
DIST   1.734,.01= S(1) TO C(5) 
DIST   1.656,.01= N(2) TO S(3) 
DIST   1.735,.01= S(3) TO C(4) 
DIST   1.430,.01= C(4) TO C(5) 
DIST   1.313,.01= C(4) TO N(8) 
DIST   1.318,.01= C(5) TO N(6) 
DIST   1.645,.01= N(6) TO S(7) 
DIST   1.646,.01= S(7) TO N(8) 
ANGL  98,1= C(5) TO S(1) TO N(2) 
ANGL 117,1= S(3) TO N(2) TO S(1) 
ANGL  98,1= C(4) TO S(3) TO N(2) 
ANGL 114,1= C(5) TO C(4) TO S(3) 
ANGL 132,1= N(8) TO C(4) TO S(3) 
ANGL 114,1= N(8) TO C(4) TO C(5) 
ANGL 114,1= C(4) TO C(5) TO S(1) 
ANGL 132,1= N(6) TO C(5) TO S(1) 
ANGL 114,1= N(6) TO C(5) TO C(4) 
ANGL 106,1= S(7) TO N(6) TO C(5) 
ANGL  99,1= N(8) TO S(7) TO N(6) 
ANGL 106,1= S(7) TO N(8) TO C(4) 
REM   HREST   START (DO NOT REMOVE THIS LINE) 
REM   HREST   END (DO NOT REMOVE THIS LINE) 
PLANAR 0.01 N(2) S(1) S(3) C(4) C(5) N(6) S(7) N(8) 
REM   DELU   START (DO NOT REMOVE THIS LINE) 
VIBR .0, 0.00200 = S(1) TO N(2) 
VIBR .0, 0.00200 = S(1) TO C(5) 
VIBR .0, 0.00500 = C(5) TO N(2) 
VIBR .0, 0.00200 = N(2) TO S(3) 
VIBR .0, 0.00500 = S(3) TO S(1) 
VIBR .0, 0.00200 = S(3) TO C(4) 
VIBR .0, 0.00500 = C(4) TO N(2) 
VIBR .0, 0.00200 = C(4) TO C(5) 
VIBR .0, 0.00200 = C(4) TO N(8) 
VIBR .0, 0.00500 = C(5) TO S(3) 
VIBR .0, 0.00500 = N(8) TO S(3) 
VIBR .0, 0.00500 = N(8) TO C(5) 
VIBR .0, 0.00200 = C(5) TO N(6) 
VIBR .0, 0.00500 = S(1) TO C(4) 
VIBR .0, 0.00500 = N(6) TO C(4) 
VIBR .0, 0.00500 = N(6) TO S(1) 
VIBR .0, 0.00200 = N(6) TO S(7) 
VIBR .0, 0.00500 = S(7) TO C(5) 
VIBR .0, 0.00200 = S(7) TO N(8) 
VIBR .0, 0.00500 = N(8) TO N(6) 
VIBR .0, 0.00500 = S(7) TO C(4) 
REM   DELU   END (DO NOT REMOVE THIS LINE) 
REM   THERMSIM   START (DO NOT REMOVE THIS LINE) 
U(IJ) .0, 0.04000 = S(1) TO N(2) 
U(IJ) .0, 0.04000 = S(1) TO C(5) 
U(IJ) .0, 0.04000 = N(2) TO S(3) 
U(IJ) .0, 0.04000 = S(3) TO C(4) 
U(IJ) .0, 0.04000 = C(4) TO C(5) 
U(IJ) .0, 0.04000 = C(4) TO N(8) 
U(IJ) .0, 0.04000 = C(5) TO N(6) 
U(IJ) .0, 0.04000 = N(6) TO S(7) 
U(IJ) .0, 0.04000 = S(7) TO N(8) 
REM   THERMSIM   END (DO NOT REMOVE THIS LINE) 
END                                                                             
;
_cod_data_source_file            d1ce00577d2.cif
_cod_data_source_block           176GPa
_cod_depositor_comments
;
The following automatic conversions were performed:

data item '_exptl_crystal_density_meas' value 'not measured' was
changed to '?' -- the value is perceived as not measured.

Automatic conversion script
Id: cif_fix_values 7556 2019-12-06 15:28:31Z antanas 

 Adding full bibliography for 7242874--7242883.cif.
;
_cod_original_cell_volume        453.3(5)
_cod_original_sg_symbol_H-M      'P 1 21/c 1 '
_cod_database_code               7242881
_oxford_refine_reflns_threshold_expression_ref I>-3.0\s(I)
_iucr_refine_reflections_details
; 
 
# Data was input as F-squared 
# punching LIST  6 as LIST  6 with all keys set 
# NBGNXT=    36 
#LIST   6 
READ NCOEF= 8 TYPE=FIX, F'S = FSQ UNIT=DATA, CHECK=NO L30=NO ARCH=NO 
STORE  NCOEF= 6 
OUTPUT INDICES     /FO/        SIGMA(/FO/) RATIO/JCODE CORRECTIONS SERIAL 
CONT 
INPUT  H           K           L           /FO/        SIGMA(/FO/) JCODE 
CONT   CORRECTIONS SERIAL 
FOR (I4,I4,I4,F10.2,F8.2,F4.0,F7.4,F7.0) 
END 
   0  -1   0      0.48    0.61  0. 1.0000     0. 
   0  -1   0      0.37    0.56  0. 1.0000     0. 
   0   1   0      0.37    0.32  0. 1.0000     0. 
   0   1   0      0.71    0.59  0. 1.0000     0. 
   0   1   0      0.99    0.45  0. 1.0000     0. 
   0   1   0      0.77    0.62  0. 1.0000     0. 
   1  -1   0   9999.99  132.70  0. 1.0000     0. 
  -1  -1   0   9523.27  165.84  0. 1.0000     0. 
  -1  -1   0   9741.00  146.16  0. 1.0000     0. 
   1  -1   0   9754.64  188.21  0. 1.0000     0. 
   1   1   0   9713.48  157.40  0. 1.0000     0. 
   1   1   0   9811.89  175.78  0. 1.0000     0. 
   1   1   0   9718.96  164.40  0. 1.0000     0. 
  -1   1   0   9585.24  187.34  0. 1.0000     0. 
   1   1   0   9829.33  153.01  0. 1.0000     0. 
   0   2   0    841.63   18.19  0. 1.0000     0. 
   0   2   0    852.30   14.63  0. 1.0000     0. 
   1  -2   0    890.50   14.94  0. 1.0000     0. 
   1   2   0    922.31   17.24  0. 1.0000     0. 
   1   2   0    943.18   16.39  0. 1.0000     0. 
  -1   2   0    939.93   16.96  0. 1.0000     0. 
  -1   2   0    917.05   21.77  0. 1.0000     0. 
  -1   2   0    945.72   16.09  0. 1.0000     0. 
   1   2   0    972.50   19.06  0. 1.0000     0. 
   0  -3   0     -0.66    2.82  0. 1.0000     0. 
   0  -3   0      1.45    2.07  0. 1.0000     0. 
   0  -3   0     -1.46    2.26  0. 1.0000     0. 
   0  -3   0     -1.86    1.87  0. 1.0000     0. 
   0   3   0     -0.12    2.14  0. 1.0000     0. 
   0   3   0     -1.83    1.50  0. 1.0000     0. 
   0   3   0     -0.10    2.88  0. 1.0000     0. 
   0   3   0     -2.29    2.01  0. 1.0000     0. 
   1  -3   0      1.05    2.89  0. 1.0000     0. 
  -1  -3   0     -0.17    2.07  0. 1.0000     0. 
   3   3   0      8.00    2.99  0. 1.0000     0. 
  -3   3   0      3.51    1.44  0. 1.0000     0. 
  -3   3   0      3.14    1.94  0. 1.0000     0. 
   3   3   0      7.60    3.51  0. 1.0000     0. 
  -1  -1   1     67.89    1.52  0. 1.0000     0. 
  -1  -1   1     68.24    1.90  0. 1.0000     0. 
   1  -1  -1     65.55    1.89  0. 1.0000     0. 
   1  -1  -1     70.36    2.33  0. 1.0000     0. 
   1   1  -1     69.42    1.56  0. 1.0000     0. 
   1   1  -1     69.39    2.27  0. 1.0000     0. 
   1   1  -1     68.34    1.97  0. 1.0000     0. 
  -1   1   1     67.45    1.93  0. 1.0000     0. 
  -1   1   1     69.76    1.69  0. 1.0000     0. 
   1   1  -1     68.91    1.72  0. 1.0000     0. 
   0  -1  -1    516.68   11.11  0. 1.0000     0. 
   0  -1  -1    512.67    9.38  0. 1.0000     0. 
   0  -1   1    520.41   10.78  0. 1.0000     0. 
   0   1  -1    506.68    9.12  0. 1.0000     0. 
   0   1  -1    519.13   10.65  0. 1.0000     0. 
   0   1  -1    510.12    8.45  0. 1.0000     0. 
   0   1   1    510.49    8.30  0. 1.0000     0. 
   0   1  -1    498.99    8.64  0. 1.0000     0. 
   0   1   1    501.56    8.90  0. 1.0000     0. 
   0   1   1    512.03    9.45  0. 1.0000     0. 
   0   1   1    506.75   10.14  0. 1.0000     0. 
   1  -1   1   3286.58   45.24  0. 1.0000     0. 
  -1  -1  -1   3247.17   49.27  0. 1.0000     0. 
   1   1   1   3166.75   55.17  0. 1.0000     0. 
   1   1   1   3243.29   58.83  0. 1.0000     0. 
   1   1   1   3172.12   52.40  0. 1.0000     0. 
  -1  -2   1   1300.77   23.71  0. 1.0000     0. 
   1  -2  -1   1280.75   28.83  0. 1.0000     0. 
   1  -2  -1   1295.27   17.77  0. 1.0000     0. 
   1   2  -1   1280.74   25.90  0. 1.0000     0. 
  -1   2   1   1261.59   21.81  0. 1.0000     0. 
   1   2  -1   1258.57   21.81  0. 1.0000     0. 
   1   2  -1   1313.59   21.27  0. 1.0000     0. 
  -1   2   1   1285.16   22.90  0. 1.0000     0. 
   0  -2   1    270.93    5.79  0. 1.0000     0. 
   0  -2  -1    273.39    7.61  0. 1.0000     0. 
   0  -2   1    287.24    6.57  0. 1.0000     0. 
   0   2   1    274.20    5.77  0. 1.0000     0. 
   0   2  -1    283.74    7.80  0. 1.0000     0. 
   0   2   1    273.01    6.27  0. 1.0000     0. 
   0   2  -1    280.53    5.62  0. 1.0000     0. 
   0   2  -1    276.25    5.16  0. 1.0000     0. 
   1  -2   1      4.03    1.83  0. 1.0000     0. 
  -1  -2  -1      5.94    1.30  0. 1.0000     0. 
  -1   2  -1      5.76    1.03  0. 1.0000     0. 
   1   2   1      4.84    1.71  0. 1.0000     0. 
  -1   2  -1      2.47    1.12  0. 1.0000     0. 
   1   2   1      6.02    1.41  0. 1.0000     0. 
  -1   2  -1      2.53    2.07  0. 1.0000     0. 
   1   2   1      6.10    1.35  0. 1.0000     0. 
  -3  -3   1     12.49    2.24  0. 1.0000     0. 
  -3   3   1      7.79    1.62  0. 1.0000     0. 
   3   3  -1      6.01    3.28  0. 1.0000     0. 
   3   3  -1     10.70    2.51  0. 1.0000     0. 
  -3   3   1     16.10    2.05  0. 1.0000     0. 
   1  -3  -1    202.41    6.04  0. 1.0000     0. 
   0  -3  -1     37.82    2.46  0. 1.0000     0. 
   0  -3   1     33.04    2.41  0. 1.0000     0. 
   0  -3  -1     39.56    2.61  0. 1.0000     0. 
   0  -3  -1     34.93    3.29  0. 1.0000     0. 
   0  -3  -1     36.51    3.24  0. 1.0000     0. 
   0  -3   1     32.79    3.12  0. 1.0000     0. 
   0  -3   1     38.38    3.48  0. 1.0000     0. 
   0   3  -1     32.17    1.91  0. 1.0000     0. 
   0   3   1     29.21    3.69  0. 1.0000     0. 
   0   3  -1     22.09    3.51  0. 1.0000     0. 
   0   3   1     36.22    2.73  0. 1.0000     0. 
   0   3  -1     40.55    2.78  0. 1.0000     0. 
   2  -3   1    177.50    7.58  0. 1.0000     0. 
  -2  -3  -1    188.89    4.75  0. 1.0000     0. 
   2  -3   1    200.57    5.50  0. 1.0000     0. 
  -2   3  -1    192.75    4.58  0. 1.0000     0. 
   2   3   1    173.76    6.34  0. 1.0000     0. 
   2   3   1    195.34    5.87  0. 1.0000     0. 
  -3   3  -1    337.62    7.26  0. 1.0000     0. 
  -2  -1   2    955.72   17.80  0. 1.0000     0. 
   2  -1  -2    990.66   20.41  0. 1.0000     0. 
   2   1  -2    977.58   15.98  0. 1.0000     0. 
   2   1  -2    967.62   19.23  0. 1.0000     0. 
  -2   1   2    973.70   16.46  0. 1.0000     0. 
   1  -1  -2    107.74    3.18  0. 1.0000     0. 
  -1  -1   2     99.67    1.96  0. 1.0000     0. 
  -1  -1   2    103.38    2.70  0. 1.0000     0. 
   1   1  -2    104.43    2.27  0. 1.0000     0. 
  -1   1   2     96.98    2.59  0. 1.0000     0. 
   1   1  -2    101.41    2.46  0. 1.0000     0. 
   1   1  -2    103.49    2.15  0. 1.0000     0. 
   1   1  -2    106.30    2.98  0. 1.0000     0. 
  -1   1   2    104.88    2.38  0. 1.0000     0. 
   0  -1   2   1372.80   26.60  0. 1.0000     0. 
   0  -1  -2   1311.71   22.98  0. 1.0000     0. 
   0  -1   2   1266.35   19.79  0. 1.0000     0. 
   0   1   2   1357.41   21.25  0. 1.0000     0. 
   0   1  -2   1307.39   21.23  0. 1.0000     0. 
   0   1  -2   1329.80   25.26  0. 1.0000     0. 
   0   1   2   1321.45   22.02  0. 1.0000     0. 
   0   1   2   1316.96   23.41  0. 1.0000     0. 
   0   1  -2   1318.05   22.73  0. 1.0000     0. 
   0   1   2   1322.55   24.55  0. 1.0000     0. 
   0   1  -2   1333.27   21.62  0. 1.0000     0. 
  -1  -1  -2   1526.24   23.72  0. 1.0000     0. 
   1  -1   2   1510.33   22.14  0. 1.0000     0. 
   1   1   2   1528.37   25.47  0. 1.0000     0. 
   1   1   2   1520.35   27.27  0. 1.0000     0. 
   1  -2  -2    150.58    4.94  0. 1.0000     0. 
  -1  -2   2    143.88    4.15  0. 1.0000     0. 
   1   2  -2    143.35    3.26  0. 1.0000     0. 
   1   2  -2    143.17    4.99  0. 1.0000     0. 
  -1   2   2    145.31    4.05  0. 1.0000     0. 
  -1   2   2    147.51    3.64  0. 1.0000     0. 
   1   2  -2    140.29    3.85  0. 1.0000     0. 
   0  -2   2    407.47    7.83  0. 1.0000     0. 
   0  -2  -2    412.30   10.69  0. 1.0000     0. 
   0  -2   2    414.96    9.18  0. 1.0000     0. 
   0  -2   2    409.13    9.96  0. 1.0000     0. 
   0  -2  -2    419.14    7.27  0. 1.0000     0. 
   0  -2  -2    395.04    8.20  0. 1.0000     0. 
   0   2  -2    414.55    8.01  0. 1.0000     0. 
   0   2   2    405.90    8.01  0. 1.0000     0. 
   0   2   2    426.79    7.28  0. 1.0000     0. 
   0   2  -2    420.47   10.61  0. 1.0000     0. 
   0   2   2    410.23    8.71  0. 1.0000     0. 
   0   2  -2    414.61    7.29  0. 1.0000     0. 
  -2  -2  -2   1310.31   21.39  0. 1.0000     0. 
   2  -2   2   1365.36   21.70  0. 1.0000     0. 
  -3  -3   2     15.73    2.36  0. 1.0000     0. 
   3  -3  -2     10.16    3.03  0. 1.0000     0. 
   3   3  -2     14.87    2.09  0. 1.0000     0. 
  -3   3   2      7.96    1.98  0. 1.0000     0. 
   3   3  -2     12.31    2.60  0. 1.0000     0. 
   2  -3  -2    186.30    7.41  0. 1.0000     0. 
   2   3  -2    201.61    7.31  0. 1.0000     0. 
  -2   3   2    215.98    5.24  0. 1.0000     0. 
   2  -3   2     54.48    3.76  0. 1.0000     0. 
  -2  -3  -2     52.80    2.72  0. 1.0000     0. 
  -2   3  -2     46.52    2.44  0. 1.0000     0. 
  -2   3  -2     50.19    2.69  0. 1.0000     0. 
   2   3   2     56.86    3.73  0. 1.0000     0. 
  -3   3  -2     25.09    2.33  0. 1.0000     0. 
  -4   4   2      7.74    2.52  0. 1.0000     0. 
   3  -4  -2      3.10    3.65  0. 1.0000     0. 
  -3   4   2      0.17    2.64  0. 1.0000     0. 
  -2  -4   2      3.64    4.50  0. 1.0000     0. 
  -2   4   2      1.17    2.92  0. 1.0000     0. 
  -1  -4  -2      9.96    3.41  0. 1.0000     0. 
   1  -4   2      2.67    4.10  0. 1.0000     0. 
   1   4   2      3.18    3.65  0. 1.0000     0. 
  -1   4  -2     11.12    4.11  0. 1.0000     0. 
  -2  -4  -2     27.39    3.17  0. 1.0000     0. 
  -2  -4  -2     22.25    4.27  0. 1.0000     0. 
   2   4   2     14.77    3.77  0. 1.0000     0. 
   2   4   2     41.74    4.27  0. 1.0000     0. 
  -3  -4  -2      0.88    3.48  0. 1.0000     0. 
   3   4   2      1.23    3.92  0. 1.0000     0. 
  -3   4  -2      1.40    1.92  0. 1.0000     0. 
   4   4   2     -1.26    3.91  0. 1.0000     0. 
   1   0  -3      0.03    0.29  0. 1.0000     0. 
  -1   0   3     -0.16    0.31  0. 1.0000     0. 
   1   0  -3      0.15    0.22  0. 1.0000     0. 
  -1   0   3      0.18    0.26  0. 1.0000     0. 
   1   0  -3      0.02    0.27  0. 1.0000     0. 
  -1   0   3      0.27    0.29  0. 1.0000     0. 
   0   0  -3      0.21    0.28  0. 1.0000     0. 
   0   0  -3     -0.10    0.48  0. 1.0000     0. 
   0   0   3      0.01    0.39  0. 1.0000     0. 
   0   0   3     -0.02    0.36  0. 1.0000     0. 
   0   0   3      0.33    0.41  0. 1.0000     0. 
   0   0  -3     -0.01    0.19  0. 1.0000     0. 
  -2  -1   3    318.60    6.58  0. 1.0000     0. 
   2  -1  -3    331.03    7.79  0. 1.0000     0. 
   2   1  -3    323.74    5.78  0. 1.0000     0. 
  -2   1   3    307.60    6.57  0. 1.0000     0. 
   1  -1  -3    463.59   10.33  0. 1.0000     0. 
  -1  -1   3    439.44    8.76  0. 1.0000     0. 
   1   1  -3    440.98    7.52  0. 1.0000     0. 
  -1   1   3    417.85    8.31  0. 1.0000     0. 
   1   1  -3    441.76    7.89  0. 1.0000     0. 
   0   1  -3    171.27    3.25  0. 1.0000     0. 
   0   1   3    173.58    3.55  0. 1.0000     0. 
   0   1   3    168.73    4.00  0. 1.0000     0. 
   0   1  -3    173.32    3.07  0. 1.0000     0. 
   1   1   3    735.49   13.99  0. 1.0000     0. 
   3  -2  -3    315.49    9.27  0. 1.0000     0. 
  -3  -2   3    311.99    7.29  0. 1.0000     0. 
   3   2  -3    319.71    8.24  0. 1.0000     0. 
  -3   2   3    317.35    6.57  0. 1.0000     0. 
  -2  -2   3    213.71    5.48  0. 1.0000     0. 
   2  -2  -3    219.61    6.63  0. 1.0000     0. 
  -2   2   3    211.60    4.73  0. 1.0000     0. 
   2   2  -3    208.90    6.26  0. 1.0000     0. 
  -2   2   3    203.82    5.26  0. 1.0000     0. 
   1  -2   3    134.92    4.26  0. 1.0000     0. 
  -1  -2  -3    130.06    3.43  0. 1.0000     0. 
  -1   2  -3    130.34    3.14  0. 1.0000     0. 
   1   2   3    131.98    3.69  0. 1.0000     0. 
   1   2   3    136.82    4.34  0. 1.0000     0. 
   1   2   3    127.67    3.91  0. 1.0000     0. 
   2  -2   3    121.84    4.45  0. 1.0000     0. 
  -2  -2  -3    127.16    3.39  0. 1.0000     0. 
   2   2   3    114.38    4.10  0. 1.0000     0. 
  -2   2  -3    121.06    3.01  0. 1.0000     0. 
  -3  -3   3    249.12    6.57  0. 1.0000     0. 
   3  -3  -3    238.09    8.53  0. 1.0000     0. 
   3   3  -3    249.43    7.62  0. 1.0000     0. 
  -2  -3   3      3.57    2.17  0. 1.0000     0. 
   2  -3  -3      0.73    2.54  0. 1.0000     0. 
  -2   3   3      1.19    2.08  0. 1.0000     0. 
   2   3  -3     -2.40    1.63  0. 1.0000     0. 
   2   3  -3      1.59    2.66  0. 1.0000     0. 
  -2   3   3      0.62    2.31  0. 1.0000     0. 
   1  -3   3    102.87    4.77  0. 1.0000     0. 
  -1  -3  -3     94.86    3.39  0. 1.0000     0. 
  -1   3  -3     85.78    2.93  0. 1.0000     0. 
   1   3   3     93.90    4.33  0. 1.0000     0. 
   2  -3   3      3.28    2.98  0. 1.0000     0. 
  -2  -3  -3      2.70    2.03  0. 1.0000     0. 
   2   3   3      1.66    2.93  0. 1.0000     0. 
   2   3   3      4.94    2.57  0. 1.0000     0. 
  -2   3  -3      2.95    1.73  0. 1.0000     0. 
  -2   3  -3      1.62    2.75  0. 1.0000     0. 
   5   4  -3     -4.23    3.04  0. 1.0000     0. 
  -3  -4   3      7.22    2.92  0. 1.0000     0. 
   3  -4  -3      3.25    3.37  0. 1.0000     0. 
  -3   4   3      8.20    2.67  0. 1.0000     0. 
   3   4  -3      2.45    2.51  0. 1.0000     0. 
   3   4  -3      3.91    3.34  0. 1.0000     0. 
   2  -4  -3      4.83    3.42  0. 1.0000     0. 
  -2  -4   3     13.34    4.70  0. 1.0000     0. 
  -2  -4   3      6.99    3.05  0. 1.0000     0. 
  -2   4   3     12.01    3.03  0. 1.0000     0. 
   2   4  -3      9.69    3.97  0. 1.0000     0. 
   2   4  -3     10.35    2.31  0. 1.0000     0. 
  -2   4   3      9.90    2.78  0. 1.0000     0. 
   1  -4  -3     48.93    4.77  0. 1.0000     0. 
  -1  -4   3     58.47    3.92  0. 1.0000     0. 
   1  -4  -3     52.66    3.67  0. 1.0000     0. 
   1   4  -3     58.42    2.78  0. 1.0000     0. 
  -1   4   3     57.07    3.55  0. 1.0000     0. 
   1   4  -3     51.86    5.83  0. 1.0000     0. 
   0  -4  -3      0.64    3.08  0. 1.0000     0. 
   0  -4  -3     -0.08    3.31  0. 1.0000     0. 
   0  -4   3     -0.63    3.24  0. 1.0000     0. 
   0  -4   3      1.43    3.87  0. 1.0000     0. 
   0   4  -3     -1.20    2.08  0. 1.0000     0. 
   0   4  -3     -0.16    4.27  0. 1.0000     0. 
   0   4   3      0.40    3.20  0. 1.0000     0. 
   0   4   3      0.18    3.23  0. 1.0000     0. 
  -1  -4  -3     10.43    3.23  0. 1.0000     0. 
   1  -4   3      9.42    3.45  0. 1.0000     0. 
   1  -4   3     17.95    4.39  0. 1.0000     0. 
  -1  -4  -3      9.82    3.55  0. 1.0000     0. 
   1   4   3     17.05    3.69  0. 1.0000     0. 
   1   4   3     17.61    3.93  0. 1.0000     0. 
  -1   4  -3      3.90    3.81  0. 1.0000     0. 
  -1   4  -3     12.87    2.11  0. 1.0000     0. 
  -2  -4  -3     -1.70    3.87  0. 1.0000     0. 
   2  -4   3     -0.45    3.66  0. 1.0000     0. 
  -2  -4  -3     -0.71    2.82  0. 1.0000     0. 
   2  -4   3      3.71    4.25  0. 1.0000     0. 
   2   4   3      2.35    3.75  0. 1.0000     0. 
  -2   4  -3      2.57    1.98  0. 1.0000     0. 
   2   4   3     -2.02    3.56  0. 1.0000     0. 
  -3  -4  -3     -0.73    3.50  0. 1.0000     0. 
   3   4   3      1.17    4.17  0. 1.0000     0. 
  -3   4  -3      2.23    1.91  0. 1.0000     0. 
   4   4   3     11.65    4.32  0. 1.0000     0. 
   1   0  -4   2724.49   49.84  0. 1.0000     0. 
   1   0  -4   2720.55   42.79  0. 1.0000     0. 
   1   0  -4   2818.20   53.60  0. 1.0000     0. 
  -1   0   4   2721.97   47.43  0. 1.0000     0. 
  -1   0   4   2740.69   44.24  0. 1.0000     0. 
  -1   0   4   2612.87   45.97  0. 1.0000     0. 
   0   0  -4   2155.81   33.28  0. 1.0000     0. 
   0   0   4   2238.93   37.26  0. 1.0000     0. 
   0   0   4   2048.11   31.42  0. 1.0000     0. 
   0   0  -4   2169.87   34.27  0. 1.0000     0. 
   0   0   4   2232.69   35.38  0. 1.0000     0. 
   0   0  -4   2224.21   40.73  0. 1.0000     0. 
  -3  -1   4      6.52    1.05  0. 1.0000     0. 
  -2   1   4    103.81    2.61  0. 1.0000     0. 
  -1  -1   4   1819.37   32.29  0. 1.0000     0. 
   1   1  -4   1790.98   28.79  0. 1.0000     0. 
  -1   1   4   1783.74   31.53  0. 1.0000     0. 
   0   1  -4    891.38   14.84  0. 1.0000     0. 
   0   1   4    906.11   16.39  0. 1.0000     0. 
   3  -2  -4    576.74   14.12  0. 1.0000     0. 
  -3  -2   4    563.27   11.62  0. 1.0000     0. 
  -3   2   4    562.97   10.80  0. 1.0000     0. 
   3   2  -4    563.10   10.43  0. 1.0000     0. 
   3   2  -4    567.78   12.95  0. 1.0000     0. 
  -3   2   4    566.08   11.51  0. 1.0000     0. 
  -2  -2   4     47.87    2.47  0. 1.0000     0. 
   2  -2  -4     43.09    2.94  0. 1.0000     0. 
  -2   2   4     46.51    2.63  0. 1.0000     0. 
   2   2  -4     48.41    1.93  0. 1.0000     0. 
   2   2  -4     47.00    2.83  0. 1.0000     0. 
  -1  -2   4    142.46    4.23  0. 1.0000     0. 
   1  -2  -4    148.86    4.96  0. 1.0000     0. 
  -1  -2   4    147.21    4.44  0. 1.0000     0. 
  -1  -2   4    141.47    3.04  0. 1.0000     0. 
   1  -2  -4    142.55    3.59  0. 1.0000     0. 
   1  -2  -4    141.35    3.52  0. 1.0000     0. 
   1   2  -4    144.21    3.35  0. 1.0000     0. 
  -1   2   4    143.96    4.66  0. 1.0000     0. 
   1   2  -4    147.07    3.25  0. 1.0000     0. 
   1   2  -4    138.82    3.32  0. 1.0000     0. 
  -1   2   4    145.03    2.85  0. 1.0000     0. 
  -1   2   4    152.41    3.78  0. 1.0000     0. 
   1   2  -4    143.37    5.41  0. 1.0000     0. 
  -1   2   4    143.92    4.17  0. 1.0000     0. 
   0  -2  -4     21.77    1.68  0. 1.0000     0. 
   0  -2   4     18.18    2.44  0. 1.0000     0. 
   0  -2   4     18.74    2.41  0. 1.0000     0. 
   0  -2   4     20.10    1.76  0. 1.0000     0. 
   0  -2  -4     20.43    1.29  0. 1.0000     0. 
   0  -2  -4     21.18    2.73  0. 1.0000     0. 
   0   2   4     22.70    2.24  0. 1.0000     0. 
   0   2   4     21.58    1.73  0. 1.0000     0. 
   0   2   4     21.78    1.05  0. 1.0000     0. 
   0   2  -4     18.44    2.69  0. 1.0000     0. 
   0   2   4     20.50    1.77  0. 1.0000     0. 
   0   2  -4     22.00    1.32  0. 1.0000     0. 
   0   2  -4     19.12    1.24  0. 1.0000     0. 
   1  -2   4    148.38    4.65  0. 1.0000     0. 
  -1  -2  -4    149.26    3.62  0. 1.0000     0. 
   1   2   4    144.68    4.27  0. 1.0000     0. 
   2  -2   4    203.95    6.03  0. 1.0000     0. 
  -2  -2  -4    207.89    4.72  0. 1.0000     0. 
   3  -3  -4      0.07    2.67  0. 1.0000     0. 
  -3  -3   4      2.84    2.10  0. 1.0000     0. 
  -3   3   4      0.23    2.54  0. 1.0000     0. 
   3   3  -4     -0.09    2.51  0. 1.0000     0. 
   3   3  -4      1.88    1.73  0. 1.0000     0. 
  -3   3   4      0.40    1.97  0. 1.0000     0. 
  -2  -3   4    109.57    4.16  0. 1.0000     0. 
   2  -3  -4    107.18    5.21  0. 1.0000     0. 
   2   3  -4    110.09    5.28  0. 1.0000     0. 
  -2   3   4    114.69    3.79  0. 1.0000     0. 
   2   3  -4    109.42    3.35  0. 1.0000     0. 
  -2   3   4    111.66    4.25  0. 1.0000     0. 
  -1  -3   4     19.21    2.85  0. 1.0000     0. 
  -1  -3   4     22.58    3.58  0. 1.0000     0. 
   1  -3  -4     21.29    3.09  0. 1.0000     0. 
   1   3  -4     20.72    3.49  0. 1.0000     0. 
  -1   3   4     20.07    2.53  0. 1.0000     0. 
  -1   3   4     24.46    2.84  0. 1.0000     0. 
   1   3  -4     19.14    1.78  0. 1.0000     0. 
   0  -3   4     75.39    4.45  0. 1.0000     0. 
   0  -3  -4     71.89    3.10  0. 1.0000     0. 
   0  -3   4     59.53    4.14  0. 1.0000     0. 
   0  -3  -4     68.32    4.47  0. 1.0000     0. 
   0   3  -4     62.87    2.80  0. 1.0000     0. 
   0   3   4     69.93    3.74  0. 1.0000     0. 
   0   3   4     70.74    3.29  0. 1.0000     0. 
   1  -3   4     22.49    3.82  0. 1.0000     0. 
  -1  -3  -4     13.58    3.59  0. 1.0000     0. 
  -1  -3  -4     19.19    2.29  0. 1.0000     0. 
  -1   3  -4      8.39    3.46  0. 1.0000     0. 
   1   3   4     16.85    2.65  0. 1.0000     0. 
  -1   3  -4     13.93    1.84  0. 1.0000     0. 
   1   3   4     16.47    3.20  0. 1.0000     0. 
   2  -3   4      2.81    3.12  0. 1.0000     0. 
  -2  -3  -4      3.34    2.05  0. 1.0000     0. 
   2   3   4      3.16    2.73  0. 1.0000     0. 
   2   3   4      1.76    3.03  0. 1.0000     0. 
  -2   3  -4     -1.26    2.80  0. 1.0000     0. 
  -2   3  -4      2.26    1.77  0. 1.0000     0. 
   5   4  -4      5.94    3.35  0. 1.0000     0. 
  -4  -4   4     -1.57    2.73  0. 1.0000     0. 
  -4   4   4      0.27    2.72  0. 1.0000     0. 
   4   4  -4      1.25    3.40  0. 1.0000     0. 
  -3  -4   4      4.04    2.80  0. 1.0000     0. 
   3  -4  -4      2.34    3.45  0. 1.0000     0. 
  -3   4   4      2.41    3.18  0. 1.0000     0. 
   3   4  -4      1.40    4.06  0. 1.0000     0. 
   3   4  -4      4.77    2.34  0. 1.0000     0. 
  -3   4   4      4.13    2.62  0. 1.0000     0. 
  -2  -4   4      1.09    2.83  0. 1.0000     0. 
   2  -4  -4      2.28    3.29  0. 1.0000     0. 
  -2  -4   4     -1.72    4.12  0. 1.0000     0. 
  -2   4   4      0.45    2.73  0. 1.0000     0. 
   2   4  -4      0.08    2.22  0. 1.0000     0. 
   2   4  -4      1.96    3.81  0. 1.0000     0. 
  -2   4   4     -0.46    3.31  0. 1.0000     0. 
  -1  -4   4     -0.83    2.87  0. 1.0000     0. 
   1  -4  -4     -3.32    3.00  0. 1.0000     0. 
  -1  -4   4      3.65    4.20  0. 1.0000     0. 
   1  -4  -4      1.66    3.45  0. 1.0000     0. 
   1   4  -4      0.88    4.01  0. 1.0000     0. 
  -1   4   4      4.76    3.25  0. 1.0000     0. 
  -1   4   4      1.48    2.81  0. 1.0000     0. 
   1   4  -4     -0.37    2.08  0. 1.0000     0. 
   0  -4  -4      2.37    3.07  0. 1.0000     0. 
   0  -4   4     -0.55    3.72  0. 1.0000     0. 
   0  -4  -4     -0.84    3.27  0. 1.0000     0. 
   0  -4   4     -0.10    3.23  0. 1.0000     0. 
   0   4   4     -0.46    3.19  0. 1.0000     0. 
   0   4   4      3.78    2.99  0. 1.0000     0. 
   0   4  -4     -0.91    2.00  0. 1.0000     0. 
   0   4  -4      1.03    4.49  0. 1.0000     0. 
   1  -4   4      5.35    3.59  0. 1.0000     0. 
  -1  -4  -4     -1.33    3.36  0. 1.0000     0. 
   1  -4   4      6.09    4.19  0. 1.0000     0. 
  -1  -4  -4      2.17    3.15  0. 1.0000     0. 
   1   4   4      4.15    3.57  0. 1.0000     0. 
  -1   4  -4      2.62    3.69  0. 1.0000     0. 
  -1   4  -4      6.37    2.27  0. 1.0000     0. 
   1   4   4     -1.09    3.65  0. 1.0000     0. 
  -2  -4  -4      0.21    3.96  0. 1.0000     0. 
  -2  -4  -4      1.75    2.93  0. 1.0000     0. 
   2  -4   4      2.20    4.36  0. 1.0000     0. 
   2  -4   4     -4.91    4.03  0. 1.0000     0. 
   2   4   4     -1.45    3.89  0. 1.0000     0. 
  -2   4  -4      3.35    1.96  0. 1.0000     0. 
   2   4   4     -3.77    3.63  0. 1.0000     0. 
  -3  -4  -4     -3.24    3.32  0. 1.0000     0. 
   3   4   4      3.04    4.30  0. 1.0000     0. 
  -3   4  -4      1.20    1.99  0. 1.0000     0. 
   4   4   4      0.50    4.16  0. 1.0000     0. 
  -2   0   5      0.30    0.56  0. 1.0000     0. 
   2   0  -5      0.15    0.55  0. 1.0000     0. 
   1   0  -5      0.11    0.56  0. 1.0000     0. 
  -1   0   5     -0.17    0.61  0. 1.0000     0. 
   1   0  -5      0.11    0.56  0. 1.0000     0. 
  -1   0   5     -0.23    0.61  0. 1.0000     0. 
  -1   0   5      0.19    0.49  0. 1.0000     0. 
   1   0  -5      0.04    0.35  0. 1.0000     0. 
   0   0   5      0.09    0.77  0. 1.0000     0. 
   0   0   5      0.31    0.62  0. 1.0000     0. 
   0   0  -5      0.11    0.48  0. 1.0000     0. 
   0   0  -5      0.21    0.34  0. 1.0000     0. 
   0   0  -5      0.07    0.73  0. 1.0000     0. 
   0   0   5     -0.19    0.81  0. 1.0000     0. 
   3  -1  -5   1025.70   22.22  0. 1.0000     0. 
  -3  -1   5    998.79   18.84  0. 1.0000     0. 
   3   1  -5   1014.03   20.14  0. 1.0000     0. 
  -3   1   5   1014.72   17.53  0. 1.0000     0. 
  -2   1   5    267.83    5.48  0. 1.0000     0. 
   2   1  -5    268.02    6.65  0. 1.0000     0. 
   0  -1   5    117.35    3.54  0. 1.0000     0. 
   0  -1  -5    118.46    2.82  0. 1.0000     0. 
   0   1   5    122.49    3.02  0. 1.0000     0. 
   0   1  -5    125.65    4.51  0. 1.0000     0. 
  -1  -1  -5    236.41    4.63  0. 1.0000     0. 
   1  -1   5    231.46    5.43  0. 1.0000     0. 
   1   1   5    235.73    5.30  0. 1.0000     0. 
  -1   1  -5    242.89    4.52  0. 1.0000     0. 
   1   1   5    229.17    5.84  0. 1.0000     0. 
  -3  -2   5     42.88    2.37  0. 1.0000     0. 
   3  -2  -5     44.01    3.13  0. 1.0000     0. 
  -3   2   5     38.54    2.67  0. 1.0000     0. 
   3   2  -5     39.83    2.91  0. 1.0000     0. 
   3   2  -5     40.88    1.98  0. 1.0000     0. 
  -3   2   5     41.69    2.31  0. 1.0000     0. 
   2  -2  -5    391.58   10.22  0. 1.0000     0. 
  -2  -2   5    377.77    8.42  0. 1.0000     0. 
  -2   2   5    378.29    8.42  0. 1.0000     0. 
   2   2  -5    371.80   10.07  0. 1.0000     0. 
   2   2  -5    380.74    7.16  0. 1.0000     0. 
  -2   2   5    381.67    7.73  0. 1.0000     0. 
  -1  -2   5     78.16    2.80  0. 1.0000     0. 
  -1  -2   5     79.27    3.44  0. 1.0000     0. 
   1  -2  -5     79.30    2.20  0. 1.0000     0. 
   1  -2  -5     80.79    3.86  0. 1.0000     0. 
  -1  -2   5     76.61    2.05  0. 1.0000     0. 
  -1   2   5     81.53    3.26  0. 1.0000     0. 
   1   2  -5     80.91    2.34  0. 1.0000     0. 
   1   2  -5     79.55    4.29  0. 1.0000     0. 
  -1   2   5     82.33    2.82  0. 1.0000     0. 
   0  -2  -5    261.90    5.38  0. 1.0000     0. 
   0  -2   5    251.30    6.42  0. 1.0000     0. 
   0  -2  -5    261.76    8.50  0. 1.0000     0. 
   0   2  -5    266.58    5.34  0. 1.0000     0. 
   0   2  -5    262.78    8.25  0. 1.0000     0. 
   0   2   5    260.93    6.63  0. 1.0000     0. 
   0   2   5    253.49    5.76  0. 1.0000     0. 
   1  -2   5      5.82    2.63  0. 1.0000     0. 
  -1  -2  -5      1.89    1.65  0. 1.0000     0. 
  -1   2  -5      3.78    1.23  0. 1.0000     0. 
   1   2   5      4.06    2.67  0. 1.0000     0. 
  -1   2  -5      4.53    1.16  0. 1.0000     0. 
  -1   2  -5      4.34    2.35  0. 1.0000     0. 
   1   2   5      4.12    1.91  0. 1.0000     0. 
  -2  -2  -5     81.37    2.89  0. 1.0000     0. 
   2  -2   5     74.48    3.93  0. 1.0000     0. 
   2   2   5     77.19    4.01  0. 1.0000     0. 
   2   2   5     74.00    3.56  0. 1.0000     0. 
  -3  -3   5    209.83    5.91  0. 1.0000     0. 
   3  -3  -5    204.62    7.86  0. 1.0000     0. 
  -3   3   5    207.51    6.03  0. 1.0000     0. 
   3   3  -5    206.44    7.51  0. 1.0000     0. 
   3   3  -5    206.76    4.96  0. 1.0000     0. 
  -3   3   5    202.70    5.40  0. 1.0000     0. 
  -2  -3   5    256.71    7.04  0. 1.0000     0. 
   2  -3  -5    250.19    8.67  0. 1.0000     0. 
  -2   3   5    261.87    6.81  0. 1.0000     0. 
  -2   3   5    258.94    6.19  0. 1.0000     0. 
   2   3  -5    256.56    5.59  0. 1.0000     0. 
   2   3  -5    242.51    8.86  0. 1.0000     0. 
  -1  -3   5    193.95    6.20  0. 1.0000     0. 
  -1  -3   5    192.89    6.41  0. 1.0000     0. 
   1  -3  -5    196.58    7.21  0. 1.0000     0. 
   1  -3  -5    189.66    4.89  0. 1.0000     0. 
   1   3  -5    173.33    7.93  0. 1.0000     0. 
   1   3  -5    190.27    4.66  0. 1.0000     0. 
  -1   3   5    195.97    5.04  0. 1.0000     0. 
  -1   3   5    196.52    5.95  0. 1.0000     0. 
   0  -3  -5      6.90    2.40  0. 1.0000     0. 
   0  -3   5      3.86    3.40  0. 1.0000     0. 
   0  -3  -5      3.33    2.86  0. 1.0000     0. 
   0  -3   5      2.21    2.68  0. 1.0000     0. 
   0   3   5     -3.08    2.49  0. 1.0000     0. 
   0   3  -5      1.00    3.04  0. 1.0000     0. 
   0   3   5      2.86    2.77  0. 1.0000     0. 
   0   3  -5      0.96    1.65  0. 1.0000     0. 
  -1  -3  -5     14.92    2.48  0. 1.0000     0. 
  -1  -3  -5      9.75    3.52  0. 1.0000     0. 
   1  -3   5     11.63    3.49  0. 1.0000     0. 
   1   3   5      8.92    2.76  0. 1.0000     0. 
  -1   3  -5      5.92    3.50  0. 1.0000     0. 
  -1   3  -5     10.17    1.83  0. 1.0000     0. 
   1   3   5      8.37    3.17  0. 1.0000     0. 
   3   3   5      5.07    3.95  0. 1.0000     0. 
   5   4  -5      5.17    3.64  0. 1.0000     0. 
   4  -4  -5      6.20    4.00  0. 1.0000     0. 
  -4  -4   5      0.93    2.88  0. 1.0000     0. 
  -4   4   5     11.60    2.86  0. 1.0000     0. 
   4   4  -5      4.81    3.78  0. 1.0000     0. 
   3  -4  -5     70.97    5.44  0. 1.0000     0. 
  -3  -4   5     85.48    4.23  0. 1.0000     0. 
  -3   4   5     80.60    3.89  0. 1.0000     0. 
  -3   4   5     92.09    4.85  0. 1.0000     0. 
   3   4  -5     70.77    6.22  0. 1.0000     0. 
   3   4  -5     71.93    3.50  0. 1.0000     0. 
  -2  -4   5    207.21    7.20  0. 1.0000     0. 
   2  -4  -5    181.10    7.96  0. 1.0000     0. 
  -2  -4   5    191.66    6.78  0. 1.0000     0. 
  -2   4   5    205.71    5.66  0. 1.0000     0. 
  -2   4   5    203.69    6.63  0. 1.0000     0. 
   2   4  -5    149.69    8.26  0. 1.0000     0. 
   2   4  -5    191.99    5.13  0. 1.0000     0. 
  -1  -4   5    103.38    5.16  0. 1.0000     0. 
  -1  -4   5    125.76    5.95  0. 1.0000     0. 
   1  -4  -5    105.81    6.39  0. 1.0000     0. 
   1  -4  -5    121.60    4.70  0. 1.0000     0. 
  -1   4   5    132.14    5.53  0. 1.0000     0. 
   1   4  -5    114.96    3.96  0. 1.0000     0. 
   0  -4   5     65.21    4.59  0. 1.0000     0. 
   0  -4  -5     57.96    5.12  0. 1.0000     0. 
   0  -4   5     58.63    4.74  0. 1.0000     0. 
   0  -4  -5     61.33    3.80  0. 1.0000     0. 
   0   4  -5     40.20    6.20  0. 1.0000     0. 
   0   4  -5     59.17    2.97  0. 1.0000     0. 
   1  -4   5    172.02    7.03  0. 1.0000     0. 
  -1  -4  -5    155.80    5.65  0. 1.0000     0. 
   2  -4   5      6.50    4.28  0. 1.0000     0. 
  -2  -4  -5      0.11    4.13  0. 1.0000     0. 
  -2  -4  -5      4.19    2.98  0. 1.0000     0. 
   2  -4   5      5.35    4.50  0. 1.0000     0. 
   2   4   5      1.61    3.91  0. 1.0000     0. 
   2   4   5      0.80    3.96  0. 1.0000     0. 
  -2   4  -5      4.97    2.03  0. 1.0000     0. 
  -2   0   6   1570.07   28.22  0. 1.0000     0. 
   2   0  -6   1599.46   31.47  0. 1.0000     0. 
   2   0  -6   1577.43   30.31  0. 1.0000     0. 
   2   0  -6   1613.28   25.40  0. 1.0000     0. 
  -2   0   6   1587.90   26.23  0. 1.0000     0. 
  -1   0   6     65.92    1.97  0. 1.0000     0. 
  -1   0   6     66.93    1.76  0. 1.0000     0. 
   1   0  -6     67.91    1.51  0. 1.0000     0. 
   1   0  -6     69.01    2.32  0. 1.0000     0. 
  -1   0   6     69.22    2.03  0. 1.0000     0. 
   0   0   6    185.97    3.81  0. 1.0000     0. 
   0   0  -6    191.70    5.22  0. 1.0000     0. 
   0   0  -6    190.56    3.57  0. 1.0000     0. 
   0   0  -6    190.93    3.42  0. 1.0000     0. 
   0   0   6    191.47    4.16  0. 1.0000     0. 
   3  -1  -6   1550.87   31.96  0. 1.0000     0. 
  -3  -1   6   1489.97   27.57  0. 1.0000     0. 
   3   1  -6   1499.29   25.28  0. 1.0000     0. 
  -3   1   6   1499.20   26.04  0. 1.0000     0. 
   3   1  -6   1542.14   28.59  0. 1.0000     0. 
   2  -1  -6      0.45    1.20  0. 1.0000     0. 
  -2  -1   6      0.77    1.12  0. 1.0000     0. 
   2   1  -6      0.90    0.77  0. 1.0000     0. 
   2   1  -6      1.04    1.18  0. 1.0000     0. 
  -2   1   6      0.56    1.01  0. 1.0000     0. 
  -2   1   6      0.54    1.24  0. 1.0000     0. 
  -1  -1   6     25.55    1.83  0. 1.0000     0. 
   1  -1  -6     26.36    1.98  0. 1.0000     0. 
  -1   1   6     24.74    1.84  0. 1.0000     0. 
  -1   1   6     24.30    1.48  0. 1.0000     0. 
   1   1  -6     25.11    1.26  0. 1.0000     0. 
   1   1  -6     25.57    2.09  0. 1.0000     0. 
   0  -1  -6   1343.63   21.67  0. 1.0000     0. 
   0  -1   6   1329.73   20.36  0. 1.0000     0. 
   0   1  -6   1374.17   22.27  0. 1.0000     0. 
   0   1   6   1351.15   22.99  0. 1.0000     0. 
   0   1   6   1349.41   24.52  0. 1.0000     0. 
   0   1  -6   1361.85   27.09  0. 1.0000     0. 
   1  -1   6      4.78    1.84  0. 1.0000     0. 
  -1  -1  -6      4.96    1.10  0. 1.0000     0. 
  -1   1  -6      3.88    1.91  0. 1.0000     0. 
   1   1   6      6.45    1.90  0. 1.0000     0. 
   1   1   6      4.41    1.43  0. 1.0000     0. 
  -1   1  -6      4.46    0.87  0. 1.0000     0. 
  -4  -2   6    558.13   11.74  0. 1.0000     0. 
   4  -2  -6    545.99   14.41  0. 1.0000     0. 
   3  -2  -6    611.41   14.58  0. 1.0000     0. 
  -3  -2   6    551.79   12.72  0. 1.0000     0. 
   3   2  -6    585.23   13.20  0. 1.0000     0. 
   3   2  -6    584.51   10.97  0. 1.0000     0. 
  -3   2   6    602.76   11.86  0. 1.0000     0. 
  -2  -2   6    259.11    6.53  0. 1.0000     0. 
   2  -2  -6    245.29    7.56  0. 1.0000     0. 
   2   2  -6    241.28    7.53  0. 1.0000     0. 
   2   2  -6    247.32    5.17  0. 1.0000     0. 
  -2   2   6    246.15    6.38  0. 1.0000     0. 
  -1  -2   6    223.01    6.06  0. 1.0000     0. 
   1  -2  -6    212.43    7.13  0. 1.0000     0. 
   1   2  -6    210.01    7.22  0. 1.0000     0. 
  -1   2   6    220.59    5.93  0. 1.0000     0. 
   1   2  -6    213.54    4.63  0. 1.0000     0. 
   0  -2   6    759.77   13.63  0. 1.0000     0. 
   0   2  -6    796.42   13.48  0. 1.0000     0. 
   0   2   6    771.86   15.55  0. 1.0000     0. 
   0   2  -6    756.14   18.27  0. 1.0000     0. 
   1  -2   6    218.23    5.99  0. 1.0000     0. 
   1   2   6    211.49    5.87  0. 1.0000     0. 
  -1   2  -6    218.48    4.60  0. 1.0000     0. 
   1   2   6    199.46    6.88  0. 1.0000     0. 
  -2   2  -6      5.76    1.40  0. 1.0000     0. 
   5   3  -6      8.68    2.93  0. 1.0000     0. 
  -4  -3   6    121.33    4.62  0. 1.0000     0. 
  -4   3   6    115.68    4.32  0. 1.0000     0. 
   4   3  -6    114.05    3.97  0. 1.0000     0. 
  -2  -3   6    138.72    4.89  0. 1.0000     0. 
   2   3  -6    135.90    7.00  0. 1.0000     0. 
  -2   3   6    136.72    4.98  0. 1.0000     0. 
   2   3  -6    129.07    3.76  0. 1.0000     0. 
   1  -3  -6     94.67    3.70  0. 1.0000     0. 
  -1  -3   6    101.34    5.07  0. 1.0000     0. 
   1  -3  -6     79.90    4.96  0. 1.0000     0. 
  -1   3   6    105.85    4.39  0. 1.0000     0. 
   1   3  -6     87.65    5.72  0. 1.0000     0. 
   1   3  -6     96.01    3.12  0. 1.0000     0. 
  -1   3   6     94.66    3.80  0. 1.0000     0. 
   0  -3   6     11.91    3.80  0. 1.0000     0. 
   0  -3   6     13.21    3.10  0. 1.0000     0. 
   0   3   6      7.79    3.05  0. 1.0000     0. 
   0   3  -6     11.12    1.94  0. 1.0000     0. 
   0   3  -6     17.04    3.73  0. 1.0000     0. 
   5   4  -6      3.84    3.67  0. 1.0000     0. 
  -4  -4   6      8.69    3.09  0. 1.0000     0. 
   4  -4  -6      4.59    3.77  0. 1.0000     0. 
  -4   4   6      6.22    2.82  0. 1.0000     0. 
   4   4  -6      7.56    3.79  0. 1.0000     0. 
   4   4  -6      7.32    2.49  0. 1.0000     0. 
   3  -4  -6      3.37    3.54  0. 1.0000     0. 
  -3  -4   6      0.88    2.71  0. 1.0000     0. 
   3   4  -6      1.37    3.83  0. 1.0000     0. 
   3   4  -6      5.32    2.26  0. 1.0000     0. 
  -3   4   6     -2.32    2.69  0. 1.0000     0. 
  -3   4   6     -2.56    3.22  0. 1.0000     0. 
   2  -4  -6      2.61    2.73  0. 1.0000     0. 
  -2  -4   6      3.57    4.34  0. 1.0000     0. 
   2  -4  -6     -0.17    3.23  0. 1.0000     0. 
  -2  -4   6      3.50    2.72  0. 1.0000     0. 
  -2   4   6      2.41    3.17  0. 1.0000     0. 
  -2   4   6     -2.75    2.86  0. 1.0000     0. 
   2   4  -6      0.63    4.28  0. 1.0000     0. 
   2   4  -6      1.25    2.19  0. 1.0000     0. 
   1  -4  -6      7.09    3.60  0. 1.0000     0. 
  -1  -4   6      5.51    3.40  0. 1.0000     0. 
  -1  -4   6      8.13    4.48  0. 1.0000     0. 
   1  -4  -6     12.81    3.22  0. 1.0000     0. 
   1   4  -6      7.13    2.26  0. 1.0000     0. 
  -1   4   6      8.16    2.94  0. 1.0000     0. 
   1   4  -6      2.23    3.85  0. 1.0000     0. 
  -1   4   6      5.74    3.45  0. 1.0000     0. 
   0  -4  -6      0.26    3.38  0. 1.0000     0. 
   0  -4   6      1.05    3.97  0. 1.0000     0. 
   0  -4   6      4.41    3.42  0. 1.0000     0. 
   0  -4  -6      2.18    2.93  0. 1.0000     0. 
   0   4   6      2.66    3.29  0. 1.0000     0. 
   0   4   6      0.10    3.16  0. 1.0000     0. 
   0   4  -6      5.36    5.25  0. 1.0000     0. 
   0   4  -6      0.92    2.15  0. 1.0000     0. 
   1  -4   6      6.34    3.79  0. 1.0000     0. 
   1  -4   6      5.26    4.47  0. 1.0000     0. 
  -1  -4  -6      5.12    3.28  0. 1.0000     0. 
  -1  -4  -6      4.51    3.76  0. 1.0000     0. 
   1   4   6      0.44    3.79  0. 1.0000     0. 
   1   4   6      0.87    3.80  0. 1.0000     0. 
  -1   4  -6      2.65    2.21  0. 1.0000     0. 
  -1   4  -6      2.38    3.65  0. 1.0000     0. 
  -2  -4  -6      1.24    4.29  0. 1.0000     0. 
   2  -4   6      0.82    4.29  0. 1.0000     0. 
   2  -4   6     -0.23    4.40  0. 1.0000     0. 
  -2  -4  -6      1.34    2.92  0. 1.0000     0. 
   2   4   6      4.42    3.74  0. 1.0000     0. 
   2   4   6     -2.47    4.19  0. 1.0000     0. 
  -2   4  -6      9.41    2.17  0. 1.0000     0. 
  -3   4  -6     -2.79    2.01  0. 1.0000     0. 
   3   4   6      4.31    4.45  0. 1.0000     0. 
  -3   0   7      0.03    0.89  0. 1.0000     0. 
   2   0  -7      0.22    0.92  0. 1.0000     0. 
  -2   0   7      0.11    0.82  0. 1.0000     0. 
   2   0  -7      0.03    0.79  0. 1.0000     0. 
  -2   0   7     -0.25    0.94  0. 1.0000     0. 
  -2   0   7      0.10    0.76  0. 1.0000     0. 
   2   0  -7      1.18    0.66  0. 1.0000     0. 
  -1   0   7      0.08    1.26  0. 1.0000     0. 
  -1   0   7     -0.48    0.76  0. 1.0000     0. 
   1   0  -7      0.07    0.91  0. 1.0000     0. 
  -1   0   7      0.26    0.97  0. 1.0000     0. 
  -1   0   7     -0.37    1.06  0. 1.0000     0. 
   1   0  -7     -0.14    1.02  0. 1.0000     0. 
   1   0  -7      0.03    0.69  0. 1.0000     0. 
   1   0  -7     -0.14    0.57  0. 1.0000     0. 
   0   0   7      0.95    1.10  0. 1.0000     0. 
   0   0   7      0.42    1.30  0. 1.0000     0. 
   0   0   7      0.35    1.15  0. 1.0000     0. 
   0   0  -7     -0.06    1.17  0. 1.0000     0. 
   0   0  -7      0.36    0.58  0. 1.0000     0. 
   0   0  -7     -0.08    0.82  0. 1.0000     0. 
  -3  -1   7     13.14    1.53  0. 1.0000     0. 
   3  -1  -7     15.63    1.92  0. 1.0000     0. 
  -3   1   7     14.39    1.78  0. 1.0000     0. 
   3   1  -7     11.44    1.19  0. 1.0000     0. 
  -3   1   7     14.46    1.51  0. 1.0000     0. 
   3   1  -7     13.11    1.81  0. 1.0000     0. 
   2  -1  -7    240.27    6.52  0. 1.0000     0. 
  -2  -1   7    233.80    5.61  0. 1.0000     0. 
   2   1  -7    231.59    4.79  0. 1.0000     0. 
   2   1  -7    233.78    6.39  0. 1.0000     0. 
  -2   1   7    234.36    5.63  0. 1.0000     0. 
  -2   1   7    236.18    5.05  0. 1.0000     0. 
   1  -1  -7   1196.20   25.12  0. 1.0000     0. 
  -1  -1   7   1190.16   22.23  0. 1.0000     0. 
   1   1  -7   1177.07   24.30  0. 1.0000     0. 
  -1   1   7   1176.94   21.54  0. 1.0000     0. 
   1   1  -7   1187.31   19.70  0. 1.0000     0. 
  -1   1   7   1192.72   20.28  0. 1.0000     0. 
   0  -1  -7    114.38    2.98  0. 1.0000     0. 
   0  -1   7    112.82    3.78  0. 1.0000     0. 
   0   1  -7    115.98    4.93  0. 1.0000     0. 
   0   1   7    114.69    3.20  0. 1.0000     0. 
   0   1   7    115.10    3.78  0. 1.0000     0. 
   0   1  -7    118.12    2.68  0. 1.0000     0. 
   1  -1   7    881.49   15.28  0. 1.0000     0. 
  -1  -1  -7    886.39   15.00  0. 1.0000     0. 
  -1   1  -7    921.13   20.59  0. 1.0000     0. 
  -1   1  -7    905.96   15.23  0. 1.0000     0. 
   1   1   7    904.29   17.56  0. 1.0000     0. 
   1   1   7    911.77   16.12  0. 1.0000     0. 
  -4  -2   7     50.32    2.96  0. 1.0000     0. 
   4  -2  -7     53.23    3.83  0. 1.0000     0. 
  -1  -2  -7     21.39    2.25  0. 1.0000     0. 
   1   2   7     27.72    3.28  0. 1.0000     0. 
  -1   2  -7     18.36    1.70  0. 1.0000     0. 
  -2  -2  -7     80.57    3.28  0. 1.0000     0. 
  -5  -3   7     14.02    3.31  0. 1.0000     0. 
   5   3  -7      9.83    2.89  0. 1.0000     0. 
  -4   3   7    152.73    4.77  0. 1.0000     0. 
   4   3  -7    160.55    6.53  0. 1.0000     0. 
   3   3  -7     29.34    3.70  0. 1.0000     0. 
  -3   3   7     21.55    2.82  0. 1.0000     0. 
   1  -3   7     33.43    4.25  0. 1.0000     0. 
  -1  -3  -7     26.68    3.09  0. 1.0000     0. 
  -1   3  -7     14.89    3.83  0. 1.0000     0. 
   1   3   7     29.89    3.71  0. 1.0000     0. 
  -2  -3  -7     32.00    2.95  0. 1.0000     0. 
   2  -3   7     33.60    3.99  0. 1.0000     0. 
   2   3   7     17.22    3.64  0. 1.0000     0. 
   3   3   7     12.51    4.53  0. 1.0000     0. 
   4  -4  -7      4.28    3.74  0. 1.0000     0. 
  -4  -4   7     11.99    3.35  0. 1.0000     0. 
   4   4  -7      9.27    3.81  0. 1.0000     0. 
   4   4  -7      8.41    2.68  0. 1.0000     0. 
  -4   4   7      6.21    2.81  0. 1.0000     0. 
  -3  -4   7      0.46    4.47  0. 1.0000     0. 
  -3  -4   7      0.77    3.28  0. 1.0000     0. 
   3  -4  -7      3.07    3.64  0. 1.0000     0. 
   3   4  -7      2.47    2.40  0. 1.0000     0. 
  -3   4   7      2.69    3.13  0. 1.0000     0. 
  -3   4   7      1.58    2.94  0. 1.0000     0. 
   3   4  -7     -0.29    3.96  0. 1.0000     0. 
  -2  -4   7     54.54    4.20  0. 1.0000     0. 
   2  -4  -7     51.29    3.71  0. 1.0000     0. 
  -2  -4   7     58.08    5.17  0. 1.0000     0. 
   2  -4  -7     42.15    4.71  0. 1.0000     0. 
  -2   4   7     57.93    4.28  0. 1.0000     0. 
   2   4  -7     48.51    5.37  0. 1.0000     0. 
   1  -4  -7      4.44    3.19  0. 1.0000     0. 
  -1  -4   7     15.68    4.70  0. 1.0000     0. 
   1  -4  -7      7.69    3.86  0. 1.0000     0. 
  -1  -4   7     11.56    3.58  0. 1.0000     0. 
   1   4  -7     14.81    2.35  0. 1.0000     0. 
  -1   4   7     12.93    3.45  0. 1.0000     0. 
   1   4  -7      8.26    4.44  0. 1.0000     0. 
  -1   4   7     10.74    3.49  0. 1.0000     0. 
   0  -4   7     16.98    4.00  0. 1.0000     0. 
   0  -4  -7     13.55    3.76  0. 1.0000     0. 
   0  -4   7     19.66    4.50  0. 1.0000     0. 
   0  -4  -7     15.28    3.20  0. 1.0000     0. 
   0   4   7     16.95    3.52  0. 1.0000     0. 
   0   4  -7      8.26    5.18  0. 1.0000     0. 
   0   4  -7     17.65    2.41  0. 1.0000     0. 
   0   4   7     23.99    3.92  0. 1.0000     0. 
  -1  -4  -7     25.21    3.35  0. 1.0000     0. 
   1  -4   7      4.36    3.86  0. 1.0000     0. 
   1  -4   7     23.39    4.86  0. 1.0000     0. 
  -1  -4  -7     11.10    4.03  0. 1.0000     0. 
   1   4   7     19.82    3.89  0. 1.0000     0. 
  -1   4  -7      6.51    4.24  0. 1.0000     0. 
  -1   4  -7     18.10    2.55  0. 1.0000     0. 
   1   4   7     15.49    4.20  0. 1.0000     0. 
   2  -4   7      8.77    4.71  0. 1.0000     0. 
  -2  -4  -7      0.35    4.39  0. 1.0000     0. 
   2  -4   7      0.28    4.37  0. 1.0000     0. 
  -2  -4  -7      3.51    2.95  0. 1.0000     0. 
   2   4   7      4.37    4.18  0. 1.0000     0. 
   2   4   7      3.05    4.08  0. 1.0000     0. 
  -2   4  -7      1.98    2.12  0. 1.0000     0. 
  -2   0   8     58.71    2.18  0. 1.0000     0. 
   2   0  -8     59.69    2.39  0. 1.0000     0. 
   2   0  -8     57.31    2.33  0. 1.0000     0. 
   2   0  -8     58.87    1.64  0. 1.0000     0. 
  -2   0   8     57.95    1.90  0. 1.0000     0. 
  -2   0   8     60.07    2.16  0. 1.0000     0. 
  -1   0   8    885.72   15.12  0. 1.0000     0. 
   1   0  -8    849.35   14.16  0. 1.0000     0. 
  -1   0   8    863.81   13.28  0. 1.0000     0. 
  -1   0   8    893.10   16.30  0. 1.0000     0. 
   1   0  -8    886.72   13.83  0. 1.0000     0. 
   1   0  -8    882.85   18.27  0. 1.0000     0. 
  -1   0   8    861.02   15.89  0. 1.0000     0. 
   1   0  -8    875.25   18.08  0. 1.0000     0. 
   0   0  -8    701.04   11.71  0. 1.0000     0. 
   0   0  -8    714.93   15.90  0. 1.0000     0. 
   0   0  -8    706.66   11.50  0. 1.0000     0. 
   0   0   8    700.48   13.36  0. 1.0000     0. 
  -4  -1   8     54.70    2.71  0. 1.0000     0. 
   4   1  -8     51.66    2.92  0. 1.0000     0. 
  -4   1   8     55.34    2.40  0. 1.0000     0. 
  -3  -1   8      0.39    1.38  0. 1.0000     0. 
   3  -1  -8     -0.34    1.75  0. 1.0000     0. 
   3   1  -8      0.78    1.39  0. 1.0000     0. 
  -3   1   8     -2.48    1.75  0. 1.0000     0. 
  -3   1   8     -0.66    1.43  0. 1.0000     0. 
   3   1  -8      0.63    1.10  0. 1.0000     0. 
   1  -1   8    998.84   17.04  0. 1.0000     0. 
  -1  -1  -8   1040.01   17.12  0. 1.0000     0. 
  -1   1  -8   1038.01   17.34  0. 1.0000     0. 
  -1   1  -8   1048.10   23.35  0. 1.0000     0. 
   1   1   8   1069.06   19.09  0. 1.0000     0. 
   1   1   8   1030.87   19.95  0. 1.0000     0. 
   4  -2  -8     53.32    3.98  0. 1.0000     0. 
  -4  -2   8     57.73    3.07  0. 1.0000     0. 
  -4   2   8     53.25    2.88  0. 1.0000     0. 
   4   2  -8     57.02    2.72  0. 1.0000     0. 
  -4   2   8     56.44    3.31  0. 1.0000     0. 
   4   2  -8     57.84    3.50  0. 1.0000     0. 
   3  -2  -8      0.31    2.09  0. 1.0000     0. 
  -3  -2   8     -1.28    2.12  0. 1.0000     0. 
  -3   2   8      2.97    2.20  0. 1.0000     0. 
   3   2  -8      0.40    1.53  0. 1.0000     0. 
   3   2  -8      3.48    2.33  0. 1.0000     0. 
  -3   2   8      0.81    1.75  0. 1.0000     0. 
  -2  -2   8    128.06    4.52  0. 1.0000     0. 
   2  -2  -8    120.09    5.31  0. 1.0000     0. 
  -2   2   8    122.75    4.45  0. 1.0000     0. 
   2   2  -8    127.28    5.31  0. 1.0000     0. 
  -2   2   8    122.54    3.84  0. 1.0000     0. 
  -1  -2   8     31.96    2.96  0. 1.0000     0. 
   1  -2  -8     23.03    2.22  0. 1.0000     0. 
  -1  -2   8     26.40    3.22  0. 1.0000     0. 
   1  -2  -8     31.38    3.13  0. 1.0000     0. 
   1   2  -8     21.59    3.39  0. 1.0000     0. 
   1   2  -8     26.77    1.74  0. 1.0000     0. 
  -1   2   8     27.30    2.74  0. 1.0000     0. 
  -1   2   8     26.16    2.25  0. 1.0000     0. 
   0  -2  -8     94.40    3.36  0. 1.0000     0. 
   0  -2   8     96.50    4.47  0. 1.0000     0. 
   0  -2  -8     97.14    5.00  0. 1.0000     0. 
   0   2   8     95.96    4.34  0. 1.0000     0. 
   0   2   8     90.73    3.72  0. 1.0000     0. 
   0   2  -8     89.45    2.88  0. 1.0000     0. 
   1  -2   8    144.29    5.29  0. 1.0000     0. 
  -1  -2  -8    147.55    4.25  0. 1.0000     0. 
  -2  -2  -8     76.59    3.46  0. 1.0000     0. 
   2  -2   8     80.46    4.73  0. 1.0000     0. 
   5  -3  -8     20.48    3.91  0. 1.0000     0. 
  -5   3   8     24.28    2.66  0. 1.0000     0. 
   4  -3  -8    147.56    6.88  0. 1.0000     0. 
  -4   3   8    148.58    5.60  0. 1.0000     0. 
  -4   3   8    142.42    4.76  0. 1.0000     0. 
   4   3  -8    151.32    6.62  0. 1.0000     0. 
   3   3  -8     12.04    3.24  0. 1.0000     0. 
  -3   3   8     11.92    2.48  0. 1.0000     0. 
  -2  -3   8      2.12    3.89  0. 1.0000     0. 
  -2   3   8      0.08    2.30  0. 1.0000     0. 
   2   3  -8     -2.47    3.05  0. 1.0000     0. 
   1  -3  -8    148.62    4.66  0. 1.0000     0. 
  -1  -3   8    153.97    6.10  0. 1.0000     0. 
   0  -3   8      0.12    3.38  0. 1.0000     0. 
   0  -3  -8      1.58    2.48  0. 1.0000     0. 
   0   3  -8     -4.42    3.67  0. 1.0000     0. 
   0   3   8      0.87    2.55  0. 1.0000     0. 
  -1  -3  -8     30.27    4.34  0. 1.0000     0. 
  -1  -3  -8     35.42    3.10  0. 1.0000     0. 
   1  -3   8     39.82    4.24  0. 1.0000     0. 
   1   3   8     41.10    4.00  0. 1.0000     0. 
   1   3   8     30.91    4.20  0. 1.0000     0. 
   3   3   8      3.96    4.42  0. 1.0000     0. 
   3  -4  -8      2.42    3.72  0. 1.0000     0. 
  -3  -4   8      2.37    3.32  0. 1.0000     0. 
  -3  -4   8      5.52    4.96  0. 1.0000     0. 
   3   4  -8      5.17    4.14  0. 1.0000     0. 
  -3   4   8      2.58    2.78  0. 1.0000     0. 
  -3   4   8      5.36    3.86  0. 1.0000     0. 
   3   4  -8      7.16    2.45  0. 1.0000     0. 
  -2  -4   8     -0.83    4.44  0. 1.0000     0. 
   2  -4  -8     -3.23    3.56  0. 1.0000     0. 
  -2  -4   8      0.59    3.25  0. 1.0000     0. 
   2  -4  -8     -1.65    3.12  0. 1.0000     0. 
  -2   4   8      0.29    3.46  0. 1.0000     0. 
   2   4  -8      1.60    4.23  0. 1.0000     0. 
   2   4  -8     -1.67    2.20  0. 1.0000     0. 
  -2   4   8     -3.82    2.96  0. 1.0000     0. 
  -1  -4   8      2.48    3.33  0. 1.0000     0. 
   1  -4  -8     -0.85    3.49  0. 1.0000     0. 
  -1  -4   8      1.90    4.64  0. 1.0000     0. 
   1  -4  -8      0.15    3.31  0. 1.0000     0. 
   1   4  -8      0.08    2.24  0. 1.0000     0. 
  -1   4   8      1.55    3.54  0. 1.0000     0. 
   1   4  -8      0.17    4.29  0. 1.0000     0. 
  -1   4   8      3.47    3.20  0. 1.0000     0. 
   0  -4   8      5.51    3.90  0. 1.0000     0. 
   0  -4   8     14.74    4.98  0. 1.0000     0. 
   0  -4  -8     16.83    3.27  0. 1.0000     0. 
   0  -4  -8     12.00    4.00  0. 1.0000     0. 
   0   4  -8      9.10    5.08  0. 1.0000     0. 
   0   4  -8     12.29    2.34  0. 1.0000     0. 
   0   4   8     10.40    3.77  0. 1.0000     0. 
   0   4   8     11.86    3.50  0. 1.0000     0. 
  -1  -4  -8      0.99    3.02  0. 1.0000     0. 
   1  -4   8     -5.13    4.73  0. 1.0000     0. 
   1  -4   8      3.30    3.89  0. 1.0000     0. 
  -1  -4  -8     -2.54    3.69  0. 1.0000     0. 
  -1   4  -8     -4.66    4.11  0. 1.0000     0. 
  -1   4  -8     -0.86    2.34  0. 1.0000     0. 
   1   4   8      3.97    4.14  0. 1.0000     0. 
   1   4   8      1.17    3.48  0. 1.0000     0. 
   4   0  -9     -0.43    1.23  0. 1.0000     0. 
   4  -1  -9     46.28    3.20  0. 1.0000     0. 
  -4  -1   9     39.70    2.47  0. 1.0000     0. 
  -4   1   9     38.57    2.35  0. 1.0000     0. 
   4   1  -9     36.80    2.89  0. 1.0000     0. 
  -3  -1   9     48.01    2.70  0. 1.0000     0. 
   3  -1  -9     49.30    3.18  0. 1.0000     0. 
   3   1  -9     50.09    2.04  0. 1.0000     0. 
  -3   1   9     50.09    2.87  0. 1.0000     0. 
  -3   1   9     49.57    2.44  0. 1.0000     0. 
   3   1  -9     50.50    2.84  0. 1.0000     0. 
  -2  -1   9     40.05    2.41  0. 1.0000     0. 
   2  -1  -9     41.47    2.79  0. 1.0000     0. 
   2   1  -9     40.84    2.76  0. 1.0000     0. 
  -2   1   9     38.83    2.48  0. 1.0000     0. 
   2   1  -9     38.90    1.73  0. 1.0000     0. 
  -2   1   9     41.09    2.04  0. 1.0000     0. 
   1  -1  -9    287.36    7.91  0. 1.0000     0. 
  -1  -1   9    270.11    6.60  0. 1.0000     0. 
  -1  -1   9    275.98    7.04  0. 1.0000     0. 
   1  -1  -9    284.51    5.48  0. 1.0000     0. 
  -1   1   9    279.32    5.97  0. 1.0000     0. 
   1   1  -9    288.11    8.04  0. 1.0000     0. 
  -1   1   9    278.47    6.71  0. 1.0000     0. 
   1   1  -9    282.81    5.45  0. 1.0000     0. 
   0  -1  -9     13.66    1.60  0. 1.0000     0. 
   0  -1   9      9.45    2.25  0. 1.0000     0. 
   0   1  -9     10.54    1.29  0. 1.0000     0. 
   0   1   9     13.42    1.84  0. 1.0000     0. 
   0   1  -9     13.73    2.97  0. 1.0000     0. 
   0   1   9     10.09    2.20  0. 1.0000     0. 
  -1  -1  -9      5.71    1.59  0. 1.0000     0. 
   1  -1   9      5.28    2.33  0. 1.0000     0. 
   1   1   9     10.04    2.47  0. 1.0000     0. 
   1   1   9      6.36    2.32  0. 1.0000     0. 
  -1   1  -9      6.51    1.19  0. 1.0000     0. 
  -5  -2   9     -0.14    2.33  0. 1.0000     0. 
  -5   2   9      1.15    1.86  0. 1.0000     0. 
   5   2  -9      1.88    2.22  0. 1.0000     0. 
   3  -2  -9     43.46    3.60  0. 1.0000     0. 
  -3  -2   9     39.50    2.83  0. 1.0000     0. 
   3   2  -9     42.28    2.21  0. 1.0000     0. 
  -3   2   9     39.25    2.69  0. 1.0000     0. 
  -3   2   9     39.14    2.92  0. 1.0000     0. 
   3   2  -9     41.33    3.53  0. 1.0000     0. 
  -2  -2   9     72.15    3.74  0. 1.0000     0. 
   2  -2  -9     70.77    4.25  0. 1.0000     0. 
  -2   2   9     74.42    3.60  0. 1.0000     0. 
   2   2  -9     73.86    4.76  0. 1.0000     0. 
  -2   2   9     72.37    3.22  0. 1.0000     0. 
   2   2  -9     74.89    2.64  0. 1.0000     0. 
   1  -2  -9     -0.41    2.53  0. 1.0000     0. 
  -1  -2   9      2.06    3.02  0. 1.0000     0. 
  -1  -2   9      1.74    2.38  0. 1.0000     0. 
   1  -2  -9     -0.83    1.85  0. 1.0000     0. 
   1   2  -9      0.61    2.42  0. 1.0000     0. 
   1   2  -9      0.11    1.50  0. 1.0000     0. 
  -1   2   9      0.07    2.43  0. 1.0000     0. 
  -1   2   9     -0.88    1.96  0. 1.0000     0. 
   0  -2  -9      0.27    1.97  0. 1.0000     0. 
   0  -2   9      2.05    2.84  0. 1.0000     0. 
   0  -2  -9     -0.45    2.68  0. 1.0000     0. 
   0   2   9      3.12    2.79  0. 1.0000     0. 
   0   2  -9      2.02    1.52  0. 1.0000     0. 
   0   2  -9      2.03    2.94  0. 1.0000     0. 
   0   2   9     -1.58    2.10  0. 1.0000     0. 
  -2  -2  -9      2.59    2.40  0. 1.0000     0. 
   2  -2   9      2.70    3.29  0. 1.0000     0. 
   2   2   9      5.65    3.52  0. 1.0000     0. 
  -2   2  -9     -1.68    1.59  0. 1.0000     0. 
   5  -3  -9      0.37    3.22  0. 1.0000     0. 
  -5  -3   9      3.74    2.68  0. 1.0000     0. 
  -5   3   9     -1.59    2.27  0. 1.0000     0. 
   5   3  -9      1.10    2.80  0. 1.0000     0. 
  -4  -3   9    153.71    5.45  0. 1.0000     0. 
   4  -3  -9    143.88    6.93  0. 1.0000     0. 
   4   3  -9    159.12    6.67  0. 1.0000     0. 
  -4   3   9    150.07    4.94  0. 1.0000     0. 
  -4   3   9    152.98    5.67  0. 1.0000     0. 
   3  -3  -9      8.81    3.14  0. 1.0000     0. 
  -3  -3   9     10.70    2.66  0. 1.0000     0. 
  -3   3   9      8.63    3.02  0. 1.0000     0. 
   3   3  -9     10.70    2.08  0. 1.0000     0. 
   3   3  -9      9.93    3.62  0. 1.0000     0. 
  -3   3   9      6.71    2.52  0. 1.0000     0. 
  -2  -3   9    257.65    7.86  0. 1.0000     0. 
  -2  -3   9    246.47    7.87  0. 1.0000     0. 
   2  -3  -9    249.80    8.92  0. 1.0000     0. 
  -2   3   9    238.26    6.20  0. 1.0000     0. 
   2   3  -9    247.15    5.98  0. 1.0000     0. 
  -2   3   9    254.69    7.16  0. 1.0000     0. 
   2   3  -9    252.68    9.44  0. 1.0000     0. 
   1  -3  -9     16.37    3.55  0. 1.0000     0. 
  -1  -3   9     11.19    3.28  0. 1.0000     0. 
  -1  -3   9      9.47    3.87  0. 1.0000     0. 
  -1   3   9     10.07    3.15  0. 1.0000     0. 
   1   3  -9      3.52    3.64  0. 1.0000     0. 
   1   3  -9      7.02    2.01  0. 1.0000     0. 
  -1   3   9      8.05    2.74  0. 1.0000     0. 
   0  -3   9     -0.11    3.14  0. 1.0000     0. 
   0  -3   9     -2.44    3.31  0. 1.0000     0. 
   0  -3  -9     -0.08    3.07  0. 1.0000     0. 
   0  -3  -9      0.23    2.48  0. 1.0000     0. 
   0   3  -9      1.87    4.24  0. 1.0000     0. 
   0   3   9     -2.77    2.88  0. 1.0000     0. 
   0   3   9      4.75    3.03  0. 1.0000     0. 
   0   3  -9     -0.42    1.89  0. 1.0000     0. 
  -1  -3  -9    132.90    4.56  0. 1.0000     0. 
   1  -3   9    137.82    6.00  0. 1.0000     0. 
  -1   3  -9    135.11    4.17  0. 1.0000     0. 
   2  -3   9     -1.28    3.93  0. 1.0000     0. 
  -2  -3  -9     -0.79    2.41  0. 1.0000     0. 
  -2   3  -9     -0.07    1.86  0. 1.0000     0. 
   2   3   9      1.60    3.52  0. 1.0000     0. 
   2   3   9      1.67    3.67  0. 1.0000     0. 
  -1  -4   9     33.22    5.25  0. 1.0000     0. 
   4   0 -10      0.04    1.36  0. 1.0000     0. 
  -4   0  10     -0.09    1.47  0. 1.0000     0. 
   3   0 -10   2991.08   55.84  0. 1.0000     0. 
   2   0 -10      1.88    1.53  0. 1.0000     0. 
   2   0 -10      3.13    1.78  0. 1.0000     0. 
  -2   0  10      1.74    1.62  0. 1.0000     0. 
   1   0 -10    439.96   10.30  0. 1.0000     0. 
  -1   0  10    435.14    8.94  0. 1.0000     0. 
  -1   0  10    430.94    7.99  0. 1.0000     0. 
   1   0 -10    451.97   10.44  0. 1.0000     0. 
   0   0  10   2125.12   29.12  0. 1.0000     0. 
   0   0 -10   2061.09   34.47  0. 1.0000     0. 
   1   0  10   1122.54   19.97  0. 1.0000     0. 
  -1   0 -10   1060.12   18.17  0. 1.0000     0. 
   5   1 -10     32.75    2.76  0. 1.0000     0. 
  -4  -1  10    939.82   17.91  0. 1.0000     0. 
   4  -1 -10    925.29   21.41  0. 1.0000     0. 
   4   1 -10    921.41   19.36  0. 1.0000     0. 
  -4   1  10    927.22   16.77  0. 1.0000     0. 
   4   1 -10    903.39   16.23  0. 1.0000     0. 
   2  -1 -10     56.13    3.23  0. 1.0000     0. 
  -2  -1  10     54.71    2.97  0. 1.0000     0. 
  -2   1  10     58.40    2.61  0. 1.0000     0. 
   2   1 -10     52.77    2.12  0. 1.0000     0. 
  -2   1  10     52.21    3.02  0. 1.0000     0. 
   2   1 -10     55.80    3.71  0. 1.0000     0. 
   1  -1 -10     97.03    4.36  0. 1.0000     0. 
  -1  -1  10    101.23    3.95  0. 1.0000     0. 
   1  -1 -10     98.03    3.06  0. 1.0000     0. 
  -1  -1  10     97.77    4.09  0. 1.0000     0. 
   1   1 -10    100.24    2.75  0. 1.0000     0. 
   1   1 -10    103.12    5.01  0. 1.0000     0. 
  -1   1  10     97.99    3.27  0. 1.0000     0. 
  -1   1  10    102.96    3.94  0. 1.0000     0. 
   1  -1  10    769.53   14.33  0. 1.0000     0. 
  -1  -1 -10    767.43   13.55  0. 1.0000     0. 
   1   1  10    777.80   15.86  0. 1.0000     0. 
  -1   1 -10    772.20   13.48  0. 1.0000     0. 
   2   1  10    184.13    6.22  0. 1.0000     0. 
  -5  -2  10     90.06    4.15  0. 1.0000     0. 
  -4  -2  10    597.71   12.95  0. 1.0000     0. 
   4  -2 -10    595.63   15.71  0. 1.0000     0. 
  -4   2  10    594.11   11.79  0. 1.0000     0. 
  -4   2  10    612.13   12.85  0. 1.0000     0. 
   4   2 -10    605.66   11.24  0. 1.0000     0. 
   3  -2 -10      9.94    2.78  0. 1.0000     0. 
  -3  -2  10      9.00    2.36  0. 1.0000     0. 
   3   2 -10      8.74    1.73  0. 1.0000     0. 
  -3   2  10      4.46    2.14  0. 1.0000     0. 
   3   2 -10      7.81    2.66  0. 1.0000     0. 
  -3   2  10      4.25    2.53  0. 1.0000     0. 
   0  -2  10     -0.91    3.25  0. 1.0000     0. 
   0  -2 -10     -0.10    2.11  0. 1.0000     0. 
   0  -2 -10     -0.41    2.90  0. 1.0000     0. 
   0  -2  10     -0.54    2.72  0. 1.0000     0. 
   0   2  10      1.73    2.93  0. 1.0000     0. 
   0   2 -10      3.20    3.82  0. 1.0000     0. 
   0   2 -10     -1.84    1.62  0. 1.0000     0. 
   0   2  10     -1.82    2.30  0. 1.0000     0. 
  -1  -2 -10     21.59    2.39  0. 1.0000     0. 
   1   2  10     25.24    3.59  0. 1.0000     0. 
   1   2  10     18.80    3.05  0. 1.0000     0. 
  -4  -3  10      2.22    2.55  0. 1.0000     0. 
   4  -3 -10      0.09    3.29  0. 1.0000     0. 
   4   3 -10     -0.60    2.03  0. 1.0000     0. 
   4   3 -10      4.29    3.27  0. 1.0000     0. 
  -4   3  10     -0.18    2.95  0. 1.0000     0. 
  -3  -3  10     31.41    3.16  0. 1.0000     0. 
   3  -3 -10     22.17    3.70  0. 1.0000     0. 
   3   3 -10     26.13    2.45  0. 1.0000     0. 
  -3   3  10     26.60    3.42  0. 1.0000     0. 
   2  -3 -10    128.26    6.65  0. 1.0000     0. 
  -2  -3  10    134.62    5.75  0. 1.0000     0. 
   2   3 -10    135.34    4.03  0. 1.0000     0. 
  -2   3  10    140.71    5.30  0. 1.0000     0. 
   1  -3 -10    164.10    7.45  0. 1.0000     0. 
  -1  -3  10    164.71    6.66  0. 1.0000     0. 
   1   3 -10    179.43    4.63  0. 1.0000     0. 
  -1   3  10    182.48    6.28  0. 1.0000     0. 
   0  -3  10     59.44    4.82  0. 1.0000     0. 
   0  -3 -10     69.97    5.05  0. 1.0000     0. 
   0   3 -10     70.71    3.10  0. 1.0000     0. 
   0   3  10     80.93    4.53  0. 1.0000     0. 
  -1  -3 -10      1.77    3.71  0. 1.0000     0. 
  -1   3 -10      5.03    2.12  0. 1.0000     0. 
   1   3  10      3.25    3.72  0. 1.0000     0. 
  -4   0  11     -0.14    1.71  0. 1.0000     0. 
   4   0 -11     -0.46    1.65  0. 1.0000     0. 
  -2   0  11      1.03    2.34  0. 1.0000     0. 
   2   0 -11     -0.18    1.76  0. 1.0000     0. 
  -2   0  11      1.04    1.38  0. 1.0000     0. 
   2   0 -11      0.42    1.27  0. 1.0000     0. 
  -1   0  11     -0.15    1.85  0. 1.0000     0. 
   1   0 -11     -0.34    2.31  0. 1.0000     0. 
   1   0  11      1.26    2.10  0. 1.0000     0. 
  -1   0 -11      0.94    1.06  0. 1.0000     0. 
   5   1 -11    861.78   18.76  0. 1.0000     0. 
  -5   1  11    854.41   16.07  0. 1.0000     0. 
   4  -1 -11      2.00    2.19  0. 1.0000     0. 
  -4  -1  11      1.57    2.06  0. 1.0000     0. 
   4   1 -11      2.52    1.70  0. 1.0000     0. 
   4   1 -11      2.53    1.93  0. 1.0000     0. 
  -4   1  11      2.54    1.80  0. 1.0000     0. 
  -3  -1  11    135.00    4.58  0. 1.0000     0. 
   3  -1 -11    139.00    5.35  0. 1.0000     0. 
  -3   1  11    138.02    4.58  0. 1.0000     0. 
   3   1 -11    139.54    5.28  0. 1.0000     0. 
  -3   1  11    139.55    4.14  0. 1.0000     0. 
   3   1 -11    137.95    3.60  0. 1.0000     0. 
  -2  -1  11   1041.99   18.06  0. 1.0000     0. 
   2  -1 -11   1072.08   23.22  0. 1.0000     0. 
  -2  -1  11   1072.58   20.77  0. 1.0000     0. 
   2   1 -11   1080.11   22.82  0. 1.0000     0. 
   2   1 -11   1056.23   17.89  0. 1.0000     0. 
  -2   1  11   1063.84   19.44  0. 1.0000     0. 
  -2   1  11   1051.64   19.97  0. 1.0000     0. 
  -1  -1  11    202.26    6.05  0. 1.0000     0. 
   1  -1 -11    211.76    6.80  0. 1.0000     0. 
   1  -1 -11    210.91    4.91  0. 1.0000     0. 
  -1  -1  11    208.33    6.04  0. 1.0000     0. 
   1   1 -11    206.69    4.59  0. 1.0000     0. 
   1   1 -11    212.13    7.22  0. 1.0000     0. 
  -1   1  11    209.02    5.91  0. 1.0000     0. 
  -1   1  11    210.34    5.35  0. 1.0000     0. 
   0  -1  11     43.37    3.49  0. 1.0000     0. 
   0  -1 -11     47.46    2.43  0. 1.0000     0. 
   0   1 -11     45.57    3.85  0. 1.0000     0. 
   0   1  11     42.44    2.94  0. 1.0000     0. 
   0   1  11     42.26    3.20  0. 1.0000     0. 
   0   1 -11     43.80    1.93  0. 1.0000     0. 
   1  -1  11    382.19    9.25  0. 1.0000     0. 
  -1  -1 -11    404.11    8.07  0. 1.0000     0. 
  -1   1 -11    395.38    7.59  0. 1.0000     0. 
   1   1  11    394.39    9.88  0. 1.0000     0. 
   5  -2 -11     42.74    4.37  0. 1.0000     0. 
  -5  -2  11     50.15    3.46  0. 1.0000     0. 
  -3  -2  11    217.17    6.52  0. 1.0000     0. 
   3  -2 -11    230.17    8.10  0. 1.0000     0. 
   3   2 -11    224.82    5.17  0. 1.0000     0. 
   3   2 -11    223.16    7.89  0. 1.0000     0. 
  -3   2  11    227.09    5.85  0. 1.0000     0. 
  -3   2  11    225.34    6.51  0. 1.0000     0. 
  -2  -2  11     16.63    3.01  0. 1.0000     0. 
   2  -2 -11     14.91    2.87  0. 1.0000     0. 
   2  -2 -11     15.05    2.18  0. 1.0000     0. 
  -2  -2  11     20.73    3.90  0. 1.0000     0. 
   2   2 -11     16.90    1.85  0. 1.0000     0. 
  -2   2  11     13.75    2.20  0. 1.0000     0. 
   2   2 -11     12.89    3.21  0. 1.0000     0. 
  -2   2  11     13.97    2.86  0. 1.0000     0. 
  -1  -2  11    752.89   16.48  0. 1.0000     0. 
   1  -2 -11    762.43   18.70  0. 1.0000     0. 
   1  -2 -11    745.23   13.58  0. 1.0000     0. 
  -1  -2  11    763.97   13.91  0. 1.0000     0. 
  -1   2  11    733.07   14.90  0. 1.0000     0. 
  -1   2  11    750.40   15.69  0. 1.0000     0. 
   1   2 -11    764.89   19.10  0. 1.0000     0. 
   1   2 -11    763.40   13.36  0. 1.0000     0. 
   0  -2 -11    146.82    4.41  0. 1.0000     0. 
   0  -2  11    147.79    5.66  0. 1.0000     0. 
   0  -2 -11    139.82    7.07  0. 1.0000     0. 
   0   2 -11    145.20    3.78  0. 1.0000     0. 
   0   2 -11    148.37    7.86  0. 1.0000     0. 
   0   2  11    143.92    4.92  0. 1.0000     0. 
   0   2  11    149.24    5.65  0. 1.0000     0. 
  -6  -3  11     -0.48    2.38  0. 1.0000     0. 
  -5   3  11    158.90    5.38  0. 1.0000     0. 
  -4  -3  11      7.73    2.79  0. 1.0000     0. 
   4  -3 -11      9.92    3.82  0. 1.0000     0. 
  -4   3  11      9.64    3.28  0. 1.0000     0. 
   4   3 -11     12.61    2.32  0. 1.0000     0. 
  -3  -3  11      9.04    4.42  0. 1.0000     0. 
  -3  -3  11      9.59    3.00  0. 1.0000     0. 
   3  -3 -11      1.21    3.25  0. 1.0000     0. 
  -3   3  11      8.61    3.28  0. 1.0000     0. 
  -3   3  11      9.44    2.82  0. 1.0000     0. 
   3   3 -11      2.76    2.09  0. 1.0000     0. 
   2  -3 -11    107.26    4.28  0. 1.0000     0. 
   2  -3 -11    108.63    6.17  0. 1.0000     0. 
  -2  -3  11    113.98    6.09  0. 1.0000     0. 
  -2  -3  11    113.73    5.35  0. 1.0000     0. 
   2   3 -11    117.06    3.78  0. 1.0000     0. 
  -2   3  11    107.34    5.11  0. 1.0000     0. 
  -2   3  11    110.17    4.54  0. 1.0000     0. 
  -1  -3  11      8.68    3.51  0. 1.0000     0. 
   1  -3 -11      8.46    3.42  0. 1.0000     0. 
  -1  -3  11      5.91    4.30  0. 1.0000     0. 
   1  -3 -11      7.70    2.96  0. 1.0000     0. 
  -1   3  11      8.82    3.13  0. 1.0000     0. 
  -1   3  11      8.25    3.44  0. 1.0000     0. 
   1   3 -11      6.40    2.04  0. 1.0000     0. 
   1   3 -11      3.06    3.91  0. 1.0000     0. 
  -1  -3 -11     12.17    4.60  0. 1.0000     0. 
   1  -3  11     20.58    4.81  0. 1.0000     0. 
  -1  -3 -11     17.07    2.84  0. 1.0000     0. 
   1  -3  11     12.22    4.46  0. 1.0000     0. 
  -1   3 -11     10.42    4.28  0. 1.0000     0. 
   1   3  11     11.40    4.17  0. 1.0000     0. 
  -1   3 -11     19.66    2.32  0. 1.0000     0. 
  -2  -3 -11      1.87    2.86  0. 1.0000     0. 
   2  -3  11      2.29    4.52  0. 1.0000     0. 
  -2   3 -11      1.75    2.15  0. 1.0000     0. 
   2   3  11      7.39    4.05  0. 1.0000     0. 
   4   0 -12   1590.00   31.06  0. 1.0000     0. 
   3   0 -12    227.49    6.54  0. 1.0000     0. 
   3   0 -12    233.57    4.91  0. 1.0000     0. 
   2   0 -12    584.36   10.14  0. 1.0000     0. 
   2   0 -12    588.44   13.58  0. 1.0000     0. 
   1   0 -12      2.31    1.10  0. 1.0000     0. 
   1   0 -12      3.82    2.18  0. 1.0000     0. 
   0   0 -12    744.40   12.64  0. 1.0000     0. 
  -1   0 -12    500.84    8.89  0. 1.0000     0. 
   5   1 -12     55.84    3.57  0. 1.0000     0. 
  -5   1  12     53.20    2.98  0. 1.0000     0. 
   3  -1 -12   1201.90   26.41  0. 1.0000     0. 
  -3  -1  12   1209.81   22.78  0. 1.0000     0. 
   3   1 -12   1201.87   24.80  0. 1.0000     0. 
   3   1 -12   1206.86   20.18  0. 1.0000     0. 
  -3   1  12   1148.83   21.24  0. 1.0000     0. 
  -3   1  12   1201.90   22.57  0. 1.0000     0. 
  -2  -1  12    480.46   11.29  0. 1.0000     0. 
   2  -1 -12    490.87   12.68  0. 1.0000     0. 
   2  -1 -12    505.19    9.00  0. 1.0000     0. 
  -2  -1  12    493.49   10.12  0. 1.0000     0. 
  -2   1  12    496.06   10.00  0. 1.0000     0. 
  -2   1  12    495.64   10.79  0. 1.0000     0. 
   2   1 -12    493.21    9.19  0. 1.0000     0. 
   2   1 -12    534.36   13.27  0. 1.0000     0. 
  -1  -1  12     28.98    3.47  0. 1.0000     0. 
   1  -1 -12     26.58    3.07  0. 1.0000     0. 
   1  -1 -12     27.77    2.17  0. 1.0000     0. 
  -1  -1  12     30.63    2.88  0. 1.0000     0. 
   1   1 -12     27.95    3.57  0. 1.0000     0. 
  -1   1  12     30.11    2.50  0. 1.0000     0. 
  -1   1  12     27.54    2.91  0. 1.0000     0. 
   1   1 -12     31.34    1.86  0. 1.0000     0. 
  -1  -1 -12     12.48    2.51  0. 1.0000     0. 
   1  -1  12     16.14    3.45  0. 1.0000     0. 
   1   1  12     15.47    3.43  0. 1.0000     0. 
  -1   1 -12     16.52    1.79  0. 1.0000     0. 
   2   1  12    323.89    8.79  0. 1.0000     0. 
   6   2 -12      3.09    2.49  0. 1.0000     0. 
  -5   2  12     13.97    2.40  0. 1.0000     0. 
   5   2 -12     16.25    2.98  0. 1.0000     0. 
  -4  -2  12     25.15    2.86  0. 1.0000     0. 
   4  -2 -12     20.93    3.51  0. 1.0000     0. 
  -4   2  12     23.12    3.14  0. 1.0000     0. 
   4   2 -12     24.67    2.19  0. 1.0000     0. 
   3  -2 -12    357.24   10.92  0. 1.0000     0. 
  -3  -2  12    356.42    9.04  0. 1.0000     0. 
   3   2 -12    351.08    7.31  0. 1.0000     0. 
  -3   2  12    349.08    8.90  0. 1.0000     0. 
   1  -2 -12    287.39   10.04  0. 1.0000     0. 
  -1  -2  12    295.48    8.56  0. 1.0000     0. 
   1   2 -12    308.44    6.30  0. 1.0000     0. 
  -1   2  12    298.70    8.19  0. 1.0000     0. 
   0  -2  12      3.02    3.42  0. 1.0000     0. 
   0  -2 -12      2.26    3.44  0. 1.0000     0. 
   0   2  12      3.73    3.26  0. 1.0000     0. 
   0   2 -12      2.63    1.71  0. 1.0000     0. 
  -1  -2 -12    455.46    9.36  0. 1.0000     0. 
   1  -2  12    475.08   10.44  0. 1.0000     0. 
   1   2  12    440.14   11.06  0. 1.0000     0. 
  -2   2 -12     18.64    2.07  0. 1.0000     0. 
  -6  -3  12     -1.80    3.37  0. 1.0000     0. 
   6   3 -12      0.23    3.33  0. 1.0000     0. 
   5  -3 -12     16.09    3.92  0. 1.0000     0. 
  -5  -3  12     16.15    3.25  0. 1.0000     0. 
   5   3 -12      7.77    2.66  0. 1.0000     0. 
  -5   3  12     14.01    3.03  0. 1.0000     0. 
   5   3 -12     14.75    3.91  0. 1.0000     0. 
   4  -3 -12      4.48    3.50  0. 1.0000     0. 
  -4  -3  12     -0.09    3.09  0. 1.0000     0. 
   4   3 -12      2.39    2.26  0. 1.0000     0. 
  -4   3  12      4.59    2.73  0. 1.0000     0. 
  -4   3  12      4.26    3.17  0. 1.0000     0. 
   4   3 -12      2.94    3.78  0. 1.0000     0. 
  -3  -3  12     -1.24    2.76  0. 1.0000     0. 
  -3  -3  12     -1.60    4.67  0. 1.0000     0. 
   3  -3 -12      0.26    3.22  0. 1.0000     0. 
   3   3 -12     -1.10    3.48  0. 1.0000     0. 
  -3   3  12     -1.67    3.40  0. 1.0000     0. 
   3   3 -12     -0.69    2.08  0. 1.0000     0. 
  -3   3  12      3.99    2.93  0. 1.0000     0. 
   2  -3 -12    242.37    8.94  0. 1.0000     0. 
  -2  -3  12    240.58    8.01  0. 1.0000     0. 
   2  -3 -12    235.45    6.30  0. 1.0000     0. 
  -2  -3  12    220.35    7.64  0. 1.0000     0. 
  -2   3  12    231.73    6.83  0. 1.0000     0. 
   2   3 -12    236.88    9.82  0. 1.0000     0. 
  -2   3  12    242.03    7.46  0. 1.0000     0. 
   2   3 -12    223.79    5.67  0. 1.0000     0. 
  -1  -3  12     -0.89    4.38  0. 1.0000     0. 
   1  -3 -12     -2.57    2.92  0. 1.0000     0. 
  -1  -3  12     -5.82    3.45  0. 1.0000     0. 
   1  -3 -12      0.71    3.34  0. 1.0000     0. 
  -1   3  12     -2.67    2.98  0. 1.0000     0. 
  -1   3  12      1.52    3.44  0. 1.0000     0. 
   1   3 -12     -4.39    4.32  0. 1.0000     0. 
   1   3 -12      0.08    2.03  0. 1.0000     0. 
   0  -3 -12      7.27    3.08  0. 1.0000     0. 
   0  -3  12      3.97    4.57  0. 1.0000     0. 
   0  -3  12     -1.38    3.37  0. 1.0000     0. 
   0  -3 -12      1.49    3.39  0. 1.0000     0. 
   0   3 -12      4.22    3.98  0. 1.0000     0. 
   0   3  12      2.50    3.71  0. 1.0000     0. 
   0   3 -12      2.96    2.24  0. 1.0000     0. 
   0   3  12      2.59    3.78  0. 1.0000     0. 
  -1  -3 -12     16.57    2.79  0. 1.0000     0. 
  -1  -3 -12      8.15    4.44  0. 1.0000     0. 
   1  -3  12     15.80    4.77  0. 1.0000     0. 
   1  -3  12     20.39    4.82  0. 1.0000     0. 
   1   3  12     12.13    3.62  0. 1.0000     0. 
  -1   3 -12      8.69    4.01  0. 1.0000     0. 
   1   3  12     13.86    4.26  0. 1.0000     0. 
  -1   3 -12     11.93    2.16  0. 1.0000     0. 
  -2  -3 -12    224.29    6.94  0. 1.0000     0. 
  -4  -1  13      1.03    2.22  0. 1.0000     0. 
   4  -1 -13      2.81    2.54  0. 1.0000     0. 
  -4   1  13      2.53    2.13  0. 1.0000     0. 
   4   1 -13      2.14    2.60  0. 1.0000     0. 
  -4   1  13      2.34    2.61  0. 1.0000     0. 
   4   1 -13      2.42    1.82  0. 1.0000     0. 
  -3  -1  13      7.79    2.20  0. 1.0000     0. 
   3  -1 -13      6.96    2.41  0. 1.0000     0. 
   3   1 -13      6.38    1.65  0. 1.0000     0. 
  -3   1  13      6.97    2.68  0. 1.0000     0. 
  -3   1  13      5.86    2.22  0. 1.0000     0. 
   3   1 -13      9.42    3.09  0. 1.0000     0. 
   2  -1 -13     12.19    2.57  0. 1.0000     0. 
   2  -1 -13     12.25    2.08  0. 1.0000     0. 
  -2  -1  13     12.99    3.34  0. 1.0000     0. 
  -2  -1  13     17.57    2.72  0. 1.0000     0. 
   2   1 -13     18.39    3.20  0. 1.0000     0. 
  -2   1  13     14.98    2.36  0. 1.0000     0. 
   2   1 -13     14.34    1.72  0. 1.0000     0. 
  -2   1  13     15.49    2.76  0. 1.0000     0. 
   1  -1 -13      9.00    2.04  0. 1.0000     0. 
  -1  -1  13      8.21    2.87  0. 1.0000     0. 
   1  -1 -13      9.08    2.57  0. 1.0000     0. 
  -1  -1  13      9.70    2.71  0. 1.0000     0. 
  -1   1  13     13.36    2.84  0. 1.0000     0. 
   1   1 -13     11.89    3.52  0. 1.0000     0. 
   1   1 -13      9.92    1.75  0. 1.0000     0. 
  -1   1  13      9.16    2.42  0. 1.0000     0. 
   0  -1 -13    100.77    3.44  0. 1.0000     0. 
   0  -1  13     94.61    4.87  0. 1.0000     0. 
   0   1  13     98.77    4.07  0. 1.0000     0. 
   0   1  13     98.63    4.66  0. 1.0000     0. 
   0   1 -13     98.84    5.93  0. 1.0000     0. 
   0   1 -13     99.01    3.03  0. 1.0000     0. 
   2   1  13    126.56    5.48  0. 1.0000     0. 
   6   2 -13      7.44    2.86  0. 1.0000     0. 
  -5  -2  13     49.71    3.69  0. 1.0000     0. 
   5  -2 -13     46.45    4.62  0. 1.0000     0. 
   5   2 -13     45.76    4.00  0. 1.0000     0. 
  -5   2  13     50.06    3.29  0. 1.0000     0. 
  -4   2  13     60.95    3.46  0. 1.0000     0. 
   4   2 -13     59.09    4.70  0. 1.0000     0. 
  -3  -2  13      2.74    4.11  0. 1.0000     0. 
   3   2 -13      0.95    3.21  0. 1.0000     0. 
  -3   2  13      3.02    2.49  0. 1.0000     0. 
  -2  -2  13     -0.58    3.84  0. 1.0000     0. 
   2   2 -13     -2.60    3.46  0. 1.0000     0. 
  -2   2  13      4.93    2.74  0. 1.0000     0. 
   1  -2 -13     98.74    3.75  0. 1.0000     0. 
  -1  -2  13    101.54    5.52  0. 1.0000     0. 
   1   2 -13     89.56    6.42  0. 1.0000     0. 
  -1   2  13     97.62    4.23  0. 1.0000     0. 
   0  -2 -13     12.68    2.70  0. 1.0000     0. 
   0  -2  13     13.06    4.11  0. 1.0000     0. 
   0   2  13     15.44    3.36  0. 1.0000     0. 
   0   2 -13     15.92    3.85  0. 1.0000     0. 
  -1  -2 -13    176.90    5.14  0. 1.0000     0. 
   1  -2  13    167.66    6.26  0. 1.0000     0. 
  -1   2 -13    177.32    4.57  0. 1.0000     0. 
   2   2  13     14.39    4.65  0. 1.0000     0. 
  -2   2 -13     -0.34    1.73  0. 1.0000     0. 
   5   3 -13     57.84    5.16  0. 1.0000     0. 
  -5   3  13     53.41    3.65  0. 1.0000     0. 
  -4  -3  13     87.89    5.29  0. 1.0000     0. 
   4  -3 -13     86.12    6.07  0. 1.0000     0. 
  -4   3  13     80.55    4.47  0. 1.0000     0. 
  -4   3  13     75.96    5.06  0. 1.0000     0. 
   4   3 -13     86.65    3.86  0. 1.0000     0. 
   4   3 -13     76.92    6.13  0. 1.0000     0. 
  -3  -3  13     83.30    4.83  0. 1.0000     0. 
  -3  -3  13     80.44    5.86  0. 1.0000     0. 
   3  -3 -13     77.78    4.09  0. 1.0000     0. 
   3  -3 -13     82.00    5.54  0. 1.0000     0. 
  -3   3  13     77.59    4.93  0. 1.0000     0. 
   3   3 -13     77.86    3.48  0. 1.0000     0. 
   3   3 -13     76.24    6.13  0. 1.0000     0. 
  -3   3  13     82.56    4.24  0. 1.0000     0. 
  -2  -3  13     85.99    5.75  0. 1.0000     0. 
   2  -3 -13     91.28    4.03  0. 1.0000     0. 
   2  -3 -13     80.78    5.63  0. 1.0000     0. 
  -2  -3  13     98.90    5.35  0. 1.0000     0. 
  -2   3  13     79.65    4.92  0. 1.0000     0. 
   2   3 -13     78.87    6.53  0. 1.0000     0. 
  -2   3  13     87.53    4.36  0. 1.0000     0. 
   2   3 -13     88.37    3.53  0. 1.0000     0. 
  -1  -3  13     25.09    4.60  0. 1.0000     0. 
   1  -3 -13     27.68    3.11  0. 1.0000     0. 
  -1  -3  13     20.36    3.98  0. 1.0000     0. 
   1  -3 -13     35.26    4.47  0. 1.0000     0. 
  -1   3  13     30.09    4.10  0. 1.0000     0. 
  -1   3  13     28.42    3.75  0. 1.0000     0. 
   1   3 -13     24.05    2.58  0. 1.0000     0. 
   1   3 -13     20.82    5.13  0. 1.0000     0. 
   0  -3 -13    223.01    6.26  0. 1.0000     0. 
   0  -3  13    207.74    8.14  0. 1.0000     0. 
   0   3  13    203.50    7.63  0. 1.0000     0. 
   0   3  13    220.30    7.64  0. 1.0000     0. 
   1  -3  13      4.78    4.36  0. 1.0000     0. 
   1  -3  13      2.38    4.18  0. 1.0000     0. 
  -1  -3 -13     -0.12    4.21  0. 1.0000     0. 
  -1  -3 -13     -0.59    2.91  0. 1.0000     0. 
  -1   3 -13      0.08    2.07  0. 1.0000     0. 
   1   3  13     -1.17    3.91  0. 1.0000     0. 
  -1   3 -13     -0.71    3.58  0. 1.0000     0. 
   1   3  13     -3.93    4.05  0. 1.0000     0. 
  -5  -1  14     52.87    3.60  0. 1.0000     0. 
  -5   1  14     50.61    2.97  0. 1.0000     0. 
   5   1 -14     47.00    3.66  0. 1.0000     0. 
  -4  -1  14    466.98   10.87  0. 1.0000     0. 
   4  -1 -14    471.90   12.74  0. 1.0000     0. 
  -4   1  14    461.61   11.06  0. 1.0000     0. 
   4   1 -14    468.76    9.04  0. 1.0000     0. 
   4   1 -14    465.89   12.03  0. 1.0000     0. 
  -4   1  14    463.45    9.68  0. 1.0000     0. 
   0  -1  14     55.58    4.34  0. 1.0000     0. 
   0  -1 -14     55.20    4.11  0. 1.0000     0. 
   0  -1 -14     54.22    2.77  0. 1.0000     0. 
   0   1 -14     44.81    4.46  0. 1.0000     0. 
   0   1  14     54.29    4.02  0. 1.0000     0. 
   0   1 -14     56.18    2.45  0. 1.0000     0. 
   0   1  14     60.39    3.89  0. 1.0000     0. 
  -1   1 -14     19.75    2.21  0. 1.0000     0. 
   1   1  14     23.93    3.62  0. 1.0000     0. 
   2   1  14    390.11   10.23  0. 1.0000     0. 
   6   2 -14    117.06    5.55  0. 1.0000     0. 
  -6   2  14    106.66    4.03  0. 1.0000     0. 
  -5  -2  14    231.29    7.17  0. 1.0000     0. 
   5  -2 -14    232.25    8.97  0. 1.0000     0. 
   5   2 -14    238.32    6.05  0. 1.0000     0. 
  -5   2  14    232.55    6.40  0. 1.0000     0. 
   5   2 -14    233.08    8.36  0. 1.0000     0. 
  -4  -2  14     -0.36    3.15  0. 1.0000     0. 
   4  -2 -14     -0.18    3.28  0. 1.0000     0. 
  -4   2  14      2.54    3.50  0. 1.0000     0. 
  -4   2  14     -0.27    2.48  0. 1.0000     0. 
   4   2 -14     -1.16    2.19  0. 1.0000     0. 
   4   2 -14      6.24    3.50  0. 1.0000     0. 
   3  -2 -14     22.32    2.59  0. 1.0000     0. 
  -3  -2  14     20.44    3.17  0. 1.0000     0. 
  -3  -2  14     23.08    4.90  0. 1.0000     0. 
   3   2 -14     19.75    2.23  0. 1.0000     0. 
   3   2 -14     22.47    3.98  0. 1.0000     0. 
  -3   2  14     20.83    2.93  0. 1.0000     0. 
  -2  -2  14     60.63    5.12  0. 1.0000     0. 
   2  -2 -14     51.48    3.19  0. 1.0000     0. 
  -2  -2  14     62.29    4.30  0. 1.0000     0. 
  -2   2  14     44.53    3.59  0. 1.0000     0. 
   2   2 -14     54.34    4.96  0. 1.0000     0. 
   2   2 -14     61.92    2.70  0. 1.0000     0. 
   1  -2 -14      4.17    3.26  0. 1.0000     0. 
  -1  -2  14      3.99    3.53  0. 1.0000     0. 
   1  -2 -14      6.75    2.65  0. 1.0000     0. 
  -1  -2  14      2.91    3.14  0. 1.0000     0. 
   1   2 -14      1.64    1.95  0. 1.0000     0. 
  -1   2  14      1.75    3.28  0. 1.0000     0. 
  -1   2  14      0.28    2.86  0. 1.0000     0. 
   1   2 -14      0.17    4.17  0. 1.0000     0. 
   0  -2 -14      7.22    3.97  0. 1.0000     0. 
   0  -2 -14      8.58    2.63  0. 1.0000     0. 
   0  -2  14      7.38    4.11  0. 1.0000     0. 
   0  -2  14      2.04    3.47  0. 1.0000     0. 
   0   2 -14      3.14    3.23  0. 1.0000     0. 
   0   2 -14      4.70    1.88  0. 1.0000     0. 
   0   2  14      6.28    3.63  0. 1.0000     0. 
   0   2  14      4.66    3.21  0. 1.0000     0. 
   2   2  14      3.25    4.00  0. 1.0000     0. 
   4  -3 -14     -2.41    3.72  0. 1.0000     0. 
  -4  -3  14      0.33    4.92  0. 1.0000     0. 
  -4  -3  14      2.64    3.41  0. 1.0000     0. 
   4   3 -14      0.29    4.03  0. 1.0000     0. 
  -4   3  14      2.31    3.88  0. 1.0000     0. 
   4   3 -14      1.14    2.41  0. 1.0000     0. 
  -4   3  14      0.29    2.92  0. 1.0000     0. 
  -3  -3  14      0.93    4.57  0. 1.0000     0. 
   3  -3 -14      2.68    2.83  0. 1.0000     0. 
   3  -3 -14      0.46    3.54  0. 1.0000     0. 
  -3  -3  14     -3.93    3.20  0. 1.0000     0. 
  -3   3  14      0.60    2.98  0. 1.0000     0. 
   3   3 -14      1.39    2.24  0. 1.0000     0. 
   3   3 -14     -1.18    3.75  0. 1.0000     0. 
  -3   3  14      1.19    3.55  0. 1.0000     0. 
  -2  -3  14     17.41    3.74  0. 1.0000     0. 
   2  -3 -14     18.22    4.02  0. 1.0000     0. 
  -2  -3  14     21.12    5.06  0. 1.0000     0. 
   2  -3 -14     18.39    3.45  0. 1.0000     0. 
   2   3 -14     17.05    4.48  0. 1.0000     0. 
   2   3 -14     20.10    2.51  0. 1.0000     0. 
  -2   3  14     20.88    3.65  0. 1.0000     0. 
  -2   3  14     20.25    3.87  0. 1.0000     0. 
   1  -3 -14     -1.89    3.48  0. 1.0000     0. 
  -1  -3  14     -2.38    3.48  0. 1.0000     0. 
  -1  -3  14     -2.69    4.23  0. 1.0000     0. 
   1  -3 -14      0.26    2.92  0. 1.0000     0. 
   1   3 -14     -1.62    5.02  0. 1.0000     0. 
  -1   3  14     -3.95    3.42  0. 1.0000     0. 
  -1   3  14     -0.83    3.55  0. 1.0000     0. 
   1   3 -14     -3.33    2.32  0. 1.0000     0. 
   0  -3  14     16.69    4.91  0. 1.0000     0. 
   0   3  14     15.93    3.86  0. 1.0000     0. 
   0   3 -14      9.05    4.11  0. 1.0000     0. 
  -5  -1  15    304.31    7.92  0. 1.0000     0. 
   5   1 -15    298.98    9.31  0. 1.0000     0. 
  -5   1  15    294.08    7.29  0. 1.0000     0. 
  -4  -1  15    149.13    5.38  0. 1.0000     0. 
   4   1 -15    151.80    4.13  0. 1.0000     0. 
   4   1 -15    158.78    6.72  0. 1.0000     0. 
  -4   1  15    148.90    4.95  0. 1.0000     0. 
  -4   1  15    149.14    5.57  0. 1.0000     0. 
  -3  -1  15     66.61    3.67  0. 1.0000     0. 
  -3  -1  15     63.58    4.50  0. 1.0000     0. 
  -3   1  15     68.41    3.34  0. 1.0000     0. 
   3   1 -15     80.65    5.47  0. 1.0000     0. 
  -3   1  15     65.21    4.00  0. 1.0000     0. 
   3   1 -15     65.25    2.75  0. 1.0000     0. 
  -2  -1  15    231.33    7.40  0. 1.0000     0. 
  -2  -1  15    237.42    6.99  0. 1.0000     0. 
   2   1 -15    233.79    8.83  0. 1.0000     0. 
   2   1 -15    228.20    5.25  0. 1.0000     0. 
  -2   1  15    239.74    6.22  0. 1.0000     0. 
  -2   1  15    237.69    6.86  0. 1.0000     0. 
  -1  -1  15     78.11    4.86  0. 1.0000     0. 
  -1  -1  15     83.25    4.40  0. 1.0000     0. 
  -1   1  15     82.56    4.30  0. 1.0000     0. 
  -1   1  15     82.43    4.16  0. 1.0000     0. 
   1   1 -15     82.47    2.76  0. 1.0000     0. 
   1   1 -15     72.79    5.50  0. 1.0000     0. 
   0  -1  15      2.71    3.04  0. 1.0000     0. 
   0  -1  15      2.71    3.39  0. 1.0000     0. 
   0   1  15      0.52    3.13  0. 1.0000     0. 
   0   1 -15      3.94    1.62  0. 1.0000     0. 
   1   1  15     83.30    4.72  0. 1.0000     0. 
  -1   1 -15     87.54    3.00  0. 1.0000     0. 
  -6  -2  15    176.95    7.54  0. 1.0000     0. 
   6   2 -15    215.75    7.87  0. 1.0000     0. 
  -6   2  15    223.27    6.17  0. 1.0000     0. 
  -5  -2  15     33.69    3.63  0. 1.0000     0. 
   5  -2 -15     33.76    4.45  0. 1.0000     0. 
   5   2 -15     33.10    2.87  0. 1.0000     0. 
  -5   2  15     30.99    3.21  0. 1.0000     0. 
   5   2 -15     37.89    4.22  0. 1.0000     0. 
   4  -2 -15    118.91    6.53  0. 1.0000     0. 
  -4  -2  15    126.64    5.57  0. 1.0000     0. 
  -4   2  15    121.16    4.92  0. 1.0000     0. 
  -4   2  15    114.67    5.88  0. 1.0000     0. 
   4   2 -15    117.26    4.20  0. 1.0000     0. 
   4   2 -15    126.33    6.66  0. 1.0000     0. 
   3  -2 -15    326.88    7.18  0. 1.0000     0. 
   3  -2 -15    317.92   10.65  0. 1.0000     0. 
  -3   2  15    325.28    9.12  0. 1.0000     0. 
   1  -2 -15     14.75    3.82  0. 1.0000     0. 
   1  -2 -15     18.67    2.97  0. 1.0000     0. 
  -1  -2  15     13.02    3.68  0. 1.0000     0. 
  -1  -2  15     18.79    4.45  0. 1.0000     0. 
  -1   2  15     16.29    3.36  0. 1.0000     0. 
   1   2 -15     16.89    2.24  0. 1.0000     0. 
  -1   2  15     14.62    3.80  0. 1.0000     0. 
   1   2 -15     18.24    5.16  0. 1.0000     0. 
   0  -2  15    101.63    5.99  0. 1.0000     0. 
   0  -2 -15     95.90    6.45  0. 1.0000     0. 
   0  -2 -15     98.56    3.98  0. 1.0000     0. 
   0   2 -15     97.31    3.45  0. 1.0000     0. 
   0   2  15     97.25    5.58  0. 1.0000     0. 
   1  -2  15      9.40    4.70  0. 1.0000     0. 
  -1  -2 -15      4.70    3.02  0. 1.0000     0. 
   1   2  15      6.04    4.14  0. 1.0000     0. 
  -1   2 -15      7.33    2.19  0. 1.0000     0. 
   2   2  15      4.31    3.98  0. 1.0000     0. 
  -6  -2  16     34.07    3.83  0. 1.0000     0. 
   6   2 -16     27.79    4.11  0. 1.0000     0. 
  -6   2  16     24.07    3.35  0. 1.0000     0. 
   5  -2 -16     -1.41    3.57  0. 1.0000     0. 
  -5  -2  16      2.14    3.25  0. 1.0000     0. 
   5   2 -16      0.47    3.34  0. 1.0000     0. 
  -5   2  16     -1.97    2.93  0. 1.0000     0. 
   5   2 -16      0.92    2.55  0. 1.0000     0. 
  -4  -2  16      0.64    4.44  0. 1.0000     0. 
   4  -2 -16      1.96    3.57  0. 1.0000     0. 
  -4  -2  16      3.83    3.32  0. 1.0000     0. 
   4   2 -16     -0.13    3.51  0. 1.0000     0. 
   4   2 -16      0.90    2.38  0. 1.0000     0. 
  -4   2  16      2.09    3.91  0. 1.0000     0. 
  -4   2  16     -1.23    2.93  0. 1.0000     0. 
  -3  -2  16    553.87   12.79  0. 1.0000     0. 
   3  -2 -16    542.48   10.80  0. 1.0000     0. 
  -3  -2  16    545.11   13.21  0. 1.0000     0. 
   3  -2 -16    562.05   15.51  0. 1.0000     0. 
  -3   2  16    549.45   12.90  0. 1.0000     0. 
   3   2 -16    550.32   16.34  0. 1.0000     0. 
  -3   2  16    568.49   11.98  0. 1.0000     0. 
   3   2 -16    555.54   10.69  0. 1.0000     0. 
   2  -2 -16     -0.59    3.23  0. 1.0000     0. 
   2  -2 -16      3.58    2.79  0. 1.0000     0. 
  -2  -2  16      1.57    4.49  0. 1.0000     0. 
  -2  -2  16      0.49    3.24  0. 1.0000     0. 
   2   2 -16     -0.69    2.22  0. 1.0000     0. 
  -2   2  16      0.66    3.51  0. 1.0000     0. 
   2   2 -16     -2.22    3.95  0. 1.0000     0. 
  -2   2  16     -2.49    3.09  0. 1.0000     0. 
   1  -2 -16     25.95    4.18  0. 1.0000     0. 
  -1  -2  16     22.87    3.84  0. 1.0000     0. 
  -1  -2  16     27.59    5.17  0. 1.0000     0. 
   1  -2 -16     33.26    3.46  0. 1.0000     0. 
   1   2 -16     26.64    2.49  0. 1.0000     0. 
   1   2 -16     22.84    4.72  0. 1.0000     0. 
  -1   2  16     27.52    4.38  0. 1.0000     0. 
  -1   2  16     28.57    4.09  0. 1.0000     0. 
   0  -2 -16    246.71    6.65  0. 1.0000     0. 
   0  -2  16    245.90    8.47  0. 1.0000     0. 
   0   2  16    248.17    8.27  0. 1.0000     0. 
   0   2 -16    249.98    5.86  0. 1.0000     0. 
  -1  -2 -16      4.25    3.80  0. 1.0000     0. 
  -1   2 -16      2.90    2.21  0. 1.0000     0. 
   1   2  16      4.04    4.27  0. 1.0000     0. 
   4  -2 -17     43.56    4.90  0. 1.0000     0. 
  -4  -2  17     40.35    4.28  0. 1.0000     0. 
  -4  -2  17     41.40    5.22  0. 1.0000     0. 
   4  -2 -17     40.84    3.41  0. 1.0000     0. 
   4   2 -17     41.02    5.20  0. 1.0000     0. 
  -4   2  17     43.29    3.74  0. 1.0000     0. 
  -4   2  17     43.08    4.70  0. 1.0000     0. 
   4   2 -17     40.25    3.10  0. 1.0000     0. 
   3  -2 -17     68.70    5.26  0. 1.0000     0. 
  -3  -2  17     68.25    4.61  0. 1.0000     0. 
   3  -2 -17     72.93    3.98  0. 1.0000     0. 
  -3  -2  17     64.61    5.78  0. 1.0000     0. 
   3   2 -17     71.62    6.43  0. 1.0000     0. 
  -3   2  17     69.82    4.91  0. 1.0000     0. 
   3   2 -17     68.83    3.22  0. 1.0000     0. 
  -3   2  17     78.04    4.64  0. 1.0000     0. 
  -2  -2  17     16.36    4.44  0. 1.0000     0. 
   2  -2 -17     19.93    3.08  0. 1.0000     0. 
   2  -2 -17     19.24    3.96  0. 1.0000     0. 
  -2  -2  17     24.67    3.65  0. 1.0000     0. 
   2   2 -17     23.86    2.56  0. 1.0000     0. 
  -2   2  17     26.44    3.73  0. 1.0000     0. 
  -2   2  17     22.90    3.92  0. 1.0000     0. 
   2   2 -17     21.22    5.24  0. 1.0000     0. 
   1  -2 -17     -0.18    3.34  0. 1.0000     0. 
  -1  -2  17     -2.94    4.53  0. 1.0000     0. 
  -1  -2  17      2.22    3.58  0. 1.0000     0. 
   1  -2 -17      2.34    2.84  0. 1.0000     0. 
  -1   2  17      0.21    3.80  0. 1.0000     0. 
   1   2 -17      0.32    3.59  0. 1.0000     0. 
   1   2 -17     -1.50    2.15  0. 1.0000     0. 
  -1   2  17      0.81    3.59  0. 1.0000     0. 
-512 
#   1771 reflections output 
;
loop_
_symmetry_equiv_pos_as_xyz
x,y,z
-x,-y,-z
-x,y+1/2,-z+1/2
x,-y+1/2,z+1/2
loop_
_atom_site_label
_atom_site_type_symbol
_atom_site_fract_x
_atom_site_fract_y
_atom_site_fract_z
_atom_site_U_iso_or_equiv
_atom_site_occupancy
_atom_site_adp_type
_atom_site_refinement_flags_posn
_atom_site_refinement_flags_adp
_atom_site_refinement_flags_occupancy
_atom_site_disorder_assembly
_atom_site_disorder_group
_atom_site_attached_hydrogens
S1 S 0.4396(3) 0.2990(4) 0.33861(9) 0.0352 1.0000 Uani D U . . . .
N2 N 0.3144(7) 0.1862(10) 0.2406(2) 0.0361 1.0000 Uani D U . . . .
S3 S 0.1466(3) 0.0687(3) 0.25050(8) 0.0305 1.0000 Uani D U . . . .
C4 C 0.1784(7) 0.1253(10) 0.3714(2) 0.0257 1.0000 Uani D U . . . .
C5 C 0.3262(7) 0.2435(10) 0.4156(3) 0.0260 1.0000 Uani D U . . . .
N6 N 0.3517(7) 0.2931(9) 0.5076(2) 0.0259 1.0000 Uani D U . . . .
S7 S 0.1947(3) 0.1823(3) 0.53558(8) 0.0251 1.0000 Uani D U . . . .
N8 N 0.0912(7) 0.0749(9) 0.4292(2) 0.0268 1.0000 Uani D U . . . .
loop_
_atom_site_aniso_label
_atom_site_aniso_U_11
_atom_site_aniso_U_22
_atom_site_aniso_U_33
_atom_site_aniso_U_23
_atom_site_aniso_U_13
_atom_site_aniso_U_12
S1 0.033(3) 0.0511(7) 0.0275(6) 0.0116(5) 0.0185(12) 0.0084(10)
N2 0.047(4) 0.045(2) 0.0227(15) 0.0048(15) 0.0215(19) 0.003(3)
S3 0.039(3) 0.0389(5) 0.0156(5) 0.0023(4) 0.0114(11) 0.0070(8)
C4 0.033(5) 0.0315(19) 0.0158(14) 0.0017(14) 0.012(2) 0.001(3)
C5 0.027(5) 0.0322(19) 0.0232(15) 0.0053(16) 0.015(2) 0.007(3)
N6 0.023(4) 0.0347(16) 0.0238(14) 0.0034(14) 0.013(2) 0.004(3)
S7 0.025(4) 0.0359(5) 0.0175(5) -0.0009(4) 0.0109(11) -0.0021(8)
N8 0.030(5) 0.0337(17) 0.0193(14) -0.0006(13) 0.0120(18) -0.007(3)
loop_
_atom_type_symbol
_atom_type_scat_dispersion_real
_atom_type_scat_dispersion_imag
_atom_type_scat_Cromer_Mann_a1
_atom_type_scat_Cromer_Mann_b1
_atom_type_scat_Cromer_Mann_a2
_atom_type_scat_Cromer_Mann_b2
_atom_type_scat_Cromer_Mann_a3
_atom_type_scat_Cromer_Mann_b3
_atom_type_scat_Cromer_Mann_a4
_atom_type_scat_Cromer_Mann_b4
_atom_type_scat_Cromer_Mann_c
_atom_type_scat_source
C 0.0006 0.0007 2.3100 20.8439 1.0200 10.2075 1.5886 0.5687 0.8650 51.6512
0.2156 'International Tables Vol C 4.2.6.8 and 6.1.1.4'
N 0.0016 0.0014 12.2126 0.0057 3.1322 9.8933 2.0125 28.9975 1.1663 0.5826
-11.5290 'International Tables Vol C 4.2.6.8 and 6.1.1.4'
S 0.0630 0.0572 6.9053 1.4679 5.2034 22.2151 1.4379 0.2536 1.5863 56.1720
0.8669 'International Tables Vol C 4.2.6.8 and 6.1.1.4'
loop_
_geom_angle_atom_site_label_1
_geom_angle_site_symmetry_1
_geom_angle_atom_site_label_2
_geom_angle_site_symmetry_2
_geom_angle_atom_site_label_3
_geom_angle_site_symmetry_3
_geom_angle
_geom_angle_publ_flag
N2 . S1 . C5 . 97.3(3) yes
S1 . N2 . S3 . 117.3(2) yes
N2 . S3 . C4 . 97.8(3) yes
S3 . C4 . C5 . 113.4(3) yes
S3 . C4 . N8 . 131.6(4) yes
C5 . C4 . N8 . 114.9(3) yes
C4 . C5 . S1 . 114.1(3) yes
C4 . C5 . N6 . 114.2(4) yes
S1 . C5 . N6 . 131.7(4) yes
C5 . N6 . S7 . 106.1(4) yes
N6 . S7 . N8 . 99.3(2) yes
C4 . N8 . S7 . 105.5(4) yes
loop_
_geom_bond_atom_site_label_1
_geom_bond_site_symmetry_1
_geom_bond_atom_site_label_2
_geom_bond_site_symmetry_2
_geom_bond_distance
_geom_bond_publ_flag
S1 . N2 . 1.659(5) yes
S1 . C5 . 1.739(4) yes
N2 . S3 . 1.655(6) yes
S3 . C4 . 1.736(3) yes
C4 . C5 . 1.429(7) yes
C4 . N8 . 1.324(5) yes
C5 . N6 . 1.322(4) yes
N6 . S7 . 1.658(6) yes
S7 . N8 . 1.661(4) yes
loop_
_oxford_refln_omitted_index_h
_oxford_refln_omitted_index_k
_oxford_refln_omitted_index_l
_oxford_refln_omitted_flag
_oxford_refln_omitted_details
-3 1 4 x .
-5 1 10 x .
0 0 10 x .
2 2 12 x .
-6 1 14 x .
-6 3 11 x .
