#------------------------------------------------------------------------------
#$Date: 2021-01-01 06:05:13 +0200 (Fri, 01 Jan 2021) $
#$Revision: 260336 $
#$URL: file:///home/coder/svn-repositories/cod/cif/7/24/20/7242003.cif $
#------------------------------------------------------------------------------
#
# This file is available in the Crystallography Open Database (COD),
# http://www.crystallography.net/
#
# All data on this site have been placed in the public domain by the
# contributors.
#
data_7242003
loop_
_publ_author_name
'Liebing, Phil'
'Oehler, Florian'
'Witzorke, Juliane'
'Schmeide, Marten'
_publ_section_title
;
 From zero- to three-dimensional heterobimetallic coordination polymers
 with the [Pt{SSC-N(CH2COO)2}2]4&#x2212; metalloligand
;
_journal_issue                   45
_journal_name_full               CrystEngComm
_journal_page_first              7838
_journal_page_last               7846
_journal_paper_doi               10.1039/D0CE01389G
_journal_volume                  22
_journal_year                    2020
_chemical_formula_moiety         'C10 H24 Co2 N2 O16 Pt S4, 4(H2 O)'
_chemical_formula_sum            'C10 H32 Co2 N2 O20 Pt S4'
_chemical_formula_weight         941.56
_space_group_crystal_system      triclinic
_space_group_IT_number           2
_space_group_name_Hall           '-P 1'
_space_group_name_H-M_alt        'P -1'
_atom_sites_solution_hydrogens   mixed
_atom_sites_solution_primary     dual
_audit_block_doi                 10.5517/ccdc.csd.cc266mwy
_audit_creation_date             2020-01-24
_audit_creation_method
;
Olex2 1.2
(compiled 2018.05.29 svn.r3508 for OlexSys, GUI svn.r5506)
;
_audit_update_record
;
2020-09-15 deposited with the CCDC.	2020-10-14 downloaded from the CCDC.
;
_cell_angle_alpha                117.626(5)
_cell_angle_beta                 92.748(6)
_cell_angle_gamma                100.521(6)
_cell_formula_units_Z            1
_cell_length_a                   6.2781(4)
_cell_length_b                   13.6869(11)
_cell_length_c                   14.2519(10)
_cell_measurement_reflns_used    8827
_cell_measurement_temperature    133.15
_cell_measurement_theta_max      25.993
_cell_measurement_theta_min      2.866
_cell_volume                     1054.34(15)
_computing_cell_refinement       'X-Area (STOE & Cie, 2018/12)'
_computing_data_collection       'X-Area (STOE & Cie, 2018/12)'
_computing_data_reduction        'X-Area and X-Red (STOE & Cie, 2018/12)'
_computing_molecular_graphics    'Olex2 (Dolomanov et al., 2009)'
_computing_publication_material  'Olex2 (Dolomanov et al., 2009)'
_computing_structure_refinement  'ShelXL (Sheldrick, 2015)'
_computing_structure_solution    'ShelXT (Sheldrick, 2015)'
_diffrn_ambient_temperature      133.15
_diffrn_detector_area_resol_mean 6.67
_diffrn_measured_fraction_theta_full 0.985
_diffrn_measured_fraction_theta_max 0.985
_diffrn_measurement_device_type  'STOE IPDS 2T'
_diffrn_measurement_method       'omega scans'
_diffrn_radiation_type           MoK\a
_diffrn_radiation_wavelength     0.71073
_diffrn_reflns_av_R_equivalents  0.0567
_diffrn_reflns_av_unetI/netI     0.0481
_diffrn_reflns_Laue_measured_fraction_full 0.985
_diffrn_reflns_Laue_measured_fraction_max 0.985
_diffrn_reflns_limit_h_max       7
_diffrn_reflns_limit_h_min       -7
_diffrn_reflns_limit_k_max       16
_diffrn_reflns_limit_k_min       -16
_diffrn_reflns_limit_l_max       17
_diffrn_reflns_limit_l_min       -17
_diffrn_reflns_number            8827
_diffrn_reflns_point_group_measured_fraction_full 0.985
_diffrn_reflns_point_group_measured_fraction_max 0.985
_diffrn_reflns_theta_full        25.242
_diffrn_reflns_theta_max         25.993
_diffrn_reflns_theta_min         2.866
_diffrn_source                   'fine-focus sealed tube'
_exptl_absorpt_coefficient_mu    4.341
_exptl_absorpt_correction_T_max  0.8633
_exptl_absorpt_correction_T_min  0.4666
_exptl_absorpt_correction_type   numerical
_exptl_absorpt_process_details   'X-Area and X-Red (STOE & Cie, 2018/12)'
_exptl_crystal_colour            'light pink'
_exptl_crystal_colour_modifier   light
_exptl_crystal_colour_primary    pink
_exptl_crystal_density_diffrn    1.483
_exptl_crystal_description       needle
_exptl_crystal_F_000             462
_exptl_crystal_size_max          0.36
_exptl_crystal_size_mid          0.04
_exptl_crystal_size_min          0.02
_refine_diff_density_max         1.245
_refine_diff_density_min         -1.757
_refine_diff_density_rms         0.143
_refine_ls_extinction_method     none
_refine_ls_goodness_of_fit_ref   1.059
_refine_ls_hydrogen_treatment    constr
_refine_ls_matrix_type           full
_refine_ls_number_parameters     191
_refine_ls_number_reflns         4066
_refine_ls_number_restraints     0
_refine_ls_restrained_S_all      1.059
_refine_ls_R_factor_all          0.0508
_refine_ls_R_factor_gt           0.0405
_refine_ls_shift/su_max          0.000
_refine_ls_shift/su_mean         0.000
_refine_ls_structure_factor_coef Fsqd
_refine_ls_weighting_details
'w=1/[\s^2^(Fo^2^)+(0.0458P)^2^+5.0561P] where P=(Fo^2^+2Fc^2^)/3'
_refine_ls_weighting_scheme      calc
_refine_ls_wR_factor_gt          0.0983
_refine_ls_wR_factor_ref         0.1070
_reflns_Friedel_coverage         0.000
_reflns_number_gt                3527
_reflns_number_total             4066
_reflns_threshold_expression     'I > 2\s(I)'
_cod_data_source_file            d0ce01389g2.cif
_cod_data_source_block           li0432
_cod_original_cell_volume        1054.34(14)
_cod_database_code               7242003
_shelx_shelxl_version_number     2018/3
_shelx_space_group_comment
;
The symmetry employed for this shelxl refinement is uniquely defined
by the following loop, which should always be used as a source of
symmetry information in preference to the above space-group names.
They are only intended as comments.
;
_shelx_estimated_absorpt_t_max   0.918
_shelx_estimated_absorpt_t_min   0.304
_olex2_refinement_description
;
1. Fixed Uiso
 At 1.2 times of:
  All C(H,H) groups
 At 1.5 times of:
  All O(H,H) groups
2.a Free rotating group:
 O9(H9A,H9B), O10(H10A,H10B)
2.b Rotating group:
 O5(H5A,H5B), O6(H6A,H6B), O7(H7A,H7B), O8(H8A,H8B)
2.c Secondary CH2 refined with riding coordinates:
 C2(H2A,H2B), C4(H4A,H4B)
;
_shelx_res_file
;
TITL li0432_a.res in P-1
    li0432.res
    created by SHELXL-2018/3 at 16:27:57 on 24-Jan-2020
REM Old TITL
REM SHELXT solution in P-1: R1 0.158, Rweak 0.016, Alpha 0.058
REM <I/s> 0.000 for 0 systematic absences, Orientation as input
REM Formula found by SHELXT: C18 N10 O10 S4 Pt Co2
CELL 0.71073 6.2781 13.6869 14.2519 117.626 92.748 100.521
ZERR 1 0.0004 0.0011 0.001 0.005 0.006 0.006
LATT 1
SFAC C H Co N O Pt S
UNIT 10 32 2 2 20 1 4
EQIV $1 1+X,+Y,+Z
EQIV $2 -1+X,1+Y,+Z
EQIV $3 -1+X,+Y,+Z
EQIV $4 1-X,1-Y,1-Z
EQIV $5 2-X,1-Y,1-Z

L.S. 15 0 0
PLAN  20
SIZE 0.36 0.04 0.02
TEMP -140
HTAB O5 O2
HTAB O5 O9
HTAB O6 O2_$1
HTAB O7 O4
HTAB O7 O10_$2
HTAB O8 O4_$3
HTAB O9 O3_$4
HTAB O10 O1_$5
HTAB O10 O9
BUMP 0.01
BOND $H
list 4
ABIN
fmap 2 53
acta
OMIT -6 52
REM <olex2.extras>
REM <HklSrc "%.\\li0432.hkl">
REM </olex2.extras>

WGHT    0.045800    5.056100
FVAR       0.49028
PT1   6    0.500000    0.500000    0.000000    10.50000    0.02297    0.04446 =
         0.02118    0.01259    0.00581    0.01813
CO1   3    1.000000    0.500000    0.500000    10.50000    0.02040    0.02298 =
         0.02491    0.01444    0.00430    0.01017
CO2   3    0.000000    1.000000    0.500000    10.50000    0.02379    0.02281 =
         0.02923    0.01290    0.01066    0.01289
S1    7    0.687428    0.573131    0.170460    11.00000    0.02331    0.05162 =
         0.02229    0.01365    0.00635    0.02077
S2    7    0.242483    0.564011    0.112177    11.00000    0.02339    0.05628 =
         0.02325    0.01575    0.00581    0.02102
O1    5    0.818724    0.603825    0.478144    11.00000    0.02259    0.02483 =
         0.03287    0.01624    0.00047    0.01014
O2    5    0.533004    0.480609    0.353368    11.00000    0.02383    0.02134 =
         0.03515    0.01299    0.00018    0.00761
O3    5    0.112692    0.853475    0.455394    11.00000    0.05002    0.03489 =
         0.05934    0.03122    0.04263    0.03129
O4    5    0.351172    0.855114    0.344927    11.00000    0.02866    0.02941 =
         0.04286    0.02554    0.01699    0.01292
O5    5    0.709030    0.367882    0.436480    11.00000    0.02356    0.02940 =
         0.03464    0.01925    0.00484    0.01102
AFIX   7
H5A   2    0.738351    0.303692    0.393121    11.00000   -1.50000
H5B   2    0.619552    0.378752    0.395759    11.00000   -1.50000
AFIX   0
O6    5    1.086598    0.444222    0.348502    11.00000    0.02867    0.03628 =
         0.02800    0.01711    0.00770    0.01257
AFIX   7
H6A   2    1.042475    0.370052    0.309562    11.00000   -1.50000
H6B   2    1.229878    0.455560    0.351342    11.00000   -1.50000
AFIX   0
O7    5    0.247594    1.057528    0.430305    11.00000    0.02862    0.02617 =
         0.03444    0.01412    0.01227    0.01314
AFIX   7
H7A   2    0.194645    1.080591    0.386058    11.00000   -1.50000
H7B   2    0.307309    1.001547    0.385673    11.00000   -1.50000
AFIX   0
O8    5   -0.209579    0.923792    0.355597    11.00000    0.03110    0.08200 =
         0.04144    0.02745    0.00658   -0.00426
AFIX   7
H8A   2   -0.330020    0.883143    0.358427    11.00000   -1.50000
H8B   2   -0.153690    0.874602    0.305337    11.00000   -1.50000
AFIX   6

O9    5    0.713564    0.140572    0.338766    11.00000    0.05450    0.04242 =
         0.05398    0.02694    0.00702    0.02173
H9A   2    0.583294    0.108626    0.305808    11.00000   -1.50000
H9B   2    0.732999    0.109316    0.376929    11.00000   -1.50000
AFIX   6

O10   5    1.160266    0.188297    0.333798    11.00000    0.05798    0.04144 =
         0.04346    0.01660    0.00405    0.02302
H10A  2    1.029891    0.166602    0.300973    11.00000   -1.50000
H10B  2    1.162227    0.250408    0.389507    11.00000   -1.50000
AFIX   0

N1    4    0.424606    0.650273    0.317951    11.00000    0.02397    0.02156 =
         0.02318    0.01019    0.00745    0.01543
C1    1    0.652354    0.576042    0.409217    11.00000    0.02198    0.03314 =
         0.02951    0.02042    0.01187    0.01597
C2    1    0.607748    0.677708    0.398962    11.00000    0.02714    0.02303 =
         0.01982    0.01022    0.00416    0.01291
AFIX  23
H2A   2    0.579548    0.734270    0.469148    11.00000   -1.20000
H2B   2    0.741417    0.713510    0.382127    11.00000   -1.20000
AFIX   0
C3    1    0.233758    0.809563    0.387469    11.00000    0.02498    0.02767 =
         0.02580    0.01315    0.00239    0.01520
C4    1    0.222833    0.684412    0.354863    11.00000    0.02059    0.02461 =
         0.02948    0.01657    0.01011    0.01454
AFIX  23
H4A   2    0.196837    0.672173    0.416990    11.00000   -1.20000
H4B   2    0.097524    0.635968    0.296904    11.00000   -1.20000
AFIX   0
C5    1    0.445439    0.603332    0.216998    11.00000    0.02687    0.02462 =
         0.02481    0.00932    0.00450    0.01697
HKLF 4




REM  li0432_a.res in P-1
REM wR2 = 0.1070, GooF = S = 1.059, Restrained GooF = 1.059 for all data
REM R1 = 0.0405 for 3527 Fo > 4sig(Fo) and 0.0508 for all 4066 data
REM 191 parameters refined using 0 restraints

END

WGHT      0.0458      5.0560

REM Highest difference peak  1.245,  deepest hole -1.757,  1-sigma level  0.143
Q1    1   0.3411  0.4744  0.0640  11.00000  0.05    1.24
Q2    1   1.1777  0.5182  0.4440  11.00000  0.05    0.72
Q3    1   0.5976  0.5593  0.1025  11.00000  0.05    0.71
Q4    1   0.3208  0.4010 -0.0140  11.00000  0.05    0.63
Q5    1   0.1939  1.0195  0.4558  11.00000  0.05    0.61
Q6    1   0.3251  0.6613  0.3427  11.00000  0.05    0.61
Q7    1  -0.2422  0.9840  0.3930  11.00000  0.05    0.54
Q8    1   1.0147  0.4168  0.2977  11.00000  0.05    0.52
Q9    1   0.0022  0.8381  0.4002  11.00000  0.05    0.52
Q10   1   0.3864  0.3587 -0.0591  11.00000  0.05    0.51
Q11   1   0.3333  0.6032  0.1813  11.00000  0.05    0.50
Q12   1   0.7321  0.4744  0.0856  11.00000  0.05    0.49
Q13   1   0.3251  0.5240  0.2808  11.00000  0.05    0.48
Q14   1   0.1536  1.0930  0.4993  11.00000  0.05    0.46
Q15   1   0.8187  0.4002  0.4860  11.00000  0.05    0.45
Q16   1  -0.0671  0.8635  0.4361  11.00000  0.05    0.44
Q17   1   0.7016  0.6240  0.5013  11.00000  0.05    0.44
Q18   1   0.9249  0.5778  0.1484  11.00000  0.05    0.43
Q19   1   0.3559  0.5584  0.0968  11.00000  0.05    0.42
Q20   1   0.1369  0.4352  0.0046  11.00000  0.05    0.42
;
_shelx_res_checksum              2159
_shelx_fab_file
;
-7 -4 3 0.7936 -0.1058
-7 -4 4 1.3965 -0.0270
-7 -4 5 1.8070 0.0147
-7 -4 6 0.9121 -0.0552
-7 -3 1 -4.0397 0.4474
-7 -3 2 -0.3775 0.1127
-7 -3 3 1.5808 -0.0406
-7 -3 4 0.3750 0.0750
-7 -3 5 -1.2352 0.0836
-7 -3 6 -2.4671 0.0113
-7 -3 7 -2.6680 0.1345
-7 -2 1 -0.0924 0.0029
-7 -2 2 0.3537 -0.1020
-7 -2 3 -2.5073 -0.0588
-7 -2 4 -4.7482 0.0401
-7 -2 5 -4.1850 -0.0326
-7 -2 6 -3.2861 -0.1562
-7 -2 7 -2.8932 -0.1815
-7 -1 1 -0.4189 0.4331
-7 -1 2 -0.5988 0.1195
-7 -1 3 -0.1373 -0.0792
-7 -1 4 0.2665 -0.0346
-7 -1 5 -0.4513 0.0428
-7 -1 6 -2.2716 0.1007
-7 -1 7 -3.5178 0.1808
-7 -1 8 -2.3191 0.1846
-7 0 1 -1.5457 0.1361
-7 0 2 0.9090 -0.0722
-7 0 3 2.2264 -0.0496
-7 0 4 1.8715 0.0738
-7 0 5 1.5084 0.0024
-7 0 6 1.1512 -0.1104
-7 0 7 0.0473 -0.0650
-7 0 8 -0.2943 -0.0651
-7 1 1 0.0135 0.4693
-7 1 2 0.7045 0.1961
-7 1 3 0.9889 -0.0803
-7 1 4 0.8643 -0.0647
-7 1 5 0.4246 0.0005
-7 1 6 -0.3313 0.0083
-7 1 7 -0.5171 0.0688
-7 1 8 -0.4192 0.0727
-7 2 1 -0.6526 0.2830
-7 2 2 0.0676 -0.2015
-7 2 3 0.6138 -0.2708
-7 2 4 -0.1495 0.0625
-7 2 5 -2.2478 0.1513
-7 2 6 -3.3156 0.0297
-7 2 7 -1.7606 -0.0070
-7 3 1 -0.0838 0.4456
-7 3 2 -0.2390 0.2861
-7 3 3 0.1891 0.1252
-7 3 4 0.4389 -0.0325
-7 3 5 -0.6944 -0.1303
-7 3 6 -1.9560 -0.0037
-7 3 7 -1.5716 0.1224
-7 4 1 0.8697 0.2369
-7 4 2 -0.1726 -0.1896
-7 4 3 -1.2421 -0.3558
-7 4 4 -1.4025 -0.0350
-7 4 5 -1.0270 0.2338
-7 4 6 -0.7479 0.0171
-7 5 1 1.0666 0.3924
-7 5 2 0.1894 0.1523
-7 5 3 -1.0682 0.0578
-7 5 4 -0.9617 0.1300
-7 5 5 -0.4470 0.0343
-7 6 1 0.5964 0.5478
-7 6 2 1.8884 0.0463
-7 6 3 2.5892 -0.2854
-7 6 4 2.0877 -0.2413
-7 7 1 1.3107 -0.0192
-7 7 2 0.9029 -0.0836
-7 7 3 0.0838 0.0235
-7 8 1 1.0525 0.9132
-7 8 2 -0.4719 0.2837
-6 -8 5 2.2297 -0.0047
-6 -8 6 -0.1993 -0.2158
-6 -8 7 -0.4752 -0.1186
-6 -7 2 -4.1189 0.0698
-6 -7 3 -1.7233 -0.1790
-6 -7 4 0.7945 -0.1437
-6 -7 5 1.6971 -0.0290
-6 -7 6 1.1679 -0.0504
-6 -7 7 0.0697 -0.1276
-6 -7 8 -0.6369 -0.0699
-6 -7 9 0.3140 0.0044
-6 -6 1 -2.4790 0.3348
-6 -6 2 -1.9471 0.1021
-6 -6 3 -1.4848 0.0293
-6 -6 4 -0.0968 0.2409
-6 -6 5 1.9434 0.3049
-6 -6 6 1.7085 0.0976
-6 -6 7 -0.8595 0.0416
-6 -6 8 -1.2870 0.2195
-6 -6 9 1.5443 0.2841
-6 -6 10 2.9109 0.2070
-6 -5 1 -0.0982 0.1889
-6 -5 2 2.6580 -0.0662
-6 -5 3 1.5399 -0.2520
-6 -5 4 -0.4117 -0.2268
-6 -5 5 -0.2202 -0.2197
-6 -5 6 0.4183 -0.1810
-6 -5 7 0.4183 -0.0753
-6 -5 8 0.4558 -0.1941
-6 -5 9 -0.6039 -0.4581
-6 -5 10 -2.7498 -0.3940
-6 -5 11 -2.2274 -0.0649
-6 -4 1 2.7525 0.3292
-6 -4 2 2.5743 0.0384
-6 -4 3 -0.2934 0.0449
-6 -4 4 -0.8696 0.2147
-6 -4 5 0.7362 0.1944
-6 -4 6 1.1393 0.1031
-6 -4 7 0.6731 0.1518
-6 -4 8 0.8919 0.2471
-6 -4 9 0.3533 0.2989
-6 -4 10 -1.5793 0.3362
-6 -4 11 -2.4440 0.3135
-6 -3 1 0.1501 0.2889
-6 -3 2 0.1891 0.0415
-6 -3 3 0.5724 -0.0779
-6 -3 4 0.9076 -0.0155
-6 -3 5 0.7428 -0.0855
-6 -3 6 0.5536 -0.2132
-6 -3 7 0.4836 -0.1170
-6 -3 8 -0.2215 0.0102
-6 -3 9 -1.6418 -0.1709
-6 -3 10 -2.6549 -0.4400
-6 -3 11 -2.2829 -0.3849
-6 -2 1 2.6757 0.2448
-6 -2 2 4.6743 -0.1926
-6 -2 3 2.4861 -0.2394
-6 -2 4 -0.8219 0.0589
-6 -2 5 -0.7280 0.1244
-6 -2 6 0.0538 -0.0208
-6 -2 7 -2.6666 -0.0387
-6 -2 8 -5.5787 -0.0126
-6 -2 9 -3.8210 -0.0005
-6 -2 10 0.5802 0.2302
-6 -2 11 3.8968 0.4886
-6 -1 1 1.9687 0.5124
-6 -1 2 3.4609 0.2477
-6 -1 3 0.9987 0.0828
-6 -1 4 -1.4560 0.1030
-6 -1 5 -2.2578 0.0689
-6 -1 6 -3.3750 0.0587
-6 -1 8 -1.7410 0.2043
-6 -1 9 -0.0261 0.0170
-6 0 1 -0.7040 0.2004
-6 0 2 2.4560 -0.2360
-6 0 3 2.4066 -0.3385
-6 0 4 -0.7216 -0.1198
-6 0 5 -3.6775 -0.1232
-6 0 6 -2.9710 -0.2713
-6 0 7 -0.0060 -0.2180
-6 0 8 0.2817 -0.1345
-6 1 1 0.7215 0.4535
-6 1 2 2.2579 0.2115
-6 1 3 1.4986 0.1785
-6 1 4 -0.9207 0.2789
-6 1 5 -1.3091 0.2286
-6 1 6 0.1563 0.1739
-6 1 9 -1.8035 0.2014
-6 1 10 1.4104 0.3022
-6 1 11 1.1451 0.2619
-6 2 1 -0.2126 0.3840
-6 2 2 -0.2085 -0.1025
-6 2 3 -0.5499 -0.3886
-6 2 4 -0.6170 -0.2512
-6 2 5 -0.0660 -0.0681
-6 2 6 -0.5131 -0.0700
-6 2 7 -2.3695 -0.1711
-6 2 8 -2.7684 -0.2993
-6 2 9 -0.3823 -0.3724
-6 2 10 1.4182 -0.2796
-6 3 1 -0.1469 0.2881
-6 3 2 0.2503 0.0893
-6 3 3 0.8649 0.0442
-6 3 4 0.3486 0.1056
-6 3 5 -0.8255 -0.0006
-6 3 6 -0.2926 -0.0406
-6 3 7 1.7443 0.1501
-6 3 8 2.5323 0.2746
-6 3 9 1.5681 0.2881
-6 3 10 0.6250 0.3291
-6 4 1 -0.3538 0.5599
-6 4 2 0.9293 0.1496
-6 4 3 1.5910 -0.0156
-6 4 4 0.1526 0.1017
-6 4 5 -0.4157 0.1714
-6 4 6 2.5303 0.0734
-6 4 7 5.4058 -0.1372
-6 4 8 4.1613 -0.2221
-6 4 9 1.2484 0.0174
-6 5 1 0.7120 0.1033
-6 5 2 0.1504 -0.2734
-6 5 3 -0.5522 -0.4285
-6 5 4 -0.4268 -0.2032
-6 5 5 0.7217 -0.0224
-6 5 6 1.5851 -0.0817
-6 5 7 0.5717 -0.1759
-6 5 8 -1.6398 -0.1506
-6 6 1 0.4133 0.8341
-6 6 2 -1.5388 0.4328
-6 6 3 -0.6746 0.1710
-6 6 4 1.4668 0.1646
-6 6 5 1.3014 0.1595
-6 6 6 -0.5273 0.2446
-6 6 7 -1.5065 0.3712
-6 7 1 -0.1204 0.0040
-6 7 2 -0.0085 -0.2478
-6 7 3 0.5634 -0.1996
-6 7 4 -0.0246 -0.1070
-6 7 5 -1.3616 -0.2433
-6 7 6 -1.7390 -0.4009
-6 7 7 -1.2705 -0.4546
-6 8 1 1.2666 0.4281
-6 8 2 0.4206 0.0327
-6 8 3 -1.0020 -0.0810
-6 8 4 -0.5202 0.1838
-6 8 5 0.8385 0.3728
-6 8 6 0.0801 0.3430
-6 9 1 -0.6545 0.7609
-6 9 2 -0.2612 0.2119
-6 9 3 0.9341 -0.1625
-6 9 4 2.5643 -0.1599
-6 10 1 -1.4022 -0.0332
-6 11 1 -1.3611 0.7090
-5 -10 3 -0.7160 -0.0004
-5 -10 4 1.4408 0.1000
-5 -10 5 1.7420 0.1168
-5 -10 6 0.9418 -0.0186
-5 -10 7 1.9302 -0.0561
-5 -10 8 2.1780 -0.0329
-5 -10 9 -0.5514 -0.0129
-5 -10 10 -1.7602 0.0337
-5 -9 1 0.7190 0.1294
-5 -9 2 -1.7580 0.0320
-5 -9 3 0.1635 0.0420
-5 -9 4 1.3378 0.0748
-5 -9 5 -1.2342 0.0074
-5 -9 6 -2.6487 -0.0457
-5 -9 7 -1.3395 0.0404
-5 -9 8 -1.3477 0.1493
-5 -9 9 -1.9702 0.1321
-5 -9 10 0.2496 0.0851
-5 -9 11 2.3811 0.1434
-5 -8 1 1.9933 0.1655
-5 -8 2 0.4964 -0.1874
-5 -8 3 -1.5554 -0.2745
-5 -8 4 -1.5530 -0.0198
-5 -8 5 -0.0569 0.1260
-5 -8 6 -0.0246 -0.0192
-5 -8 7 -1.8122 -0.1239
-5 -8 8 -2.0247 -0.0906
-5 -8 9 0.6330 -0.1245
-5 -8 10 3.1394 -0.1458
-5 -8 11 3.2983 -0.0691
-5 -8 12 1.8321 -0.1178
-5 -7 1 2.0329 0.4780
-5 -7 2 1.0901 0.1608
-5 -7 3 -0.6081 -0.0347
-5 -7 4 0.1421 0.0857
-5 -7 5 0.4337 0.0633
-5 -7 6 -1.4303 -0.1083
-5 -7 7 -1.5599 -0.0200
-5 -7 8 0.7085 0.1579
-5 -7 9 0.9432 0.0677
-5 -7 10 -0.6272 -0.0526
-5 -7 11 0.1318 0.0585
-5 -7 12 1.7429 0.1936
-5 -7 13 0.4200 0.1593
-5 -6 1 0.0550 0.2388
-5 -6 2 -0.3266 -0.1104
-5 -6 3 -1.0356 -0.1819
-5 -6 4 -0.1644 0.0268
-5 -6 5 0.1796 0.0586
-5 -6 6 -0.7406 -0.0227
-5 -6 7 -1.0484 0.0407
-5 -6 8 -1.0747 0.1040
-5 -6 9 -1.9287 0.0469
-5 -6 10 -1.7963 0.0167
-5 -6 11 0.3157 -0.0008
-5 -6 12 1.7436 -0.1251
-5 -6 13 0.8445 -0.1868
-5 -5 1 0.0453 0.2770
-5 -5 2 -0.8298 0.0612
-5 -5 3 -0.0352 -0.0047
-5 -5 4 2.7943 0.0662
-5 -5 5 4.5167 0.0300
-5 -5 6 3.1050 -0.1129
-5 -5 7 0.6871 -0.1530
-5 -5 8 -0.2294 -0.0893
-5 -5 9 -0.0583 -0.0897
-5 -5 10 0.2349 -0.1162
-5 -5 11 1.2481 -0.0209
-5 -5 12 2.4811 0.1177
-5 -5 13 1.3543 0.1399
-5 -4 1 0.9694 0.3941
-5 -4 2 1.6072 -0.0416
-5 -4 3 0.6407 -0.2152
-5 -4 4 1.1455 0.0210
-5 -4 5 3.2538 0.1067
-5 -4 6 3.3077 -0.0125
-5 -4 7 0.6313 0.0829
-5 -4 8 -1.5982 0.2349
-5 -4 9 -2.0548 0.0877
-5 -4 10 -1.4580 -0.0474
-5 -4 11 0.4166 0.0881
-5 -4 12 2.4225 0.0904
-5 -4 13 1.7897 -0.1470
-5 -3 1 1.1476 0.3022
-5 -3 2 0.0140 -0.0216
-5 -3 3 -3.4532 -0.0124
-5 -3 4 -3.6397 0.1373
-5 -3 5 -1.0638 -0.0007
-5 -3 6 -0.4550 -0.1431
-5 -3 7 -1.2847 0.0005
-5 -3 8 -0.1369 0.0710
-5 -3 9 1.5732 -0.0974
-5 -3 10 1.1774 -0.1483
-5 -3 11 0.3435 -0.0420
-5 -3 12 0.4739 -0.0289
-5 -3 13 -0.4222 0.0160
-5 -2 1 0.7246 0.3880
-5 -2 2 -0.1777 0.0430
-5 -2 3 -1.7471 -0.1565
-5 -2 4 -1.9434 -0.0608
-5 -2 5 -1.2275 -0.0032
-5 -2 6 -0.5667 -0.0778
-5 -2 7 0.8069 -0.1042
-5 -2 8 3.1350 -0.0509
-5 -2 9 4.3508 0.0082
-5 -2 10 3.1256 0.0894
-5 -2 11 0.8652 0.1692
-5 -2 12 -1.5776 0.0911
-5 -1 1 1.8491 0.4282
-5 -1 2 1.2046 -0.0049
-5 -1 3 0.1235 -0.1279
-5 -1 4 -0.1348 0.1252
-5 -1 5 0.4169 0.2206
-5 -1 6 -0.8114 0.1054
-5 -1 7 -3.4881 0.1114
-5 -1 8 -2.2458 0.1470
-5 -1 9 4.4432 -0.0296
-5 0 1 1.5621 0.4149
-5 0 2 0.6372 0.0394
-5 0 3 -0.2750 -0.1585
-5 0 4 1.0876 -0.0789
-5 0 6 0.2644 -0.2048
-5 0 7 -3.6353 -0.1264
-5 0 13 -0.9113 -0.1707
-5 1 1 3.1663 0.4785
-5 1 2 1.4677 -0.0093
-5 1 3 -0.4508 -0.1617
-5 1 4 0.6136 0.1108
-5 1 5 3.0393 0.1729
-5 1 6 2.4764 -0.0163
-5 1 10 2.0331 0.0079
-5 1 11 -0.8385 -0.0007
-5 1 12 -3.9679 0.0725
-5 2 1 3.3316 0.4119
-5 2 2 1.0275 -0.0099
-5 2 3 -1.0800 -0.0728
-5 2 4 -1.2803 0.1385
-5 2 5 0.5567 0.1388
-5 2 6 0.5619 -0.0257
-5 2 7 -3.4415 -0.0398
-5 2 8 -6.4934 0.0046
-5 2 9 -4.0991 -0.1435
-5 2 10 0.2281 -0.2650
-5 2 11 1.6405 0.0499
-5 2 12 1.1138 0.4772
-5 3 1 2.9090 0.4374
-5 3 2 2.4326 0.0007
-5 3 3 1.3084 -0.2794
-5 3 4 1.3812 -0.1778
-5 3 5 2.7814 -0.1169
-5 3 6 1.6312 -0.1527
-5 3 7 -2.8185 0.0268
-5 3 8 -4.9895 0.2480
-5 3 9 -1.9649 0.1099
-5 3 10 1.6585 -0.1503
-5 3 11 2.1205 -0.1115
-5 4 1 3.5514 0.4980
-5 4 2 1.5765 0.0696
-5 4 3 0.3788 0.0500
-5 4 4 0.8661 0.2880
-5 4 5 1.4633 0.2206
-5 4 6 0.6435 -0.0332
-5 4 7 -1.3011 -0.0949
-5 4 8 -2.6807 -0.0223
-5 4 9 -2.9587 0.0414
-5 4 10 -3.2155 0.1190
-5 4 11 -3.0993 0.1422
-5 5 1 1.3679 0.3602
-5 5 2 -0.7066 0.0396
-5 5 3 -2.3457 -0.2225
-5 5 4 -3.2658 -0.1607
-5 5 5 -1.6547 0.0060
-5 5 6 1.5782 0.0359
-5 5 7 2.2504 -0.0593
-5 5 8 -0.3243 -0.1269
-5 5 9 -2.5069 -0.1222
-5 5 10 -2.3031 -0.0822
-5 6 1 0.5356 0.5519
-5 6 2 0.1820 -0.0640
-5 6 3 -0.9687 -0.3111
-5 6 4 -0.7303 -0.0225
-5 6 5 1.0603 0.1329
-5 6 6 0.7307 0.0408
-5 6 7 -2.5096 0.1151
-5 6 8 -4.1774 0.2211
-5 6 9 -1.9770 -0.0527
-5 7 1 -0.0792 0.4464
-5 7 2 0.8018 0.1986
-5 7 3 1.1015 0.1972
-5 7 4 0.5020 0.2288
-5 7 5 -2.0459 -0.0823
-5 7 6 -4.9190 -0.3379
-5 7 7 -4.9060 -0.1197
-5 7 8 -1.9865 0.2392
-5 8 1 1.7463 0.3506
-5 8 2 1.5131 -0.2719
-5 8 3 -0.4366 -0.4698
-5 8 4 -2.4826 -0.0317
-5 8 5 -1.9323 0.2935
-5 8 6 1.3526 0.0924
-5 8 7 3.3509 -0.2634
-5 9 1 0.6152 0.5360
-5 9 2 -1.1434 0.1389
-5 9 3 -1.3181 -0.0686
-5 9 4 0.8829 0.0302
-5 9 5 3.9238 0.1178
-5 9 6 4.2441 0.1580
-5 10 1 -2.7735 0.5639
-5 10 2 -1.6272 0.2443
-5 11 1 -0.0935 -0.0916
-5 11 2 0.6434 -0.3136
-5 12 1 0.5883 0.8364
-5 12 2 -1.2417 0.0169
-4 -12 4 0.3114 0.2168
-4 -12 5 1.4666 0.0657
-4 -12 6 0.2051 -0.1324
-4 -12 7 -1.6419 -0.0095
-4 -12 8 -1.5335 0.0142
-4 -12 9 -0.0086 -0.1033
-4 -12 10 0.1895 -0.0251
-4 -12 11 -2.5309 0.0346
-4 -11 1 -1.2117 0.3748
-4 -11 2 -0.7965 0.0551
-4 -11 3 1.5339 -0.1230
-4 -11 4 1.8771 -0.1466
-4 -11 5 0.4161 -0.1860
-4 -11 6 0.6288 -0.1354
-4 -11 7 1.8634 -0.0692
-4 -11 8 2.2544 -0.1576
-4 -11 9 3.1298 -0.2015
-4 -11 10 3.5122 -0.0597
-4 -11 11 0.1234 -0.0035
-4 -11 12 -3.8797 -0.0927
-4 -10 1 -3.1092 0.3246
-4 -10 2 1.4261 0.0432
-4 -10 3 2.8940 0.0164
-4 -10 4 -0.8605 0.2064
-4 -10 5 -3.3570 0.2299
-4 -10 6 -1.4704 0.1645
-4 -10 7 1.1161 0.2257
-4 -10 8 3.1592 0.2333
-4 -10 9 5.6984 0.1102
-4 -10 10 6.0021 0.1180
-4 -10 11 2.5387 0.2205
-4 -10 12 -0.2171 0.1534
-4 -10 13 0.7673 0.0555
-4 -9 1 -1.1939 0.1520
-4 -9 2 0.0039 0.0080
-4 -9 3 -0.5039 -0.0982
-4 -9 4 -1.6161 -0.1009
-4 -9 5 -1.4597 -0.1989
-4 -9 6 -0.2814 -0.2402
-4 -9 7 0.3033 -0.1042
-4 -9 8 -0.6100 -0.0902
-4 -9 9 -1.9882 -0.2145
-4 -9 10 -1.7435 -0.1675
-4 -9 11 -0.0084 -0.0956
-4 -9 12 0.6890 -0.2429
-4 -9 13 0.0704 -0.3001
-4 -9 14 0.4167 -0.0829
-4 -8 1 -0.9741 0.3841
-4 -8 2 -2.9565 -0.1053
-4 -8 3 -0.8875 -0.1642
-4 -8 4 1.6737 0.1511
-4 -8 5 2.1039 0.1721
-4 -8 6 1.9786 -0.0058
-4 -8 7 1.0689 0.0298
-4 -8 8 -2.2481 0.1158
-4 -8 9 -4.5928 0.0696
-4 -8 10 -2.3395 0.0878
-4 -8 11 0.5143 0.1950
-4 -8 12 -0.3258 0.2108
-4 -8 13 -1.2544 0.1642
-4 -8 14 0.7549 0.1289
-4 -8 15 1.3058 0.0477
-4 -7 1 -3.2301 0.3702
-4 -7 2 -2.5832 0.0664
-4 -7 3 0.5757 0.0060
-4 -7 4 1.3369 0.1029
-4 -7 5 0.7041 0.0375
-4 -7 6 2.2405 -0.0292
-4 -7 7 3.7084 0.0626
-4 -7 8 1.8201 0.0689
-4 -7 9 -0.7390 -0.0722
-4 -7 10 -0.8372 -0.0919
-4 -7 11 0.0012 -0.0104
-4 -7 12 0.5115 -0.0680
-4 -7 13 1.4692 -0.1631
-4 -7 14 1.3761 -0.1121
-4 -7 15 -1.5322 -0.0527
-4 -6 1 -3.7794 0.2501
-4 -6 2 -2.5669 -0.0882
-4 -6 3 -0.3235 -0.2759
-4 -6 4 0.2037 -0.1287
-4 -6 5 -0.0607 -0.0365
-4 -6 6 0.7521 -0.1158
-4 -6 7 1.5837 -0.1116
-4 -6 8 0.4436 -0.0457
-4 -6 9 -1.9144 -0.0612
-4 -6 10 -2.4197 -0.0577
-4 -6 11 0.2636 -0.0238
-4 -6 12 3.0967 -0.0534
-4 -6 13 2.1445 -0.0067
-4 -6 14 -1.6313 0.1378
-4 -6 15 -3.5670 0.1008
-4 -5 1 -2.0055 0.4905
-4 -5 2 0.5896 0.1886
-4 -5 3 2.6600 0.0556
-4 -5 4 1.5711 0.1806
-4 -5 5 -1.4861 0.1556
-4 -5 6 -2.0199 0.0551
-4 -5 7 1.3147 0.1226
-4 -5 8 3.6882 0.1512
-4 -5 9 2.0009 0.0697
-4 -5 10 0.4283 0.1306
-4 -5 11 1.9215 0.2181
-4 -5 12 2.2205 0.0780
-4 -5 13 -0.8076 -0.0630
-4 -5 14 -2.0212 -0.0116
-4 -5 15 0.6830 0.0110
-4 -4 1 2.5446 0.3156
-4 -4 2 5.8156 -0.1394
-4 -4 3 3.8875 -0.2782
-4 -4 4 -1.4454 -0.0791
-4 -4 5 -4.7596 -0.0067
-4 -4 6 -2.1547 -0.1043
-4 -4 7 3.4807 -0.1454
-4 -4 8 5.7045 -0.1363
-4 -4 9 3.4278 -0.1430
-4 -4 10 0.7416 -0.1380
-4 -4 11 -0.9834 -0.1448
-4 -4 12 -2.7334 -0.1390
-4 -4 13 -2.3456 -0.0312
-4 -4 14 1.4066 0.0571
-4 -4 15 3.4742 -0.0332
-4 -3 1 1.1279 0.4534
-4 -3 2 1.6698 0.1191
-4 -3 3 -0.7492 -0.0719
-4 -3 4 -2.7577 0.0629
-4 -3 5 -1.9651 0.1108
-4 -3 6 0.1310 -0.0078
-4 -3 7 1.2449 0.0377
-4 -3 8 0.9328 0.1911
-4 -3 9 -0.6685 0.1378
-4 -3 10 -3.1522 0.0032
-4 -3 11 -4.7689 0.0562
-4 -3 12 -4.1393 0.1493
-4 -3 13 -2.1981 0.0876
-4 -3 14 -0.3182 -0.0142
-4 -3 15 1.4322 -0.0373
-4 -2 1 -5.9070 0.5764
-4 -2 2 -4.5939 0.0316
-4 -2 3 -0.3358 -0.2199
-4 -2 4 4.1507 0.0411
-4 -2 5 5.8287 0.1527
-4 -2 6 4.2059 -0.0436
-4 -2 7 2.0882 -0.0943
-4 -2 8 0.9688 0.0054
-4 -2 9 -0.0149 0.0067
-4 -2 10 0.1149 0.0236
-4 -2 11 2.0708 0.0489
-4 -2 12 1.8726 -0.1169
-4 -2 13 -2.4423 -0.1903
-4 -2 14 -4.6885 0.0896
-4 -2 15 -0.5736 0.1988
-4 -1 1 -5.7949 0.3334
-4 -1 2 -2.3788 -0.0273
-4 -1 3 3.3561 -0.1815
-4 -1 4 5.7108 -0.0195
-4 -1 5 3.3773 0.0046
-4 -1 6 -0.1279 -0.1041
-4 -1 7 -0.9968 -0.0912
-4 -1 8 0.9998 -0.0653
-4 -1 9 3.7686 -0.1023
-4 -1 10 5.7721 -0.0628
-4 -1 11 5.5927 -0.0218
-4 0 1 -1.7742 0.6651
-4 0 2 -0.2814 0.1307
-4 0 3 1.7036 -0.1489
-4 0 4 0.8920 0.0557
-4 0 5 -2.5834 0.2293
-4 0 6 -5.2757 0.1251
-4 0 7 -3.3989 0.0517
-4 0 13 -1.4283 0.0754
-4 0 14 0.1158 -0.0305
-4 1 1 -2.1712 0.3158
-4 1 2 -0.0925 -0.0750
-4 1 3 2.2898 -0.2070
-4 1 4 3.0681 0.0294
-4 1 5 2.2773 -0.0065
-4 1 10 -3.1462 -0.2774
-4 1 11 -4.8474 -0.0493
-4 1 12 -2.4662 0.1094
-4 1 13 -0.2090 -0.1845
-4 2 1 -0.3778 0.6253
-4 2 2 0.7580 0.0416
-4 2 3 1.3469 -0.1705
-4 2 4 2.5361 0.1074
-4 2 6 5.4198 -0.0111
-4 2 7 5.3465 0.0321
-4 2 8 4.0794 0.0894
-4 2 9 2.1645 -0.0518
-4 2 10 0.7390 -0.0020
-4 2 11 0.5456 0.2452
-4 2 12 1.0474 0.1295
-4 2 13 1.3772 -0.2462
-4 3 1 -0.1394 0.4113
-4 3 2 -3.2377 -0.0302
-4 3 3 -3.6311 -0.1270
-4 3 4 -2.3832 0.1125
-4 3 5 -0.9028 0.1261
-4 3 6 -0.2839 -0.0717
-4 3 7 -0.7617 -0.0171
-4 3 8 -1.6138 0.2026
-4 3 9 -2.2857 0.0912
-4 3 10 -2.1913 -0.2272
-4 3 11 -0.9027 -0.1229
-4 3 12 0.0591 0.2904
-4 4 1 -2.0799 0.5448
-4 4 2 -1.5761 0.0250
-4 4 3 -0.6444 -0.2778
-4 4 4 -1.2767 -0.0812
-4 4 5 -1.9445 -0.0157
-4 4 6 -1.9416 -0.2205
-4 4 7 -1.9108 -0.1572
-4 4 8 -2.0486 0.0822
-4 4 9 -1.6780 -0.0592
-4 4 10 -0.2709 -0.2688
-4 4 11 0.6408 0.0366
-4 4 12 -1.0652 0.2688
-4 5 1 2.1919 0.5249
-4 5 2 5.2056 0.0436
-4 5 3 3.9929 -0.0570
-4 5 4 0.5869 0.2257
-4 5 5 -1.9914 0.2488
-4 5 6 -2.3211 0.0242
-4 5 7 -0.4078 0.0190
-4 5 8 2.2896 0.1607
-4 5 9 3.6804 0.1526
-4 5 10 2.8439 0.0978
-4 5 11 0.7111 0.0707
-4 6 1 3.2229 0.4517
-4 6 2 2.9059 0.0120
-4 6 3 1.1083 -0.2361
-4 6 4 -1.1707 -0.0905
-4 6 5 -2.8671 0.0032
-4 6 6 -2.2934 -0.0760
-4 6 7 0.6586 -0.0767
-4 6 8 3.1244 -0.0407
-4 6 9 2.2526 -0.1671
-4 6 10 -0.8783 -0.2313
-4 7 1 -3.0964 0.4330
-4 7 2 -3.2314 -0.0559
-4 7 3 -0.8740 -0.1540
-4 7 4 0.9208 0.0649
-4 7 5 0.9776 0.0119
-4 7 6 0.4754 -0.1457
-4 7 7 0.1939 0.0455
-4 7 8 -0.4817 0.2281
-4 7 9 -1.5186 -0.0550
-4 8 1 -4.0388 0.5419
-4 8 2 -1.5078 0.1622
-4 8 3 0.6502 0.0074
-4 8 4 1.3117 0.1474
-4 8 5 1.3568 0.1346
-4 8 6 0.3850 0.0134
-4 8 7 -2.6580 0.0690
-4 8 8 -5.9117 0.1456
-4 9 1 1.2556 0.3915
-4 9 2 1.3406 -0.1735
-4 9 3 -0.5448 -0.3912
-4 9 4 -0.2037 -0.0954
-4 10 1 0.2112 0.5203
-4 10 2 -0.6533 0.1101
-4 10 3 0.0092 -0.0139
-4 10 4 3.0425 0.1527
-4 11 1 -3.4189 0.5145
-4 11 2 -1.3689 0.0239
-4 11 3 1.1321 -0.1574
-4 11 4 1.1979 0.0196
-4 11 5 1.3205 -0.0498
-4 12 1 -0.6068 0.2464
-4 12 2 0.7167 -0.3359
-4 12 3 0.7049 -0.2843
-4 12 4 -0.9654 0.2322
-4 13 1 -0.9799 0.7032
-4 13 2 -1.4641 0.2295
-3 -14 7 -1.8472 -0.0440
-3 -14 8 -2.3693 -0.0473
-3 -14 9 -2.1581 0.1005
-3 -13 3 2.2695 -0.0425
-3 -13 4 2.5793 -0.0281
-3 -13 5 2.2713 -0.1106
-3 -13 6 0.6806 -0.0044
-3 -13 7 -1.9996 0.1708
-3 -13 8 -2.5156 0.1222
-3 -13 9 0.7370 -0.0367
-3 -13 10 3.1130 -0.0677
-3 -13 11 0.4529 0.0044
-3 -13 12 -3.7822 0.0314
-3 -12 1 2.2874 0.1202
-3 -12 2 3.3179 -0.1147
-3 -12 3 1.3468 -0.0983
-3 -12 4 -0.6383 -0.0108
-3 -12 5 -0.3251 -0.0614
-3 -12 6 -0.6208 -0.1068
-3 -12 7 -2.6482 -0.0677
-3 -12 8 -2.7728 -0.0879
-3 -12 9 -0.6714 -0.1632
-3 -12 10 -0.4800 -0.1195
-3 -12 11 -2.4948 0.0126
-3 -12 12 -3.2494 0.0177
-3 -12 13 -2.1654 -0.0869
-3 -12 14 -0.6019 0.0043
-3 -11 1 1.6380 0.4453
-3 -11 2 0.3768 0.0691
-3 -11 3 -0.5957 0.0329
-3 -11 4 -0.4119 0.1780
-3 -11 5 -0.1692 0.0722
-3 -11 6 -0.5766 -0.0593
-3 -11 7 -0.6008 0.0761
-3 -11 8 -0.2549 0.2140
-3 -11 9 -0.8942 0.1368
-3 -11 10 -1.9528 0.0409
-3 -11 11 -1.8149 0.0573
-3 -11 12 -1.0753 0.0946
-3 -11 13 -0.7870 0.0944
-3 -11 14 -0.0261 0.0178
-3 -11 15 1.6517 -0.1782
-3 -10 1 -3.5263 0.1463
-3 -10 2 -3.4334 -0.2412
-3 -10 3 -0.7806 -0.1978
-3 -10 4 -0.0299 0.0710
-3 -10 5 -1.0505 0.0567
-3 -10 6 -0.6324 -0.0782
-3 -10 7 0.5462 -0.0707
-3 -10 8 0.0289 -0.0578
-3 -10 9 -0.8865 -0.0935
-3 -10 10 -0.2651 -0.0625
-3 -10 11 0.2581 -0.0333
-3 -10 12 -0.5966 -0.0908
-3 -10 13 -0.6931 -0.1205
-3 -10 14 1.3120 -0.0471
-3 -10 15 3.4577 0.0626
-3 -9 1 -1.1197 0.4380
-3 -9 2 -3.9065 0.1176
-3 -9 3 -3.9645 -0.0491
-3 -9 4 -2.4964 -0.0132
-3 -9 5 -0.3715 -0.0087
-3 -9 6 0.7467 -0.0298
-3 -9 7 -0.8380 -0.0041
-3 -9 8 -2.7237 0.0150
-3 -9 9 -0.9079 0.0217
-3 -9 10 3.3683 0.0418
-3 -9 11 5.2648 0.0298
-3 -9 12 3.4660 0.0155
-3 -9 13 0.7457 0.0919
-3 -9 14 -0.3543 0.1731
-3 -9 15 0.5066 0.1091
-3 -9 16 1.6592 -0.0208
-3 -8 1 1.0035 0.3379
-3 -8 2 -2.5796 -0.0506
-3 -8 3 -3.4934 -0.1604
-3 -8 4 -1.3825 0.0734
-3 -8 5 0.9634 0.1452
-3 -8 6 0.6171 0.0119
-3 -8 7 -2.0139 0.0104
-3 -8 8 -3.3891 0.0872
-3 -8 9 -1.4914 0.0269
-3 -8 10 1.6737 -0.0454
-3 -8 11 2.9208 0.0052
-3 -8 12 1.0460 0.0232
-3 -8 13 -2.4274 -0.1082
-3 -8 14 -4.0632 -0.2452
-3 -8 15 -1.9252 -0.1923
-3 -8 16 1.3330 0.0154
-3 -7 1 0.7923 0.3606
-3 -7 2 1.4816 0.0238
-3 -7 3 0.6104 -0.0604
-3 -7 4 -0.5678 0.0502
-3 -7 5 -1.8209 -0.0681
-3 -7 6 -2.4757 -0.2000
-3 -7 7 -1.5158 -0.0541
-3 -7 8 -0.0441 0.0611
-3 -7 9 -0.0467 -0.0569
-3 -7 10 -0.7573 -0.1157
-3 -7 11 -0.1899 0.0087
-3 -7 12 0.9128 0.1028
-3 -7 13 0.7744 0.0998
-3 -7 14 0.0915 0.1108
-3 -7 15 0.0810 0.1363
-3 -7 16 -0.1839 0.0751
-3 -6 1 6.7098 0.3926
-3 -6 2 7.5468 -0.0365
-3 -6 3 2.9686 -0.1528
-3 -6 4 -2.4194 0.0628
-3 -6 5 -3.9142 0.1435
-3 -6 6 0.2598 0.0426
-3 -6 7 6.0319 0.0244
-3 -6 8 6.9290 0.0752
-3 -6 9 2.6479 0.0437
-3 -6 10 -0.7440 -0.0173
-3 -6 11 0.2126 -0.0070
-3 -6 12 2.9738 0.0145
-3 -6 13 4.1186 -0.0353
-3 -6 14 2.7624 -0.0961
-3 -6 15 0.1056 -0.0629
-3 -6 16 -1.3580 0.0255
-3 -5 1 7.7950 0.4344
-3 -5 2 4.0328 0.1088
-3 -5 3 -2.8717 -0.1204
-3 -5 4 -5.6458 -0.0083
-3 -5 5 -1.3132 0.0417
-3 -5 6 5.2119 -0.0836
-3 -5 7 6.9584 -0.0826
-3 -5 8 3.0234 0.0251
-3 -5 9 -1.6438 0.0108
-3 -5 10 -2.9954 -0.0371
-3 -5 11 -1.0458 -0.0031
-3 -5 12 1.9313 -0.0249
-3 -5 13 3.0724 -0.1001
-3 -5 14 1.0256 -0.0443
-3 -5 15 -1.6026 0.0892
-3 -5 16 -1.2830 0.0968
-3 -4 1 -2.4182 0.5186
-3 -4 2 -2.0651 0.0172
-3 -4 3 -1.8184 -0.2524
-3 -4 4 -1.0612 -0.0315
-3 -4 5 -1.3227 0.1248
-3 -4 6 -2.9555 0.0059
-3 -4 7 -3.0772 -0.0535
-3 -4 8 -0.8664 0.0061
-3 -4 9 0.5870 0.0087
-3 -4 10 0.1885 0.0027
-3 -4 11 0.3231 0.0634
-3 -4 12 1.3329 0.1249
-3 -4 13 0.9055 0.1347
-3 -4 14 -0.8959 0.0372
-3 -4 15 -1.8693 -0.1269
-3 -4 16 -2.1801 -0.1140
-3 -3 1 1.6479 0.4436
-3 -3 2 7.5915 0.1061
-3 -3 3 8.5076 -0.0769
-3 -3 4 3.0203 0.0909
-3 -3 5 -4.4041 0.1046
-3 -3 6 -6.4833 -0.0629
-3 -3 7 -1.6971 -0.0234
-3 -3 8 3.3790 0.1091
-3 -3 9 3.5671 0.0194
-3 -3 10 1.1520 -0.1375
-3 -3 11 -0.2185 -0.1150
-3 -3 12 -0.5333 -0.0403
-3 -3 13 -0.2811 -0.0728
-3 -3 14 0.8746 -0.0714
-3 -3 15 1.5696 0.0961
-3 -3 16 0.3472 0.1745
-3 -2 1 7.8889 0.5511
-3 -2 2 6.3669 -0.0331
-3 -2 3 3.5729 -0.2777
-3 -2 4 1.2798 -0.0626
-3 -2 5 0.4182 0.0464
-3 -2 6 0.5598 -0.0582
-3 -2 7 0.8577 -0.0599
-3 -2 8 0.6922 0.0207
-3 -2 9 -0.1106 0.0137
-3 -2 10 -1.1008 0.0373
-3 -2 11 -1.6266 0.1191
-3 -2 12 -1.3333 0.0385
-3 -2 13 -0.2777 -0.1044
-3 -2 14 0.8367 0.0207
-3 -2 15 1.1398 0.1995
-3 -1 1 -3.3111 0.4255
-3 -1 2 -4.2887 0.1227
-3 -1 3 -1.6898 -0.0675
-3 -1 4 2.2595 0.1054
-3 -1 5 3.3553 0.1693
-3 -1 6 1.0297 -0.0284
-3 -1 7 -1.1781 -0.0637
-3 -1 8 -1.7675 0.0669
-3 -1 9 -1.9290 0.0204
-3 -1 10 -1.5077 -0.0630
-3 -1 11 -0.3048 0.0439
-3 -1 12 0.0046 0.0960
-3 -1 13 -0.7112 -0.0342
-3 -1 14 -0.4812 -0.1068
-3 -1 15 0.4866 -0.0610
-3 0 1 -1.5303 0.6542
-3 0 2 -2.2241 -0.0121
-3 0 3 -3.8901 -0.3371
-3 0 4 -2.3369 -0.0170
-3 0 5 0.7351 0.0944
-3 0 6 1.3495 -0.1214
-3 0 7 -1.4758 -0.0577
-3 0 8 -4.7553 0.1175
-3 0 9 -4.0493 -0.0550
-3 0 10 0.7454 -0.2381
-3 0 11 3.7838 -0.0687
-3 0 12 1.6936 0.1244
-3 0 13 -0.9947 0.0583
-3 0 14 0.1529 -0.0794
-3 0 15 2.4016 -0.0249
-3 1 1 7.4444 0.3938
-3 1 4 -3.9596 0.1608
-3 1 9 -4.0512 0.1405
-3 1 10 0.9910 -0.0299
-3 1 11 2.2142 0.0243
-3 1 12 -1.0661 0.1065
-3 1 13 -3.7662 -0.0461
-3 1 14 -2.3982 -0.2060
-3 2 1 4.3589 0.6801
-3 2 2 -0.8714 0.1339
-3 2 3 -2.0890 -0.2343
-3 2 5 3.9437 0.1608
-3 2 6 3.3815 -0.0500
-3 2 7 0.6638 -0.1434
-3 2 8 -2.2969 -0.0125
-3 2 9 -4.3411 -0.0471
-3 2 10 -4.0799 -0.1165
-3 2 11 -2.1618 0.0591
-3 2 12 -1.3531 0.1085
-3 2 13 -1.8581 -0.1370
-3 2 14 -1.5037 -0.0845
-3 3 1 -0.2189 0.3986
-3 3 2 3.1830 -0.1333
-3 3 3 1.9926 -0.2715
-3 3 4 -0.9573 0.0768
-3 3 5 -1.9015 0.1190
-3 3 6 0.5160 -0.1290
-3 3 7 3.3757 -0.0350
-3 3 8 2.4267 0.1609
-3 3 9 -1.1111 -0.0226
-3 3 10 -1.8029 -0.1656
-3 3 11 1.1042 0.0500
-3 3 12 3.0304 0.1276
-3 3 13 1.9233 -0.0679
-3 4 1 -0.6105 0.6790
-3 4 2 1.9194 0.2280
-3 4 3 -0.1803 -0.0731
-3 4 4 -3.7026 0.0426
-3 4 5 -4.5161 0.0749
-3 4 6 -0.7447 -0.0232
-3 4 7 4.2633 0.0753
-3 4 8 5.3737 0.1705
-3 4 9 2.8755 -0.0034
-3 4 10 1.3488 -0.1044
-3 4 11 1.9538 0.1063
-3 4 12 1.8843 0.1792
-3 5 1 1.7815 0.4230
-3 5 2 2.6886 -0.1331
-3 5 3 1.7264 -0.3045
-3 5 4 -0.0042 0.0250
-3 5 5 -0.9277 0.0923
-3 5 6 -0.1885 -0.1949
-3 5 7 1.0212 -0.2183
-3 5 8 1.0346 0.0070
-3 5 9 0.3760 -0.0116
-3 5 10 0.4944 -0.1180
-3 5 11 0.9034 0.0727
-3 5 12 0.6529 0.1965
-3 6 1 3.1298 0.5688
-3 6 2 3.5524 0.0963
-3 6 3 2.5919 -0.1280
-3 6 4 1.2097 0.1078
-3 6 5 -0.4931 0.1914
-3 6 6 -1.8340 0.0191
-3 6 7 -1.4320 0.0403
-3 6 8 0.4864 0.1727
-3 6 9 1.7983 0.0400
-3 6 10 1.1793 -0.1617
-3 6 11 -0.3411 -0.0731
-3 7 1 0.0127 0.5875
-3 7 2 0.4347 0.0314
-3 7 3 0.9634 -0.2401
-3 7 4 1.6237 0.0068
-3 7 5 1.9761 0.1027
-3 7 6 2.3384 -0.1152
-3 7 7 2.6159 -0.1395
-3 7 8 1.1126 0.0855
-3 7 9 -2.6198 0.1374
-3 7 10 -5.5595 -0.0382
-3 8 1 -2.9270 0.4242
-3 8 2 0.3626 -0.0318
-3 8 3 2.8591 -0.2454
-3 8 4 3.2798 -0.0091
-3 8 5 2.5920 0.0906
-3 8 6 1.9023 -0.0848
-3 8 7 0.2303 -0.1474
-3 8 8 -3.0276 -0.0454
-3 9 1 0.2098 0.5990
-3 9 2 2.4762 0.1609
-3 9 3 1.8122 -0.0415
-3 9 4 -0.9119 0.1186
-3 9 5 -2.1279 0.1978
-3 9 6 -0.9622 0.1067
-3 9 7 0.7124 0.0753
-3 9 8 2.5950 0.0735
-3 10 1 2.4855 0.2949
-3 10 2 1.8507 -0.0757
-3 10 3 0.3620 -0.2287
-3 10 4 0.2683 -0.1226
-3 10 5 1.4382 -0.1503
-3 10 6 0.9897 -0.1874
-3 10 7 -0.5767 -0.0313
-3 11 1 1.8863 0.3873
-3 11 2 0.2164 0.0212
-3 11 3 -0.2573 0.0602
-3 11 4 1.5213 0.2117
-3 11 5 2.3312 0.0544
-3 11 6 -0.0916 -0.0724
-3 12 1 0.5002 0.4917
-3 12 2 -1.1420 0.0461
-3 12 3 -2.0676 -0.1297
-3 12 4 -1.3198 -0.0003
-3 13 1 0.3968 0.2139
-3 13 2 1.2450 -0.0954
-3 13 3 0.3318 -0.2388
-3 14 1 -0.6604 0.6895
-2 -15 6 5.8288 0.0951
-2 -15 7 3.2454 0.0073
-2 -15 8 -2.7196 -0.0136
-2 -15 9 -4.4067 -0.0379
-2 -15 10 -1.9069 -0.0031
-2 -14 3 0.3223 -0.1446
-2 -14 4 -1.0244 0.2342
-2 -14 5 0.2665 0.2261
-2 -14 6 0.8754 -0.0282
-2 -14 7 -0.4068 -0.0140
-2 -14 8 -0.4828 0.2044
-2 -14 9 0.8942 0.2194
-2 -14 10 1.1673 0.0348
-2 -14 11 0.8693 -0.0291
-2 -14 12 1.6850 0.0772
-2 -14 13 2.1313 0.0888
-2 -13 1 -1.3220 0.2618
-2 -13 2 -1.4105 0.0704
-2 -13 3 -1.6935 -0.1507
-2 -13 4 -2.4006 -0.2574
-2 -13 5 -4.4442 -0.2196
-2 -13 6 -4.8602 -0.0906
-2 -13 7 -1.3320 -0.0216
-2 -13 8 2.2469 -0.1031
-2 -13 9 2.0681 -0.2158
-2 -13 10 0.7025 -0.1739
-2 -13 11 0.9227 -0.0167
-2 -13 12 0.5373 0.0092
-2 -13 13 -1.6927 -0.1449
-2 -13 14 -2.8247 -0.1677
-2 -12 1 -1.4903 0.3481
-2 -12 2 -1.7506 0.0783
-2 -12 3 -0.1157 -0.0206
-2 -12 4 -0.9243 0.1516
-2 -12 5 -3.2021 0.2252
-2 -12 6 -3.2051 0.0656
-2 -12 7 -2.3283 -0.0426
-2 -12 8 -2.9739 0.0382
-2 -12 9 -2.8498 0.1171
-2 -12 10 -0.4863 0.0800
-2 -12 11 1.0658 0.0357
-2 -12 12 0.5484 0.0707
-2 -12 13 0.5948 0.1505
-2 -12 14 1.5164 0.1783
-2 -12 15 0.6811 0.0230
-2 -11 1 -2.4453 0.3086
-2 -11 2 0.1590 0.0182
-2 -11 3 1.0783 -0.0690
-2 -11 4 0.0066 0.0085
-2 -11 5 -0.2776 -0.0330
-2 -11 6 -0.2406 -0.0659
-2 -11 7 -1.2361 0.0696
-2 -11 8 -1.1687 0.1432
-2 -11 9 0.8976 0.0091
-2 -11 10 1.8873 -0.0859
-2 -11 11 0.7696 -0.0093
-2 -11 12 0.4035 -0.0014
-2 -11 13 1.4510 -0.1713
-2 -11 14 1.5877 -0.2394
-2 -11 15 0.6107 -0.0145
-2 -11 16 0.1954 0.2550
-2 -10 1 -0.3425 0.2571
-2 -10 2 0.0945 -0.1657
-2 -10 3 0.3841 -0.2499
-2 -10 4 1.1452 -0.0121
-2 -10 5 1.2532 0.0707
-2 -10 6 0.3154 -0.0761
-2 -10 7 0.3271 -0.1676
-2 -10 8 1.7794 -0.1359
-2 -10 9 2.0007 -0.0864
-2 -10 10 0.0554 -0.0146
-2 -10 11 -1.2612 0.0615
-2 -10 12 -0.3309 0.0426
-2 -10 13 1.1608 -0.0017
-2 -10 14 1.8388 0.0882
-2 -10 15 1.7801 0.1952
-2 -10 16 0.6834 0.0516
-2 -9 1 -2.9507 0.5434
-2 -9 2 -3.6465 0.2284
-2 -9 3 -1.2411 0.0455
-2 -9 4 0.4973 0.1075
-2 -9 5 -0.5820 0.0724
-2 -9 6 -2.1761 0.0020
-2 -9 7 -2.0643 0.1186
-2 -9 8 -1.0449 0.2069
-2 -9 9 -0.3577 0.0645
-2 -9 10 0.2391 -0.0616
-2 -9 11 0.9200 0.0135
-2 -9 12 0.9099 0.0837
-2 -9 13 -0.0911 -0.0051
-2 -9 14 -1.2381 -0.1201
-2 -9 15 -1.6062 -0.1401
-2 -9 16 -0.9581 -0.0716
-2 -8 1 -3.0521 0.2963
-2 -8 2 -3.2740 -0.1696
-2 -8 3 -2.7061 -0.2993
-2 -8 4 -2.2073 -0.0325
-2 -8 5 -1.6492 0.0929
-2 -8 6 -1.0157 -0.0345
-2 -8 7 -0.8686 -0.0984
-2 -8 8 -0.6747 -0.0401
-2 -8 9 0.4603 -0.0138
-2 -8 10 1.6015 -0.0185
-2 -8 11 1.4044 -0.0226
-2 -8 12 0.4202 -0.0710
-2 -8 13 -0.3925 -0.0685
-2 -8 14 -1.1276 0.1005
-2 -8 15 -1.3086 0.2259
-2 -8 16 -0.0492 0.0679
-2 -8 17 1.3511 -0.1543
-2 -7 1 4.3010 0.4612
-2 -7 2 1.8631 0.1219
-2 -7 3 -1.0462 -0.0595
-2 -7 4 -1.5845 0.0653
-2 -7 5 0.2968 0.0281
-2 -7 6 1.8501 -0.1664
-2 -7 7 1.2946 -0.1163
-2 -7 8 -0.0104 0.0626
-2 -7 9 -0.2608 0.0402
-2 -7 10 0.5079 -0.0309
-2 -7 11 1.8522 0.0418
-2 -7 12 3.3130 0.0768
-2 -7 13 3.1242 -0.0025
-2 -7 14 0.3644 -0.0532
-2 -7 15 -2.4269 -0.0969
-2 -7 16 -2.4928 -0.1422
-2 -7 17 -0.6645 -0.0157
-2 -6 1 4.4173 0.5387
-2 -6 2 2.6822 -0.0016
-2 -6 3 0.4421 -0.2122
-2 -6 4 -0.9851 0.0500
-2 -6 5 -0.0608 0.2041
-2 -6 6 3.0455 0.1336
-2 -6 7 5.0646 0.1047
-2 -6 8 3.1508 0.0597
-2 -6 9 -0.7910 -0.0569
-2 -6 10 -2.2838 -0.0454
-2 -6 11 -0.2303 0.0482
-2 -6 12 1.9844 0.0025
-2 -6 13 1.2819 -0.0746
-2 -6 14 -1.4520 -0.0004
-2 -6 15 -3.2713 0.1060
-2 -6 16 -2.8347 0.0986
-2 -6 17 -0.7020 0.0142
-2 -5 1 -0.7880 0.3192
-2 -5 2 -1.2908 0.0321
-2 -5 3 -2.0633 -0.1158
-2 -5 4 -4.8722 -0.0230
-2 -5 5 -5.8180 -0.0739
-2 -5 6 -1.5917 -0.2139
-2 -5 7 2.9966 -0.1221
-2 -5 8 1.9040 0.0587
-2 -5 9 -2.5885 0.0385
-2 -5 10 -4.0816 -0.0615
-2 -5 11 -1.2236 -0.0321
-2 -5 12 2.1259 0.0385
-2 -5 13 2.5260 0.0393
-2 -5 14 0.2361 0.0433
-2 -5 15 -1.7237 0.0309
-2 -5 16 -1.3287 -0.1201
-2 -5 17 0.2265 -0.2064
-2 -4 1 -8.3696 0.6524
-2 -4 2 -5.7353 0.0469
-2 -4 3 -0.9675 -0.2012
-2 -4 4 -3.4083 0.0680
-2 -4 5 -10.4033 0.1658
-2 -4 6 -12.2806 -0.0122
-2 -4 7 -6.3153 -0.0178
-2 -4 8 0.9617 0.0783
-2 -4 9 3.0359 -0.0059
-2 -4 10 0.6578 -0.0500
-2 -4 11 -0.8464 0.0694
-2 -4 12 0.4745 0.0174
-2 -4 13 1.6219 -0.1696
-2 -4 14 1.1125 -0.0847
-2 -4 15 1.0940 0.0997
-2 -4 16 1.7397 0.0196
-2 -3 1 -10.7883 0.3601
-2 -3 2 -0.1695 -0.0436
-2 -3 3 8.8543 -0.0932
-2 -3 4 5.0069 0.1660
-2 -3 5 -6.9840 0.1191
-2 -3 6 -12.0675 -0.0898
-2 -3 7 -4.6292 -0.0062
-2 -3 8 4.9221 0.0980
-2 -3 9 5.7168 -0.0445
-2 -3 10 -0.2008 -0.0736
-2 -3 11 -4.3059 0.0897
-2 -3 12 -3.3921 0.0847
-2 -3 13 -0.0940 -0.0039
-2 -3 14 2.6736 0.0681
-2 -3 15 3.6342 0.0625
-2 -3 16 2.5674 -0.1081
-2 -2 1 0.2661 0.6207
-2 -2 2 -0.7145 0.0808
-2 -2 3 0.7192 -0.2920
-2 -2 4 1.3657 -0.1795
-2 -2 5 -0.5973 -0.0561
-2 -2 6 -2.4983 -0.0502
-2 -2 7 -2.5904 0.0199
-2 -2 8 -1.6004 0.0186
-2 -2 9 0.0186 -0.0874
-2 -2 10 1.1179 -0.0469
-2 -2 11 0.2991 0.0634
-2 -2 12 -0.7689 -0.0175
-2 -2 13 -0.0909 -0.1416
-2 -2 14 0.7672 -0.0501
-2 -2 15 0.6945 0.1353
-2 -2 16 1.3106 0.0878
-2 -1 1 -8.9227 0.5213
-2 -1 2 -25.5123 0.0744
-2 -1 3 -18.0019 -0.0788
-2 -1 4 1.4235 0.2047
-2 -1 5 11.0179 0.2305
-2 -1 6 4.2974 -0.0538
-2 -1 7 -6.9991 -0.0983
-2 -1 8 -9.0570 0.0846
-2 -1 9 -1.5820 0.0937
-2 -1 10 4.8735 -0.0231
-2 -1 11 4.5610 -0.0186
-2 -1 12 1.2280 0.0103
-2 -1 13 -1.2046 -0.0452
-2 -1 14 -2.1927 0.0057
-2 -1 15 -0.8496 0.1677
-2 0 1 -23.0404 0.5266
-2 0 2 -30.5126 -0.0368
-2 0 3 -11.1585 -0.2589
-2 0 4 11.8083 -0.0002
-2 0 5 16.3605 0.0660
-2 0 6 4.6544 -0.1026
-2 0 7 -6.1189 -0.0369
-2 0 8 -5.9942 0.0975
-2 0 9 0.7223 -0.0320
-2 0 10 5.4387 -0.0937
-2 0 11 4.8466 0.1065
-2 0 12 1.2823 0.1381
-2 0 13 -1.3226 -0.0595
-2 0 14 -1.0216 -0.0754
-2 0 15 0.8061 -0.0216
-2 1 3 -3.1579 -0.2578
-2 1 5 3.5704 0.1354
-2 1 6 1.7511 -0.0505
-2 1 7 0.3520 -0.0847
-2 1 8 0.6398 0.0139
-2 1 9 2.1021 -0.0003
-2 1 10 2.7700 -0.0327
-2 1 11 1.0353 -0.0698
-2 1 12 -1.0105 -0.1409
-2 1 13 -0.5491 0.0140
-2 1 14 0.6691 0.2695
-2 2 1 11.4685 0.7564
-2 2 2 -0.4887 0.0997
-2 2 3 -12.2356 -0.1883
-2 2 4 -13.9540 0.1034
-2 2 5 -7.6843 0.1737
-2 2 6 -0.8023 -0.0627
-2 2 7 1.9410 -0.0719
-2 2 8 1.1954 0.1097
-2 2 9 -0.0748 0.1290
-2 2 10 -0.9717 0.0176
-2 2 11 -1.6398 -0.0445
-2 2 12 -1.0334 -0.0111
-2 2 13 0.6189 0.0906
-2 2 14 1.1824 0.0932
-2 3 1 3.1193 0.3669
-2 3 2 -6.8441 -0.0705
-2 3 3 -12.4567 -0.2082
-2 3 4 -10.5744 0.0321
-2 3 5 -5.2223 0.0758
-2 3 6 -0.2589 -0.1095
-2 3 7 2.2162 -0.0956
-2 3 8 2.0131 0.0519
-2 3 9 0.7532 0.0093
-2 3 10 -0.2533 -0.0930
-2 3 11 -0.8189 -0.0076
-2 3 12 -0.5549 0.1072
-2 3 13 0.9372 0.0073
-2 4 1 -1.9222 0.7505
-2 4 2 -4.1275 0.1163
-2 4 3 -1.7877 -0.2597
-2 4 4 1.8208 0.0057
-2 4 5 3.9559 0.1562
-2 4 6 4.1368 -0.0442
-2 4 7 2.6052 -0.0689
-2 4 8 0.5669 0.0893
-2 4 9 -0.4081 0.0065
-2 4 10 -0.5741 -0.1766
-2 4 11 -1.0823 -0.0579
-2 4 12 -1.2616 0.2110
-2 4 13 -0.0043 0.1854
-2 5 1 -2.5435 0.4715
-2 5 2 -2.2616 -0.0250
-2 5 3 0.9168 -0.1443
-2 5 4 4.0277 0.1321
-2 5 5 3.8613 0.1269
-2 5 6 0.7547 -0.1087
-2 5 7 -1.8311 -0.0464
-2 5 8 -1.6044 0.1763
-2 5 9 0.1531 0.1386
-2 5 10 0.6333 -0.0402
-2 5 11 -0.8898 -0.0906
-2 5 12 -2.4601 -0.0484
-2 6 1 -1.9491 0.5933
-2 6 2 -2.4152 0.0697
-2 6 3 -2.9691 -0.2438
-2 6 4 -2.9185 -0.0469
-2 6 5 -2.7153 0.0675
-2 6 6 -1.6777 -0.0613
-2 6 7 0.3420 -0.1060
-2 6 8 1.7457 -0.0570
-2 6 9 1.4310 -0.0405
-2 6 10 0.0110 0.0159
-2 6 11 -1.3455 0.0491
-2 7 1 1.8604 0.4362
-2 7 2 -1.3235 -0.0803
-2 7 3 -3.6179 -0.1158
-2 7 4 -3.2634 0.1260
-2 7 5 -0.1565 0.0856
-2 7 6 3.1807 -0.0414
-2 7 7 3.4300 0.0464
-2 7 8 0.8547 0.0703
-2 7 9 -1.2518 -0.0866
-2 7 10 -1.2005 -0.0595
-2 8 1 -0.5375 0.5414
-2 8 2 -0.8123 0.2019
-2 8 3 -0.5679 -0.0794
-2 8 4 0.6797 -0.0553
-2 8 5 2.6000 -0.0084
-2 8 6 2.8454 0.0156
-2 8 7 1.0389 0.1092
-2 8 8 -0.3454 0.1015
-2 8 9 -0.1654 -0.0689
-2 9 1 -0.8347 0.4217
-2 9 2 0.3764 -0.1773
-2 9 3 0.7868 -0.2699
-2 9 4 0.4448 0.0844
-2 9 5 -0.6416 0.1027
-2 9 6 -1.5354 -0.2086
-2 9 7 -1.1643 -0.2570
-2 9 8 0.0266 0.0121
-2 10 1 -0.6152 0.4934
-2 10 2 -0.3694 0.1855
-2 10 3 -0.0815 -0.0504
-2 10 4 -1.2022 0.0495
-2 10 5 -2.1293 0.1674
-2 10 6 -1.5533 0.1222
-2 10 7 -0.8729 0.0324
-2 11 1 -2.7686 0.5746
-2 11 2 -2.2252 -0.0680
-2 11 3 -0.3928 -0.3116
-2 11 4 0.5053 -0.0303
-2 11 5 0.4753 0.0756
-2 11 6 0.0322 -0.0542
-2 12 1 -2.2827 0.1303
-2 12 2 -1.0466 -0.0467
-2 12 3 1.2036 0.0596
-2 12 4 0.7274 0.0598
-2 12 5 -1.7389 -0.2527
-2 13 1 -0.1375 0.6171
-2 13 2 -1.4064 0.1218
-2 13 3 -1.9207 -0.0611
-2 14 1 -1.9217 0.1740
-1 -16 8 1.6662 -0.0691
-1 -16 9 -1.8326 -0.0194
-1 -15 3 -0.0421 -0.1672
-1 -15 4 0.9781 -0.0535
-1 -15 5 2.1866 0.0318
-1 -15 6 1.3379 0.1437
-1 -15 7 -1.4926 0.2519
-1 -15 8 -5.2781 0.2238
-1 -15 9 -7.1106 0.0781
-1 -15 10 -3.7214 -0.0322
-1 -15 11 2.1495 -0.0682
-1 -15 12 3.3280 -0.0665
-1 -15 13 -0.8941 -0.0149
-1 -14 1 -3.4404 0.2443
-1 -14 2 -1.3384 0.0234
-1 -14 3 0.9628 -0.1572
-1 -14 4 1.3994 -0.0498
-1 -14 5 1.1441 -0.0011
-1 -14 6 1.1854 -0.2040
-1 -14 7 0.6269 -0.3078
-1 -14 8 -0.6360 -0.1864
-1 -14 9 -1.5701 -0.1366
-1 -14 10 -1.8659 -0.1909
-1 -14 11 -1.3994 -0.1285
-1 -14 12 0.3063 -0.0320
-1 -14 13 2.5842 -0.0988
-1 -14 14 4.0351 -0.1555
-1 -13 1 -2.9047 0.5085
-1 -13 2 1.3850 0.1461
-1 -13 3 1.5607 -0.0913
-1 -13 4 -0.0715 0.0350
-1 -13 5 0.2974 0.0856
-1 -13 6 1.0846 0.0006
-1 -13 7 1.1211 0.0889
-1 -13 8 2.0876 0.2511
-1 -13 9 2.8590 0.2216
-1 -13 10 1.0109 0.1341
-1 -13 11 -1.5132 0.1705
-1 -13 12 -2.0206 0.1890
-1 -13 13 -1.6269 0.1194
-1 -13 14 -1.0620 0.1121
-1 -13 15 0.7772 0.0703
-1 -12 1 0.9291 0.1805
-1 -12 2 -0.5124 -0.1133
-1 -12 3 -2.2729 -0.1007
-1 -12 4 -1.1105 0.1532
-1 -12 5 0.8064 0.2275
-1 -12 6 -0.0265 0.0727
-1 -12 7 -1.7708 -0.0546
-1 -12 8 -1.3219 -0.0956
-1 -12 9 0.0378 -0.1453
-1 -12 10 0.1297 -0.1618
-1 -12 11 -0.5264 -0.1099
-1 -12 12 -1.4527 -0.0982
-1 -12 13 -2.9471 -0.1174
-1 -12 14 -3.5998 -0.0659
-1 -12 15 -2.2849 -0.0513
-1 -12 16 -0.9599 -0.0947
-1 -11 1 -2.6905 0.4522
-1 -11 2 -2.3370 0.0736
-1 -11 3 0.0910 -0.2256
-1 -11 4 2.5531 -0.2072
-1 -11 5 3.4063 -0.1865
-1 -11 6 2.2445 -0.2339
-1 -11 7 -0.0414 -0.1156
-1 -11 8 -1.6105 0.0760
-1 -11 9 -1.5076 0.0903
-1 -11 10 -0.4857 0.0182
-1 -11 11 0.6218 0.0116
-1 -11 12 1.5757 -0.0037
-1 -11 13 1.6154 -0.0123
-1 -11 14 0.0173 0.0996
-1 -11 15 -1.9434 0.1945
-1 -11 16 -1.8322 0.0716
-1 -10 1 1.0841 0.3960
-1 -10 2 4.3101 -0.0663
-1 -10 3 4.0693 -0.0716
-1 -10 4 1.4339 0.2880
-1 -10 5 0.4146 0.3472
-1 -10 6 0.9249 0.1242
-1 -10 7 0.3455 0.0602
-1 -10 8 -1.3628 0.1118
-1 -10 9 -3.0259 0.0450
-1 -10 10 -4.3125 -0.0057
-1 -10 11 -3.9187 0.0957
-1 -10 12 -0.7776 0.1425
-1 -10 13 2.4087 -0.0049
-1 -10 14 2.0549 -0.1463
-1 -10 15 -0.5714 -0.1207
-1 -10 16 -1.2452 -0.0493
-1 -10 17 0.8325 -0.0165
-1 -9 1 4.8581 0.4159
-1 -9 2 4.4553 0.1314
-1 -9 3 0.5493 -0.0651
-1 -9 4 -2.5268 -0.0557
-1 -9 5 -1.9580 -0.1239
-1 -9 6 -0.5202 -0.2093
-1 -9 7 -1.4954 -0.1113
-1 -9 8 -3.9253 -0.0189
-1 -9 9 -5.2200 -0.1161
-1 -9 10 -4.4287 -0.1784
-1 -9 11 -2.1568 -0.0652
-1 -9 12 -0.2427 -0.0041
-1 -9 13 -0.3637 -0.0598
-1 -9 14 -1.3357 -0.0006
-1 -9 15 -0.6937 0.1494
-1 -9 16 1.0162 0.1307
-1 -9 17 1.6086 -0.0036
-1 -8 1 1.4933 0.4203
-1 -8 2 -1.0142 -0.2006
-1 -8 3 -3.4385 -0.4143
-1 -8 4 -3.1641 -0.0608
-1 -8 5 -0.3595 0.1610
-1 -8 6 2.0518 0.0528
-1 -8 7 1.7583 0.0197
-1 -8 8 -0.3248 0.1273
-1 -8 9 -1.4059 0.1290
-1 -8 10 -0.0251 0.0378
-1 -8 11 2.2455 0.0047
-1 -8 12 2.4503 0.0326
-1 -8 13 0.3998 0.0615
-1 -8 14 -0.6569 0.0302
-1 -8 15 0.4774 -0.0819
-1 -8 16 0.6565 -0.1522
-1 -8 17 -1.4289 -0.0803
-1 -7 1 2.9051 0.5758
-1 -7 2 2.1572 0.2857
-1 -7 3 1.3521 0.2000
-1 -7 4 0.9211 0.3056
-1 -7 5 1.1824 0.1213
-1 -7 6 0.9923 -0.1689
-1 -7 7 -0.8374 -0.1129
-1 -7 8 -2.7559 0.0840
-1 -7 9 -2.3508 0.0389
-1 -7 10 0.2684 -0.0795
-1 -7 11 3.0549 -0.0028
-1 -7 12 4.0396 0.0788
-1 -7 13 2.6250 -0.0525
-1 -7 14 0.6399 -0.1478
-1 -7 15 0.3745 0.0424
-1 -7 16 1.0092 0.2180
-1 -7 17 0.2682 0.0667
-1 -6 1 9.0226 0.3602
-1 -6 2 12.7777 -0.2718
-1 -6 3 8.9929 -0.5080
-1 -6 4 0.2935 -0.2082
-1 -6 5 -6.9902 0.0127
-1 -6 6 -10.0077 -0.0157
-1 -6 7 -8.5647 -0.0176
-1 -6 8 -3.6660 -0.0110
-1 -6 9 0.2768 -0.1072
-1 -6 10 -0.4213 -0.1110
-1 -6 11 -2.7378 0.0363
-1 -6 12 -2.2825 0.0626
-1 -6 13 -0.1313 -0.0273
-1 -6 14 1.5649 0.0413
-1 -6 15 3.4032 0.1138
-1 -6 16 4.3992 -0.0990
-1 -6 17 2.1970 -0.2388
-1 -5 1 13.1491 0.4661
-1 -5 2 16.4440 0.1664
-1 -5 3 3.0422 0.0695
-1 -5 4 -13.0866 0.2310
-1 -5 5 -16.5107 0.1502
-1 -5 6 -7.1501 -0.0740
-1 -5 7 3.9454 -0.0043
-1 -5 8 7.2827 0.1755
-1 -5 9 1.6657 0.1096
-1 -5 10 -5.8079 -0.0265
-1 -5 11 -6.7581 -0.0115
-1 -5 12 -0.9743 0.0260
-1 -5 13 4.2848 -0.0178
-1 -5 14 4.4188 -0.0912
-1 -5 15 1.5083 -0.1025
-1 -5 16 -0.9181 0.0630
-1 -5 17 -1.5327 0.2139
-1 -4 1 7.8159 0.7287
-1 -4 2 5.7796 0.0650
-1 -4 3 -4.0265 -0.2331
-1 -4 4 -8.7852 -0.0519
-1 -4 5 -1.3796 0.0009
-1 -4 6 9.7848 -0.0919
-1 -4 7 12.1917 -0.0361
-1 -4 8 5.3896 0.0304
-1 -4 9 -1.3432 -0.0423
-1 -4 10 -2.3500 -0.0786
-1 -4 11 1.0304 0.0147
-1 -4 12 5.0509 0.0941
-1 -4 13 5.6348 0.0338
-1 -4 14 1.3808 -0.0583
-1 -4 15 -3.2798 0.0700
-1 -4 16 -3.5185 0.2488
-1 -4 17 -0.9606 -0.1350
-1 -3 1 -13.6717 0.0712
-1 -3 2 -0.7517 -0.2069
-1 -3 3 14.3218 -0.1495
-1 -3 4 16.5672 0.1019
-1 -3 5 6.6023 0.1081
-1 -3 6 -5.8127 -0.0652
-1 -3 7 -11.4290 -0.0908
-1 -3 8 -6.1438 0.0179
-1 -3 9 3.9662 0.0238
-1 -3 10 8.2191 -0.0652
-1 -3 11 5.4259 -0.0364
-1 -3 12 2.1388 0.0668
-1 -3 13 0.1898 -0.0027
-1 -3 14 -1.6194 -0.1454
-1 -3 15 -1.2776 -0.0688
-1 -3 16 0.8211 0.0750
-1 -2 1 -14.4476 0.9929
-1 -2 2 10.0912 0.3826
-1 -2 3 22.7243 -0.1403
-1 -2 4 9.3889 -0.0702
-1 -2 5 -14.5214 0.1026
-1 -2 6 -27.6035 0.0530
-1 -2 7 -22.0558 0.0478
-1 -2 8 -5.2821 0.1132
-1 -2 9 7.8299 0.0282
-1 -2 10 8.7670 -0.0576
-1 -2 11 2.6146 0.0230
-1 -2 12 -1.9025 0.0505
-1 -2 13 -2.6496 -0.0323
-1 -2 14 -1.0975 -0.0094
-1 -2 15 1.3501 0.0473
-1 -2 16 2.1702 0.0440
-1 -1 1 -0.7863 0.3008
-1 -1 2 2.3936 -0.2322
-1 -1 3 2.2563 -0.2806
-1 -1 4 -0.9154 0.0942
-1 -1 5 -3.5424 0.0971
-1 -1 6 -4.8644 -0.1516
-1 -1 7 -5.0670 -0.1276
-1 -1 8 -2.9562 0.0004
-1 -1 9 0.7388 -0.0053
-1 -1 10 2.7019 0.0097
-1 -1 11 1.9602 0.0304
-1 -1 12 0.9368 -0.0124
-1 -1 13 0.6387 0.0451
-1 -1 14 -0.2030 0.0795
-1 -1 15 -1.0598 -0.1389
-1 -1 16 -0.1685 -0.1944
-1 0 1 -1.5411 0.6141
-1 0 2 -1.3424 0.1524
-1 0 3 3.7608 -0.0371
-1 0 4 8.3538 0.0070
-1 0 5 9.7963 -0.0159
-1 0 6 7.4499 -0.0114
-1 0 7 2.1842 0.0522
-1 0 8 -1.2650 0.0273
-1 0 9 0.5267 -0.0374
-1 0 10 4.0007 -0.0523
-1 0 11 4.7640 -0.0532
-1 0 12 3.3107 -0.0224
-1 0 13 0.7753 0.0002
-1 0 14 -2.3681 -0.0781
-1 0 15 -3.2024 -0.0291
-1 1 1 11.5507 0.5362
-1 1 3 -0.1738 -0.2089
-1 1 4 -13.9909 0.0037
-1 1 5 -12.7136 0.2035
-1 1 6 -1.2490 0.0740
-1 1 7 5.4587 -0.0600
-1 1 8 4.8828 0.0272
-1 1 9 3.1584 0.0891
-1 1 10 1.4962 0.0268
-1 1 11 -0.8069 0.0488
-1 1 12 -1.5364 0.1044
-1 1 13 -0.6092 -0.0240
-1 1 14 -0.6654 -0.1418
-1 1 15 -1.7577 0.0760
-1 2 1 13.3922 0.5747
-1 2 2 3.6724 0.0208
-1 2 3 -14.8494 -0.2713
-1 2 4 -22.7849 -0.0081
-1 2 5 -13.7887 0.0337
-1 2 6 -1.0058 -0.1945
-1 2 7 3.7207 -0.1207
-1 2 8 2.3392 0.0781
-1 2 9 0.0307 -0.0290
-1 2 10 -2.1968 -0.1453
-1 2 11 -2.8072 0.0106
-1 2 12 -0.0609 0.0851
-1 2 13 2.9970 -0.0716
-1 2 14 2.1237 -0.0976
-1 3 1 -6.8832 0.5466
-1 3 2 -2.1074 0.0007
-1 3 3 2.5467 -0.0677
-1 3 4 2.3145 0.1197
-1 3 5 -0.6765 0.0874
-1 3 6 -2.3218 0.0156
-1 3 7 -1.4978 0.0880
-1 3 8 0.1733 0.0559
-1 3 9 1.0936 -0.0797
-1 3 10 1.1162 -0.0268
-1 3 11 1.0427 0.0861
-1 3 12 1.3359 -0.0416
-1 3 13 1.4781 -0.1354
-1 4 1 -11.0415 0.4974
-1 4 2 6.8020 0.1671
-1 4 3 16.2106 -0.1588
-1 4 4 10.5564 -0.0874
-1 4 5 0.6111 0.0734
-1 4 6 -3.4328 0.0387
-1 4 7 -2.2643 -0.0474
-1 4 8 -0.1325 -0.0265
-1 4 9 1.1804 0.0668
-1 4 10 0.6497 0.1471
-1 4 11 -1.6088 0.0821
-1 4 12 -3.0552 -0.1562
-1 4 13 -2.0218 -0.2175
-1 5 1 -9.7027 0.5571
-1 5 2 0.0135 -0.0720
-1 5 3 3.5803 -0.2783
-1 5 4 -0.1143 -0.0029
-1 5 5 -3.7443 0.0836
-1 5 6 -3.3520 -0.0992
-1 5 7 -0.9978 -0.1415
-1 5 8 0.6070 -0.0381
-1 5 9 0.2483 -0.0387
-1 5 10 -1.5736 -0.0837
-1 5 11 -2.5968 -0.0119
-1 5 12 -1.6444 0.0688
-1 6 1 -10.7750 0.5218
-1 6 2 -6.0819 0.1925
-1 6 3 -3.2691 -0.0217
-1 6 4 -3.1695 0.0639
-1 6 5 -3.1697 0.1499
-1 6 6 -2.3370 0.0738
-1 6 7 -1.1224 0.0386
-1 6 8 0.1049 0.1246
-1 6 9 0.8142 0.0887
-1 6 10 0.9239 -0.1010
-1 6 11 1.0177 -0.0872
-1 7 1 -1.2999 0.4767
-1 7 2 1.4046 -0.0639
-1 7 3 2.1349 -0.2922
-1 7 4 0.8460 -0.0191
-1 7 5 -1.2884 0.0716
-1 7 6 -2.3834 -0.1753
-1 7 7 -0.8193 -0.1760
-1 7 8 2.0654 0.1270
-1 7 9 2.7735 0.1598
-1 7 10 0.7690 -0.1059
-1 8 1 0.4381 0.4169
-1 8 2 -0.1846 0.0500
-1 8 3 0.4537 -0.0747
-1 8 4 1.1336 0.0441
-1 8 5 1.4895 0.0554
-1 8 6 1.7997 -0.0203
-1 8 7 1.8197 -0.0448
-1 8 8 0.7216 -0.0880
-1 8 9 -1.3930 -0.1059
-1 9 1 -5.9733 0.4692
-1 9 2 -3.1449 0.1076
-1 9 3 0.5940 -0.0852
-1 9 4 1.9261 0.0004
-1 9 5 0.8610 0.1376
-1 9 6 -1.3875 0.1629
-1 9 7 -3.1130 0.0812
-1 9 8 -2.7608 0.0073
-1 10 1 -1.8564 0.2489
-1 10 2 1.2414 0.0203
-1 10 3 0.2151 -0.1359
-1 10 4 -2.7140 -0.1537
-1 10 5 -3.1961 -0.1580
-1 10 6 -1.1742 -0.1465
-1 10 7 0.6177 -0.0398
-1 11 1 2.1553 0.4486
-1 11 2 0.6636 0.0862
-1 11 3 -1.5762 -0.0248
-1 11 4 -1.5780 0.1656
-1 11 5 1.2288 0.1965
-1 11 6 3.2742 -0.0424
-1 12 1 0.2890 0.3813
-1 12 2 0.2508 -0.0152
-1 12 3 0.2752 -0.1891
-1 12 4 -0.9131 -0.0144
-1 12 5 -1.3421 0.1806
-1 13 1 -0.8132 0.2979
-1 13 2 -0.4603 0.0413
-1 13 3 -0.2411 -0.1914
-1 14 1 1.8729 0.3784
0 -16 5 -3.4474 0.1166
0 -16 6 -1.2075 0.0462
0 -16 7 1.4250 0.0279
0 -16 8 1.6402 0.1021
0 -16 9 0.3799 0.0811
0 -16 10 -0.5679 0.0109
0 -16 11 -1.1658 -0.0083
0 -16 12 -1.3728 -0.0200
0 -15 2 1.7496 0.1654
0 -15 3 -0.3772 -0.1278
0 -15 4 -1.2590 -0.1577
0 -15 5 0.6383 -0.1381
0 -15 6 2.1737 -0.1564
0 -15 7 2.2985 -0.1466
0 -15 8 2.4689 -0.1719
0 -15 9 2.0301 -0.2567
0 -15 10 0.0241 -0.2549
0 -15 11 -1.5676 -0.0973
0 -15 12 -0.9856 0.0184
0 -15 13 0.4178 -0.0638
0 -15 14 0.8588 -0.0383
0 -14 1 0.8901 0.3391
0 -14 2 -1.7514 0.1275
0 -14 3 -1.7406 0.0852
0 -14 4 1.5291 0.1741
0 -14 5 2.7206 0.1501
0 -14 6 0.3981 0.0537
0 -14 7 -0.2227 0.1248
0 -14 8 2.6198 0.2737
0 -14 9 4.3812 0.2176
0 -14 10 2.7462 0.1072
0 -14 11 0.2790 0.2048
0 -14 12 -0.9062 0.2369
0 -14 13 -0.5314 0.0289
0 -14 14 1.2351 -0.0090
0 -14 15 2.2098 0.0961
0 -13 1 -0.7059 0.1329
0 -13 2 -0.7939 -0.1086
0 -13 3 0.3808 -0.1716
0 -13 4 0.7961 -0.0331
0 -13 5 -0.2106 0.0192
0 -13 6 -0.6547 -0.0345
0 -13 7 0.7426 -0.0133
0 -13 8 2.4055 -0.0252
0 -13 9 2.3535 -0.1561
0 -13 10 0.6135 -0.1661
0 -13 11 -1.7724 -0.0549
0 -13 12 -3.6981 -0.1120
0 -13 13 -3.6078 -0.2388
0 -13 14 -1.2611 -0.1606
0 -13 15 0.6933 0.0160
0 -13 16 0.3480 0.1698
0 -12 1 1.4549 0.4314
0 -12 2 2.8437 0.0978
0 -12 3 1.5994 -0.1299
0 -12 4 0.8527 -0.0732
0 -12 5 2.7416 -0.0092
0 -12 6 3.5972 -0.0948
0 -12 7 0.5213 -0.1799
0 -12 8 -3.4667 -0.1109
0 -12 9 -4.1702 0.0356
0 -12 10 -1.5954 0.0616
0 -12 11 1.0005 -0.0015
0 -12 12 1.0854 0.0642
0 -12 13 -0.6686 0.1839
0 -12 14 -1.4933 0.1292
0 -12 15 -0.0303 0.0412
0 -12 16 2.0332 0.0446
0 -11 1 1.4969 0.4611
0 -11 2 -0.1085 0.1309
0 -11 3 -1.7068 -0.1126
0 -11 4 0.3740 0.0207
0 -11 5 3.6626 0.2256
0 -11 6 2.9480 0.1930
0 -11 7 -1.1532 0.1040
0 -11 8 -3.6661 0.1778
0 -11 9 -2.5426 0.1932
0 -11 10 0.0779 0.0166
0 -11 11 1.3627 -0.0434
0 -11 12 0.2599 0.0579
0 -11 13 -1.7448 -0.0204
0 -11 14 -2.1848 -0.1816
0 -11 15 -0.8210 -0.0980
0 -11 16 0.3128 0.0275
0 -11 17 0.4019 0.0144
0 -10 1 1.0650 0.2436
0 -10 2 -1.3296 -0.0123
0 -10 3 -2.8905 -0.1349
0 -10 4 -2.7217 0.0035
0 -10 5 -1.2104 0.0586
0 -10 6 0.4396 -0.1252
0 -10 7 0.9556 -0.2510
0 -10 8 -0.3831 -0.1790
0 -10 9 -2.9971 -0.1128
0 -10 10 -5.1168 -0.1085
0 -10 11 -5.3710 -0.0699
0 -10 12 -3.7693 -0.0484
0 -10 13 -1.1794 -0.0383
0 -10 14 0.8271 0.0701
0 -10 15 0.7136 0.1484
0 -10 16 -0.3289 0.0506
0 -10 17 0.9442 -0.0333
0 -9 1 3.1073 0.5541
0 -9 2 0.5492 0.1031
0 -9 3 -2.8762 -0.2278
0 -9 4 -3.9441 -0.1836
0 -9 5 -1.7034 -0.0500
0 -9 6 0.3321 0.0096
0 -9 7 -0.8782 0.0835
0 -9 8 -3.6523 0.1617
0 -9 9 -4.4409 0.1502
0 -9 10 -2.3621 0.0758
0 -9 11 0.5631 0.0453
0 -9 12 2.2911 0.0804
0 -9 13 2.6681 0.0756
0 -9 14 2.2827 -0.0315
0 -9 15 1.1802 -0.1265
0 -9 16 0.4312 -0.1144
0 -9 17 2.0192 -0.0636
0 -8 1 0.6685 0.2806
0 -8 2 1.4568 0.0238
0 -8 3 4.1763 0.0677
0 -8 4 6.6179 0.2856
0 -8 5 5.7136 0.2895
0 -8 6 1.7622 0.0736
0 -8 7 -1.0053 -0.0791
0 -8 8 -0.2061 -0.0607
0 -8 9 1.9454 -0.0235
0 -8 10 3.0168 -0.0531
0 -8 11 2.7427 -0.0540
0 -8 12 1.4060 -0.0319
0 -8 13 0.1521 -0.0646
0 -8 14 0.3834 -0.0196
0 -8 15 0.7175 0.1499
0 -8 16 -0.6000 0.1533
0 -8 17 -1.0980 -0.0311
0 -7 1 3.4785 0.5760
0 -7 2 5.3252 0.1290
0 -7 3 6.1631 -0.2589
0 -7 4 5.4597 -0.2626
0 -7 5 4.5925 -0.1600
0 -7 6 5.0484 -0.1599
0 -7 7 5.9711 -0.1109
0 -7 8 4.4633 0.0120
0 -7 9 0.4657 0.0152
0 -7 10 -2.1044 -0.0548
0 -7 11 -1.7544 -0.0088
0 -7 12 -1.0929 0.0592
0 -7 13 -0.7270 0.0141
0 -7 14 0.6114 -0.0297
0 -7 15 0.8455 -0.0311
0 -7 16 -1.6197 -0.0836
0 -7 17 -2.6010 -0.0933
0 -6 1 -2.5456 0.2777
0 -6 2 -8.9175 -0.2231
0 -6 3 -12.6673 -0.2799
0 -6 4 -9.5123 0.0901
0 -6 5 -1.4065 0.2831
0 -6 6 4.8865 0.1634
0 -6 7 5.3122 0.0777
0 -6 8 1.8307 0.1068
0 -6 9 -1.1843 0.0744
0 -6 10 -1.5813 0.0021
0 -6 11 -0.3545 0.0192
0 -6 12 0.7769 0.0620
0 -6 13 1.4614 0.0031
0 -6 14 1.7833 -0.0786
0 -6 15 0.8409 -0.0184
0 -6 16 -1.4313 0.1067
0 -6 17 -2.5377 0.0794
0 -5 1 2.9775 0.8829
0 -5 2 5.1717 0.7085
0 -5 3 3.8013 0.2690
0 -5 4 0.4335 0.0360
0 -5 5 -2.3685 -0.0573
0 -5 6 -3.2741 -0.1854
0 -5 7 -1.4064 -0.2191
0 -5 8 1.6868 -0.0541
0 -5 9 1.9878 0.0544
0 -5 10 -0.1883 -0.0642
0 -5 11 0.1317 -0.1346
0 -5 12 2.9509 0.0004
0 -5 13 3.2743 0.0838
0 -5 14 1.0359 0.0462
0 -5 15 -0.1437 0.0435
0 -5 16 -0.8018 -0.0419
0 -5 17 -2.2051 -0.1731
0 -4 1 23.3539 0.0994
0 -4 2 23.5010 -0.7230
0 -4 3 18.3956 -0.8523
0 -4 4 10.9103 -0.1657
0 -4 5 3.1682 0.3455
0 -4 6 -3.1203 0.1433
0 -4 7 -4.2165 -0.1218
0 -4 8 -0.8026 0.0228
0 -4 9 0.5233 0.1393
0 -4 10 -1.5401 0.0019
0 -4 11 -1.8531 -0.0374
0 -4 12 -0.1483 0.0272
0 -4 13 -0.0191 -0.0441
0 -4 14 -0.3082 -0.0835
0 -4 15 0.8020 -0.0101
0 -4 16 0.8271 -0.0481
0 -3 1 -15.1318 0.6958
0 -3 2 -15.4029 0.6390
0 -3 3 -0.7865 0.3103
0 -3 4 14.7703 0.1822
0 -3 5 14.5551 0.0567
0 -3 6 -0.9257 -0.0981
0 -3 7 -12.6229 -0.0248
0 -3 8 -9.2749 0.1052
0 -3 9 -0.6752 0.0183
0 -3 10 1.4241 -0.0655
0 -3 11 -1.1708 0.0372
0 -3 12 -2.2633 0.0908
0 -3 13 -1.6775 0.0087
0 -3 14 -1.7134 -0.0047
0 -3 15 -2.1293 0.0633
0 -3 16 -1.6017 0.0633
0 -2 1 -23.4607 1.3647
0 -2 2 -15.9830 0.1578
0 -2 3 -1.5503 -0.4623
0 -2 4 8.8310 -0.3139
0 -2 5 5.8827 -0.0444
0 -2 6 -6.3413 0.0247
0 -2 7 -12.4330 -0.0201
0 -2 8 -4.9882 -0.0606
0 -2 9 5.7678 -0.0719
0 -2 10 7.8317 -0.0648
0 -2 11 3.0032 -0.0116
0 -2 12 -0.9257 0.0439
0 -2 13 -2.6914 -0.0285
0 -2 14 -3.9302 -0.1106
0 -2 15 -3.1517 0.0299
0 -2 16 -0.2304 0.0997
0 -1 2 12.0395 -0.6533
0 -1 3 -10.7018 0.3954
0 -1 4 -18.6984 0.4231
0 -1 5 -7.1829 0.1021
0 -1 6 6.7087 -0.0997
0 -1 7 9.1144 -0.0660
0 -1 8 4.9410 0.1395
0 -1 9 2.2223 0.1713
0 -1 10 0.7197 -0.0380
0 -1 11 -0.4395 -0.0843
0 -1 12 -0.1223 0.0402
0 -1 13 0.3615 -0.0122
0 -1 14 -0.0315 -0.0439
0 -1 15 0.2322 0.1698
0 0 2 2.3990 1.1893
0 0 3 -31.2099 -0.2906
0 0 4 -27.2208 -0.5477
0 0 5 4.2969 0.0513
0 0 6 22.8805 0.1726
0 0 7 12.2615 -0.0631
0 0 8 -6.3275 -0.0646
0 0 9 -12.4843 -0.0017
0 0 10 -7.3323 -0.0231
0 0 11 0.1521 0.0513
0 0 12 4.2598 0.0995
0 0 13 3.0125 -0.0143
0 0 14 -0.7555 -0.0533
0 0 15 -2.1782 -0.0074
0 1 1 10.1958 0.7047
0 1 2 -12.1215 -0.7366
0 1 3 -18.9675 -0.5334
0 1 4 -5.4773 0.2853
0 1 5 9.6496 0.3164
0 1 6 8.5802 -0.1404
0 1 7 -3.1441 -0.2163
0 1 8 -9.6837 0.0121
0 1 9 -6.9100 0.0759
0 1 10 -1.2981 -0.0265
0 1 11 1.9428 -0.0994
0 1 12 1.9195 -0.0858
0 1 13 -0.0828 0.0326
0 1 14 -1.6583 0.1327
0 2 0 -18.8569 -1.7446
0 2 1 -5.4005 -0.6102
0 2 2 5.4714 0.6309
0 2 3 3.8487 0.5446
0 2 4 -5.8415 -0.1928
0 2 5 -10.0009 -0.2726
0 2 6 -4.4104 0.1357
0 2 7 2.6281 0.2199
0 2 8 4.5745 0.0335
0 2 9 2.9648 -0.0056
0 2 10 0.9823 0.0312
0 2 11 -0.0077 -0.0248
0 2 12 0.7119 -0.0239
0 2 13 2.2577 0.1258
0 2 14 2.4361 0.1484
0 3 0 0.2183 -0.0872
0 3 1 15.7942 0.3921
0 3 2 12.6527 0.0146
0 3 3 -7.6928 -0.4455
0 3 4 -20.2435 -0.1437
0 3 5 -10.8452 0.2782
0 3 6 4.7896 0.0611
0 3 7 8.4283 -0.2732
0 3 8 3.2537 -0.1278
0 3 9 -0.0453 0.1156
0 3 10 0.1025 0.0755
0 3 11 1.2432 -0.0171
0 3 12 2.9252 -0.0249
0 3 13 3.8930 -0.0673
0 4 0 18.0787 -0.6281
0 4 1 8.4488 -0.4142
0 4 2 -3.9979 0.0759
0 4 3 -11.5275 0.2547
0 4 4 -7.4677 0.0615
0 4 5 1.3684 -0.1473
0 4 6 3.4877 -0.0917
0 4 7 -0.6622 0.1028
0 4 8 -3.3273 0.1008
0 4 9 -2.6130 -0.1022
0 4 10 -1.0874 -0.1521
0 4 11 0.5339 0.0129
0 4 12 2.0274 0.0760
0 5 0 -0.5037 -0.3759
0 5 1 -2.0059 0.2908
0 5 2 -1.2577 0.2806
0 5 3 -0.4505 -0.1677
0 5 4 -1.2333 -0.1785
0 5 5 -2.6455 0.1854
0 5 6 -2.3967 0.2110
0 5 7 -0.5744 -0.0473
0 5 8 0.3840 -0.0498
0 5 9 -0.0868 0.1280
0 5 10 -0.2512 0.0988
0 5 11 0.1154 -0.0832
0 5 12 -0.4354 -0.1081
0 6 0 2.1405 -0.5393
0 6 1 4.1803 -0.3059
0 6 2 3.3136 -0.0143
0 6 3 -0.2294 0.0605
0 6 4 -3.1370 0.0190
0 6 5 -1.9116 -0.0895
0 6 6 1.8762 -0.1981
0 6 7 3.8124 -0.1244
0 6 8 2.7990 0.0554
0 6 9 1.2769 0.0718
0 6 10 0.7718 -0.0360
0 6 11 0.1388 -0.0703
0 7 0 2.5359 -0.4780
0 7 1 2.5354 0.0546
0 7 2 1.3135 0.2730
0 7 3 -0.9869 -0.0132
0 7 4 -1.5528 -0.1706
0 7 5 -0.0523 0.0905
0 7 6 0.9744 0.2651
0 7 7 0.4961 0.0487
0 7 8 -0.2861 -0.1911
0 7 9 0.1019 -0.1361
0 7 10 2.1765 0.0829
0 8 0 1.2535 -0.3875
0 8 1 0.8293 -0.1048
0 8 2 -1.6647 0.1389
0 8 3 -4.0793 0.0628
0 8 4 -4.1186 -0.0443
0 8 5 -2.4636 -0.0166
0 8 6 -0.9217 0.0122
0 8 7 -0.0942 0.0652
0 8 8 0.3646 0.1391
0 8 9 1.4812 0.0355
0 9 0 3.4756 -0.5314
0 9 1 1.9163 -0.0993
0 9 2 -0.6858 0.1029
0 9 3 -2.1681 -0.0648
0 9 4 -1.0063 -0.1756
0 9 5 1.0165 -0.1012
0 9 6 1.1718 -0.0717
0 9 7 -0.2285 -0.1011
0 9 8 -0.9670 -0.0451
0 10 0 2.7042 -0.2461
0 10 1 2.6806 -0.0135
0 10 2 1.7845 0.1207
0 10 3 1.5756 0.1158
0 10 4 1.8946 0.1859
0 10 5 0.9102 0.2420
0 10 6 -1.2850 0.0512
0 10 7 -2.0452 -0.1539
0 11 0 0.8921 -0.3665
0 11 1 0.4761 0.0207
0 11 2 1.1809 0.0767
0 11 3 0.8916 -0.2290
0 11 4 -0.4154 -0.2928
0 11 5 -0.1101 0.0042
0 12 0 -0.3096 -0.4089
0 12 1 0.0947 -0.0773
0 12 2 0.3894 0.1140
0 12 3 -0.8420 0.0697
0 12 4 -0.4558 -0.0318
0 13 0 0.4098 -0.2216
0 13 1 0.4375 -0.0297
0 13 2 -1.2038 0.2506
0 14 0 2.1064 -0.4174
0 14 1 1.6641 -0.2906
1 -16 3 1.3544 0.1010
1 -16 4 3.2332 -0.1033
1 -16 5 2.3217 0.0153
1 -16 6 0.5292 0.0633
1 -16 7 -0.4094 -0.0844
1 -16 8 -0.7197 -0.1185
1 -16 9 0.2291 -0.0400
1 -16 10 2.6556 -0.0118
1 -16 11 3.7159 0.0154
1 -16 12 1.5550 -0.0037
1 -15 1 2.3603 -0.1195
1 -15 2 -0.0999 0.1063
1 -15 3 -0.6002 0.1280
1 -15 4 0.5203 0.1381
1 -15 5 0.3133 0.1250
1 -15 6 -1.1825 0.0729
1 -15 7 -1.5150 0.1601
1 -15 8 -0.7353 0.2747
1 -15 9 -0.8588 0.2067
1 -15 10 -1.9366 0.1382
1 -15 11 -2.8320 0.1629
1 -15 12 -3.6874 0.1132
1 -15 13 -4.1621 0.0905
1 -15 14 -2.7023 0.0645
1 -14 0 2.4131 -0.2574
1 -14 1 0.7880 -0.1119
1 -14 2 -2.0959 -0.0825
1 -14 3 -1.7533 -0.1536
1 -14 4 1.4590 -0.1596
1 -14 5 2.4788 -0.0730
1 -14 6 0.5472 -0.0562
1 -14 7 -0.6100 -0.1778
1 -14 8 -0.6164 -0.2554
1 -14 9 -1.6083 -0.1739
1 -14 10 -2.5315 -0.1337
1 -14 11 -2.0324 -0.2198
1 -14 12 -1.9257 -0.1827
1 -14 13 -2.4102 -0.0403
1 -14 14 -0.8861 -0.0673
1 -14 15 1.8880 -0.0044
1 -13 0 -0.2366 -0.2517
1 -13 1 0.4291 0.0875
1 -13 2 0.7361 0.2076
1 -13 3 1.5921 -0.0104
1 -13 4 1.6668 -0.0718
1 -13 5 -0.8422 0.0941
1 -13 6 -3.1316 0.0444
1 -13 7 -1.9138 -0.1026
1 -13 8 0.4645 0.0693
1 -13 9 1.0270 0.2401
1 -13 10 1.4777 0.0561
1 -13 11 2.7776 -0.0344
1 -13 12 1.9736 0.1600
1 -13 13 -1.1783 0.1635
1 -13 14 -2.1181 0.0165
1 -13 15 0.6735 0.0463
1 -13 16 2.4223 -0.1113
1 -12 0 2.0084 -0.4148
1 -12 1 3.4699 -0.0289
1 -12 2 2.7606 0.1645
1 -12 3 1.2777 0.0303
1 -12 4 0.5077 0.0295
1 -12 5 0.1967 0.1754
1 -12 6 0.4107 0.1565
1 -12 7 0.9151 0.0921
1 -12 8 0.1030 0.1066
1 -12 9 -1.5925 0.0248
1 -12 10 -0.9578 -0.0366
1 -12 11 1.8710 0.0768
1 -12 12 2.0383 0.0451
1 -12 13 -1.5043 -0.1583
1 -12 14 -2.8048 -0.1178
1 -12 15 1.0481 -0.0102
1 -12 16 4.0304 -0.1292
1 -11 0 1.4117 -0.4810
1 -11 1 -0.6331 -0.1094
1 -11 2 -1.6015 0.0795
1 -11 3 0.2082 -0.1080
1 -11 4 3.4225 -0.2575
1 -11 5 4.9027 -0.2002
1 -11 6 3.8491 -0.1644
1 -11 7 1.7481 -0.2150
1 -11 8 -0.9435 -0.2100
1 -11 9 -3.7943 -0.1197
1 -11 10 -4.1138 -0.0473
1 -11 11 -1.0097 -0.0655
1 -11 12 1.3709 -0.0979
1 -11 13 0.0533 -0.0044
1 -11 14 -1.6803 0.1633
1 -11 15 -0.2906 0.2085
1 -11 16 2.1206 0.0829
1 -10 0 -5.1647 -0.2537
1 -10 1 -4.5174 -0.0077
1 -10 2 -1.1044 0.1358
1 -10 3 1.3898 0.0698
1 -10 4 1.2122 0.0910
1 -10 5 -0.7550 0.2383
1 -10 6 -1.8877 0.2258
1 -10 7 -0.7141 0.1111
1 -10 8 0.3882 0.1555
1 -10 9 -1.1565 0.1973
1 -10 10 -3.2139 0.0529
1 -10 11 -2.3910 0.0073
1 -10 12 0.2739 0.1359
1 -10 13 1.3683 0.0583
1 -10 14 0.0692 -0.1782
1 -10 15 -1.5322 -0.1653
1 -10 16 -1.2928 -0.0371
1 -10 17 0.3660 -0.0573
1 -9 0 -3.9767 -0.4910
1 -9 1 1.0778 -0.0641
1 -9 2 3.4187 0.2085
1 -9 3 1.0906 0.0414
1 -9 4 -2.7532 -0.1071
1 -9 5 -4.3925 -0.0418
1 -9 6 -2.1192 -0.0603
1 -9 7 2.5877 -0.1203
1 -9 8 5.3744 -0.0246
1 -9 9 3.4892 0.0012
1 -9 10 -0.8942 -0.1163
1 -9 11 -3.4594 -0.0734
1 -9 12 -2.1158 0.0428
1 -9 13 1.2247 -0.0383
1 -9 14 2.3064 -0.0627
1 -9 15 -0.0941 0.1367
1 -9 16 -1.8205 0.1970
1 -9 17 0.1901 0.0505
1 -8 0 2.3331 -0.4579
1 -8 1 3.4254 -0.1158
1 -8 2 2.1477 -0.0176
1 -8 3 -0.5885 -0.2303
1 -8 4 -2.4481 -0.2123
1 -8 5 -1.5258 -0.0001
1 -8 6 1.7716 -0.0286
1 -8 7 4.1482 -0.1522
1 -8 8 2.7406 -0.0586
1 -8 9 -1.3657 0.0462
1 -8 10 -4.7391 -0.0226
1 -8 11 -5.1009 -0.0559
1 -8 12 -2.3740 0.0340
1 -8 13 1.1934 0.0904
1 -8 14 2.2503 0.0512
1 -8 15 0.2607 -0.0610
1 -8 16 -1.4813 -0.1902
1 -8 17 -0.7232 -0.1758
1 -7 0 -3.4445 -0.4740
1 -7 1 -2.0917 0.0824
1 -7 2 1.8356 0.4005
1 -7 3 4.5925 0.2788
1 -7 4 4.6727 0.1897
1 -7 5 3.3580 0.2333
1 -7 6 1.3652 0.1629
1 -7 7 -1.5170 0.0787
1 -7 8 -4.3028 0.1432
1 -7 9 -4.9072 0.1419
1 -7 10 -2.6139 -0.0037
1 -7 11 0.3874 -0.0220
1 -7 12 1.1750 0.0591
1 -7 13 -0.0564 -0.0424
1 -7 14 -0.7162 -0.1569
1 -7 15 -0.2742 0.0172
1 -7 16 -0.2391 0.2207
1 -7 17 -0.5197 0.1412
1 -6 0 -11.3139 -0.4838
1 -6 1 -4.5158 -0.1499
1 -6 2 4.8945 -0.0785
1 -6 3 10.2590 -0.3124
1 -6 4 9.0676 -0.3611
1 -6 5 3.4143 -0.1709
1 -6 6 -1.3182 -0.0922
1 -6 7 -1.1803 -0.1230
1 -6 8 1.5050 -0.1063
1 -6 9 2.5190 -0.1195
1 -6 10 1.9816 -0.1059
1 -6 11 1.1746 0.0467
1 -6 12 -0.4296 0.0797
1 -6 13 -1.4994 -0.0671
1 -6 14 -0.0692 0.0137
1 -6 15 1.7614 0.1901
1 -6 16 1.7021 -0.0791
1 -6 17 1.4737 -0.3739
1 -5 0 -14.6164 -0.6691
1 -5 1 -7.3543 -0.0787
1 -5 2 7.0789 0.3344
1 -5 3 16.1659 0.2115
1 -5 4 11.6034 0.0632
1 -5 5 -0.9698 0.0916
1 -5 6 -7.0907 0.0706
1 -5 7 -2.3071 0.0317
1 -5 8 3.1457 0.0691
1 -5 9 2.1470 0.0619
1 -5 10 -0.6842 0.0197
1 -5 11 -1.0040 0.0272
1 -5 12 -0.6125 -0.0046
1 -5 13 -0.4088 -0.0502
1 -5 14 0.6274 -0.0057
1 -5 15 1.4315 -0.0450
1 -5 16 1.1360 -0.1516
1 -4 0 -17.1349 -0.2782
1 -4 1 -1.8485 0.1722
1 -4 2 20.7463 0.1867
1 -4 3 27.2406 -0.0769
1 -4 4 10.9820 -0.0633
1 -4 5 -10.4212 0.1191
1 -4 6 -16.8822 0.0890
1 -4 7 -8.7034 -0.0162
1 -4 8 -0.0999 0.0220
1 -4 9 1.9520 0.0283
1 -4 10 0.9332 -0.0600
1 -4 11 -0.3145 -0.0269
1 -4 12 -1.9620 0.0689
1 -4 13 -2.4513 0.0057
1 -4 14 -0.2694 -0.0477
1 -4 15 2.0486 0.1090
1 -4 16 1.2664 0.1737
1 -3 0 -4.2502 -0.8408
1 -3 1 5.4177 -0.4639
1 -3 2 12.2820 -0.0681
1 -3 3 9.1465 -0.0993
1 -3 4 -0.2837 -0.1766
1 -3 5 -7.9910 -0.1162
1 -3 6 -10.3130 -0.1313
1 -3 7 -8.0679 -0.1303
1 -3 8 -4.0359 -0.0108
1 -3 9 -1.2974 -0.0139
1 -3 10 -0.5097 -0.0843
1 -3 11 -0.1104 0.0509
1 -3 12 0.2612 0.1163
1 -3 13 0.1969 -0.1196
1 -3 14 0.6621 -0.1588
1 -3 15 1.5995 0.1318
1 -3 16 0.8536 0.0518
1 -2 0 5.6915 -0.3036
1 -2 1 -9.5677 0.4845
1 -2 2 -15.0292 0.5599
1 -2 3 -2.5416 0.0582
1 -2 4 15.3048 -0.0293
1 -2 5 17.2212 0.2175
1 -2 6 1.8348 0.2045
1 -2 7 -10.7362 0.0751
1 -2 8 -8.9448 0.0648
1 -2 9 -1.2096 0.0045
1 -2 10 3.3568 -0.0324
1 -2 11 4.5530 0.0772
1 -2 12 2.9568 0.0351
1 -2 13 -0.7643 -0.1460
1 -2 14 -2.2330 -0.0081
1 -2 15 0.4171 0.2747
1 -1 0 -0.6688 -0.6629
1 -1 1 -8.6923 -0.4267
1 -1 2 -1.6745 -0.2036
1 -1 3 16.4513 -0.0826
1 -1 4 26.6594 -0.0069
1 -1 5 16.4355 -0.0467
1 -1 6 -1.3959 -0.1348
1 -1 7 -6.8098 -0.0956
1 -1 8 -0.1862 -0.0126
1 -1 9 4.8457 -0.0186
1 -1 10 3.6453 -0.0023
1 -1 11 0.6552 0.0476
1 -1 12 -1.3103 -0.0170
1 -1 13 -1.6957 -0.0592
1 -1 14 -0.2229 0.0730
1 -1 15 1.6368 0.0353
1 0 0 4.3486 -0.6132
1 0 1 9.9402 0.0554
1 0 2 9.4599 0.4153
1 0 3 4.0531 0.0135
1 0 4 -1.4679 -0.2968
1 0 5 -3.6492 -0.0369
1 0 6 -2.4849 0.1814
1 0 7 -0.6816 0.0218
1 0 8 -0.2879 -0.1003
1 0 9 -0.8520 0.0067
1 0 10 -1.1286 0.0697
1 0 11 -0.2821 -0.0353
1 0 12 1.6923 -0.1141
1 0 13 2.8111 0.0179
1 0 14 1.1128 0.1921
1 1 0 -1.9246 -0.3584
1 1 1 0.3660 0.0917
1 1 2 0.0805 0.1600
1 1 3 -4.3336 -0.0645
1 1 4 -6.2083 0.0931
1 1 5 -3.4772 0.3043
1 1 6 -1.9996 0.0501
1 1 7 -3.4657 -0.1806
1 1 8 -3.3921 0.0226
1 1 9 -0.8961 0.1830
1 1 10 1.1689 0.0201
1 1 11 2.4636 -0.1055
1 1 12 3.1298 -0.0164
1 1 13 1.4314 0.1097
1 1 14 -1.6483 0.0999
1 2 0 -20.8257 -0.8362
1 2 1 -3.3682 -0.1780
1 2 2 14.4470 0.0993
1 2 3 15.7704 -0.0795
1 2 4 6.7443 -0.2106
1 2 5 -1.0686 -0.1663
1 2 6 -3.5400 -0.0762
1 2 7 -1.5726 0.0226
1 2 8 1.3240 0.0243
1 2 9 1.9877 -0.0888
1 2 10 1.3020 -0.0704
1 2 11 0.9237 0.0811
1 2 12 -0.1063 0.0417
1 2 13 -1.5761 -0.1309
1 3 0 -10.0259 -0.1868
1 3 1 4.7400 0.0420
1 3 2 14.3135 0.1520
1 3 3 12.2829 0.0192
1 3 4 4.3413 0.0267
1 3 5 -1.7445 0.1708
1 3 6 -2.2918 0.1241
1 3 7 0.6303 -0.0407
1 3 8 2.3211 -0.0608
1 3 9 1.3914 0.0307
1 3 10 -0.2954 0.0714
1 3 11 -1.6906 -0.0128
1 3 12 -2.2729 -0.1096
1 3 13 -1.1751 0.1204
1 4 0 0.1044 -0.7646
1 4 1 -7.2350 -0.0893
1 4 2 -6.1923 0.2819
1 4 3 -0.3376 0.0547
1 4 4 2.5391 -0.1309
1 4 5 1.2905 -0.0641
1 4 6 -0.1593 -0.0131
1 4 7 -0.2609 0.0139
1 4 8 -0.2839 0.0706
1 4 9 -0.6563 0.0442
1 4 10 -0.7434 -0.0362
1 4 11 -0.4537 -0.0793
1 4 12 -0.2541 -0.0745
1 5 0 -1.5528 -0.3676
1 5 1 -11.0532 -0.0081
1 5 2 -8.3610 -0.0112
1 5 3 -0.3874 -0.2137
1 5 4 3.8541 -0.0949
1 5 5 1.9630 0.1256
1 5 6 -2.2165 0.0363
1 5 7 -3.7506 -0.1417
1 5 8 -1.6950 -0.1115
1 5 9 1.0952 0.0138
1 5 10 2.2055 0.1076
1 5 11 1.3665 0.1054
1 6 0 2.5199 -0.4947
1 6 1 -0.9731 -0.0110
1 6 2 -0.0190 0.2931
1 6 3 3.0104 0.1504
1 6 4 3.8937 0.0123
1 6 5 0.9662 0.0250
1 6 6 -1.9657 0.0289
1 6 7 -1.6490 0.0559
1 6 8 -0.8170 0.0692
1 6 9 -2.2435 -0.0462
1 6 10 -3.4240 -0.0875
1 7 0 2.8992 -0.4440
1 7 1 1.4917 0.0225
1 7 2 0.0800 0.0822
1 7 3 0.4847 -0.2036
1 7 4 1.6718 -0.1849
1 7 5 1.7541 0.0590
1 7 6 0.8533 0.0594
1 7 7 -0.9155 -0.0520
1 7 8 -4.0032 0.0071
1 7 9 -6.2759 0.0520
1 8 0 1.4263 -0.5382
1 8 1 -1.2069 -0.0921
1 8 2 -3.5005 0.1462
1 8 3 -2.9772 0.0429
1 8 4 -0.7867 0.0358
1 8 5 0.3692 0.0471
1 8 6 0.5014 -0.1405
1 8 7 1.2986 -0.1690
1 8 8 2.0505 0.1130
1 9 0 1.9768 -0.2838
1 9 1 -0.9495 0.1206
1 9 2 -1.7755 0.1577
1 9 3 -0.2308 -0.0899
1 9 4 2.1028 -0.0499
1 9 5 2.8780 0.1795
1 9 6 2.2251 0.1536
1 9 7 2.1671 -0.0254
1 10 0 -1.6403 -0.5420
1 10 1 -1.5564 -0.1541
1 10 2 -0.0493 0.0946
1 10 3 1.6711 -0.0570
1 10 4 2.4328 -0.1664
1 10 5 0.4197 -0.0554
1 10 6 -3.0129 0.0381
1 11 0 -1.0941 -0.3509
1 11 1 -0.1877 0.0975
1 11 2 -1.5413 0.2475
1 11 3 -3.7348 0.0212
1 11 4 -4.5901 -0.0994
1 11 5 -3.3472 -0.0192
1 12 0 -0.0738 -0.2943
1 12 1 -1.5056 -0.0675
1 12 2 -2.4742 0.0603
1 12 3 -3.5349 -0.0034
1 13 0 -5.5203 -0.3526
1 13 1 -2.4585 0.0233
2 -16 3 -3.0351 -0.1684
2 -16 4 -1.3679 0.1042
2 -16 5 -0.1698 0.1681
2 -16 6 -0.7740 -0.0430
2 -16 7 -0.6607 -0.1649
2 -16 8 1.6671 -0.0648
2 -16 9 4.0759 0.0297
2 -16 10 4.8568 -0.0404
2 -16 11 4.0019 -0.1440
2 -16 12 1.4804 -0.0923
2 -15 1 -2.3953 0.2313
2 -15 2 -1.8029 0.1186
2 -15 3 -0.9043 -0.1716
2 -15 4 -0.4793 -0.2302
2 -15 5 -1.1437 -0.1822
2 -15 6 -1.1861 -0.1985
2 -15 7 -0.0401 -0.1397
2 -15 8 -0.0694 -0.0421
2 -15 9 -1.5069 -0.1421
2 -15 10 -1.4986 -0.2677
2 -15 11 0.1111 -0.1111
2 -15 12 0.4756 0.0443
2 -15 13 -0.8893 -0.0894
2 -14 0 0.7894 -0.2756
2 -14 1 1.9103 0.0394
2 -14 2 0.3692 0.1610
2 -14 3 -1.5254 0.0678
2 -14 4 -1.6984 0.1457
2 -14 5 -0.2857 0.2949
2 -14 6 1.1708 0.2555
2 -14 7 1.2844 0.1782
2 -14 8 0.2534 0.1870
2 -14 9 -0.7444 0.1806
2 -14 10 -1.1315 0.2120
2 -14 11 -0.4187 0.2731
2 -14 12 1.5703 0.1838
2 -14 13 2.6421 0.1027
2 -14 14 0.6620 0.1603
2 -13 0 1.7599 -0.6296
2 -13 1 1.6259 -0.0986
2 -13 2 -1.1406 0.1887
2 -13 3 -2.8797 -0.0135
2 -13 4 -0.8970 -0.1953
2 -13 5 2.3350 -0.1732
2 -13 6 3.1933 -0.1664
2 -13 7 2.1770 -0.1808
2 -13 8 1.6921 -0.1462
2 -13 9 1.7853 -0.1378
2 -13 10 1.8450 -0.1691
2 -13 11 2.6553 -0.1988
2 -13 12 3.5657 -0.2137
2 -13 13 2.4330 -0.1974
2 -13 14 0.1236 -0.2157
2 -13 15 -0.4536 -0.2089
2 -12 0 -0.4051 -0.2269
2 -12 1 1.7350 -0.0220
2 -12 2 1.2026 0.0274
2 -12 3 -0.4371 -0.1548
2 -12 4 -0.4084 -0.1043
2 -12 5 0.6764 0.1445
2 -12 6 0.5752 0.1704
2 -12 7 -0.9635 0.0239
2 -12 8 -2.2044 -0.0032
2 -12 9 -1.3511 0.0539
2 -12 10 1.0458 0.0741
2 -12 11 1.4831 0.1034
2 -12 12 -1.4446 0.1528
2 -12 13 -3.2887 0.1881
2 -12 14 -0.6075 0.2409
2 -12 15 2.3057 0.2246
2 -12 16 0.3481 -0.0301
2 -11 0 -0.1784 -0.6034
2 -11 1 2.6137 0.0472
2 -11 2 1.3565 0.3728
2 -11 3 -2.6210 0.1346
2 -11 4 -4.0434 0.0028
2 -11 5 -1.1385 0.0893
2 -11 6 2.2794 0.0231
2 -11 7 2.1881 -0.0525
2 -11 8 -0.3505 0.0878
2 -11 9 -1.6041 0.1555
2 -11 10 -1.5373 0.0198
2 -11 11 -2.3603 -0.0498
2 -11 12 -2.3221 -0.0522
2 -11 13 0.8593 -0.1415
2 -11 14 3.1907 -0.1731
2 -11 15 0.4762 -0.1081
2 -11 16 -3.4191 -0.1234
2 -10 0 0.1299 -0.3215
2 -10 1 -0.2553 0.0535
2 -10 2 -2.5100 -0.0463
2 -10 3 -3.6354 -0.3426
2 -10 4 -1.3006 -0.1916
2 -10 5 2.6970 0.0788
2 -10 6 4.6680 -0.0475
2 -10 7 3.3911 -0.2150
2 -10 8 0.9936 -0.1160
2 -10 9 -0.6446 -0.0775
2 -10 10 -1.5270 -0.1482
2 -10 11 -0.7853 -0.0609
2 -10 12 2.4091 0.0314
2 -10 13 4.7016 -0.0231
2 -10 14 2.6130 0.0428
2 -10 15 -0.3981 0.2398
2 -10 16 0.7649 0.2440
2 -9 0 -2.2491 -0.5872
2 -9 1 -1.9694 -0.1041
2 -9 2 0.1451 0.2257
2 -9 3 1.0671 0.1505
2 -9 4 -0.6277 0.1047
2 -9 5 -1.8846 0.1192
2 -9 6 -0.0471 0.0353
2 -9 7 2.7381 0.0570
2 -9 8 2.7543 0.1967
2 -9 9 0.1247 0.1598
2 -9 10 -1.6042 0.0324
2 -9 11 -0.7477 0.0860
2 -9 12 0.4876 0.1718
2 -9 13 0.3089 0.0705
2 -9 14 0.0923 -0.0939
2 -9 15 0.7335 -0.1692
2 -9 16 0.5522 -0.1533
2 -8 0 1.3314 -0.3401
2 -8 1 4.1737 0.1626
2 -8 2 4.0078 0.1854
2 -8 3 -0.6586 -0.1746
2 -8 4 -5.0529 -0.2243
2 -8 5 -3.9112 0.0045
2 -8 6 1.1795 0.0332
2 -8 7 3.4470 -0.0798
2 -8 8 0.1206 -0.0730
2 -8 9 -3.6999 -0.0589
2 -8 10 -3.2917 -0.1273
2 -8 11 -1.3187 -0.1322
2 -8 12 -1.2803 -0.0842
2 -8 13 -0.9721 -0.0829
2 -8 14 1.0993 -0.0339
2 -8 15 1.3191 0.0793
2 -8 16 -1.4370 0.0782
2 -7 0 2.9823 -0.6704
2 -7 1 0.8747 -0.2810
2 -7 2 -1.1344 0.0715
2 -7 3 -0.2886 0.0602
2 -7 4 0.8154 0.0527
2 -7 5 -0.3494 0.0800
2 -7 6 -1.8758 -0.0713
2 -7 7 -2.2025 -0.1444
2 -7 8 -2.0109 0.0439
2 -7 9 -0.9012 0.1461
2 -7 10 0.8305 0.0401
2 -7 11 0.6061 0.0211
2 -7 12 -1.1325 0.1075
2 -7 13 -0.6916 0.1130
2 -7 14 1.7678 0.0894
2 -7 15 2.8309 0.0791
2 -7 16 2.2805 0.0094
2 -6 0 -3.0507 -0.4138
2 -6 1 -3.2392 0.2202
2 -6 2 0.8380 0.2800
2 -6 3 5.1359 -0.1289
2 -6 4 3.2954 -0.1668
2 -6 5 -1.7500 0.1017
2 -6 6 -2.4466 0.1506
2 -6 7 1.2568 0.0637
2 -6 8 4.3278 0.0331
2 -6 9 4.9247 -0.0484
2 -6 10 3.3017 -0.0816
2 -6 11 -0.2897 0.0454
2 -6 12 -3.1382 0.0317
2 -6 13 -2.2703 -0.2100
2 -6 14 0.6181 -0.2608
2 -6 15 1.7040 -0.0212
2 -6 16 0.6756 0.0977
2 -5 0 0.3117 -0.5417
2 -5 1 4.1953 -0.1403
2 -5 2 5.8489 0.0493
2 -5 3 3.7166 -0.0310
2 -5 4 0.4343 -0.0021
2 -5 5 -0.3293 0.0298
2 -5 6 1.1930 -0.0998
2 -5 7 2.2973 -0.1392
2 -5 8 2.0458 -0.0186
2 -5 9 1.0436 0.0140
2 -5 10 -0.3258 -0.0377
2 -5 11 -1.2916 -0.0170
2 -5 12 -0.8172 0.0358
2 -5 13 0.5651 0.1018
2 -5 14 0.9179 0.1803
2 -5 15 -0.4846 0.0831
2 -5 16 -1.8685 -0.1083
2 -4 0 2.5621 -0.5949
2 -4 1 2.7142 0.1030
2 -4 2 -2.1995 0.2719
2 -4 3 -5.5499 -0.0591
2 -4 4 -4.3822 -0.1297
2 -4 5 -2.6366 0.0478
2 -4 6 -2.4470 0.0592
2 -4 7 -2.2519 0.0207
2 -4 8 -2.3372 0.1047
2 -4 9 -3.0847 0.0985
2 -4 10 -1.7743 -0.0402
2 -4 11 1.7185 -0.0549
2 -4 12 2.7920 0.0702
2 -4 13 0.3632 0.0799
2 -4 14 -0.9962 -0.1198
2 -4 15 0.5252 -0.2586
2 -3 0 5.4724 -0.4219
2 -3 1 -4.8181 -0.1146
2 -3 2 -15.3380 -0.0106
2 -3 3 -13.5961 -0.0554
2 -3 4 -4.5441 0.0824
2 -3 5 1.1965 0.1559
2 -3 6 2.7601 -0.0510
2 -3 7 2.6660 -0.1743
2 -3 8 0.3309 -0.0423
2 -3 9 -1.8616 0.0339
2 -3 10 -0.1727 -0.0297
2 -3 11 2.2390 -0.0557
2 -3 12 0.7046 -0.0728
2 -3 13 -1.8164 -0.1067
2 -3 14 -0.7973 -0.0167
2 -3 15 1.5580 0.1183
2 -2 0 10.3730 -0.6470
2 -2 1 -2.1555 0.1252
2 -2 2 -10.1219 0.3522
2 -2 3 -4.8159 -0.0722
2 -2 4 6.3524 -0.2439
2 -2 5 13.1202 -0.0185
2 -2 6 12.2713 0.1029
2 -2 7 6.0784 0.0539
2 -2 8 -0.0268 0.0137
2 -2 9 -1.4569 -0.0024
2 -2 10 0.4025 0.0444
2 -2 11 1.3854 0.1208
2 -2 12 0.7970 0.0854
2 -2 13 -0.1975 0.0647
2 -2 14 -1.4625 0.1655
2 -2 15 -2.0296 0.0188
2 -1 0 4.1786 -0.4697
2 -1 1 9.6883 -0.0409
2 -1 2 7.9417 -0.0126
2 -1 3 3.9022 -0.1328
2 -1 4 3.4387 0.0413
2 -1 5 4.6867 0.1605
2 -1 6 2.9032 -0.0137
2 -1 7 -0.2324 -0.1199
2 -1 8 -0.2927 -0.0373
2 -1 9 1.3539 0.0075
2 -1 10 1.2321 -0.0095
2 -1 11 0.2764 -0.0665
2 -1 12 -0.2068 -0.1909
2 -1 13 -1.5364 -0.1566
2 -1 14 -2.6136 0.0977
2 0 0 5.2559 -0.5459
2 0 1 24.0941 0.0077
2 0 2 15.9908 0.3094
2 0 3 -5.4172 0.1180
2 0 4 -17.5002 -0.0897
2 0 5 -13.8463 -0.0843
2 0 6 -2.6672 -0.0147
2 0 7 5.8845 0.0400
2 0 8 6.1494 0.0730
2 0 9 0.2420 0.0442
2 0 10 -3.9165 -0.0181
2 0 11 -2.5205 -0.0293
2 0 12 0.2801 0.0595
2 0 13 0.7955 0.1893
2 0 14 0.6444 0.1203
2 1 0 15.8529 -0.4363
2 1 1 22.3638 -0.0040
2 1 2 6.4101 -0.0333
2 1 3 -11.8535 -0.2643
2 1 4 -14.6230 -0.0296
2 1 5 -3.2068 0.2577
2 1 6 8.3937 0.0442
2 1 7 8.8371 -0.1892
2 1 8 0.0366 -0.0187
2 1 9 -6.6183 0.1231
2 1 10 -4.8991 0.0012
2 1 11 0.5950 -0.0281
2 1 12 3.3795 0.0834
2 1 13 2.1864 0.0183
2 2 0 2.1303 -0.5262
2 2 1 2.3491 0.0047
2 2 2 2.2153 0.2020
2 2 3 3.1116 0.0798
2 2 4 3.5794 0.0011
2 2 5 2.1889 -0.0846
2 2 6 -0.6178 -0.1366
2 2 7 -2.9987 0.0182
2 2 8 -2.9750 0.1101
2 2 9 -1.0609 -0.0692
2 2 10 0.2189 -0.1770
2 2 11 0.4473 -0.0909
2 2 12 0.8227 -0.0671
2 2 13 0.6880 0.0756
2 3 0 -9.9910 -0.3951
2 3 1 1.5539 -0.0041
2 3 2 10.8792 0.1404
2 3 3 8.3928 -0.0618
2 3 4 -1.7625 -0.1088
2 3 5 -8.4557 0.0965
2 3 6 -6.4518 0.1903
2 3 7 0.1249 0.0393
2 3 8 4.0745 -0.0846
2 3 9 2.4855 0.0518
2 3 10 -1.2952 0.2401
2 3 11 -2.5340 0.1160
2 3 12 -0.7945 -0.1253
2 4 0 -1.8922 -0.6982
2 4 1 6.7577 -0.1562
2 4 2 6.9766 0.1476
2 4 3 -0.5683 0.0295
2 4 4 -6.5608 -0.0583
2 4 5 -5.5921 -0.0519
2 4 6 -0.4660 -0.1104
2 4 7 3.1992 -0.1013
2 4 8 2.9404 0.0052
2 4 9 0.3691 -0.0045
2 4 10 -1.9677 -0.0970
2 4 11 -2.9137 -0.0963
2 5 0 1.2302 -0.2183
2 5 1 2.4808 0.1238
2 5 2 1.2427 0.1348
2 5 3 -0.8626 -0.0776
2 5 4 -1.8093 -0.0670
2 5 5 -1.2427 0.0814
2 5 6 -0.0289 0.1173
2 5 7 0.6556 0.0805
2 5 8 0.3687 -0.0114
2 5 9 -0.5296 -0.1305
2 5 10 -1.6253 -0.0363
2 6 0 4.6824 -0.5940
2 6 1 3.4478 -0.1372
2 6 2 2.0728 0.1237
2 6 3 1.7646 0.0567
2 6 4 2.0457 0.0160
2 6 5 1.5192 -0.0022
2 6 6 -0.2158 -0.0730
2 6 7 -1.8440 -0.0028
2 6 8 -1.8391 0.1484
2 6 9 -0.4905 0.0948
2 7 0 3.7029 -0.3551
2 7 1 0.4276 0.0394
2 7 2 -2.4797 0.0918
2 7 3 -2.7433 -0.1218
2 7 4 -1.5779 -0.1364
2 7 5 -1.3802 -0.0195
2 7 6 -1.8018 -0.0332
2 7 7 -0.8259 -0.0925
2 7 8 1.2714 -0.0992
2 8 0 -2.1178 -0.3991
2 8 1 -2.2428 -0.0382
2 8 2 -3.7271 0.1666
2 8 3 -4.5401 0.0682
2 8 4 -3.6500 0.0795
2 8 5 -1.8329 0.2003
2 8 6 0.4467 0.1171
2 8 7 2.5655 -0.0329
2 9 0 0.1117 -0.4122
2 9 1 1.9174 0.0432
2 9 2 1.7835 0.1108
2 9 3 1.2950 -0.1892
2 9 4 0.5680 -0.2423
2 9 5 -0.4685 -0.0483
2 9 6 -0.4518 -0.0103
2 10 0 -1.1558 -0.4147
2 10 1 -0.9860 -0.1033
2 10 2 0.1406 0.1608
2 10 3 0.2721 0.0898
2 10 4 -0.8163 -0.0204
2 10 5 -1.0796 -0.0054
2 11 0 -2.9216 -0.3000
2 11 1 -1.6407 0.0930
2 11 2 -1.9478 0.2527
2 11 3 -2.3836 0.0170
2 12 0 0.6588 -0.3657
2 12 1 -0.1560 -0.1676
2 12 2 -2.6106 -0.1713
2 13 0 -2.9395 -0.1396
3 -16 4 1.9061 -0.0649
3 -16 5 0.1596 0.0765
3 -16 6 -2.5289 0.2375
3 -16 7 -2.8495 0.1369
3 -16 8 -1.5682 -0.0635
3 -16 9 -0.2657 -0.0161
3 -16 10 0.4505 0.1962
3 -15 1 -1.0928 -0.1318
3 -15 2 0.8959 0.1908
3 -15 3 1.8653 0.1391
3 -15 4 0.9310 0.1351
3 -15 5 -0.1031 0.1853
3 -15 6 -0.7678 0.0228
3 -15 7 -1.6510 -0.0206
3 -15 8 -1.5751 0.2523
3 -15 9 0.0546 0.2949
3 -15 10 1.2847 -0.0579
3 -15 11 1.1289 -0.1650
3 -15 12 0.8864 0.1157
3 -14 0 -1.6400 -0.4727
3 -14 1 -0.2859 0.0033
3 -14 2 0.6076 -0.0870
3 -14 3 0.0548 -0.4017
3 -14 4 0.6079 -0.2581
3 -14 5 2.3476 -0.0570
3 -14 6 2.5739 -0.1845
3 -14 7 1.2616 -0.2290
3 -14 8 0.4839 -0.1127
3 -14 9 0.5699 -0.1854
3 -14 10 0.8430 -0.2618
3 -14 11 0.8688 -0.0774
3 -14 12 -0.0178 0.0147
3 -14 13 -1.3083 -0.1497
3 -13 0 -0.4474 -0.1343
3 -13 1 -1.4289 0.1864
3 -13 2 -2.4255 0.2210
3 -13 3 -1.0711 0.1159
3 -13 4 2.2754 0.1969
3 -13 5 3.7260 0.2639
3 -13 6 2.2165 0.1143
3 -13 7 0.5222 -0.0162
3 -13 8 0.5435 0.0918
3 -13 9 2.1211 0.2653
3 -13 10 3.9090 0.2313
3 -13 11 3.6811 0.0627
3 -13 12 1.1031 0.0783
3 -13 13 -1.1438 0.2692
3 -13 14 -1.6377 0.2108
3 -12 0 0.5904 -0.5732
3 -12 1 -1.2224 -0.1247
3 -12 2 -1.4946 0.1392
3 -12 3 1.1588 -0.0983
3 -12 4 3.0153 -0.2529
3 -12 5 1.6595 -0.0541
3 -12 6 -0.4262 0.0808
3 -12 7 -0.5815 0.0132
3 -12 8 0.8940 -0.0398
3 -12 9 2.4554 -0.0986
3 -12 10 3.0121 -0.1728
3 -12 11 2.5245 -0.1014
3 -12 12 1.4765 -0.0474
3 -12 13 -0.1721 -0.2430
3 -12 14 -1.8455 -0.3583
3 -12 15 -1.8544 -0.0554
3 -11 0 2.0339 -0.4933
3 -11 1 1.1653 -0.0761
3 -11 2 0.7977 0.1440
3 -11 3 0.1961 -0.0350
3 -11 4 -0.9813 -0.0797
3 -11 5 -1.0406 0.0206
3 -11 6 0.4558 -0.0523
3 -11 7 1.3594 -0.1452
3 -11 8 -0.0850 -0.0803
3 -11 9 -2.5862 0.0185
3 -11 10 -2.6961 0.0960
3 -11 11 0.5414 0.0996
3 -11 12 3.1209 -0.0100
3 -11 13 1.9430 0.0614
3 -11 14 -0.0764 0.4025
3 -11 15 -0.0529 0.4276
3 -10 0 1.9938 -0.2881
3 -10 1 1.1526 0.0583
3 -10 2 -0.0507 0.1785
3 -10 3 -0.5725 0.0653
3 -10 4 1.0088 0.0502
3 -10 5 3.2384 0.0952
3 -10 6 3.2640 0.0803
3 -10 7 0.6426 0.1005
3 -10 8 -2.6815 0.1528
3 -10 9 -4.1685 0.0951
3 -10 10 -2.4310 -0.0420
3 -10 11 0.7190 -0.0580
3 -10 12 1.9868 0.0671
3 -10 13 1.1249 0.0336
3 -10 14 0.2674 -0.2881
3 -10 15 -0.0762 -0.4349
3 -9 0 -2.3609 -0.6134
3 -9 1 -2.7249 -0.1844
3 -9 2 -0.2192 0.0356
3 -9 3 3.3365 -0.0901
3 -9 4 4.3096 -0.1105
3 -9 5 1.5907 0.0065
3 -9 6 -1.3973 -0.0572
3 -9 7 -1.4677 -0.1745
3 -9 8 0.4980 -0.0901
3 -9 9 1.7332 -0.0184
3 -9 10 0.8800 -0.1070
3 -9 11 -0.9046 -0.0992
3 -9 12 -1.2774 0.0027
3 -9 13 -0.0318 -0.0355
3 -9 14 0.7289 0.0007
3 -9 15 0.7190 0.2932
3 -8 0 -4.4825 -0.3218
3 -8 1 -2.8526 0.1734
3 -8 2 0.0508 0.2165
3 -8 3 0.1062 -0.0864
3 -8 4 -3.3962 -0.0758
3 -8 5 -6.1985 0.0875
3 -8 6 -5.1282 0.0103
3 -8 7 -1.5055 -0.0310
3 -8 8 1.9479 0.1256
3 -8 9 3.0638 0.1373
3 -8 10 0.8603 0.0027
3 -8 11 -2.1398 0.0362
3 -8 12 -1.9426 0.1701
3 -8 13 0.9677 0.1779
3 -8 14 2.5404 0.0261
3 -8 15 1.3971 -0.2491
3 -7 0 -0.8128 -0.5780
3 -7 1 -1.8928 -0.0944
3 -7 2 -2.7206 0.1184
3 -7 3 -2.8612 0.0248
3 -7 4 -2.2218 0.0349
3 -7 5 -2.0306 0.1086
3 -7 6 -3.2755 0.0551
3 -7 7 -3.9038 -0.0264
3 -7 8 -1.8863 -0.0347
3 -7 9 0.2697 -0.0239
3 -7 10 -0.3425 -0.0444
3 -7 11 -1.4750 -0.0966
3 -7 12 -0.1334 -0.1323
3 -7 13 1.6400 -0.1376
3 -7 14 0.5635 -0.1640
3 -7 15 -2.2297 -0.0488
3 -6 0 0.7901 -0.4862
3 -6 1 -1.3798 0.0354
3 -6 2 -0.2298 0.1738
3 -6 3 4.0055 -0.1239
3 -6 4 6.6437 -0.2302
3 -6 5 4.1396 -0.0570
3 -6 6 -0.7085 -0.0096
3 -6 7 -2.6692 -0.0887
3 -6 8 -1.3145 -0.0290
3 -6 9 0.2479 0.0538
3 -6 10 1.0838 -0.0221
3 -6 11 1.7206 -0.0240
3 -6 12 1.0579 0.1830
3 -6 13 -1.3232 0.2715
3 -6 14 -3.0063 0.0897
3 -6 15 -2.1332 -0.0978
3 -5 0 -0.8347 -0.4857
3 -5 1 -2.6791 -0.0457
3 -5 2 -0.9282 0.1429
3 -5 3 3.1453 0.0201
3 -5 4 5.1362 0.0558
3 -5 5 3.7225 0.1641
3 -5 6 1.5363 0.0701
3 -5 7 0.2674 -0.0058
3 -5 8 -0.1606 0.0780
3 -5 9 0.4892 0.0773
3 -5 10 1.1665 -0.0012
3 -5 11 -0.4250 0.0198
3 -5 12 -2.9622 -0.0336
3 -5 13 -2.1296 -0.2157
3 -5 14 1.8625 -0.1704
3 -5 15 3.7549 0.0791
3 -4 0 -6.9805 -0.5124
3 -4 1 -11.2262 0.0434
3 -4 2 -8.4718 0.1707
3 -4 3 -1.4555 -0.0618
3 -4 4 3.6169 -0.1027
3 -4 5 4.3630 -0.0136
3 -4 6 2.1296 -0.0510
3 -4 7 -0.3946 -0.0856
3 -4 8 -0.4175 -0.0421
3 -4 9 1.3775 -0.0578
3 -4 10 0.9718 -0.1045
3 -4 11 -1.6964 -0.0698
3 -4 12 -1.6614 0.0116
3 -4 13 2.1183 0.0719
3 -4 14 4.3740 0.0793
3 -4 15 2.1019 0.1017
3 -3 0 -5.8261 -0.4687
3 -3 1 -7.3201 -0.1071
3 -3 2 -2.6659 0.0242
3 -3 3 3.2835 -0.0709
3 -3 4 5.3228 -0.0332
3 -3 5 2.6838 0.0527
3 -3 6 -1.2422 0.0248
3 -3 7 -1.6852 0.0178
3 -3 8 1.7889 0.0788
3 -3 9 4.0058 0.0728
3 -3 10 2.5315 0.0487
3 -3 11 1.2539 0.1537
3 -3 12 2.0550 0.2260
3 -3 13 1.8103 -0.0198
3 -3 14 -0.1857 -0.3769
3 -2 0 8.3229 -0.5319
3 -2 1 7.3118 0.0918
3 -2 2 3.2079 0.3165
3 -2 3 0.4349 0.0670
3 -2 4 0.0168 -0.0740
3 -2 5 -0.3060 0.0278
3 -2 6 -0.7275 0.0625
3 -2 7 0.1290 -0.0176
3 -2 8 0.5664 -0.0432
3 -2 9 -1.1003 -0.0465
3 -2 10 -1.8073 -0.1254
3 -2 11 0.5838 -0.2012
3 -2 12 2.3440 -0.1700
3 -2 13 0.9536 -0.0073
3 -2 14 -0.2453 0.2610
3 -1 0 9.1525 -0.4794
3 -1 1 0.3564 -0.1161
3 -1 2 -7.1943 0.0145
3 -1 3 -4.6155 -0.1508
3 -1 4 3.3669 -0.1117
3 -1 5 7.1297 0.0517
3 -1 6 3.9560 -0.0138
3 -1 7 -1.8906 -0.1186
3 -1 8 -5.3085 -0.0223
3 -1 9 -4.3452 0.0945
3 -1 10 -0.9080 0.1326
3 -1 11 1.6372 0.1705
3 -1 12 1.9294 0.0883
3 -1 13 1.1066 -0.1229
3 0 0 -5.1109 -0.5713
3 0 1 -8.3518 0.0696
3 0 2 -5.3312 0.2733
3 0 3 2.1754 0.0462
3 0 4 7.7081 -0.0275
3 0 5 7.2576 0.0591
3 0 6 1.8427 0.0987
3 0 7 -2.7803 0.1010
3 0 8 -1.5630 0.0206
3 0 9 2.6879 -0.0897
3 0 10 3.6078 -0.0101
3 0 11 1.3626 0.0854
3 0 12 0.3372 -0.1311
3 0 13 0.7878 -0.2735
3 1 0 0.2520 -0.3298
3 1 1 3.3983 -0.0317
3 1 2 2.9618 0.0308
3 1 3 0.0101 -0.0734
3 1 4 -0.9394 -0.0957
3 1 5 0.4735 -0.0470
3 1 6 0.7024 -0.0300
3 1 7 0.1809 -0.0648
3 1 8 1.6547 -0.1153
3 1 9 3.1314 -0.1134
3 1 10 1.6678 -0.0529
3 1 11 -0.3901 -0.0073
3 1 12 -0.0508 0.0523
3 2 0 7.0383 -0.6379
3 2 1 3.9838 -0.1138
3 2 2 0.2756 0.2195
3 2 3 -1.7005 0.0672
3 2 4 -1.2442 -0.0641
3 2 5 -0.6085 0.0294
3 2 6 -1.6190 0.0818
3 2 7 -2.7272 0.0770
3 2 8 -1.8828 0.1535
3 2 9 -0.1277 0.1981
3 2 10 0.3319 0.1341
3 2 11 -0.3748 0.0373
3 3 0 -3.8869 -0.2869
3 3 1 -3.7653 0.1041
3 3 2 1.1899 0.0714
3 3 3 4.6077 -0.1241
3 3 4 3.1995 0.0011
3 3 5 0.0421 0.1284
3 3 6 -1.8421 -0.0471
3 3 7 -2.6569 -0.2033
3 3 8 -2.2599 -0.1830
3 3 9 0.0313 -0.1585
3 3 10 2.2825 -0.0535
3 3 11 1.7585 0.1250
3 4 0 -2.7242 -0.5210
3 4 1 -1.1760 -0.1200
3 4 2 1.3122 0.0661
3 4 3 1.9630 -0.0176
3 4 4 1.4615 -0.0734
3 4 5 2.0286 -0.0552
3 4 6 2.1987 0.0113
3 4 7 -0.0003 0.1277
3 4 8 -1.7776 0.1429
3 4 9 0.2619 0.0199
3 4 10 3.6255 -0.0110
3 5 0 4.8625 -0.2850
3 5 1 -1.3315 0.1274
3 5 2 -4.7534 0.1834
3 5 3 -3.1553 -0.0151
3 5 4 0.6843 0.0077
3 5 5 2.9007 0.1433
3 5 6 2.0238 0.0651
3 5 7 -0.6948 -0.0537
3 5 8 -2.5752 0.0264
3 5 9 -1.7471 0.0836
3 6 0 -0.0312 -0.5072
3 6 1 -6.3820 -0.1891
3 6 2 -5.7399 0.0179
3 6 3 -0.3488 -0.0392
3 6 4 2.1111 -0.0728
3 6 5 -0.0820 -0.1047
3 6 6 -1.8449 -0.2247
3 6 7 -0.8000 -0.1887
3 6 8 -0.0274 0.0139
3 7 0 -1.8304 -0.3338
3 7 1 -3.6894 0.0727
3 7 2 -2.2500 0.1952
3 7 3 0.3326 0.0068
3 7 4 -0.0345 0.0224
3 7 5 -2.3237 0.2219
3 7 6 -1.3680 0.2786
3 7 7 3.1039 0.2025
3 8 0 3.6807 -0.3805
3 8 1 2.8624 -0.0521
3 8 2 0.7232 0.0934
3 8 3 0.5730 -0.0404
3 8 4 1.4938 -0.1350
3 8 5 1.3947 -0.1626
3 8 6 1.8376 -0.2144
3 9 0 2.9564 -0.4197
3 9 1 4.2413 -0.0334
3 9 2 2.2097 0.1075
3 9 3 0.6225 -0.0899
3 9 4 0.8231 -0.0628
3 9 5 0.7419 0.1789
3 10 0 -0.2535 -0.2698
3 10 1 1.5182 0.1147
3 10 2 -0.4823 0.2855
3 10 3 -2.9153 0.0570
3 11 0 1.9219 -0.5331
3 11 1 1.3973 -0.1374
3 11 2 0.7319 0.0128
3 12 0 0.5628 -0.2173
4 -15 3 1.5546 0.0059
4 -15 4 1.0534 0.2213
4 -15 5 -0.3943 0.0118
4 -15 6 -0.2372 -0.2318
4 -15 7 1.7266 -0.0799
4 -15 8 1.6113 0.0833
4 -15 9 -1.1252 0.0438
4 -15 10 -1.6933 0.0339
4 -14 0 -2.1648 -0.1712
4 -14 1 0.0727 0.0795
4 -14 2 0.7947 0.1864
4 -14 3 0.8759 0.1857
4 -14 4 0.7653 0.1454
4 -14 5 0.4192 0.0793
4 -14 6 0.0528 0.0808
4 -14 7 -0.7243 0.2179
4 -14 8 -1.9025 0.2787
4 -14 9 -2.2596 0.0742
4 -14 10 -1.5395 -0.0464
4 -14 11 -0.9300 0.1978
4 -14 12 -0.8992 0.2362
4 -13 0 1.2349 -0.6548
4 -13 1 2.9005 -0.1048
4 -13 2 2.3199 -0.0608
4 -13 3 -0.0419 -0.3585
4 -13 4 -1.5508 -0.1859
4 -13 5 -1.0037 0.0941
4 -13 6 -0.4948 -0.0994
4 -13 7 -1.2819 -0.3289
4 -13 8 -1.7397 -0.2436
4 -13 9 -1.3333 -0.1301
4 -13 10 -1.5305 -0.0880
4 -13 11 -2.2200 -0.1341
4 -13 12 -2.0398 -0.3673
4 -13 13 -1.0885 -0.3205
4 -12 0 0.2881 -0.2960
4 -12 1 2.8126 0.1801
4 -12 2 2.2526 0.2747
4 -12 3 -0.9625 0.0429
4 -12 4 -1.2923 -0.0190
4 -12 5 1.7266 0.0220
4 -12 6 2.8246 0.0630
4 -12 7 0.2818 0.1682
4 -12 8 -2.2273 0.1918
4 -12 9 -1.9035 0.0782
4 -12 10 0.4082 0.0525
4 -12 11 2.1518 0.2066
4 -12 12 1.6291 0.3771
4 -12 13 -0.1799 0.3098
4 -11 0 -1.4916 -0.5327
4 -11 1 1.6806 -0.0312
4 -11 2 1.7867 0.2151
4 -11 3 -0.3150 -0.0031
4 -11 4 -1.6410 -0.1000
4 -11 5 -1.6806 0.1046
4 -11 6 -0.9617 0.1334
4 -11 7 0.2849 -0.0905
4 -11 8 1.1780 -0.1244
4 -11 9 1.1471 0.0360
4 -11 10 0.8433 0.0242
4 -11 11 0.6076 -0.1413
4 -11 12 0.1256 -0.2736
4 -11 13 -0.2410 -0.3246
4 -11 14 0.1126 -0.1125
4 -10 0 0.8800 -0.5055
4 -10 1 0.8355 -0.0506
4 -10 2 0.3783 0.0509
4 -10 3 -1.2947 -0.1932
4 -10 4 -4.1319 -0.1342
4 -10 5 -4.9069 0.0323
4 -10 6 -1.5096 -0.1390
4 -10 7 2.6607 -0.2258
4 -10 8 3.0631 0.0262
4 -10 9 0.1233 0.0738
4 -10 10 -2.3880 -0.1585
4 -10 11 -2.4023 -0.1256
4 -10 12 -0.7841 0.1856
4 -10 13 0.6553 0.4006
4 -10 14 1.1529 0.3557
4 -9 0 -1.1036 -0.4079
4 -9 1 -2.1812 0.0793
4 -9 2 -1.1027 0.2428
4 -9 3 -0.3948 0.0494
4 -9 4 -0.8065 0.0394
4 -9 5 -0.9840 0.1819
4 -9 6 -0.8200 0.1799
4 -9 7 -0.6272 0.1007
4 -9 8 0.2556 0.0813
4 -9 9 1.2344 0.1106
4 -9 10 0.7109 0.1610
4 -9 11 -0.5105 0.1421
4 -9 12 -0.3538 -0.0327
4 -9 13 0.6271 -0.2753
4 -9 14 0.4500 -0.3816
4 -8 0 -3.8349 -0.4816
4 -8 1 -0.6602 -0.0062
4 -8 2 2.1102 0.1360
4 -8 3 2.6008 -0.1437
4 -8 4 1.6745 -0.2143
4 -8 5 -0.1458 -0.0141
4 -8 6 -1.8782 -0.0411
4 -8 7 -0.9274 -0.2184
4 -8 8 2.5546 -0.1267
4 -8 9 4.4363 -0.0102
4 -8 10 2.9548 -0.2100
4 -8 11 1.0019 -0.2865
4 -8 12 0.6349 0.0428
4 -8 13 0.7394 0.2196
4 -8 14 0.3891 0.0905
4 -7 0 -0.0707 -0.5420
4 -7 1 2.2742 -0.1104
4 -7 2 1.6768 0.1300
4 -7 3 0.0051 -0.0059
4 -7 4 -0.8177 -0.0132
4 -7 5 -0.8918 0.1042
4 -7 6 0.0109 0.0309
4 -7 7 1.9010 -0.0118
4 -7 8 2.9510 0.1287
4 -7 9 2.1959 0.1245
4 -7 10 0.9601 0.0480
4 -7 11 -0.0438 0.2240
4 -7 12 -1.0268 0.2770
4 -7 13 -1.0809 -0.1139
4 -7 14 0.1126 -0.3887
4 -6 0 0.8585 -0.3785
4 -6 1 -3.0168 0.1184
4 -6 2 -4.7825 0.2656
4 -6 3 -3.0152 -0.0013
4 -6 4 -0.1490 -0.0832
4 -6 5 1.3865 0.0868
4 -6 6 1.2116 0.1080
4 -6 7 -0.2520 -0.0280
4 -6 8 -1.8553 -0.0522
4 -6 9 -2.1180 0.0166
4 -6 10 -1.3137 -0.0487
4 -6 11 -0.7886 -0.2610
4 -6 12 -0.4462 -0.2892
4 -6 13 0.1240 0.0824
4 -6 14 -0.1760 0.4184
4 -5 0 -2.0584 -0.6024
4 -5 1 -2.4354 -0.1780
4 -5 2 0.8827 0.0164
4 -5 3 3.1992 -0.1616
4 -5 4 2.3470 -0.1617
4 -5 5 -0.3016 0.0286
4 -5 6 -3.1804 -0.0413
4 -5 7 -4.7551 -0.2240
4 -5 8 -3.8096 -0.0924
4 -5 9 -1.4802 0.1153
4 -5 10 0.0468 0.0508
4 -5 11 0.3264 0.0320
4 -5 12 0.0313 0.2169
4 -5 13 -0.3381 0.1103
4 -5 14 -0.2531 -0.2205
4 -4 0 1.7288 -0.4333
4 -4 1 7.2105 0.1564
4 -4 2 7.0232 0.3370
4 -4 3 0.9123 0.0629
4 -4 4 -4.0670 -0.0070
4 -4 5 -4.3496 0.1559
4 -4 6 -2.0933 0.1429
4 -4 7 0.1843 0.0656
4 -4 8 1.0450 0.1295
4 -4 9 0.2262 0.0974
4 -4 10 -0.7000 -0.0376
4 -4 11 -0.9122 -0.0150
4 -4 12 -1.2125 -0.0840
4 -4 13 -1.0231 -0.3751
4 -3 0 3.7004 -0.5102
4 -3 1 3.8793 -0.1540
4 -3 2 0.1075 0.0223
4 -3 3 -2.5082 -0.1214
4 -3 4 -1.1033 -0.1303
4 -3 5 1.8029 -0.0013
4 -3 6 3.1884 -0.0624
4 -3 7 2.2039 -0.1822
4 -3 8 -0.2916 -0.1261
4 -3 9 -1.6448 -0.0728
4 -3 10 -0.3125 -0.1154
4 -3 11 1.0089 -0.0227
4 -3 12 -0.3615 0.2217
4 -3 13 -2.3175 0.3526
4 -2 0 -1.8550 -0.6056
4 -2 1 -1.6565 0.0167
4 -2 2 0.6804 0.2719
4 -2 3 2.8818 0.0053
4 -2 4 3.1242 -0.0992
4 -2 5 1.8521 0.0591
4 -2 6 0.2039 0.0748
4 -2 7 -0.9822 0.0260
4 -2 8 -0.9309 0.1644
4 -2 9 0.3318 0.2349
4 -2 10 1.3039 0.0228
4 -2 11 0.4061 -0.1363
4 -2 12 -1.6491 -0.0757
4 -1 0 -1.4744 -0.2969
4 -1 1 0.9081 0.0496
4 -1 2 1.1353 0.1208
4 -1 3 -0.4645 -0.0505
4 -1 4 -0.1476 -0.0103
4 -1 5 1.5815 0.1469
4 -1 6 1.3631 0.0409
4 -1 7 -0.2555 -0.1663
4 -1 8 -0.7762 -0.1269
4 -1 9 -0.3386 -0.0147
4 -1 10 0.1330 -0.0637
4 -1 11 0.6440 -0.0373
4 -1 12 0.9842 0.1796
4 0 0 -0.2291 -0.6721
4 0 1 1.9089 -0.1418
4 0 2 1.4677 0.1240
4 0 3 0.3034 -0.0786
4 0 4 0.9897 -0.1724
4 0 5 1.6682 -0.0293
4 0 6 0.4867 -0.0262
4 0 7 -0.7302 -0.0784
4 0 8 -0.3998 0.0837
4 0 9 0.7169 0.1611
4 0 10 1.6174 -0.0833
4 0 11 1.3652 -0.1746
4 1 0 -2.8811 -0.2513
4 1 1 3.3102 0.1489
4 1 2 5.8275 0.1829
4 1 3 2.4194 -0.0324
4 1 4 -2.3185 0.0436
4 1 5 -3.4918 0.2085
4 1 6 -1.0513 0.0795
4 1 7 1.8958 -0.0397
4 1 8 2.9023 0.1015
4 1 9 1.6679 0.1073
4 1 10 -0.6188 -0.1972
4 1 11 -2.5568 -0.3175
4 2 0 -3.0961 -0.5821
4 2 1 1.5049 -0.1085
4 2 2 2.9445 0.1006
4 2 3 -0.1905 -0.0569
4 2 4 -3.7835 -0.1290
4 2 5 -4.1513 -0.0553
4 2 6 -1.9062 -0.0957
4 2 7 0.4737 -0.2005
4 2 8 1.2614 -0.1109
4 2 9 0.3088 0.1445
4 2 10 -0.7645 0.2838
4 3 0 -1.8924 -0.3568
4 3 1 -3.8735 0.0521
4 3 2 -2.8999 0.1381
4 3 3 -0.6293 -0.0929
4 3 4 0.1359 -0.0745
4 3 5 -0.9478 0.2057
4 3 6 -1.5199 0.2415
4 3 7 -0.1198 0.0155
4 3 8 1.8992 -0.0642
4 3 9 2.9340 -0.0443
4 4 0 -2.7186 -0.4160
4 4 1 -4.5233 -0.0341
4 4 2 -1.1656 0.2004
4 4 3 3.0733 0.0717
4 4 4 3.6530 -0.0567
4 4 5 1.3831 -0.0951
4 4 6 0.0828 -0.1346
4 4 7 1.1437 -0.0030
4 4 8 2.8225 0.2480
4 5 0 -2.2239 -0.3993
4 5 1 0.0677 -0.0553
4 5 2 2.2673 -0.0085
4 5 3 2.0469 -0.1193
4 5 4 -0.2193 -0.0263
4 5 5 -2.1792 0.0601
4 5 6 -2.0871 -0.0681
4 5 7 -0.6997 -0.1637
4 6 0 -2.0073 -0.2474
4 6 1 0.4586 0.0076
4 6 2 0.9278 0.1143
4 6 3 -0.3504 0.0754
4 6 4 -1.8496 0.1043
4 6 5 -2.2886 0.1755
4 6 6 -1.3766 0.1250
4 7 0 0.2812 -0.3801
4 7 1 3.4108 0.0229
4 7 2 3.3071 0.1634
4 7 3 1.7033 -0.1888
4 7 4 0.6466 -0.3970
4 7 5 0.5929 -0.1297
4 8 0 2.7052 -0.4711
4 8 1 3.7536 -0.0565
4 8 2 2.6364 0.1698
4 8 3 2.0107 0.1605
4 8 4 1.8326 0.1749
4 9 0 -2.3257 -0.0687
4 9 1 -1.6710 0.0337
4 9 2 -0.2129 -0.0421
4 10 0 -4.2178 -0.3593
4 10 1 -2.6206 -0.1075
5 -14 2 -0.2662 -0.1519
5 -14 3 0.7783 -0.3569
5 -14 4 1.9090 -0.0916
5 -14 5 2.3837 -0.1343
5 -14 6 1.9237 -0.2569
5 -14 7 0.9134 -0.0700
5 -14 8 -0.0421 0.0766
5 -14 9 -0.6517 0.0279
5 -13 0 0.9860 -0.2655
5 -13 1 0.4826 0.0075
5 -13 2 -0.5762 0.2662
5 -13 3 -0.3322 0.3506
5 -13 4 0.8179 0.2827
5 -13 5 0.7650 0.2513
5 -13 6 -0.7047 0.2594
5 -13 7 -1.9441 0.1644
5 -13 8 -2.1995 0.0948
5 -13 9 -1.4574 0.1907
5 -13 10 0.2533 0.2349
5 -12 0 2.7942 -0.8897
5 -12 1 1.0914 -0.1503
5 -12 2 -2.2513 0.1627
5 -12 3 -2.6736 -0.2225
5 -12 4 -0.7095 -0.4218
5 -12 5 0.6135 -0.2208
5 -12 6 0.7914 -0.1336
5 -12 7 0.2151 -0.1928
5 -12 8 -1.0080 -0.2141
5 -12 9 -1.2317 -0.3042
5 -12 10 0.3744 -0.3615
5 -12 11 1.0711 -0.2027
5 -11 0 0.4442 -0.1406
5 -11 1 -0.3033 -0.0938
5 -11 2 -0.6022 -0.0227
5 -11 3 0.1408 0.0674
5 -11 4 0.3049 0.1851
5 -11 5 0.1945 0.1375
5 -11 6 0.8446 0.0744
5 -11 7 1.1157 0.1983
5 -11 8 0.3372 0.2609
5 -11 9 0.0213 0.2159
5 -11 10 0.7725 0.3498
5 -11 11 1.3835 0.4416
5 -11 12 1.1037 0.1137
5 -10 0 -0.6955 -0.4128
5 -10 1 2.5323 0.0924
5 -10 2 3.9207 0.3332
5 -10 3 2.0527 0.1304
5 -10 4 -0.7558 -0.1062
5 -10 5 -1.3749 -0.1000
5 -10 6 0.5813 -0.0242
5 -10 7 3.1722 -0.0694
5 -10 8 3.8389 -0.1525
5 -10 9 1.6564 -0.2064
5 -10 10 -0.6464 -0.3055
5 -10 11 -0.1101 -0.3627
5 -10 12 1.3131 -0.2207
5 -9 0 2.2713 -0.5404
5 -9 1 1.9862 -0.1890
5 -9 2 0.3434 -0.1020
5 -9 3 -0.0307 -0.2508
5 -9 4 0.7545 -0.1266
5 -9 5 0.7102 0.1008
5 -9 6 0.7688 0.0192
5 -9 7 1.8226 -0.0866
5 -9 8 1.1345 0.0496
5 -9 9 -1.6120 0.1185
5 -9 10 -1.9811 0.1177
5 -9 11 0.6530 0.3349
5 -9 12 1.5598 0.4272
5 -8 0 -0.2374 -0.4214
5 -8 1 -2.5951 0.1302
5 -8 2 -1.5751 0.4110
5 -8 3 2.0864 0.1818
5 -8 4 2.8366 0.0037
5 -8 5 -0.3431 0.0523
5 -8 6 -2.7764 0.0970
5 -8 7 -2.7722 0.1064
5 -8 8 -2.0854 0.0893
5 -8 9 -0.5568 -0.0026
5 -8 10 1.5937 -0.0920
5 -8 11 1.6330 -0.1978
5 -8 12 -0.4589 -0.3602
5 -7 0 -1.6062 -0.4334
5 -7 1 -1.7361 -0.0777
5 -7 2 0.6779 -0.0010
5 -7 3 2.9736 -0.2408
5 -7 4 2.7347 -0.2155
5 -7 5 0.9346 0.0219
5 -7 6 -0.6830 -0.0361
5 -7 7 -1.1240 -0.2552
5 -7 8 0.0100 -0.1998
5 -7 9 0.8962 -0.0093
5 -7 10 -0.8296 0.0279
5 -7 11 -3.4595 0.0825
5 -7 12 -3.5151 0.2645
5 -6 0 0.1986 -0.5956
5 -6 1 -0.3202 -0.0300
5 -6 2 -1.1590 0.2586
5 -6 3 -0.9645 0.0951
5 -6 4 0.8187 0.0420
5 -6 5 1.6695 0.1405
5 -6 6 0.5276 0.1095
5 -6 7 -0.4313 0.1094
5 -6 8 -0.8643 0.2183
5 -6 9 -2.3192 0.1558
5 -6 10 -3.5234 0.0056
5 -6 11 -2.3968 0.0035
5 -6 12 -0.3646 -0.1063
5 -5 0 2.5074 -0.2635
5 -5 1 -0.1924 0.0820
5 -5 2 -4.6125 0.0944
5 -5 3 -5.1835 -0.1554
5 -5 4 -1.9509 -0.1605
5 -5 5 0.5998 0.0089
5 -5 6 0.8273 -0.0245
5 -5 7 -0.4783 -0.1763
5 -5 8 -2.0985 -0.2070
5 -5 9 -1.5714 -0.1422
5 -5 10 1.2321 -0.0637
5 -5 11 2.3264 -0.0594
5 -5 12 0.5514 -0.1263
5 -4 0 3.3205 -0.6181
5 -4 1 0.3559 -0.1844
5 -4 2 -2.0668 0.1296
5 -4 3 -1.5937 0.0466
5 -4 4 0.6485 -0.0076
5 -4 5 2.2545 0.0557
5 -4 6 1.3533 0.0148
5 -4 7 -1.4760 0.0264
5 -4 8 -2.1627 0.1994
5 -4 9 1.3181 0.2218
5 -4 10 4.3402 0.0716
5 -4 11 2.8312 0.0950
5 -4 12 0.2184 0.1727
5 -3 0 3.1645 -0.3479
5 -3 1 3.2330 0.1252
5 -3 2 1.7511 0.2226
5 -3 3 -0.3242 -0.0448
5 -3 4 -0.6597 -0.0864
5 -3 5 -0.0413 0.0625
5 -3 6 -0.5413 0.0368
5 -3 7 -1.0980 -0.0427
5 -3 8 0.2326 -0.0630
5 -3 9 2.1861 -0.2112
5 -3 10 2.3257 -0.2824
5 -3 11 1.0065 0.0008
5 -2 0 4.0315 -0.5443
5 -2 1 1.4245 -0.1791
5 -2 2 -2.6375 0.0691
5 -2 3 -3.9352 -0.0391
5 -2 4 -2.3732 -0.0939
5 -2 5 -0.9379 -0.0201
5 -2 6 0.0974 -0.0431
5 -2 7 1.3249 -0.0344
5 -2 8 1.1909 0.1025
5 -2 9 -0.2724 0.1381
5 -2 10 -0.7359 0.0951
5 -2 11 -0.1182 0.1403
5 -1 0 1.6989 -0.4425
5 -1 1 -1.2817 0.1122
5 -1 2 -2.1623 0.2872
5 -1 3 -1.0369 -0.0151
5 -1 4 -0.7276 -0.0824
5 -1 5 -1.0766 0.1454
5 -1 6 0.0203 0.1640
5 -1 7 1.4283 -0.0237
5 -1 8 1.0934 -0.1046
5 -1 9 0.6934 -0.0631
5 -1 10 2.0245 0.0273
5 0 0 1.5690 -0.4091
5 0 1 1.2273 -0.0639
5 0 2 0.1316 0.0370
5 0 3 -1.6158 -0.1298
5 0 4 -2.2618 -0.1180
5 0 5 -0.8810 0.0164
5 0 6 1.2058 -0.0533
5 0 7 2.4628 -0.1518
5 0 8 2.9800 -0.0340
5 0 9 3.4972 0.0565
5 0 10 3.6721 -0.0450
5 1 0 1.5379 -0.4454
5 1 1 -0.0820 0.0158
5 1 2 -1.9972 0.2277
5 1 3 -1.8750 0.0367
5 1 4 -0.0385 -0.0220
5 1 5 0.4420 0.1113
5 1 6 -0.7274 0.1059
5 1 7 -0.3637 0.0697
5 1 8 2.1650 0.1457
5 1 9 3.1776 0.1058
5 2 0 -0.5775 -0.3497
5 2 1 -2.1408 -0.0162
5 2 2 -1.2705 0.0459
5 2 3 1.0878 -0.1231
5 2 4 1.4033 -0.0844
5 2 5 -1.1310 0.0383
5 2 6 -2.8898 -0.0862
5 2 7 -0.9427 -0.2704
5 2 8 1.9504 -0.2547
5 3 0 -1.6443 -0.3905
5 3 1 -3.2535 -0.0444
5 3 2 -0.7641 0.1663
5 3 3 2.6986 0.0164
5 3 4 3.7225 -0.0685
5 3 5 2.7046 0.0925
5 3 6 1.5662 0.2356
5 3 7 0.6785 0.2150
5 4 0 -0.6249 -0.3911
5 4 1 0.3507 0.0182
5 4 2 3.5039 0.1867
5 4 3 4.6401 0.0035
5 4 4 2.6755 -0.1262
5 4 5 0.8447 -0.1115
5 4 6 0.5492 -0.1199
5 5 0 0.8009 -0.3400
5 5 1 1.5106 -0.1598
5 5 2 1.6134 -0.0033
5 5 3 -0.6483 0.0237
5 5 4 -3.2381 0.0650
5 5 5 -1.9112 0.0510
5 6 0 -1.9232 -0.2287
5 6 1 -3.1103 0.1299
5 6 2 -1.0716 0.1633
5 6 3 1.0666 -0.0833
5 6 4 0.9589 0.0037
5 7 0 -0.5389 -0.3758
5 7 1 -2.4332 -0.0413
5 7 2 -0.0870 0.0326
5 7 3 2.6090 -0.1577
5 8 0 0.6403 -0.3006
5 8 1 -2.0181 0.0043
6 -12 1 0.8597 0.0189
6 -12 2 1.1876 0.4657
6 -12 3 0.6955 0.4012
6 -12 4 0.1698 0.0734
6 -12 5 0.1431 -0.0244
6 -12 6 -0.8231 0.0890
6 -12 7 -1.8802 0.0940
6 -12 8 -0.4409 0.0172
6 -11 0 -0.2726 -0.9483
6 -11 1 0.7271 -0.4690
6 -11 2 1.2989 -0.2111
6 -11 3 0.6944 -0.4977
6 -11 4 -1.0037 -0.4727
6 -11 5 -2.2872 -0.0676
6 -11 6 -0.9568 -0.0937
6 -11 7 2.0155 -0.3805
6 -11 8 2.3028 -0.1868
6 -11 9 -0.7905 0.1652
6 -10 0 -2.0429 0.1456
6 -10 1 -1.3512 0.5150
6 -10 2 0.9353 0.4432
6 -10 3 1.1728 0.1812
6 -10 4 -1.9432 0.3169
6 -10 5 -2.5480 0.4529
6 -10 6 2.4968 0.1865
6 -10 7 5.9796 0.0439
6 -10 8 2.5889 0.2694
6 -10 9 -1.7263 0.2913
6 -9 0 -1.0580 -0.7465
6 -9 1 0.1326 -0.2270
6 -9 2 2.5437 -0.0154
6 -9 3 2.0207 -0.2502
6 -9 4 -1.0959 -0.3613
6 -9 5 -1.4771 -0.2019
6 -9 6 0.8232 -0.1061
6 -9 7 1.0705 -0.1866
6 -9 8 -0.4440 -0.2747
6 -9 9 -0.5627 -0.2468
6 -9 10 0.0518 -0.1043
6 -8 0 0.7107 -0.4231
6 -8 1 0.4724 0.0097
6 -8 2 0.9515 0.1968
6 -8 3 1.1192 0.0463
6 -8 4 0.4511 0.0488
6 -8 5 -1.2960 0.1964
6 -8 6 -3.2440 0.1461
6 -8 7 -2.9870 0.0534
6 -8 8 -0.5126 0.2107
6 -8 9 0.6983 0.3720
6 -8 10 -0.5898 0.2116
6 -7 0 0.0946 -0.1779
6 -7 1 -0.4619 -0.0114
6 -7 2 -0.2890 0.1326
6 -7 3 1.2875 0.0544
6 -7 4 1.0571 0.0010
6 -7 5 -1.8585 0.0075
6 -7 6 -3.1943 -0.0830
6 -7 7 -1.1450 -0.1593
6 -7 8 0.8676 -0.1350
6 -7 9 0.5981 -0.1893
6 -7 10 -0.9036 -0.2906
6 -6 0 1.8207 -0.7067
6 -6 1 1.0783 -0.1239
6 -6 2 0.0914 0.0646
6 -6 3 -1.0594 -0.2041
6 -6 4 -2.8657 -0.2311
6 -6 5 -3.0074 0.0228
6 -6 6 -1.1216 0.0852
6 -6 7 -0.4346 0.0102
6 -6 8 -1.0760 0.0811
6 -6 9 -0.2574 0.2017
6 -6 10 1.4781 0.2219
6 -5 0 0.5460 -0.1263
6 -5 1 -0.3649 0.1546
6 -5 2 -1.7828 0.2332
6 -5 3 -2.5318 0.1338
6 -5 4 -1.1400 0.1474
6 -5 5 1.0683 0.1433
6 -5 6 0.9386 0.0054
6 -5 7 -0.9656 -0.0552
6 -5 8 -1.1823 -0.0258
6 -5 9 0.0408 -0.0523
6 -5 10 -0.1275 -0.0780
6 -4 0 -0.6769 -0.6324
6 -4 1 -0.8842 -0.2406
6 -4 2 -0.9616 0.0167
6 -4 3 0.1309 -0.1009
6 -4 4 1.4771 -0.2145
6 -4 5 1.3721 -0.1491
6 -4 6 0.2877 -0.0627
6 -4 7 -0.1116 -0.0240
6 -4 8 0.5122 -0.0172
6 -4 9 0.9229 0.0088
6 -3 0 -0.1127 -0.2088
6 -3 1 -0.1149 0.0854
6 -3 2 -0.2057 0.1215
6 -3 3 -0.5647 0.0210
6 -3 4 -0.9280 0.1223
6 -3 5 -0.8180 0.1961
6 -3 6 -1.0046 0.0813
6 -3 7 -0.9908 0.0810
6 -3 8 2.3649 0.1265
6 -3 9 7.8057 -0.1294
6 -2 0 0.2276 -0.4372
6 -2 1 1.2702 -0.0616
6 -2 2 1.4304 0.1568
6 -2 3 0.2761 0.0472
6 -2 4 -0.7017 -0.1207
6 -2 5 -1.1952 -0.2210
6 -2 6 -1.9678 -0.1785
6 -2 7 -1.0389 0.0354
6 -2 8 3.4208 0.0844
6 -1 0 -0.5756 -0.4248
6 -1 1 -0.4366 -0.0849
6 -1 2 0.2946 0.0132
6 -1 3 0.7258 -0.1190
6 -1 4 0.7516 -0.0071
6 -1 5 0.6446 0.2088
6 -1 6 0.4757 0.1393
6 -1 7 0.1324 -0.0458
6 -1 8 -0.3562 -0.0874
6 0 0 -4.2209 -0.2711
6 0 1 -4.2506 0.0781
6 0 2 -0.5589 0.2194
6 0 3 2.4342 0.0833
6 0 4 1.9342 0.0151
6 0 5 0.2942 -0.0341
6 0 6 -0.0042 -0.1063
6 0 7 0.2955 0.0072
6 1 0 -1.3330 -0.4191
6 1 1 -0.8226 -0.0624
6 1 2 2.4093 0.0044
6 1 3 2.5746 -0.1896
6 1 4 -0.4126 -0.1846
6 1 5 -1.7602 0.0025
6 1 6 -0.8503 0.0880
6 2 0 0.2741 -0.3629
6 2 1 0.4884 -0.0147
6 2 2 0.8514 0.2070
6 2 3 -0.3371 0.1670
6 2 4 -0.7259 0.1650
6 2 5 0.0492 0.0776
6 3 0 -0.1248 -0.2347
6 3 1 -0.9434 0.0333
6 3 2 -1.5844 0.0305
6 3 3 -1.3630 -0.1806
6 3 4 -0.7143 -0.1946
6 4 0 -0.4489 -0.4433
6 4 1 -1.5356 -0.1787
6 4 2 0.9053 0.0722
6 4 3 1.9143 0.1298
6 5 0 -2.8162 -0.0911
6 5 1 -1.1734 0.1785
6 5 2 1.4610 0.1758
6 6 0 -2.6784 -0.3382
7 -9 0 -1.4165 0.0540
7 -9 1 -0.8453 0.3288
7 -9 2 0.5479 0.3239
7 -9 3 0.9551 0.0725
7 -9 4 0.7706 0.0796
7 -9 5 1.2433 0.2726
7 -8 0 1.9824 -0.8765
7 -8 1 1.0764 -0.3458
7 -8 2 -0.6044 -0.1153
7 -8 3 -1.7893 -0.2179
7 -8 4 -1.4264 -0.1784
7 -8 5 0.0472 -0.1131
7 -8 6 -0.2694 -0.2523
7 -7 0 0.2229 0.0841
7 -7 1 -1.0688 0.2604
7 -7 2 -1.4134 0.2263
7 -7 3 -1.3354 0.0686
7 -7 4 -0.7951 0.0803
7 -7 5 0.2060 0.1763
7 -7 6 0.0628 0.1884
7 -6 0 -0.7831 -0.6051
7 -6 1 -1.0603 -0.1816
7 -6 2 -0.2628 0.0675
7 -6 3 0.0673 -0.0531
7 -6 4 -0.0194 -0.1242
7 -6 5 0.5155 -0.0483
7 -6 6 0.5417 -0.0906
7 -5 0 0.3238 -0.2731
7 -5 1 -0.3855 0.0956
7 -5 2 -0.3536 0.1459
7 -5 3 -0.6780 -0.0488
7 -5 4 -0.5288 -0.0568
7 -5 5 1.3997 0.0567
7 -5 6 3.0023 0.0913
7 -4 0 0.9012 -0.3385
7 -4 1 0.0489 -0.1050
7 -4 2 -0.9836 0.0550
7 -4 3 -1.0403 0.0420
7 -4 4 1.0186 0.0013
7 -4 5 4.0951 -0.0434
7 -4 6 5.2042 -0.0591
7 -3 0 -0.1748 -0.3354
7 -3 1 -0.4370 0.0264
7 -3 2 -0.0991 0.1684
7 -3 3 0.4216 -0.0055
7 -3 4 0.5349 -0.1078
7 -3 5 0.3914 -0.0016
7 -2 0 -0.2358 -0.3783
7 -2 1 1.4780 -0.0224
7 -2 2 2.0155 0.0751
7 -2 3 -0.1000 -0.1281
7 -2 4 -1.9364 -0.1009
7 -2 5 -0.9656 0.1326
7 -1 0 0.1168 -0.2831
7 -1 1 1.1759 0.0930
7 -1 2 1.3303 0.1177
7 -1 3 0.3961 -0.0669
7 -1 4 0.4790 -0.0107
7 0 0 -2.0505 -0.2245
7 0 1 0.0479 -0.0570
7 0 2 1.5126 0.0566
7 0 3 0.2212 -0.0127
7 1 0 0.5091 -0.4412
7 1 1 1.4827 -0.1425
7 1 2 1.1468 0.0743
7 2 0 -1.7861 -0.0149
7 2 1 -0.3686 0.0899
7 3 0 -3.5420 -0.4771
0 0 0 0.0 0.0
;
_shelx_fab_checksum              15947
_olex2_submission_special_instructions 'No special instructions were received'
loop_
_space_group_symop_operation_xyz
'x, y, z'
'-x, -y, -z'
loop_
_atom_site_label
_atom_site_type_symbol
_atom_site_fract_x
_atom_site_fract_y
_atom_site_fract_z
_atom_site_U_iso_or_equiv
_atom_site_adp_type
_atom_site_occupancy
_atom_site_site_symmetry_order
_atom_site_calc_flag
_atom_site_refinement_flags_posn
_atom_site_refinement_flags_adp
_atom_site_refinement_flags_occupancy
_atom_site_disorder_assembly
_atom_site_disorder_group
Pt1 Pt 0.500000 0.500000 0.000000 0.02925(13) Uani 1 2 d S T P . .
Co1 Co 1.000000 0.500000 0.500000 0.0208(2) Uani 1 2 d S T P . .
Co2 Co 0.000000 1.000000 0.500000 0.0238(2) Uani 1 2 d S T P . .
S1 S 0.6874(2) 0.57313(15) 0.17046(12) 0.0322(4) Uani 1 1 d . . . . .
S2 S 0.2425(2) 0.56401(16) 0.11218(12) 0.0339(4) Uani 1 1 d . . . . .
O1 O 0.8187(6) 0.6038(3) 0.4781(3) 0.0253(9) Uani 1 1 d . . . . .
O2 O 0.5330(7) 0.4806(3) 0.3534(3) 0.0268(9) Uani 1 1 d . . . . .
O3 O 0.1127(8) 0.8535(4) 0.4554(4) 0.0402(12) Uani 1 1 d . . . . .
O4 O 0.3512(7) 0.8551(4) 0.3449(4) 0.0290(9) Uani 1 1 d . . . . .
O5 O 0.7090(6) 0.3679(4) 0.4365(3) 0.0269(9) Uani 1 1 d . . . . .
H5A H 0.738351 0.303692 0.393121 0.040 Uiso 1 1 d GR . . . .
H5B H 0.619552 0.378752 0.395759 0.040 Uiso 1 1 d GR . . . .
O6 O 1.0866(7) 0.4442(4) 0.3485(3) 0.0294(9) Uani 1 1 d . . . . .
H6A H 1.042475 0.370052 0.309562 0.044 Uiso 1 1 d GR . . . .
H6B H 1.229878 0.455560 0.351342 0.044 Uiso 1 1 d GR . . . .
O7 O 0.2476(7) 1.0575(4) 0.4303(3) 0.0287(9) Uani 1 1 d . . . . .
H7A H 0.194645 1.080591 0.386058 0.043 Uiso 1 1 d GR . . . .
H7B H 0.307309 1.001547 0.385673 0.043 Uiso 1 1 d GR . . . .
O8 O -0.2096(8) 0.9238(5) 0.3556(4) 0.0549(15) Uani 1 1 d . . . . .
H8A H -0.330020 0.883143 0.358427 0.082 Uiso 1 1 d GR . . . .
H8B H -0.153690 0.874602 0.305337 0.082 Uiso 1 1 d GR . . . .
O9 O 0.7136(9) 0.1406(5) 0.3388(5) 0.0473(13) Uani 1 1 d . . . . .
H9A H 0.583294 0.108626 0.305808 0.071 Uiso 1 1 d G . . . .
H9B H 0.732999 0.109316 0.376929 0.071 Uiso 1 1 d G . . . .
O10 O 1.1603(10) 0.1883(5) 0.3338(4) 0.0477(13) Uani 1 1 d . . . . .
H10A H 1.029891 0.166602 0.300973 0.071 Uiso 1 1 d G . . . .
H10B H 1.162227 0.250408 0.389507 0.071 Uiso 1 1 d G . . . .
N1 N 0.4246(8) 0.6503(4) 0.3180(4) 0.0215(10) Uani 1 1 d . . . . .
C1 C 0.6524(9) 0.5760(5) 0.4092(5) 0.0243(12) Uani 1 1 d . . . . .
C2 C 0.6077(9) 0.6777(5) 0.3990(4) 0.0223(12) Uani 1 1 d . . . . .
H2A H 0.579548 0.734270 0.469148 0.027 Uiso 1 1 calc R . . . .
H2B H 0.741417 0.713510 0.382127 0.027 Uiso 1 1 calc R . . . .
C3 C 0.2338(9) 0.8096(5) 0.3875(5) 0.0248(12) Uani 1 1 d . . . . .
C4 C 0.2228(9) 0.6844(5) 0.3549(5) 0.0218(12) Uani 1 1 d . . . . .
H4A H 0.196837 0.672173 0.416990 0.026 Uiso 1 1 calc R . . . .
H4B H 0.097524 0.635968 0.296904 0.026 Uiso 1 1 calc R . . . .
C5 C 0.4454(10) 0.6033(5) 0.2170(5) 0.0249(12) Uani 1 1 d . . . . .
loop_
_atom_site_aniso_label
_atom_site_aniso_U_11
_atom_site_aniso_U_22
_atom_site_aniso_U_33
_atom_site_aniso_U_23
_atom_site_aniso_U_13
_atom_site_aniso_U_12
Pt1 0.02297(18) 0.0445(2) 0.02118(18) 0.01259(16) 0.00581(12) 0.01813(15)
Co1 0.0204(5) 0.0230(6) 0.0249(5) 0.0144(5) 0.0043(4) 0.0102(4)
Co2 0.0238(5) 0.0228(6) 0.0292(6) 0.0129(5) 0.0107(5) 0.0129(5)
S1 0.0233(7) 0.0516(10) 0.0223(7) 0.0136(7) 0.0063(6) 0.0208(7)
S2 0.0234(7) 0.0563(11) 0.0232(7) 0.0158(8) 0.0058(6) 0.0210(7)
O1 0.023(2) 0.025(2) 0.033(2) 0.0162(19) 0.0005(17) 0.0101(17)
O2 0.024(2) 0.021(2) 0.035(2) 0.0130(19) 0.0002(18) 0.0076(18)
O3 0.050(3) 0.035(3) 0.059(3) 0.031(3) 0.043(3) 0.031(2)
O4 0.029(2) 0.029(2) 0.043(3) 0.026(2) 0.017(2) 0.0129(19)
O5 0.024(2) 0.029(2) 0.035(2) 0.019(2) 0.0048(17) 0.0110(18)
O6 0.029(2) 0.036(3) 0.028(2) 0.017(2) 0.0077(18) 0.0126(19)
O7 0.029(2) 0.026(2) 0.034(2) 0.014(2) 0.0123(18) 0.0131(18)
O8 0.031(3) 0.082(4) 0.041(3) 0.027(3) 0.007(2) -0.004(3)
O9 0.055(3) 0.042(3) 0.054(3) 0.027(3) 0.007(3) 0.022(3)
O10 0.058(3) 0.041(3) 0.043(3) 0.017(3) 0.004(3) 0.023(3)
N1 0.024(2) 0.022(2) 0.023(2) 0.010(2) 0.0075(19) 0.015(2)
C1 0.022(3) 0.033(3) 0.030(3) 0.020(3) 0.012(2) 0.016(3)
C2 0.027(3) 0.023(3) 0.020(3) 0.010(2) 0.004(2) 0.013(2)
C3 0.025(3) 0.028(3) 0.026(3) 0.013(3) 0.002(2) 0.015(2)
C4 0.021(3) 0.025(3) 0.029(3) 0.017(3) 0.010(2) 0.015(2)
C5 0.027(3) 0.025(3) 0.025(3) 0.009(3) 0.004(2) 0.017(2)
loop_
_atom_type_symbol
_atom_type_description
_atom_type_scat_dispersion_real
_atom_type_scat_dispersion_imag
_atom_type_scat_source
C C 0.0033 0.0016 'International Tables Vol C Tables 4.2.6.8 and 6.1.1.4'
H H 0.0000 0.0000 'International Tables Vol C Tables 4.2.6.8 and 6.1.1.4'
Co Co 0.3494 0.9721 'International Tables Vol C Tables 4.2.6.8 and 6.1.1.4'
N N 0.0061 0.0033 'International Tables Vol C Tables 4.2.6.8 and 6.1.1.4'
O O 0.0106 0.0060 'International Tables Vol C Tables 4.2.6.8 and 6.1.1.4'
Pt Pt -1.7033 8.3905 'International Tables Vol C Tables 4.2.6.8 and 6.1.1.4'
S S 0.1246 0.1234 'International Tables Vol C Tables 4.2.6.8 and 6.1.1.4'
loop_
_citation_id
_citation_doi
_citation_year
1 10.26434/chemrxiv.12966737 2020
loop_
_geom_angle_atom_site_label_1
_geom_angle_atom_site_label_2
_geom_angle_atom_site_label_3
_geom_angle
_geom_angle_site_symmetry_1
_geom_angle_site_symmetry_3
_geom_angle_publ_flag
S1 Pt1 S1 180.0 . 2_665 ?
S1 Pt1 S2 104.40(5) . 2_665 ?
S1 Pt1 S2 75.60(5) . . ?
S1 Pt1 S2 104.40(5) 2_665 . ?
S1 Pt1 S2 75.60(5) 2_665 2_665 ?
S2 Pt1 S2 180.0 . 2_665 ?
O1 Co1 O1 180.0 . 2_766 ?
O1 Co1 O5 88.10(16) . . ?
O1 Co1 O5 88.10(16) 2_766 2_766 ?
O1 Co1 O5 91.90(16) 2_766 . ?
O1 Co1 O5 91.90(16) . 2_766 ?
O5 Co1 O5 180.0 2_766 . ?
O6 Co1 O1 88.30(16) 2_766 . ?
O6 Co1 O1 91.70(16) . . ?
O6 Co1 O1 91.70(16) 2_766 2_766 ?
O6 Co1 O1 88.30(16) . 2_766 ?
O6 Co1 O5 90.38(17) 2_766 2_766 ?
O6 Co1 O5 90.38(17) . . ?
O6 Co1 O5 89.62(17) 2_766 . ?
O6 Co1 O5 89.62(17) . 2_766 ?
O6 Co1 O6 180.0(2) 2_766 . ?
O3 Co2 O3 180.0 2_576 . ?
O3 Co2 O7 90.12(16) . 2_576 ?
O3 Co2 O7 89.88(16) 2_576 2_576 ?
O3 Co2 O7 89.88(16) . . ?
O3 Co2 O7 90.12(16) 2_576 . ?
O7 Co2 O7 180.0 . 2_576 ?
O8 Co2 O3 89.1(2) . 2_576 ?
O8 Co2 O3 90.9(2) . . ?
O8 Co2 O3 90.9(2) 2_576 2_576 ?
O8 Co2 O3 89.1(2) 2_576 . ?
O8 Co2 O7 90.32(19) . 2_576 ?
O8 Co2 O7 89.68(19) 2_576 2_576 ?
O8 Co2 O7 89.68(19) . . ?
O8 Co2 O7 90.32(19) 2_576 . ?
O8 Co2 O8 180.0(4) . 2_576 ?
C5 S1 Pt1 87.0(2) . . ?
C5 S2 Pt1 86.67(19) . . ?
C1 O1 Co1 129.0(4) . . ?
C3 O3 Co2 130.6(4) . . ?
Co1 O5 H5A 110.4 . . ?
Co1 O5 H5B 110.5 . . ?
H5A O5 H5B 103.5 . . ?
Co1 O6 H6A 111.2 . . ?
Co1 O6 H6B 111.1 . . ?
H6A O6 H6B 102.8 . . ?
Co2 O7 H7A 112.4 . . ?
Co2 O7 H7B 112.3 . . ?
H7A O7 H7B 101.6 . . ?
Co2 O8 H8A 110.5 . . ?
Co2 O8 H8B 110.2 . . ?
H8A O8 H8B 103.5 . . ?
H9A O9 H9B 104.5 . . ?
H10A O10 H10B 104.5 . . ?
C2 N1 C4 117.6(4) . . ?
C5 N1 C2 120.5(5) . . ?
C5 N1 C4 121.8(5) . . ?
O1 C1 C2 112.3(5) . . ?
O2 C1 O1 127.3(5) . . ?
O2 C1 C2 120.4(5) . . ?
N1 C2 C1 114.8(5) . . ?
N1 C2 H2A 108.6 . . ?
N1 C2 H2B 108.6 . . ?
C1 C2 H2A 108.6 . . ?
C1 C2 H2B 108.6 . . ?
H2A C2 H2B 107.5 . . ?
O3 C3 C4 113.6(5) . . ?
O4 C3 O3 127.1(6) . . ?
O4 C3 C4 119.3(5) . . ?
N1 C4 C3 112.3(5) . . ?
N1 C4 H4A 109.1 . . ?
N1 C4 H4B 109.1 . . ?
C3 C4 H4A 109.1 . . ?
C3 C4 H4B 109.1 . . ?
H4A C4 H4B 107.9 . . ?
S2 C5 S1 110.7(3) . . ?
N1 C5 S1 123.5(4) . . ?
N1 C5 S2 125.8(4) . . ?
loop_
_geom_bond_atom_site_label_1
_geom_bond_atom_site_label_2
_geom_bond_distance
_geom_bond_site_symmetry_2
_geom_bond_publ_flag
Pt1 S1 2.3085(15) . ?
Pt1 S1 2.3085(15) 2_665 ?
Pt1 S2 2.3245(14) . ?
Pt1 S2 2.3246(14) 2_665 ?
Co1 O1 2.093(4) . ?
Co1 O1 2.093(4) 2_766 ?
Co1 O5 2.131(4) 2_766 ?
Co1 O5 2.132(4) . ?
Co1 O6 2.068(4) . ?
Co1 O6 2.068(4) 2_766 ?
Co2 O3 2.075(4) 2_576 ?
Co2 O3 2.075(4) . ?
Co2 O7 2.109(4) 2_576 ?
Co2 O7 2.109(4) . ?
Co2 O8 2.074(5) 2_576 ?
Co2 O8 2.074(5) . ?
S1 C5 1.729(6) . ?
S2 C5 1.722(6) . ?
O1 C1 1.269(7) . ?
O2 C1 1.234(8) . ?
O3 C3 1.255(7) . ?
O4 C3 1.235(7) . ?
O5 H5A 0.8684 . ?
O5 H5B 0.8682 . ?
O6 H6A 0.8805 . ?
O6 H6B 0.8801 . ?
O7 H7A 0.9004 . ?
O7 H7B 0.8989 . ?
O8 H8A 0.8678 . ?
O8 H8B 0.8675 . ?
O9 H9A 0.8502 . ?
O9 H9B 0.8498 . ?
O10 H10A 0.8501 . ?
O10 H10B 0.8500 . ?
N1 C2 1.452(7) . ?
N1 C4 1.467(6) . ?
N1 C5 1.301(7) . ?
C1 C2 1.537(8) . ?
C2 H2A 0.9900 . ?
C2 H2B 0.9900 . ?
C3 C4 1.540(8) . ?
C4 H4A 0.9900 . ?
C4 H4B 0.9900 . ?
loop_
_geom_hbond_atom_site_label_D
_geom_hbond_atom_site_label_H
_geom_hbond_atom_site_label_A
_geom_hbond_distance_DH
_geom_hbond_distance_HA
_geom_hbond_distance_DA
_geom_hbond_angle_DHA
_geom_hbond_site_symmetry_A
_geom_hbond_publ_flag
O5 H5A O9 0.87 1.97 2.764(7) 152.1 . yes
O5 H5B O2 0.87 1.91 2.683(5) 148.2 . yes
O6 H6B O2 0.88 1.87 2.747(6) 178.0 1_655 yes
O7 H7A O10 0.90 1.97 2.822(7) 156.6 1_465 yes
O7 H7B O4 0.90 1.89 2.681(6) 145.9 . yes
O8 H8A O4 0.87 1.95 2.719(7) 146.9 1_455 yes
O9 H9B O3 0.85 2.32 3.040(8) 142.8 2_666 yes
O10 H10A O9 0.85 2.09 2.773(8) 136.5 . yes
O10 H10B O1 0.85 1.99 2.838(7) 177.3 2_766 yes
loop_
_smtbx_masks_void_nr
_smtbx_masks_void_average_x
_smtbx_masks_void_average_y
_smtbx_masks_void_average_z
_smtbx_masks_void_volume
_smtbx_masks_void_count_electrons
_smtbx_masks_void_content
1 -0.713 0.000 0.000 411.4 98.6 ?
