#------------------------------------------------------------------------------
#$Date: 2021-07-05 20:10:48 +0300 (Mon, 05 Jul 2021) $
#$Revision: 267123 $
#$URL: file:///home/coder/svn-repositories/cod/cif/7/24/28/7242878.cif $
#------------------------------------------------------------------------------
#
# This file is available in the Crystallography Open Database (COD),
# http://www.crystallography.net/
#
# All data on this site have been placed in the public domain by the
# contributors.
#
data_7242878
loop_
_publ_author_name
'Richardson, Jonathan G.'
'Mizuno, Asato'
'Shuku, Yoshiaki'
'Awaga, Kunio'
'Robertson, Neil'
'Morrison, Carole A.'
'Warren, Mark R.'
'Allan, David R.'
'Moggach, Stephen A.'
_publ_section_title
;
 Evaluating the high-pressure structural response and crystal lattice
 interactions of the magnetically-bistable organic radical TTTA
;
_journal_issue                   25
_journal_name_full               CrystEngComm
_journal_page_first              4444
_journal_page_last               4450
_journal_paper_doi               10.1039/D1CE00577D
_journal_volume                  23
_journal_year                    2021
_chemical_formula_moiety         'C2 N3 S3'
_chemical_formula_sum            'C2 N3 S3'
_chemical_formula_weight         162.24
_space_group_IT_number           14
_space_group_name_Hall           '-P 2ybc'
_space_group_name_H-M_alt        'P 1 21/c 1'
_symmetry_cell_setting           monoclinic
_symmetry_space_group_name_Hall  '-P 2ybc'
_symmetry_space_group_name_H-M   'P 1 21/c 1'
_atom_sites_solution_hydrogens   difmap
_atom_sites_solution_primary     direct
_audit_creation_date             2021-04-22
_audit_creation_method           CRYSTALS_ver_14.61_build_6999
_audit_update_record
;
2021-04-27 deposited with the CCDC.	2021-05-18 downloaded from the CCDC.
;
_cell_angle_alpha                90
_cell_angle_beta                 104.56(7)
_cell_angle_gamma                90
_cell_formula_units_Z            4
_cell_length_a                   9.348(13)
_cell_length_b                   3.5161(4)
_cell_length_c                   14.834(3)
_cell_measurement_reflns_used    947
_cell_measurement_temperature    293
_cell_measurement_theta_max      22
_cell_measurement_theta_min      4
_cell_volume                     471.9(7)
_computing_cell_refinement       'USER DEFINED CELL REFINEMENT'
_computing_data_collection       'USER DEFINED DATA COLLECTION'
_computing_data_reduction
; 
 CrysAlisPro (Rigaku Oxford Diffraction, 2017) 
;
_computing_molecular_graphics    'CAMERON (Watkin et al., 1996)'
_computing_publication_material  'CRYSTALS (Betteridge et al., 2003)'
_computing_structure_refinement  'CRYSTALS (Betteridge et al., 2003)'
_computing_structure_solution    'SHELXS 86 (Sheldrick, 1986)'
_diffrn_ambient_pressure         940000
_diffrn_ambient_temperature      293
_diffrn_measured_fraction_theta_full 0.290
_diffrn_measured_fraction_theta_max 0.259
_diffrn_measurement_device       Area
_diffrn_measurement_device_type  Synchrotron
_diffrn_measurement_method       \w
_diffrn_radiation_monochromator  'focussing mirrors'
_diffrn_radiation_type           synchrotron
_diffrn_radiation_wavelength     0.48590
_diffrn_reflns_av_R_equivalents  0.028
_diffrn_reflns_av_unetI/netI     0.056
_diffrn_reflns_limit_h_max       6
_diffrn_reflns_limit_h_min       -7
_diffrn_reflns_limit_k_max       5
_diffrn_reflns_limit_k_min       -5
_diffrn_reflns_limit_l_max       19
_diffrn_reflns_limit_l_min       -19
_diffrn_reflns_number            2133
_diffrn_reflns_theta_full        16.868
_diffrn_reflns_theta_max         22.491
_diffrn_reflns_theta_min         3.798
_diffrn_standards_number         0
_exptl_absorpt_coefficient_mu    0.479
_exptl_absorpt_correction_T_max  0.95
_exptl_absorpt_correction_T_min  0.01
_exptl_absorpt_correction_type   multi-scan
_exptl_absorpt_process_details   'DENZO/SCALEPACK (Otwinowski & Minor, 1997)'
_exptl_crystal_colour            black
_exptl_crystal_density_diffrn    2.283
_exptl_crystal_density_meas      ?
_exptl_crystal_density_method    'not measured'
_exptl_crystal_description       block
_exptl_crystal_F_000             324
_exptl_crystal_size_max          0.120
_exptl_crystal_size_mid          0.100
_exptl_crystal_size_min          0.100
_refine_diff_density_max         0.60
_refine_diff_density_min         -0.62
_refine_ls_extinction_method     None
_refine_ls_goodness_of_fit_ref   1.0951
_refine_ls_hydrogen_treatment    noref
_refine_ls_matrix_type           full
_refine_ls_number_parameters     73
_refine_ls_number_reflns         502
_refine_ls_number_restraints     104
_refine_ls_R_factor_all          0.0781
_refine_ls_R_factor_gt           0.0702
_refine_ls_shift/su_max          0.0001505
_refine_ls_shift/su_mean         0.0000168
_refine_ls_structure_factor_coef Fsqd
_refine_ls_weighting_details
;
 Method= Modified Sheldrick 
 w=1/[\s^2^(F^2^) + ( 0.14P)^2^ + 0.90P] 
 ,where P=(max(Fo^2^,0) + 2Fc^2^)/3 
;
_refine_ls_weighting_scheme      calc
_refine_ls_wR_factor_all         0.2023
_refine_ls_wR_factor_gt          0.1853
_refine_ls_wR_factor_ref         0.2023
_reflns_limit_h_max              4
_reflns_limit_h_min              -7
_reflns_limit_k_max              5
_reflns_limit_k_min              0
_reflns_limit_l_max              19
_reflns_limit_l_min              0
_reflns_number_gt                422
_reflns_number_total             502
_reflns_threshold_expression     I>2.0\s(I)
_oxford_diffrn_Wilson_B_factor   2.15
_oxford_diffrn_Wilson_scale      0.02
_oxford_refine_ls_r_factor_ref   0.0781
_oxford_refine_ls_scale          0.855(14)
_oxford_reflns_number_all        502
_iucr_refine_instructions_details
;
#
# Punched on 22/04/21 at 20:48:40
#
#LIST     12                                                                    
BLOCK SCALE X'S  U'S 
END                                                                             
#
# Punched on 22/04/21 at 20:48:40
#
#LIST     16                                                                    
DIST   1.659,.01= S(1) TO N(2) 
DIST   1.734,.01= S(1) TO C(5) 
DIST   1.656,.01= N(2) TO S(3) 
DIST   1.735,.01= S(3) TO C(4) 
DIST   1.430,.01= C(4) TO C(5) 
DIST   1.313,.01= C(4) TO N(8) 
DIST   1.318,.01= C(5) TO N(6) 
DIST   1.645,.01= N(6) TO S(7) 
DIST   1.646,.01= S(7) TO N(8) 
ANGL  98,1= C(5) TO S(1) TO N(2) 
ANGL 117,1= S(3) TO N(2) TO S(1) 
ANGL  98,1= C(4) TO S(3) TO N(2) 
ANGL 114,1= C(5) TO C(4) TO S(3) 
ANGL 132,1= N(8) TO C(4) TO S(3) 
ANGL 114,1= N(8) TO C(4) TO C(5) 
ANGL 114,1= C(4) TO C(5) TO S(1) 
ANGL 132,1= N(6) TO C(5) TO S(1) 
ANGL 114,1= N(6) TO C(5) TO C(4) 
ANGL 106,1= S(7) TO N(6) TO C(5) 
ANGL  99,1= N(8) TO S(7) TO N(6) 
ANGL 106,1= S(7) TO N(8) TO C(4) 
REM   HREST   START (DO NOT REMOVE THIS LINE) 
REM   HREST   END (DO NOT REMOVE THIS LINE) 
PLANAR 0.01 N(2) S(1) S(3) C(4) C(5) N(6) S(7) N(8) 
REM   DELU   START (DO NOT REMOVE THIS LINE) 
VIBR .0, 0.00200 = S(1) TO N(2) 
VIBR .0, 0.00200 = S(1) TO C(5) 
VIBR .0, 0.00500 = C(5) TO N(2) 
VIBR .0, 0.00200 = N(2) TO S(3) 
VIBR .0, 0.00500 = S(3) TO S(1) 
VIBR .0, 0.00200 = S(3) TO C(4) 
VIBR .0, 0.00500 = C(4) TO N(2) 
VIBR .0, 0.00200 = C(4) TO C(5) 
VIBR .0, 0.00200 = C(4) TO N(8) 
VIBR .0, 0.00500 = C(5) TO S(3) 
VIBR .0, 0.00500 = N(8) TO S(3) 
VIBR .0, 0.00500 = N(8) TO C(5) 
VIBR .0, 0.00200 = C(5) TO N(6) 
VIBR .0, 0.00500 = S(1) TO C(4) 
VIBR .0, 0.00500 = N(6) TO C(4) 
VIBR .0, 0.00500 = N(6) TO S(1) 
VIBR .0, 0.00200 = N(6) TO S(7) 
VIBR .0, 0.00500 = S(7) TO C(5) 
VIBR .0, 0.00200 = S(7) TO N(8) 
VIBR .0, 0.00500 = N(8) TO N(6) 
VIBR .0, 0.00500 = S(7) TO C(4) 
REM   DELU   END (DO NOT REMOVE THIS LINE) 
REM   THERMSIM   START (DO NOT REMOVE THIS LINE) 
U(IJ) .0, 0.04000 = S(1) TO N(2) 
U(IJ) .0, 0.04000 = S(1) TO C(5) 
U(IJ) .0, 0.04000 = N(2) TO S(3) 
U(IJ) .0, 0.04000 = S(3) TO C(4) 
U(IJ) .0, 0.04000 = C(4) TO C(5) 
U(IJ) .0, 0.04000 = C(4) TO N(8) 
U(IJ) .0, 0.04000 = C(5) TO N(6) 
U(IJ) .0, 0.04000 = N(6) TO S(7) 
U(IJ) .0, 0.04000 = S(7) TO N(8) 
REM   THERMSIM   END (DO NOT REMOVE THIS LINE) 
END                                                                             
;
_cod_data_source_file            d1ce00577d2.cif
_cod_data_source_block           094GPa
_cod_depositor_comments
;
The following automatic conversions were performed:

data item '_exptl_crystal_density_meas' value 'not measured' was
changed to '?' -- the value is perceived as not measured.

Automatic conversion script
Id: cif_fix_values 7556 2019-12-06 15:28:31Z antanas 

 Adding full bibliography for 7242874--7242883.cif.
;
_cod_original_sg_symbol_H-M      'P 1 21/c 1 '
_cod_database_code               7242878
_oxford_refine_reflns_threshold_expression_ref I>-10.0\s(I)
_iucr_refine_reflections_details
; 
 
# Data was input as F-squared 
# punching LIST  6 as LIST  6 with all keys set 
# NBGNXT=    36 
#LIST   6 
READ NCOEF= 8 TYPE=FIX, F'S = FSQ UNIT=DATA, CHECK=NO L30=NO ARCH=NO 
STORE  NCOEF= 6 
OUTPUT INDICES     /FO/        SIGMA(/FO/) RATIO/JCODE CORRECTIONS SERIAL 
CONT 
INPUT  H           K           L           /FO/        SIGMA(/FO/) JCODE 
CONT   CORRECTIONS SERIAL 
FOR (I4,I4,I4,F10.2,F8.2,F4.0,F7.4,F7.0) 
END 
   0  -1   0      0.03    0.37  0. 1.0000     0. 
   0  -1   0     -0.14    0.32  0. 1.0000     0. 
   0   1   0      0.09    0.30  0. 1.0000     0. 
   0   1   0      0.24    0.36  0. 1.0000     0. 
   0   1   0     -0.03    0.25  0. 1.0000     0. 
   0   1   0      0.03    0.33  0. 1.0000     0. 
   1  -1   0   9513.92  473.75  0. 1.0000     0. 
   1  -1   0   9999.99  486.28  0. 1.0000     0. 
   1   1   0   9759.14  420.02  0. 1.0000     0. 
  -1   1   0   9506.28  425.25  0. 1.0000     0. 
  -1   1   0   9859.92  462.18  0. 1.0000     0. 
   1   1   0   9896.66  421.36  0. 1.0000     0. 
  -1  -2   0   1572.49   69.94  0. 1.0000     0. 
   1   2   0   1617.66   77.78  0. 1.0000     0. 
  -1   2   0   1560.21   77.23  0. 1.0000     0. 
   1   2   0   1640.43   70.45  0. 1.0000     0. 
  -2  -2   0     55.49    3.16  0. 1.0000     0. 
   2   2   0     54.78    3.49  0. 1.0000     0. 
  -2   2   0     54.83    3.82  0. 1.0000     0. 
  -2   2   0     54.85    3.64  0. 1.0000     0. 
  -2   2   0     55.38    4.04  0. 1.0000     0. 
   0  -3   0     -0.30    0.90  0. 1.0000     0. 
   0  -3   0     -1.31    0.88  0. 1.0000     0. 
   0  -3   0     -0.08    0.93  0. 1.0000     0. 
   0  -3   0     -0.25    1.66  0. 1.0000     0. 
   0   3   0     -0.32    1.02  0. 1.0000     0. 
   0   3   0      0.12    0.91  0. 1.0000     0. 
   0   3   0     -0.17    1.44  0. 1.0000     0. 
   0   3   0      0.06    1.05  0. 1.0000     0. 
  -1  -3   0      2.36    0.97  0. 1.0000     0. 
   1  -3   0      3.34    1.96  0. 1.0000     0. 
   1  -3   0      5.20    1.31  0. 1.0000     0. 
  -1  -3   0      4.74    1.83  0. 1.0000     0. 
   1  -3   0      3.74    1.17  0. 1.0000     0. 
  -1  -3   0      2.00    1.01  0. 1.0000     0. 
   1   3   0      4.91    1.41  0. 1.0000     0. 
  -1   3   0      4.10    1.75  0. 1.0000     0. 
   1   3   0      2.90    1.33  0. 1.0000     0. 
   1   3   0      2.87    1.32  0. 1.0000     0. 
  -1   3   0      3.71    1.37  0. 1.0000     0. 
  -1   3   0      3.07    1.35  0. 1.0000     0. 
  -1   3   0      6.55    1.66  0. 1.0000     0. 
   1   3   0      4.28    1.54  0. 1.0000     0. 
  -3   3   0      7.66    1.43  0. 1.0000     0. 
   3   3   0      6.65    1.41  0. 1.0000     0. 
  -3   3   0      6.66    1.58  0. 1.0000     0. 
   3   3   0     10.16    2.06  0. 1.0000     0. 
   1  -1  -1     90.01    4.95  0. 1.0000     0. 
   1   1  -1     92.42    4.53  0. 1.0000     0. 
   1   1  -1     90.79    4.49  0. 1.0000     0. 
   0  -1   1    764.16   36.19  0. 1.0000     0. 
   0  -1  -1    700.46   35.29  0. 1.0000     0. 
   0   1   1    752.13   32.34  0. 1.0000     0. 
   0   1   1    734.20   32.97  0. 1.0000     0. 
   0   1   1    756.75   32.39  0. 1.0000     0. 
  -1   1  -1   6088.75  262.70  0. 1.0000     0. 
  -1   1  -1   6070.75  290.47  0. 1.0000     0. 
   2  -2  -1    189.73    9.76  0. 1.0000     0. 
   2  -2  -1    187.84   11.44  0. 1.0000     0. 
  -2   2   1    179.89   10.08  0. 1.0000     0. 
   2   2  -1    181.74    9.17  0. 1.0000     0. 
  -2   2   1    187.39    9.10  0. 1.0000     0. 
   1  -2  -1   1743.76   86.86  0. 1.0000     0. 
  -1   2   1   1792.36   77.91  0. 1.0000     0. 
   1   2  -1   1741.69   78.61  0. 1.0000     0. 
  -1   2   1   1813.69   85.96  0. 1.0000     0. 
   0  -2  -1    337.45   16.59  0. 1.0000     0. 
   0   2  -1    290.72   14.76  0. 1.0000     0. 
   0   2   1    326.20   16.30  0. 1.0000     0. 
   0   2   1    314.19   14.76  0. 1.0000     0. 
   1  -2   1      6.07    0.95  0. 1.0000     0. 
  -1  -2  -1      7.17    1.07  0. 1.0000     0. 
   1  -2   1      7.40    1.69  0. 1.0000     0. 
   1   2   1      7.32    1.07  0. 1.0000     0. 
   1   2   1      6.80    1.12  0. 1.0000     0. 
  -1   2  -1      8.60    1.15  0. 1.0000     0. 
  -1   2  -1      6.80    1.25  0. 1.0000     0. 
  -1   2  -1      7.16    1.46  0. 1.0000     0. 
   1   2   1      7.55    1.49  0. 1.0000     0. 
   2  -2   1   1935.29   98.04  0. 1.0000     0. 
  -4   3   1     55.10    3.86  0. 1.0000     0. 
   3  -3  -1      8.33    2.30  0. 1.0000     0. 
   3   3  -1      3.77    1.65  0. 1.0000     0. 
  -3   3   1      5.07    1.55  0. 1.0000     0. 
   3   3  -1      5.19    1.34  0. 1.0000     0. 
  -3   3   1      4.82    1.62  0. 1.0000     0. 
  -1  -3   1    364.09   16.67  0. 1.0000     0. 
   1  -3  -1    357.23   19.34  0. 1.0000     0. 
   1   3  -1    383.07   16.88  0. 1.0000     0. 
  -1   3   1    348.58   19.66  0. 1.0000     0. 
  -1   3   1    377.41   16.75  0. 1.0000     0. 
  -1   3   1    363.65   17.08  0. 1.0000     0. 
   1   3  -1    340.29   17.76  0. 1.0000     0. 
   1   3  -1    364.65   17.30  0. 1.0000     0. 
   0  -3  -1     40.32    3.90  0. 1.0000     0. 
   0  -3  -1     45.50    3.66  0. 1.0000     0. 
   0  -3   1     41.22    3.96  0. 1.0000     0. 
   0  -3  -1     40.56    2.82  0. 1.0000     0. 
   0   3  -1     33.05    2.93  0. 1.0000     0. 
   0   3   1     34.01    3.55  0. 1.0000     0. 
   0   3  -1     36.70    3.26  0. 1.0000     0. 
   0   3   1     40.66    3.02  0. 1.0000     0. 
   1  -3   1     39.64    4.52  0. 1.0000     0. 
  -1  -3  -1     41.98    2.92  0. 1.0000     0. 
  -1  -3  -1     42.21    4.06  0. 1.0000     0. 
   1   3   1     40.33    3.25  0. 1.0000     0. 
   1   3   1     35.28    3.29  0. 1.0000     0. 
  -1   3  -1     44.91    3.73  0. 1.0000     0. 
   1   3   1     43.17    2.98  0. 1.0000     0. 
   1   3   1     41.18    4.23  0. 1.0000     0. 
   3   3   1    536.56   25.10  0. 1.0000     0. 
  -3   3  -1    557.47   27.14  0. 1.0000     0. 
   4   4  -1      0.16    2.41  0. 1.0000     0. 
   2   4  -1     33.29    3.37  0. 1.0000     0. 
  -1  -4   1      2.74    1.04  0. 1.0000     0. 
   1   4  -1      1.28    1.65  0. 1.0000     0. 
   0   4  -1    190.61   10.03  0. 1.0000     0. 
   1  -4   1     44.09    3.41  0. 1.0000     0. 
  -1   4  -1     44.10    3.94  0. 1.0000     0. 
  -1  -1   2    110.11    5.58  0. 1.0000     0. 
  -1   1   2    113.81    5.57  0. 1.0000     0. 
  -1   1   2    108.83    5.61  0. 1.0000     0. 
   0   1  -2   1850.24   79.82  0. 1.0000     0. 
   0   1  -2   1859.82   86.73  0. 1.0000     0. 
   0   1   2   1805.60   77.81  0. 1.0000     0. 
   0   1  -2   1777.21   78.36  0. 1.0000     0. 
   0   1   2   1753.51   79.27  0. 1.0000     0. 
  -3   2   2   1126.79   54.88  0. 1.0000     0. 
  -2  -2   2      2.07    0.83  0. 1.0000     0. 
  -2   2   2      2.36    0.83  0. 1.0000     0. 
  -2   2   2      3.29    1.17  0. 1.0000     0. 
   2   2  -2      1.40    0.83  0. 1.0000     0. 
   2   2  -2      1.74    0.89  0. 1.0000     0. 
   2   2  -2      1.71    1.00  0. 1.0000     0. 
  -2   2   2      1.93    0.91  0. 1.0000     0. 
  -1   2   2    243.42   11.29  0. 1.0000     0. 
   1   2  -2    239.32   11.78  0. 1.0000     0. 
  -1   2   2    240.53   13.01  0. 1.0000     0. 
   1   2  -2    248.13   11.23  0. 1.0000     0. 
   0  -2   2    727.20   35.53  0. 1.0000     0. 
   0  -2   2    697.16   37.69  0. 1.0000     0. 
   0  -2  -2    738.12   31.69  0. 1.0000     0. 
   0  -2   2    616.68   35.39  0. 1.0000     0. 
   0   2  -2    745.10   31.89  0. 1.0000     0. 
   0   2  -2    705.23   32.69  0. 1.0000     0. 
   0   2   2    761.59   31.07  0. 1.0000     0. 
  -1   2  -2    305.49   14.17  0. 1.0000     0. 
  -1   2  -2    277.23   14.93  0. 1.0000     0. 
   1   2   2    290.47   14.10  0. 1.0000     0. 
  -1   2  -2    314.10   13.65  0. 1.0000     0. 
   2  -2   2   2083.95  105.92  0. 1.0000     0. 
  -2  -2  -2   2090.89   90.14  0. 1.0000     0. 
   2   2   2   2074.34   92.51  0. 1.0000     0. 
  -4   3   2     22.76    2.31  0. 1.0000     0. 
   3  -3  -2     33.55    3.18  0. 1.0000     0. 
  -3   3   2     22.81    2.48  0. 1.0000     0. 
   3   3  -2     23.84    2.65  0. 1.0000     0. 
   3   3  -2     19.45    2.31  0. 1.0000     0. 
  -3   3   2     23.70    2.39  0. 1.0000     0. 
   1  -3  -2      3.80    1.07  0. 1.0000     0. 
  -1  -3   2      5.44    1.42  0. 1.0000     0. 
  -1  -3   2      4.81    1.12  0. 1.0000     0. 
   1  -3  -2      9.23    1.49  0. 1.0000     0. 
  -1  -3   2      7.15    1.38  0. 1.0000     0. 
   1  -3  -2      7.62    1.68  0. 1.0000     0. 
   1  -3  -2     12.13    2.32  0. 1.0000     0. 
   1   3  -2      5.01    1.63  0. 1.0000     0. 
  -1   3   2      6.25    1.68  0. 1.0000     0. 
   1   3  -2      5.76    1.68  0. 1.0000     0. 
  -1   3   2      7.68    1.48  0. 1.0000     0. 
  -1   3   2      8.42    2.04  0. 1.0000     0. 
  -1   3   2      6.64    1.75  0. 1.0000     0. 
   0  -3   2     -0.30    0.84  0. 1.0000     0. 
   0  -3   2      0.13    0.96  0. 1.0000     0. 
   0  -3   2     -0.26    1.00  0. 1.0000     0. 
   0  -3  -2      0.36    1.24  0. 1.0000     0. 
   0  -3   2      0.14    1.61  0. 1.0000     0. 
   0  -3  -2      0.52    1.48  0. 1.0000     0. 
   0  -3  -2      0.25    1.14  0. 1.0000     0. 
   0  -3  -2     -0.13    0.87  0. 1.0000     0. 
   0   3   2      0.29    1.21  0. 1.0000     0. 
   0   3  -2      0.31    1.66  0. 1.0000     0. 
   0   3   2      0.08    1.29  0. 1.0000     0. 
   0   3   2      0.14    1.42  0. 1.0000     0. 
   0   3   2      0.66    1.01  0. 1.0000     0. 
   0   3  -2      0.21    1.30  0. 1.0000     0. 
  -1  -3  -2    719.71   32.05  0. 1.0000     0. 
   1   3   2    704.64   32.52  0. 1.0000     0. 
   2  -3   2     59.23    6.15  0. 1.0000     0. 
   2   3   2     62.88    4.28  0. 1.0000     0. 
  -2   3  -2     63.13    4.72  0. 1.0000     0. 
   2   3   2     71.46    5.84  0. 1.0000     0. 
   3   3   2     95.92    5.23  0. 1.0000     0. 
  -3   3  -2     93.49    5.55  0. 1.0000     0. 
   4   4  -2     13.40    3.20  0. 1.0000     0. 
  -4   4   2      8.26    1.83  0. 1.0000     0. 
   2  -4  -2     15.61    2.30  0. 1.0000     0. 
   2  -4  -2     14.68    2.03  0. 1.0000     0. 
   2   4  -2     16.69    2.62  0. 1.0000     0. 
   1  -4  -2      2.96    1.53  0. 1.0000     0. 
  -1  -4   2      3.38    2.29  0. 1.0000     0. 
   1   4  -2      3.59    2.13  0. 1.0000     0. 
  -1   4   2      3.43    1.80  0. 1.0000     0. 
   0  -4  -2      0.92    1.57  0. 1.0000     0. 
   0  -4   2     -0.49    2.63  0. 1.0000     0. 
   0   4   2     -0.10    1.52  0. 1.0000     0. 
   0   4  -2      0.27    2.08  0. 1.0000     0. 
   1  -4   2      2.11    2.54  0. 1.0000     0. 
  -1  -4  -2      2.11    1.47  0. 1.0000     0. 
  -1  -4  -2      1.78    1.68  0. 1.0000     0. 
  -1   4  -2      1.12    2.16  0. 1.0000     0. 
   1   4   2      1.57    1.89  0. 1.0000     0. 
   2  -4   2     29.27    4.43  0. 1.0000     0. 
   3  -4   2      6.97    1.36  0. 1.0000     0. 
   3  -4   2      0.95    2.18  0. 1.0000     0. 
  -3   4  -2      9.73    1.99  0. 1.0000     0. 
   3   4   2     12.28    2.65  0. 1.0000     0. 
  -4   4  -2      6.83    1.62  0. 1.0000     0. 
  -1   0   3      0.03    0.15  0. 1.0000     0. 
  -1   0   3      0.06    0.12  0. 1.0000     0. 
   1   0  -3     -0.07    0.17  0. 1.0000     0. 
  -1   0   3      0.01    0.12  0. 1.0000     0. 
   1   0  -3     -0.01    0.16  0. 1.0000     0. 
   1   0  -3      0.03    0.17  0. 1.0000     0. 
   0   0  -3      0.03    0.29  0. 1.0000     0. 
   0   0  -3     -0.03    0.18  0. 1.0000     0. 
   0   0   3      0.02    0.17  0. 1.0000     0. 
   0   0   3      0.03    0.20  0. 1.0000     0. 
   0   0  -3      0.08    0.17  0. 1.0000     0. 
   0   0   3      0.02    0.15  0. 1.0000     0. 
  -2   1   3    410.87   18.51  0. 1.0000     0. 
  -1   1   3    618.63   26.70  0. 1.0000     0. 
   1   1  -3    605.36   27.67  0. 1.0000     0. 
   0   1  -3    270.23   12.58  0. 1.0000     0. 
  -1   1  -3   1383.06   61.03  0. 1.0000     0. 
  -3  -2   3    345.28   17.74  0. 1.0000     0. 
  -3   2   3    355.91   17.75  0. 1.0000     0. 
   1  -2  -3     93.69    5.70  0. 1.0000     0. 
   1   2  -3     92.02    5.49  0. 1.0000     0. 
  -1   2   3     96.15    4.82  0. 1.0000     0. 
  -1   2   3     94.59    5.68  0. 1.0000     0. 
   1   2  -3     93.90    5.36  0. 1.0000     0. 
   0  -2  -3    581.89   29.30  0. 1.0000     0. 
   0  -2   3    574.44   27.93  0. 1.0000     0. 
   0  -2  -3    587.90   25.06  0. 1.0000     0. 
   0   2   3    559.34   25.54  0. 1.0000     0. 
   0   2   3    537.07   25.61  0. 1.0000     0. 
   0   2  -3    566.47   25.41  0. 1.0000     0. 
   0   2  -3    546.98   26.15  0. 1.0000     0. 
   0   2   3    573.16   28.49  0. 1.0000     0. 
   0   2  -3    561.05   25.11  0. 1.0000     0. 
  -2  -2  -3    200.52    9.80  0. 1.0000     0. 
  -2   2  -3    201.92   10.52  0. 1.0000     0. 
   2   2   3    206.32   10.00  0. 1.0000     0. 
   4   3  -3      5.95    2.14  0. 1.0000     0. 
  -4   3   3     11.39    1.93  0. 1.0000     0. 
   3  -3  -3    465.30   24.80  0. 1.0000     0. 
   3   3  -3    495.07   22.77  0. 1.0000     0. 
   0  -3  -3    331.77   15.75  0. 1.0000     0. 
   2  -3   3     17.39    3.36  0. 1.0000     0. 
   2   3   3     24.36    2.30  0. 1.0000     0. 
  -2   3  -3     16.28    2.72  0. 1.0000     0. 
  -2   3  -3     22.37    2.78  0. 1.0000     0. 
   2   3   3     13.76    2.92  0. 1.0000     0. 
  -5   4   3      2.07    1.44  0. 1.0000     0. 
   4   4  -3    478.28   22.78  0. 1.0000     0. 
  -2  -4   3     15.05    2.06  0. 1.0000     0. 
   2  -4  -3     19.57    2.23  0. 1.0000     0. 
   2   4  -3     12.01    2.18  0. 1.0000     0. 
  -2   4   3     18.09    3.51  0. 1.0000     0. 
   2   4  -3     15.27    2.82  0. 1.0000     0. 
  -1  -4   3    103.77    8.74  0. 1.0000     0. 
   1  -4  -3    105.75    6.37  0. 1.0000     0. 
   1   4  -3    104.44    7.18  0. 1.0000     0. 
  -1   4   3    106.45    7.73  0. 1.0000     0. 
   0  -4  -3      8.93    1.92  0. 1.0000     0. 
   0  -4   3      6.68    3.55  0. 1.0000     0. 
   0   4  -3      7.19    2.73  0. 1.0000     0. 
   0   4   3      3.04    2.14  0. 1.0000     0. 
   1  -4   3     33.14    4.89  0. 1.0000     0. 
   1  -4   3     23.71    2.53  0. 1.0000     0. 
  -1  -4  -3     38.99    3.21  0. 1.0000     0. 
  -1   4  -3     34.14    3.68  0. 1.0000     0. 
  -1   4  -3     34.15    3.98  0. 1.0000     0. 
   3  -4   3      5.49    2.66  0. 1.0000     0. 
   3  -4   3      6.14    1.26  0. 1.0000     0. 
   3   4   3     12.52    2.63  0. 1.0000     0. 
  -3   4  -3      6.93    1.67  0. 1.0000     0. 
  -4   4  -3     38.52    3.16  0. 1.0000     0. 
   1   0  -4   3237.99  140.30  0. 1.0000     0. 
  -1   0   4   3296.93  139.50  0. 1.0000     0. 
  -1   0   4   3179.76  154.48  0. 1.0000     0. 
   0   0   4   2654.34  114.46  0. 1.0000     0. 
   0   0  -4   2607.24  115.45  0. 1.0000     0. 
   0   0   4   2699.39  127.57  0. 1.0000     0. 
   2   1  -4    100.16    5.08  0. 1.0000     0. 
   0   1  -4   1258.99   55.32  0. 1.0000     0. 
  -1   1  -4    242.65   11.79  0. 1.0000     0. 
  -4   2   4     93.79    6.10  0. 1.0000     0. 
   3  -2  -4    848.86   43.77  0. 1.0000     0. 
  -3   2   4    887.00   43.16  0. 1.0000     0. 
   3   2  -4    876.24   39.27  0. 1.0000     0. 
   3   2  -4    888.58   39.59  0. 1.0000     0. 
  -2  -2   4     55.27    3.26  0. 1.0000     0. 
   2  -2  -4     50.15    3.51  0. 1.0000     0. 
   2   2  -4     52.96    2.79  0. 1.0000     0. 
   2   2  -4     49.42    3.45  0. 1.0000     0. 
  -2   2   4     50.32    3.18  0. 1.0000     0. 
   0  -2  -4     36.39    3.75  0. 1.0000     0. 
   0  -2   4     43.45    2.85  0. 1.0000     0. 
   0   2   4     43.58    2.99  0. 1.0000     0. 
   0   2   4     41.28    2.54  0. 1.0000     0. 
   0   2  -4     38.49    2.40  0. 1.0000     0. 
   0   2  -4     40.22    3.17  0. 1.0000     0. 
   1  -2   4    209.81   13.52  0. 1.0000     0. 
  -1   2  -4    223.61   11.05  0. 1.0000     0. 
   1   2   4    221.92   10.64  0. 1.0000     0. 
  -2  -2  -4    272.22   13.12  0. 1.0000     0. 
  -2   2  -4    283.14   13.61  0. 1.0000     0. 
   3  -3  -4     -0.55    1.18  0. 1.0000     0. 
  -3  -3   4      0.11    1.35  0. 1.0000     0. 
  -3   3   4      0.47    1.15  0. 1.0000     0. 
  -3   3   4      0.10    1.58  0. 1.0000     0. 
   3   3  -4     -0.44    1.33  0. 1.0000     0. 
   3   3  -4     -0.13    2.15  0. 1.0000     0. 
   2  -3  -4    110.69    7.16  0. 1.0000     0. 
   2   3  -4    119.80    6.73  0. 1.0000     0. 
   2   3  -4    114.29    6.72  0. 1.0000     0. 
  -1   3   4     22.65    2.52  0. 1.0000     0. 
   0   3  -4     82.88    5.47  0. 1.0000     0. 
   0   3  -4     72.38    5.56  0. 1.0000     0. 
   0   3   4     81.41    5.25  0. 1.0000     0. 
  -1  -3  -4     12.24    1.74  0. 1.0000     0. 
   1  -3   4     12.66    3.06  0. 1.0000     0. 
   1  -3   4     11.80    1.58  0. 1.0000     0. 
  -1   3  -4      9.79    2.22  0. 1.0000     0. 
   1   3   4      9.91    2.14  0. 1.0000     0. 
   1   3   4     11.45    2.54  0. 1.0000     0. 
  -1   3  -4     14.21    2.46  0. 1.0000     0. 
  -2  -3  -4      0.84    1.03  0. 1.0000     0. 
   2  -3   4     -0.17    1.79  0. 1.0000     0. 
   2   3   4      0.09    1.33  0. 1.0000     0. 
  -2   3  -4      0.95    2.04  0. 1.0000     0. 
   2   3   4     -0.22    1.59  0. 1.0000     0. 
  -2   3  -4      0.81    1.69  0. 1.0000     0. 
  -5   4   4      7.63    2.06  0. 1.0000     0. 
   4  -4  -4     17.49    3.37  0. 1.0000     0. 
  -4   4   4      7.64    2.25  0. 1.0000     0. 
   4   4  -4     11.31    3.00  0. 1.0000     0. 
   3   4  -4      2.78    2.00  0. 1.0000     0. 
   2  -4  -4      1.69    1.54  0. 1.0000     0. 
   1  -4  -4      0.10    1.45  0. 1.0000     0. 
   1  -4  -4     -1.06    1.57  0. 1.0000     0. 
  -1  -4   4     -0.20    2.60  0. 1.0000     0. 
  -1  -4   4      1.16    1.25  0. 1.0000     0. 
   1   4  -4     -0.70    2.16  0. 1.0000     0. 
  -1   4   4      1.65    2.00  0. 1.0000     0. 
  -1   4   4      0.20    2.15  0. 1.0000     0. 
   1   4  -4     -0.25    1.76  0. 1.0000     0. 
   0  -4  -4      5.27    1.87  0. 1.0000     0. 
   0  -4  -4      6.13    2.00  0. 1.0000     0. 
   0  -4   4      6.84    1.65  0. 1.0000     0. 
   0  -4   4      8.34    3.89  0. 1.0000     0. 
   0   4   4      6.03    2.17  0. 1.0000     0. 
   0   4  -4      6.13    2.53  0. 1.0000     0. 
   0   4  -4      6.28    2.38  0. 1.0000     0. 
   0   4   4      6.75    2.33  0. 1.0000     0. 
   2  -4   4     -0.43    2.18  0. 1.0000     0. 
   2  -4   4      0.10    1.10  0. 1.0000     0. 
  -2  -4  -4      0.30    2.02  0. 1.0000     0. 
  -2  -4  -4      0.83    1.31  0. 1.0000     0. 
  -2   4  -4      1.32    2.26  0. 1.0000     0. 
   2   4   4      0.23    1.89  0. 1.0000     0. 
  -2   4  -4      0.14    1.60  0. 1.0000     0. 
  -3   4  -4     25.51    2.89  0. 1.0000     0. 
   3   4   4     30.35    3.50  0. 1.0000     0. 
  -4   4  -4      0.20    1.20  0. 1.0000     0. 
   2   0  -5      0.11    0.44  0. 1.0000     0. 
  -2   0   5      0.27    0.36  0. 1.0000     0. 
   1   0  -5      0.20    0.34  0. 1.0000     0. 
  -1   0   5      0.13    0.24  0. 1.0000     0. 
   1   0  -5     -0.07    0.30  0. 1.0000     0. 
  -1   0   5     -0.06    0.27  0. 1.0000     0. 
   1   0  -5      0.09    0.39  0. 1.0000     0. 
  -1   0   5      0.04    0.31  0. 1.0000     0. 
   0   0   5     -0.04    0.39  0. 1.0000     0. 
   0   0   5      0.12    0.39  0. 1.0000     0. 
   0   0   5      0.06    0.29  0. 1.0000     0. 
   0   0  -5      0.05    0.53  0. 1.0000     0. 
   0   0  -5      0.13    0.29  0. 1.0000     0. 
   3   1  -5   2009.30   88.56  0. 1.0000     0. 
  -3   1   5   2007.19   97.25  0. 1.0000     0. 
  -2   1   5    366.53   18.25  0. 1.0000     0. 
  -1  -1  -5    454.24   20.28  0. 1.0000     0. 
  -1   1  -5    453.35   21.09  0. 1.0000     0. 
  -4   2   5    692.82   34.84  0. 1.0000     0. 
   3  -2  -5     47.94    3.68  0. 1.0000     0. 
  -3  -2   5     49.69    3.38  0. 1.0000     0. 
  -3   2   5     48.34    3.52  0. 1.0000     0. 
   3   2  -5     48.61    3.77  0. 1.0000     0. 
   3   2  -5     53.38    3.53  0. 1.0000     0. 
   2  -2  -5    577.93   31.07  0. 1.0000     0. 
  -2  -2   5    629.91   28.96  0. 1.0000     0. 
  -2   2   5    594.98   27.02  0. 1.0000     0. 
   2   2  -5    617.82   26.28  0. 1.0000     0. 
   2   2  -5    597.29   27.20  0. 1.0000     0. 
  -2   2   5    611.98   30.08  0. 1.0000     0. 
  -2   2   5    624.95   26.22  0. 1.0000     0. 
   2   2  -5    529.54   27.69  0. 1.0000     0. 
   1  -2  -5    137.72    7.26  0. 1.0000     0. 
   1  -2  -5    156.16    8.60  0. 1.0000     0. 
  -1  -2   5    136.53    7.45  0. 1.0000     0. 
  -1   2   5    145.88    6.71  0. 1.0000     0. 
  -1   2   5    145.93    7.71  0. 1.0000     0. 
  -1   2   5    137.35    7.06  0. 1.0000     0. 
   1   2  -5    154.68    6.67  0. 1.0000     0. 
   1   2  -5    150.75    7.58  0. 1.0000     0. 
   0  -2  -5    354.34   16.49  0. 1.0000     0. 
   0  -2   5    362.45   17.50  0. 1.0000     0. 
   0  -2   5    327.46   20.08  0. 1.0000     0. 
   0   2   5    358.18   16.08  0. 1.0000     0. 
   0   2  -5    357.88   17.07  0. 1.0000     0. 
   0   2  -5    366.39   17.31  0. 1.0000     0. 
   0   2   5    359.65   16.96  0. 1.0000     0. 
  -1  -2  -5     25.01    1.99  0. 1.0000     0. 
   1   2   5     19.42    2.76  0. 1.0000     0. 
  -1   2  -5     20.66    2.68  0. 1.0000     0. 
  -1   2  -5     21.38    2.41  0. 1.0000     0. 
  -1   2  -5     21.87    1.58  0. 1.0000     0. 
   1   2   5     23.86    2.16  0. 1.0000     0. 
   2  -2   5     78.76    6.79  0. 1.0000     0. 
  -2  -2  -5     85.85    4.62  0. 1.0000     0. 
  -2   2  -5     76.82    5.10  0. 1.0000     0. 
   3  -3  -5    336.20   17.97  0. 1.0000     0. 
   3   3  -5    331.61   16.85  0. 1.0000     0. 
  -3   3   5    335.51   17.94  0. 1.0000     0. 
   2  -3  -5    532.61   26.10  0. 1.0000     0. 
  -2  -3   5    519.65   24.65  0. 1.0000     0. 
   2   3  -5    481.38   24.35  0. 1.0000     0. 
  -2   3   5    474.78   23.69  0. 1.0000     0. 
   1  -3  -5    365.85   19.09  0. 1.0000     0. 
  -1   3   5    347.41   19.41  0. 1.0000     0. 
  -1   3   5    355.54   17.20  0. 1.0000     0. 
   1   3  -5    359.25   17.53  0. 1.0000     0. 
   0  -3  -5      1.01    1.22  0. 1.0000     0. 
   0  -3   5      1.70    1.29  0. 1.0000     0. 
   0  -3  -5      2.37    1.83  0. 1.0000     0. 
   0  -3   5      0.17    1.92  0. 1.0000     0. 
   0   3  -5      2.95    1.77  0. 1.0000     0. 
   0   3   5      2.79    1.66  0. 1.0000     0. 
   0   3  -5      1.55    1.66  0. 1.0000     0. 
   0   3   5      1.37    1.74  0. 1.0000     0. 
   1  -3   5     24.52    3.85  0. 1.0000     0. 
   1   3   5     33.11    3.82  0. 1.0000     0. 
   1   3   5     31.75    3.16  0. 1.0000     0. 
  -1   3  -5     27.10    3.21  0. 1.0000     0. 
  -1   3  -5     24.28    3.25  0. 1.0000     0. 
  -2  -3  -5    797.33   35.63  0. 1.0000     0. 
  -2   3  -5    781.24   36.37  0. 1.0000     0. 
  -2   3  -5    790.65   36.73  0. 1.0000     0. 
  -3   3  -5     11.36    2.31  0. 1.0000     0. 
  -5   4   5     15.23    2.67  0. 1.0000     0. 
  -4  -4   5      6.59    2.26  0. 1.0000     0. 
   4  -4  -5      6.07    2.77  0. 1.0000     0. 
   4   4  -5      7.36    2.75  0. 1.0000     0. 
  -4   4   5      8.79    2.41  0. 1.0000     0. 
  -4   4   5      7.52    3.30  0. 1.0000     0. 
   3  -4  -5    115.83    7.48  0. 1.0000     0. 
  -3  -4   5    117.27    7.25  0. 1.0000     0. 
   3   4  -5    110.11    6.95  0. 1.0000     0. 
   3   4  -5    103.26    7.54  0. 1.0000     0. 
  -1   4  -5    281.85   15.25  0. 1.0000     0. 
   1   4   5    307.08   15.47  0. 1.0000     0. 
  -1   4  -5    291.54   15.71  0. 1.0000     0. 
   2  -4   5      4.40    1.28  0. 1.0000     0. 
  -2  -4  -5      7.07    2.34  0. 1.0000     0. 
   2  -4   5      6.67    2.65  0. 1.0000     0. 
  -2  -4  -5      7.98    1.80  0. 1.0000     0. 
  -2   4  -5      6.35    2.01  0. 1.0000     0. 
  -2   4  -5      8.72    2.98  0. 1.0000     0. 
   2   4   5      8.60    2.44  0. 1.0000     0. 
   3  -4   5    109.92   10.89  0. 1.0000     0. 
  -3   4  -5    134.14    7.28  0. 1.0000     0. 
   4   5  -5     -0.48    2.38  0. 1.0000     0. 
  -3  -5   5     43.60    6.57  0. 1.0000     0. 
   3   5  -5     45.74    4.15  0. 1.0000     0. 
   3   5  -5     32.85    4.40  0. 1.0000     0. 
  -2  -5   5     14.99    3.97  0. 1.0000     0. 
  -2  -5   5      9.04    2.20  0. 1.0000     0. 
   2   5  -5     11.26    2.46  0. 1.0000     0. 
   2   5  -5     11.86    3.14  0. 1.0000     0. 
  -1  -5   5     19.88    4.88  0. 1.0000     0. 
  -1  -5   5     16.77    2.09  0. 1.0000     0. 
   1   5  -5     23.80    3.75  0. 1.0000     0. 
   1   5  -5     20.05    2.90  0. 1.0000     0. 
   0  -5   5      1.08    2.63  0. 1.0000     0. 
   0  -5   5      1.67    1.55  0. 1.0000     0. 
   0  -5  -5      0.79    1.76  0. 1.0000     0. 
   0   5  -5     -0.89    2.86  0. 1.0000     0. 
   0   5  -5      2.40    2.37  0. 1.0000     0. 
   1  -5   5      0.25    2.52  0. 1.0000     0. 
  -1  -5  -5      0.63    1.57  0. 1.0000     0. 
   1  -5   5      2.55    1.40  0. 1.0000     0. 
  -1   5  -5      1.34    2.93  0. 1.0000     0. 
  -1   5  -5      1.53    2.27  0. 1.0000     0. 
   2  -5   5     31.62    2.68  0. 1.0000     0. 
   2  -5   5     31.56    6.02  0. 1.0000     0. 
  -2   5  -5     35.27    4.56  0. 1.0000     0. 
  -2   5  -5     25.79    3.38  0. 1.0000     0. 
   3  -5   5      0.35    1.10  0. 1.0000     0. 
   3  -5   5     -0.42    1.45  0. 1.0000     0. 
  -3   5  -5      0.37    1.73  0. 1.0000     0. 
  -1   0   6    126.19    6.52  0. 1.0000     0. 
  -1   0   6    128.10    6.17  0. 1.0000     0. 
   1   0  -6    127.02    6.07  0. 1.0000     0. 
   1   0  -6    122.98    6.88  0. 1.0000     0. 
   0   0  -6    196.29    8.85  0. 1.0000     0. 
   0   0  -6    174.13    8.96  0. 1.0000     0. 
   0   0   6    197.48    8.43  0. 1.0000     0. 
   3   1  -6   1936.06   85.61  0. 1.0000     0. 
  -3   1   6   1978.95   84.49  0. 1.0000     0. 
   3   1  -6   1882.02   84.20  0. 1.0000     0. 
  -2  -1   6      1.14    0.55  0. 1.0000     0. 
   2  -1  -6      0.96    0.69  0. 1.0000     0. 
  -2   1   6      1.67    0.83  0. 1.0000     0. 
  -2   1   6      1.01    0.56  0. 1.0000     0. 
   2   1  -6      0.92    0.78  0. 1.0000     0. 
   2   1  -6      0.35    0.70  0. 1.0000     0. 
   1  -1  -6      7.70    1.20  0. 1.0000     0. 
  -1   1   6      9.53    1.21  0. 1.0000     0. 
   0  -1  -6   1554.46   67.22  0. 1.0000     0. 
   0   1  -6   1554.85   69.13  0. 1.0000     0. 
   0   1   6   1542.89   76.05  0. 1.0000     0. 
   1  -1   6      0.22    0.98  0. 1.0000     0. 
  -1  -1  -6      0.05    0.57  0. 1.0000     0. 
   1   1   6      0.14    0.82  0. 1.0000     0. 
  -1   1  -6     -0.22    0.90  0. 1.0000     0. 
  -1   1  -6     -0.55    1.32  0. 1.0000     0. 
   1   1   6     -0.05    0.59  0. 1.0000     0. 
   3  -2  -6    919.72   45.25  0. 1.0000     0. 
  -3   2   6    887.27   41.66  0. 1.0000     0. 
  -3   2   6    914.29   44.54  0. 1.0000     0. 
  -2  -2   6    339.22   16.93  0. 1.0000     0. 
  -2   2   6    345.58   17.86  0. 1.0000     0. 
   2   2  -6    335.58   16.30  0. 1.0000     0. 
   1  -2  -6    421.42   19.75  0. 1.0000     0. 
  -1   2   6    424.50   19.52  0. 1.0000     0. 
   0  -2  -6   1248.90   54.47  0. 1.0000     0. 
   0   2  -6   1223.57   55.93  0. 1.0000     0. 
   0   2   6   1245.56   54.65  0. 1.0000     0. 
  -1  -2  -6    273.20   13.33  0. 1.0000     0. 
   1   2   6    279.13   13.34  0. 1.0000     0. 
  -5   3   6     14.86    3.10  0. 1.0000     0. 
  -4  -3   6    197.96   10.92  0. 1.0000     0. 
   4  -3  -6    196.52   11.72  0. 1.0000     0. 
   3  -3  -6    226.64   12.86  0. 1.0000     0. 
   2  -3  -6    174.66   10.38  0. 1.0000     0. 
   2   3  -6    194.41    9.27  0. 1.0000     0. 
  -2   3   6    156.46   10.15  0. 1.0000     0. 
   2   3  -6    159.22    9.46  0. 1.0000     0. 
  -1  -3   6    125.77    6.97  0. 1.0000     0. 
   1   3  -6    121.58    7.39  0. 1.0000     0. 
  -1   3   6    116.70    7.24  0. 1.0000     0. 
  -1   3   6    111.33    8.19  0. 1.0000     0. 
   1   3  -6    124.30    7.13  0. 1.0000     0. 
   0  -3   6     20.65    3.92  0. 1.0000     0. 
   0  -3   6     18.56    2.04  0. 1.0000     0. 
   0  -3  -6     19.18    2.07  0. 1.0000     0. 
   0  -3  -6     15.11    2.56  0. 1.0000     0. 
   0   3   6     21.12    2.89  0. 1.0000     0. 
   0   3   6     15.96    2.63  0. 1.0000     0. 
   0   3  -6     18.30    2.88  0. 1.0000     0. 
   0   3  -6     17.20    2.75  0. 1.0000     0. 
   1  -3   6    212.15   11.75  0. 1.0000     0. 
   1   3   6    226.29   13.99  0. 1.0000     0. 
   1   3   6    224.93   12.00  0. 1.0000     0. 
  -1   3  -6    239.81   12.14  0. 1.0000     0. 
  -1   3  -6    220.84   12.45  0. 1.0000     0. 
   2   3   6     92.56    6.18  0. 1.0000     0. 
  -2   3  -6    102.62    6.65  0. 1.0000     0. 
   3  -3   6     16.10    4.01  0. 1.0000     0. 
  -5   4   6      8.12    2.36  0. 1.0000     0. 
  -4  -4   6     28.07    3.28  0. 1.0000     0. 
   4  -4  -6     28.82    3.65  0. 1.0000     0. 
  -4   4   6     25.32    3.35  0. 1.0000     0. 
   4   4  -6     24.34    3.74  0. 1.0000     0. 
  -4   4   6     22.87    4.33  0. 1.0000     0. 
  -3  -4   6      1.59    1.77  0. 1.0000     0. 
   3  -4  -6      0.59    1.80  0. 1.0000     0. 
  -3   4   6      0.77    1.99  0. 1.0000     0. 
   3   4  -6      1.04    2.05  0. 1.0000     0. 
   3   4  -6      0.13    1.72  0. 1.0000     0. 
  -3   4   6      2.69    1.90  0. 1.0000     0. 
   2  -4  -6      0.12    1.57  0. 1.0000     0. 
  -2  -4   6      0.70    3.20  0. 1.0000     0. 
   2  -4  -6     -0.11    1.27  0. 1.0000     0. 
  -2  -4   6     -0.33    1.16  0. 1.0000     0. 
   2   4  -6      0.13    1.76  0. 1.0000     0. 
  -2   4   6     -1.22    1.94  0. 1.0000     0. 
  -2   4   6     -0.36    1.75  0. 1.0000     0. 
   2   4  -6     -0.76    2.01  0. 1.0000     0. 
   1  -4  -6     20.79    2.93  0. 1.0000     0. 
   1  -4  -6     20.18    2.32  0. 1.0000     0. 
  -1  -4   6     16.44    2.40  0. 1.0000     0. 
  -1  -4   6     21.22    4.45  0. 1.0000     0. 
  -1   4   6     20.59    3.15  0. 1.0000     0. 
   1   4  -6     17.45    2.94  0. 1.0000     0. 
  -1   4   6     25.14    3.50  0. 1.0000     0. 
   1   4  -6     14.43    3.06  0. 1.0000     0. 
   0  -4  -6      3.81    2.24  0. 1.0000     0. 
   0  -4  -6      3.23    1.76  0. 1.0000     0. 
   0  -4   6      1.67    3.08  0. 1.0000     0. 
   0  -4   6      2.59    1.57  0. 1.0000     0. 
   0   4  -6      1.64    2.24  0. 1.0000     0. 
   0   4   6      2.67    2.11  0. 1.0000     0. 
   0   4  -6      1.49    2.27  0. 1.0000     0. 
   0   4   6      2.91    2.35  0. 1.0000     0. 
   1  -4   6      7.09    1.67  0. 1.0000     0. 
  -1  -4  -6      7.82    2.40  0. 1.0000     0. 
   1  -4   6     10.69    3.34  0. 1.0000     0. 
  -1  -4  -6     10.50    2.25  0. 1.0000     0. 
   1   4   6      7.63    3.25  0. 1.0000     0. 
  -1   4  -6      9.50    2.36  0. 1.0000     0. 
  -1   4  -6     11.89    2.78  0. 1.0000     0. 
   1   4   6      6.84    2.60  0. 1.0000     0. 
  -2  -4  -6      9.71    1.97  0. 1.0000     0. 
   2  -4   6      9.33    3.20  0. 1.0000     0. 
   2  -4   6      7.67    1.54  0. 1.0000     0. 
  -2  -4  -6      9.00    2.46  0. 1.0000     0. 
   2   4   6      9.43    2.44  0. 1.0000     0. 
  -2   4  -6     10.85    3.19  0. 1.0000     0. 
  -2   4  -6     10.12    2.41  0. 1.0000     0. 
   3  -4   6     -0.33    1.63  0. 1.0000     0. 
  -3   4  -6      0.97    1.49  0. 1.0000     0. 
   3   4   6      0.88    1.95  0. 1.0000     0. 
  -5   5   6     20.49    2.94  0. 1.0000     0. 
   4  -5  -6      1.44    1.42  0. 1.0000     0. 
   4  -5  -6      9.72    3.40  0. 1.0000     0. 
  -4  -5   6      4.38    1.99  0. 1.0000     0. 
   4   5  -6      3.03    2.68  0. 1.0000     0. 
  -4   5   6      4.03    2.62  0. 1.0000     0. 
   3  -5  -6     36.73    3.73  0. 1.0000     0. 
  -3  -5   6     36.25    3.07  0. 1.0000     0. 
  -3  -5   6     34.07    5.51  0. 1.0000     0. 
   3  -5  -6     24.87    2.78  0. 1.0000     0. 
  -3   5   6     31.94    3.98  0. 1.0000     0. 
   3   5  -6     38.92    4.17  0. 1.0000     0. 
  -3   5   6     33.50    4.59  0. 1.0000     0. 
   3   5  -6     35.12    3.84  0. 1.0000     0. 
  -2  -5   6     26.84    2.94  0. 1.0000     0. 
   2  -5  -6     35.79    3.86  0. 1.0000     0. 
  -2  -5   6     24.77    5.71  0. 1.0000     0. 
  -2   5   6     27.79    3.66  0. 1.0000     0. 
  -2   5   6     27.76    4.35  0. 1.0000     0. 
   2   5  -6     29.88    3.45  0. 1.0000     0. 
   2   5  -6     28.03    3.90  0. 1.0000     0. 
  -1  -5   6     17.25    2.28  0. 1.0000     0. 
  -1  -5   6     26.90    5.41  0. 1.0000     0. 
   1  -5  -6     16.98    2.45  0. 1.0000     0. 
   1  -5  -6     17.73    3.10  0. 1.0000     0. 
   1   5  -6     22.68    3.80  0. 1.0000     0. 
  -1   5   6     15.81    3.60  0. 1.0000     0. 
  -1   5   6     18.36    3.13  0. 1.0000     0. 
   1   5  -6     19.98    2.96  0. 1.0000     0. 
   0  -5   6     25.99    2.72  0. 1.0000     0. 
   0  -5   6     26.13    5.13  0. 1.0000     0. 
   0  -5  -6     22.54    3.66  0. 1.0000     0. 
   0   5  -6     25.43    3.41  0. 1.0000     0. 
   0   5   6     28.15    4.04  0. 1.0000     0. 
   0   5   6     30.94    5.20  0. 1.0000     0. 
   0   5  -6     25.51    4.20  0. 1.0000     0. 
   1  -5   6     28.32    5.07  0. 1.0000     0. 
   1  -5   6     26.80    2.62  0. 1.0000     0. 
  -1   5  -6     28.33    3.88  0. 1.0000     0. 
  -1   5  -6     36.39    4.29  0. 1.0000     0. 
   1   5   6     31.59    5.05  0. 1.0000     0. 
   1   5   6     26.82    3.63  0. 1.0000     0. 
   2  -5   6      3.22    3.83  0. 1.0000     0. 
   2  -5   6      1.79    1.10  0. 1.0000     0. 
  -2  -5  -6      2.53    1.43  0. 1.0000     0. 
  -2  -5  -6      1.85    1.68  0. 1.0000     0. 
   2   5   6      2.99    2.00  0. 1.0000     0. 
  -2   5  -6      3.64    3.18  0. 1.0000     0. 
  -2   5  -6      3.58    2.12  0. 1.0000     0. 
  -3  -5  -6      0.41    1.58  0. 1.0000     0. 
   3  -5   6      0.39    1.13  0. 1.0000     0. 
   3  -5   6      0.42    1.71  0. 1.0000     0. 
  -3   5  -6      0.12    1.50  0. 1.0000     0. 
   3   5   6      0.48    1.77  0. 1.0000     0. 
  -3   0   7      0.33    0.79  0. 1.0000     0. 
   3   0  -7      0.08    1.12  0. 1.0000     0. 
  -2   0   7     -0.09    0.45  0. 1.0000     0. 
   2   0  -7      0.07    0.49  0. 1.0000     0. 
   2   0  -7     -0.12    0.51  0. 1.0000     0. 
  -2   0   7      0.22    0.38  0. 1.0000     0. 
   2   0  -7      0.03    0.46  0. 1.0000     0. 
  -2   0   7      0.34    0.41  0. 1.0000     0. 
  -1   0   7      0.03    0.51  0. 1.0000     0. 
  -1   0   7      0.23    0.41  0. 1.0000     0. 
  -1   0   7      0.05    0.51  0. 1.0000     0. 
  -1   0   7      0.05    0.58  0. 1.0000     0. 
   1   0  -7     -0.06    0.43  0. 1.0000     0. 
   1   0  -7     -0.17    0.57  0. 1.0000     0. 
   1   0  -7      0.06    0.44  0. 1.0000     0. 
   1   0  -7      0.04    0.54  0. 1.0000     0. 
   0   0   7      0.08    0.63  0. 1.0000     0. 
   0   0   7      1.70    0.80  0. 1.0000     0. 
   0   0   7     -0.03    0.43  0. 1.0000     0. 
   0   0  -7      0.05    0.63  0. 1.0000     0. 
   0   0  -7     -0.04    0.61  0. 1.0000     0. 
   0   0  -7     -0.19    0.41  0. 1.0000     0. 
   3   1  -7     21.92    1.98  0. 1.0000     0. 
   3   1  -7     23.38    2.12  0. 1.0000     0. 
  -3   1   7     22.94    2.06  0. 1.0000     0. 
   2  -1  -7    305.36   15.33  0. 1.0000     0. 
   2   1  -7    269.91   14.29  0. 1.0000     0. 
  -2   1   7    286.03   14.92  0. 1.0000     0. 
  -2   1   7    298.96   13.71  0. 1.0000     0. 
   2   1  -7    304.77   13.71  0. 1.0000     0. 
   1  -1  -7   1767.05   91.55  0. 1.0000     0. 
   1  -1  -7   1847.16   79.62  0. 1.0000     0. 
  -1   1   7   1914.11   88.80  0. 1.0000     0. 
  -1   1   7   1758.48   81.06  0. 1.0000     0. 
   1   1  -7   1884.79   79.62  0. 1.0000     0. 
   1   1  -7   1870.86   81.48  0. 1.0000     0. 
   0  -1   7    216.78   13.40  0. 1.0000     0. 
   0  -1  -7    206.99   10.26  0. 1.0000     0. 
   0   1  -7    225.65   10.68  0. 1.0000     0. 
   0   1   7    220.07   11.86  0. 1.0000     0. 
   0   1   7    216.46   10.24  0. 1.0000     0. 
  -1  -1  -7   1426.07   61.88  0. 1.0000     0. 
  -1   1  -7   1411.84   63.45  0. 1.0000     0. 
   1   1   7   1422.41   62.28  0. 1.0000     0. 
   4  -2  -7     56.29    4.26  0. 1.0000     0. 
  -4   2   7     46.44    4.72  0. 1.0000     0. 
  -2  -2   7    531.26   25.53  0. 1.0000     0. 
   2   2  -7    501.30   24.34  0. 1.0000     0. 
   2   2  -7    524.69   23.83  0. 1.0000     0. 
   1  -2  -7     88.80    5.97  0. 1.0000     0. 
   0   2   7   2099.14   91.56  0. 1.0000     0. 
   0   2  -7   2077.85   92.91  0. 1.0000     0. 
   0   2  -7   2109.58   92.75  0. 1.0000     0. 
   2  -2   7     63.03    7.01  0. 1.0000     0. 
   2   2   7     72.13    4.87  0. 1.0000     0. 
  -2   2  -7     80.13    4.86  0. 1.0000     0. 
   3  -3  -7     45.30    3.70  0. 1.0000     0. 
  -3  -3   7     50.18    3.46  0. 1.0000     0. 
  -3   3   7     49.17    4.23  0. 1.0000     0. 
   3   3  -7     39.37    3.54  0. 1.0000     0. 
  -1  -3   7    660.20   30.80  0. 1.0000     0. 
   1   3  -7    639.95   29.64  0. 1.0000     0. 
   1  -3   7     13.99    2.01  0. 1.0000     0. 
   1   3   7     16.49    2.61  0. 1.0000     0. 
  -1   3  -7     15.05    2.79  0. 1.0000     0. 
   2  -3   7     16.27    3.59  0. 1.0000     0. 
  -2   3  -7     27.39    3.68  0. 1.0000     0. 
   3  -3   7      2.67    1.96  0. 1.0000     0. 
  -3   3  -7     13.05    2.51  0. 1.0000     0. 
  -5   4   7     95.70    7.42  0. 1.0000     0. 
   4  -4  -7     12.05    2.41  0. 1.0000     0. 
  -4  -4   7      8.74    2.09  0. 1.0000     0. 
  -4   4   7      8.82    2.43  0. 1.0000     0. 
   4   4  -7     12.95    2.66  0. 1.0000     0. 
   4   4  -7     11.02    2.62  0. 1.0000     0. 
  -4   4   7      8.96    2.70  0. 1.0000     0. 
  -3  -4   7      4.20    1.76  0. 1.0000     0. 
   3  -4  -7      4.83    1.49  0. 1.0000     0. 
   3  -4  -7      3.22    1.65  0. 1.0000     0. 
   3   4  -7      3.02    1.93  0. 1.0000     0. 
   3   4  -7      3.31    2.27  0. 1.0000     0. 
  -3   4   7      3.53    2.22  0. 1.0000     0. 
  -3   4   7      1.84    1.82  0. 1.0000     0. 
  -2  -4   7     85.95    5.77  0. 1.0000     0. 
   2  -4  -7     90.65    5.72  0. 1.0000     0. 
   2  -4  -7     93.44    6.52  0. 1.0000     0. 
  -2  -4   7    106.63    8.03  0. 1.0000     0. 
   2   4  -7     97.59    6.39  0. 1.0000     0. 
   2   4  -7     85.82    6.35  0. 1.0000     0. 
  -2   4   7     89.26    6.28  0. 1.0000     0. 
  -2   4   7    100.23    7.52  0. 1.0000     0. 
  -1  -4   7     22.13    2.73  0. 1.0000     0. 
   1  -4  -7     23.02    2.64  0. 1.0000     0. 
   1  -4  -7     28.18    3.32  0. 1.0000     0. 
  -1  -4   7     28.05    4.79  0. 1.0000     0. 
   1   4  -7     24.38    3.36  0. 1.0000     0. 
  -1   4   7     22.88    3.26  0. 1.0000     0. 
  -1   4   7     21.65    3.75  0. 1.0000     0. 
   1   4  -7     22.29    3.07  0. 1.0000     0. 
   0  -4   7     35.84    5.18  0. 1.0000     0. 
   0  -4   7     35.75    3.48  0. 1.0000     0. 
   0  -4  -7     34.15    4.05  0. 1.0000     0. 
   0   4   7     33.14    4.73  0. 1.0000     0. 
   0   4   7     39.19    3.96  0. 1.0000     0. 
   0   4  -7     34.43    4.17  0. 1.0000     0. 
   0   4  -7     31.87    3.88  0. 1.0000     0. 
  -1  -4  -7     42.57    3.71  0. 1.0000     0. 
   1  -4   7     35.85    5.22  0. 1.0000     0. 
  -1  -4  -7     34.77    4.00  0. 1.0000     0. 
   1   4   7     43.59    5.38  0. 1.0000     0. 
   1   4   7     45.55    4.42  0. 1.0000     0. 
  -1   4  -7     30.61    3.73  0. 1.0000     0. 
  -1   4  -7     32.93    4.34  0. 1.0000     0. 
  -2  -4  -7     11.33    2.12  0. 1.0000     0. 
   2  -4   7     17.04    3.85  0. 1.0000     0. 
  -2  -4  -7      9.65    2.63  0. 1.0000     0. 
   2  -4   7      9.12    1.73  0. 1.0000     0. 
  -2   4  -7     14.67    3.53  0. 1.0000     0. 
   2   4   7     15.11    2.73  0. 1.0000     0. 
  -2   4  -7     10.23    2.28  0. 1.0000     0. 
   3  -4   7      1.37    2.01  0. 1.0000     0. 
  -3   4  -7      4.31    1.88  0. 1.0000     0. 
   4  -5  -7      1.19    1.29  0. 1.0000     0. 
  -4  -5   7      7.99    2.19  0. 1.0000     0. 
   4  -5  -7      5.43    3.02  0. 1.0000     0. 
   4   5  -7      4.57    2.96  0. 1.0000     0. 
  -4   5   7      6.87    3.43  0. 1.0000     0. 
  -4   5   7      5.79    2.53  0. 1.0000     0. 
  -3  -5   7      0.71    1.61  0. 1.0000     0. 
  -3  -5   7      0.57    3.75  0. 1.0000     0. 
   3  -5  -7     -0.41    2.07  0. 1.0000     0. 
   3  -5  -7      0.31    1.19  0. 1.0000     0. 
   3   5  -7      0.16    2.22  0. 1.0000     0. 
   3   5  -7     -0.96    2.42  0. 1.0000     0. 
  -3   5   7      0.14    2.09  0. 1.0000     0. 
  -3   5   7     -1.19    2.53  0. 1.0000     0. 
  -2  -5   7      0.12    1.37  0. 1.0000     0. 
   2  -5  -7     -0.24    1.83  0. 1.0000     0. 
  -2  -5   7     -1.08    3.45  0. 1.0000     0. 
   2  -5  -7      0.22    1.51  0. 1.0000     0. 
  -2   5   7     -1.06    2.91  0. 1.0000     0. 
   2   5  -7     -0.48    2.35  0. 1.0000     0. 
   2   5  -7      0.72    1.78  0. 1.0000     0. 
  -2   5   7      0.14    2.37  0. 1.0000     0. 
  -1  -5   7     27.76    2.91  0. 1.0000     0. 
  -1  -5   7     15.74    5.50  0. 1.0000     0. 
   1  -5  -7     39.09    3.93  0. 1.0000     0. 
   1  -5  -7     21.58    3.02  0. 1.0000     0. 
   1   5  -7     37.09    4.11  0. 1.0000     0. 
  -1   5   7     37.23    4.09  0. 1.0000     0. 
   1   5  -7     33.51    4.12  0. 1.0000     0. 
  -1   5   7     28.15    4.89  0. 1.0000     0. 
   0  -5  -7      6.09    2.20  0. 1.0000     0. 
   0  -5   7      4.98    1.58  0. 1.0000     0. 
   0  -5   7      4.55    3.53  0. 1.0000     0. 
   0  -5  -7      5.88    1.96  0. 1.0000     0. 
   0   5   7      5.50    3.36  0. 1.0000     0. 
   0   5  -7      6.79    3.39  0. 1.0000     0. 
   0   5   7      4.75    2.65  0. 1.0000     0. 
   0   5  -7      2.71    2.32  0. 1.0000     0. 
  -1  -5  -7      0.29    1.98  0. 1.0000     0. 
  -1  -5  -7      0.77    1.48  0. 1.0000     0. 
   1  -5   7      0.31    1.26  0. 1.0000     0. 
   1  -5   7      1.12    2.88  0. 1.0000     0. 
   1   5   7      0.92    2.37  0. 1.0000     0. 
  -1   5  -7     -0.86    2.30  0. 1.0000     0. 
  -1   5  -7      0.53    2.96  0. 1.0000     0. 
   1   5   7      0.66    2.64  0. 1.0000     0. 
   2  -5   7      0.29    1.18  0. 1.0000     0. 
  -2  -5  -7      1.07    1.64  0. 1.0000     0. 
  -2  -5  -7     -0.12    1.38  0. 1.0000     0. 
  -2   5  -7      0.54    2.96  0. 1.0000     0. 
   2   5   7      0.38    1.97  0. 1.0000     0. 
  -2   5  -7      0.29    1.82  0. 1.0000     0. 
   3  -5   7     -0.43    1.28  0. 1.0000     0. 
  -3   5  -7     -0.12    1.53  0. 1.0000     0. 
   2   0  -8     79.11    4.32  0. 1.0000     0. 
  -2   0   8     84.39    4.33  0. 1.0000     0. 
  -2   0   8     78.38    4.09  0. 1.0000     0. 
   2   0  -8     72.53    4.44  0. 1.0000     0. 
   1   0  -8   1307.58   62.07  0. 1.0000     0. 
  -1   0   8   1275.84   54.59  0. 1.0000     0. 
  -1   0   8   1244.40   63.62  0. 1.0000     0. 
   1   0  -8   1224.75   56.11  0. 1.0000     0. 
   0   0   8   1061.19   54.11  0. 1.0000     0. 
   0   0  -8   1051.09   46.51  0. 1.0000     0. 
   0   0  -8   1055.00   45.89  0. 1.0000     0. 
   4   1  -8     56.88    4.52  0. 1.0000     0. 
  -3  -1   8     -0.28    0.82  0. 1.0000     0. 
   3  -1  -8      0.50    0.85  0. 1.0000     0. 
  -3   1   8     -0.07    0.68  0. 1.0000     0. 
  -3   1   8      0.28    1.07  0. 1.0000     0. 
   3   1  -8     -0.33    0.91  0. 1.0000     0. 
   3   1  -8     -0.58    1.19  0. 1.0000     0. 
   2  -1  -8   1581.45   77.12  0. 1.0000     0. 
   2   1  -8   1609.52   67.04  0. 1.0000     0. 
   2   1  -8   1535.99   69.33  0. 1.0000     0. 
  -2   1   8   1535.60   69.86  0. 1.0000     0. 
  -2   1   8   1528.70   75.90  0. 1.0000     0. 
  -1  -1   8    151.35    9.05  0. 1.0000     0. 
   1  -1  -8    146.69    8.49  0. 1.0000     0. 
   1   1  -8    121.34    7.67  0. 1.0000     0. 
  -1   1   8    160.62    7.43  0. 1.0000     0. 
  -1   1   8    144.36    8.49  0. 1.0000     0. 
   1   1   8   1549.67   68.04  0. 1.0000     0. 
  -1   1  -8   1563.99   69.94  0. 1.0000     0. 
  -4  -2   8     98.00    5.64  0. 1.0000     0. 
   4  -2  -8    111.57    6.32  0. 1.0000     0. 
   4   2  -8     88.73    6.14  0. 1.0000     0. 
   4   2  -8     99.36    6.29  0. 1.0000     0. 
  -4   2   8    101.68    6.23  0. 1.0000     0. 
  -4   2   8     80.84    6.76  0. 1.0000     0. 
   3  -2  -8      0.58    1.20  0. 1.0000     0. 
  -3  -2   8      0.08    0.85  0. 1.0000     0. 
  -3   2   8      0.31    1.64  0. 1.0000     0. 
   3   2  -8      0.73    1.47  0. 1.0000     0. 
   3   2  -8     -0.36    1.40  0. 1.0000     0. 
  -3   2   8      0.31    1.08  0. 1.0000     0. 
   2  -2  -8    147.63    8.56  0. 1.0000     0. 
   2   2  -8    146.89    8.07  0. 1.0000     0. 
  -2   2   8    143.52    8.04  0. 1.0000     0. 
   2   2  -8    145.92    7.97  0. 1.0000     0. 
  -1   2   8     25.12    2.37  0. 1.0000     0. 
   1   2  -8     20.25    2.72  0. 1.0000     0. 
  -1   2   8     17.13    2.77  0. 1.0000     0. 
   0  -2   8    140.64    7.70  0. 1.0000     0. 
   0  -2  -8    136.44    7.15  0. 1.0000     0. 
   0   2   8    141.82    7.52  0. 1.0000     0. 
   0   2  -8    134.00    7.78  0. 1.0000     0. 
   0   2  -8    122.55    7.87  0. 1.0000     0. 
   1  -2   8    198.63   12.97  0. 1.0000     0. 
  -2  -2  -8     70.37    4.33  0. 1.0000     0. 
  -5  -3   8     36.60    3.48  0. 1.0000     0. 
   5   3  -8     32.83    3.99  0. 1.0000     0. 
   4   3  -8    178.94   10.17  0. 1.0000     0. 
  -4   3   8    170.32   10.46  0. 1.0000     0. 
   3   3  -8     13.46    2.23  0. 1.0000     0. 
  -3   3   8     12.72    2.25  0. 1.0000     0. 
   2  -3  -8      0.39    1.18  0. 1.0000     0. 
  -2   3   8      0.19    2.01  0. 1.0000     0. 
   2   3  -8      0.22    1.55  0. 1.0000     0. 
   1   3  -8     94.63    6.48  0. 1.0000     0. 
   0  -3   8      2.17    2.81  0. 1.0000     0. 
   0  -3  -8      0.85    1.47  0. 1.0000     0. 
   0   3  -8      0.23    1.76  0. 1.0000     0. 
   0   3   8      0.37    1.76  0. 1.0000     0. 
  -1   3  -8     57.20    4.72  0. 1.0000     0. 
  -2  -3  -8    254.29   12.93  0. 1.0000     0. 
   2   3   8    263.90   12.73  0. 1.0000     0. 
  -2   3  -8    243.86   13.88  0. 1.0000     0. 
  -2   3  -8    261.65   14.51  0. 1.0000     0. 
   3  -3   8     -0.31    1.09  0. 1.0000     0. 
  -3   3  -8      1.00    2.10  0. 1.0000     0. 
   4  -4  -8      4.31    2.20  0. 1.0000     0. 
  -4  -4   8      0.91    1.53  0. 1.0000     0. 
   4   4  -8      3.35    2.36  0. 1.0000     0. 
   4   4  -8      3.21    2.10  0. 1.0000     0. 
  -4   4   8      2.78    2.23  0. 1.0000     0. 
  -4   4   8      2.19    2.31  0. 1.0000     0. 
  -3  -4   8      0.39    1.51  0. 1.0000     0. 
   3  -4  -8      2.36    1.93  0. 1.0000     0. 
   3  -4  -8      1.19    1.50  0. 1.0000     0. 
   3   4  -8      1.91    1.70  0. 1.0000     0. 
  -3   4   8      0.52    2.15  0. 1.0000     0. 
   3   4  -8      1.77    2.24  0. 1.0000     0. 
  -3   4   8      1.39    2.44  0. 1.0000     0. 
  -2  -4   8      0.44    2.67  0. 1.0000     0. 
  -2  -4   8      1.58    1.39  0. 1.0000     0. 
   2  -4  -8      1.38    1.42  0. 1.0000     0. 
   2  -4  -8      2.60    1.90  0. 1.0000     0. 
  -2   4   8      0.65    1.92  0. 1.0000     0. 
  -2   4   8      1.33    2.39  0. 1.0000     0. 
   2   4  -8      0.78    2.03  0. 1.0000     0. 
   2   4  -8      1.20    2.23  0. 1.0000     0. 
  -1  -4   8      4.53    3.61  0. 1.0000     0. 
   1  -4  -8      7.13    2.09  0. 1.0000     0. 
  -1  -4   8      7.11    2.05  0. 1.0000     0. 
   1  -4  -8      7.45    1.95  0. 1.0000     0. 
  -1   4   8      5.10    2.66  0. 1.0000     0. 
  -1   4   8     11.21    2.79  0. 1.0000     0. 
   1   4  -8      7.16    2.42  0. 1.0000     0. 
   1   4  -8      7.88    2.32  0. 1.0000     0. 
   0  -4   8     10.70    3.66  0. 1.0000     0. 
   0  -4   8      8.33    2.04  0. 1.0000     0. 
   0  -4  -8     13.25    2.49  0. 1.0000     0. 
   0  -4  -8      8.97    2.53  0. 1.0000     0. 
   0   4  -8     11.08    2.78  0. 1.0000     0. 
   0   4  -8      7.86    2.52  0. 1.0000     0. 
   0   4   8     10.78    2.56  0. 1.0000     0. 
   0   4   8      9.28    3.15  0. 1.0000     0. 
  -1  -4  -8     -0.12    1.52  0. 1.0000     0. 
   1  -4   8      1.33    1.37  0. 1.0000     0. 
  -1  -4  -8      1.31    1.90  0. 1.0000     0. 
   1  -4   8      0.96    2.51  0. 1.0000     0. 
   1   4   8      2.28    2.62  0. 1.0000     0. 
  -1   4  -8      0.81    2.05  0. 1.0000     0. 
  -1   4  -8      0.15    2.23  0. 1.0000     0. 
   1   4   8     -1.20    2.31  0. 1.0000     0. 
   2  -4   8      6.59    3.04  0. 1.0000     0. 
   2  -4   8      4.25    1.59  0. 1.0000     0. 
  -2  -4  -8      8.54    2.72  0. 1.0000     0. 
  -2  -4  -8      8.16    1.81  0. 1.0000     0. 
  -2   4  -8      6.94    2.07  0. 1.0000     0. 
  -2   4  -8      6.04    3.17  0. 1.0000     0. 
   2   4   8      8.88    2.44  0. 1.0000     0. 
  -3   4  -8      2.05    1.92  0. 1.0000     0. 
  -4  -5   8     -0.17    1.95  0. 1.0000     0. 
   4  -5  -8      2.34    2.47  0. 1.0000     0. 
  -4   5   8     -0.80    3.32  0. 1.0000     0. 
   3  -5  -8      5.20    2.56  0. 1.0000     0. 
  -3  -5   8      6.65    1.89  0. 1.0000     0. 
  -3   5   8      2.51    2.49  0. 1.0000     0. 
  -3   5   8      4.88    2.77  0. 1.0000     0. 
   3   5  -8      3.52    2.32  0. 1.0000     0. 
   2  -5  -8      2.75    1.46  0. 1.0000     0. 
  -2  -5   8      1.10    1.44  0. 1.0000     0. 
   2  -5  -8      0.27    1.77  0. 1.0000     0. 
  -2   5   8      1.79    2.68  0. 1.0000     0. 
   2   5  -8      1.95    1.92  0. 1.0000     0. 
  -2   5   8      0.52    2.46  0. 1.0000     0. 
   2   5  -8      1.25    2.37  0. 1.0000     0. 
   1  -5  -8      7.47    2.36  0. 1.0000     0. 
   1  -5  -8      4.68    2.22  0. 1.0000     0. 
  -1  -5   8      6.15    1.88  0. 1.0000     0. 
  -1  -5   8      9.73    3.91  0. 1.0000     0. 
  -1   5   8      7.83    2.87  0. 1.0000     0. 
  -1   5   8      4.54    3.38  0. 1.0000     0. 
   1   5  -8      4.12    2.75  0. 1.0000     0. 
   1   5  -8      9.76    2.56  0. 1.0000     0. 
   0  -5   8      1.43    3.19  0. 1.0000     0. 
   0  -5  -8      0.14    1.80  0. 1.0000     0. 
   0  -5  -8     -0.69    1.98  0. 1.0000     0. 
   0  -5   8     -0.76    1.51  0. 1.0000     0. 
   0   5  -8      0.16    2.12  0. 1.0000     0. 
   0   5   8     -0.35    2.89  0. 1.0000     0. 
   0   5   8      0.89    2.27  0. 1.0000     0. 
   1  -5   8      0.95    1.27  0. 1.0000     0. 
  -1  -5  -8      0.14    1.86  0. 1.0000     0. 
   1   5   8      2.01    2.90  0. 1.0000     0. 
  -1   5  -8      2.71    2.07  0. 1.0000     0. 
   2  -5   8     15.58    1.93  0. 1.0000     0. 
  -2  -5  -8     14.62    2.45  0. 1.0000     0. 
   2   5   8     18.55    3.16  0. 1.0000     0. 
  -4   0   9     -0.55    1.95  0. 1.0000     0. 
   4   0  -9     -0.53    2.27  0. 1.0000     0. 
  -2   0   9      0.12    0.44  0. 1.0000     0. 
   2   0  -9      0.05    0.68  0. 1.0000     0. 
  -2   0   9      0.41    0.81  0. 1.0000     0. 
   2   0  -9     -0.04    0.61  0. 1.0000     0. 
  -1   0   9      0.15    0.57  0. 1.0000     0. 
   1   0  -9     -0.33    0.70  0. 1.0000     0. 
  -1   0   9     -0.24    0.96  0. 1.0000     0. 
   1   0  -9      0.17    0.82  0. 1.0000     0. 
  -1   0   9      0.11    0.63  0. 1.0000     0. 
  -4  -1   9     44.91    3.09  0. 1.0000     0. 
   4   1  -9     33.27    3.50  0. 1.0000     0. 
   3  -1  -9     71.95    5.17  0. 1.0000     0. 
   3   1  -9     87.47    4.99  0. 1.0000     0. 
   3   1  -9     91.96    4.68  0. 1.0000     0. 
   2  -1  -9     68.79    4.54  0. 1.0000     0. 
   2   1  -9     74.20    4.52  0. 1.0000     0. 
   2   1  -9     70.39    4.29  0. 1.0000     0. 
  -1  -1   9    400.21   21.39  0. 1.0000     0. 
   1  -1  -9    394.95   20.98  0. 1.0000     0. 
   1   1  -9    410.71   18.32  0. 1.0000     0. 
   1   1  -9    385.81   19.22  0. 1.0000     0. 
   0  -1  -9      0.07    0.84  0. 1.0000     0. 
   0  -1   9      0.13    1.27  0. 1.0000     0. 
   0   1   9      0.73    1.29  0. 1.0000     0. 
   0   1  -9     -0.53    1.45  0. 1.0000     0. 
   0   1   9      0.42    0.90  0. 1.0000     0. 
   0   1  -9      1.11    1.28  0. 1.0000     0. 
   1  -1   9     19.52    3.09  0. 1.0000     0. 
  -1   1  -9     14.87    2.24  0. 1.0000     0. 
  -1   1  -9     12.82    1.83  0. 1.0000     0. 
   5  -2  -9      5.33    2.57  0. 1.0000     0. 
   5   2  -9      0.81    2.25  0. 1.0000     0. 
  -5   2   9      5.30    2.79  0. 1.0000     0. 
  -3  -2   9    110.87    6.08  0. 1.0000     0. 
   3   2  -9    108.15    6.55  0. 1.0000     0. 
   3   2  -9    101.40    6.22  0. 1.0000     0. 
  -3   2   9    109.52    6.87  0. 1.0000     0. 
   2  -2  -9     62.87    4.65  0. 1.0000     0. 
  -2   2   9     67.66    4.63  0. 1.0000     0. 
   1  -2  -9      3.94    1.26  0. 1.0000     0. 
   1  -2  -9      3.30    1.59  0. 1.0000     0. 
  -1  -2   9      3.38    1.20  0. 1.0000     0. 
  -1  -2   9      2.39    1.87  0. 1.0000     0. 
  -1   2   9      1.98    1.65  0. 1.0000     0. 
   1   2  -9      3.53    1.76  0. 1.0000     0. 
   1   2  -9      3.82    1.79  0. 1.0000     0. 
  -1   2   9      1.95    1.20  0. 1.0000     0. 
   0  -2  -9      1.08    0.99  0. 1.0000     0. 
   0  -2   9      0.89    1.03  0. 1.0000     0. 
   0  -2   9      0.34    2.05  0. 1.0000     0. 
   0   2  -9      0.71    1.53  0. 1.0000     0. 
   0   2   9     -0.32    1.47  0. 1.0000     0. 
   0   2   9      0.70    1.36  0. 1.0000     0. 
   0   2  -9      0.53    1.81  0. 1.0000     0. 
  -1  -2  -9     45.19    3.49  0. 1.0000     0. 
   1   2   9     54.82    5.35  0. 1.0000     0. 
  -1   2  -9     49.93    4.29  0. 1.0000     0. 
  -1   2  -9     54.09    4.15  0. 1.0000     0. 
   2  -2   9      0.75    1.79  0. 1.0000     0. 
  -2  -2  -9      2.15    1.15  0. 1.0000     0. 
  -2   2  -9      0.90    1.88  0. 1.0000     0. 
   2   2   9      0.80    1.32  0. 1.0000     0. 
  -5  -3   9      0.32    1.75  0. 1.0000     0. 
   5  -3  -9     -0.49    2.32  0. 1.0000     0. 
  -5   3   9      0.53    2.05  0. 1.0000     0. 
   5   3  -9     -0.16    2.43  0. 1.0000     0. 
  -5   3   9      0.20    3.00  0. 1.0000     0. 
   4  -3  -9    318.60   17.55  0. 1.0000     0. 
  -4  -3   9    259.10   16.25  0. 1.0000     0. 
   4   3  -9    335.83   15.78  0. 1.0000     0. 
  -4   3   9    334.71   15.79  0. 1.0000     0. 
   4   3  -9    333.51   16.53  0. 1.0000     0. 
  -3  -3   9     11.92    1.91  0. 1.0000     0. 
   3  -3  -9     14.30    2.41  0. 1.0000     0. 
  -3   3   9     13.41    2.73  0. 1.0000     0. 
   3   3  -9     13.30    2.58  0. 1.0000     0. 
  -3   3   9     10.61    2.35  0. 1.0000     0. 
   3   3  -9     11.97    2.16  0. 1.0000     0. 
   2  -3  -9    428.93   19.70  0. 1.0000     0. 
  -2   3   9    418.15   22.56  0. 1.0000     0. 
   2   3  -9    407.56   20.48  0. 1.0000     0. 
   1  -3  -9     35.03    3.05  0. 1.0000     0. 
  -1   3   9     21.57    3.57  0. 1.0000     0. 
   1   3  -9     36.41    3.70  0. 1.0000     0. 
   0  -3   9      2.27    1.82  0. 1.0000     0. 
   0  -3  -9      1.53    1.40  0. 1.0000     0. 
   0  -3  -9      4.88    2.43  0. 1.0000     0. 
   0   3   9      0.85    2.02  0. 1.0000     0. 
   0   3  -9      2.70    2.12  0. 1.0000     0. 
   0   3  -9      2.52    1.97  0. 1.0000     0. 
   0   3   9      0.99    1.85  0. 1.0000     0. 
   1  -3   9    315.45   15.41  0. 1.0000     0. 
  -1  -3  -9    321.75   14.83  0. 1.0000     0. 
   1   3   9    287.57   18.50  0. 1.0000     0. 
  -1   3  -9    267.06   15.73  0. 1.0000     0. 
  -1   3  -9    288.87   15.54  0. 1.0000     0. 
  -2  -3  -9     -0.20    1.26  0. 1.0000     0. 
  -2   3  -9      0.47    2.47  0. 1.0000     0. 
  -2   3  -9      1.64    2.41  0. 1.0000     0. 
   2   3   9      0.11    1.65  0. 1.0000     0. 
  -3   3  -9      6.94    2.63  0. 1.0000     0. 
   5  -4  -9      5.44    3.00  0. 1.0000     0. 
  -5  -4   9      4.77    2.47  0. 1.0000     0. 
  -5   4   9      4.66    2.58  0. 1.0000     0. 
   5   4  -9      8.94    3.24  0. 1.0000     0. 
  -5   4   9      6.46    3.87  0. 1.0000     0. 
   4   4  -9      0.57    2.16  0. 1.0000     0. 
  -4   4   9     -0.36    1.81  0. 1.0000     0. 
  -3  -4   9    420.11   21.13  0. 1.0000     0. 
   3  -4  -9    416.24   20.37  0. 1.0000     0. 
   3  -4  -9    445.47   22.09  0. 1.0000     0. 
   3   4  -9    427.33   20.30  0. 1.0000     0. 
   3   4  -9    393.23   21.65  0. 1.0000     0. 
  -2  -4   9      8.62    3.32  0. 1.0000     0. 
   2  -4  -9      8.16    1.87  0. 1.0000     0. 
   2  -4  -9      6.63    2.30  0. 1.0000     0. 
  -2  -4   9      7.47    1.90  0. 1.0000     0. 
   2   4  -9     11.08    2.74  0. 1.0000     0. 
  -2   4   9     10.14    2.73  0. 1.0000     0. 
   2   4  -9      8.67    2.44  0. 1.0000     0. 
  -2   4   9      8.75    2.64  0. 1.0000     0. 
   1  -4  -9     49.64    4.50  0. 1.0000     0. 
   1  -4  -9     52.53    3.81  0. 1.0000     0. 
   1   4  -9     50.34    4.35  0. 1.0000     0. 
  -1   4   9     36.37    4.35  0. 1.0000     0. 
  -1   4   9     43.10    4.84  0. 1.0000     0. 
   0  -4  -9    149.36   10.72  0. 1.0000     0. 
   0  -4  -9    176.39    9.26  0. 1.0000     0. 
   0   4  -9    172.08   10.00  0. 1.0000     0. 
   0   4   9    168.62   12.05  0. 1.0000     0. 
   0   4  -9    172.98   10.02  0. 1.0000     0. 
   1  -4   9      4.57    1.53  0. 1.0000     0. 
  -1  -4  -9      1.89    1.61  0. 1.0000     0. 
  -1  -4  -9      1.31    1.84  0. 1.0000     0. 
   1  -4   9      3.75    2.81  0. 1.0000     0. 
   1   4   9      0.88    2.54  0. 1.0000     0. 
  -1   4  -9      5.76    2.61  0. 1.0000     0. 
   1   4   9      0.31    2.34  0. 1.0000     0. 
  -1   4  -9      3.65    2.51  0. 1.0000     0. 
   2  -4   9     38.53    3.47  0. 1.0000     0. 
  -2   4  -9     43.17    4.07  0. 1.0000     0. 
   3  -4   9     24.04    2.71  0. 1.0000     0. 
   3  -5  -9      3.07    2.33  0. 1.0000     0. 
  -3   5   9      1.42    2.23  0. 1.0000     0. 
  -2   5   9     50.57    5.70  0. 1.0000     0. 
   2   5  -9     56.19    5.13  0. 1.0000     0. 
   1  -5  -9      3.79    2.43  0. 1.0000     0. 
  -1  -5   9      4.47    1.84  0. 1.0000     0. 
   1   5  -9      2.83    2.33  0. 1.0000     0. 
  -1   5   9      3.09    2.45  0. 1.0000     0. 
   0  -5  -9      0.53    1.80  0. 1.0000     0. 
   0   5   9      0.48    2.66  0. 1.0000     0. 
  -4   0  10     -0.28    1.17  0. 1.0000     0. 
   4   0 -10      0.10    1.53  0. 1.0000     0. 
  -2   0  10      6.17    0.90  0. 1.0000     0. 
  -2   0  10      6.00    1.08  0. 1.0000     0. 
   2   0 -10      6.97    1.08  0. 1.0000     0. 
   1   0 -10    559.73   24.95  0. 1.0000     0. 
   1   0 -10    555.45   24.86  0. 1.0000     0. 
   0   0 -10   2318.72  100.49  0. 1.0000     0. 
  -5   1  10    359.95   20.65  0. 1.0000     0. 
  -3  -1  10      3.52    0.86  0. 1.0000     0. 
   3  -1 -10      2.99    1.08  0. 1.0000     0. 
   3   1 -10      3.94    1.26  0. 1.0000     0. 
  -3   1  10      3.44    1.35  0. 1.0000     0. 
   3   1 -10      2.70    1.26  0. 1.0000     0. 
  -3   1  10      3.05    1.09  0. 1.0000     0. 
   2   1 -10     22.15    2.26  0. 1.0000     0. 
   2   1 -10     24.03    2.20  0. 1.0000     0. 
  -1  -1  10    108.80    7.14  0. 1.0000     0. 
   1   1 -10     99.36    5.96  0. 1.0000     0. 
   1   1 -10    102.31    6.01  0. 1.0000     0. 
  -1   1  10     92.82    6.32  0. 1.0000     0. 
  -1   1  10    106.03    6.57  0. 1.0000     0. 
   0  -1 -10   1403.28   62.53  0. 1.0000     0. 
   0   1  10   1513.13   63.34  0. 1.0000     0. 
   0   1 -10   1390.88   64.48  0. 1.0000     0. 
  -1  -1 -10    843.59   36.89  0. 1.0000     0. 
   1   1  10    827.46   37.56  0. 1.0000     0. 
  -1   1 -10    824.02   37.48  0. 1.0000     0. 
  -2   1 -10    236.05   12.78  0. 1.0000     0. 
   5   2 -10    171.89   10.58  0. 1.0000     0. 
  -4  -2  10   1123.18   46.80  0. 1.0000     0. 
   4  -2 -10    964.20   49.02  0. 1.0000     0. 
   4   2 -10    961.71   43.34  0. 1.0000     0. 
   4   2 -10    859.27   48.17  0. 1.0000     0. 
  -4   2  10    957.11   47.85  0. 1.0000     0. 
   3   2 -10      0.20    1.44  0. 1.0000     0. 
   0  -2  10     11.46    1.62  0. 1.0000     0. 
   0  -2 -10      9.88    2.84  0. 1.0000     0. 
   0  -2 -10      8.82    1.61  0. 1.0000     0. 
   0   2  10      7.21    1.82  0. 1.0000     0. 
   0   2 -10     13.06    2.56  0. 1.0000     0. 
  -1  -2 -10     37.64    2.97  0. 1.0000     0. 
  -1   2 -10     37.31    3.74  0. 1.0000     0. 
   2  -2  10      1.73    1.92  0. 1.0000     0. 
  -2  -2 -10      2.61    1.27  0. 1.0000     0. 
   2   2  10      2.77    1.54  0. 1.0000     0. 
  -2   2 -10      3.25    2.07  0. 1.0000     0. 
   5  -3 -10    578.72   31.38  0. 1.0000     0. 
  -5  -3  10    597.62   29.59  0. 1.0000     0. 
   4  -3 -10      2.48    1.76  0. 1.0000     0. 
  -4  -3  10      1.11    1.43  0. 1.0000     0. 
   4   3 -10      3.53    1.80  0. 1.0000     0. 
  -4   3  10      1.52    1.73  0. 1.0000     0. 
  -3  -3  10     47.38    3.56  0. 1.0000     0. 
   3  -3 -10     48.65    4.21  0. 1.0000     0. 
   3   3 -10     46.99    3.88  0. 1.0000     0. 
  -3   3  10     45.75    4.22  0. 1.0000     0. 
  -2  -3  10    188.01   10.13  0. 1.0000     0. 
  -2  -3  10    177.35   11.71  0. 1.0000     0. 
  -2   3  10    174.10   10.21  0. 1.0000     0. 
  -1  -3  10    202.14   13.71  0. 1.0000     0. 
  -1  -3  10    186.02   11.15  0. 1.0000     0. 
   1   3 -10    206.68   11.15  0. 1.0000     0. 
  -1   3  10    200.51   10.97  0. 1.0000     0. 
   0  -3 -10    124.46    9.61  0. 1.0000     0. 
   0  -3  10    150.40   11.31  0. 1.0000     0. 
   0  -3  10    160.51    8.73  0. 1.0000     0. 
   0   3  10    152.45    8.89  0. 1.0000     0. 
   1  -3  10     12.47    3.20  0. 1.0000     0. 
   1  -3  10     15.46    2.32  0. 1.0000     0. 
  -1   3 -10     16.22    2.93  0. 1.0000     0. 
   1   3  10     15.69    2.64  0. 1.0000     0. 
   2  -3  10     13.64    3.65  0. 1.0000     0. 
   2   3  10     13.47    2.49  0. 1.0000     0. 
  -2   3 -10     16.10    3.08  0. 1.0000     0. 
  -6   4  10      2.36    3.50  0. 1.0000     0. 
  -5  -4  10      1.67    1.91  0. 1.0000     0. 
   5  -4 -10      1.25    2.64  0. 1.0000     0. 
  -5   4  10      1.69    3.41  0. 1.0000     0. 
   5   4 -10      1.32    2.45  0. 1.0000     0. 
  -5   4  10      1.07    2.36  0. 1.0000     0. 
   4  -4 -10      1.21    1.87  0. 1.0000     0. 
  -4  -4  10      0.49    1.90  0. 1.0000     0. 
  -4   4  10      4.62    2.49  0. 1.0000     0. 
   4   4 -10      0.74    1.86  0. 1.0000     0. 
  -4   4  10      1.90    2.40  0. 1.0000     0. 
   4   4 -10      0.26    1.99  0. 1.0000     0. 
   2  -4 -10      5.06    1.56  0. 1.0000     0. 
  -1  -4 -10     19.87    3.17  0. 1.0000     0. 
  -1  -4 -10     22.65    2.77  0. 1.0000     0. 
   1  -4  10     20.68    4.39  0. 1.0000     0. 
   1  -4  10     20.27    2.63  0. 1.0000     0. 
  -1   4 -10     25.99    3.70  0. 1.0000     0. 
  -1   4 -10     18.54    3.60  0. 1.0000     0. 
   1   4  10     17.75    4.18  0. 1.0000     0. 
  -2  -4 -10     -0.36    1.49  0. 1.0000     0. 
   2  -4  10      0.91    3.12  0. 1.0000     0. 
  -2  -4 -10      0.62    1.94  0. 1.0000     0. 
   2  -4  10     -0.54    1.48  0. 1.0000     0. 
  -2   4 -10      0.67    2.90  0. 1.0000     0. 
  -2   4 -10     -0.64    2.20  0. 1.0000     0. 
   2   4  10     -0.43    2.14  0. 1.0000     0. 
   3  -4  10     -0.17    1.77  0. 1.0000     0. 
  -3   4 -10      0.78    2.12  0. 1.0000     0. 
  -4   0  11     -0.75    1.12  0. 1.0000     0. 
   4   0 -11     -0.43    1.61  0. 1.0000     0. 
   3   0 -11      0.43    0.99  0. 1.0000     0. 
  -3   0  11      0.06    0.93  0. 1.0000     0. 
   3   0 -11     -0.46    1.03  0. 1.0000     0. 
  -3   0  11      0.07    0.75  0. 1.0000     0. 
  -2   0  11     -0.08    0.88  0. 1.0000     0. 
  -2   0  11      0.07    1.03  0. 1.0000     0. 
   2   0 -11      0.19    0.70  0. 1.0000     0. 
   2   0 -11      0.05    0.89  0. 1.0000     0. 
   1   0 -11      0.05    0.87  0. 1.0000     0. 
   1   0 -11     -0.10    0.69  0. 1.0000     0. 
  -1   0  11     -0.90    1.16  0. 1.0000     0. 
  -1   0  11      0.18    1.00  0. 1.0000     0. 
   1   0  11      0.11    0.93  0. 1.0000     0. 
  -1   0 -11     -0.21    1.37  0. 1.0000     0. 
   5   1 -11   2485.06  112.47  0. 1.0000     0. 
   4  -1 -11     -0.18    1.36  0. 1.0000     0. 
  -4  -1  11      0.36    0.94  0. 1.0000     0. 
  -4   1  11      0.52    1.64  0. 1.0000     0. 
   4   1 -11     -0.19    1.46  0. 1.0000     0. 
  -4   1  11      0.32    1.11  0. 1.0000     0. 
   4   1 -11      0.50    1.24  0. 1.0000     0. 
   3  -1 -11    167.15    9.70  0. 1.0000     0. 
  -3   1  11    173.88    9.45  0. 1.0000     0. 
   3   1 -11    175.44    8.93  0. 1.0000     0. 
   2  -1 -11   1437.06   73.06  0. 1.0000     0. 
  -2   1  11   1372.16   74.71  0. 1.0000     0. 
   2   1 -11   1475.97   64.41  0. 1.0000     0. 
  -2   1  11   1546.58   63.88  0. 1.0000     0. 
   2   1 -11   1507.32   65.46  0. 1.0000     0. 
  -1  -1  11    274.10   18.32  0. 1.0000     0. 
   1  -1 -11    297.33   14.22  0. 1.0000     0. 
   1  -1 -11    322.26   16.48  0. 1.0000     0. 
  -1   1  11    302.14   14.47  0. 1.0000     0. 
   1   1 -11    303.30   14.56  0. 1.0000     0. 
   0  -1 -11     95.84    5.30  0. 1.0000     0. 
   0  -1  11     91.58    7.18  0. 1.0000     0. 
   0   1 -11     95.24    5.95  0. 1.0000     0. 
   0   1  11     84.23    5.87  0. 1.0000     0. 
   0   1 -11    105.29    5.64  0. 1.0000     0. 
   0   1  11     91.14    7.07  0. 1.0000     0. 
   1  -1  11    514.10   27.65  0. 1.0000     0. 
  -1  -1 -11    504.77   23.11  0. 1.0000     0. 
   1   1  11    488.83   23.53  0. 1.0000     0. 
  -1   1 -11    513.09   23.67  0. 1.0000     0. 
   5  -2 -11     91.91    6.94  0. 1.0000     0. 
  -5  -2  11     85.21    5.89  0. 1.0000     0. 
  -4  -2  11    412.91   23.50  0. 1.0000     0. 
   4   2 -11    467.22   21.35  0. 1.0000     0. 
   4   2 -11    479.92   21.62  0. 1.0000     0. 
   3  -2 -11    246.75   13.13  0. 1.0000     0. 
   3   2 -11    214.49   12.55  0. 1.0000     0. 
  -3   2  11    260.01   12.02  0. 1.0000     0. 
  -3   2  11    222.86   13.13  0. 1.0000     0. 
   2  -2 -11     38.89    3.00  0. 1.0000     0. 
   2  -2 -11     34.61    3.43  0. 1.0000     0. 
  -2   2  11     39.36    3.29  0. 1.0000     0. 
  -2   2  11     39.28    3.68  0. 1.0000     0. 
   2   2 -11     30.70    3.35  0. 1.0000     0. 
   2   2 -11     34.73    3.29  0. 1.0000     0. 
   1  -2 -11   1037.30   53.94  0. 1.0000     0. 
  -1  -2  11   1052.05   50.50  0. 1.0000     0. 
   1   2 -11   1055.49   48.25  0. 1.0000     0. 
   1   2 -11   1078.70   47.98  0. 1.0000     0. 
  -1   2  11   1055.98   47.01  0. 1.0000     0. 
   0  -2 -11    184.75    9.93  0. 1.0000     0. 
   0  -2  11    197.44   12.82  0. 1.0000     0. 
   0   2  11    179.92    9.85  0. 1.0000     0. 
   0   2 -11    189.49   10.43  0. 1.0000     0. 
  -2   2 -11    417.44   20.77  0. 1.0000     0. 
   4  -3 -11     16.99    2.50  0. 1.0000     0. 
  -4  -3  11     13.69    2.34  0. 1.0000     0. 
   4   3 -11     15.93    2.47  0. 1.0000     0. 
  -4   3  11     21.79    2.88  0. 1.0000     0. 
   4   3 -11     13.48    2.79  0. 1.0000     0. 
  -4   3  11     19.86    3.11  0. 1.0000     0. 
   3  -3 -11     53.24    4.41  0. 1.0000     0. 
  -3  -3  11     51.19    3.77  0. 1.0000     0. 
   3  -3 -11     52.85    3.67  0. 1.0000     0. 
  -3   3  11     50.61    4.65  0. 1.0000     0. 
   3   3 -11     48.42    4.13  0. 1.0000     0. 
   3   3 -11     47.46    4.49  0. 1.0000     0. 
  -3   3  11     47.54    4.46  0. 1.0000     0. 
  -2  -3  11    105.36    6.90  0. 1.0000     0. 
   2  -3 -11    110.04    7.55  0. 1.0000     0. 
   2   3 -11    109.82    6.87  0. 1.0000     0. 
  -2   3  11    107.88    7.96  0. 1.0000     0. 
  -2   3  11    124.13    7.20  0. 1.0000     0. 
   2   3 -11    104.76    7.05  0. 1.0000     0. 
   1  -3 -11      6.01    1.77  0. 1.0000     0. 
  -1  -3  11     11.08    2.00  0. 1.0000     0. 
   1  -3 -11     12.04    2.72  0. 1.0000     0. 
  -1  -3  11     13.37    4.19  0. 1.0000     0. 
   1   3 -11      9.73    2.44  0. 1.0000     0. 
  -1   3  11     12.43    2.48  0. 1.0000     0. 
   1   3 -11     10.77    2.66  0. 1.0000     0. 
  -1   3  11      6.36    2.57  0. 1.0000     0. 
   0   3 -11     86.08    6.27  0. 1.0000     0. 
   0   3 -11     90.14    6.47  0. 1.0000     0. 
   1  -3  11     11.28    1.95  0. 1.0000     0. 
   1  -3  11      9.23    3.24  0. 1.0000     0. 
  -1  -3 -11      9.87    2.81  0. 1.0000     0. 
  -1  -3 -11      9.01    1.93  0. 1.0000     0. 
  -1   3 -11     10.46    2.85  0. 1.0000     0. 
  -1   3 -11      6.82    2.66  0. 1.0000     0. 
   1   3  11     12.48    3.40  0. 1.0000     0. 
   1   3  11     13.18    2.44  0. 1.0000     0. 
   2  -3  11     10.58    3.32  0. 1.0000     0. 
  -2  -3 -11     10.65    1.83  0. 1.0000     0. 
  -2   3 -11     10.10    2.93  0. 1.0000     0. 
   2   3  11     10.56    2.50  0. 1.0000     0. 
   6  -4 -11    108.01    9.55  0. 1.0000     0. 
  -6   4  11    112.23    9.68  0. 1.0000     0. 
  -5  -4  11     17.56    2.92  0. 1.0000     0. 
   5  -4 -11     19.76    3.39  0. 1.0000     0. 
  -5   4  11     19.52    3.48  0. 1.0000     0. 
   5   4 -11     16.49    3.53  0. 1.0000     0. 
  -5   4  11     22.44    4.62  0. 1.0000     0. 
   4  -4 -11      9.42    1.99  0. 1.0000     0. 
   4  -4 -11     11.79    2.57  0. 1.0000     0. 
  -4  -4  11     10.01    2.23  0. 1.0000     0. 
  -4   4  11      9.04    2.75  0. 1.0000     0. 
   4   4 -11      7.74    3.00  0. 1.0000     0. 
  -4   4  11     17.66    3.61  0. 1.0000     0. 
   4   4 -11     14.21    2.70  0. 1.0000     0. 
  -3  -4  11      4.48    1.63  0. 1.0000     0. 
   3  -4 -11      4.75    2.03  0. 1.0000     0. 
  -3  -4  11      4.21    2.68  0. 1.0000     0. 
   3  -4 -11      3.71    1.45  0. 1.0000     0. 
   3   4 -11      5.94    2.47  0. 1.0000     0. 
  -3   4  11      3.95    2.67  0. 1.0000     0. 
   3   4 -11      6.35    2.25  0. 1.0000     0. 
  -3   4  11      6.19    2.34  0. 1.0000     0. 
  -2  -4  11     20.35    4.43  0. 1.0000     0. 
  -2  -4  11     19.04    2.69  0. 1.0000     0. 
   2  -4 -11     24.77    2.71  0. 1.0000     0. 
   2   4 -11     28.45    3.28  0. 1.0000     0. 
   2   4 -11     24.42    3.46  0. 1.0000     0. 
  -2   4  11     22.14    3.61  0. 1.0000     0. 
  -1  -4  11     29.84    4.89  0. 1.0000     0. 
   1  -4 -11     23.36    2.73  0. 1.0000     0. 
   1  -4 -11     19.66    3.16  0. 1.0000     0. 
  -1  -4  11     26.82    2.95  0. 1.0000     0. 
   1   4 -11     21.78    3.22  0. 1.0000     0. 
  -1   4  11     23.25    3.73  0. 1.0000     0. 
   1   4 -11     20.69    3.42  0. 1.0000     0. 
  -1   4  11     23.66    3.39  0. 1.0000     0. 
   0  -4 -11     45.26    4.66  0. 1.0000     0. 
   0  -4 -11     49.66    4.05  0. 1.0000     0. 
   0   4  11     49.58    5.89  0. 1.0000     0. 
   0   4 -11     40.86    4.79  0. 1.0000     0. 
   0   4 -11     44.08    4.46  0. 1.0000     0. 
  -1  -4 -11     16.35    2.37  0. 1.0000     0. 
  -1  -4 -11      5.74    2.45  0. 1.0000     0. 
   1  -4  11     15.90    3.86  0. 1.0000     0. 
   1  -4  11      9.99    2.12  0. 1.0000     0. 
   1   4  11      8.68    3.16  0. 1.0000     0. 
  -1   4 -11      9.96    2.81  0. 1.0000     0. 
  -1   4 -11      9.46    3.36  0. 1.0000     0. 
   1   4  11     11.71    3.01  0. 1.0000     0. 
   2  -4  11     53.57    6.57  0. 1.0000     0. 
  -2  -4 -11     33.39    4.20  0. 1.0000     0. 
  -4   0  12   3223.56  155.24  0. 1.0000     0. 
  -3   0  12    242.15   11.93  0. 1.0000     0. 
   3   0 -12    244.52   12.73  0. 1.0000     0. 
  -2   0  12    831.30   39.70  0. 1.0000     0. 
   2   0 -12    896.56   38.22  0. 1.0000     0. 
   2   0 -12    899.06   43.61  0. 1.0000     0. 
  -1   0  12      4.11    1.64  0. 1.0000     0. 
   1   0 -12      6.12    1.32  0. 1.0000     0. 
   1   0 -12      5.54    1.05  0. 1.0000     0. 
   1   0 -12      5.70    1.13  0. 1.0000     0. 
  -1   0  12      4.26    1.14  0. 1.0000     0. 
   1   0  12    838.33   37.38  0. 1.0000     0. 
  -1   0 -12    848.34   37.98  0. 1.0000     0. 
   5   1 -12    205.46   12.48  0. 1.0000     0. 
  -5   1  12    209.16   12.44  0. 1.0000     0. 
   3  -1 -12   1616.18   76.82  0. 1.0000     0. 
  -3   1  12   1408.84   72.05  0. 1.0000     0. 
   3   1 -12   1629.88   67.10  0. 1.0000     0. 
  -2  -1  12    637.80   30.32  0. 1.0000     0. 
  -2  -1  12    639.79   32.69  0. 1.0000     0. 
   2   1 -12    612.24   29.14  0. 1.0000     0. 
  -2   1  12    621.16   29.00  0. 1.0000     0. 
   2   1 -12    629.90   29.36  0. 1.0000     0. 
  -1  -1  12     31.78    2.80  0. 1.0000     0. 
  -1  -1  12     29.77    3.90  0. 1.0000     0. 
   1  -1 -12     36.92    2.59  0. 1.0000     0. 
   1   1 -12     25.34    2.78  0. 1.0000     0. 
  -1   1  12     33.02    3.26  0. 1.0000     0. 
   1   1 -12     40.69    3.21  0. 1.0000     0. 
  -1   1 -12     25.15    2.69  0. 1.0000     0. 
  -2   1 -12    308.61   15.44  0. 1.0000     0. 
  -6   2  12      9.48    5.49  0. 1.0000     0. 
  -5   2  12      9.17    2.50  0. 1.0000     0. 
   5   2 -12     11.87    3.62  0. 1.0000     0. 
  -4  -2  12     17.73    2.60  0. 1.0000     0. 
   4  -2 -12     28.51    2.95  0. 1.0000     0. 
  -4   2  12     30.05    3.19  0. 1.0000     0. 
   4   2 -12     27.21    2.91  0. 1.0000     0. 
  -3  -2  12    417.56   20.94  0. 1.0000     0. 
   0  -2 -12     11.75    2.78  0. 1.0000     0. 
   0  -2  12      6.56    1.62  0. 1.0000     0. 
   0   2  12      8.70    1.84  0. 1.0000     0. 
   0   2 -12      9.29    2.18  0. 1.0000     0. 
   1   2  12    689.93   31.93  0. 1.0000     0. 
   2  -2  12      3.98    2.22  0. 1.0000     0. 
   6  -3 -12     -0.41    2.95  0. 1.0000     0. 
  -6   3  12     -0.26    2.52  0. 1.0000     0. 
   5  -3 -12     15.28    2.69  0. 1.0000     0. 
  -5  -3  12     19.66    2.51  0. 1.0000     0. 
  -5   3  12      9.62    2.90  0. 1.0000     0. 
   5   3 -12      9.70    3.14  0. 1.0000     0. 
   5   3 -12     16.19    2.75  0. 1.0000     0. 
  -5   3  12     12.17    3.01  0. 1.0000     0. 
  -4  -3  12      1.51    1.63  0. 1.0000     0. 
  -4   3  12      2.39    2.34  0. 1.0000     0. 
   4   3 -12      3.04    1.76  0. 1.0000     0. 
   2  -3 -12    273.08   13.42  0. 1.0000     0. 
   2   3 -12    269.85   14.55  0. 1.0000     0. 
   1  -3  12     18.62    2.22  0. 1.0000     0. 
  -1  -3 -12     14.54    3.15  0. 1.0000     0. 
  -1  -3 -12     12.99    2.30  0. 1.0000     0. 
   1  -3  12     14.08    3.75  0. 1.0000     0. 
   1   3  12     14.79    3.53  0. 1.0000     0. 
  -1   3 -12     18.43    3.45  0. 1.0000     0. 
  -1   3 -12     20.04    3.02  0. 1.0000     0. 
   1   3  12     15.23    2.74  0. 1.0000     0. 
   2  -3  12    238.66   15.20  0. 1.0000     0. 
   2   3  12    204.92   12.95  0. 1.0000     0. 
   6  -4 -12     21.95    4.18  0. 1.0000     0. 
  -6   4  12     11.13    4.15  0. 1.0000     0. 
  -5  -4  12      0.17    1.89  0. 1.0000     0. 
   5  -4 -12      0.16    2.29  0. 1.0000     0. 
   5   4 -12     -0.89    2.41  0. 1.0000     0. 
  -5   4  12      0.46    2.37  0. 1.0000     0. 
  -5   4  12      0.19    3.04  0. 1.0000     0. 
   4  -4 -12      0.48    1.52  0. 1.0000     0. 
   4  -4 -12     -0.14    2.14  0. 1.0000     0. 
  -4  -4  12      0.17    1.96  0. 1.0000     0. 
   4   4 -12     -0.94    2.46  0. 1.0000     0. 
   4   4 -12     -1.14    2.12  0. 1.0000     0. 
  -4   4  12     -0.23    2.63  0. 1.0000     0. 
  -4   4  12     -0.61    2.52  0. 1.0000     0. 
  -3  -4  12      4.87    1.85  0. 1.0000     0. 
  -3  -4  12      3.88    2.84  0. 1.0000     0. 
   3  -4 -12      3.06    1.56  0. 1.0000     0. 
   3  -4 -12      3.74    2.05  0. 1.0000     0. 
   3   4 -12      2.86    2.39  0. 1.0000     0. 
   3   4 -12      4.94    2.41  0. 1.0000     0. 
  -3   4  12      5.17    2.65  0. 1.0000     0. 
  -3   4  12      6.51    3.33  0. 1.0000     0. 
  -2  -4  12      8.41    1.88  0. 1.0000     0. 
  -2  -4  12      8.38    3.46  0. 1.0000     0. 
   2  -4 -12      6.21    1.98  0. 1.0000     0. 
   2  -4 -12      8.88    2.43  0. 1.0000     0. 
   2   4 -12      8.59    2.62  0. 1.0000     0. 
  -2   4  12      3.14    2.38  0. 1.0000     0. 
  -2   4  12      8.79    2.77  0. 1.0000     0. 
   2   4 -12      7.40    2.63  0. 1.0000     0. 
   1  -4 -12      3.14    2.28  0. 1.0000     0. 
  -1  -4  12      4.25    1.81  0. 1.0000     0. 
   1  -4 -12      5.64    1.96  0. 1.0000     0. 
  -1  -4  12      7.17    3.51  0. 1.0000     0. 
   1   4 -12      4.20    2.79  0. 1.0000     0. 
  -1   4  12      1.62    2.50  0. 1.0000     0. 
  -1   4  12      3.74    2.23  0. 1.0000     0. 
   1   4 -12      2.64    2.21  0. 1.0000     0. 
   0  -4 -12     44.22    4.58  0. 1.0000     0. 
   0  -4 -12     42.25    3.91  0. 1.0000     0. 
   0  -4  12     43.06    5.98  0. 1.0000     0. 
   0  -4  12     49.22    3.94  0. 1.0000     0. 
   0   4 -12     46.77    4.42  0. 1.0000     0. 
   0   4 -12     30.33    4.38  0. 1.0000     0. 
   0   4  12     49.45    4.69  0. 1.0000     0. 
   1  -4  12      0.51    2.76  0. 1.0000     0. 
  -1  -4 -12      0.25    1.62  0. 1.0000     0. 
   1  -4  12     -0.58    1.64  0. 1.0000     0. 
  -1  -4 -12      0.94    1.94  0. 1.0000     0. 
  -1   4 -12      2.23    2.77  0. 1.0000     0. 
   1   4  12     -0.95    2.50  0. 1.0000     0. 
  -1   4 -12      0.53    2.37  0. 1.0000     0. 
  -2  -4 -12      4.61    1.78  0. 1.0000     0. 
   2  -4  12      2.21    1.87  0. 1.0000     0. 
  -2  -4 -12      2.37    2.11  0. 1.0000     0. 
   2  -4  12      1.69    2.57  0. 1.0000     0. 
  -2   4 -12      3.42    2.67  0. 1.0000     0. 
   2   4  12      2.67    2.53  0. 1.0000     0. 
  -6   1  13      2.63   13.79  0. 1.0000     0. 
   5  -1 -13     40.37    4.60  0. 1.0000     0. 
  -5   1  13     36.23    4.09  0. 1.0000     0. 
   5   1 -13     40.01    4.25  0. 1.0000     0. 
   4  -1 -13     14.12    2.06  0. 1.0000     0. 
  -4  -1  13     18.10    1.85  0. 1.0000     0. 
   4   1 -13     16.58    2.17  0. 1.0000     0. 
  -4   1  13     15.10    2.41  0. 1.0000     0. 
   4   1 -13     13.14    2.61  0. 1.0000     0. 
  -4   1  13     16.40    2.46  0. 1.0000     0. 
  -3  -1  13      0.56    0.88  0. 1.0000     0. 
   3  -1 -13      1.10    1.13  0. 1.0000     0. 
   3   1 -13     -0.09    1.33  0. 1.0000     0. 
   3   1 -13      0.59    1.64  0. 1.0000     0. 
  -3   1  13      0.40    1.61  0. 1.0000     0. 
  -3   1  13      0.13    1.37  0. 1.0000     0. 
   2  -1 -13     24.93    2.32  0. 1.0000     0. 
   2  -1 -13     24.86    2.63  0. 1.0000     0. 
   2   1 -13     24.17    2.71  0. 1.0000     0. 
   2   1 -13     32.43    2.90  0. 1.0000     0. 
  -2   1  13     19.40    2.86  0. 1.0000     0. 
  -2   1  13     21.56    2.60  0. 1.0000     0. 
  -1  -1  13      4.63    1.39  0. 1.0000     0. 
   1  -1 -13      1.29    1.58  0. 1.0000     0. 
   1  -1 -13      1.64    1.10  0. 1.0000     0. 
  -1  -1  13      2.32    1.81  0. 1.0000     0. 
  -1   1  13      1.26    1.35  0. 1.0000     0. 
   1   1 -13      1.60    1.54  0. 1.0000     0. 
   1   1 -13      2.20    1.76  0. 1.0000     0. 
  -1   1  13      2.58    1.67  0. 1.0000     0. 
   0  -1  13     87.99    6.70  0. 1.0000     0. 
   0  -1 -13     82.43    4.68  0. 1.0000     0. 
   0   1 -13     84.92    5.49  0. 1.0000     0. 
   0   1 -13     79.76    5.32  0. 1.0000     0. 
   0   1  13     71.83    5.22  0. 1.0000     0. 
  -2   1 -13    104.45    6.05  0. 1.0000     0. 
  -6   2  13     20.48    5.44  0. 1.0000     0. 
   6   2 -13     -0.82    3.99  0. 1.0000     0. 
   5   2 -13    154.29    9.93  0. 1.0000     0. 
   3  -2 -13     13.47    2.02  0. 1.0000     0. 
  -3   2  13     18.19    2.49  0. 1.0000     0. 
   3   2 -13     15.62    2.20  0. 1.0000     0. 
  -3   2  13     18.01    3.06  0. 1.0000     0. 
   2  -2 -13      1.47    1.63  0. 1.0000     0. 
  -2  -2  13      0.64    1.24  0. 1.0000     0. 
  -2   2  13      3.54    1.82  0. 1.0000     0. 
   2   2 -13      4.95    2.04  0. 1.0000     0. 
   1   2 -13    143.06    8.88  0. 1.0000     0. 
  -1   2  13    152.14    8.47  0. 1.0000     0. 
   0  -2  13      2.76    2.55  0. 1.0000     0. 
   0  -2 -13      7.24    1.78  0. 1.0000     0. 
   0   2  13      4.44    2.77  0. 1.0000     0. 
   0   2 -13      7.68    2.28  0. 1.0000     0. 
  -1   2 -13    254.79   14.04  0. 1.0000     0. 
  -2   2 -13     23.49    3.02  0. 1.0000     0. 
   6  -3 -13     20.83    3.76  0. 1.0000     0. 
   6   3 -13      1.51    3.46  0. 1.0000     0. 
  -6   3  13     13.24    3.96  0. 1.0000     0. 
   5  -3 -13    119.86    7.68  0. 1.0000     0. 
   5   3 -13    116.97    7.47  0. 1.0000     0. 
   5   3 -13    111.00    7.96  0. 1.0000     0. 
  -5   3  13    109.93    8.13  0. 1.0000     0. 
   4  -3 -13    128.76    8.30  0. 1.0000     0. 
  -4  -3  13    129.31    7.82  0. 1.0000     0. 
  -4   3  13    135.34    8.50  0. 1.0000     0. 
   4   3 -13    118.52    7.50  0. 1.0000     0. 
   4   3 -13    130.65    7.87  0. 1.0000     0. 
  -3  -3  13    118.70    8.95  0. 1.0000     0. 
   3  -3 -13    123.48    7.21  0. 1.0000     0. 
  -3  -3  13    119.40    7.24  0. 1.0000     0. 
   3  -3 -13    126.83    7.99  0. 1.0000     0. 
   3   3 -13    122.64    7.68  0. 1.0000     0. 
  -3   3  13    119.43    7.58  0. 1.0000     0. 
  -3   3  13    124.21    8.55  0. 1.0000     0. 
   2  -3 -13    153.64    9.10  0. 1.0000     0. 
   2  -3 -13    179.48   10.32  0. 1.0000     0. 
   2   3 -13    160.46    9.71  0. 1.0000     0. 
  -2   3  13    163.95   10.61  0. 1.0000     0. 
   2   3 -13    156.98    9.53  0. 1.0000     0. 
  -2   3  13    162.58    9.47  0. 1.0000     0. 
   1  -3 -13     77.45    5.10  0. 1.0000     0. 
   1  -3 -13     62.04    6.00  0. 1.0000     0. 
  -1  -3  13     84.86    5.39  0. 1.0000     0. 
  -1   3  13     74.81    6.48  0. 1.0000     0. 
  -1   3  13     89.76    5.91  0. 1.0000     0. 
   1   3 -13     63.81    5.83  0. 1.0000     0. 
   1   3 -13     60.64    5.42  0. 1.0000     0. 
   0  -3  13    398.92   23.22  0. 1.0000     0. 
   0  -3 -13    366.04   19.08  0. 1.0000     0. 
   0   3 -13    372.06   19.12  0. 1.0000     0. 
   0   3  13    365.83   19.28  0. 1.0000     0. 
   0   3 -13    404.24   19.09  0. 1.0000     0. 
   1  -3  13      6.13    1.70  0. 1.0000     0. 
  -1  -3 -13      7.29    1.84  0. 1.0000     0. 
   1  -3  13      3.17    2.79  0. 1.0000     0. 
  -1  -3 -13      3.69    2.41  0. 1.0000     0. 
  -1   3 -13      6.92    2.51  0. 1.0000     0. 
   1   3  13      5.98    2.79  0. 1.0000     0. 
   1   3  13      6.80    2.21  0. 1.0000     0. 
  -1   3 -13      8.99    2.96  0. 1.0000     0. 
  -2  -3 -13      4.00    1.31  0. 1.0000     0. 
   2  -3  13      3.99    3.02  0. 1.0000     0. 
  -2   3 -13      7.32    2.57  0. 1.0000     0. 
   2   3  13     -0.17    2.28  0. 1.0000     0. 
   6  -4 -13     13.49    3.61  0. 1.0000     0. 
   5  -4 -13     27.08    3.08  0. 1.0000     0. 
  -5  -4  13     24.77    3.27  0. 1.0000     0. 
   5  -4 -13     27.58    3.62  0. 1.0000     0. 
  -5   4  13     24.77    4.35  0. 1.0000     0. 
  -5   4  13     24.86    4.23  0. 1.0000     0. 
   5   4 -13     27.33    3.69  0. 1.0000     0. 
  -4  -4  13    113.96    6.94  0. 1.0000     0. 
   4  -4 -13     95.62    7.16  0. 1.0000     0. 
  -4  -4  13     99.34    9.24  0. 1.0000     0. 
   4   4 -13     93.38    6.87  0. 1.0000     0. 
  -4   4  13     92.46    7.23  0. 1.0000     0. 
   3  -4 -13     43.29    4.72  0. 1.0000     0. 
   3   4 -13     55.22    4.63  0. 1.0000     0. 
  -3   4  13     60.81    5.80  0. 1.0000     0. 
   2  -4 -13      1.75    2.15  0. 1.0000     0. 
  -2  -4  13      1.00    1.74  0. 1.0000     0. 
  -2   4  13      0.23    2.26  0. 1.0000     0. 
  -2   4  13     -0.14    2.31  0. 1.0000     0. 
   2   4 -13     -0.31    1.97  0. 1.0000     0. 
   1  -4 -13    159.26   10.16  0. 1.0000     0. 
  -1  -4  13    149.03    9.35  0. 1.0000     0. 
  -1   4  13    158.75    9.66  0. 1.0000     0. 
   1   4 -13    156.30    9.20  0. 1.0000     0. 
   0  -4 -13     35.80    4.07  0. 1.0000     0. 
   0   4  13     25.47    5.01  0. 1.0000     0. 
   0   4 -13     27.99    4.03  0. 1.0000     0. 
   0   4  13     36.62    4.19  0. 1.0000     0. 
  -1  -4 -13     36.54    4.14  0. 1.0000     0. 
   1  -4  13     38.71    3.91  0. 1.0000     0. 
   1   4  13     33.95    5.46  0. 1.0000     0. 
   1   4  13     36.46    4.39  0. 1.0000     0. 
  -1   4 -13     40.49    4.27  0. 1.0000     0. 
  -2  -4 -13      3.84    2.27  0. 1.0000     0. 
   2  -4  13      6.66    2.30  0. 1.0000     0. 
  -2   4 -13      3.31    2.60  0. 1.0000     0. 
   2   4  13     -0.16    2.33  0. 1.0000     0. 
   5  -1 -14     56.67    5.37  0. 1.0000     0. 
   5   1 -14     58.84    5.52  0. 1.0000     0. 
   4   1 -14    461.90   21.96  0. 1.0000     0. 
   4   1 -14    460.04   21.40  0. 1.0000     0. 
  -4   1  14    469.82   21.28  0. 1.0000     0. 
   0  -1 -14     58.19    3.68  0. 1.0000     0. 
   0   1  14     48.82    4.22  0. 1.0000     0. 
   0   1 -14     62.26    4.21  0. 1.0000     0. 
   0   1 -14     54.60    4.55  0. 1.0000     0. 
  -1   1 -14     19.77    2.35  0. 1.0000     0. 
   1   1  14     12.56    2.01  0. 1.0000     0. 
   5  -2 -14    358.45   21.00  0. 1.0000     0. 
  -5  -2  14    378.38   19.58  0. 1.0000     0. 
   5   2 -14    402.83   19.78  0. 1.0000     0. 
  -5   2  14    388.14   21.25  0. 1.0000     0. 
   4  -2 -14     18.42    2.46  0. 1.0000     0. 
  -4   2  14     12.73    2.82  0. 1.0000     0. 
  -4   2  14     14.98    2.55  0. 1.0000     0. 
   4   2 -14     15.19    2.65  0. 1.0000     0. 
   3  -2 -14     32.00    3.15  0. 1.0000     0. 
   3   2 -14     33.82    3.68  0. 1.0000     0. 
  -3   2  14     51.54    4.68  0. 1.0000     0. 
   2  -2 -14    117.49    6.46  0. 1.0000     0. 
   2   2 -14    102.71    7.35  0. 1.0000     0. 
  -2   2  14    113.98    8.02  0. 1.0000     0. 
  -1  -2  14      1.03    2.35  0. 1.0000     0. 
   1  -2 -14     -0.32    1.36  0. 1.0000     0. 
   1   2 -14      0.50    1.76  0. 1.0000     0. 
  -1   2  14     -0.23    1.94  0. 1.0000     0. 
   0  -2 -14      2.88    1.52  0. 1.0000     0. 
   0  -2 -14      3.00    2.24  0. 1.0000     0. 
   0  -2  14      1.90    2.12  0. 1.0000     0. 
   0  -2  14      3.38    1.43  0. 1.0000     0. 
   0   2  14      3.85    1.84  0. 1.0000     0. 
   0   2 -14      7.72    2.39  0. 1.0000     0. 
   0   2 -14      2.48    2.00  0. 1.0000     0. 
   0   2  14      2.87    2.66  0. 1.0000     0. 
  -1  -2 -14      5.25    1.42  0. 1.0000     0. 
   1  -2  14      4.64    2.81  0. 1.0000     0. 
   1   2  14      4.54    2.02  0. 1.0000     0. 
  -1   2 -14      6.19    2.29  0. 1.0000     0. 
  -1   2 -14      4.48    2.42  0. 1.0000     0. 
   5  -3 -14     53.17    4.98  0. 1.0000     0. 
   5   3 -14     65.57    5.00  0. 1.0000     0. 
  -4  -3  14     -0.13    1.52  0. 1.0000     0. 
   4  -3 -14     -0.13    1.80  0. 1.0000     0. 
   4  -3 -14     -0.43    1.43  0. 1.0000     0. 
   4   3 -14     -0.29    2.14  0. 1.0000     0. 
   4   3 -14      0.50    1.55  0. 1.0000     0. 
  -4   3  14      0.80    2.17  0. 1.0000     0. 
  -4   3  14     -0.68    2.03  0. 1.0000     0. 
  -3  -3  14      1.45    2.24  0. 1.0000     0. 
  -3  -3  14     -0.36    1.35  0. 1.0000     0. 
   3  -3 -14      0.12    1.64  0. 1.0000     0. 
   3  -3 -14      0.43    1.50  0. 1.0000     0. 
  -3   3  14      0.12    2.03  0. 1.0000     0. 
   3   3 -14     -1.07    2.17  0. 1.0000     0. 
  -3   3  14     -0.20    1.95  0. 1.0000     0. 
   3   3 -14      0.77    2.08  0. 1.0000     0. 
   2  -3 -14     15.67    2.68  0. 1.0000     0. 
   2  -3 -14     15.24    2.38  0. 1.0000     0. 
  -2  -3  14     16.18    2.27  0. 1.0000     0. 
  -2  -3  14     15.14    4.23  0. 1.0000     0. 
  -2   3  14     11.98    2.76  0. 1.0000     0. 
   2   3 -14     14.25    2.71  0. 1.0000     0. 
   2   3 -14     13.95    3.14  0. 1.0000     0. 
  -2   3  14     17.68    3.22  0. 1.0000     0. 
  -1  -3  14      2.39    2.52  0. 1.0000     0. 
  -1  -3  14      2.06    1.72  0. 1.0000     0. 
   1  -3 -14      4.26    2.34  0. 1.0000     0. 
   1  -3 -14      1.15    1.67  0. 1.0000     0. 
  -1   3  14      1.32    2.71  0. 1.0000     0. 
   1   3 -14      2.47    2.02  0. 1.0000     0. 
  -1   3  14      2.22    2.18  0. 1.0000     0. 
   1   3 -14      1.30    2.43  0. 1.0000     0. 
   0  -3  14     19.93    4.33  0. 1.0000     0. 
   0  -3  14     22.61    2.53  0. 1.0000     0. 
   0  -3 -14     19.45    3.09  0. 1.0000     0. 
   0  -3 -14     15.88    2.59  0. 1.0000     0. 
   0   3  14     21.52    3.13  0. 1.0000     0. 
   0   3 -14     16.45    3.05  0. 1.0000     0. 
   0   3 -14     15.50    3.23  0. 1.0000     0. 
   0   3  14     16.43    4.57  0. 1.0000     0. 
   1  -3  14     26.54    4.85  0. 1.0000     0. 
  -1  -3 -14     26.80    2.86  0. 1.0000     0. 
  -1   3 -14     16.04    3.93  0. 1.0000     0. 
   2  -3  14      1.44    2.04  0. 1.0000     0. 
   2  -3  14      2.52    2.06  0. 1.0000     0. 
  -2   3 -14      2.08    2.30  0. 1.0000     0. 
   5  -4 -14      5.07    2.31  0. 1.0000     0. 
  -5  -4  14      3.91    1.90  0. 1.0000     0. 
   5   4 -14      5.32    2.63  0. 1.0000     0. 
  -5   4  14      2.98    3.20  0. 1.0000     0. 
   4  -4 -14      1.25    2.01  0. 1.0000     0. 
  -4  -4  14      0.50    1.85  0. 1.0000     0. 
   4   4 -14     -0.15    2.10  0. 1.0000     0. 
  -4   4  14      0.16    2.80  0. 1.0000     0. 
  -3  -4  14      7.95    2.02  0. 1.0000     0. 
   3  -4 -14      8.02    2.54  0. 1.0000     0. 
   3   4 -14      5.39    2.29  0. 1.0000     0. 
  -3   4  14     10.11    3.56  0. 1.0000     0. 
  -2  -4  14      2.60    1.63  0. 1.0000     0. 
  -2  -4  14      3.46    3.67  0. 1.0000     0. 
   2  -4 -14      3.24    1.72  0. 1.0000     0. 
   2  -4 -14      3.40    2.30  0. 1.0000     0. 
   2   4 -14      1.75    2.25  0. 1.0000     0. 
   2   4 -14      2.76    2.34  0. 1.0000     0. 
  -2   4  14      2.29    2.26  0. 1.0000     0. 
  -1  -4  14      6.34    1.92  0. 1.0000     0. 
   1  -4 -14      6.03    2.38  0. 1.0000     0. 
   1  -4 -14      3.62    1.80  0. 1.0000     0. 
   1   4 -14      4.60    2.23  0. 1.0000     0. 
  -1   4  14      4.82    2.64  0. 1.0000     0. 
   1   4 -14      3.99    2.60  0. 1.0000     0. 
   0  -4 -14      2.16    2.27  0. 1.0000     0. 
   0  -4  14      1.62    2.02  0. 1.0000     0. 
   0   4  14      2.94    2.63  0. 1.0000     0. 
   0   4 -14      0.54    2.36  0. 1.0000     0. 
   1  -4  14      7.29    2.38  0. 1.0000     0. 
   6   1 -15   1041.97   51.41  0. 1.0000     0. 
   5  -1 -15    559.38   28.26  0. 1.0000     0. 
   5   1 -15    527.54   26.62  0. 1.0000     0. 
  -5   1  15    514.24   29.06  0. 1.0000     0. 
   4  -1 -15    199.20   10.88  0. 1.0000     0. 
   4   1 -15    174.39   10.25  0. 1.0000     0. 
   4   1 -15    196.50   10.18  0. 1.0000     0. 
  -4   1  15    193.02   10.47  0. 1.0000     0. 
   3  -1 -15     94.97    6.74  0. 1.0000     0. 
  -3   1  15    101.80    7.18  0. 1.0000     0. 
   3   1 -15    108.86    6.26  0. 1.0000     0. 
  -3   1  15    107.85    6.44  0. 1.0000     0. 
   3   1 -15     97.87    6.58  0. 1.0000     0. 
   2  -1 -15    364.91   18.62  0. 1.0000     0. 
   2   1 -15    366.96   16.54  0. 1.0000     0. 
  -2   1  15    327.12   17.44  0. 1.0000     0. 
   2   1 -15    332.46   16.90  0. 1.0000     0. 
   1  -1 -15    106.87    7.12  0. 1.0000     0. 
   1   1 -15    102.78    6.56  0. 1.0000     0. 
   1   1 -15    121.49    6.69  0. 1.0000     0. 
  -1   1  15     93.16    6.42  0. 1.0000     0. 
   0  -1 -15      0.08    1.08  0. 1.0000     0. 
   0  -1  15     -0.38    0.94  0. 1.0000     0. 
   0  -1  15      0.40    1.88  0. 1.0000     0. 
   0  -1 -15      0.15    2.13  0. 1.0000     0. 
   0   1 -15      0.29    2.09  0. 1.0000     0. 
   0   1  15      0.36    1.39  0. 1.0000     0. 
   0   1 -15      0.40    1.59  0. 1.0000     0. 
   1   1  15    151.09    8.32  0. 1.0000     0. 
  -1   1 -15    142.64    8.48  0. 1.0000     0. 
   6  -2 -15    517.64   28.76  0. 1.0000     0. 
   6   2 -15    513.76   28.38  0. 1.0000     0. 
   4  -2 -15    117.37    7.79  0. 1.0000     0. 
   4   2 -15    128.82    7.11  0. 1.0000     0. 
   4   2 -15    116.58    8.14  0. 1.0000     0. 
  -3  -2  15    394.46   23.34  0. 1.0000     0. 
   3  -2 -15    358.16   21.91  0. 1.0000     0. 
   3  -2 -15    410.33   19.41  0. 1.0000     0. 
   3   2 -15    438.15   20.15  0. 1.0000     0. 
  -3   2  15    428.42   19.60  0. 1.0000     0. 
   3   2 -15    404.84   19.79  0. 1.0000     0. 
   2  -2 -15     39.02    3.30  0. 1.0000     0. 
   2  -2 -15     35.20    3.84  0. 1.0000     0. 
  -2  -2  15     47.07    6.36  0. 1.0000     0. 
   2   2 -15     35.59    3.53  0. 1.0000     0. 
  -2   2  15     34.61    3.50  0. 1.0000     0. 
   2   2 -15     35.05    3.92  0. 1.0000     0. 
  -2   2  15     36.95    4.28  0. 1.0000     0. 
   1  -2 -15     21.43    3.12  0. 1.0000     0. 
  -1  -2  15     27.53    4.62  0. 1.0000     0. 
   1  -2 -15     26.56    3.02  0. 1.0000     0. 
  -1  -2  15     29.97    2.70  0. 1.0000     0. 
   1   2 -15     25.55    3.45  0. 1.0000     0. 
  -1   2  15     26.30    4.11  0. 1.0000     0. 
   1   2 -15     23.35    3.55  0. 1.0000     0. 
   1  -2  15     16.82    2.15  0. 1.0000     0. 
   1  -2  15     16.47    3.50  0. 1.0000     0. 
  -1  -2 -15     19.62    2.24  0. 1.0000     0. 
   1   2  15     21.32    2.81  0. 1.0000     0. 
  -1   2 -15     13.54    2.51  0. 1.0000     0. 
  -2   2 -15     17.96    2.81  0. 1.0000     0. 
   6  -3 -15     71.39    6.96  0. 1.0000     0. 
  -6   3  15     79.55    7.59  0. 1.0000     0. 
   6   3 -15     75.38    7.15  0. 1.0000     0. 
  -5  -3  15      1.06    1.56  0. 1.0000     0. 
   5  -3 -15      0.65    1.81  0. 1.0000     0. 
  -5   3  15      1.25    2.59  0. 1.0000     0. 
  -5   3  15      0.66    2.19  0. 1.0000     0. 
   5   3 -15      1.30    2.11  0. 1.0000     0. 
   5   3 -15      0.47    2.20  0. 1.0000     0. 
   0  -3  15     14.39    2.41  0. 1.0000     0. 
   0  -3  15     15.21    3.76  0. 1.0000     0. 
   0  -3 -15     16.35    2.80  0. 1.0000     0. 
   0  -3 -15     17.95    2.46  0. 1.0000     0. 
   0   3 -15     15.60    3.14  0. 1.0000     0. 
   0   3 -15     10.53    2.46  0. 1.0000     0. 
   0   3  15     18.86    2.90  0. 1.0000     0. 
   0   3  15     14.46    3.71  0. 1.0000     0. 
  -1  -3 -15     16.52    2.30  0. 1.0000     0. 
  -1  -3 -15     13.13    3.01  0. 1.0000     0. 
   1  -3  15     14.13    2.35  0. 1.0000     0. 
   1  -3  15     19.48    4.53  0. 1.0000     0. 
   1   3  15     17.01    2.99  0. 1.0000     0. 
  -1   3 -15     15.97    3.57  0. 1.0000     0. 
  -1   3 -15     11.05    2.74  0. 1.0000     0. 
  -2  -4  15     80.54    5.67  0. 1.0000     0. 
   6   2 -16     51.53    7.08  0. 1.0000     0. 
  -6   2  16     54.26    7.06  0. 1.0000     0. 
  -5  -2  16     -0.38    1.54  0. 1.0000     0. 
   5  -2 -16      0.36    1.67  0. 1.0000     0. 
   5   2 -16     -0.52    2.62  0. 1.0000     0. 
   5   2 -16      2.98    2.21  0. 1.0000     0. 
  -5   2  16     -0.21    2.29  0. 1.0000     0. 
  -5   2  16     -0.15    2.33  0. 1.0000     0. 
   4  -2 -16      3.90    1.87  0. 1.0000     0. 
  -4  -2  16      7.21    3.02  0. 1.0000     0. 
  -4  -2  16      5.44    1.49  0. 1.0000     0. 
   4  -2 -16      3.80    1.75  0. 1.0000     0. 
  -4   2  16      3.99    2.24  0. 1.0000     0. 
   4   2 -16      3.81    1.80  0. 1.0000     0. 
   4   2 -16      6.93    2.62  0. 1.0000     0. 
  -4   2  16      7.65    2.78  0. 1.0000     0. 
   3  -2 -16    668.32   34.43  0. 1.0000     0. 
   3  -2 -16    652.82   30.83  0. 1.0000     0. 
  -3  -2  16    693.67   36.43  0. 1.0000     0. 
   3   2 -16    680.33   30.69  0. 1.0000     0. 
  -3   2  16    639.09   30.99  0. 1.0000     0. 
   3   2 -16    644.63   31.96  0. 1.0000     0. 
  -2  -2  16      0.25    1.54  0. 1.0000     0. 
  -2  -2  16      0.47    3.01  0. 1.0000     0. 
   2  -2 -16      2.26    2.06  0. 1.0000     0. 
   2  -2 -16      0.67    1.32  0. 1.0000     0. 
  -2   2  16      0.24    2.00  0. 1.0000     0. 
   2   2 -16     -0.26    2.11  0. 1.0000     0. 
  -2   2  16     -0.42    2.05  0. 1.0000     0. 
   2   2 -16     -0.14    1.97  0. 1.0000     0. 
  -1  -2  16     51.25    3.82  0. 1.0000     0. 
  -1  -2  16     49.19    5.90  0. 1.0000     0. 
   1   2 -16     51.31    4.65  0. 1.0000     0. 
   1   2 -16     54.95    4.73  0. 1.0000     0. 
  -1   2  16     44.59    4.39  0. 1.0000     0. 
   0  -2  16    341.96   21.37  0. 1.0000     0. 
   0  -2  16    377.32   17.82  0. 1.0000     0. 
   0   2 -16    320.93   18.82  0. 1.0000     0. 
   0   2 -16    349.85   17.58  0. 1.0000     0. 
  -1  -2 -16      4.78    1.46  0. 1.0000     0. 
   1  -2  16      0.62    1.77  0. 1.0000     0. 
   1  -2  16      5.43    1.53  0. 1.0000     0. 
  -1   2 -16      6.72    1.96  0. 1.0000     0. 
   1   2  16      6.02    2.06  0. 1.0000     0. 
  -2   2 -16     27.11    3.16  0. 1.0000     0. 
  -7   3  16      2.50   12.74  0. 1.0000     0. 
   6  -3 -16    102.05    9.10  0. 1.0000     0. 
  -6   3  16    141.60   10.79  0. 1.0000     0. 
   6   3 -16    134.66    9.96  0. 1.0000     0. 
   5  -3 -16     23.85    3.18  0. 1.0000     0. 
  -5  -3  16     23.09    2.82  0. 1.0000     0. 
   5  -3 -16     22.21    2.56  0. 1.0000     0. 
  -5   3  16     20.94    3.65  0. 1.0000     0. 
   5   3 -16     20.88    3.26  0. 1.0000     0. 
   5   3 -16     26.09    4.04  0. 1.0000     0. 
  -5   3  16     18.33    4.15  0. 1.0000     0. 
  -4  -3  16     65.38    6.04  0. 1.0000     0. 
   4  -3 -16     68.59    4.93  0. 1.0000     0. 
   4  -3 -16     71.31    5.77  0. 1.0000     0. 
   4   3 -16     72.75    5.77  0. 1.0000     0. 
   4   3 -16     63.47    5.04  0. 1.0000     0. 
  -4   3  16     75.72    6.51  0. 1.0000     0. 
  -4   3  16     73.72    5.63  0. 1.0000     0. 
  -3  -3  16      4.40    1.64  0. 1.0000     0. 
   3  -3 -16      3.19    1.72  0. 1.0000     0. 
   3  -3 -16      4.04    2.01  0. 1.0000     0. 
  -3  -3  16      3.32    2.73  0. 1.0000     0. 
   3   3 -16      2.58    2.50  0. 1.0000     0. 
   3   3 -16      3.64    2.33  0. 1.0000     0. 
  -3   3  16      1.19    2.13  0. 1.0000     0. 
  -3   3  16      5.15    2.37  0. 1.0000     0. 
  -2  -3  16    191.38   13.86  0. 1.0000     0. 
   2  -3 -16    186.63   10.09  0. 1.0000     0. 
   2  -3 -16    181.73   11.83  0. 1.0000     0. 
   2   3 -16    202.16   10.91  0. 1.0000     0. 
  -2   3  16    157.33   11.13  0. 1.0000     0. 
  -2   3  16    188.20   12.06  0. 1.0000     0. 
   2   3 -16    189.53   10.57  0. 1.0000     0. 
  -1  -3  16     64.61    5.02  0. 1.0000     0. 
   1  -3 -16     71.29    5.15  0. 1.0000     0. 
  -1  -3  16     62.38    7.46  0. 1.0000     0. 
   1   3 -16     68.08    5.74  0. 1.0000     0. 
  -1   3  16     62.02    7.23  0. 1.0000     0. 
  -1   3  16     79.89    5.63  0. 1.0000     0. 
   1   3 -16     78.67    6.11  0. 1.0000     0. 
   0  -3  16      4.54    2.13  0. 1.0000     0. 
   0  -3 -16      2.39    1.60  0. 1.0000     0. 
   0  -3  16      3.72    3.31  0. 1.0000     0. 
   0  -3 -16      2.52    1.90  0. 1.0000     0. 
   0   3  16      3.08    2.11  0. 1.0000     0. 
   0   3  16      0.33    2.75  0. 1.0000     0. 
   0   3 -16      1.98    2.50  0. 1.0000     0. 
   0   3 -16      3.95    2.86  0. 1.0000     0. 
  -1  -3 -16    102.21    7.77  0. 1.0000     0. 
  -1  -3 -16    101.86    6.48  0. 1.0000     0. 
   1  -3  16     93.13    9.81  0. 1.0000     0. 
   1   3  16    108.59    7.20  0. 1.0000     0. 
  -1   3 -16    107.20    7.02  0. 1.0000     0. 
  -2   3 -16     27.44    3.45  0. 1.0000     0. 
  -7   2  17    -13.73   73.89  0. 1.0000     0. 
  -5  -2  17     66.72    4.59  0. 1.0000     0. 
   5  -2 -17     60.56    5.20  0. 1.0000     0. 
  -5   2  17     67.70    6.03  0. 1.0000     0. 
  -5   2  17     63.26    5.58  0. 1.0000     0. 
   5   2 -17     64.96    6.09  0. 1.0000     0. 
   5   2 -17     61.49    5.14  0. 1.0000     0. 
   4  -2 -17     52.88    4.33  0. 1.0000     0. 
   4  -2 -17     41.48    4.01  0. 1.0000     0. 
   4   2 -17     42.77    3.93  0. 1.0000     0. 
   4   2 -17     49.29    4.73  0. 1.0000     0. 
   3  -2 -17     39.62    3.72  0. 1.0000     0. 
   3  -2 -17     35.58    3.90  0. 1.0000     0. 
   3   2 -17     50.27    4.36  0. 1.0000     0. 
   3   2 -17     43.70    4.01  0. 1.0000     0. 
  -2  -2  17     16.89    4.04  0. 1.0000     0. 
   2  -2 -17     16.62    2.86  0. 1.0000     0. 
   2  -2 -17     17.32    2.48  0. 1.0000     0. 
  -2  -2  17     15.80    2.35  0. 1.0000     0. 
   2   2 -17     20.38    2.99  0. 1.0000     0. 
  -2   2  17     18.12    2.99  0. 1.0000     0. 
   2   2 -17     18.08    3.09  0. 1.0000     0. 
  -2   2  17     19.29    3.47  0. 1.0000     0. 
   1  -2 -17      2.82    2.32  0. 1.0000     0. 
  -1  -2  17      5.02    2.81  0. 1.0000     0. 
  -1  -2  17      4.43    1.46  0. 1.0000     0. 
   1  -2 -17      5.41    1.77  0. 1.0000     0. 
  -1   2  17      2.94    2.83  0. 1.0000     0. 
   1   2 -17      4.75    2.14  0. 1.0000     0. 
  -1   2  17      5.34    2.25  0. 1.0000     0. 
   1   2 -17      3.74    2.20  0. 1.0000     0. 
   0  -2 -17    424.60   22.93  0. 1.0000     0. 
   0  -2  17    395.21   21.22  0. 1.0000     0. 
   0   2 -17    405.13   21.31  0. 1.0000     0. 
   0   2 -17    429.57   20.12  0. 1.0000     0. 
   0   2  17    411.13   24.31  0. 1.0000     0. 
   1  -2  17     41.26    3.46  0. 1.0000     0. 
  -1   2 -17     54.67    4.52  0. 1.0000     0. 
   1   2  17     57.45    4.81  0. 1.0000     0. 
  -7   3  17      1.09   11.96  0. 1.0000     0. 
  -6  -3  17     88.72    6.88  0. 1.0000     0. 
   6  -3 -17     99.81    8.28  0. 1.0000     0. 
   6   3 -17     95.06    8.05  0. 1.0000     0. 
  -6   3  17    114.75    9.28  0. 1.0000     0. 
  -5  -3  17     75.16    7.18  0. 1.0000     0. 
   5  -3 -17     76.25    6.10  0. 1.0000     0. 
   5  -3 -17     71.91    5.50  0. 1.0000     0. 
  -5   3  17     79.88    6.30  0. 1.0000     0. 
   5   3 -17     84.44    6.93  0. 1.0000     0. 
  -5   3  17     81.32    7.71  0. 1.0000     0. 
   5   3 -17     79.64    5.98  0. 1.0000     0. 
  -4  -3  17     49.37    3.87  0. 1.0000     0. 
   4  -3 -17     42.66    3.74  0. 1.0000     0. 
   4  -3 -17     47.31    4.54  0. 1.0000     0. 
   4   3 -17     61.72    5.57  0. 1.0000     0. 
  -4   3  17     49.66    5.50  0. 1.0000     0. 
  -3  -3  17      4.00    3.16  0. 1.0000     0. 
   3  -3 -17      2.67    1.85  0. 1.0000     0. 
   3  -3 -17      3.63    1.69  0. 1.0000     0. 
  -3  -3  17      5.19    1.68  0. 1.0000     0. 
  -3   3  17      3.55    2.72  0. 1.0000     0. 
   3   3 -17      4.94    2.73  0. 1.0000     0. 
  -3   3  17      4.92    2.60  0. 1.0000     0. 
   3   3 -17      4.55    2.63  0. 1.0000     0. 
   2  -3 -17    140.14    9.85  0. 1.0000     0. 
   2  -3 -17    153.96    8.47  0. 1.0000     0. 
  -2  -3  17    153.38   11.79  0. 1.0000     0. 
   2   3 -17    143.96    9.18  0. 1.0000     0. 
  -2   3  17    148.54    9.62  0. 1.0000     0. 
   2   3 -17    151.93    9.44  0. 1.0000     0. 
   1  -3 -17     49.25    4.78  0. 1.0000     0. 
  -1  -3  17     45.17    3.76  0. 1.0000     0. 
   1   3 -17     53.25    5.25  0. 1.0000     0. 
  -1   3  17     51.00    4.57  0. 1.0000     0. 
  -1   3  17     46.89    6.46  0. 1.0000     0. 
   1   3 -17     43.18    4.67  0. 1.0000     0. 
   0  -3  17     46.39    6.10  0. 1.0000     0. 
   0  -3 -17     39.02    3.66  0. 1.0000     0. 
   0   3  17     39.21    5.73  0. 1.0000     0. 
   0   3  17     41.71    4.30  0. 1.0000     0. 
   0   3 -17     42.39    4.43  0. 1.0000     0. 
   0   3 -17     47.83    5.23  0. 1.0000     0. 
  -1  -3 -17      4.14    1.71  0. 1.0000     0. 
   1  -3  17      5.51    3.11  0. 1.0000     0. 
  -1  -3 -17      3.76    2.17  0. 1.0000     0. 
   1  -3  17      3.59    1.89  0. 1.0000     0. 
  -1   3 -17      4.75    2.34  0. 1.0000     0. 
   1   3  17      1.95    2.16  0. 1.0000     0. 
   6  -2 -18    202.04   13.32  0. 1.0000     0. 
  -6   2  18    207.46   14.93  0. 1.0000     0. 
   6   2 -18    204.00   13.84  0. 1.0000     0. 
   5  -2 -18      1.04    1.76  0. 1.0000     0. 
   5  -2 -18      0.76    1.88  0. 1.0000     0. 
  -5   2  18      2.80    2.72  0. 1.0000     0. 
   5   2 -18      2.45    3.07  0. 1.0000     0. 
  -5   2  18      3.34    3.50  0. 1.0000     0. 
   4  -2 -18     10.26    2.07  0. 1.0000     0. 
   4  -2 -18      9.09    2.15  0. 1.0000     0. 
   4   2 -18      3.55    2.94  0. 1.0000     0. 
  -4   2  18      8.79    2.78  0. 1.0000     0. 
  -4   2  18      9.40    3.11  0. 1.0000     0. 
   4   2 -18      8.12    2.22  0. 1.0000     0. 
   2  -2 -18     11.94    3.01  0. 1.0000     0. 
   2  -2 -18     11.46    2.41  0. 1.0000     0. 
   2   2 -18     13.07    2.93  0. 1.0000     0. 
  -2   2  18     15.72    2.74  0. 1.0000     0. 
   1  -2 -18     -1.42    2.16  0. 1.0000     0. 
   1  -2 -18      0.68    1.32  0. 1.0000     0. 
   1   2 -18     -0.84    2.23  0. 1.0000     0. 
   1   2 -18     -0.28    2.40  0. 1.0000     0. 
  -1   2  18      1.99    2.35  0. 1.0000     0. 
  -1   2  18      0.41    2.34  0. 1.0000     0. 
   0  -2 -18     27.95    3.37  0. 1.0000     0. 
   0  -2 -18     17.33    2.40  0. 1.0000     0. 
   0   2 -18     25.45    3.35  0. 1.0000     0. 
   0   2  18     21.14    3.15  0. 1.0000     0. 
  -1  -2 -18      2.30    2.00  0. 1.0000     0. 
   1   2  18      2.84    2.36  0. 1.0000     0. 
  -1   2 -18      3.22    1.79  0. 1.0000     0. 
   6  -3 -18     35.52    3.92  0. 1.0000     0. 
  -6  -3  18     32.00    4.19  0. 1.0000     0. 
   6  -3 -18     55.16    5.86  0. 1.0000     0. 
   6   3 -18     60.21    6.97  0. 1.0000     0. 
  -5  -3  18     -0.14    1.43  0. 1.0000     0. 
   5  -3 -18      1.54    2.29  0. 1.0000     0. 
   5  -3 -18     -0.70    1.69  0. 1.0000     0. 
  -5  -3  18      1.05    2.07  0. 1.0000     0. 
  -5   3  18      0.29    2.72  0. 1.0000     0. 
   5   3 -18      0.85    2.29  0. 1.0000     0. 
  -5   3  18      0.95    2.58  0. 1.0000     0. 
   5   3 -18      1.65    2.68  0. 1.0000     0. 
  -4  -3  18      4.55    2.93  0. 1.0000     0. 
  -4  -3  18      5.83    2.00  0. 1.0000     0. 
   4  -3 -18      9.00    2.56  0. 1.0000     0. 
   4  -3 -18      8.54    1.97  0. 1.0000     0. 
  -4   3  18      5.61    2.99  0. 1.0000     0. 
  -4   3  18      9.27    2.83  0. 1.0000     0. 
   4   3 -18      8.96    2.51  0. 1.0000     0. 
   4   3 -18      9.45    3.16  0. 1.0000     0. 
  -3  -3  18     49.08    3.67  0. 1.0000     0. 
   3  -3 -18     42.00    4.51  0. 1.0000     0. 
   3  -3 -18     40.16    3.69  0. 1.0000     0. 
  -3  -3  18     43.14    6.06  0. 1.0000     0. 
   3   3 -18     42.96    4.52  0. 1.0000     0. 
   3   3 -18     46.64    4.71  0. 1.0000     0. 
  -2  -3  18     16.00    4.34  0. 1.0000     0. 
   2  -3 -18     25.01    3.53  0. 1.0000     0. 
   2  -3 -18     22.09    2.95  0. 1.0000     0. 
  -2  -3  18     21.47    2.73  0. 1.0000     0. 
   2   3 -18     23.19    3.38  0. 1.0000     0. 
   2   3 -18     23.93    3.95  0. 1.0000     0. 
  -2   3  18     18.59    4.56  0. 1.0000     0. 
  -2   3  18     21.40    3.44  0. 1.0000     0. 
  -1  -3  18      0.25    2.78  0. 1.0000     0. 
  -1  -3  18      1.11    1.31  0. 1.0000     0. 
   1  -3 -18      2.66    1.83  0. 1.0000     0. 
   1  -3 -18      0.69    1.96  0. 1.0000     0. 
   1   3 -18      4.36    2.74  0. 1.0000     0. 
  -1   3  18      2.82    2.22  0. 1.0000     0. 
  -1   3  18      1.70    2.77  0. 1.0000     0. 
   1   3 -18      3.67    2.69  0. 1.0000     0. 
   0  -3  18     18.99    4.85  0. 1.0000     0. 
   0  -3  18     16.36    2.21  0. 1.0000     0. 
   0  -3 -18     14.30    2.79  0. 1.0000     0. 
   0  -3 -18     13.83    2.39  0. 1.0000     0. 
   0   3  18     17.95    3.22  0. 1.0000     0. 
   0   3 -18     19.42    3.96  0. 1.0000     0. 
   0   3 -18     19.17    2.91  0. 1.0000     0. 
   1  -3  18     22.73    2.77  0. 1.0000     0. 
  -1  -3 -18     20.73    3.09  0. 1.0000     0. 
  -1   3 -18     25.66    3.22  0. 1.0000     0. 
   1   3  18     12.50    3.33  0. 1.0000     0. 
  -6  -3  19     18.05    3.17  0. 1.0000     0. 
  -5  -3  19     12.12    2.27  0. 1.0000     0. 
   5  -3 -19      8.81    2.55  0. 1.0000     0. 
   5   3 -19      9.55    2.87  0. 1.0000     0. 
  -5   3  19     11.00    3.23  0. 1.0000     0. 
   4  -3 -19     39.92    4.29  0. 1.0000     0. 
  -4  -3  19     40.44    3.58  0. 1.0000     0. 
   4   3 -19     46.38    4.20  0. 1.0000     0. 
  -4   3  19     40.37    4.48  0. 1.0000     0. 
   3  -3 -19     55.80    5.19  0. 1.0000     0. 
  -3  -3  19     46.45    3.89  0. 1.0000     0. 
   3  -3 -19     47.15    4.14  0. 1.0000     0. 
   3   3 -19     56.60    5.54  0. 1.0000     0. 
   3   3 -19     47.77    4.72  0. 1.0000     0. 
  -3   3  19     55.24    5.00  0. 1.0000     0. 
  -2  -3  19     32.56    5.35  0. 1.0000     0. 
  -2  -3  19     32.16    3.36  0. 1.0000     0. 
   2  -3 -19     34.06    4.16  0. 1.0000     0. 
   2   3 -19     34.30    4.00  0. 1.0000     0. 
  -1  -3  19     17.20    2.30  0. 1.0000     0. 
   1  -3 -19     22.41    3.21  0. 1.0000     0. 
  -1   3  19     19.31    3.16  0. 1.0000     0. 
   1   3 -19     22.87    3.42  0. 1.0000     0. 
   0  -3  19     40.52    3.42  0. 1.0000     0. 
   0   3 -19     42.85    4.00  0. 1.0000     0. 
-512 
#   2221 reflections output 
;
loop_
_symmetry_equiv_pos_as_xyz
x,y,z
-x,-y,-z
-x,y+1/2,-z+1/2
x,-y+1/2,z+1/2
loop_
_atom_site_label
_atom_site_type_symbol
_atom_site_fract_x
_atom_site_fract_y
_atom_site_fract_z
_atom_site_U_iso_or_equiv
_atom_site_occupancy
_atom_site_adp_type
_atom_site_refinement_flags_posn
_atom_site_refinement_flags_adp
_atom_site_refinement_flags_occupancy
_atom_site_disorder_assembly
_atom_site_disorder_group
_atom_site_attached_hydrogens
S1 S 0.4373(4) 0.3060(4) 0.33878(12) 0.0379 1.0000 Uani D U . . . .
N2 N 0.3139(8) 0.1820(12) 0.2417(3) 0.0372 1.0000 Uani D U . . . .
S3 S 0.1477(4) 0.0586(4) 0.25180(10) 0.0326 1.0000 Uani D U . . . .
C4 C 0.1795(7) 0.1189(10) 0.3715(3) 0.0256 1.0000 Uani D U . . . .
C5 C 0.3255(7) 0.2457(11) 0.4148(3) 0.0263 1.0000 Uani D U . . . .
N6 N 0.3495(8) 0.2984(11) 0.5061(3) 0.0295 1.0000 Uani D U . . . .
S7 S 0.1955(4) 0.1825(3) 0.53430(9) 0.0280 1.0000 Uani D U . . . .
N8 N 0.0947(8) 0.0694(11) 0.4295(3) 0.0280 1.0000 Uani D U . . . .
loop_
_atom_site_aniso_label
_atom_site_aniso_U_11
_atom_site_aniso_U_22
_atom_site_aniso_U_33
_atom_site_aniso_U_23
_atom_site_aniso_U_13
_atom_site_aniso_U_12
S1 0.042(5) 0.0490(9) 0.0328(11) 0.0115(5) 0.0279(17) 0.0071(10)
N2 0.053(6) 0.045(2) 0.0258(19) 0.0033(15) 0.032(2) 0.007(3)
S3 0.045(5) 0.0397(7) 0.0195(8) 0.0026(4) 0.0192(15) 0.0081(8)
C4 0.038(6) 0.0234(15) 0.0220(16) -0.0011(13) 0.020(2) -0.002(3)
C5 0.034(6) 0.0286(16) 0.0227(18) 0.0042(13) 0.019(3) 0.003(3)
N6 0.032(6) 0.0392(19) 0.0234(19) 0.0015(14) 0.018(3) 0.004(3)
S7 0.036(5) 0.0333(6) 0.0202(8) -0.0017(3) 0.0181(15) -0.0039(7)
N8 0.036(6) 0.0334(16) 0.0212(17) -0.0001(12) 0.019(2) -0.003(3)
loop_
_atom_type_symbol
_atom_type_scat_dispersion_real
_atom_type_scat_dispersion_imag
_atom_type_scat_Cromer_Mann_a1
_atom_type_scat_Cromer_Mann_b1
_atom_type_scat_Cromer_Mann_a2
_atom_type_scat_Cromer_Mann_b2
_atom_type_scat_Cromer_Mann_a3
_atom_type_scat_Cromer_Mann_b3
_atom_type_scat_Cromer_Mann_a4
_atom_type_scat_Cromer_Mann_b4
_atom_type_scat_Cromer_Mann_c
_atom_type_scat_source
C 0.0006 0.0007 2.3100 20.8439 1.0200 10.2075 1.5886 0.5687 0.8650 51.6512
0.2156 'International Tables Vol C 4.2.6.8 and 6.1.1.4'
N 0.0016 0.0014 12.2126 0.0057 3.1322 9.8933 2.0125 28.9975 1.1663 0.5826
-11.5290 'International Tables Vol C 4.2.6.8 and 6.1.1.4'
S 0.0630 0.0572 6.9053 1.4679 5.2034 22.2151 1.4379 0.2536 1.5863 56.1720
0.8669 'International Tables Vol C 4.2.6.8 and 6.1.1.4'
loop_
_geom_angle_atom_site_label_1
_geom_angle_site_symmetry_1
_geom_angle_atom_site_label_2
_geom_angle_site_symmetry_2
_geom_angle_atom_site_label_3
_geom_angle_site_symmetry_3
_geom_angle
_geom_angle_publ_flag
N2 . S1 . C5 . 97.5(3) yes
S1 . N2 . S3 . 117.0(3) yes
N2 . S3 . C4 . 97.9(3) yes
S3 . C4 . C5 . 113.4(3) yes
S3 . C4 . N8 . 132.3(4) yes
C5 . C4 . N8 . 114.3(4) yes
C4 . C5 . S1 . 114.3(3) yes
C4 . C5 . N6 . 113.5(4) yes
S1 . C5 . N6 . 132.2(4) yes
C5 . N6 . S7 . 106.9(4) yes
N6 . S7 . N8 . 98.6(3) yes
C4 . N8 . S7 . 106.7(4) yes
loop_
_geom_bond_atom_site_label_1
_geom_bond_site_symmetry_1
_geom_bond_atom_site_label_2
_geom_bond_site_symmetry_2
_geom_bond_distance
_geom_bond_publ_flag
S1 . N2 . 1.661(6) yes
S1 . C5 . 1.732(5) yes
N2 . S3 . 1.655(7) yes
S3 . C4 . 1.738(4) yes
C4 . C5 . 1.426(7) yes
C4 . N8 . 1.321(6) yes
C5 . N6 . 1.329(5) yes
N6 . S7 . 1.648(6) yes
S7 . N8 . 1.651(5) yes
