#------------------------------------------------------------------------------
#$Date: 2021-03-05 03:43:19 +0200 (Fri, 05 Mar 2021) $
#$Revision: 262555 $
#$URL: file:///home/coder/svn-repositories/cod/cif/7/24/22/7242238.cif $
#------------------------------------------------------------------------------
#
# This file is available in the Crystallography Open Database (COD),
# http://www.crystallography.net/
#
# All data on this site have been placed in the public domain by the
# contributors.
#
data_7242238
loop_
_publ_author_name
'Humphreys, Joshua'
'Pop, Flavia'
'Hume, Paul A.'
'Murphy, Alanna S.'
'Lewis, William'
'Davies, E. Stephen'
'Argent, Stephen P.'
'Amabilino, David B.'
_publ_section_title
;
 Solid state structure and properties of phenyl diketopyrrolopyrrole
 derivatives
;
_journal_issue                   8
_journal_name_full               CrystEngComm
_journal_page_first              1796
_journal_page_last               1814
_journal_paper_doi               10.1039/D1CE00039J
_journal_volume                  23
_journal_year                    2021
_chemical_formula_moiety         'C30 H36 N2 O4'
_chemical_formula_sum            'C30 H36 N2 O4'
_chemical_formula_weight         488.61
_chemical_name_systematic
'2,5-Dihexyl-3,6-bis(4-hydroxyphenyl)-2,5-dihydropyrrolo[3,4- c]pyrrole-1,4-dione'
_space_group_crystal_system      triclinic
_space_group_IT_number           2
_space_group_name_Hall           '-P 1'
_space_group_name_H-M_alt        'P -1'
_atom_sites_solution_hydrogens   geom
_atom_sites_solution_primary     direct
_atom_sites_solution_secondary   difmap
_audit_creation_date             2019-06-04
_audit_creation_method
;
Olex2 1.2
(compiled 2018.05.29 svn.r3508 for OlexSys, GUI svn.r5506)
;
_audit_update_record
;
2020-05-26 deposited with the CCDC.	2021-02-04 downloaded from the CCDC.
;
_cell_angle_alpha                76.61(2)
_cell_angle_beta                 85.29(2)
_cell_angle_gamma                76.64(2)
_cell_formula_units_Z            1
_cell_length_a                   5.2797(14)
_cell_length_b                   7.831(2)
_cell_length_c                   16.028(3)
_cell_measurement_reflns_used    453
_cell_measurement_temperature    120(2)
_cell_measurement_theta_max      73.2930
_cell_measurement_theta_min      5.7010
_cell_volume                     626.9(3)
_computing_cell_refinement       'CrysAlisPro 1.171.38.46 (Rigaku OD, 2015)'
_computing_data_collection       'CrysAlisPro 1.171.38.46 (Rigaku OD, 2015)'
_computing_data_reduction        'CrysAlisPro 1.171.38.46 (Rigaku OD, 2015)'
_computing_molecular_graphics    'Olex2 (Dolomanov et al., 2009)'
_computing_publication_material  'Olex2 (Dolomanov et al., 2009)'
_computing_structure_refinement  'ShelXL (Sheldrick, 2015)'
_computing_structure_solution    'ShelXT (Sheldrick, 2015)'
_diffrn_ambient_environment      'N2 gas'
_diffrn_ambient_temperature      120(2)
_diffrn_crystal_treatment        'flash frozen in gaseous N2'
_diffrn_detector                 'CCD area detector'
_diffrn_detector_area_resol_mean 4.2207
_diffrn_detector_type            'Agilent Diffraction Titan S2 detector'
_diffrn_measured_fraction_theta_full 0.987
_diffrn_measured_fraction_theta_max 0.953
_diffrn_measurement_details
;
List of Runs (angles in degrees, time in seconds):

  # Type    Start    End  Width  t~exp~   \w     \q     \k     \f   Frames
#--------------------------------------------------------------------------
  1  \w    -47.00 -15.00   1.00   30.00    --  -43.56 125.00 -60.00   32
  2  \w    -94.00 -51.00   1.00   30.00    --  -43.56 125.00 -60.00   43
  3  \w    -27.00  65.00   1.00   30.00    --   43.56 -38.00  90.00   92
  4  \w     16.00 119.00   1.00   30.00    --   43.56  19.00 -90.00  103
  5  \w     69.00 109.00   1.00  120.00    --  103.00 -94.00  60.00   40
  6  \w     31.00  70.00   1.00  120.00    --  103.00 -77.00 -90.00   39
  7  \w     38.00  72.00   1.00  120.00    --  103.00-125.00-120.00   34
  8  \w     31.00  84.00   1.00  120.00    --  103.00 -30.00  90.00   53
  9  \w     37.00  63.00   1.00  120.00    --  103.00 -45.00  30.00   26
 10  \w     26.00  66.00   1.00  120.00    --  103.00 -94.00  60.00   40
 11  \w    114.00 178.00   1.00  120.00    --  103.00  15.00  30.00   64
 12  \w     79.00 133.00   1.00  120.00    --  103.00 -77.00 120.00   54
 13  \w     88.00 126.00   1.00  120.00    --  103.00 -77.00 -90.00   38
 14  \w     44.00  70.00   1.00  120.00    --  103.00 -77.00 120.00   26
 15  \w     87.00 112.00   1.00  120.00    --  103.00-125.00-120.00   25
 16  \w     69.00  95.00   1.00  120.00    --  103.00  15.00  30.00   26
 17  \w     35.00  70.00   1.00  120.00    --  103.00 -30.00 -60.00   35
 18  \w     56.00 106.00   1.00  120.00    --  103.00 -94.00 -60.00   50
 19  \w     44.00  87.00   1.00  120.00    --  103.00 -30.00  30.00   43
 20  \w     33.00 119.00   1.00  120.00    --  103.00 -15.00-180.00   86
;
_diffrn_measurement_device       '\k-geometry diffractometer'
_diffrn_measurement_device_type  'SuperNova, Titan S2'
_diffrn_measurement_method       '\w scans'
_diffrn_measurement_specimen_support 'MiTeGen micromount'
_diffrn_orient_matrix_type
'CrysAlisPro convention (1999,Acta A55,543-557)'
_diffrn_orient_matrix_UB_11      -0.0736011000
_diffrn_orient_matrix_UB_12      -0.1808266000
_diffrn_orient_matrix_UB_13      0.0035258000
_diffrn_orient_matrix_UB_21      -0.0193642000
_diffrn_orient_matrix_UB_22      0.0471240000
_diffrn_orient_matrix_UB_23      -0.0983944000
_diffrn_orient_matrix_UB_31      0.2902338000
_diffrn_orient_matrix_UB_32      -0.0895836000
_diffrn_orient_matrix_UB_33      -0.0087561000
_diffrn_radiation_collimation    'focusing mirrors'
_diffrn_radiation_monochromator  mirror
_diffrn_radiation_probe          x-ray
_diffrn_radiation_type           CuK\a
_diffrn_radiation_wavelength     1.54184
_diffrn_radiation_wavelength_determination fundamental
_diffrn_reflns_av_R_equivalents  0.1408
_diffrn_reflns_av_unetI/netI     0.2050
_diffrn_reflns_Laue_measured_fraction_full 0.987
_diffrn_reflns_Laue_measured_fraction_max 0.953
_diffrn_reflns_limit_h_max       6
_diffrn_reflns_limit_h_min       -4
_diffrn_reflns_limit_k_max       9
_diffrn_reflns_limit_k_min       -9
_diffrn_reflns_limit_l_max       19
_diffrn_reflns_limit_l_min       -19
_diffrn_reflns_number            4095
_diffrn_reflns_point_group_measured_fraction_full 0.987
_diffrn_reflns_point_group_measured_fraction_max 0.953
_diffrn_reflns_theta_full        67.684
_diffrn_reflns_theta_max         73.579
_diffrn_reflns_theta_min         5.677
_diffrn_source                   'microfocus sealed tube'
_diffrn_source_current           0.8
_diffrn_source_power             0.04
_diffrn_source_target            Cu
_diffrn_source_type              'Agilent Diffraction microfocus tube'
_diffrn_source_voltage           50
_exptl_absorpt_coefficient_mu    0.683
_exptl_absorpt_correction_T_max  1.000
_exptl_absorpt_correction_T_min  0.887
_exptl_absorpt_correction_type   gaussian
_exptl_absorpt_process_details
;
CrysAlisPro 1.171.38.46 (Rigaku Oxford Diffraction, 2015)
Numerical absorption correction based on gaussian integration over
			a multifaceted crystal model
Empirical absorption correction using spherical harmonics,
 implemented in SCALE3 ABSPACK scaling algorithm.
;
_exptl_crystal_colour            'clear orangish yellow'
_exptl_crystal_colour_lustre     clear
_exptl_crystal_colour_modifier   orangish
_exptl_crystal_colour_primary    yellow
_exptl_crystal_density_diffrn    1.294
_exptl_crystal_description       plate
_exptl_crystal_F_000             262
_exptl_crystal_recrystallization_method
'grown by slow evaporation from a concentrated THF solution'
_exptl_crystal_size_max          0.141
_exptl_crystal_size_mid          0.048
_exptl_crystal_size_min          0.036
_refine_diff_density_max         0.292
_refine_diff_density_min         -0.330
_refine_diff_density_rms         0.081
_refine_ls_extinction_method     none
_refine_ls_goodness_of_fit_ref   0.983
_refine_ls_hydrogen_treatment    constr
_refine_ls_matrix_type           full
_refine_ls_number_parameters     165
_refine_ls_number_reflns         2419
_refine_ls_number_restraints     0
_refine_ls_restrained_S_all      0.983
_refine_ls_R_factor_all          0.1663
_refine_ls_R_factor_gt           0.0880
_refine_ls_shift/su_max          0.000
_refine_ls_shift/su_mean         0.000
_refine_ls_structure_factor_coef Fsqd
_refine_ls_weighting_details
'w=1/[\s^2^(Fo^2^)+(0.0180P)^2^] where P=(Fo^2^+2Fc^2^)/3'
_refine_ls_weighting_scheme      calc
_refine_ls_wR_factor_gt          0.1686
_refine_ls_wR_factor_ref         0.2184
_reflns_Friedel_coverage         0.000
_reflns_number_gt                1189
_reflns_number_total             2419
_reflns_threshold_expression     'I > 2\s(I)'
_cod_data_source_file            d1ce00039j2.cif
_cod_data_source_block           PhOHDPP-N-Hex
_cod_depositor_comments
'Adding full bibliography for 7242233--7242239.cif.'
_cod_original_cell_volume        627.0(3)
_cod_database_code               7242238
_shelx_shelxl_version_number     2018/3
_chemical_oxdiff_formula         'C30 H36 O4 N2'
_chemical_oxdiff_usercomment
'OJHALZ #16971 GVA-1215 FOMBLIN ON MICROMOUNT FOR JH/DBA'
_shelx_space_group_comment
;
The symmetry employed for this shelxl refinement is uniquely defined
by the following loop, which should always be used as a source of
symmetry information in preference to the above space-group names.
They are only intended as comments.
;
_shelx_estimated_absorpt_t_max   0.976
_shelx_estimated_absorpt_t_min   0.910
_reflns_odcompleteness_completeness 98.89
_reflns_odcompleteness_iscentric 1
_reflns_odcompleteness_theta     66.97
_olex2_refinement_description
;
1. Fixed Uiso
 At 1.2 times of:
  All C(H) groups, All C(H,H) groups
 At 1.5 times of:
  All C(H,H,H) groups, All O(H) groups
2.a Secondary CH2 refined with riding coordinates:
 C10(H10a,H10b), C11(H11a,H11b), C12(H12a,H12b), C13(H13a,H13b), C14(H14a,H14b)
2.b Aromatic/amide H refined with riding coordinates:
 C8(H2), C6(H3), C5(H5), C7(H6)
2.c Idealised Me refined as rotating group:
 C15(H15a,H15b,H15c)
2.d Idealised tetrahedral OH refined as rotating group:
 O2(H1)
;
_shelx_res_file
;
TITL ojhalz_a.res in P-1
    ojhalz.res
    created by SHELXL-2018/3 at 22:42:00 on 03-Jun-2019
REM Old TITL OJHALZ in P-1 #2
REM SHELXT solution in P-1
REM R1 0.217, Rweak 0.014, Alpha 0.058, Orientation as input
REM Formula found by SHELXT: C15 N O2
CELL 1.54184 5.279711 7.831411 16.028002 76.6141 85.2915 76.6366
ZERR 1 0.001419 0.001979 0.003264 0.0197 0.0208 0.0228
LATT 1
SFAC C H N O
UNIT 30 36 2 4

L.S. 10
PLAN  20
SIZE 0.036 0.048 0.141
TEMP -153(2)
BOND $H
fmap 2
acta
OMIT 0 2 18
OMIT 1 5 2
OMIT 0 0 1
REM <olex2.extras>
REM <HklSrc "%.\\OJHALZ.hkl">
REM </olex2.extras>

WGHT    0.018000
FVAR       1.22032
O1    4   -0.052585   -0.003178    0.769700    11.00000    0.03191    0.02821 =
         0.02556   -0.00573    0.00722   -0.01745
AFIX 147
H1    2   -0.137071   -0.062517    0.807670    11.00000   -1.50000
AFIX   0
O2    4    0.688251    0.811635    0.896285    11.00000    0.03836    0.03136 =
         0.02560   -0.00486    0.00501   -0.01882
N1    3    0.501933    0.593616    0.863912    11.00000    0.01952    0.03088 =
         0.02090   -0.00554    0.00500   -0.01162
C1    1    0.055974    0.104048    0.805352    11.00000    0.01771    0.02604 =
         0.02651   -0.00430    0.00078   -0.00859
C2    1    0.245517    0.183927    0.756987    11.00000    0.02257    0.02476 =
         0.01938   -0.00497    0.00513   -0.00878
AFIX  43
H2    2    0.295146    0.161819    0.701470    11.00000   -1.20000
AFIX   0
C3    1    0.362932    0.295649    0.789024    11.00000    0.01917    0.02167 =
         0.02508   -0.00394    0.00649   -0.00957
AFIX  43
H3    2    0.496259    0.346478    0.756200    11.00000   -1.20000
AFIX   0
C4    1    0.285569    0.333546    0.869404    11.00000    0.01518    0.02516 =
         0.02421   -0.00039   -0.00098   -0.00646
C5    1    0.093964    0.252988    0.917540    11.00000    0.02369    0.02104 =
         0.02531   -0.00441    0.00711   -0.01056
AFIX  43
H5    2    0.042266    0.275636    0.972848    11.00000   -1.20000
AFIX   0
C6    1   -0.021491    0.140187    0.885272    11.00000    0.01682    0.02772 =
         0.02591   -0.00515    0.01001   -0.00853
AFIX  43
H6    2   -0.153573    0.087880    0.918061    11.00000   -1.20000
AFIX   0
C7    1    0.404919    0.447189    0.908702    11.00000    0.01533    0.02361 =
         0.02936   -0.00587    0.00933   -0.00624
C8    1    0.439328    0.431163    0.993966    11.00000    0.01583    0.02532 =
         0.02942   -0.00616    0.00309   -0.00583
C9    1    0.597702    0.676933    0.920613    11.00000    0.01946    0.03036 =
         0.02535   -0.00793    0.00684   -0.00840
C10   1    0.490300    0.677703    0.773126    11.00000    0.01971    0.02488 =
         0.02186   -0.00738    0.00417   -0.00701
AFIX  23
H10A  2    0.433357    0.809658    0.766421    11.00000   -1.20000
H10B  2    0.358183    0.636429    0.747064    11.00000   -1.20000
AFIX   0
C11   1    0.749629    0.635562    0.725077    11.00000    0.01878    0.03254 =
         0.02121   -0.00761    0.00282   -0.00616
AFIX  23
H11A  2    0.810096    0.503583    0.732855    11.00000   -1.20000
H11B  2    0.880943    0.681008    0.749288    11.00000   -1.20000
AFIX   0
C12   1    0.726144    0.721063    0.629813    11.00000    0.02570    0.03493 =
         0.02063   -0.00311    0.00490   -0.00621
AFIX  23
H12A  2    0.642638    0.850298    0.622634    11.00000   -1.20000
H12B  2    0.612079    0.663786    0.604369    11.00000   -1.20000
AFIX   0
C13   1    0.989668    0.702446    0.581448    11.00000    0.02352    0.03657 =
         0.03090   -0.00891    0.00449   -0.01249
AFIX  23
H13A  2    1.096335    0.771196    0.602728    11.00000   -1.20000
H13B  2    1.081578    0.574337    0.594184    11.00000   -1.20000
AFIX   0
C14   1    0.968022    0.768792    0.484670    11.00000    0.02457    0.04468 =
         0.02662   -0.01106    0.00866   -0.01183
AFIX  23
H14A  2    0.875836    0.896840    0.471893    11.00000   -1.20000
H14B  2    0.861839    0.699826    0.463322    11.00000   -1.20000
AFIX   0
C15   1    1.230953    0.750421    0.436782    11.00000    0.03059    0.04973 =
         0.03340   -0.01045    0.00615   -0.00940
AFIX 137
H15A  2    1.204445    0.796507    0.375134    11.00000   -1.50000
H15B  2    1.320899    0.623411    0.447372    11.00000   -1.50000
H15C  2    1.336656    0.819527    0.457034    11.00000   -1.50000
AFIX   0
HKLF 4




REM  ojhalz_a.res in P-1
REM wR2 = 0.2184, GooF = S = 0.983, Restrained GooF = 0.983 for all data
REM R1 = 0.0880 for 1189 Fo > 4sig(Fo) and 0.1663 for all 2419 data
REM 165 parameters refined using 0 restraints

END

WGHT      0.0180      0.0000

REM Highest difference peak  0.292,  deepest hole -0.330,  1-sigma level  0.081
Q1    1   0.7321  0.6615  0.6788  11.00000  0.05    0.29
Q2    1   0.0979  0.2196  0.9969  11.00000  0.05    0.27
Q3    1   0.4442  0.3318  1.0152  11.00000  0.05    0.27
Q4    1   0.9665  0.3724  0.7020  11.00000  0.05    0.27
Q5    1   0.2663  0.3569  0.8139  11.00000  0.05    0.27
Q6    1   0.7523  0.7442  0.5613  11.00000  0.05    0.27
Q7    1   0.4258  0.6578  0.7581  11.00000  0.05    0.27
Q8    1   1.2229  0.8209  0.3427  11.00000  0.05    0.26
Q9    1  -0.2369 -0.1988  0.8182  11.00000  0.05    0.25
Q10   1   1.5331  0.7551  0.3879  11.00000  0.05    0.25
Q11   1   0.4962  0.6001  0.8121  11.00000  0.05    0.25
Q12   1   0.2550  0.2432  0.9045  11.00000  0.05    0.24
Q13   1   0.0342  0.0836  0.8745  11.00000  0.05    0.24
Q14   1   0.6875  0.3298  0.9172  11.00000  0.05    0.23
Q15   1   0.3318  0.4518  0.9717  11.00000  0.05    0.23
Q16   1   0.3297  0.1945  0.6733  11.00000  0.05    0.23
Q17   1   0.7730  0.7493  0.3855  11.00000  0.05    0.22
Q18   1   1.4015  0.7358  0.4600  11.00000  0.05    0.22
Q19   1  -0.0677  0.1987  0.8179  11.00000  0.05    0.22
Q20   1   0.0715  0.2148  0.7747  11.00000  0.05    0.22
;
_shelx_res_checksum              24110
_shelx_hkl_file
;
   0   0  -1 1687.69   63.19
   0   0  -2  222.57   34.22
   0   0  -3 2995.38  151.27
   0   0  -4    3.49   19.72
   0   0  -5   30.47   23.35
   0   0  -6 4021.83  263.17
   0   0  -7  256.96   69.93
   0   0  -8 1361.09  184.87
   0   0  -9 1467.94  216.21
   0   0 -10  340.28  123.71
   0   0 -11  -18.31   19.74
   0   0  11   13.02   11.26
   0   0  11   19.26   30.90
   0   0 -12   14.41   22.80
   0   0 -12  -43.25   71.66
   0   0  12    3.28   19.17
   0   0 -13   64.18   31.68
   0   0 -13   65.61   55.82
   0   0  13   34.82   25.72
   0   0 -14  131.29   39.81
   0   0 -14  218.00  100.46
   0   0  14  136.01   35.45
   0   0  15   24.34   12.69
   0   0 -15  -13.49   14.75
   0   0 -16  -11.50   17.68
   0   0  16  -25.81   11.23
   0   0  17    1.83    7.25
   0   0 -17    0.51   10.23
   0   0 -18   15.37   12.60
   0   0  18   14.95   16.91
   0  -1  18   10.41   10.22
   0  -1  17   -0.25    8.82
   0   1 -17    6.25    8.12
   0   1 -16    1.24    7.88
   0  -1  16    2.45   14.50
   0  -1  15   36.63   21.31
   0   1 -15   20.48   20.04
   0   1 -14   49.47   30.53
   0  -1  14   79.70   26.98
   0   1 -13   -6.95   41.43
   0  -1  13   18.15   14.62
   0  -1  12   21.36   21.60
   0   1 -12   23.85   28.04
   0   1 -11   96.29   62.79
   0  -1  11   72.57   24.34
   0  -1  10    5.28    8.44
   0   1 -10   26.40   46.39
   0   1  -9   15.32   29.03
   0   1  -8   62.09   50.91
   0   1  -7 2265.03  227.32
   0   1  -6   42.05   28.54
   0  -1   6  -10.94   17.95
   0   1  -5   58.29   24.75
   0   1  -4  956.58  108.21
   0   1  -3  159.31   34.68
   0   1  -1  303.74   33.17
   0   1   0  765.65   49.22
   0  -1  -2  -17.17   19.19
   0  -1  -3  674.07   75.74
   0  -1  -3  451.10   43.05
   0  -1  -4   41.22   13.68
   0  -1  -4   65.98   23.49
   0  -1  -5  721.76   92.63
   0  -1  -6  234.66   64.19
   0  -1  -7   -4.05   32.29
   0  -1  -8  687.94  126.20
   0  -1  -9  134.43   75.69
   0  -1 -10   13.35   31.22
   0   1  11    1.64    4.50
   0   1  11   -6.26   10.42
   0  -1 -11    1.73   48.75
   0   1  12   -4.83   10.99
   0   1  12   52.11   25.76
   0  -1 -12   58.19   50.81
   0  -1 -13   64.95   82.62
   0   1  13   34.57   35.01
   0   1  13  -20.21   18.03
   0  -1 -14  229.01   59.46
   0  -1 -14  292.31  116.89
   0  -1 -14  402.36  137.77
   0   1  14  282.17   59.58
   0   1  14  320.48   55.33
   0  -1 -15  146.58   53.70
   0   1  15  206.69   49.21
   0  -1 -16   55.57   31.15
   0   1  16   27.32   15.23
   0   1  17  215.72   43.93
   0  -1 -17   68.24   32.99
   0   1  18  -21.45   20.99
   0  -1 -18   18.64   19.62
   0  -1 -19   -7.25    6.16
   0  -2  17   -8.77   19.14
   0  -2  16  -20.51   17.52
   0  -2  15   16.37   19.10
   0   2 -15   10.66   15.77
   0   2 -14  -11.69   17.36
   0  -2  14   28.91   31.31
   0  -2  13   24.54   20.86
   0   2 -13   22.63   14.49
   0   2 -12    4.21   15.35
   0  -2  12   33.25   24.53
   0   2 -12    3.68   28.03
   0   2 -11   -8.03    7.04
   0   2 -11   42.12   55.26
   0  -2  11  -12.49   21.76
   0  -2  10  -17.57   14.84
   0   2 -10   23.16   34.49
   0   2 -10    6.31   14.45
   0   2  -9   25.90   16.68
   0   2  -9   47.79   34.52
   0  -2   9   13.23   11.98
   0   2  -8   28.93   29.86
   0   2  -7  299.00   74.42
   0   2  -6  464.68   87.16
   0  -2   6  372.93   67.62
   0   2  -5   22.49   23.26
   0   2  -4  619.82   86.51
   0   2  -3  652.19   80.37
   0   2  -2  151.87   31.16
   0   2  -1  198.23   35.43
   0   2   0 5585.23  191.48
   0   2   1 4831.57  182.08
   0  -2  -2  805.73   94.55
   0  -2  -3   -1.03   19.03
   0  -2  -4   91.17   40.33
   0  -2  -5  487.94   63.32
   0  -2  -5  628.36   92.29
   0  -2  -6  441.38   66.58
   0  -2  -6  684.11  106.69
   0  -2  -7    9.00   10.70
   0  -2  -7   30.16   41.29
   0  -2  -8   92.10   60.70
   0  -2  -9   33.25   45.11
   0  -2 -10   46.64   26.74
   0   2  11   96.14   27.93
   0  -2 -11  104.15   74.12
   0  -2 -12   12.42   37.27
   0   2  12   37.62   16.00
   0   2  13   -1.43   20.69
   0  -2 -13  -32.65   50.46
   0   2  13  -11.47   14.64
   0   2  14  106.93   34.75
   0   2  14   77.03   24.90
   0  -2 -14  105.17   87.08
   0   2  15   59.81   32.40
   0   2  15   36.80   13.54
   0  -2 -16  -30.86   20.19
   0   2  16    3.10   13.49
   0   2  17  100.11   28.99
   0  -2 -17   62.66   31.94
   0  -2 -18  639.57   81.86
   0  -2 -19  -23.90   20.61
   0  -3  16   32.96   19.71
   0  -3  15   57.59   21.53
   0  -3  14  115.63   36.99
   0  -3  13   -3.96   20.29
   0  -3  12  125.76   45.37
   0  -3  11  241.55   58.81
   0   3 -11  331.45  111.44
   0   3 -10   76.65   55.18
   0  -3  10   58.80   24.95
   0   3  -9   22.87   31.90
   0  -3   9   20.70   12.40
   0   3  -8   13.32   34.23
   0  -3   8   13.55   14.95
   0  -3   7  -13.19   10.59
   0   3  -7   -9.06   17.80
   0  -3   6  324.56   86.30
   0   3  -6  519.41  102.34
   0   3  -5  778.19  111.10
   0  -3   5  558.81  102.02
   0   3  -4   31.22   21.46
   0   3  -3   88.31   33.19
   0   3  -2  532.91   81.98
   0   3  -1   21.49    9.35
   0   3   0  548.48   76.92
   0   3   1  106.71   33.28
   0  -3  -3   44.47   33.38
   0  -3  -4  605.52   99.88
   0  -3  -5   97.65   30.09
   0  -3  -5  179.25   57.37
   0  -3  -6    6.08   14.95
   0  -3  -6  -11.92   22.97
   0  -3  -7   83.11   36.53
   0  -3  -7  137.62   41.16
   0  -3  -8   70.48   49.31
   0  -3  -9   92.74   41.62
   0  -3 -10  209.64   95.14
   0   3  10  159.73   31.62
   0   3  11   80.06   25.40
   0  -3 -11   44.17   17.88
   0   3  12   46.76   19.03
   0  -3 -12  107.15   85.05
   0  -3 -13  317.22  105.95
   0   3  13  275.90   50.73
   0   3  14  503.46   67.88
   0   3  14  652.66   85.60
   0  -3 -14  405.78  137.80
   0   3  15   20.63   21.35
   0   3  15   19.93   19.15
   0   3  16  109.34   30.48
   0   3  16  100.59   28.82
   0  -3 -17   18.62   11.58
   0  -3 -18    5.21   12.06
   0  -3 -19   45.75   19.10
   0  -4  15   31.27   14.35
   0  -4  14  165.51   39.00
   0  -4  13  331.41   58.32
   0  -4  12    1.15   11.38
   0  -4  11   61.10   34.26
   0  -4  10   14.65    9.05
   0  -4   9   26.05   23.12
   0  -4   8   37.70   27.13
   0  -4   7  357.25   66.29
   0  -4   6  -17.55   22.42
   0  -4   6  -10.76   17.99
   0  -4   5  706.63   82.50
   0  -4   5  546.53  118.65
   0   4  -5  799.54  132.41
   0   4  -4  211.15   66.29
   0  -4   4  119.60   57.39
   0   4  -3  -12.88   20.42
   0  -4   3  -26.05   29.75
   0   4  -2   33.85   24.25
   0   4  -1  164.67   56.31
   0   4   0   17.56   20.28
   0  -4  -2 1564.85  178.63
   0  -4  -3   37.28   32.38
   0  -4  -4  -10.34   25.67
   0  -4  -4  -54.54   68.07
   0  -4  -5  205.72   61.65
   0  -4  -5  142.72   63.68
   0  -4  -6  292.78   74.99
   0  -4  -6  441.02   94.61
   0  -4  -7  186.31   61.74
   0  -4  -7  236.96   74.49
   0  -4  -8   -0.11   17.42
   0  -4  -8  -17.11   10.60
   0  -4  -9   23.66   24.06
   0   4   9   25.27   19.17
   0  -4  -9  -40.70   28.60
   0  -4  -9   26.02   14.14
   0  -4 -10   51.31   43.52
   0   4  10   27.17   16.15
   0  -4 -10   25.71   16.55
   0   4  11   94.08   28.40
   0  -4 -11  122.30   65.35
   0   4  12  190.77   39.46
   0   4  13    8.56   14.54
   0   4  14   39.95   19.15
   0  -4 -14   59.45   27.94
   0  -4 -15  499.94   69.57
   0   4  15  357.42   52.39
   0   4  16   30.86   14.43
   0  -4 -18   -4.58    9.86
   0  -4 -19    3.55    9.55
   0  -5  14  108.69   21.53
   0  -5  13   27.28   24.43
   0  -5  12   18.03   19.19
   0  -5  11   13.97    9.41
   0  -5  10    7.61   18.69
   0  -5   9  101.01   43.11
   0  -5   8  367.56   72.06
   0  -5   7   33.71   34.31
   0  -5   6   69.32  133.55
   0  -5   5  463.34  139.74
   0  -5   5  900.58   97.20
   0  -5   4   -4.48   15.66
   0  -5   4   20.13   30.05
   0  -5   3   -8.33   54.59
   0  -5   3   34.58   20.83
   0  -5   2   15.93   15.49
   0  -5   2   38.91   25.57
   0  -5   1    5.41    7.05
   0  -5   1   -5.49   44.87
   0  -5   0  -70.61   62.14
   0  -5   0   13.02   17.58
   0  -5  -1  188.66   70.52
   0   5   1  158.71   36.90
   0  -5  -1  251.69  116.82
   0  -5  -2   20.87   52.50
   0  -5  -2   38.52   39.90
   0  -5  -3   36.56   18.74
   0  -5  -3   69.75   46.16
   0  -5  -4  310.08  108.66
   0  -5  -4  309.00   84.01
   0  -5  -5   66.60   40.41
   0  -5  -5   64.02   26.13
   0  -5  -5   38.17   20.80
   0  -5  -5   70.11   41.83
   0  -5  -6   25.86   31.04
   0  -5  -6   -2.39    7.72
   0  -5  -6  -11.33   14.19
   0  -5  -7   64.41   41.87
   0  -5  -7   90.83   46.79
   0  -5  -7  131.94   40.79
   0   5   8   86.36   26.37
   0  -5  -8  104.63   31.47
   0  -5  -8   74.07   39.98
   0  -5  -9   55.74   20.24
   0  -5  -9   83.79   61.20
   0   5   9   96.16   30.05
   0  -5 -10  233.25   44.49
   0  -5 -10  271.23   46.32
   0   5  10  238.53   41.22
   0   5  11   46.40   21.98
   0   5  12  115.12   33.09
   0   5  13  111.50   31.28
   0  -5 -14    5.62   11.53
   0   5  14   -1.93    3.82
   0  -5 -15  121.48   33.28
   0   5  15   69.04   20.42
   0  -5 -16   25.91   21.14
   0  -5 -18  -17.61   10.93
   0  -6  12   49.51   16.32
   0  -6  11   -3.14    9.33
   0  -6  10    6.38   11.56
   0  -6   9    0.36    7.66
   0  -6   8    8.06   17.00
   0  -6   7   52.26   23.61
   0  -6   6  246.27   57.31
   0  -6   5   16.10   15.91
   0  -6   4   36.71   24.78
   0  -6   3   24.40   21.61
   0  -6   3  -22.24   56.38
   0  -6   2    7.40   10.22
   0  -6   2   -3.40   64.85
   0  -6   1  192.05   53.12
   0  -6   1  154.37   93.13
   0  -6   0   28.49   45.54
   0   6   0   26.93   16.11
   0  -6  -1   15.97   79.81
   0   6   1   58.10   29.88
   0  -6  -2 1611.87  282.03
   0  -6  -2 1645.79  161.47
   0   6   2 1651.23  140.06
   0  -6  -3  -12.81   16.88
   0   6   3   11.22   24.05
   0  -6  -3   23.59   25.46
   0  -6  -4   18.22   35.62
   0   6   4   23.08   23.61
   0  -6  -4   13.69   21.93
   0  -6  -5   -7.58    9.64
   0  -6  -5  -21.85   33.99
   0  -6  -5   -3.39   18.88
   0  -6  -6  176.09   53.78
   0  -6  -6  136.36   35.91
   0  -6  -6   58.17   49.72
   0  -6  -7   35.17   44.58
   0  -6  -7   30.51   16.23
   0  -6  -7   17.23   15.66
   0  -6  -8  197.37   41.08
   0  -6  -8  248.19   47.83
   0   6   8  176.18   40.30
   0  -6  -9  208.15   43.59
   0   6   9  200.35   39.62
   0  -6  -9  240.55   63.10
   0   6  10   43.95   21.70
   0  -6 -10   52.62   50.35
   0  -6 -10   39.48   11.40
   0   6  11  375.95   50.86
   0   6  12   99.18   26.58
   0   6  13    7.71    7.89
   0  -6 -14   34.13   23.64
   0  -6 -15   62.92   24.06
   0  -6 -16  154.31   29.97
   0  -6 -17  250.64   33.33
   0   7  -9    2.48    9.23
   0   7  -8   20.94   13.46
   0   7  -7    3.16   13.55
   0   7  -6   19.66   16.09
   0   7  -5  220.45   45.23
   0   7  -4   30.62   24.20
   0   7  -3   59.14   30.75
   0   7  -2   21.60   20.46
   0   7  -1   44.43   30.52
   0   7   0  135.61   40.71
   0   7   1    5.35   16.74
   0  -7  -2    1.64   14.37
   0   7   2  -20.29   22.89
   0   7   3   51.80   19.62
   0  -7  -3   33.32   22.90
   0  -7  -4   16.73   10.66
   0  -7  -4  -13.67   20.13
   0  -7  -5   -0.18   15.11
   0  -7  -5   41.00   37.42
   0  -7  -6   28.01   16.44
   0  -7  -6   28.10   16.69
   0  -7  -7   38.83   31.30
   0  -7  -7   52.77   24.46
   0  -7  -8  143.65   48.76
   0  -7  -8  190.57   40.60
   0   7   8  165.76   34.96
   0  -7  -9  473.18   82.37
   0  -7  -9  569.44   70.96
   0   7   9  486.03   58.48
   0   7  10   49.25   19.51
   0  -7 -10   54.75   18.95
   0  -7 -12    0.71   20.03
   0  -7 -13   13.61   10.29
   0  -7 -14   11.88   12.68
   0  -7 -15   55.20   17.71
   0  -7 -16    6.45    7.25
   0   8  -6   -6.82    9.30
   0   8  -5   49.60   15.55
   0   8  -4   16.90   11.08
   0   8  -3   33.66   18.93
   0   8  -2   21.66   16.47
   0   8  -1    6.51   20.55
   0   8   0   10.78   14.81
   0  -8  -1  103.89   27.96
   0  -8  -2   12.93    7.24
   0  -8  -3   57.62   23.35
   0  -8  -4   38.41   22.81
   0  -8  -4   53.02   35.06
   0  -8  -5   35.39   17.06
   0  -8  -5   39.07   22.84
   0  -8  -6   43.04   21.77
   0  -8  -6   34.91   16.36
   0   8   6   21.79   14.34
   0  -8  -6   19.47   18.41
   0  -8  -7  -14.24   10.20
   0  -8  -7   -2.65    8.64
   0   8   7   -4.59    4.17
   0  -8  -7   -0.92   13.42
   0  -8  -8   69.51   25.06
   0  -8  -8   38.90   14.98
   0  -8  -9   80.95   22.60
   0  -8  -9  156.00   34.28
   0  -8 -10   14.51    9.97
   0  -8 -11    3.74    6.34
   0  -8 -12    9.75   11.17
   0  -8 -13   14.07   10.72
   0  -8 -14    4.84    3.56
   0  -9   1   14.48    7.05
   0  -9   0   46.17   11.33
   0  -9  -1   59.91   17.30
   0  -9  -2   54.53   18.83
   0  -9  -3  118.79   22.88
   0  -9  -4   40.39   12.80
   0  -9  -5   31.95   14.86
   0  -9  -6   60.95   18.75
   0  -9  -7   64.35   17.32
   1  -8 -11   11.16    8.09
   1  -8 -10   96.69   23.33
   1  -8  -9  381.51   43.57
   1  -8  -8   73.29   41.95
   1  -8  -7  298.98   55.92
   1  -8  -7  247.83   37.18
   1  -8  -6  127.11   24.71
   1  -8  -6  154.11   38.55
   1  -8  -5   -9.62   10.75
   1  -8  -5   45.08   24.15
   1  -8  -4   45.28   37.13
   1  -8  -4   21.17   13.84
   1  -8  -3   -1.34    6.86
   1  -8  -3   -9.41   13.46
   1  -8  -2    5.59    8.61
   1  -8  -2   -2.86   10.33
   1  -8  -1   97.13   23.28
   1  -8  -1  306.59   76.67
   1  -8   0  188.56   30.39
   1  -8   0  242.18   45.57
   1  -8   1   54.83   19.98
   1  -8   2    6.43    9.81
   1  -8   3   40.70   22.65
   1  -7 -15  194.30   30.39
   1  -7 -14   -9.17    8.14
   1  -7 -13   12.46   10.70
   1  -7 -12   43.43   16.34
   1  -7 -11  187.03   43.04
   1  -7 -10  -15.63   16.14
   1  -7 -10  -14.67   14.58
   1  -7  -9  288.17   67.91
   1  -7  -9  449.74   66.40
   1  -7  -8  -14.94   13.91
   1  -7  -8   18.12   20.87
   1  -7  -8    7.34   30.48
   1  -7  -7   32.86   26.13
   1  -7  -7   -8.47   25.00
   1  -7  -7    5.82   10.93
   1  -7  -6  145.28   38.55
   1  -7  -6   84.96   53.63
   1  -7  -6  120.69   31.90
   1  -7  -5   32.98   22.06
   1  -7  -5   37.88   17.29
   1  -7  -5   37.08   25.01
   1  -7  -4   12.88   25.24
   1  -7  -4   53.73   25.54
   1  -7  -3  142.02   51.04
   1  -7  -3   62.60   26.65
   1  -7  -2  105.72   44.64
   1  -7  -2  103.45   29.63
   1  -7  -1   -6.02   22.87
   1  -7   0   98.68   42.39
  -1   7  -1   50.09   21.24
  -1   7  -2   25.55    7.82
  -1   7  -3   16.01   15.43
  -1   7  -4    4.98    6.25
  -1   7  -5    1.41    8.69
  -1   7  -6  217.41   35.48
  -1   7  -7   24.37   13.07
   1  -6 -16   18.67   10.59
   1  -6 -16   12.25    7.96
   1  -6 -15  171.13   33.66
   1  -6 -14   16.40   13.46
   1  -6 -13   17.50   17.68
   1  -6 -12    0.62   12.44
   1  -6 -11   17.43   11.18
   1  -6 -11  166.40   66.29
   1  -6 -10  203.98   53.31
   1  -6 -10  116.88   47.26
   1  -6  -9    7.61    8.06
   1  -6  -9   35.75   26.82
   1  -6  -9   26.18   25.14
   1  -6  -8   82.99   25.64
   1  -6  -8   87.63   43.35
   1  -6  -8  166.20   50.80
   1  -6  -7  190.95   46.59
   1  -6  -7  230.10   43.19
   1  -6  -7  226.06   58.83
   1  -6  -6    9.60   30.35
   1  -6  -6    6.57   12.09
   1  -6  -6  -18.79    8.85
   1  -6  -5   -1.33   13.08
   1  -6  -5    6.54   12.45
   1  -6  -5    1.48    8.19
   1  -6  -5   -1.44   11.92
   1  -6  -4  105.58   30.32
   1  -6  -4   68.60   27.17
   1  -6  -4   98.81   44.89
   1  -6  -4   40.74   68.30
   1  -6  -4   82.47   33.15
   1  -6  -3   93.91   29.91
   1  -6  -3   95.03   86.41
   1  -6  -3   81.84   25.68
   1  -6  -2    0.43    9.62
   1  -6  -2  -23.59   30.43
   1  -6  -1   22.43   16.98
   1  -6  -1   79.40   64.01
   1  -6   0   28.81   66.99
  -1   6   0   69.17   38.71
   1  -6   0   51.92   28.12
  -1   6  -1   -9.03   10.43
   1  -6   1   -1.70   15.77
   1  -6   1   26.00   50.09
  -1   6  -2   34.29   29.88
   1  -6   2   32.97    7.80
   1  -6   3   29.50   13.06
   1  -6   4   -8.57    9.05
   1  -6   5   37.25   19.13
   1  -6   6    6.35    6.33
   1  -6   7  183.54   42.30
   1  -6   8  151.63   32.73
   1  -6   9   98.79   25.31
   1  -6  10   11.32    8.45
  -1   6 -11   35.75   13.76
   1  -5 -17   -0.01    4.69
   1  -5 -17    5.22    8.31
   1  -5 -16   12.81    9.12
   1  -5 -16   22.10    8.75
   1  -5 -15   58.58   20.43
   1  -5 -14   46.06   15.41
   1  -5 -13  150.44   40.29
   1  -5 -12   18.40   16.31
   1  -5 -11   99.98   57.97
   1  -5 -11    7.53   16.55
   1  -5 -10   41.44   46.10
   1  -5 -10   10.16   24.10
   1  -5  -9    3.33    7.23
   1  -5  -9   -1.89   23.46
   1  -5  -8  -11.94   15.26
   1  -5  -8  -38.67   27.51
   1  -5  -8    4.17   27.55
   1  -5  -7  322.96   54.07
   1  -5  -7  313.35   51.60
   1  -5  -7  186.04   80.26
   1  -5  -6   61.69   41.06
   1  -5  -6    7.70    7.19
   1  -5  -6   68.20   19.45
   1  -5  -5  -12.48   27.65
   1  -5  -5    2.99   35.81
   1  -5  -5    9.46   11.78
   1  -5  -5   19.14   18.04
   1  -5  -4   47.79   20.53
   1  -5  -4   66.62   25.05
   1  -5  -3   35.71   29.95
   1  -5  -3   -5.40    6.83
   1  -5  -2    8.56    9.32
   1  -5  -2   16.41   59.99
   1  -5  -1   12.14   11.45
   1  -5  -1   54.36   48.74
   1  -5   0  140.73   74.74
   1  -5   0   99.71   31.73
   1  -5   1  -10.04   39.05
   1  -5   1   -8.21   13.76
   1  -5   1   14.22   14.73
   1  -5   2   33.79   15.80
   1  -5   2   60.08   25.19
   1  -5   3   25.49    9.98
   1  -5   3   11.57    7.88
   1  -5   4  172.10   83.26
   1  -5   4  200.80   43.77
   1  -5   4  158.32   32.14
   1  -5   5   36.16   22.00
   1  -5   5   35.52   17.31
   1  -5   6   28.60   18.72
   1  -5   6   19.96   14.75
   1  -5   7  581.34   57.33
   1  -5   7  657.37   85.65
   1  -5   8    4.80    6.01
   1  -5   8    1.76    7.21
   1  -5   9   10.48   22.22
   1  -5  10   16.26   11.56
   1  -5  11   46.26   22.33
   1  -5  12    1.95    8.95
   1  -5  13  257.75   35.44
   1  -4 -18  -18.46   19.07
   1  -4 -17    1.51    8.07
   1  -4 -16    1.45    9.15
   1  -4 -16    2.29   12.35
   1  -4 -15   25.69   19.48
   1  -4 -14  980.02  103.48
   1  -4 -13   81.77   32.27
   1  -4 -12  -17.40   27.73
   1  -4 -11  334.49   59.31
   1  -4 -11  326.32   78.31
   1  -4 -10   55.34   27.93
   1  -4  -9   64.57   37.95
   1  -4  -9   44.21   20.11
   1  -4  -8   15.19    9.66
   1  -4  -8   35.95   20.55
   1  -4  -8   24.87   16.37
   1  -4  -7    2.26   15.87
   1  -4  -7    0.24   17.92
   1  -4  -7  -29.27   21.31
   1  -4  -7    8.91   16.55
   1  -4  -6  244.16   43.76
   1  -4  -6  240.73   49.63
   1  -4  -5   81.31   50.88
   1  -4  -4   -7.85   18.53
   1  -4  -3   35.18   37.65
   1  -4  -2   15.49   30.16
   1  -4  -1   19.64   43.85
   1  -4   0  289.87   92.60
   1  -4   1   96.76   45.23
   1  -4   2  -25.19   53.79
   1  -4   3   35.09   56.19
   1  -4   3   15.56   14.24
   1  -4   4    9.61    7.21
   1  -4   4   12.86   15.33
   1  -4   4    9.95   12.67
   1  -4   5    3.77   12.61
   1  -4   5   18.98   31.27
   1  -4   5    7.91   18.00
   1  -4   6  109.23   26.77
   1  -4   6  116.14   34.38
   1  -4   7   36.84   28.58
   1  -4   7   25.15   14.39
   1  -4   8   46.16   29.45
   1  -4   8   54.92   18.97
   1  -4   9   -6.91   15.38
   1  -4   9   15.62   10.56
   1  -4  10   30.20   29.18
   1  -4  10   34.07   13.19
   1  -4  11  346.35   94.90
   1  -4  12    9.36   13.36
   1  -4  13   67.30   28.52
   1  -4  14   17.74   11.30
   1  -4  15   95.16   29.47
   1  -3 -19  -17.78   14.11
   1  -3 -19    1.80   12.99
   1  -3 -18   34.06   24.13
   1  -3 -17   28.31   22.80
   1  -3 -16  -16.82   26.10
   1  -3 -15   76.93   32.73
   1  -3 -14   41.07   22.37
   1  -3 -13  155.89   47.17
   1  -3 -12   25.61    8.28
   1  -3 -11   52.86   29.20
   1  -3 -10  -37.06   46.17
   1  -3  -9   14.18   16.50
   1  -3  -7  441.15   89.16
   1  -3  -6   58.96   32.76
   1  -3  -4    3.32   21.27
   1  -3  -3  181.67   61.05
   1  -3  -2   79.63   47.42
   1  -3  -1   13.25   24.26
   1  -3   0  218.64  109.89
   1  -3   1  512.98   91.89
   1  -3   2  253.78   77.86
   1  -3   3  718.50  119.08
   1  -3   4  435.27   93.14
   1  -3   5   38.64   31.45
   1  -3   6   56.51   25.18
   1  -3   6   43.04   27.28
   1  -3   7  248.79   46.50
   1  -3   8  319.71   56.56
   1  -3   9  -10.77   11.42
   1  -3  10    2.56    4.76
   1  -3  10   -1.99   16.82
   1  -3  11   63.13   39.96
   1  -3  11   46.10   16.55
   1  -3  12   60.01   22.47
   1  -3  12   87.91   38.92
   1  -3  13   10.55    9.95
   1  -3  13    2.71    6.11
   1  -3  14   -2.22   10.42
   1  -3  15   10.26   16.82
   1  -3  16   22.24   12.97
   1  -2 -19    8.48   12.61
   1  -2 -18   39.95   25.87
   1  -2 -18   96.09   29.46
   1  -2 -17    0.12   17.33
   1  -2 -16   42.66   31.67
   1  -2 -15  206.25   63.53
   1  -2 -13  213.90   47.10
   1  -2 -13  451.49  127.55
   1  -2 -12   64.88   44.44
   1  -2 -12   55.02   24.96
   1  -2 -11    8.22   27.68
   1  -2 -11   29.75   43.00
   1  -2 -11   17.78   12.00
   1  -2 -10    3.43   21.74
   1  -2 -10  -41.27   48.59
   1  -2  -9  100.89   41.86
   1  -2  -8  112.74   43.88
   1  -2  -7  640.03   79.41
   1  -2  -7  635.66   99.23
   1  -2  -6   10.02   24.47
   1  -2  -6   10.53   11.71
   1  -2  -5  999.26   97.88
   1  -2  -5  853.87  117.40
   1  -2  -4   63.61   22.99
   1  -2  -3 1426.31  138.57
   1  -2  -3 1239.81   69.54
   1  -2  -3 1296.84   72.12
   1  -2  -2 1021.74  110.12
   1  -2  -1   81.82   33.56
   1  -2   0  353.75   72.13
   1  -2   1  171.52   50.29
  -1   2  -2 3415.62  118.42
   1  -2   2 3409.36  213.00
   1  -2   3   96.09   45.80
  -1   2  -3  138.45   30.99
   1  -2   4  678.48   98.22
  -1   2  -4  699.87   84.93
   1  -2   5  116.85   42.76
  -1   2  -5  113.04   35.59
  -1   2  -6  260.01   60.25
  -1   2  -7  562.41   98.30
   1  -2   8   -7.72   12.96
  -1   2  -8   20.44   10.43
   1  -2   9  253.21   51.77
  -1   2  -9  321.33   89.31
  -1   2 -10  145.63   64.78
   1  -2  10  113.16   46.59
  -1   2 -11  370.41  110.68
   1  -2  11  268.90   64.41
   1  -2  12   -2.30    7.07
   1  -2  13    6.05   24.35
   1  -2  14   -0.03   11.79
   1  -2  15   55.88   18.22
   1  -2  15  103.78   30.04
   1  -2  16   15.71   15.55
   1  -2  17   25.85   16.45
   1  -1 -19    4.84   12.16
   1  -1 -18    0.02   11.45
   1  -1 -17   10.41   11.16
   1  -1 -17   16.82   17.23
   1  -1 -16    5.35   12.99
   1  -1 -15    6.81   10.00
   1  -1 -14  101.24   46.99
   1  -1 -13  177.56   57.42
   1  -1 -13  346.38  113.70
   1  -1 -12   56.96   52.42
   1  -1 -11  241.47   87.81
   1  -1 -10  401.05  108.90
   1  -1 -10  402.02  121.35
   1  -1  -9  698.01  136.00
   1  -1  -8  -14.23   29.74
   1  -1  -7 1474.63  162.97
   1  -1  -6  761.41   72.46
   1  -1  -6  706.65   99.03
   1  -1  -5  351.85   60.16
   1  -1  -5  354.22   48.21
   1  -1  -4  103.74   33.45
   1  -1  -4   90.05   26.21
   1  -1  -3   56.38   20.78
   1  -1  -3   99.71   22.85
   1  -1  -3  103.26   27.99
   1  -1  -2  630.49   71.31
   1  -1  -2  548.92   50.15
   1  -1  -1 9999.00  153.44
  -1   1  -1 1654.63   79.46
   1  -1   1 1989.01  130.62
  -1   1  -2 7238.69  219.08
   1  -1   2 7154.24  262.49
  -1   1  -3 2787.36  164.30
  -1   1  -4  149.27   46.21
  -1   1  -5   -1.95   22.90
   1  -1   5   -5.77   17.30
   1  -1   6   77.53   34.71
  -1   1  -6   92.92   54.03
  -1   1  -7  129.21   42.97
  -1   1  -8 3372.57  300.01
  -1   1  -9  263.05   95.35
   1  -1   9  205.92   43.12
  -1   1 -10   85.24   55.50
   1  -1  10  144.93   45.99
   1  -1  11    6.05    7.48
   1  -1  12   13.55   24.12
  -1   1 -12  -18.11   54.04
  -1   1 -13   87.73   55.82
   1  -1  13    5.87   17.19
   1  -1  14    7.42   17.74
   1  -1  15   15.69   14.39
   1  -1  16   21.40   15.35
   1  -1  17    0.98    9.75
   1  -1  18   30.07   12.52
   1   0 -18  237.93   77.50
   1   0 -17   -6.52   10.58
   1   0 -16   21.65   11.56
   1   0 -16    2.15    6.73
   1   0 -15   51.16   30.02
   1   0 -14  -44.33   25.75
  -1   0  14   -5.99   13.34
  -1   0  13  344.41   57.03
   1   0 -13  279.83   70.82
   1   0 -13  373.96  127.83
  -1   0  12  302.57   48.94
   1   0 -12  333.41   71.46
   1   0 -12  387.78  123.74
   1   0 -11   50.67   28.87
  -1   0  11   41.74   13.14
   1   0 -11   35.26   27.99
   1   0 -10   24.90   15.50
   1   0 -10   27.33   20.39
   1   0  -9  181.25   73.24
   1   0  -8   78.01   33.22
   1   0  -7  281.87   71.41
   1   0  -7  301.03   73.70
   1   0  -6  230.89   65.26
   1   0  -6  241.13   65.58
   1   0  -5   44.04   14.07
   1   0  -5   59.23   25.61
   1   0  -4  511.88   78.02
   1   0  -3  133.00   34.63
   1   0  -3   99.78   30.92
   1   0  -2  755.91   65.31
   1   0  -2  633.59   66.96
   1   0  -1 1579.76   93.64
   1   0  -1 1427.33   91.92
   1   0   0   31.24   21.51
   1   0   0    2.86   10.90
   1   0   1 3032.89  126.60
   1   0   1 2936.44  140.75
  -1   0  -1 2935.07  123.33
   1   0   2 1142.28   79.82
  -1   0  -2 1186.50   88.61
  -1   0  -3 1564.26  117.95
   1   0   3 1452.53   95.09
  -1   0  -4   -4.05   17.60
   1   0   4  -11.55   15.56
  -1   0  -5   -4.82   13.91
   1   0   5    3.92   15.02
  -1   0  -6   -1.92   29.27
  -1   0  -7  -22.74   30.49
  -1   0  -8  253.47   80.97
  -1   0  -9  -25.00   53.73
   1   0  10  154.76   34.03
   1   0  10  203.51   35.88
  -1   0 -10  142.03   51.92
  -1   0 -11    9.76   53.15
   1   0  11   33.22   18.10
   1   0  11    9.26   19.72
  -1   0 -12  176.90  103.02
   1   0  12   89.74   41.13
   1   0  12  143.11   31.79
   1   0  13   34.01   27.16
  -1   0 -13   88.48   85.94
   1   0  14  105.40   42.48
   1   0  15    4.98    8.96
   1   0  16   30.22   21.91
   1   0  17  150.53   36.76
   1   0  18   20.17   14.23
   1   0  19   26.05   12.04
   1   1 -18   17.05   15.73
   1   1 -17   35.30   23.61
   1   1 -16   -2.27   11.79
  -1  -1  16  -28.68   24.68
  -1  -1  15  -13.52   20.14
   1   1 -15   -1.27   14.06
  -1  -1  14   50.80   31.85
   1   1 -14   71.56   35.66
  -1  -1  13   60.03   24.59
   1   1 -13    5.55   11.65
   1   1 -13   27.91   56.52
   1   1 -13   12.27   24.69
  -1  -1  12   15.09   11.67
   1   1 -12   -0.66   11.62
   1   1 -12  -14.29   29.83
   1   1 -11  133.76   38.42
   1   1 -11  164.44   84.87
  -1  -1  11  129.00   36.49
  -1  -1  10  138.14   33.88
   1   1 -10  115.50   40.94
   1   1 -10  199.62   86.47
   1   1  -9   98.42   57.47
   1   1  -8   52.45   45.12
   1   1  -7   53.77   48.02
   1   1  -6  325.04   81.34
   1   1  -5  234.39   60.93
   1   1  -4   25.59   32.46
   1   1  -3  293.08   56.44
   1   1  -2  117.75   35.36
   1   1  -1  302.59   50.77
   1   1   0   12.99   16.24
   1   1   1 1429.71  125.93
  -1  -1  -2  909.20   94.29
   1   1   2  707.13  103.43
  -1  -1  -3  528.78   77.16
  -1  -1  -4 1092.44  132.22
  -1  -1  -5 1171.54  138.41
  -1  -1  -6    5.32   20.10
  -1  -1  -7   72.92   44.57
  -1  -1  -8  308.50  105.43
  -1  -1  -9  678.26  143.64
  -1  -1 -10  589.50  144.54
   1   1  11   45.73   20.30
  -1  -1 -11  112.72   81.93
   1   1  12   24.75   14.89
  -1  -1 -12   42.21   19.91
   1   1  12   14.01   11.67
   1   1  13   66.66   33.34
  -1  -1 -13   75.35   69.26
   1   1  13   57.16   24.41
   1   1  14   29.20   26.35
  -1  -1 -14  -36.75   64.63
   1   1  14   14.44   11.34
   1   1  15   18.85   20.79
   1   1  16    3.80    8.45
   1   1  17   41.15   30.83
   1   1  18   11.81   10.29
   1   1  19    9.86   10.44
   1   2 -17   51.67   18.12
  -1  -2  16   -7.86    9.32
   1   2 -16   -3.13   12.37
   1   2 -15   67.92   34.98
  -1  -2  15   77.31   28.38
  -1  -2  14   87.30   27.95
   1   2 -14   19.00   15.91
   1   2 -13    0.10   11.18
  -1  -2  13    3.82   16.05
   1   2 -12 1792.94  171.88
  -1  -2  12 1653.60  137.48
   1   2 -12 1624.77  265.09
  -1  -2  11  295.40   61.39
   1   2 -11  187.92   49.42
   1   2 -11  275.37  105.66
  -1  -2  10   37.41   28.62
   1   2 -10    1.19   11.74
   1   2 -10   12.34   33.56
   1   2  -9  334.52   55.78
   1   2  -9  331.11  112.71
  -1  -2   9  324.59   50.17
   1   2  -9  341.42   57.37
   1   2  -8   44.35   39.06
   1   2  -7   63.18   35.60
   1   2  -6   20.30   22.00
   1   2  -5  306.59   70.53
   1   2  -4   95.42   45.81
   1   2  -3 2107.17  172.42
   1   2  -2 1279.52  124.84
   1   2  -1   11.21   10.58
   1   2   0  127.75   50.34
   1   2   1  390.50   68.58
   1   2   2 4387.10  264.65
  -1  -2  -3 3828.70  241.83
  -1  -2  -4  184.53   65.15
  -1  -2  -5   99.73   46.03
  -1  -2  -6  333.20   78.50
  -1  -2  -7  400.47  101.89
  -1  -2  -8   35.28   32.17
  -1  -2  -9  182.41   80.87
  -1  -2 -10  247.64   88.81
   1   2  11   55.09   18.06
  -1  -2 -11  124.74   91.42
   1   2  12  179.15   36.97
  -1  -2 -12  250.83  117.65
  -1  -2 -13   84.81   48.54
   1   2  13  178.36   38.07
  -1  -2 -14    6.20   53.21
   1   2  14  138.56   53.25
   1   2  14   49.22   23.58
   1   2  15   19.91   11.87
   1   2  15    4.33   11.44
   1   2  16   72.49   28.78
   1   2  16  102.80   31.28
   1   2  17   23.11   19.84
   1   2  18  -13.92   17.61
  -1  -2 -19   13.61    9.33
   1   2  19  -14.01    7.58
   1   3 -16   32.92   15.24
  -1  -3  16   22.39   14.25
   1   3 -15  -14.71   14.28
  -1  -3  15    7.82    7.86
  -1  -3  14  171.77   46.91
   1   3 -14  121.37   39.75
   1   3 -13  305.32   67.50
  -1  -3  13  319.68   59.09
   1   3 -12   23.52   15.89
  -1  -3  12    1.12   10.96
  -1  -3  11  174.78   49.93
   1   3 -11  192.85   83.77
   1   3 -11  154.84   45.11
   1   3 -10  307.86   57.46
  -1  -3  10  372.64   64.29
   1   3 -10  335.87  110.60
   1   3  -9    0.06   14.77
  -1  -3   9    1.37   13.16
   1   3  -9   -4.12    9.99
   1   3  -8   12.58   10.08
  -1  -3   8   11.78   20.21
   1   3  -8    3.34   11.68
  -1  -3   7  128.10   34.65
   1   3  -7   98.42   39.58
   1   3  -7  110.38   57.71
   1   3  -6   19.48   33.15
   1   3  -5 1064.29  161.94
   1   3  -4  321.02   88.09
   1   3  -3    5.67   11.66
   1   3  -2  372.93   78.83
   1   3  -1   31.42   21.98
   1   3   0  -18.86   28.17
   1   3   1    3.93   15.58
   1   3   2  796.18  126.68
  -1  -3  -3  813.76  150.39
   1   3   3  587.20  110.84
  -1  -3  -4 1398.21  186.58
  -1  -3  -5 1696.83  214.80
  -1  -3  -6  846.47  155.98
  -1  -3  -7   88.10   58.85
  -1  -3  -8  326.75   96.82
  -1  -3  -9  -39.54   64.51
  -1  -3 -10  716.13  167.30
   1   3  10  525.92   55.89
  -1  -3 -11  172.81   91.40
   1   3  11   89.32   27.54
  -1  -3 -12  111.50   44.51
   1   3  12   99.35   22.93
  -1  -3 -13    3.98   55.49
   1   3  13   99.49   31.23
   1   3  14  471.63   65.95
  -1  -3 -14  475.10  161.10
   1   3  15  404.31   66.57
   1   3  15  304.66   54.70
   1   3  16   -3.28    8.19
   1   3  16    7.31   14.36
  -1  -3 -17    5.62    9.86
   1   3  17   -8.61   16.46
   1   3  17    6.54   14.52
   1   3  18    3.92    7.14
   1   3  19   -0.77   12.34
  -1  -4  15  247.32   37.31
  -1  -4  14   77.93   28.38
   1   4 -13    2.95   11.04
  -1  -4  13  -17.66   16.67
  -1  -4  12  159.69   49.71
   1   4 -12  174.18   48.66
   1   4 -11  -11.56   22.04
  -1  -4  11    5.70   21.90
  -1  -4  10  128.07   44.34
   1   4 -10  122.10   42.68
   1   4  -9  220.77   53.36
  -1  -4   9  283.66   56.49
   1   4  -9  300.63  112.59
  -1  -4   8  260.35   56.37
   1   4  -8  227.09   84.58
   1   4  -8  142.05   41.30
   1   4  -7   29.85   28.57
  -1  -4   7   13.65   25.88
   1   4  -7    6.51   14.43
   1   4  -6  359.53   63.25
   1   4  -6  424.78  115.50
  -1  -4   6  420.58   68.63
   1   4  -5  491.19   68.46
   1   4  -5  569.12  133.77
  -1  -4   5  488.41   75.17
   1   4  -4   59.17   43.44
   1   4  -3   -0.12   17.09
   1   4  -2  -30.84   41.08
   1   4  -1  194.47   64.33
   1   4   0  488.13  105.40
   1   4   1   22.56   36.43
   1   4   2  227.19   73.58
  -1  -4  -3  584.96  147.93
  -1  -4  -4 2551.22  275.46
  -1  -4  -5  -26.25   33.29
  -1  -4  -6   90.88   63.58
  -1  -4  -7   -3.90   30.89
  -1  -4  -8   98.21   60.38
  -1  -4  -9   -0.02    7.56
   1   4   9   27.85   17.77
  -1  -4  -9   -3.31   22.62
  -1  -4 -10  578.49  147.33
   1   4  10  502.38   59.23
  -1  -4 -11  108.59   47.19
   1   4  11   75.28   25.11
  -1  -4 -12  528.73  149.66
   1   4  12  411.40   60.12
  -1  -4 -13  541.96  165.37
   1   4  13  432.24   68.47
   1   4  14    9.07   11.90
   1   4  15    3.75   16.99
   1   4  16   25.74   12.93
   1   4  16   20.06   19.03
   1   4  17   15.01   13.97
   1   4  17   16.20   15.42
  -1  -4 -18   -2.53    7.68
   1   4  18    3.55    5.44
  -1  -5  14   13.99   11.19
  -1  -5  13  181.44   48.36
  -1  -5  12    9.76   16.55
  -1  -5  11    3.53   12.91
  -1  -5  10   21.52    6.65
  -1  -5   9   21.01   21.64
  -1  -5   8   11.92   23.31
  -1  -5   7  152.60   50.27
  -1  -5   6  133.84   51.94
   1   5  -5  -20.11   36.54
  -1  -5   5   -0.40    7.80
  -1  -5   4  186.12   52.64
   1   5  -4  143.35   65.61
  -1  -5   3   10.12   18.90
   1   5  -3  -33.75   40.16
  -1  -5   2   -2.08   15.02
   1   5  -2   31.35   38.47
   1   5  -2   31.65   18.31
   1   5  -1   56.39   42.76
  -1  -5   1   31.76   19.94
   1   5   0    2.31   16.77
  -1  -5   0    1.55    8.70
   1   5   1  645.81   74.69
   1   5   1  632.34  141.33
  -1  -5  -2 3362.68  335.84
  -1  -5  -3   45.85   26.64
   1   5   4  478.14   65.18
  -1  -5  -4  553.88  144.31
  -1  -5  -5   -3.69   25.72
  -1  -5  -6  151.05   31.65
  -1  -5  -6  113.76   55.35
  -1  -5  -7  -13.52    8.53
  -1  -5  -7  -56.11   54.42
  -1  -5  -7  -66.08   44.94
  -1  -5  -8  156.79   32.66
  -1  -5  -8  142.32   65.20
  -1  -5  -8   71.27   19.78
  -1  -5  -9  135.47   25.86
  -1  -5  -9  107.33   64.45
   1   5   9  130.14   33.48
  -1  -5 -10  426.50  119.23
   1   5  10  439.47   64.20
  -1  -5 -10  406.60   57.31
  -1  -5 -11  489.66  132.53
   1   5  11  447.43   65.13
  -1  -5 -12  124.49   66.14
   1   5  12  978.58  111.29
   1   5  13   51.66   27.29
   1   5  14   -4.79   17.42
   1   5  15   31.37   23.54
   1   5  16   28.07   17.51
  -1  -5 -16    4.46    6.25
   1   5  16   36.83   17.19
   1   5  17  133.28   25.88
   1   5  17  174.81   31.48
  -1  -5 -18   44.00   19.63
   1   6 -12   20.51   11.40
  -1  -6  11   14.10   12.79
  -1  -6  10   55.14   26.22
  -1  -6   9  -26.31   20.49
   1   6  -8  -11.14    7.85
  -1  -6   8    5.44   12.60
  -1  -6   7  -14.91   20.02
   1   6  -7    3.29    7.31
   1   6  -6   93.83   29.43
  -1  -6   6   79.15   36.54
  -1  -6   5  117.32   49.02
  -1  -6   4   36.18   26.60
  -1  -6   4  -78.19   98.11
  -1  -6   3  137.97  123.00
  -1  -6   3    9.06   15.22
  -1  -6   2   41.73   31.49
  -1  -6   1    1.22   13.67
   1   6   0  -13.56   21.00
   1   6   1  -17.43   22.57
  -1  -6  -1   82.85   62.00
   1   6   2   79.43   24.82
  -1  -6  -2  129.53   87.42
   1   6   3   83.15   33.26
  -1  -6  -3   22.89   20.24
   1   6   4  227.81   55.73
  -1  -6  -4  260.77  100.44
  -1  -6  -5  209.65   93.75
  -1  -6  -5  168.31   36.06
  -1  -6  -5  140.12   52.93
  -1  -6  -6   11.56   11.37
  -1  -6  -6   46.01   29.40
  -1  -6  -6  -31.84   58.42
  -1  -6  -7   47.21   15.74
  -1  -6  -7  -11.38   34.03
  -1  -6  -7  129.24   54.34
  -1  -6  -7   93.23   65.03
  -1  -6  -8  208.06   42.61
  -1  -6  -8  165.45   77.62
  -1  -6  -8  112.51   26.87
  -1  -6  -9  214.59   42.25
   1   6   9  204.06   43.80
  -1  -6  -9  269.44  103.48
  -1  -6 -10   12.53    9.52
   1   6  10   59.21   30.02
   1   6  11   53.51   26.57
   1   6  12   68.00   24.90
   1   6  13  -25.29   22.19
   1   6  14   -4.28   11.30
   1   6  15    6.15    6.69
   1   6  16   -0.84    5.84
  -1  -6 -16   -7.39    9.46
   1   6  17   53.18   15.59
   1   7 -10    9.86    7.96
   1   7  -9    7.59    8.88
   1   7  -8    6.09   10.22
   1   7  -7    6.12   21.29
   1   7  -6    7.68   14.30
   1   7  -5   43.23   26.13
   1   7  -4   12.43   17.94
   1   7  -3   46.74   22.24
   1   7  -2    9.91   27.43
   1   7  -1   -7.82   18.57
   1   7   0  106.32   37.77
   1   7   1  157.63   55.91
   1   7   2   52.86   31.47
   1   7   3    4.36   10.57
  -1  -7  -4   86.12   25.72
  -1  -7  -5  162.00   40.54
  -1  -7  -6  -44.48   41.74
  -1  -7  -6   25.26   23.03
  -1  -7  -7   12.45    9.12
  -1  -7  -8   30.66   17.31
   1   7   9   88.47   32.76
  -1  -7  -9   91.00   29.22
   1   7  10   -0.04    9.77
  -1  -7 -10   -6.91   18.40
   1   7  11   19.42   13.82
   1   7  12  -10.90   10.19
   1   7  13    6.55    7.98
   1   7  14    0.44    3.86
  -1  -7 -15   21.32   13.61
   1   7  15    3.25    5.42
  -1  -7 -16   11.79    8.89
   1   8  -7    1.52    5.60
   1   8  -6   16.16   15.67
   1   8  -5   29.37   14.27
   1   8  -4   61.51   23.25
   1   8  -3  383.14   62.06
   1   8  -2   27.67   24.75
   1   8  -1  485.90   76.43
   1   8   0  397.11   73.14
   1   8   1   60.69   26.98
  -1  -8  -2   39.90   19.62
  -1  -8  -3   56.23   26.58
  -1  -8  -4  190.17   42.12
  -1  -8  -5  423.54   62.03
  -1  -8  -6  223.20   43.05
  -1  -8  -7   71.93   23.00
   1   8   8   11.29    8.41
  -1  -8  -8  -12.14   18.21
  -1  -8  -9   57.19   18.09
   1   8   9   54.28   17.50
   1   8  10    7.39    4.83
   1   8  11    7.92    5.54
   1   8  12   22.63   10.83
   1   8  13   48.70   14.15
  -1  -8 -13   54.78   20.28
  -1  -8 -14   10.95   11.70
  -1  -9   3  213.10   26.49
  -1  -9   2   30.32   11.13
  -1  -9   1   12.25    5.98
  -1  -9   0   23.27   11.66
  -1  -9  -1   11.67   10.62
  -1  -9  -2   32.77   14.17
  -1  -9  -3   -6.10    9.83
  -1  -9  -4   21.90   14.96
   1   9   5    4.57    6.05
  -1  -9  -5    4.89   10.00
  -1  -9  -6    8.53    7.18
   1   9   6   -9.10    8.45
  -1  -9  -7   18.59    9.88
   1   9   7   21.62    6.67
  -1  -9  -8    0.66    5.36
   1   9   8   18.47    9.40
  -1  -9  -9   12.05    9.17
   1   9   9   13.55    9.98
  -1  -9 -10    6.34    8.83
   2  -8  -7   51.75   26.57
   2  -8  -6   -4.37   10.72
   2  -8  -5  123.66   31.78
   2  -8  -4   15.86   20.21
   2  -8  -3    6.45    7.26
   2  -8  -2    9.61   11.14
   2  -8  -1    8.31    6.49
   2  -7 -12    5.49   11.20
   2  -7 -11    7.40    4.91
   2  -7 -10    0.01    6.42
   2  -7  -9    4.15   21.98
   2  -7  -9   46.55   28.42
   2  -7  -8   26.85   14.47
   2  -7  -8   36.84   22.91
   2  -7  -7  271.33   58.11
   2  -7  -7  179.27   36.63
   2  -7  -6   28.95   18.46
   2  -7  -5   -5.64    6.96
   2  -7  -5   18.74   31.04
   2  -7  -4   96.70   43.95
   2  -7  -4   12.76   15.81
   2  -7  -3   24.99   17.56
   2  -7  -3   66.32   38.81
   2  -7  -2   19.34   19.72
   2  -7  -2  -23.63   19.62
   2  -7  -1   -0.53    8.08
   2  -7  -1    3.63   11.29
   2  -7   0  -14.65   26.31
   2  -7   0   14.79   15.58
   2  -7   1   44.14   23.63
   2  -7   1   11.05    9.06
   2  -7   2   23.10   10.61
   2  -7   2   38.55   22.78
   2  -7   4   25.33   16.70
   2  -7   5   16.80   21.86
   2  -6 -14    7.08    4.99
   2  -6 -13   30.88   14.85
   2  -6 -12   26.84   18.50
   2  -6 -11   -1.57   10.55
   2  -6 -10    1.35   19.67
   2  -6 -10  -11.67   14.87
   2  -6  -9  -11.34   22.73
   2  -6  -9   14.89   22.40
   2  -6  -8    8.88   18.14
   2  -6  -8    9.03   12.94
   2  -6  -7  104.98   38.00
   2  -6  -7   33.29   21.88
   2  -6  -7   88.88   43.46
   2  -6  -6   64.45   24.31
   2  -6  -6   72.69   42.07
   2  -6  -6  137.29   44.61
   2  -6  -5  203.62   45.27
   2  -6  -5  194.68   70.01
   2  -6  -5  146.52   45.71
   2  -6  -4   -3.15   11.16
   2  -6  -4  -70.03   31.34
   2  -6  -3   26.44   22.20
   2  -6  -3   58.16   37.82
   2  -6  -2   13.35   15.00
   2  -6  -1  -15.15   16.72
   2  -6   0   -3.64    6.67
   2  -6   1   43.46   19.63
   2  -6   2   11.52    6.68
   2  -6   3   75.55   24.04
   2  -6   4   83.77   25.05
   2  -6   5    5.47    5.11
   2  -6   6   16.95    6.80
   2  -6   7   69.87   18.78
   2  -6   8   16.98   11.47
   2  -5 -16   27.66   14.58
   2  -5 -15   67.21   19.67
   2  -5 -15   65.09   21.22
   2  -5 -14  206.55   40.31
   2  -5 -14  240.46   44.57
   2  -5 -13  101.88   26.35
   2  -5 -13  145.58   40.14
   2  -5 -12  308.01   59.64
   2  -5 -11  137.56   44.86
   2  -5 -11   41.01   29.83
   2  -5 -10  156.78   46.22
   2  -5 -10  102.32   42.31
   2  -5  -9   -0.03   20.96
   2  -5  -9    6.52   22.78
   2  -5  -8   -2.82   15.95
   2  -5  -8   15.65   43.13
   2  -5  -8  -26.13   10.18
   2  -5  -7  -15.73   11.46
   2  -5  -7  -15.05   33.24
   2  -5  -7    4.34    9.00
   2  -5  -7    5.96   13.58
   2  -5  -6  278.16   99.21
   2  -5  -6  327.80   66.05
   2  -5  -6  435.42   81.81
   2  -5  -6  489.74   75.51
   2  -5  -5   63.77   41.62
   2  -5  -5   36.55   17.77
   2  -5  -5   -5.24   52.15
   2  -5  -5   48.28   28.03
   2  -5  -4   45.70   21.66
   2  -5  -4   29.76   26.88
   2  -5  -4   20.20    7.99
   2  -5  -3   10.81   25.38
   2  -5  -3    4.77   11.23
   2  -5  -2   57.23   25.93
   2  -5  -2    4.12   30.06
   2  -5  -1   -0.79    9.33
   2  -5  -1   -4.41   36.35
   2  -5   0  -54.67   67.02
   2  -5   0   -0.26    8.84
   2  -5   1  -10.48   14.83
   2  -5   1   -6.95    6.45
   2  -5   2   10.23   24.51
   2  -5   2    7.72    7.21
   2  -5   2   27.24   20.04
   2  -5   3    3.53   15.34
   2  -5   3    9.69    6.94
   2  -5   4   44.16   17.48
   2  -5   5   42.60   18.26
   2  -5   6   24.34   16.76
   2  -5   7    9.44    9.74
   2  -5   8   59.96   17.04
   2  -5   9   46.36   15.79
   2  -5  10    7.44    7.07
   2  -5  11   15.08   10.79
   2  -4 -17   37.10   15.22
   2  -4 -16    5.31   13.70
   2  -4 -15   75.42   29.95
   2  -4 -15   86.20   28.79
   2  -4 -14   10.95    9.91
   2  -4 -14   35.80   20.25
   2  -4 -13   34.28   21.05
   2  -4 -12  110.68   38.11
   2  -4 -11   11.26   11.84
   2  -4 -11  -56.59   29.96
   2  -4 -10   27.60   18.03
   2  -4 -10   34.92   34.35
   2  -4  -9   31.54   20.67
   2  -4  -9   13.15   22.93
   2  -4  -8  115.80   36.76
   2  -4  -8   87.02   27.60
   2  -4  -8   85.77   33.23
   2  -4  -7   59.61   30.39
   2  -4  -7   64.53   19.91
   2  -4  -7   82.94   43.06
   2  -4  -7   65.43   53.62
   2  -4  -6   43.83   25.00
   2  -4  -6   30.66   25.92
   2  -4  -6   65.27   41.43
   2  -4  -6   30.21   13.90
   2  -4  -5   43.26   25.08
   2  -4  -5   61.28   27.78
   2  -4  -5   54.51   45.94
   2  -4  -4    2.05   40.95
   2  -4  -4  -22.86   19.92
   2  -4  -4   -8.38   19.49
   2  -4  -3  284.47   48.91
   2  -4  -3  177.78   72.94
   2  -4  -3  248.96   44.25
   2  -4  -2  101.25   43.95
   2  -4  -2   53.43   24.76
   2  -4  -1   -3.48   18.37
   2  -4  -1   14.61    7.18
   2  -4  -1   31.56   17.90
   2  -4   0    2.10   12.45
   2  -4   0   -3.49   38.83
   2  -4   0   11.10   11.76
   2  -4   1   22.87   38.81
   2  -4   1    9.21    7.49
   2  -4   2  111.14   63.15
   2  -4   2   85.30   22.21
   2  -4   3  375.05   50.16
   2  -4   3  118.52   86.74
   2  -4   4  233.65   38.47
   2  -4   4   10.68   29.00
   2  -4   5   -2.66   27.93
   2  -4   5   33.79   13.88
   2  -4   6  133.29   30.31
   2  -4   7    9.29   10.42
   2  -4   7    2.14    4.78
   2  -4   8    8.09    7.53
   2  -4   8   -0.75    5.86
   2  -4   9    3.37    8.03
   2  -4   9   13.23   13.45
   2  -4  10   27.53   18.47
   2  -4  10   47.15   21.13
   2  -4  11   33.85   18.09
   2  -4  11   23.39   14.03
   2  -4  12   88.93   25.76
   2  -4  12   54.20   17.37
   2  -4  13   33.76   16.50
   2  -4  13  -24.62   11.94
   2  -3 -17    6.51   13.49
   2  -3 -17    7.96   14.79
   2  -3 -16   52.21   24.19
   2  -3 -15  132.84   36.48
   2  -3 -15  143.72   41.64
   2  -3 -14   48.33   20.73
   2  -3 -14   53.81   32.32
   2  -3 -13  -10.40   11.60
   2  -3 -13   20.79   17.75
   2  -3 -12   72.45   30.92
   2  -3 -11  167.92   45.50
   2  -3 -10   79.44   27.24
   2  -3 -10    9.69   40.87
   2  -3  -9   13.46   48.09
   2  -3  -9   82.91   35.55
   2  -3  -8   88.37   36.00
   2  -3  -8   59.15   25.29
   2  -3  -7  223.90   47.30
   2  -3  -7  198.08   51.19
   2  -3  -7  295.52   78.41
   2  -3  -7  131.76   44.49
   2  -3  -6   74.78   29.02
   2  -3  -6   45.04   27.55
   2  -3  -6   65.39   28.55
   2  -3  -6   81.41   24.51
   2  -3  -5 1568.42  113.51
   2  -3  -5 1336.42  182.30
   2  -3  -5 1416.10  113.12
   2  -3  -4   26.47   19.20
   2  -3  -3  855.02  144.88
   2  -3  -2  674.23  122.08
   2  -3  -1   52.47   21.57
   2  -3   0   34.14   35.84
   2  -3   1  572.98  116.71
   2  -3   2  343.71   93.96
   2  -3   2  321.69   40.78
   2  -3   3   55.33   66.38
   2  -3   3   66.01   16.47
   2  -3   4  507.63   81.03
   2  -3   4  310.61  132.70
   2  -3   5  -19.64   21.19
   2  -3   5   23.41   12.53
   2  -3   6  173.90   80.21
   2  -3   6  197.77   35.70
   2  -3   7   74.00   31.53
   2  -3   7   57.95   18.47
   2  -3   8   40.72   12.41
   2  -3   8   16.93   15.91
   2  -3   9  173.97   46.19
   2  -3   9  160.63   34.65
   2  -3  10  301.84   47.52
   2  -3  10  295.88   59.72
   2  -3  11  140.24   43.84
   2  -3  11  111.84   28.88
   2  -3  12   65.13   25.40
   2  -3  12   23.08   12.62
   2  -3  13   22.05   15.38
   2  -3  13    4.88    3.83
   2  -3  14  -10.89   15.12
   2  -3  14    5.03    5.27
   2  -3  15   79.62   25.10
   2  -2 -18   -5.86    6.73
   2  -2 -17   15.73   11.98
   2  -2 -17   -4.82   10.85
   2  -2 -16   55.10   38.09
   2  -2 -16   46.30   32.12
   2  -2 -15   15.94   16.30
   2  -2 -14   71.33   28.60
   2  -2 -14   79.62   42.24
   2  -2 -13  177.82   49.55
   2  -2 -13  172.78   62.17
   2  -2 -12   65.36   32.15
   2  -2 -12   90.32   34.58
   2  -2 -11  260.22   56.09
   2  -2 -10   32.42   21.97
   2  -2  -9   26.38   20.88
   2  -2  -8  244.06   46.23
   2  -2  -7  396.85   58.45
   2  -2  -7  420.19   57.41
   2  -2  -7  351.36   80.38
   2  -2  -6  140.78   55.81
   2  -2  -5   50.09   31.99
   2  -2  -4   23.55   33.13
   2  -2  -3 1358.58  165.70
   2  -2  -2 1075.30  160.71
   2  -2  -1 1796.02  192.61
   2  -2   0 1268.28  139.84
   2  -2   1   20.44   24.86
   2  -2   2 2105.52  190.45
   2  -2   3 1478.07  164.63
   2  -2   4   77.28   41.53
   2  -2   5  242.11   78.73
   2  -2   6   35.77   35.14
   2  -2   7   92.92   24.14
   2  -2   7 1426.73  124.88
   2  -2   8  524.49   70.16
   2  -2   8  418.06   60.24
   2  -2   9  240.05   46.88
   2  -2  10   24.62   19.21
   2  -2  11   11.36   13.55
   2  -2  12   17.69   16.67
   2  -2  13    6.50   12.36
   2  -2  13   11.89   12.26
   2  -2  14   23.75   13.74
   2  -2  14   21.39   14.01
   2  -2  15   20.21   16.17
   2  -2  15   -7.33    4.27
   2  -2  16   94.46   24.53
   2  -2  16   55.52   14.35
   2  -1 -18   32.74   21.76
   2  -1 -17    5.27   14.61
   2  -1 -16   33.73   12.63
   2  -1 -16   74.30   37.90
   2  -1 -15   19.65   29.21
   2  -1 -15   12.95   13.30
   2  -1 -14   53.09   31.29
   2  -1 -13   -2.19   17.82
   2  -1 -12  -14.30    9.03
   2  -1 -12   32.96   30.35
   2  -1 -12    1.39   18.74
   2  -1 -11  114.66   35.15
   2  -1 -11  150.08   49.22
   2  -1 -11   51.33   30.64
   2  -1 -10  914.45  112.11
   2  -1 -10  792.51   91.54
   2  -1 -10  935.42  169.71
   2  -1  -9   22.38   21.22
   2  -1  -9   52.21   23.00
   2  -1  -8  209.60   42.57
   2  -1  -8  158.65   62.61
   2  -1  -7   39.20   20.43
   2  -1  -6   46.26   33.74
   2  -1  -6   75.54   34.12
   2  -1  -5   15.75   37.34
   2  -1  -5   49.13   26.74
   2  -1  -4 2143.42  179.95
   2  -1  -4 2292.25  162.34
   2  -1  -3   81.44   26.43
   2  -1  -3  135.29   46.49
   2  -1  -2  440.78   88.45
   2  -1  -2  352.86   56.30
   2  -1  -1 1096.66  125.48
   2  -1  -1  862.03   79.63
   2  -1   0  350.65   86.73
   2  -1   1  178.03   53.41
  -2   1  -2  185.91   31.89
   2  -1   2  156.50   41.34
  -2   1  -3   30.83    8.68
   2  -1   3   47.24   45.42
  -2   1  -4  -10.33    9.18
   2  -1   4  -30.27   38.77
  -2   1  -5   71.69   29.43
   2  -1   5  110.05   48.58
   2  -1   6  -11.68   29.22
  -2   1  -6   -6.24   23.04
  -2   1  -7   60.26   26.59
  -2   1  -8    3.43   21.17
   2  -1   8   -9.54   20.12
  -2   1  -9  156.73   69.96
   2  -1   9   91.95   36.24
   2  -1   9   18.38   13.64
   2  -1  10  122.09   65.92
  -2   1 -10  246.94  106.00
   2  -1  10  161.26   46.45
   2  -1  11  131.01   42.96
   2  -1  12   56.41   30.15
   2  -1  13   60.66   30.47
   2  -1  14    8.40   18.18
   2  -1  15   11.10   12.62
   2  -1  16   13.31    8.98
   2  -1  17   29.00   12.81
   2  -1  17    7.45    7.79
   2   0 -18   19.10   19.48
   2   0 -17  -11.58   12.69
   2   0 -16   12.91   11.33
   2   0 -15   23.85   16.56
   2   0 -15   29.49   30.82
   2   0 -14   52.30   33.28
   2   0 -14   31.81   23.12
   2   0 -13    8.25   36.96
   2   0 -13   10.68   15.20
   2   0 -12   32.01   29.11
   2   0 -12  -11.68   67.30
   2   0 -11  320.01   68.39
   2   0 -11  351.46  119.83
   2   0 -10 1031.06  119.54
   2   0 -10 1001.02  184.91
   2   0  -9  251.59   45.50
   2   0  -9  346.24   63.51
   2   0  -9  283.63   88.03
   2   0  -8    6.11   12.40
   2   0  -8   33.22   40.29
   2   0  -7  193.45   67.55
   2   0  -6  104.09   52.98
   2   0  -5  276.34   71.94
   2   0  -4   -8.05   14.97
   2   0  -3 2589.71  188.77
   2   0  -3 2654.41  191.52
   2   0  -2  145.32   47.81
   2   0  -2  139.78   42.39
   2   0  -1  793.03   96.53
   2   0  -1  892.67  102.81
   2   0   0  419.77   72.09
  -2   0   0  555.30   65.22
   2   0   0  433.96   72.45
   2   0   1  118.32   39.30
   2   0   1   71.05   24.92
  -2   0  -1  144.28   33.30
  -2   0  -2   61.11   20.81
   2   0   2   17.31   28.37
  -2   0  -3   81.63   32.75
   2   0   3   68.97   24.56
   2   0   4  363.04   67.69
  -2   0  -4  394.67   75.18
   2   0   5   10.53   31.34
  -2   0  -5   63.80   25.10
  -2   0  -6  -21.56   32.32
   2   0   6    6.99    8.62
  -2   0  -7   79.97   40.64
  -2   0  -8    1.47   24.49
   2   0   9   -2.31    7.53
  -2   0  -9   16.60   28.81
   2   0   9   31.33   31.40
   2   0   9   25.36   16.97
   2   0  10   39.43   28.17
  -2   0 -10   48.95   53.84
   2   0  10    6.21   18.37
   2   0  10   29.47   16.11
  -2   0 -11  253.58  102.40
   2   0  11  261.42   60.30
   2   0  11  131.30   61.41
   2   0  11  284.38   47.99
   2   0  12   67.01   29.36
  -2   0 -12   15.81   32.77
   2   0  13   93.08   45.64
   2   0  14   12.72   18.89
   2   0  15    1.01   10.07
   2   0  16  -10.45   19.20
   2   0  17  129.64   28.90
   2   0  18    3.19    5.75
   2   0  18    6.53    5.99
   2   1 -17  -11.68   16.32
   2   1 -16  -36.95   25.23
   2   1 -15   43.00   37.16
   2   1 -14   40.78   26.27
   2   1 -13  259.55   68.98
   2   1 -12  958.11  129.68
   2   1 -12 1015.85  117.17
   2   1 -12 1063.69  224.15
   2   1 -11  379.16   72.88
   2   1 -11  384.83   70.47
   2   1 -11  486.15  150.40
   2   1 -10 1076.50  113.24
   2   1 -10  998.53  114.57
   2   1 -10 1103.60  205.90
   2   1  -9  101.25   44.76
   2   1  -9   76.86   48.19
   2   1  -8  141.43   69.51
   2   1  -8  162.32   41.48
   2   1  -7  117.95   64.41
   2   1  -6   31.69   44.62
   2   1  -5  247.58   72.64
   2   1  -4 1487.90  172.57
   2   1  -3  208.07   60.40
   2   1  -2 1419.40  153.82
   2   1  -1   98.97   32.32
   2   1   0  319.99   75.82
   2   1   1  -23.25   18.97
  -2  -1  -1    4.01   12.56
   2   1   2   -3.16   22.93
  -2  -1  -2   11.77   18.84
  -2  -1  -3   83.26   21.38
  -2  -1  -4  349.44   68.47
  -2  -1  -5  216.48   62.29
  -2  -1  -6  169.75   60.75
  -2  -1  -7    2.12   25.36
  -2  -1  -8   86.03   54.11
  -2  -1  -9    7.71   18.81
   2   1   9   41.32   36.03
  -2  -1 -10  333.71  111.81
   2   1  10  338.81   49.82
   2   1  10  310.81   50.02
  -2  -1 -11  700.02  174.94
   2   1  11  646.40   86.09
   2   1  11  731.05   77.00
   2   1  12   48.84   23.92
  -2  -1 -12   77.29   71.77
   2   1  12    3.55   12.55
   2   1  12   54.33   22.00
   2   1  13    4.30    7.20
  -2  -1 -13  -12.29   39.26
   2   1  13   18.42   15.48
   2   1  14   14.57    8.82
   2   1  14   20.51   20.26
   2   1  15  -11.57   21.05
   2   1  16  -11.29   20.05
   2   1  17   34.14   15.42
   2   1  18   12.20   13.21
   2   1  19   -3.10    7.26
   2   2 -17   17.65   16.04
   2   2 -16   22.92   14.33
   2   2 -15   -4.94   13.13
   2   2 -14  119.07   45.58
   2   2 -13  170.00   51.67
   2   2 -12    0.04   16.09
   2   2 -11   42.63   22.36
   2   2 -11   81.90   54.72
   2   2 -10 1166.24  122.13
   2   2 -10 1365.18  241.32
   2   2  -9  143.00   75.72
   2   2  -9   95.74   35.61
   2   2  -8   81.20   29.27
   2   2  -8  117.86   66.77
   2   2  -7   -9.17   20.38
   2   2  -7   -5.36   13.86
   2   2  -6   27.15   19.76
   2   2  -5  680.51  146.48
   2   2  -4  578.33  125.39
   2   2  -3   26.40   24.45
   2   2  -2 1234.23  167.18
   2   2  -1   31.41   25.71
   2   2   0  109.80   47.91
   2   2   1   43.09   32.24
  -2  -2  -2    8.13   14.58
   2   2   2  -16.04   19.27
  -2  -2  -3  180.19   62.27
   2   2   3  159.07   57.40
  -2  -2  -4 2959.41  247.74
  -2  -2  -5 1158.48  158.40
  -2  -2  -6  346.83   92.90
  -2  -2  -7  293.06   87.92
  -2  -2  -8  527.15  124.03
  -2  -2  -9  188.70   74.54
   2   2   9  206.21   35.51
  -2  -2 -10  207.38   89.05
   2   2  10  199.80   34.08
   2   2  10  202.55   36.63
  -2  -2 -11  208.21   85.67
   2   2  11  175.05   40.65
   2   2  11  132.17   36.47
  -2  -2 -12  109.93   71.27
   2   2  12  193.89   63.08
   2   2  12  128.66   32.53
  -2  -2 -13  194.13   91.79
   2   2  13  221.32   41.66
   2   2  14  558.21   74.94
   2   2  14  571.09   87.66
   2   2  15  177.15   51.35
   2   2  15  303.02   52.27
   2   2  16   14.15    7.45
   2   2  16   49.24   21.32
   2   2  17   22.21   22.38
   2   2  18   77.06   21.38
   2   2  19   -0.68    6.84
   2   3 -16  117.94   30.43
   2   3 -15  103.63   32.89
   2   3 -14   -0.71   14.91
  -2  -3  13  124.68   30.84
   2   3 -13  116.01   40.82
  -2  -3  12   88.35   32.07
   2   3 -12   71.19   35.46
  -2  -3  11    3.47   12.04
   2   3 -11   -5.38   23.77
  -2  -3  10  -11.12   13.39
   2   3 -10   25.49   12.31
   2   3  -9  557.16   87.06
  -2  -3   9  758.66   90.60
   2   3  -9  689.53  178.96
  -2  -3   8   65.57   31.15
   2   3  -8   37.65   45.87
   2   3  -8   17.21    9.34
  -2  -3   7  204.21   49.26
   2   3  -7  169.10   46.68
   2   3  -7  190.55   88.96
   2   3  -6  481.98   80.89
   2   3  -6  669.56  156.87
  -2  -3   6  583.86   67.56
   2   3  -5  278.07  101.94
   2   3  -4   65.82   54.13
   2   3  -3   15.39   43.61
   2   3  -2  391.53  106.62
   2   3  -1  294.10   89.70
   2   3   0  340.46   89.69
   2   3   1   34.68   40.21
   2   3   2  148.46   77.83
   2   3   3  108.31   53.97
  -2  -3  -3  150.69   70.04
  -2  -3  -4  682.91  143.35
  -2  -3  -5  328.15  115.66
  -2  -3  -6  826.49  160.67
  -2  -3  -7    6.01   32.34
  -2  -3  -8  202.96   89.63
  -2  -3  -9   94.75   54.47
   2   3   9   51.60   20.51
  -2  -3 -10   85.49   41.93
   2   3  10   37.23   19.55
  -2  -3 -11  341.63  106.17
   2   3  11  222.68   25.03
   2   3  11  291.11   47.20
  -2  -3 -12 1255.63  243.51
   2   3  12 1130.56  100.25
   2   3  12 1132.84   93.23
  -2  -3 -13  509.82  165.19
   2   3  13  434.22   59.56
   2   3  14   -8.18   16.31
   2   3  15  135.50   35.57
   2   3  16   -9.42   16.49
   2   3  16   11.71   16.49
   2   3  17   38.73   23.66
   2   3  17   55.86   21.25
   2   3  18    7.37   15.30
   2   3  19   28.13   12.06
   2   4 -15   54.33   18.20
  -2  -4  13   51.76   22.11
   2   4 -13    6.59    7.59
  -2  -4  12   -8.09   14.25
   2   4 -12   16.93   23.85
  -2  -4  11   27.19   27.71
   2   4 -11   60.01   28.54
  -2  -4  10   32.48   16.71
   2   4 -10   29.26   34.88
   2   4  -9  432.86   79.84
  -2  -4   9  464.14   70.51
   2   4  -8  122.72   79.31
   2   4  -8  129.99   44.83
  -2  -4   8  126.68   44.17
   2   4  -7  148.67   51.96
   2   4  -7  107.47   74.73
  -2  -4   7  187.96   50.42
   2   4  -6   -2.13    9.38
   2   4  -6  -14.24   44.10
  -2  -4   6    3.63   14.79
   2   4  -5   45.60   29.70
   2   4  -5   74.12   59.29
  -2  -4   5   80.73   32.71
   2   4  -4  185.30   49.71
   2   4  -4  167.57   74.73
  -2  -4   4  175.56   41.76
   2   4  -3   15.01   22.09
   2   4  -3   20.25   21.80
   2   4  -2   21.27   28.74
   2   4  -1   16.64   31.76
   2   4   0   99.87   56.99
   2   4   1  475.49  116.46
   2   4   2  476.72  126.45
   2   4   3   21.68   50.11
  -2  -4  -3    2.55   29.72
  -2  -4  -4 1648.33  245.97
  -2  -4  -5  247.62  105.08
  -2  -4  -6   91.63   76.54
   2   4   7   65.58   28.56
  -2  -4  -7   71.50   49.60
  -2  -4  -8  112.90   24.24
  -2  -4  -8  110.79   90.09
   2   4   8   97.50   29.09
  -2  -4  -9  116.10  122.55
   2   4   9   23.55   24.73
  -2  -4 -10  510.87  157.82
   2   4  10  345.23   51.57
  -2  -4 -11  287.93  112.39
   2   4  11  281.96   47.42
  -2  -4 -12   59.22   59.95
   2   4  12    7.80    9.53
   2   4  13   68.02   32.04
   2   4  14   43.38   20.78
   2   4  15   -5.82    6.26
   2   4  16    9.27   16.55
   2   4  16    8.82   16.36
   2   4  17   36.81   21.22
   2   4  17   57.96   21.21
   2   4  18   14.61   16.76
   2   5 -13   37.96   16.27
  -2  -5  12   10.53   14.42
  -2  -5  11   58.93   23.61
  -2  -5  10   73.37   29.75
  -2  -5   9   39.99   20.89
   2   5  -8  194.92   51.37
  -2  -5   8  248.49   55.70
  -2  -5   7   77.30   41.15
   2   5  -7   26.62   23.73
  -2  -5   6  155.26   46.23
   2   5  -6   83.30   45.34
   2   5  -6  133.10   86.49
  -2  -5   5  130.76   40.99
   2   5  -5  157.94   83.70
  -2  -5   4   14.29   19.38
   2   5  -4  -27.40   48.90
  -2  -5   3    7.63   24.96
   2   5  -3   30.94   41.58
   2   5  -2   43.62   28.32
   2   5  -2  -10.96   35.81
  -2  -5   2   22.64   20.67
   2   5  -1   44.11   23.67
   2   5  -1   -6.40   10.24
   2   5  -1    8.10   29.42
   2   5   0   35.38   42.27
   2   5   0   81.83   33.34
   2   5   0   17.27   19.67
   2   5   1   24.11   26.45
   2   5   1   10.47   14.37
   2   5   1   25.03   18.08
   2   5   2   19.57   19.58
   2   5   2   48.04   22.03
   2   5   2   39.31   18.13
  -2  -5  -2   55.98   62.52
   2   5   3   53.54   21.32
   2   5   3   69.58   32.05
  -2  -5  -3   57.82   70.30
   2   5   4   11.72    7.21
   2   5   4   62.14   31.02
   2   5   5   38.80   13.48
  -2  -5  -5   80.05   26.54
  -2  -5  -5   18.34   26.72
   2   5   6  468.92   71.49
  -2  -5  -6  455.12   51.11
  -2  -5  -6  531.15  158.08
   2   5   7    4.80    8.25
  -2  -5  -7   12.01   10.83
  -2  -5  -7   33.57   55.02
   2   5   8   14.28   12.00
  -2  -5  -8   31.86   15.24
  -2  -5  -8    8.02   59.42
  -2  -5  -9   36.43   17.24
  -2  -5  -9    9.02   19.97
   2   5   9   35.14   11.82
  -2  -5 -10   59.24   60.52
   2   5  10   28.45   18.12
  -2  -5 -11  -58.66   40.41
   2   5  11   12.04   14.47
   2   5  12  172.79   40.82
   2   5  13  112.07   34.44
   2   5  14   49.06   23.16
   2   5  15   65.31   28.17
   2   5  16    3.28   11.99
   2   5  17    0.82    8.60
   2   5  17   -2.48    4.41
   2   5  18    4.81    4.60
   2   5  18   -9.96    9.81
   2   6 -11   -4.21    7.80
   2   6 -11   25.61   15.59
   2   6 -10  222.61   41.82
   2   6 -10    7.61   13.52
   2   6  -9  106.25   32.22
  -2  -6   9   47.52   26.01
  -2  -6   8   80.77   31.62
   2   6  -8  122.00   35.94
   2   6  -7   23.80   15.38
  -2  -6   7    4.72    7.88
  -2  -6   6   -3.12    9.39
   2   6  -6    3.39   13.96
  -2  -6   5    1.18   18.73
   2   6  -5    1.16   13.02
  -2  -6   4   11.69   15.83
   2   6  -4   25.89   21.83
   2   6  -3    6.95   11.93
   2   6  -3   -0.32   26.37
   2   6  -3   18.81   16.25
   2   6  -2   38.98   47.63
   2   6  -2  -31.49   29.09
   2   6  -2  -11.78   17.77
   2   6  -1   46.35   58.37
   2   6  -1   18.39   22.60
   2   6  -1   39.68   26.56
   2   6   0  228.94   51.65
   2   6   0  199.56   90.05
   2   6   0  231.55   57.55
   2   6   1  348.42  119.93
   2   6   1  424.88   70.32
   2   6   1  441.89   72.77
  -2  -6  -1  622.93  175.09
   2   6   2  120.96   41.44
   2   6   2   85.00   31.22
  -2  -6  -2  115.48   75.48
   2   6   3  153.10   50.38
   2   6   3  159.93   45.58
  -2  -6  -3  175.02   88.69
   2   6   4   90.07   36.77
  -2  -6  -4   82.03   24.15
  -2  -6  -4   20.48   20.50
  -2  -6  -5  281.92   45.73
   2   6   5  306.31   57.63
  -2  -6  -5  304.69  106.25
   2   6   6  351.77   61.46
  -2  -6  -6  284.85   43.00
  -2  -6  -6  384.94  138.14
  -2  -6  -7   23.66   33.21
  -2  -6  -7    9.22   29.05
   2   6   8   35.60   31.82
  -2  -6  -8  -12.66   48.83
  -2  -6  -8   13.88   12.68
   2   6   9   44.86   18.03
  -2  -6  -9   54.38   18.18
  -2  -6  -9   55.27   33.14
   2   6  10   80.36   25.47
   2   6  11   22.13   14.37
   2   6  12    8.88   13.95
   2   6  13   54.33   26.73
   2   6  14   43.47   20.21
   2   6  15   13.26   14.96
   2   6  16   12.39   10.67
   2   6  17   17.41   12.89
   2   6  17   10.26    8.87
   2   7  -9  174.90   32.22
   2   7  -8   63.78   23.65
   2   7  -8   15.48   10.12
   2   7  -7   -3.03   11.14
   2   7  -7    0.12    8.01
   2   7  -6   17.28   10.84
   2   7  -6   -0.55    9.77
   2   7  -5   28.13   23.72
   2   7  -5   26.60   31.65
   2   7  -4  119.40   35.85
   2   7  -4   94.64   37.75
   2   7  -3  248.32   50.20
   2   7  -3  276.92   58.58
   2   7  -2   17.67    9.17
   2   7  -2   28.88   21.31
   2   7  -1 1274.16  131.06
   2   7  -1 1277.64  115.47
   2   7   0  911.55   97.52
   2   7   0  897.93  120.08
   2   7   1    8.25   12.80
   2   7   1   21.38   31.09
   2   7   2   55.42   30.85
   2   7   2    9.69   16.83
   2   7   3   46.14   28.88
   2   7   4   29.55   22.79
  -2  -7  -4   -0.37   11.54
   2   7   5  484.84   71.47
  -2  -7  -5  479.20   64.51
  -2  -7  -6  561.11   64.00
  -2  -7  -7   38.03   20.48
   2   7   8  151.66   37.83
  -2  -7  -8  141.32   31.47
   2   7   9  115.68   34.06
  -2  -7  -9  130.82   31.61
   2   7  10   22.04   13.55
   2   7  11   -1.17    8.23
   2   7  12   86.83   22.83
   2   7  13   20.55    5.57
   2   7  14   16.71   11.82
   2   7  15   62.27   28.44
   2   7  16   -0.09    6.29
   2   8  -6    2.99    8.41
   2   8  -5   11.10   10.08
   2   8  -4   13.87    9.96
   2   8  -3  174.62   43.15
   2   8  -2   87.97   34.47
   2   8  -1   16.71   19.52
   2   8   0   34.56   33.77
  -2  -8  -2   51.69   18.91
  -2  -8  -3   60.63   23.65
  -2  -8  -4   21.48   12.23
  -2  -8  -5  -22.03   16.64
  -2  -8  -6   67.34   19.54
   2   8   7   65.41   20.25
  -2  -8  -7   44.91   15.41
   2   8   8    9.02    9.37
  -2  -8  -8   18.41   14.65
  -2  -8  -9  -12.37   10.21
   2   8   9   15.68   14.92
   2   8  10   24.43   16.12
   2   8  11  -12.60   11.99
   2   8  12   22.42   11.69
   2   8  13   17.63    7.48
   2   8  14    6.25    4.43
  -2  -9   1  115.84   20.16
  -2  -9   0   -1.52    8.28
  -2  -9  -1    2.21    4.33
  -2  -9  -2   28.55   11.46
  -2  -9  -3   19.68   10.84
  -2  -9  -4   74.39   18.95
   2   9   5   63.58   19.86
  -2  -9  -5   96.45   20.76
   2   9   6   -0.60    9.38
  -2  -9  -6    2.59    5.88
   2   9   7   25.45    8.66
  -2  -9  -7   21.59    9.10
   2   9   8    9.10    3.79
   2   9   9    1.99    4.17
   2   9  10   -3.86    5.62
   2   9  11    7.74    5.02
   3  -7  -7    9.49    7.90
   3  -7  -6   12.20   14.72
   3  -7  -5   48.71   17.58
   3  -7  -4   16.43   19.08
   3  -7  -3    8.85    7.11
   3  -7  -3    5.28   15.91
   3  -7  -2    1.82    8.04
   3  -7  -2   20.06   18.26
   3  -7  -1   11.50   17.25
   3  -7  -1   -5.48    7.57
   3  -7   0   -9.67    5.16
   3  -7   0    3.54   11.60
   3  -7   1   18.37   12.22
   3  -7   2    5.27    6.72
   3  -6  -9   17.24   12.50
   3  -6  -8    9.88   21.14
   3  -6  -7   24.47   31.96
   3  -6  -6  -20.67   19.59
   3  -6  -6    4.60   19.33
   3  -6  -5    0.20   12.20
   3  -6  -5   24.04   32.42
   3  -6  -4  158.25   39.15
   3  -6  -4  212.93   60.95
   3  -6  -3   60.37   26.97
   3  -6  -3   72.71   38.14
   3  -6  -2    8.35   14.71
   3  -6  -2   13.01   18.02
   3  -6  -1   34.14   20.25
   3  -6   0  -15.73    7.52
   3  -6   1   22.14   12.80
   3  -6   2   15.04   10.67
   3  -6   3   60.88   16.78
   3  -6   4   65.21   18.14
   3  -6   5   26.32   10.83
   3  -6   6    5.05    3.94
   3  -5 -14    1.13    7.35
   3  -5 -12    1.64   10.94
   3  -5 -11   17.08   15.12
   3  -5 -10    3.48    8.10
   3  -5 -10   27.53   19.76
   3  -5  -9   66.95   29.88
   3  -5  -9   44.66   25.30
   3  -5  -8   24.95   17.33
   3  -5  -8   -9.97   29.56
   3  -5  -7   30.28   17.92
   3  -5  -7    1.79   10.34
   3  -5  -7   10.12   26.98
   3  -5  -6   18.96    7.56
   3  -5  -6   21.17   15.30
   3  -5  -5   73.47   26.56
   3  -5  -5   77.33   32.92
   3  -5  -5   67.82   24.30
   3  -5  -4   14.78    6.34
   3  -5  -4    5.37   20.56
   3  -5  -4    2.19   14.87
   3  -5  -3  127.45   41.56
   3  -5  -2    6.88   11.41
   3  -5  -1   62.78   28.02
   3  -5   0  105.81   33.34
   3  -5   1  -22.02   18.04
   3  -5   2   -5.52   18.08
   3  -5   3   78.23   28.61
   3  -5   4  182.33   35.85
   3  -5   5  130.59   30.25
   3  -5   5   78.18   19.76
   3  -5   6  225.40   40.44
   3  -5   6  137.00   26.67
   3  -5   7    8.33   11.67
   3  -5   7    9.27    7.08
   3  -5   8   70.57   18.96
   3  -5   9   24.25   11.74
   3  -4 -15    4.28    7.93
   3  -4 -14  -10.39    6.58
   3  -4 -12    6.44   11.89
   3  -4 -11   27.91   23.53
   3  -4 -10   22.09   24.26
   3  -4 -10  -30.98   32.73
   3  -4  -9   12.08   15.03
   3  -4  -9  -24.56   35.57
   3  -4  -8   20.17   12.27
   3  -4  -8    5.81    9.94
   3  -4  -8    9.84   15.37
   3  -4  -7   62.55   29.10
   3  -4  -7   74.97   38.47
   3  -4  -7   53.48   37.09
   3  -4  -6    5.65   15.49
   3  -4  -6    8.85   10.94
   3  -4  -6    8.32   17.39
   3  -4  -5   87.43   40.05
   3  -4  -5   66.90   38.38
   3  -4  -5  114.67   58.21
   3  -4  -4   13.86   22.03
   3  -4  -4    7.56   16.77
   3  -4  -3  918.27   91.12
   3  -4  -3  980.47  191.19
   3  -4  -3 1083.69  111.48
   3  -4  -2   28.48   21.92
   3  -4  -2   11.48   27.67
   3  -4  -1  -23.98   19.66
   3  -4  -1 -181.94   82.77
   3  -4   0    2.39   12.72
   3  -4   0  -13.02   61.44
   3  -4   1   80.58   28.12
   3  -4   1   79.86   64.99
   3  -4   1   49.82   20.39
   3  -4   2  124.46   35.73
   3  -4   2  104.11   28.26
   3  -4   3  326.32   56.77
   3  -4   3  236.06   41.18
   3  -4   4  113.84   27.49
   3  -4   5  -13.93   12.54
   3  -4   6  120.46   27.10
   3  -4   7   48.12   17.90
   3  -4   8    7.28    6.05
   3  -4   9   13.08    9.61
   3  -4  10   31.26   10.63
   3  -4  11  104.94   21.13
   3  -4  12    6.67   10.82
   3  -3 -15   17.41   10.28
   3  -3 -14   11.44   12.87
   3  -3 -14   40.16   24.24
   3  -3 -13   47.14   31.61
   3  -3 -12    9.74   16.72
   3  -3 -12   42.19   27.65
   3  -3 -11   -0.08   27.56
   3  -3 -11    3.75    8.02
   3  -3 -10   21.48   14.44
   3  -3 -10   36.88   26.50
   3  -3  -9   63.91   26.79
   3  -3  -9   70.83   35.23
   3  -3  -8  -23.71   24.19
   3  -3  -8    2.41   16.94
   3  -3  -8   17.55   18.50
   3  -3  -7   65.15   32.47
   3  -3  -7  -31.87   60.02
   3  -3  -7   56.51   33.38
   3  -3  -7   56.73   29.64
   3  -3  -6   74.97   95.84
   3  -3  -6   43.90   73.56
   3  -3  -6   31.74   24.41
   3  -3  -6   -7.45   17.43
   3  -3  -6   23.63   20.43
   3  -3  -5  132.58   37.14
   3  -3  -5  115.71   30.93
   3  -3  -5  146.05   49.25
   3  -3  -5  152.54   50.65
   3  -3  -5  102.09   40.88
   3  -3  -4    4.46   11.21
   3  -3  -4   13.00   14.38
   3  -3  -4   26.75   18.38
   3  -3  -4    1.42   39.03
   3  -3  -3  936.03   91.17
   3  -3  -3  896.30  176.72
   3  -3  -3  928.82   95.40
   3  -3  -3  929.10  108.47
   3  -3  -2  112.19   32.14
   3  -3  -2  172.34   43.23
   3  -3  -2  127.44   45.11
   3  -3  -2   68.87   69.93
   3  -3  -1  115.36   32.43
   3  -3  -1   83.05   34.82
   3  -3  -1   72.88   21.70
   3  -3  -1  102.44   60.96
   3  -3   0   -3.64    6.96
   3  -3   0    3.74   14.99
   3  -3   0   13.84    9.03
   3  -3   1   77.51   26.28
   3  -3   1   43.51   26.62
   3  -3   1   -3.17   18.09
   3  -3   1   42.14   18.86
   3  -3   2  402.56   71.86
   3  -3   2  270.19   42.22
   3  -3   2  258.87   81.94
   3  -3   3  191.62   52.28
   3  -3   3  150.24   32.74
   3  -3   3  228.77   98.04
   3  -3   4    3.22    8.20
   3  -3   4   10.14   14.26
   3  -3   4  -37.89   66.15
   3  -3   5  517.03   89.37
   3  -3   5  389.14   52.41
   3  -3   6  109.91   29.18
   3  -3   7   15.15   14.81
   3  -3   8   14.61   11.40
   3  -3   9   51.45   18.56
   3  -3  10   16.57   12.67
   3  -3  11   20.06   14.71
   3  -3  12  -16.60   13.32
   3  -3  13   13.15    7.24
   3  -2 -14   23.47   21.23
   3  -2 -14   -5.46   23.32
   3  -2 -14   25.11   14.72
   3  -2 -13    1.61   14.29
   3  -2 -13   -0.28    9.42
   3  -2 -13   28.82   20.59
   3  -2 -12   55.33   32.08
   3  -2 -12    6.68   18.39
   3  -2 -11   32.49   24.13
   3  -2 -11   23.97   19.41
   3  -2 -10  257.61   54.87
   3  -2 -10  232.06   59.47
   3  -2  -9  131.29   39.61
   3  -2  -9  184.34   47.90
   3  -2  -8  114.66   34.21
   3  -2  -8   69.01   26.17
   3  -2  -7   75.02   35.35
   3  -2  -7   33.46   20.47
   3  -2  -7   14.39    7.07
   3  -2  -7   46.88   22.54
   3  -2  -6  130.47   36.46
   3  -2  -6  173.56   49.63
   3  -2  -6  162.22  132.91
   3  -2  -6   83.28   38.15
   3  -2  -5  248.15   92.82
   3  -2  -5  232.73   48.25
   3  -2  -5  223.89   52.26
   3  -2  -5  218.67   48.85
   3  -2  -4  -11.01   10.25
   3  -2  -4  -40.14   42.92
   3  -2  -4   27.85   21.11
   3  -2  -4   -5.65   14.27
   3  -2  -3    3.53   11.74
   3  -2  -3   10.31   10.10
   3  -2  -2 1349.08  107.25
   3  -2  -2 1422.39  199.62
   3  -2  -2 1437.36  107.43
   3  -2  -2 1422.09  116.45
   3  -2  -1  109.07   33.09
   3  -2  -1  181.47   47.75
   3  -2  -1  120.59   50.65
   3  -2  -1   96.55   24.02
   3  -2  -1  240.33  100.17
   3  -2   0  336.43   49.66
   3  -2   0  336.60   53.68
   3  -2   0  220.60   33.07
   3  -2   0  313.47   95.76
   3  -2   1  143.04   38.59
   3  -2   1  128.31   28.18
   3  -2   1  131.65   61.89
   3  -2   2   -5.12   20.39
   3  -2   2    9.84    8.57
   3  -2   2  -25.84   48.91
   3  -2   3   24.62   25.36
   3  -2   3  -12.18   14.96
   3  -2   3   -7.79   27.64
   3  -2   4  170.24   50.97
   3  -2   4  157.77   33.15
   3  -2   4  138.20   77.40
   3  -2   5   -8.10   10.78
   3  -2   5   -2.22    8.19
   3  -2   5    9.14   23.79
   3  -2   6   69.18   36.08
   3  -2   6   33.15   19.49
   3  -2   7   49.24   20.84
   3  -2   7   22.48   11.96
   3  -2   8   58.60   30.48
   3  -2   8    2.88    6.82
   3  -2   9   12.39   11.26
   3  -2  10   -3.09   10.72
   3  -2  11   11.29   11.06
   3  -2  11    5.57   14.50
   3  -2  12  110.35   35.56
   3  -2  12  105.37   29.14
   3  -2  13   11.97   11.94
   3  -2  13  -10.13   10.04
   3  -2  14  -18.26    7.32
   3  -2  15    5.46    3.99
   3  -1 -16   12.92   13.00
   3  -1 -15   93.83   28.82
   3  -1 -14  125.02   41.57
   3  -1 -13   41.99   27.65
   3  -1 -13   27.08   30.74
   3  -1 -13    5.60    9.01
   3  -1 -12    9.12   17.52
   3  -1 -12  -11.01   11.05
   3  -1 -12   17.39   20.35
   3  -1 -11   96.34   41.71
   3  -1 -11   85.46   35.67
   3  -1 -10  396.78   67.79
   3  -1 -10  352.15   71.63
   3  -1  -9  486.62   76.16
   3  -1  -9  526.72   70.91
   3  -1  -9  486.89   82.97
   3  -1  -8  324.35   61.67
   3  -1  -8  370.18   71.09
   3  -1  -7  101.65   34.02
   3  -1  -7  112.31   43.06
   3  -1  -6   13.42   19.69
   3  -1  -6   11.62   24.37
   3  -1  -6  -16.64   17.87
   3  -1  -6   -4.44   13.16
   3  -1  -5   71.80   27.69
   3  -1  -5   53.95   16.00
   3  -1  -4    5.36    8.75
   3  -1  -4  -42.90   46.17
   3  -1  -3 1237.82  101.00
   3  -1  -3 1028.37  153.66
   3  -1  -2  773.99  161.36
   3  -1  -1 1315.21  170.10
   3  -1   0  364.51   87.87
   3  -1   1   50.86   15.82
   3  -1   2   20.48   23.74
   3  -1   3  105.64   74.88
   3  -1   4   55.89   60.84
   3  -1   4   78.98   20.53
   3  -1   5   -1.01   12.41
   3  -1   5   -5.24   52.20
   3  -1   6   12.48   23.11
   3  -1   6  -83.43   46.57
   3  -1   7  -77.39   43.20
   3  -1   8   17.24   37.44
   3  -1   9   10.80   11.24
   3  -1   9    3.58   15.62
   3  -1  10   26.07   28.44
   3  -1  10    8.96    9.56
   3  -1  11   44.60   27.26
   3  -1  12  139.86   43.55
   3  -1  13   25.95   20.77
   3  -1  14   25.02   16.26
   3  -1  14   17.03   12.03
   3  -1  15    0.72    9.29
   3  -1  15    3.50    8.07
   3  -1  16   -5.87    7.16
   3   0 -16   55.47   23.92
   3   0 -15  159.47   42.15
   3   0 -14   25.93   17.53
   3   0 -13   84.44   36.40
   3   0 -12  329.18   61.22
   3   0 -12  319.94   78.40
   3   0 -12  313.13   63.28
   3   0 -11   44.19   28.96
   3   0 -11   45.04   26.54
   3   0 -11   58.36   29.43
   3   0 -10  815.38   98.73
   3   0 -10  763.36  116.24
   3   0 -10  722.90  102.50
   3   0  -9  235.98   57.09
   3   0  -9  276.45   62.29
   3   0  -9  256.01   53.77
   3   0  -9  351.22  110.76
   3   0  -8   15.76   21.90
   3   0  -8   48.35   18.80
   3   0  -8   37.96   33.21
   3   0  -7  349.37   68.86
   3   0  -7  273.92   53.96
   3   0  -7  253.38   86.57
   3   0  -6   39.81   29.07
   3   0  -6   70.95   53.98
   3   0  -5   81.61   53.02
   3   0  -4   70.57   34.88
   3   0  -3  540.31  107.39
   3   0  -2   75.73   38.19
   3   0  -1   67.94   42.75
   3   0   0  621.63  103.99
   3   0   0  562.60  101.10
   3   0   1   73.90   20.57
   3   0   2   -8.85   36.56
   3   0   3  -36.07   39.08
   3   0   6   43.75   32.26
   3   0   7   46.28   30.34
   3   0   8   12.06   16.56
   3   0   8   42.16   38.86
   3   0   9   26.72   34.05
   3   0   9   25.07   21.15
   3   0  10   -5.94   11.72
   3   0  10    8.33   26.53
   3   0  11   43.17   27.85
   3   0  11  111.67   43.50
   3   0  12  148.95   51.13
   3   0  12  142.76   45.75
   3   0  13  103.02   38.47
   3   0  14   17.72   17.35
   3   0  15   -1.66    8.13
   3   0  16    9.72    7.29
   3   0  17    0.78    6.59
   3   0  17   14.72    6.74
   3   1 -16  -40.32   20.50
   3   1 -15   28.93   25.92
   3   1 -14   25.18   29.96
   3   1 -13   -3.20   28.35
   3   1 -12   -3.50   18.28
   3   1 -11  355.55   70.19
   3   1 -10  101.57   40.14
   3   1 -10  115.02   41.95
   3   1 -10  106.35   65.58
   3   1  -9  -16.66   11.00
   3   1  -9    7.90   16.10
   3   1  -9  -10.70   36.31
   3   1  -8  961.40  109.99
   3   1  -8 1023.39   98.31
   3   1  -8 1014.65  199.77
   3   1  -7   38.16   27.13
   3   1  -7   54.25   26.35
   3   1  -7  -35.55   49.04
   3   1  -6   17.49   18.52
   3   1  -6   25.17   12.51
   3   1  -6   28.59   39.74
   3   1  -5  197.79   42.86
   3   1  -5  125.47   48.10
   3   1  -4  127.30   65.41
   3   1  -3   43.92   43.47
   3   1  -2 1970.31  225.09
   3   1  -1  132.80   58.26
  -3  -1   1   71.04   34.24
   3   1   0  100.80   43.12
  -3  -1   0  142.55   56.28
   3   1   1   36.71   38.26
  -3  -1  -1   38.03   48.42
  -3  -1  -2  203.52   64.56
  -3  -1  -3   82.20   51.61
  -3  -1  -4  194.41   71.74
  -3  -1  -5  250.37   85.58
  -3  -1  -6   12.95   20.66
   3   1   6  -13.17   14.67
  -3  -1  -7  517.11  126.55
   3   1   7  714.07   85.76
   3   1   8  730.73   94.57
   3   1   8  869.74   77.22
  -3  -1  -8  694.67  156.87
  -3  -1  -9   83.55   55.44
   3   1   9   38.00   32.53
   3   1   9  108.14   30.90
  -3  -1 -10  -15.10   51.01
   3   1  10  -21.36   25.95
   3   1  10   14.83   15.18
  -3  -1 -11  -57.17   61.08
   3   1  11    7.33   21.08
   3   1  11  -22.69   30.33
   3   1  11   18.54   19.92
   3   1  12  323.33   81.36
   3   1  12  403.25   72.96
   3   1  12  501.36   65.88
   3   1  13  159.91   49.91
   3   1  14  430.46   65.99
   3   1  15   14.53    5.87
   3   1  16   81.26   25.97
   3   1  17  168.68   30.58
   3   2 -15   -6.25   12.24
   3   2 -14   -2.63   19.79
   3   2 -13   78.18   27.89
   3   2 -12  104.82   38.72
   3   2 -11   38.92   33.59
   3   2 -10   12.76   31.31
   3   2  -9  310.81   65.28
   3   2  -9  436.86  143.24
   3   2  -8  160.17   41.21
   3   2  -8  298.08  128.97
   3   2  -7  191.31   39.20
   3   2  -7  220.07   56.10
   3   2  -7  275.04  114.91
   3   2  -6  129.05   35.47
   3   2  -6  145.36   45.11
   3   2  -6  187.39   91.24
   3   2  -5   62.04   26.66
   3   2  -5   -3.32   22.61
   3   2  -5  -18.73   55.18
   3   2  -4   16.56   17.81
   3   2  -4   -6.91   27.68
   3   2  -3   22.68   28.36
   3   2  -2   32.33   30.64
   3   2  -1  879.68  164.43
   3   2   0   86.46   53.44
  -3  -2   0  110.30   60.89
   3   2   1   42.36   42.29
  -3  -2  -1   71.87   43.37
   3   2   2   42.48   16.02
  -3  -2  -2   79.10   51.93
  -3  -2  -3   93.65   39.43
  -3  -2  -4  354.00   96.61
  -3  -2  -5   26.67   37.46
  -3  -2  -6  281.90   88.51
   3   2   6  438.59   63.69
  -3  -2  -7   10.03   37.15
   3   2   7   20.12   16.04
   3   2   7   -9.16   20.71
  -3  -2  -8   20.47   28.50
   3   2   8   77.00   24.64
  -3  -2  -9   -8.15   36.30
   3   2   9    3.91    9.96
  -3  -2 -10  123.09   73.96
   3   2  10  140.61   47.63
   3   2  10  117.58   35.72
  -3  -2 -11   -6.24   22.57
   3   2  11    6.62   19.60
   3   2  11   10.20   15.28
  -3  -2 -12  401.23  132.51
   3   2  12  437.84   68.64
   3   2  12  498.17   64.47
   3   2  13  697.24   99.38
   3   2  13  810.05   78.91
   3   2  13  670.13   94.24
   3   2  14  164.11   39.67
   3   2  14  134.67   34.63
   3   2  15  186.98   38.76
   3   2  16   -0.99   10.01
   3   2  17   63.02   19.91
   3   2  18   61.04   16.94
   3   3 -14  194.93   48.85
   3   3 -13   20.60   18.89
   3   3 -12    0.03   14.10
   3   3 -11   75.31   41.61
   3   3 -10   53.94   30.41
   3   3  -9  101.07   47.95
   3   3  -8  526.94   87.63
   3   3  -8  689.89  187.70
   3   3  -7  100.64   37.10
   3   3  -7   69.28   40.85
   3   3  -6   68.03   55.83
   3   3  -6  -66.74   88.69
   3   3  -5  145.76   44.55
   3   3  -5  162.94   82.83
   3   3  -5  112.61   29.75
   3   3  -4   62.91   31.07
   3   3  -4  116.82   83.33
   3   3  -4   81.95   33.34
   3   3  -3   14.17   17.30
   3   3  -3   27.17   48.29
   3   3  -3   -8.22    6.84
   3   3  -2   30.13   51.08
   3   3  -2   81.44   25.15
   3   3  -2   32.83   12.76
   3   3  -1  551.05  138.10
   3   3   0   16.21   16.31
   3   3   1  165.79   74.49
  -3  -3  -1  143.24   68.39
   3   3   2   47.87   64.57
  -3  -3  -2   21.62   17.15
  -3  -3  -3   15.10   47.48
   3   3   3  -29.32   41.56
  -3  -3  -4   18.73   20.56
   3   3   5   20.51   10.69
  -3  -3  -5    9.63   30.32
   3   3   6  341.69   56.25
  -3  -3  -6  283.42   91.35
   3   3   6  437.82   57.11
  -3  -3  -7  -13.99   36.38
   3   3   7   -6.27   20.12
   3   3   7   18.21   12.69
  -3  -3  -8    4.81   19.96
   3   3   8   -6.92   13.08
   3   3   8   21.06   18.72
  -3  -3  -9   13.97   22.77
   3   3   9    2.85   30.78
   3   3   9   28.20   13.76
  -3  -3 -10  113.78   74.86
   3   3  10   62.76   17.62
   3   3  10   81.14   24.29
  -3  -3 -11  169.10   87.05
   3   3  11   96.09   26.71
   3   3  11  112.55   30.61
   3   3  12  132.49   33.42
   3   3  12  132.92   30.84
   3   3  13   58.02   34.95
   3   3  13   16.96   15.79
   3   3  14   59.72   21.32
   3   3  15    1.55   13.11
   3   3  15    6.26    7.54
   3   3  16   12.83   15.77
   3   3  16   11.99    9.87
   3   3  17   27.49   14.12
   3   3  18    6.08   10.82
   3   4 -14   20.56   12.16
   3   4 -13   67.85   23.44
   3   4 -12   -9.80   23.81
   3   4 -11   82.69   36.48
   3   4 -10   14.78   24.66
   3   4  -9   12.46   10.89
   3   4  -8  556.51   91.00
   3   4  -7   29.55   26.50
   3   4  -7   32.87   52.20
   3   4  -6   59.68   24.44
   3   4  -6   59.63   48.53
   3   4  -5   18.94   22.00
   3   4  -5   37.86   43.23
   3   4  -4   -1.15   25.81
   3   4  -4    2.18   14.24
   3   4  -3   82.31   31.40
   3   4  -3  121.46   92.74
   3   4  -3  136.24   38.61
   3   4  -2   28.39   29.10
   3   4  -2    7.71   12.98
   3   4  -1   54.16   39.25
   3   4  -1   40.40   19.39
   3   4  -1   86.80   25.33
   3   4   0    5.79   13.26
   3   4   0   20.96    6.93
   3   4   1   10.35   57.24
   3   4   1   40.81   23.02
   3   4   1    6.96    6.79
  -3  -4  -1  -19.88   30.43
   3   4   2  360.02  115.68
   3   4   2  395.21   62.03
   3   4   2  341.82   53.49
  -3  -4  -2  341.38  120.27
   3   4   3  332.49  118.56
   3   4   3  400.41   59.96
  -3  -4  -3  441.81  132.52
   3   4   4   90.72   32.75
  -3  -4  -4   53.62   34.91
   3   4   5    2.17   11.87
  -3  -4  -5  -18.07   30.69
   3   4   5   57.15   25.21
   3   4   6  181.46   33.76
   3   4   6  280.11   56.64
  -3  -4  -6  327.85  120.42
   3   4   6  301.05   52.52
   3   4   7  -25.53   13.17
  -3  -4  -7   -6.85   27.46
   3   4   7   -3.05   20.65
  -3  -4  -8  -28.35   42.32
   3   4   8   53.96   32.71
   3   4   8   -0.69    6.41
  -3  -4  -9  -21.09   31.35
   3   4   9   18.75   20.93
   3   4   9   -0.52   12.95
  -3  -4 -10  -21.69   30.76
   3   4  10  -14.50   30.91
  -3  -4 -11   42.16   65.57
   3   4  11  -11.95   13.13
   3   4  11   -8.16   11.82
   3   4  12  -13.54   35.02
   3   4  12   19.28   10.67
   3   4  13   37.10   18.05
   3   4  14  272.03   44.33
   3   4  15    9.16    8.29
   3   4  16   15.74   16.49
   3   4  16   12.07   14.35
   3   4  17    1.71    7.81
   3   4  17   -1.78    4.42
   3   4  18    7.76   11.44
   3   5 -12   -3.17    8.79
   3   5 -11  -14.79    9.23
   3   5 -10   23.56   17.28
   3   5  -9    6.59   16.58
   3   5  -8   44.85   31.40
   3   5  -7  298.64   65.45
   3   5  -6  207.49   55.44
   3   5  -5   -0.40   19.72
   3   5  -4  134.18   86.69
   3   5  -4   49.14   19.85
   3   5  -4   45.38   21.97
   3   5  -3   99.54   80.40
   3   5  -3   38.58    9.04
   3   5  -3   80.52   27.51
   3   5  -2   -7.39   57.08
   3   5  -2    5.27   12.64
   3   5  -2   41.98   23.69
   3   5  -1  -19.78   39.37
   3   5  -1   22.98   19.97
   3   5  -1   34.68   28.21
   3   5   0  598.13  161.31
   3   5   0  655.38   87.60
   3   5   0  654.04   81.85
   3   5   1  456.84  133.27
   3   5   1  498.79   73.06
   3   5   1  527.37   71.44
  -3  -5  -1  512.86  153.30
   3   5   2  -17.33   35.70
   3   5   2   17.57   23.16
  -3  -5  -2   -9.71   37.61
   3   5   3  423.21   69.23
  -3  -5  -3  467.34  143.31
   3   5   4  348.10   60.13
  -3  -5  -4  374.49  134.56
   3   5   5   29.01   24.69
  -3  -5  -5  -18.41   69.47
   3   5   6  225.64   52.57
  -3  -5  -6  259.50  122.58
   3   5   7  161.50   35.03
   3   5   7  179.26   47.64
  -3  -5  -7  240.53  113.88
  -3  -5  -8  114.35   65.75
   3   5   8   22.87   14.34
  -3  -5  -9   -2.62   24.86
   3   5   9   53.12   20.36
  -3  -5 -10  212.93  106.12
   3   5  10  186.31   37.58
   3   5  11  -11.27   12.54
   3   5  12   11.17   12.97
   3   5  13  170.38   38.42
   3   5  14  254.97   43.17
   3   5  15   26.16   16.56
   3   5  16    7.46    8.76
   3   5  16    6.21    4.86
   3   5  17   -3.66    6.28
   3   5  17   12.48    7.62
   3   6 -10   56.19   19.08
   3   6  -9   10.43    9.04
   3   6  -8  201.83   43.59
   3   6  -7   49.69   18.71
   3   6  -7   -3.80   13.91
   3   6  -6   26.95   15.52
   3   6  -6   13.02   16.68
   3   6  -5   14.02   21.04
   3   6  -5   13.23   21.73
   3   6  -4   11.91   17.36
   3   6  -4   12.32   27.91
   3   6  -3  -10.36   20.60
   3   6  -3   10.40   14.79
   3   6  -2  283.84   58.56
   3   6  -2  263.33   58.72
  -3  -6   1 1641.78  314.14
   3   6  -1 1462.82  140.88
   3   6  -1 1413.68  140.37
   3   6  -1 1402.54  267.00
   3   6   0  542.30  161.17
   3   6   0  576.52   86.18
   3   6   0  695.59   95.37
  -3  -6   0  624.31  182.75
   3   6   1   29.48   52.90
   3   6   1   13.08   20.67
   3   6   1   23.97   11.03
  -3  -6  -1    1.01   48.70
   3   6   2  398.69   72.16
  -3  -6  -2  533.56  168.66
   3   6   3   33.51   12.21
  -3  -6  -3   34.98   38.78
   3   6   4   66.23   30.16
  -3  -6  -4    2.22   45.72
   3   6   5  249.86   53.80
  -3  -6  -5  300.84  127.33
   3   6   6  258.12   55.50
  -3  -6  -6  196.95   90.95
   3   6   7  301.53   49.35
   3   6   7  329.37   61.02
  -3  -6  -7  420.60  141.54
   3   6   8  292.13   52.86
   3   6   9  145.00   35.56
   3   6  10    2.04   12.85
   3   6  11    2.56   10.35
   3   6  12   20.59   11.46
   3   6  13    3.40    7.03
   3   6  14   27.85   12.70
   3   6  15   49.77   19.21
   3   6  16  -18.66    9.29
   3   7  -8   13.51    9.15
   3   7  -7   10.89    6.97
   3   7  -6  217.27   40.88
   3   7  -5   35.51   15.63
   3   7  -5   57.11   23.22
   3   7  -4   -1.52   11.40
   3   7  -4   12.72   17.46
   3   7  -3    0.60   11.55
   3   7  -3   36.45   16.60
   3   7  -2   18.44   12.84
   3   7  -2   33.48   27.17
   3   7  -1   -4.65   11.47
   3   7  -1   81.40   41.87
   3   7   0   95.45   33.14
   3   7   1   17.73   15.78
   3   7   2  130.43   41.93
   3   7   3   28.92   17.93
   3   7   4   17.71   17.88
   3   7   5   31.40   18.21
   3   7   6   -7.93   18.05
   3   7   7   19.04   19.12
   3   7   8   11.50   11.69
   3   7   9   26.13   10.22
   3   7  10   -5.38   15.21
   3   7  11   43.41   21.13
   3   7  12   22.46   15.22
   3   7  13   50.97   17.68
   3   7  14   39.49   14.88
   3   7  15   17.57    9.45
   3   8  -4    9.60    6.73
   3   8  -3   25.65   14.40
   3   8  -2   50.51   20.16
   3   8  -1    6.57    5.81
   3   8   0  -20.50   12.44
   3   8   1  -18.20   12.63
   3   8   2   -1.45   12.10
   3   8   3    0.25    8.59
   3   8   4   73.10   27.29
   3   8   6   -0.90   10.63
   3   8   7   55.29   20.86
   3   8   8   43.51   15.83
   3   8   9   36.84   17.91
   3   8  10   45.57   15.06
   3   8  11   29.93   10.13
   3   8  12  -16.17    9.36
   3   8  13    6.80    7.48
   3   9   3   12.79    9.25
   3   9   4   15.62   10.44
   3   9   5   31.91   13.49
   3   9   6   13.26    9.34
   3   9   7   12.30    6.78
   3   9   8   -1.04    4.02
   3   9   9   48.06   12.88
   3   9  10   -7.01    5.44
   4  -6  -3    3.51   10.79
   4  -6  -2   28.63   10.35
   4  -6  -2    7.12   12.43
   4  -6  -1  114.47   21.54
   4  -6  -1  151.09   32.18
   4  -6   0   16.93    5.45
   4  -6   0   28.26   11.65
   4  -5  -9   30.38   14.40
   4  -5  -8   -0.13    8.72
   4  -5  -7  -18.94   13.59
   4  -5  -5   24.85   16.53
   4  -5  -5  -10.09    8.93
   4  -5  -4    2.67   11.76
   4  -5  -4   21.74   12.13
   4  -5  -3  161.26   38.02
   4  -5  -3  221.32   47.85
   4  -5  -2    9.37   14.91
   4  -5  -2   31.39   24.47
   4  -5  -1   13.80   13.14
   4  -5  -1    6.71   22.99
   4  -5   0    8.47    6.37
   4  -5   1    9.36    9.40
   4  -5   2   10.75   11.53
   4  -5   3   17.68    8.20
   4  -5   4   75.47   21.40
   4  -5   5   96.37   20.91
   4  -5   6   18.35   10.31
   4  -4 -12   28.21   13.18
   4  -4 -11   -0.25   16.68
   4  -4 -10   31.80   19.93
   4  -4  -9   -3.10   13.73
   4  -4  -8    0.05   12.38
   4  -4  -7    0.67   16.38
   4  -4  -6   -9.25   18.10
   4  -4  -6   27.51   16.29
   4  -4  -6   -5.24   18.32
   4  -4  -5   17.90   13.56
   4  -4  -5   16.60   10.79
   4  -4  -5    0.39   12.10
   4  -4  -4   54.09   24.33
   4  -4  -4   23.98   17.72
   4  -4  -4   81.93   37.37
   4  -4  -3   53.78   23.99
   4  -4  -3   23.78   32.20
   4  -4  -2  203.25   45.63
   4  -4  -1   60.93   25.31
   4  -4   0   21.53   15.08
   4  -4   1   66.19   26.83
   4  -4   2    6.24   12.47
   4  -4   3    7.18   10.17
   4  -4   4    7.81   17.75
   4  -4   5  433.13   59.79
   4  -4   6   43.31   19.31
   4  -4   6   28.71   11.17
   4  -4   7   -0.02    5.64
   4  -4   8    5.10    8.69
   4  -4   9    0.63    3.79
   4  -3 -13   33.97   15.05
   4  -3 -12  138.62   34.12
   4  -3 -11   17.78   11.47
   4  -3 -10   -2.67    9.67
   4  -3  -9   77.55   30.92
   4  -3  -8   53.69   32.10
   4  -3  -7   89.07   25.74
   4  -3  -6  423.44   67.24
   4  -3  -6  358.58   60.60
   4  -3  -5   78.28   35.61
   4  -3  -5   35.32   17.24
   4  -3  -4  102.48   34.20
   4  -3  -4   59.36   22.83
   4  -3  -4   88.78   38.06
   4  -3  -4   49.83   13.11
   4  -3  -3  131.48   34.15
   4  -3  -3  139.63   40.11
   4  -3  -3  186.80   53.69
   4  -3  -2  479.91   68.29
   4  -3  -2  538.15   79.63
   4  -3  -2  488.49   67.46
   4  -3  -1   66.99   31.02
   4  -3  -1   40.83   31.40
   4  -3   0   30.21   16.47
   4  -3   0   67.98   24.74
   4  -3   1   16.06   15.35
   4  -3   1    0.60   12.02
   4  -3   2   20.83   19.92
   4  -3   2  -11.84   26.08
   4  -3   2    1.90    6.66
   4  -3   3   89.81   26.59
   4  -3   3   96.60   46.36
   4  -3   3   83.71   26.20
   4  -3   4   73.08   30.26
   4  -3   4   35.56   14.70
   4  -3   5   22.38   18.08
   4  -3   5    5.36    8.51
   4  -3   6  257.95   53.59
   4  -3   6  132.44   27.92
   4  -3   7   -4.24   16.76
   4  -3   7   -1.28    4.80
   4  -3   8    9.78    9.91
   4  -3   8    1.19    5.70
   4  -3   9   14.87   10.45
   4  -3   9    6.37    7.64
   4  -3  10   25.87   13.75
   4  -3  10   14.86   12.31
   4  -3  11   14.28   11.61
   4  -3  11    2.04    4.42
   4  -2 -13   20.15   13.78
   4  -2 -12   -4.34   11.46
   4  -2 -11   96.47   32.06
   4  -2 -10  264.99   54.96
   4  -2  -9   -0.77   13.29
   4  -2  -8  231.00   51.64
   4  -2  -7  209.22   50.16
   4  -2  -7  107.49   49.94
   4  -2  -6   -4.39   16.28
   4  -2  -6  -12.24   13.11
   4  -2  -6  -22.71   31.90
   4  -2  -5   96.50   33.02
   4  -2  -5   72.39   29.74
   4  -2  -5   82.40   39.38
   4  -2  -4   -5.69   21.24
   4  -2  -4    6.07   17.35
   4  -2  -4   -3.78   18.49
   4  -2  -3   12.67   11.62
   4  -2  -3   13.09   15.40
   4  -2  -3   -2.23   16.76
   4  -2  -2  113.99   36.46
   4  -2  -2  102.66   37.29
   4  -2  -2  131.11   85.25
   4  -2  -2  148.77   51.21
   4  -2  -1 1138.99  100.18
   4  -2  -1 1016.19  188.28
   4  -2  -1 1268.16  116.88
   4  -2  -1 1172.68  110.96
   4  -2   0   -7.49   10.03
   4  -2   0    6.85   57.70
   4  -2   0   -4.38   10.25
   4  -2   0   10.97   25.50
   4  -2   1   32.10   23.15
   4  -2   1  -11.42   16.50
   4  -2   1   21.14   14.58
   4  -2   2   48.60   22.82
   4  -2   2   49.17   46.84
   4  -2   2   35.40   11.31
   4  -2   3   11.12   15.15
   4  -2   3   41.90   25.85
   4  -2   3   38.82   18.77
   4  -2   4   59.60   24.22
   4  -2   4   47.47   23.88
   4  -2   4   84.60   25.95
   4  -2   5   87.78   38.43
   4  -2   5   64.07   19.98
   4  -2   6   39.61   25.11
   4  -2   6   22.87   16.97
   4  -2   7    0.36   10.77
   4  -2   8    6.24   11.49
   4  -2   9    5.35   10.58
   4  -2  10   16.24   10.73
   4  -2  11   47.04   17.65
   4  -2  12   32.77   11.20
   4  -2  13    9.79    7.94
   4  -2  13   10.75    7.59
   4  -1 -13    5.30    9.03
   4  -1 -12   19.47   15.56
   4  -1 -11   -3.07   15.62
   4  -1 -11  -38.48   26.08
   4  -1 -10  213.30   56.05
   4  -1 -10  234.24   52.42
   4  -1  -9  223.69   58.40
   4  -1  -9  371.53   69.57
   4  -1  -8   29.99   24.98
   4  -1  -8   27.65   21.97
   4  -1  -7  294.15   68.86
   4  -1  -7  505.51   82.45
   4  -1  -7  443.35   77.08
   4  -1  -6  357.30   73.90
   4  -1  -6  240.12   60.60
   4  -1  -6  276.79   57.16
   4  -1  -5   -8.82   12.16
   4  -1  -5  -18.81   12.13
   4  -1  -5  -31.67   20.47
   4  -1  -5  -21.82   14.55
   4  -1  -4   -1.87   22.12
   4  -1  -4    4.91   12.89
   4  -1  -3   27.58    7.32
   4  -1  -3   25.11   10.51
   4  -1  -2   38.28   20.17
   4  -1  -2   28.40    7.18
   4  -1  -2   32.16   19.93
   4  -1  -1   66.29   31.93
   4  -1  -1   17.66   22.27
   4  -1   0  251.70   49.10
   4  -1   0  190.32   41.31
   4  -1   1   -9.35   15.94
   4  -1   1   -3.95   17.80
   4  -1   1  -11.41   17.98
   4  -1   2   16.64   11.70
   4  -1   2   35.05   15.44
   4  -1   2   15.78   10.82
   4  -1   3   78.04   29.52
   4  -1   3   93.72   24.22
   4  -1   3   69.28   28.37
   4  -1   4   19.19   30.67
   4  -1   4   14.43    9.71
   4  -1   5   32.18   29.60
   4  -1   5   24.69   14.20
   4  -1   5   21.81   16.23
   4  -1   6    5.47   29.11
   4  -1   6   13.85   14.99
   4  -1   6   13.53   15.09
   4  -1   7    3.52   11.20
   4  -1   7   80.82   28.11
   4  -1   8  -25.47   15.79
   4  -1   8  -16.27   13.98
   4  -1   9   15.01   26.07
   4  -1   9   29.24   18.93
   4  -1  10  -22.23   18.90
   4  -1  10   -3.80   10.64
   4  -1  11   36.92   17.97
   4  -1  12    6.85    5.43
   4  -1  13   28.21   12.99
   4  -1  14   12.59    7.90
   4   0 -14  138.44   27.87
   4   0 -13   49.91   27.77
   4   0 -12   16.62   14.66
   4   0 -12   23.23   28.48
   4   0 -11   90.93   24.87
   4   0 -10  -10.50   17.62
   4   0  -9   84.28   33.51
   4   0  -8  190.91   53.37
   4   0  -7   40.63   29.56
   4   0  -7    3.09   19.99
   4   0  -6   -2.09   10.51
   4   0  -6  -17.86    8.72
   4   0  -5    9.14   14.07
   4   0  -5   16.19    8.43
   4   0  -4   25.13   18.83
   4   0  -4   31.77   18.65
   4   0  -3   82.37   30.27
   4   0  -3   53.88   25.25
   4   0  -2  114.17   40.60
   4   0  -2  109.57   37.78
   4   0  -1   74.78   34.02
   4   0  -1   79.36   33.06
   4   0   0  544.91   77.32
   4   0   0  499.40   73.03
   4   0   1  134.61   43.44
   4   0   2   42.38   12.44
   4   0   3   36.60   10.58
   4   0   3   15.13   17.60
   4   0   4   -7.34   21.49
   4   0   4    5.95    7.22
   4   0   5   -5.70   14.77
   4   0   5   -6.70    7.60
   4   0   6    8.27   25.74
   4   0   6    2.31    7.13
   4   0   7  706.45   99.40
   4   0   7  612.31   74.07
   4   0   8  390.27   59.06
   4   0   8  164.35   60.34
   4   0   9   88.97   50.56
   4   0   9   -0.16   10.89
   4   0  10   83.75   41.40
   4   0  10  232.31   41.60
   4   0  11  129.82   32.81
   4   0  11  141.25   33.76
   4   0  12   51.43   17.02
   4   0  13   95.77   22.78
   4   0  14   43.38   14.54
   4   0  15    6.68    5.26
   4   1 -14   16.54   10.33
   4   1 -13    6.14    7.84
   4   1 -12   21.32   22.14
   4   1 -11   32.05   24.01
   4   1 -11   27.94   23.28
   4   1 -10   62.00   29.70
   4   1 -10   39.92   23.35
   4   1  -9   -6.65   20.11
   4   1  -9   -5.27    9.30
   4   1  -8   12.84   11.24
   4   1  -7  190.74   43.10
   4   1  -6  -18.47   14.89
   4   1  -5    7.40   14.26
   4   1  -5  -12.56   21.35
   4   1  -4   51.78   30.45
   4   1  -4   45.26   26.61
   4   1  -3   19.45   27.71
   4   1  -3   10.48    5.73
   4   1  -3   19.30   24.17
   4   1  -2   21.27   21.98
   4   1  -2   10.88   10.59
   4   1  -2   -1.19   12.87
   4   1  -1  273.14   54.67
   4   1  -1  233.03   40.83
   4   1  -1  318.38   60.70
   4   1   0  299.12   61.17
   4   1   0  241.43   40.59
   4   1   0  256.37   53.66
   4   1   1   25.85   17.80
   4   1   1   65.66   23.91
   4   1   1   58.60   23.66
   4   1   2   -9.67   14.31
   4   1   2   -8.52   16.39
   4   1   3  179.65   34.90
   4   1   3  164.86   40.86
   4   1   4   69.09   21.79
   4   1   4   22.54   27.31
   4   1   5   -9.83   12.13
   4   1   5   -9.40   11.38
   4   1   6   58.12   20.59
   4   1   6   42.69   36.09
   4   1   7   31.11   18.39
   4   1   7   12.03   15.15
   4   1   8   22.54   44.39
   4   1   9   61.42   32.97
   4   1  10   49.98   41.61
   4   1  11   14.96   12.11
   4   1  12  149.43   39.54
   4   1  12  160.58   38.12
   4   1  13  191.22   36.63
   4   1  15   65.87   16.84
   4   1  16   -7.28    5.33
   4   2 -14   72.57   23.14
   4   2 -13   45.19   22.98
   4   2 -12  228.09   61.34
   4   2 -11  201.23   52.72
   4   2 -11  179.27   39.82
   4   2 -10  115.03   37.97
   4   2 -10   69.75   27.17
   4   2  -9   40.74   20.71
   4   2  -9   35.78   21.48
   4   2  -9   34.75   15.73
   4   2  -8   32.79   26.67
   4   2  -8   44.60   23.06
   4   2  -8   10.64   37.76
   4   2  -7   47.29   36.68
   4   2  -7   45.71   22.31
   4   2  -7   79.82   36.81
   4   2  -6   79.29   37.42
   4   2  -6   15.59   12.10
   4   2  -6   51.17   14.41
   4   2  -5   23.69   28.23
   4   2  -5   26.11   34.49
   4   2  -5   41.74   21.30
   4   2  -5   18.84   19.95
   4   2  -4  -32.57   59.84
   4   2  -4   -3.85   13.58
   4   2  -4   11.87   14.07
   4   2  -4    6.23   36.76
   4   2  -4    2.64   12.41
   4   2  -3  -65.38   57.35
   4   2  -3  -30.87   19.31
   4   2  -3  -19.13   13.22
   4   2  -3    1.39   15.78
   4   2  -3   -7.87   20.92
   4   2  -2   54.22   55.36
   4   2  -2   65.21   33.61
   4   2  -2   59.74   24.18
   4   2  -2   84.79   36.26
   4   2  -1   11.14   31.00
   4   2  -1   48.64   24.15
   4   2  -1   52.34   24.89
   4   2  -1   47.27   16.38
   4   2   0  356.96  110.38
   4   2   0  447.83   74.99
   4   2   0  356.25   50.05
   4   2   0  317.88   60.09
   4   2   1  361.59   66.23
   4   2   1  261.17   44.07
   4   2   1  235.22   50.88
   4   2   2   97.60   34.09
   4   2   2  107.11   27.48
   4   2   2   55.08   27.39
   4   2   3   17.53   12.24
   4   2   4   63.69   15.07
   4   2   5  134.61   32.11
   4   2   5   66.69   39.41
   4   2   6    0.80    7.29
   4   2   6    2.13   15.28
   4   2   7   85.02   26.19
   4   2   7   64.20   39.11
   4   2   8   -4.46    5.06
   4   2   8   21.90   10.55
   4   2   9  -30.84   28.37
   4   2  10    4.63   12.57
   4   2  10  -18.34   36.75
   4   2  11   10.28   19.89
   4   2  11   17.88   17.99
   4   2  12   -5.35    7.15
   4   2  12   -6.60   12.89
   4   2  13    2.22    7.95
   4   2  13  -27.82   13.35
   4   2  14   38.09   17.36
   4   2  15   -6.28    7.34
   4   2  16   38.40   11.08
   4   3 -13  -12.93   10.95
   4   3 -12   62.71   22.64
   4   3 -12   32.36   23.28
   4   3 -11   22.36   16.70
   4   3 -10  -28.70   26.20
   4   3 -10    1.36    9.87
   4   3  -9   89.30   40.13
   4   3  -9   97.02   31.65
   4   3  -8  138.33   42.39
   4   3  -8  196.95   50.25
   4   3  -7  106.61   42.57
   4   3  -7  198.70   50.52
   4   3  -6    8.61   25.15
   4   3  -6   15.76   12.29
   4   3  -6   20.66   23.80
   4   3  -5   11.11   13.24
   4   3  -5   16.95   31.33
   4   3  -5   36.17   23.06
   4   3  -5    2.48    7.71
   4   3  -4  101.21   70.92
   4   3  -4  123.92   39.00
   4   3  -4  151.66   47.80
   4   3  -4  110.06   26.25
   4   3  -4   96.68   34.52
   4   3  -3   92.81   41.50
   4   3  -3   87.60   32.81
   4   3  -3   99.91   34.28
   4   3  -3   46.32   10.57
   4   3  -3   63.34   27.67
   4   3  -2  -10.55   32.89
   4   3  -2   14.97   11.43
   4   3  -2    8.06   24.83
   4   3  -2    0.77   10.29
   4   3  -2   62.16   34.21
   4   3  -1  -24.37   57.74
   4   3  -1    6.72    6.57
   4   3  -1    7.10   21.17
   4   3  -1   -0.81    7.20
   4   3  -1   -6.06    9.42
   4   3   0  353.17  122.81
   4   3   0  454.19   69.04
   4   3   0  467.50   78.23
   4   3   0  447.67   60.81
  -4  -3   0  374.73  113.72
   4   3   0  328.25   52.44
   4   3   1    1.11   30.49
   4   3   1   44.93   30.02
   4   3   1   36.40   36.61
   4   3   1   29.97   21.29
  -4  -3  -1   93.42   83.87
   4   3   2  473.77   70.63
   4   3   2  440.69   76.06
   4   3   2  499.15   62.67
  -4  -3  -2  378.13  117.32
   4   3   3  488.20   71.39
   4   3   3  527.29   63.22
  -4  -3  -3  421.84  123.84
   4   3   4   11.75    9.38
  -4  -3  -4   26.75   27.64
   4   3   4   22.67    8.24
   4   3   5   76.52   25.91
  -4  -3  -5   31.79   37.45
   4   3   5  110.20   33.41
   4   3   5  105.10   35.27
  -4  -3  -6   29.35   28.39
   4   3   6    9.57    7.11
   4   3   6   18.41   17.14
  -4  -3  -7  -43.64   48.50
   4   3   7    3.29   10.70
   4   3   7   13.60   31.12
  -4  -3  -8   30.34   21.07
   4   3   8    8.90    9.92
   4   3   8   22.02   20.59
   4   3   9   18.53   14.86
   4   3   9    2.80   23.62
   4   3  10   -2.31   11.27
   4   3  11   81.72   36.67
   4   3  11   39.18   17.90
   4   3  12  249.63   47.29
   4   3  12  106.20   25.60
   4   3  13   16.70   11.64
   4   3  13    6.74   15.55
   4   3  13   29.50   14.90
   4   3  14   87.28   25.50
   4   3  15   27.89   14.44
   4   3  16   15.48    6.82
   4   4 -11  -22.87   15.64
   4   4 -11   15.44   14.98
   4   4 -10    9.89   13.06
   4   4 -10   41.60   29.85
   4   4  -9    7.42   18.21
   4   4  -9    9.59   13.81
   4   4  -8  117.69   37.97
   4   4  -8  150.62   45.11
   4   4  -7  126.48   39.82
   4   4  -7  113.38   45.46
   4   4  -6  193.30   48.76
   4   4  -6  169.85   54.27
   4   4  -5   33.08   37.14
   4   4  -5   12.63   17.57
   4   4  -4  168.00   55.13
   4   4  -4  215.27   61.56
   4   4  -3  301.34  133.30
   4   4  -3  310.42   69.56
   4   4  -3  238.85   38.62
   4   4  -3  349.62   69.18
  -4  -4   3  217.27  108.15
   4   4  -2   12.45   27.31
   4   4  -2   12.01   20.55
   4   4  -2   22.92   13.18
   4   4  -2    4.71   11.04
  -4  -4   2  -14.36   40.07
   4   4  -1  -24.88   57.09
   4   4  -1   17.53   24.25
   4   4  -1   17.58   22.54
   4   4  -1    5.19   11.40
  -4  -4   1   19.40   34.95
   4   4   0  212.26  101.77
   4   4   0  171.46   45.80
   4   4   0  206.89   49.96
   4   4   0  212.80   45.77
  -4  -4   0  239.85  100.15
  -4  -4  -1 1078.77  217.73
   4   4   1 1066.66  115.71
   4   4   1 1119.84  113.19
   4   4   1  923.94  219.35
  -4  -4  -2  639.01  174.05
   4   4   2  457.60   78.72
   4   4   3  537.27   80.51
  -4  -4  -3  496.76  146.53
   4   4   4  224.93   47.28
  -4  -4  -4  169.97   74.92
   4   4   4  211.05   50.27
   4   4   5   96.59   32.15
  -4  -4  -5   91.97   64.12
   4   4   5  106.96   27.95
   4   4   6  412.89   70.45
   4   4   6  395.77   57.82
  -4  -4  -6  405.79  131.28
   4   4   6  356.58   62.71
  -4  -4  -7   41.20   43.38
   4   4   7    8.34   15.75
   4   4   7   12.08   23.37
   4   4   8    0.17   11.90
   4   4   8  -22.46   25.87
   4   4   9   21.35   11.43
   4   4   9   38.28   10.40
   4   4   9   39.74   16.27
   4   4  10  110.54   28.32
   4   4  10  114.86   32.41
   4   4  10  141.04   28.42
   4   4  11   13.76   22.07
   4   4  11   -9.12    9.30
   4   4  12   44.98   15.20
   4   4  12   70.27   21.11
   4   4  13   -1.87   11.63
   4   4  13    2.48    7.98
   4   4  14   65.79   19.96
   4   4  14   47.53   14.09
   4   4  15  129.78   28.33
   4   4  16   39.41   13.23
   4   5 -10    8.68    8.70
   4   5  -9  -14.15   15.58
   4   5  -9   -6.19    8.51
   4   5  -8   47.53   27.89
   4   5  -8   30.80   16.78
   4   5  -7   88.25   30.48
   4   5  -7   30.49   19.91
   4   5  -6   23.34   11.81
   4   5  -6   12.37    8.90
   4   5  -5   -6.95    8.13
   4   5  -5   27.19   30.96
   4   5  -4  162.16   46.87
   4   5  -4  141.89   47.24
   4   5  -3   14.73   12.09
   4   5  -3   20.92   16.69
   4   5  -3   44.62   19.77
   4   5  -2  347.88   70.67
   4   5  -2  244.80   40.45
   4   5  -2  322.53   64.48
   4   5  -1  887.20  113.30
   4   5  -1  776.99   97.49
   4   5  -1  849.93   78.39
   4   5   0   61.89   33.12
   4   5   0   35.78   20.35
   4   5   1   56.06   71.94
   4   5   1   43.39   28.29
  -4  -5  -1  -28.97   64.04
  -4  -5  -2 1117.65  234.42
   4   5   2 1105.78  120.73
   4   5   3  143.45   44.46
  -4  -5  -3  183.23   96.71
   4   5   3  127.60   32.09
   4   5   4   11.98    9.34
  -4  -5  -4  -51.89   45.77
   4   5   4  -37.93   17.63
   4   5   5   49.14   25.39
   4   5   5  -24.94   27.06
   4   5   6   14.07   12.56
   4   5   6   25.48   11.54
   4   5   7  220.07   40.69
   4   5   7  205.76   36.84
   4   5   8  430.18   57.28
   4   5   8  371.04   49.45
   4   5   9   82.47   25.74
   4   5   9   66.19   31.69
   4   5   9   72.81   24.72
   4   5  10    0.38    7.46
   4   5  10    9.79   16.11
   4   5  10   15.83   13.12
   4   5  11    5.83    9.12
   4   5  11   -1.66   10.55
   4   5  11    4.97   10.20
   4   5  12   20.68   12.35
   4   5  13   15.81   10.56
   4   5  14   51.96   17.20
   4   5  15   92.25   22.29
   4   5  15   89.99   17.53
   4   6  -9    1.29    6.20
   4   6  -8    3.85    6.05
   4   6  -7   50.25   22.08
   4   6  -6  143.40   33.74
   4   6  -5   82.97   24.57
   4   6  -4   37.63   23.06
   4   6  -3   47.17   28.57
   4   6  -2   41.63   29.59
   4   6  -2   48.37   17.40
   4   6  -1   15.24   14.31
   4   6  -1    6.72   11.63
   4   6   0   -9.25    9.70
   4   6   1   16.27   19.23
   4   6   2  441.08   77.44
   4   6   3   -5.76   19.19
   4   6   4    7.40    9.89
   4   6   4    4.65   10.80
   4   6   5   52.38   20.80
   4   6   5   45.39   16.40
   4   6   6   10.99   17.26
   4   6   6  -19.66   12.39
   4   6   7    0.79    5.56
   4   6   8   -3.17    5.15
   4   6   9   21.33   10.32
   4   6  10    2.19    4.63
   4   6  10    0.43    4.12
   4   6  11   39.89   13.07
   4   6  11   79.31   22.53
   4   6  12   27.08   13.69
   4   6  13   28.95   13.04
   4   6  14   11.86    6.90
   4   6  15    4.13    7.84
   4   7  -6   11.09    4.32
   4   7  -5   41.76   16.46
   4   7  -4  149.46   36.42
   4   7  -3   18.79   13.23
   4   7  -2   12.59   12.52
   4   7  -1   22.02   23.92
   4   7  -1    3.31   11.86
   4   7   0    9.07   14.90
   4   7   0   -9.70   11.25
   4   7   1   17.67   12.92
   4   7   2   62.18   21.27
   4   7   2  134.40   43.16
   4   7   3   -3.86    8.53
   4   7   3    0.26    9.61
   4   7   4   15.12   13.19
   4   7   4    5.76   14.76
   4   7   5   20.84   20.56
   4   7   5   -1.23    3.96
   4   7   6   29.25   15.28
   4   7   7    8.74    8.94
   4   7   8  -14.72   11.50
   4   7   9   -3.90   10.47
   4   7  10   42.97   17.87
   4   7  10   30.30   12.17
   4   7  11   24.58   11.55
   4   7  11   14.43   11.69
   4   7  12   36.94   11.90
   4   7  13    7.33    4.93
   4   8  -2   24.98   13.00
   4   8  -1   35.24   15.10
   4   8   0   42.05   17.97
   4   8   1   22.16   18.19
   4   8   1    8.85    9.23
   4   8   2    6.59    5.99
   4   8   2    1.86    8.46
   4   8   3   -1.40   10.75
   4   8   5    2.21    3.52
   4   8   6   -7.63    8.74
   4   8   7    8.74    9.09
   4   8   8    2.58    4.77
   4   8   9   28.07    9.93
   4   8   9   23.45    7.97
   4   8  10   -2.24    2.90
   4   8  10   -8.85    6.46
   5  -4  -2   51.45   18.20
   5  -4  -1   47.57   18.25
   5  -4   0    4.30    4.92
   5  -4   1    7.90    8.30
   5  -4   2   17.17   11.28
   5  -3  -8  185.41   33.42
   5  -3  -7    1.45    8.92
   5  -3  -6   13.81   13.49
   5  -3  -5  137.93   29.03
   5  -3  -4   60.47   24.37
   5  -3  -3   32.20   15.45
   5  -3  -2   61.53   21.13
   5  -3  -1  144.90   32.53
   5  -3   0   11.01   12.93
   5  -3   1   89.46   27.26
   5  -3   2   49.20   23.13
   5  -3   3   12.44   14.00
   5  -3   4    8.18    8.27
   5  -3   5   -1.29    6.77
   5  -3   6   19.94   11.84
   5  -2 -10    0.76    8.98
   5  -2  -9   44.43   19.51
   5  -2  -8   17.57   12.41
   5  -2  -7  398.77   57.53
   5  -2  -6   84.34   29.84
   5  -2  -5   26.59   15.73
   5  -2  -4   31.35   26.38
   5  -2  -4   14.11   15.28
   5  -2  -3  -10.29   19.38
   5  -2  -3  -12.21   16.33
   5  -2  -3   -7.19   15.32
   5  -2  -2   13.81   12.45
   5  -2  -2  -10.90   21.12
   5  -2  -2   -9.28   17.03
   5  -2  -1   62.61   23.26
   5  -2  -1   32.26   27.10
   5  -2  -1   -6.53   10.36
   5  -2   0  -19.70   15.45
   5  -2   0    8.77   26.16
   5  -2   1    5.94   12.59
   5  -2   1   27.29   28.88
   5  -2   2  165.80   35.57
   5  -2   2  147.81   47.09
   5  -2   3   41.87   19.68
   5  -2   3   26.85   15.36
   5  -2   4   24.24   12.28
   5  -2   4   16.12   21.53
   5  -2   5   20.90   16.08
   5  -2   6   28.32   17.97
   5  -2   7   44.40   15.46
   5  -2   7   46.02   12.89
   5  -2   8    7.59    6.21
   5  -1 -11   -1.20   11.11
   5  -1 -10   31.72   21.80
   5  -1  -9  -20.00   18.25
   5  -1  -8   18.75   11.35
   5  -1  -7   -1.09   11.93
   5  -1  -6   30.63   14.36
   5  -1  -6   31.02   25.23
   5  -1  -5   38.80   21.98
   5  -1  -5  -20.23   25.54
   5  -1  -4  -13.76   18.56
   5  -1  -4   14.43   21.09
   5  -1  -3   -9.25   33.31
   5  -1  -3    3.52   15.53
   5  -1  -3   19.21   22.56
   5  -1  -2    4.15   27.13
   5  -1  -2    7.30    7.83
   5  -1  -2  -21.07   14.45
   5  -1  -1   22.71   38.06
   5  -1  -1   25.02   24.30
   5  -1  -1  -18.03   17.86
   5  -1   0   52.05   21.45
   5  -1   0   35.99   23.29
   5  -1   0   36.34   23.30
   5  -1   1    7.86   27.63
   5  -1   1   15.44   21.21
   5  -1   1   -5.69   19.83
   5  -1   2   30.36   15.16
   5  -1   2   15.08    9.69
   5  -1   3    0.81   11.38
   5  -1   3   12.47   24.38
   5  -1   3   -1.84    7.94
   5  -1   4   11.99   14.58
   5  -1   4   13.61   19.49
   5  -1   4   10.88   18.67
   5  -1   5  -14.00   13.27
   5  -1   5    0.80   30.47
   5  -1   5   -4.50    5.95
   5  -1   5    5.23    9.16
   5  -1   6   14.76    6.76
   5  -1   6   29.10   13.24
   5  -1   6   33.74   15.55
   5  -1   7   59.98   23.69
   5  -1   7   39.09   24.20
   5  -1   7   54.06   17.27
   5  -1   8  233.39   32.80
   5  -1   9  171.67   25.90
   5  -1  10  146.90   21.75
   5   0 -10   71.69   23.20
   5   0  -9   63.82   27.08
   5   0  -9   -0.18   13.23
   5   0  -8   48.08   29.15
   5   0  -8   53.42   34.00
   5   0  -7   -9.92   17.83
   5   0  -7   31.16   21.95
   5   0  -6   -6.43   14.68
   5   0  -6   -1.27    9.83
   5   0  -6   23.87   17.59
   5   0  -5  -32.17   18.76
   5   0  -5   11.04   13.71
   5   0  -5   15.65   19.39
   5   0  -4   11.64   13.26
   5   0  -4   20.10   24.02
   5   0  -3   -3.10   16.04
   5   0  -3   20.45   20.78
   5   0  -2   49.82   37.89
   5   0  -1   19.38   15.56
   5   0   0  -11.00   12.53
   5   0   0    6.43    8.50
   5   0   1   23.45   17.66
   5   0   1   42.66   22.37
   5   0   2  213.50   40.66
   5   0   3   10.68    7.99
   5   0   4  -10.05   24.08
   5   0   5    1.10   11.12
   5   0   6   14.37   25.13
   5   0   6   -0.94   11.01
   5   0   7   24.64   21.11
   5   0   7   -1.48   12.48
   5   0   8   85.60   28.51
   5   0   8   58.31   16.08
   5   0   9   12.86   15.89
   5   0   9   -2.71   10.56
   5   0  10   35.96   23.37
   5   0  10   -0.45    4.88
   5   1 -11  383.69   47.03
   5   1 -10   12.02    7.07
   5   1  -9   40.11   30.01
   5   1  -9   23.77   14.38
   5   1  -8  -12.18   19.94
   5   1  -8   16.51    9.88
   5   1  -7   24.56   25.90
   5   1  -7   14.28   14.10
   5   1  -6    4.30   25.28
   5   1  -6   13.10    8.58
   5   1  -5   31.56   16.68
   5   1  -5    5.11   10.85
   5   1  -5   11.15   15.36
   5   1  -4   14.50   21.53
   5   1  -4   32.37   28.26
   5   1  -3   38.06   29.65
   5   1  -3   -7.92   26.00
   5   1  -2    5.21   21.66
   5   1  -2   21.36   26.27
   5   1  -1   13.92   19.16
   5   1   0  117.19   46.63
   5   1   1   55.03   27.26
   5   1   2    5.74   23.56
   5   1   3  114.92   40.88
   5   1   4  103.36   30.99
   5   1   5  -22.09    9.39
   5   1   6   -3.50   20.16
   5   1   7   42.63   25.62
   5   1   8  -13.10   21.30
   5   1   9   99.87   34.41
   5   1  10   53.18   22.35
   5   1  11   17.98   18.63
   5   2 -11   99.52   24.07
   5   2 -10   21.31   12.04
   5   2  -9  151.19   44.42
   5   2  -8   40.11   31.10
   5   2  -7   30.48   18.81
   5   2  -7   -8.12   20.94
   5   2  -6   -6.42   10.50
   5   2  -6  -12.33   16.61
   5   2  -5   76.81   29.58
   5   2  -5   84.95   33.33
   5   2  -4  121.83   43.05
   5   2  -4  120.94   35.44
   5   2  -3   33.84   28.46
   5   2  -3   17.84   14.65
   5   2  -2   51.76   28.31
   5   2  -2   59.83   28.05
   5   2  -1  201.55   58.57
   5   2  -1  196.43   42.55
   5   2  -1  208.13   56.96
   5   2   0   48.27   23.82
   5   2   0   51.79   31.40
   5   2   1   96.98   36.16
   5   2   2   74.72   36.70
   5   2   3  563.32   73.15
   5   2   3  568.50   73.20
   5   2   4   57.76   25.52
   5   2   4   76.03   30.77
   5   2   5  281.41   49.26
   5   2   5  273.56   55.27
   5   2   6   25.29   14.78
   5   2   6    5.24   16.01
   5   2   7   59.41   25.57
   5   2   8  194.23   42.10
   5   2   9   18.36   17.26
   5   2  10  -10.54   13.92
   5   2  11  123.22   28.99
   5   2  12   73.66   20.35
   5   3 -10   17.99   15.16
   5   3  -9    7.34   17.57
   5   3  -8   49.37   27.13
   5   3  -7   13.54   13.84
   5   3  -6   12.51   18.73
   5   3  -5   57.31   46.62
   5   3  -4  184.93   51.54
   5   3  -3  261.92   70.20
   5   3  -3  154.33   32.69
   5   3  -2    4.32   19.62
   5   3  -2    7.10   15.83
   5   3  -1   -1.38   20.74
   5   3  -1   12.46   15.99
   5   3   0   84.46   32.28
   5   3   1  307.54   58.04
   5   3   2  428.05   67.19
   5   3   3  500.90   71.95
   5   3   3  433.25   75.80
   5   3   4   17.61    8.15
   5   3   4    0.68   25.11
   5   3   5  237.19   47.05
   5   3   5  329.28   58.84
   5   3   6  188.26   38.50
   5   3   6  239.81   54.22
   5   3   7   28.00   17.69
   5   3   7   45.10   26.65
   5   3   8   18.06   13.31
   5   3   8    0.35   11.58
   5   3   9  125.48   26.66
   5   3   9  179.73   38.73
   5   3  10  -13.10   11.61
   5   3  11  -18.42    9.78
   5   3  12   17.25    7.75
   5   4  -9  -12.23    4.75
   5   4  -8    0.76    8.59
   5   4  -7  -13.91   13.88
   5   4  -6   34.23   17.84
   5   4  -6    7.18   13.97
   5   4  -5   44.42   20.94
   5   4  -5   26.53   21.84
   5   4  -4   84.77   27.24
   5   4  -4   97.43   36.81
   5   4  -3  123.66   37.05
   5   4  -3   63.11   29.37
   5   4  -3   49.73   13.53
   5   4  -2   79.28   31.64
   5   4  -2   96.16   42.82
   5   4  -2   88.19   24.65
   5   4  -1   77.09   28.99
   5   4  -1  102.63   29.27
   5   4   0   36.38   22.95
   5   4   0   44.79   27.23
   5   4   1  177.40   45.05
   5   4   1  226.23   46.88
   5   4   2  183.77   43.83
   5   4   2  219.39   47.65
   5   4   3  303.01   55.47
   5   4   3  442.34   66.08
   5   4   3  386.03   61.93
   5   4   4  336.02   58.14
   5   4   4  279.46   51.38
   5   4   5   57.56   21.77
   5   4   5   86.06   28.99
   5   4   6   35.43   13.63
   5   4   6   50.27   22.27
   5   4   7  110.05   30.10
   5   4   7  103.01   24.44
   5   4   8   77.92   22.15
   5   4   8   71.64   22.67
   5   4   9   80.48   21.37
   5   4   9   72.53   20.40
   5   4  10   54.08   15.22
   5   4  10   65.40   20.19
   5   4  11   -4.71   14.28
   5   4  12   -1.97    9.40
   5   5  -7   -9.06    7.39
   5   5  -6   11.86   11.22
   5   5  -5   67.85   23.95
   5   5  -4   72.80   25.18
   5   5  -3   39.32   21.13
   5   5  -2   37.48   18.10
   5   5  -2   41.26   17.37
   5   5  -1   45.05   21.92
   5   5  -1   38.13   17.24
   5   5   0  106.20   34.88
   5   5   0   58.41   21.92
   5   5   1   52.79   24.28
   5   5   1   83.43   25.49
   5   5   1  111.68   36.64
   5   5   2  201.44   50.62
   5   5   2  193.10   44.64
   5   5   2  209.32   48.64
   5   5   3  142.34   43.29
   5   5   3  147.70   38.36
   5   5   3  151.23   38.88
   5   5   4   95.70   36.32
   5   5   4  142.17   34.27
   5   5   4  105.75   24.46
   5   5   5   17.56   21.08
   5   5   5   -1.42   12.60
   5   5   6   -0.16   12.50
   5   5   6  -17.48   15.95
   5   5   7   29.67   19.70
   5   5   7   -5.83   13.57
   5   5   8   -4.19   11.97
   5   5   8    0.94    7.93
   5   5   9   -0.77    5.74
   5   5   9   28.67   17.26
   5   5  10   56.56   16.95
   5   5  10   83.23   19.08
   5   5  11   -9.52   12.65
   5   6  -5   14.23    9.60
   5   6  -4  116.09   28.54
   5   6  -3  -12.62   14.90
   5   6  -2  132.95   32.71
   5   6  -1   10.59    7.61
   5   6  -1   40.76   14.75
   5   6   0    6.33    6.91
   5   6   0  -16.68   15.18
   5   6   1   -0.43   13.14
   5   6   1   12.35   11.16
   5   6   2   20.52   19.45
   5   6   2   12.91   16.84
   5   6   3  132.80   36.31
   5   6   3  108.53   30.72
   5   6   4  151.53   34.94
   5   6   5   14.33   10.66
   5   6   6   14.80   15.88
   5   6   7   17.51   11.94
   5   6   8   -1.08    6.07
   5   6   9   20.37   10.82
   5   6  10   19.24    8.77
   5   7  -2    3.86    6.13
   5   7  -1  103.72   26.29
   5   7   0   18.38    8.02
   5   7   1    6.31    8.82
   5   7   1   -0.59    4.46
   5   7   2    8.91   12.56
   5   7   2    1.18    6.94
   5   7   3   42.97   11.33
   5   7   4   26.98   11.62
   5   7   5   20.52   10.51
   5   7   6    3.70    9.01
   5   7   7    5.90    6.40
   5   7   8   13.11    8.21
   5   7   9    5.54    4.26
   6  -1  -1    3.44    9.96
   6  -1   0    0.92    6.82
   6  -1   1   10.89   13.53
   6  -1   2   38.16   21.64
   6   0  -4   -5.47    9.43
   6   0  -3   24.34   20.03
   6   0  -2  -45.91   18.89
   6   0  -1   -9.15   14.88
   6   0   0   72.31   30.49
   6   0   1   16.02   19.65
   6   0   2   -6.14    9.75
   6   0   3   58.01   26.46
   6   0   4   19.91   18.68
   6   0   5   -5.66    7.67
   6   1  -5   34.86   16.62
   6   1  -4  220.77   35.59
   6   1  -3   52.85   25.13
   6   1  -3   91.37   25.71
   6   1  -2  152.82   43.27
   6   1  -2  137.50   32.12
   6   1  -1  132.08   46.42
   6   1  -1  155.82   32.10
   6   1   0    5.62   17.38
   6   1   0   14.98    6.53
   6   1   1   -1.49    9.25
   6   1   1   16.10   11.33
   6   1   2   45.78   24.04
   6   1   2   29.24   16.64
   6   1   3   59.97   27.01
   6   1   3   20.90   16.09
   6   1   4   20.37    9.63
   6   1   4   56.63   19.78
   6   1   5  182.12   42.65
   6   1   5  208.56   33.08
   6   1   6    6.56   10.35
   6   1   6   20.63   12.37
   6   1   7  204.56   31.36
   6   1   8   51.65   12.63
   6   2  -6  -10.04    8.34
   6   2  -4   32.97   19.81
   6   2  -3   74.36   25.89
   6   2  -3  137.33   32.10
   6   2  -2   13.89   15.86
   6   2  -2   32.13   21.55
   6   2  -1   20.49   19.26
   6   2   0    1.62   16.52
   6   2   1    9.76    8.64
   6   2   2   25.43   16.54
   6   2   3  148.21   33.80
   6   2   4   28.50   18.29
   6   2   5  134.64   30.42
   6   2   6  231.56   34.92
   6   2   7   41.99   19.66
   6   2   7    8.91    9.81
   6   2   8  -10.72    9.25
   6   2   9   -4.67    7.84
   6   3  -3   -0.75   11.06
   6   3  -2   59.76   24.51
   6   3  -1   19.34   15.80
   6   3   0  -11.39   10.20
   6   3   1   75.62   22.51
   6   3   2   61.12   18.97
   6   3   3   35.22   18.78
   6   3   4  130.69   27.67
   6   3   5  124.68   30.29
   6   3   6   27.31   18.21
   6   3   7   14.00   11.94
   6   3   8   40.78   15.39
   6   3   8  331.06   47.26
   6   3   9   17.38   13.42
   6   4  -4   51.29   19.28
   6   4  -3   40.97   14.02
   6   4  -2   73.59   21.15
   6   4  -1  164.11   32.32
   6   4   0  150.39   37.73
   6   4   1   25.98   18.87
   6   4   2   50.11   25.97
   6   4   3  167.52   35.76
   6   4   4  173.24   34.29
   6   4   5  115.67   43.61
   6   4   6   -7.58    7.20
   6   4   7   -2.41    8.17
   6   4   8  -16.60   13.27
   6   5   0   38.42   16.33
   6   5   1   34.21   16.47
   6   5   2   30.79   17.53
   6   5   3    3.96    7.06
   6   5   3    8.65   13.08
   6   5   4   50.10   15.18
   6   5   4   68.18   19.62
   6   5   5   11.56    8.82
   6   5   5   57.66   16.42
   0   0   0    0.00    0.00



TITL OJHALZ in P-1
REM P-1 (#2 in standard setting)
CELL 1.54184   5.279711   7.831411  16.028002  76.6141  85.2915  76.6366
ZERR    1.00   0.001419   0.001979   0.003264   0.0197   0.0208   0.0228
LATT  1
SFAC C H N O
UNIT 30.00 36.00 2.00 4.00
TREF
HKLF 4
END
_computing_structure_solution     'SHELXT 2014/5 (Sheldrick, 2014)'
_computing_structure_solution     'SHELXT 2014/5 (Sheldrick, 2014)'
;
_shelx_hkl_checksum              19169
_nottingham_internal_coll_client JH/DBA
_nottingham_internal_coll_date   21/03/2017
_nottingham_internal_coll_frame_method '\w scans'
_nottingham_internal_coll_frame_time '30.00, 120.00'
_nottingham_internal_coll_frame_width 1.00
_nottingham_internal_coll_instrument 'GVA, PL13110002'
_nottingham_internal_coll_location NOTTS
_nottingham_internal_coll_name   OJHALZ
_nottingham_internal_coll_number 16971
_nottingham_internal_coll_type   custom
_nottingham_internal_coll_user   pcxjh6
_nottingham_internal_process_date 27/03/2017
_nottingham_internal_process_user pcxjh6
_nottingham_internal_refinement_date 27/03/2017
_nottingham_internal_refinement_user pcxjh6
_nottingham_internal_self_validation_date 03/06/2019
_nottingham_internal_self_validation_user pcxjh6
_nottingham_internal_solution_date 27/03/2017
_nottingham_internal_solution_user pcxjh6
_olex2_exptl_crystal_mounting_method 'in fomblin film on a micromount'
_olex2_submission_original_sample_id OJHALZ
_olex2_submission_special_instructions 'No special instructions were received'
_oxdiff_exptl_absorpt_empirical_details
;
Empirical correction (ABSPACK) includes:
- Absorption correction using spherical harmonics
- Frame scaling
;
_oxdiff_exptl_absorpt_empirical_full_max 1.629
_oxdiff_exptl_absorpt_empirical_full_min 0.539
loop_
_space_group_symop_operation_xyz
'x, y, z'
'-x, -y, -z'
loop_
_atom_site_label
_atom_site_type_symbol
_atom_site_fract_x
_atom_site_fract_y
_atom_site_fract_z
_atom_site_U_iso_or_equiv
_atom_site_adp_type
_atom_site_occupancy
_atom_site_site_symmetry_order
_atom_site_calc_flag
_atom_site_refinement_flags_posn
_atom_site_refinement_flags_adp
_atom_site_refinement_flags_occupancy
_atom_site_disorder_assembly
_atom_site_disorder_group
O1 O -0.0526(6) -0.0032(5) 0.7697(2) 0.0272(8) Uani 1 1 d . . . . .
H1 H -0.137071 -0.062517 0.807670 0.041 Uiso 1 1 calc GR . . . .
O2 O 0.6883(7) 0.8116(5) 0.8963(2) 0.0305(8) Uani 1 1 d . . . . .
N1 N 0.5019(7) 0.5936(5) 0.8639(3) 0.0231(8) Uani 1 1 d . . . . .
C1 C 0.0560(8) 0.1040(6) 0.8054(3) 0.0231(10) Uani 1 1 d . . . . .
C2 C 0.2455(8) 0.1839(6) 0.7570(3) 0.0219(9) Uani 1 1 d . . . . .
H2 H 0.295146 0.161819 0.701470 0.026 Uiso 1 1 calc R . . . .
C3 C 0.3629(8) 0.2956(6) 0.7890(3) 0.0217(9) Uani 1 1 d . . . . .
H3 H 0.496259 0.346478 0.756200 0.026 Uiso 1 1 calc R . . . .
C4 C 0.2856(8) 0.3335(6) 0.8694(3) 0.0220(9) Uani 1 1 d . . . . .
C5 C 0.0940(8) 0.2530(6) 0.9175(3) 0.0230(9) Uani 1 1 d . . . . .
H5 H 0.042266 0.275636 0.972848 0.028 Uiso 1 1 calc R . . . .
C6 C -0.0215(8) 0.1402(6) 0.8853(3) 0.0236(10) Uani 1 1 d . . . . .
H6 H -0.153573 0.087880 0.918061 0.028 Uiso 1 1 calc R . . . .
C7 C 0.4049(8) 0.4472(6) 0.9087(3) 0.0230(9) Uani 1 1 d . . . . .
C8 C 0.4393(8) 0.4312(6) 0.9940(3) 0.0235(10) Uani 1 1 d . . . . .
C9 C 0.5977(8) 0.6769(7) 0.9206(3) 0.0247(10) Uani 1 1 d . . . . .
C10 C 0.4903(8) 0.6777(6) 0.7731(3) 0.0217(9) Uani 1 1 d . . . . .
H10A H 0.433357 0.809658 0.766421 0.026 Uiso 1 1 calc R . . . .
H10B H 0.358183 0.636429 0.747064 0.026 Uiso 1 1 calc R . . . .
C11 C 0.7496(8) 0.6356(7) 0.7251(3) 0.0240(10) Uani 1 1 d . . . . .
H11A H 0.810096 0.503583 0.732855 0.029 Uiso 1 1 calc R . . . .
H11B H 0.880943 0.681008 0.749288 0.029 Uiso 1 1 calc R . . . .
C12 C 0.7261(9) 0.7211(7) 0.6298(3) 0.0280(10) Uani 1 1 d . . . . .
H12A H 0.642638 0.850298 0.622634 0.034 Uiso 1 1 calc R . . . .
H12B H 0.612079 0.663786 0.604369 0.034 Uiso 1 1 calc R . . . .
C13 C 0.9897(9) 0.7024(7) 0.5814(3) 0.0294(11) Uani 1 1 d . . . . .
H13A H 1.096335 0.771196 0.602728 0.035 Uiso 1 1 calc R . . . .
H13B H 1.081578 0.574337 0.594184 0.035 Uiso 1 1 calc R . . . .
C14 C 0.9680(9) 0.7688(8) 0.4847(3) 0.0312(11) Uani 1 1 d . . . . .
H14A H 0.875836 0.896840 0.471893 0.037 Uiso 1 1 calc R . . . .
H14B H 0.861839 0.699826 0.463322 0.037 Uiso 1 1 calc R . . . .
C15 C 1.2310(10) 0.7504(8) 0.4368(4) 0.0380(13) Uani 1 1 d . . . . .
H15A H 1.204445 0.796507 0.375134 0.057 Uiso 1 1 calc GR . . . .
H15B H 1.320899 0.623411 0.447372 0.057 Uiso 1 1 calc GR . . . .
H15C H 1.336656 0.819527 0.457034 0.057 Uiso 1 1 calc GR . . . .
loop_
_atom_site_aniso_label
_atom_site_aniso_U_11
_atom_site_aniso_U_22
_atom_site_aniso_U_33
_atom_site_aniso_U_23
_atom_site_aniso_U_13
_atom_site_aniso_U_12
O1 0.0319(17) 0.0282(18) 0.0256(19) -0.0057(14) 0.0072(14) -0.0174(14)
O2 0.0384(19) 0.0314(19) 0.0256(19) -0.0049(14) 0.0050(15) -0.0188(15)
N1 0.0195(18) 0.031(2) 0.021(2) -0.0055(16) 0.0050(15) -0.0116(15)
C1 0.018(2) 0.026(2) 0.027(3) -0.0043(19) 0.0008(18) -0.0086(17)
C2 0.023(2) 0.025(2) 0.019(2) -0.0050(18) 0.0051(17) -0.0088(17)
C3 0.019(2) 0.022(2) 0.025(2) -0.0039(18) 0.0065(17) -0.0096(16)
C4 0.015(2) 0.025(2) 0.024(2) -0.0004(18) -0.0010(17) -0.0065(16)
C5 0.024(2) 0.021(2) 0.025(2) -0.0044(18) 0.0071(18) -0.0106(17)
C6 0.017(2) 0.028(2) 0.026(3) -0.0052(19) 0.0100(18) -0.0085(17)
C7 0.0153(19) 0.024(2) 0.029(3) -0.0059(19) 0.0093(18) -0.0062(16)
C8 0.0158(19) 0.025(2) 0.029(3) -0.0062(19) 0.0031(17) -0.0058(17)
C9 0.019(2) 0.030(3) 0.025(3) -0.0079(19) 0.0068(18) -0.0084(18)
C10 0.020(2) 0.025(2) 0.022(2) -0.0074(18) 0.0042(17) -0.0070(17)
C11 0.019(2) 0.033(3) 0.021(2) -0.0076(19) 0.0028(17) -0.0062(18)
C12 0.026(2) 0.035(3) 0.021(3) -0.003(2) 0.0049(19) -0.0062(19)
C13 0.024(2) 0.037(3) 0.031(3) -0.009(2) 0.0045(19) -0.012(2)
C14 0.025(2) 0.045(3) 0.027(3) -0.011(2) 0.0087(19) -0.012(2)
C15 0.031(3) 0.050(3) 0.033(3) -0.010(3) 0.006(2) -0.009(2)
loop_
_atom_type_symbol
_atom_type_description
_atom_type_scat_dispersion_real
_atom_type_scat_dispersion_imag
_atom_type_scat_source
C C 0.0181 0.0091 'International Tables Vol C Tables 4.2.6.8 and 6.1.1.4'
H H 0.0000 0.0000 'International Tables Vol C Tables 4.2.6.8 and 6.1.1.4'
N N 0.0311 0.0180 'International Tables Vol C Tables 4.2.6.8 and 6.1.1.4'
O O 0.0492 0.0322 'International Tables Vol C Tables 4.2.6.8 and 6.1.1.4'
loop_
_exptl_crystal_face_index_h
_exptl_crystal_face_index_k
_exptl_crystal_face_index_l
_exptl_crystal_face_perp_dist
-3 -2 -2 0.0636
3 2 2 0.0636
0 5 5 0.0183
0 -5 -5 0.0183
0 0 -10 0.0181
0 0 10 0.0181
loop_
_geom_angle_atom_site_label_1
_geom_angle_atom_site_label_2
_geom_angle_atom_site_label_3
_geom_angle
_geom_angle_site_symmetry_1
_geom_angle_site_symmetry_3
_geom_angle_publ_flag
C1 O1 H1 109.5 . . ?
C7 N1 C9 111.1(4) . . ?
C7 N1 C10 129.4(4) . . ?
C9 N1 C10 119.1(4) . . ?
O1 C1 C2 117.5(4) . . ?
O1 C1 C6 122.7(4) . . ?
C6 C1 C2 119.7(4) . . ?
C1 C2 H2 119.7 . . ?
C3 C2 C1 120.6(4) . . ?
C3 C2 H2 119.7 . . ?
C2 C3 H3 119.9 . . ?
C2 C3 C4 120.1(4) . . ?
C4 C3 H3 119.9 . . ?
C3 C4 C5 118.8(4) . . ?
C3 C4 C7 123.4(4) . . ?
C5 C4 C7 117.7(4) . . ?
C4 C5 H5 119.7 . . ?
C6 C5 C4 120.7(4) . . ?
C6 C5 H5 119.7 . . ?
C1 C6 C5 120.0(4) . . ?
C1 C6 H6 120.0 . . ?
C5 C6 H6 120.0 . . ?
N1 C7 C4 125.0(4) . . ?
C8 C7 N1 107.5(4) . . ?
C8 C7 C4 127.5(4) . . ?
C7 C8 C8 110.4(5) . 2_667 ?
C7 C8 C9 143.6(4) . 2_667 ?
C8 C8 C9 106.0(5) 2_667 2_667 ?
O2 C9 N1 123.2(4) . . ?
O2 C9 C8 131.7(5) . 2_667 ?
N1 C9 C8 105.0(4) . 2_667 ?
N1 C10 H10A 109.0 . . ?
N1 C10 H10B 109.0 . . ?
N1 C10 C11 113.1(4) . . ?
H10A C10 H10B 107.8 . . ?
C11 C10 H10A 109.0 . . ?
C11 C10 H10B 109.0 . . ?
C10 C11 H11A 109.4 . . ?
C10 C11 H11B 109.4 . . ?
C10 C11 C12 111.3(4) . . ?
H11A C11 H11B 108.0 . . ?
C12 C11 H11A 109.4 . . ?
C12 C11 H11B 109.4 . . ?
C11 C12 H12A 109.1 . . ?
C11 C12 H12B 109.1 . . ?
C11 C12 C13 112.7(4) . . ?
H12A C12 H12B 107.8 . . ?
C13 C12 H12A 109.1 . . ?
C13 C12 H12B 109.1 . . ?
C12 C13 H13A 108.9 . . ?
C12 C13 H13B 108.9 . . ?
H13A C13 H13B 107.7 . . ?
C14 C13 C12 113.5(4) . . ?
C14 C13 H13A 108.9 . . ?
C14 C13 H13B 108.9 . . ?
C13 C14 H14A 108.9 . . ?
C13 C14 H14B 108.9 . . ?
C13 C14 C15 113.3(4) . . ?
H14A C14 H14B 107.7 . . ?
C15 C14 H14A 108.9 . . ?
C15 C14 H14B 108.9 . . ?
C14 C15 H15A 109.5 . . ?
C14 C15 H15B 109.5 . . ?
C14 C15 H15C 109.5 . . ?
H15A C15 H15B 109.5 . . ?
H15A C15 H15C 109.5 . . ?
H15B C15 H15C 109.5 . . ?
loop_
_geom_bond_atom_site_label_1
_geom_bond_atom_site_label_2
_geom_bond_distance
_geom_bond_site_symmetry_2
_geom_bond_publ_flag
O1 H1 0.8400 . ?
O1 C1 1.363(6) . ?
O2 C9 1.227(6) . ?
N1 C7 1.387(6) . ?
N1 C9 1.418(6) . ?
N1 C10 1.452(6) . ?
C1 C2 1.390(6) . ?
C1 C6 1.384(7) . ?
C2 H2 0.9500 . ?
C2 C3 1.387(6) . ?
C3 H3 0.9500 . ?
C3 C4 1.396(7) . ?
C4 C5 1.399(6) . ?
C4 C7 1.473(6) . ?
C5 H5 0.9500 . ?
C5 C6 1.390(7) . ?
C6 H6 0.9500 . ?
C7 C8 1.366(7) . ?
C8 C8 1.431(9) 2_667 ?
C8 C9 1.458(7) 2_667 ?
C10 H10A 0.9900 . ?
C10 H10B 0.9900 . ?
C10 C11 1.521(6) . ?
C11 H11A 0.9900 . ?
C11 H11B 0.9900 . ?
C11 C12 1.521(7) . ?
C12 H12A 0.9900 . ?
C12 H12B 0.9900 . ?
C12 C13 1.530(6) . ?
C13 H13A 0.9900 . ?
C13 H13B 0.9900 . ?
C13 C14 1.522(7) . ?
C14 H14A 0.9900 . ?
C14 H14B 0.9900 . ?
C14 C15 1.523(7) . ?
C15 H15A 0.9800 . ?
C15 H15B 0.9800 . ?
C15 H15C 0.9800 . ?
loop_
_exptl_oxdiff_crystal_face_indexfrac_h
_exptl_oxdiff_crystal_face_indexfrac_k
_exptl_oxdiff_crystal_face_indexfrac_l
_exptl_oxdiff_crystal_face_x
_exptl_oxdiff_crystal_face_y
_exptl_oxdiff_crystal_face_z
-2.9975 -2.0035 -1.9977 0.5759 0.1602 -0.6730
2.9975 2.0035 1.9977 -0.5759 -0.1602 0.6730
-0.0035 5.0031 5.0002 -0.8868 -0.2562 -0.4930
0.0035 -5.0031 -5.0002 0.8868 0.2562 0.4930
0.0006 -0.0087 -10.0039 -0.0337 0.9839 0.0885
-0.0006 0.0087 10.0039 0.0337 -0.9839 -0.0885
