#------------------------------------------------------------------------------
#$Date: 2021-09-06 13:34:05 +0300 (Mon, 06 Sep 2021) $
#$Revision: 268695 $
#$URL: file:///home/coder/svn-repositories/cod/cif/7/24/25/7242537.cif $
#------------------------------------------------------------------------------
#
# This file is available in the Crystallography Open Database (COD),
# http://www.crystallography.net/
#
# All data on this site have been placed in the public domain by the
# contributors.
#
data_7242537
loop_
_publ_author_name
'Shu, Yuanhong'
'Ye, Kaiqi'
'Yue, Yuan'
'Sun, Jingbo'
'Wang, Haoran'
'Zhong, Jiangbin'
'Yang, Xiqiao'
'Gao, Hongqiang'
'Lu, Ran'
_publ_section_title
;
 Fluorine as a robust balancer for tuning the reactivity of
 topo-photoreactions of chalcones and the photomechanical effects of
 molecular crystals
;
_journal_issue                   34
_journal_name_full               CrystEngComm
_journal_page_first              5856
_journal_page_last               5868
_journal_paper_doi               10.1039/D1CE00086A
_journal_volume                  23
_journal_year                    2021
_chemical_formula_moiety         'C16 H12 F2 O'
_chemical_formula_sum            'C16 H12 F O2'
_chemical_formula_weight         255.26
_space_group_crystal_system      triclinic
_space_group_IT_number           2
_space_group_name_Hall           '-P 1'
_space_group_name_H-M_alt        'P -1'
_atom_sites_solution_hydrogens   mixed
_audit_creation_date             2021-03-11
_audit_creation_method
;
Olex2 1.2
(compiled 2018.05.29 svn.r3508 for OlexSys, GUI svn.r5506)
;
_audit_update_record
;
2021-03-22 deposited with the CCDC.	2021-03-26 downloaded from the CCDC.
;
_cell_angle_alpha                93.713(3)
_cell_angle_beta                 97.789(3)
_cell_angle_gamma                95.423(3)
_cell_formula_units_Z            2
_cell_length_a                   5.6819(5)
_cell_length_b                   7.7529(7)
_cell_length_c                   14.9654(12)
_cell_measurement_reflns_used    4074
_cell_measurement_temperature    100(2)
_cell_measurement_theta_max      27.463
_cell_measurement_theta_min      2.887
_cell_volume                     648.22(10)
_computing_cell_refinement       'SAINT V8.38A (?, 2016)'
_computing_data_reduction        'SAINT V8.38A (?, 2016)'
_computing_molecular_graphics    'Olex2 (Dolomanov et al., 2009)'
_computing_publication_material  'Olex2 (Dolomanov et al., 2009)'
_computing_structure_refinement  'XL (Sheldrick, 2008)'
_computing_structure_solution    'olex2.solve (Bourhis et al., 2015)'
_diffrn_ambient_temperature      100.0
_diffrn_measured_fraction_theta_full 0.983
_diffrn_measured_fraction_theta_max 0.974
_diffrn_measurement_device_type  'Bruker APEX-II CCD'
_diffrn_measurement_method       '\f and \w scans'
_diffrn_radiation_type           MoK\a
_diffrn_radiation_wavelength     0.71073
_diffrn_reflns_av_R_equivalents  0.0426
_diffrn_reflns_av_unetI/netI     0.0431
_diffrn_reflns_Laue_measured_fraction_full 0.983
_diffrn_reflns_Laue_measured_fraction_max 0.974
_diffrn_reflns_limit_h_max       7
_diffrn_reflns_limit_h_min       -7
_diffrn_reflns_limit_k_max       10
_diffrn_reflns_limit_k_min       -10
_diffrn_reflns_limit_l_max       19
_diffrn_reflns_limit_l_min       -19
_diffrn_reflns_number            11625
_diffrn_reflns_point_group_measured_fraction_full 0.983
_diffrn_reflns_point_group_measured_fraction_max 0.974
_diffrn_reflns_theta_full        25.242
_diffrn_reflns_theta_max         27.504
_diffrn_reflns_theta_min         2.756
_exptl_absorpt_coefficient_mu    0.095
_exptl_absorpt_correction_type   none
_exptl_crystal_colour            colourless
_exptl_crystal_colour_primary    colourless
_exptl_crystal_density_diffrn    1.308
_exptl_crystal_description       needle
_exptl_crystal_F_000             266
_exptl_crystal_size_max          0.31
_exptl_crystal_size_mid          0.28
_exptl_crystal_size_min          0.09
_refine_diff_density_max         0.155
_refine_diff_density_min         -0.128
_refine_diff_density_rms         0.029
_refine_ls_extinction_method     none
_refine_ls_goodness_of_fit_ref   1.021
_refine_ls_hydrogen_treatment    mixed
_refine_ls_matrix_type           full
_refine_ls_number_parameters     185
_refine_ls_number_reflns         2897
_refine_ls_number_restraints     3
_refine_ls_restrained_S_all      1.020
_refine_ls_R_factor_all          0.1175
_refine_ls_R_factor_gt           0.0560
_refine_ls_shift/su_max          0.097
_refine_ls_shift/su_mean         0.004
_refine_ls_structure_factor_coef Fsqd
_refine_ls_weighting_details
'w=1/[\s^2^(Fo^2^)+(0.0412P)^2^+0.1906P] where P=(Fo^2^+2Fc^2^)/3'
_refine_ls_weighting_scheme      calc
_refine_ls_wR_factor_gt          0.1084
_refine_ls_wR_factor_ref         0.1353
_reflns_Friedel_coverage         0.000
_reflns_number_gt                1555
_reflns_number_total             2897
_reflns_threshold_expression     'I > 2\s(I)'
_cod_data_source_file            d1ce00086a31.cif
_cod_data_source_block           2FChMe-4
_cod_depositor_comments
'Adding full bibliography for 7242537--7242549.cif.'
_cod_database_code               7242537
_shelx_shelxl_version_number     2014/7
_shelx_space_group_comment
;
The symmetry employed for this shelxl refinement is uniquely defined
by the following loop, which should always be used as a source of
symmetry information in preference to the above space-group names.
They are only intended as comments.
;
_olex2_refinement_description
;
1. Fixed Uiso
 At 1.2 times of:
  All C(H) groups
 At 1.5 times of:
  All C(H,H,H) groups
2. Rigid body (RIGU) restrains
 C1, C2
 with sigma for 1-2 distances of 0.02 and sigma for 1-3 distances of 0.04
3. Others
 Fixed Sof: H1AA(0.5) H1AB(0.5) H1AC(0.5) H1BD(0.5) H1BE(0.5) H1BF(0.5)
4.a Aromatic/amide H refined with riding coordinates:
 C3(H3), C4(H4), C7(H7), C8(H8), C10(H10), C12(H12), C13(H13), C14(H14),
 C16(H16)
4.b Idealised Me refined as rotating group:
 C1(H1AA,H1AB,H1AC)
;
_shelx_res_file
;
    2fchme-4.res created by SHELXL-2014/7

TITL 1_a.res in P-1
CELL 0.71073 5.6819 7.7529 14.9654 93.713 97.789 95.423
ZERR 2 0.0005 0.0007 0.0012 0.003 0.003 0.003
LATT 1
SFAC C H O F
UNIT 32 24 4 2
RIGU 0.02 0.04 C1 C2

L.S. 4
PLAN  -3 0 0
TEMP -173.15
HTAB
BOND $H
CONF
fmap 2
acta
REM <olex2.extras>
REM <HklSrc "%.\\2FChMe-4.hkl">
REM </olex2.extras>

WGHT    0.041200    0.190600
FVAR       1.62402
F1    4   -0.129399    0.514669    0.361162    11.00000    0.06579    0.09229 =
         0.08455    0.00858    0.00723   -0.02110
O1    3    1.022954    0.916193    0.629089    11.00000    0.06312    0.11448 =
         0.06664    0.02754    0.01040   -0.02469
F2    4    0.356381    0.785187    0.171654    11.00000    0.11668    0.13709 =
         0.04803    0.01977    0.01358   -0.01199
C1    1    0.787255    0.698117    1.020890    11.00000    0.12081    0.13691 =
         0.05928    0.02366    0.01063   -0.00891
PART 1
AFIX 137
H1AA  2    0.638264    0.625983    1.024702    10.50000   -1.50000
H1AB  2    0.794254    0.806738    1.058938    10.50000   -1.50000
H1AC  2    0.923537    0.635363    1.041928    10.50000   -1.50000
AFIX   0
PART 0
C2    1    0.796070    0.738660    0.923806    11.00000    0.07819    0.08295 =
         0.05222    0.01608    0.00807    0.00135
C3    1    0.604170    0.694210    0.857877    11.00000    0.06983    0.10101 =
         0.06217    0.02209    0.01714   -0.01396
AFIX  43
H3    2    0.461626    0.638351    0.874049    11.00000   -1.20000
AFIX   0
C4    1    0.610604    0.727666    0.768918    11.00000    0.05734    0.09027 =
         0.05670    0.01501    0.00799   -0.01393
AFIX  43
H4    2    0.473481    0.694959    0.725192    11.00000   -1.20000
AFIX   0
C5    1    0.815171    0.808542    0.742685    11.00000    0.04841    0.05355 =
         0.04966    0.01147    0.00622    0.00186
C6    1    0.836738    0.843125    0.647420    11.00000    0.05155    0.05738 =
         0.05546    0.01389    0.00996   -0.00093
C7    1    0.635931    0.785649    0.575704    11.00000    0.05170    0.06037 =
         0.05302    0.01265    0.00945   -0.00550
AFIX  43
H7    2    0.496476    0.725146    0.591842    11.00000   -1.20000
AFIX   0
C8    1    0.640520    0.814123    0.490343    11.00000    0.05349    0.05322 =
         0.05243    0.01146    0.01152   -0.00081
AFIX  43
H8    2    0.780790    0.877634    0.476680    11.00000   -1.20000
AFIX   0
C9    1    0.453630    0.758871    0.414084    11.00000    0.05408    0.04584 =
         0.04869    0.00772    0.01089    0.00472
C10   1    0.489674    0.800534    0.327454    11.00000    0.06159    0.05784 =
         0.05294    0.01228    0.01276    0.00112
AFIX  43
H10   2    0.632742    0.866555    0.318262    11.00000   -1.20000
AFIX   0
C11   1    0.317475    0.745599    0.255892    11.00000    0.08232    0.07473 =
         0.04413    0.01245    0.01288    0.00724
C12   1    0.105659    0.650108    0.264363    11.00000    0.07107    0.07072 =
         0.05459    0.00246   -0.00150    0.00077
AFIX  43
H12   2   -0.012212    0.613156    0.213748    11.00000   -1.20000
AFIX   0
C13   1    1.008249    0.854630    0.809193    11.00000    0.05721    0.08980 =
         0.06175    0.01858    0.00231   -0.01360
AFIX  43
H13   2    1.150855    0.911210    0.793443    11.00000   -1.20000
AFIX   0
C14   1    0.998760    0.820487    0.897673    11.00000    0.07240    0.10988 =
         0.05740    0.01835   -0.00505   -0.00950
AFIX  43
H14   2    1.134874    0.854026    0.941760    11.00000   -1.20000
AFIX   0
C15   1    0.076110    0.612045    0.350111    11.00000    0.05542    0.05475 =
         0.06315    0.00692    0.00909   -0.00156
C16   1    0.239524    0.663087    0.424816    11.00000    0.05719    0.05305 =
         0.04950    0.00825    0.01207    0.00238
AFIX  43
H16   2    0.208413    0.634069    0.483106    11.00000   -1.20000
AFIX   0
PART 2
H1BD  2    0.932270    0.753856    1.059160    10.50000    0.06309
H1BE  2    0.636496    0.747108    1.035331    10.50000    0.09334
H1BF  2    0.785858    0.557593    1.020174    10.50000    0.12414
HKLF 4

REM  1_a.res in P-1
REM R1 =  0.0560 for    1555 Fo > 4sig(Fo)  and  0.1175 for all    2897 data
REM    185 parameters refined using      3 restraints

END

WGHT      0.0411      0.1902

REM Instructions for potential hydrogen bonds
EQIV $1 -x+2, -y+2, -z+1
HTAB C10 O1_$1

REM Highest difference peak  0.155,  deepest hole -0.128,  1-sigma level  0.029
Q1    1   0.7686  0.8550  0.7000  11.00000  0.05    0.15
Q2    1   0.9830  0.8189  0.6218  11.00000  0.05    0.13
Q3    1   1.1038  0.9984  0.8034  11.00000  0.05    0.13
;
_shelx_res_checksum              75521
_shelx_hkl_file
;
  -1   0   0  519.55   12.90
  -1   0   0  513.65   12.30
  -1   0   0  514.75   12.30
   1   0   0  487.45   12.20
   1   0   0  523.55   12.20
  -2   0   0  299.37    9.10
  -2   0   0  314.27   10.30
  -2   0   0  298.27    9.10
   2   0   0  298.87   10.40
   2   0   0  293.97    8.90
   2   0   0  289.97    8.90
  -3   0   0   41.90    4.50
  -3   0   0   40.10    4.30
  -3   0   0   43.10    5.10
   3   0   0   41.80    4.20
   3   0   0   37.00    4.20
   3   0   0   34.30    5.20
  -4   0   0   72.89    6.70
  -4   0   0   68.09    7.30
   4   0   0   70.59    6.00
   4   0   0   67.29    6.00
   4   0   0   67.89    7.60
  -5   0   0   89.29    8.00
  -5   0   0   85.99    9.50
  -5   0   0   95.09   15.30
  -5   0   0   94.19    8.70
   5   0   0  110.59    8.80
   5   0   0   82.49    8.10
   5   0   0  111.79   10.40
  -6   0   0   33.70   21.30
  -6   0   0   23.00    5.20
  -6   0   0   29.80    6.60
   6   0   0   21.30    5.10
  -7   0   0   -9.80    4.50
  -7   0   0   -1.20    9.70
  -7   0   0    7.20    4.70
   7   0   0    0.10    4.30
   7  -1   0    4.80    4.20
  -7   1   0  -11.50    5.10
  -7   1   0   -1.80    4.50
  -7   1   0   -9.90   10.00
   6  -1   0  187.78   14.70
   6  -1   0  176.68   10.80
   6  -1   0  213.98   11.60
  -6   1   0  199.88   12.40
   5  -1   0   26.30    5.20
  -5   1   0   32.70    5.60
  -5   1   0   19.70    4.20
  -5   1   0   35.90   10.30
   4  -1   0   20.60    4.00
   4  -1   0   12.50    3.70
   4  -1   0   22.60    4.10
  -4   1   0   24.90    8.50
  -4   1   0   21.20    4.10
  -4   1   0   11.40    3.00
  -4   1   0   21.50    4.20
   3  -1   0  210.08    8.40
   3  -1   0  209.58    8.10
  -3   1   0  216.28    8.50
  -3   1   0  218.38    8.50
  -3   1   0  213.28   12.40
   2  -1   0  270.77    8.70
   2  -1   0  264.47    8.70
  -2   1   0  278.27   11.50
  -2   1   0  267.67    8.60
  -2   1   0  271.77    8.70
   1  -1   0  779.42   20.00
   1  -1   0  788.92   18.40
   1  -1   0  754.42   18.40
  -1   1   0  776.22   18.30
  -1   1   0  787.62   19.90
  -1   1   0  772.42   18.40
  -1  -1   0 1088.09   24.40
  -1  -1   0 1024.10   24.50
  -1  -1   0 1028.70   24.40
  -1  -1   0 1069.19   24.80
   1   1   0 1059.29   24.20
   1   1   0 1054.49   24.50
   1   1   0 1012.40   24.40
   1   1   0 1097.89   25.00
  -2  -1   0  528.15   14.30
  -2  -1   0  519.25   14.40
  -2  -1   0  543.85   15.30
   2   1   0  512.05   14.90
   2   1   0  516.05   14.10
   2   1   0  522.95   15.20
   2   1   0  504.15   14.10
  -3  -1   0  726.43   19.90
  -3  -1   0  728.63   19.90
  -3  -1   0  713.63   21.30
   3   1   0  742.93   21.20
   3   1   0  732.53   21.40
   3   1   0  707.23   19.20
   3   1   0  699.83   19.50
  -4  -1   0  774.72   24.90
  -4  -1   0  784.42   22.80
  -4  -1   0  781.42   22.80
   4   1   0  782.12   21.90
   4   1   0  809.02   22.60
   4   1   0  844.92   25.30
  -5  -1   0  471.95   17.40
  -5  -1   0  469.15   19.60
  -5  -1   0  461.55   17.00
   5   1   0  506.45   20.00
  -6  -1   0    1.60    4.40
   6   1   0    0.80    3.10
  -7  -1   0    4.80    5.20
  -7  -1   0   25.10   11.80
   7   1   0   -0.30    4.00
   7  -2   0   -5.20    4.50
  -7   2   0   -3.30    5.20
  -7   2   0   -2.10   10.00
   6  -2   0    2.90    6.90
   6  -2   0   14.90    5.20
   6  -2   0    0.40    4.70
  -6   2   0   -5.20   10.80
  -6   2   0   11.70    5.20
  -6   2   0    5.10    5.30
   5  -2   0  119.79    8.60
   5  -2   0  121.69    8.70
   5  -2   0  116.29   11.00
  -5   2   0   93.69   14.10
  -5   2   0  110.59    8.70
  -5   2   0  117.59    9.00
   4  -2   0   -1.80    2.80
   4  -2   0   -1.40    2.70
   4  -2   0    0.90    2.60
  -4   2   0    4.10    3.50
  -4   2   0    0.30    5.90
  -4   2   0   -0.90    2.90
   3  -2   0  111.09    7.70
   3  -2   0  101.89    6.60
  -3   2   0  101.79    6.40
  -3   2   0  111.09    6.80
  -3   2   0  110.89   15.00
   2  -2   0  856.91   22.00
   2  -2   0  863.91   22.10
   2  -2   0  862.71   25.40
  -2   2   0  854.11   21.90
  -2   2   0  879.41   21.90
  -2   2   0  862.01   24.80
   1  -2   0 9322.67  200.88
   1  -2   0 9027.10  200.38
  -1   2   0 9546.24  200.58
  -1   2   0 9407.26  200.68
  -1  -2   0 1726.23   41.00
  -1  -2   0 1793.32   40.90
   1   2   0 1786.42   40.90
   1   2   0 1757.42   40.90
  -2  -2   0   56.79    4.60
  -2  -2   0   51.79    4.70
  -2  -2   0   54.29    4.80
   2   2   0   52.79    4.20
   2   2   0   59.09    5.00
   2   2   0   57.49    4.60
   2   2   0   57.39    4.50
  -3  -2   0   38.60    5.70
  -3  -2   0   34.30    4.50
  -3  -2   0   28.20    5.20
   3   2   0   37.50    4.60
   3   2   0   39.50    5.00
   3   2   0   35.80    4.40
   3   2   0   38.40    5.50
  -4  -2   0   -0.20    2.70
  -4  -2   0    4.90    3.30
  -4  -2   0    1.00    2.20
   4   2   0    2.40    2.30
   4   2   0    1.40    3.10
   4   2   0    2.60    3.00
   4   2   0    5.20    2.50
  -5  -2   0   26.70    5.10
  -5  -2   0   30.90    5.90
   5   2   0   36.50    5.20
   5   2   0   20.10    4.60
   5   2   0   27.70    5.00
  -6  -2   0    2.30    4.00
  -6  -2   0    3.90    4.60
   6   2   0    2.90    3.60
   7  -3   0    4.90    4.90
  -7   3   0    4.20   11.80
  -7   3   0   -4.60    5.50
   6  -3   0  284.17   14.10
   6  -3   0  269.27   17.90
  -6   3   0  251.97   21.10
  -6   3   0  250.77   13.80
  -6   3   0  262.47   14.10
   5  -3   0    7.70    3.90
   5  -3   0    8.90    3.90
  -5   3   0   12.90    4.40
  -5   3   0    6.00    8.30
  -5   3   0   12.70    4.30
  -5   3   0   26.30    8.10
   4  -3   0    7.20    3.80
   4  -3   0   10.50    4.20
  -4   3   0   11.20    4.00
  -4   3   0    8.30    6.90
  -4   3   0   15.30    3.90
   3  -3   0   18.50    4.00
   3  -3   0   22.10    7.00
   3  -3   0   31.90    4.80
  -3   3   0   24.20    4.40
  -3   3   0   21.50    4.20
  -3   3   0   31.00    7.70
   2  -3   0  567.74   20.00
   2  -3   0  572.44   17.00
   2  -3   0  593.04   17.60
  -2   3   0  596.04   17.10
  -2   3   0  583.24   17.00
  -2   3   0  570.14   19.70
   1  -3   0  477.25   16.60
   1  -3   0  464.25   14.70
   1  -3   0  453.55   14.10
  -1   3   0  474.15   16.70
  -1   3   0  474.45   14.40
  -1   3   0  470.85   14.20
   0  -3   0 1642.34   40.50
   0  -3   0 1652.23   40.10
   0  -3   0 1691.23   42.30
   0   3   0 1690.03   42.60
   0   3   0 1675.93   40.20
   0   3   0 1759.72   40.40
  -1  -3   0   42.30    6.10
  -1  -3   0   43.10    4.30
  -1  -3   0   45.60    4.90
   1   3   0   36.40    4.60
   1   3   0   42.30    4.40
  -2  -3   0    7.40    2.70
  -2  -3   0    3.10    2.80
   2   3   0    4.40    4.00
   2   3   0    2.00    1.70
   2   3   0    3.40    2.40
  -3  -3   0   34.20    5.10
  -3  -3   0   27.00    4.30
   3   3   0   31.30    4.90
   3   3   0   33.00    4.60
   3   3   0   32.80    4.40
  -4  -3   0   42.00    6.10
  -4  -3   0   41.20    6.00
   4   3   0   49.50    6.10
   4   3   0   44.10    6.10
   4   3   0   52.99    7.40
  -5  -3   0    5.40    4.10
  -5  -3   0   -1.50    3.10
   5   3   0    7.80    2.60
   5   3   0   -1.90    3.60
   5   3   0    1.80    3.70
  -6  -3   0   10.20    5.00
  -6  -3   0   -1.50    4.40
   6   3   0    5.90    4.00
   6  -4   0   -4.60    3.70
   6  -4   0   -5.20    5.10
  -6   4   0   20.40    6.00
  -6   4   0    0.10   10.50
  -6   4   0    2.20    4.90
   5  -4   0   19.10    5.30
   5  -4   0   17.70    5.80
   5  -4   0   12.40    4.20
  -5   4   0   17.90    5.20
  -5   4   0   18.30    5.20
  -5   4   0   21.30    9.90
   4  -4   0   35.80    8.80
   4  -4   0   22.60    5.30
   4  -4   0   25.80    5.40
  -4   4   0   23.40    8.80
  -4   4   0   18.90    4.80
  -4   4   0   22.10    5.00
   3  -4   0    2.00    3.20
   3  -4   0    2.70    5.80
   3  -4   0    2.70    4.00
  -3   4   0    2.90    3.20
  -3   4   0    5.00    6.10
  -3   4   0    0.60    2.90
   2  -4   0  407.16   15.30
   2  -4   0  422.56   18.60
   2  -4   0  383.76   14.40
  -2   4   0  402.26   18.20
  -2   4   0  401.16   14.70
  -2   4   0  434.26   14.80
   1  -4   0 2341.17   57.09
   1  -4   0 2351.56   58.89
  -1   4   0 2446.66   56.59
  -1   4   0 2396.86   59.69
  -1   4   0 2432.96   56.69
   0  -4   0  200.78    9.70
   0  -4   0  202.08    9.10
   0  -4   0  197.28   12.00
   0   4   0  195.58   11.80
   0   4   0  209.38    9.30
   0   4   0  206.88    9.40
  -1  -4   0  337.37   16.40
  -1  -4   0  357.66   13.20
  -1  -4   0  369.66   13.50
  -1  -4   0  364.66   15.90
   1   4   0  364.26   13.30
   1   4   0  365.66   13.50
  -2  -4   0   34.40    5.30
  -2  -4   0   35.00    5.40
  -2  -4   0   37.60    8.40
   2   4   0   23.50    4.30
   2   4   0   36.00    5.00
   2   4   0   28.50    4.70
  -3  -4   0   47.50    5.90
  -3  -4   0   49.60    6.50
  -3  -4   0   56.59    9.50
   3   4   0   43.10    6.20
   3   4   0   48.00    7.00
   3   4   0   47.90    6.20
  -4  -4   0   88.29   11.90
  -4  -4   0   79.29    8.30
  -4  -4   0   68.59    7.50
   4   4   0   72.29    8.20
   4   4   0   73.99    7.70
  -5  -4   0   31.70    5.80
  -5  -4   0   20.80    5.50
   5   4   0   19.60    3.80
   5   4   0   31.00    5.80
   5   4   0   17.50    4.20
  -6  -4   0    3.80    4.90
  -6  -4   0    9.90    4.80
   6   4   0    2.10    3.10
   6  -5   0   10.90    5.10
   6  -5   0   28.50    6.90
  -6   5   0   14.90   11.30
  -6   5   0   19.10    6.40
  -6   5   0   26.50    7.00
   5  -5   0    4.10    4.90
   5  -5   0    3.60    3.70
  -5   5   0   15.40    8.10
  -5   5   0   -1.50    4.30
  -5   5   0    1.40    8.30
  -5   5   0    1.80    5.00
   4  -5   0   -2.60    4.50
   4  -5   0   -5.10    3.80
  -4   5   0    0.10    4.00
  -4   5   0    5.40    4.30
  -4   5   0   -7.80    6.20
   3  -5   0   -2.90    3.50
   3  -5   0   -1.70    6.90
   3  -5   0    4.30    7.10
  -3   5   0    4.20    3.90
  -3   5   0    0.00    3.10
  -3   5   0    0.70    6.90
   2  -5   0  187.48   13.50
   2  -5   0  158.38   14.10
   2  -5   0  162.58    9.80
  -2   5   0  165.58   13.80
  -2   5   0  171.58   10.40
  -2   5   0  184.28   10.30
   1  -5   0   47.00    7.00
   1  -5   0   43.00    6.40
   1  -5   0   53.09   10.50
  -1   5   0   44.80    5.90
  -1   5   0   45.70    6.50
  -1   5   0   39.50    8.90
   0  -5   0   66.19    7.40
   0  -5   0   69.49    6.60
   0  -5   0   71.59   10.00
   0   5   0   69.09    9.80
   0   5   0   75.39    7.20
   0   5   0   67.69    8.20
  -1  -5   0  157.78    9.20
  -1  -5   0  139.89    9.30
  -1  -5   0  156.98   12.10
  -1  -5   0  153.98    9.90
   1   5   0  165.28    9.80
   1   5   0  149.79    9.40
  -2  -5   0   29.40    7.50
  -2  -5   0   50.09   10.20
  -2  -5   0   36.30    7.50
  -2  -5   0   45.30    6.80
   2   5   0   38.80    6.20
   2   5   0   33.80    5.70
   2   5   0   46.60    6.40
  -3  -5   0    2.40    3.20
  -3  -5   0    3.90    6.00
  -3  -5   0   21.80   15.80
   3   5   0    4.10    3.80
   3   5   0    1.90    2.40
   3   5   0    4.90    3.90
  -4  -5   0    2.00    3.70
  -4  -5   0   -2.80    3.80
   4   5   0   -0.10    4.60
   4   5   0    2.20    2.80
  -5  -5   0   13.20    4.80
  -5  -5   0   10.40    5.00
   5   5   0    6.90    5.00
   6  -6   0   12.50    6.80
  -6   6   0   26.90    7.70
  -6   6   0    1.80   10.20
   5  -6   0    6.70    4.20
   5  -6   0    1.10    4.90
  -5   6   0    1.10    5.10
  -5   6   0    2.00    8.80
  -5   6   0    5.60    5.80
   4  -6   0    1.20    4.90
  -4   6   0   -0.50    4.10
  -4   6   0    6.20    7.80
  -4   6   0    4.30    4.80
   3  -6   0   68.89   13.50
   3  -6   0   46.60    7.50
  -3   6   0   73.89    8.80
  -3   6   0   63.29   12.30
  -3   6   0   58.69    8.90
   2  -6   0   89.59   15.20
   2  -6   0   95.89    9.70
   2  -6   0   77.89    9.00
  -2   6   0   90.79    8.90
  -2   6   0   75.69   12.10
  -2   6   0   79.79    9.10
   1  -6   0    0.50    7.90
   1  -6   0    4.40    3.90
   1  -6   0    6.40    4.50
  -1   6   0    7.50    4.10
  -1   6   0    3.70    6.30
  -1   6   0    7.90    4.10
   0  -6   0   54.59    8.10
   0  -6   0   46.30    6.80
   0  -6   0   60.29   11.60
   0   6   0   52.99    7.50
   0   6   0   62.89    7.50
   0   6   0   59.19   10.90
  -1  -6   0  164.08   11.60
  -1  -6   0  170.58   10.80
  -1  -6   0  176.78   10.10
  -1  -6   0  179.88   14.80
   1   6   0  172.78   10.50
   1   6   0  185.68   11.00
  -2  -6   0    3.90    3.90
  -2  -6   0   -4.60    3.30
  -2  -6   0    0.60    4.30
  -2  -6   0   27.70   17.00
   2   6   0   -3.40    3.40
   2   6   0   -1.60    2.30
   2   6   0   -0.70    3.40
  -4  -6   0    2.60    4.30
  -4  -6   0   11.70    5.30
   4   6   0    6.20    3.40
  -5  -6   0    4.00    5.50
  -5  -6   0   11.10    5.30
   5   6   0    4.30    4.00
   5  -7   0    3.00    4.30
   5  -7   0   -6.20    5.70
  -5   7   0    6.40    6.60
  -5   7   0    3.40    9.10
  -5   7   0   -4.00    5.00
   4  -7   0   -5.00    5.30
  -4   7   0   -5.50    4.90
  -4   7   0   -3.00    4.00
  -4   7   0    1.10    7.40
   3  -7   0   19.70    6.70
  -3   7   0   35.20   10.00
  -3   7   0   32.10    6.50
  -3   7   0   35.80   10.00
   2  -7   0    4.70    5.10
   2  -7   0   -5.30   10.80
   2  -7   0   -6.00    4.30
  -2   7   0   -3.30    6.80
  -2   7   0   -0.70    3.80
  -2   7   0   -0.50    5.30
   1  -7   0   52.19   13.30
   1  -7   0   42.90   12.30
   1  -7   0   49.80    8.30
  -1   7   0   44.90   10.70
  -1   7   0   42.90   11.90
  -1   7   0   46.80    7.40
   0  -7   0   84.59    9.80
   0  -7   0   99.19   14.30
   0  -7   0   64.39    9.20
   0   7   0   84.99   12.50
   0   7   0   78.49    9.10
   0   7   0   64.69    9.10
  -1  -7   0   18.80    6.40
  -1  -7   0   15.80    5.10
   1   7   0   19.40    5.60
  -2  -7   0    1.50    4.10
  -2  -7   0   -6.10    4.10
  -2  -7   0   11.30    5.70
   2   7   0   -3.00    2.60
   2   7   0    7.40    4.50
  -3  -7   0   17.00    6.00
  -3  -7   0   10.40    6.00
  -3  -7   0   36.90   14.60
   3   7   0   20.30    6.10
   3   7   0   12.20    4.10
  -4  -7   0    5.70    4.60
  -4  -7   0  -12.40    5.60
   4   7   0   -0.70    2.80
   4   7   0   -0.80    6.00
  -5   8   0   21.20   11.00
   4  -8   0   -2.00    5.00
   4  -8   0    3.20    6.90
  -4   8   0   10.70    7.80
  -4   8   0    6.30    5.10
   3  -8   0    2.00    5.70
  -3   8   0   10.50    7.20
  -3   8   0    2.60    4.40
   2  -8   0    3.70    5.00
  -2   8   0    2.10    7.80
  -2   8   0    6.20    5.40
   1  -8   0   27.70    7.40
  -1   8   0   15.70    8.10
  -1   8   0   20.80    6.10
   0  -8   0   -8.80    5.00
   0  -8   0   -2.20    4.50
   0   8   0   -3.60    4.00
   0   8   0    4.20    7.10
  -1  -8   0   -7.30    4.30
  -1  -8   0    9.40    6.30
   1   8   0    2.10    4.70
  -2  -8   0   -6.20    5.20
  -2  -8   0   -1.70    4.30
  -2  -8   0   -4.40    6.80
   2   8   0   -3.20    2.90
   2   8   0   -2.80    4.40
  -3  -8   0    0.00    5.10
  -3  -8   0    7.20    9.60
  -3  -8   0   -1.30    6.00
   3   8   0   13.00    5.50
   3   8   0   -0.40    3.00
   3  -9   0    1.40    7.00
   3  -9   0   -1.90    3.70
  -3   9   0   -2.10    5.50
  -3   9   0   15.10    8.70
   2  -9   0    5.00    6.70
  -2   9   0   11.00    8.10
  -2   9   0   10.10    6.00
   1  -9   0   10.10    6.80
  -1   9   0   26.10    7.30
  -1   9   0   33.00   10.60
   0  -9   0   -0.40    5.70
   0   9   0    2.60    8.40
   0   9   0   -4.90    5.70
  -1  -9   0    8.20    5.70
   1   9   0    0.90    5.30
  -2  -9   0    9.90    5.90
   2   9   0    1.80    5.80
   2   9   0    1.00    3.30
   1 -10   0   -5.80    6.50
  -1  10   0   26.40    9.80
  -1  10   0   -1.10    6.20
   0  10  -1   -0.80    5.70
   0 -10   1   -2.90    5.90
  -1  10  -1   -1.50    5.70
  -1  10  -1   25.10    8.80
   1 -10   1   -0.20    6.60
   2   9  -1    2.90    6.10
   2   9  -1    1.20    3.60
  -2  -9   1    7.30    5.70
   1   9  -1    3.10    5.70
  -1  -9   1   -9.60    4.80
   0   9  -1    6.80    8.80
   0   9  -1   14.10    7.50
   0  -9   1    8.20    6.40
  -1   9  -1    3.10    5.20
  -1   9  -1   20.20    9.10
   1  -9   1    9.80    7.10
  -2   9  -1   13.20    8.00
  -2   9  -1    0.10    5.20
   2  -9   1   -5.00    6.20
   2  -9   1   -1.70    3.20
  -3   9  -1   -7.80    4.80
   3  -9   1    4.00    6.70
   3  -9   1   -2.00    3.80
   3   8  -1    4.10    5.50
   3   8  -1    0.00    3.90
  -3  -8   1    0.00    6.10
  -3  -8   1    5.70    5.70
   2   8  -1  -10.10    4.70
  -2  -8   1   11.10    7.40
  -2  -8   1    4.60    5.40
  -2  -8   1   -1.00    5.30
   1   8  -1    9.70    5.00
  -1  -8   1   -4.80    5.10
   0   8  -1   27.90   10.50
   0   8  -1   20.50    5.90
   0  -8   1   23.60    7.10
   0  -8   1   12.00    8.20
  -1   8  -1    0.40    4.30
  -1   8  -1    1.40    7.40
   1  -8   1   -8.70    5.00
  -2   8  -1   -6.50    3.90
  -2   8  -1    0.60   14.20
   2  -8   1    1.00    5.40
  -3   8  -1    5.70    7.80
  -3   8  -1    3.70    4.60
   3  -8   1    4.60    6.10
   3  -8   1   -3.00    3.20
  -4   8  -1    4.30    4.80
  -4   8  -1   16.40    7.80
   4  -8   1   -4.70    4.90
   4  -8   1  -11.80    6.10
  -4  -7   1   -8.30    5.20
  -4  -7   1   10.00    4.80
   3   7  -1   41.90    7.60
  -3  -7   1   23.70    6.70
  -3  -7   1   45.70   10.30
  -3  -7   1   35.00    7.20
   2   7  -1    9.60    4.80
   2   7  -1    2.60    2.80
  -2  -7   1   -4.20    4.10
  -2  -7   1    0.20    4.30
  -2  -7   1    9.80    5.50
   1   7  -1   18.60    5.50
  -1  -7   1    9.60    4.80
   0   7  -1  158.28   15.00
   0   7  -1  159.18   11.70
   0   7  -1  160.18   11.30
   0  -7   1  172.38   12.40
   0  -7   1  124.59   10.50
   0  -7   1  154.48   16.00
  -1   7  -1    1.60    6.30
  -1   7  -1    2.70    4.00
  -1   7  -1   -1.80    4.30
   1  -7   1    0.60    4.20
   1  -7   1   -6.40    9.40
   1  -7   1   -2.40    4.10
  -2   7  -1    8.20    4.50
  -2   7  -1   -0.40    4.20
  -2   7  -1   -0.90    6.70
   2  -7   1   -5.80    3.80
   2  -7   1   -3.60    3.70
  -3   7  -1    4.70    7.90
  -3   7  -1    5.00    4.20
  -3   7  -1    6.60    5.50
   3  -7   1    8.30    5.40
  -4   7  -1    4.30    8.10
  -4   7  -1   -4.60    5.60
  -4   7  -1    0.30    4.50
   4  -7   1    0.40    5.30
   4  -7   1    2.30    4.20
  -5   7  -1   17.00    7.70
  -5   7  -1   -1.40    5.00
  -5   7  -1   -2.10    8.60
   5  -7   1    3.20    6.10
   5  -7   1    5.20    4.90
  -5  -6   1    7.50    5.80
  -5  -6   1    8.30    4.70
   4   6  -1   -4.70    2.60
   4   6  -1   -5.10    4.50
  -4  -6   1    1.50    4.30
  -4  -6   1   -0.30    4.40
   3   6  -1    0.30    2.10
   3   6  -1   -4.10    4.10
  -3  -6   1    2.80    4.40
  -3  -6   1   -2.70    3.50
  -3  -6   1    3.00    6.10
   2   6  -1    6.60    6.00
   2   6  -1    3.10    4.00
   2   6  -1    2.20    2.30
  -2  -6   1    4.10    3.60
  -2  -6   1   -1.80    3.30
  -2  -6   1    3.30    9.20
  -2  -6   1    6.70    4.30
   1   6  -1   40.40    6.50
   1   6  -1   41.20    6.90
  -1  -6   1   32.80    6.10
  -1  -6   1   41.50    9.40
  -1  -6   1   40.60    7.30
   0   6  -1  163.28   14.10
   0   6  -1  160.28   10.50
   0   6  -1  149.88   10.40
   0  -6   1  158.48   10.20
   0  -6   1  169.28   11.30
   0  -6   1  165.28   14.30
  -1   6  -1    6.50    3.40
  -1   6  -1   -6.40    4.80
  -1   6  -1    7.50    4.00
   1  -6   1    2.30    3.70
   1  -6   1    5.40    4.00
   1  -6   1   -4.30    7.20
  -2   6  -1   21.70    5.40
  -2   6  -1   28.30    8.90
  -2   6  -1   16.60    4.50
   2  -6   1   22.50   10.20
   2  -6   1   17.40    5.20
   2  -6   1   13.40    4.40
  -3   6  -1   16.60    5.30
  -3   6  -1   16.10    8.40
  -3   6  -1   17.80    5.20
   3  -6   1   23.50    6.20
  -4   6  -1    9.50    4.90
  -4   6  -1    8.50    4.80
  -4   6  -1    7.10    8.30
   4  -6   1    5.40    4.80
   4  -6   1    4.80    3.40
  -5   6  -1    8.50    5.70
  -5   6  -1    7.80    5.20
  -5   6  -1   11.90    9.60
   5  -6   1    7.10    4.40
   5  -6   1   19.20    6.60
  -6   6  -1   16.80    6.90
  -6   6  -1   -3.00    5.20
  -6   6  -1   -5.50    8.40
   6  -6   1   -8.70    4.40
   6  -6   1   -1.00    6.30
   5   5  -1   10.60    4.50
  -5  -5   1   10.70    4.70
  -5  -5   1   10.30    5.20
   4   5  -1   21.70    4.10
   4   5  -1   36.70    7.00
  -4  -5   1   34.20    7.00
  -4  -5   1   50.59    7.40
   3   5  -1    4.00    4.40
   3   5  -1    3.60    2.70
   3   5  -1   14.30    4.60
  -3  -5   1    6.00    3.90
  -3  -5   1    6.90    5.90
  -3  -5   1   19.00   16.50
  -3  -5   1    9.50    4.20
   2   5  -1  146.69    9.20
   2   5  -1  146.29    9.40
   2   5  -1  140.69    9.30
  -2  -5   1  150.18   10.30
  -2  -5   1  146.09   10.60
  -2  -5   1  153.98   13.60
  -2  -5   1  143.89    9.30
   1   5  -1  549.45   18.80
   1   5  -1  534.05   18.50
  -1  -5   1  530.35   18.50
  -1  -5   1  535.25   18.00
  -1  -5   1  548.95   21.50
  -1  -5   1  531.45   19.40
   0   5  -1  179.68   12.90
   0   5  -1  170.78    9.80
   0   5  -1  190.28   10.80
   0  -5   1  175.38   10.10
   0  -5   1  180.78    9.70
   0  -5   1  193.08   13.10
  -1   5  -1    6.50    6.00
  -1   5  -1   13.70    4.00
  -1   5  -1   13.60    3.80
   1  -5   1   14.70    6.40
   1  -5   1   18.40    4.40
   1  -5   1    9.10    7.30
  -2   5  -1   68.59    7.30
  -2   5  -1   75.59    7.40
  -2   5  -1   64.39   11.10
   2  -5   1   73.59    6.90
   2  -5   1   84.59   11.80
   2  -5   1   76.39    7.90
  -3   5  -1    1.30    3.50
  -3   5  -1    3.10    3.50
  -3   5  -1    0.30    6.60
   3  -5   1    4.10    3.80
   3  -5   1    3.30    4.00
   3  -5   1   -2.20    7.00
  -4   5  -1    1.50    4.10
  -4   5  -1    0.40    3.90
  -4   5  -1   -1.50    7.20
   4  -5   1    1.00    3.00
   4  -5   1   -2.10    4.40
   4  -5   1    1.60    3.90
  -5   5  -1   -5.50    3.80
  -5   5  -1   -5.70    4.40
  -5   5  -1   26.20    8.10
  -5   5  -1    4.90   14.00
   5  -5   1    5.30    4.00
   5  -5   1   -7.80    4.50
  -6   5  -1   -3.20    8.80
  -6   5  -1   12.20    6.00
  -6   5  -1   23.90    6.50
   6  -5   1   10.00    5.40
   6  -5   1   14.50    6.30
   6   4  -1    8.50    3.60
  -6  -4   1   12.20    5.50
  -6  -4   1    8.30    5.40
   5   4  -1   15.60    3.60
   5   4  -1   16.10    3.60
   5   4  -1   28.70    5.50
  -5  -4   1   21.30    5.50
  -5  -4   1   27.50    9.50
   4   4  -1    0.10    2.20
   4   4  -1   -0.70    1.80
  -4  -4   1    3.40    3.70
  -4  -4   1    2.00    3.40
   3   4  -1    3.40    3.40
   3   4  -1    0.90    2.10
   3   4  -1    3.80    3.30
  -3  -4   1   10.40    4.10
  -3  -4   1    5.30    3.30
   2   4  -1  404.26   14.80
   2   4  -1  431.66   14.80
   2   4  -1  417.26   15.20
  -2  -4   1  391.16   18.50
  -2  -4   1  408.76   15.00
  -2  -4   1  412.66   15.50
   1   4  -1 1029.00   28.20
   1   4  -1 1046.90   28.30
  -1  -4   1 1040.70   28.10
  -1  -4   1 1038.80   30.20
  -1  -4   1 1012.20   31.00
   0   4  -1  119.49    7.30
   0   4  -1  116.29    9.50
   0   4  -1  131.09    7.40
   0  -4   1  123.49    7.10
   0  -4   1  124.19    7.90
   0  -4   1  108.39   10.40
  -1   4  -1  202.88   12.20
  -1   4  -1  204.88    9.20
  -1   4  -1  204.98    9.70
   1  -4   1  205.88   10.20
   1  -4   1  189.58   13.30
   1  -4   1  203.28   15.20
  -2   4  -1  416.66   18.00
  -2   4  -1  447.96   15.00
  -2   4  -1  431.96   15.00
   2  -4   1  453.75   15.70
   2  -4   1  415.66   14.60
   2  -4   1  420.16   18.40
  -3   4  -1   41.50    5.60
  -3   4  -1   42.50    6.40
  -3   4  -1   48.00    9.60
   3  -4   1   53.89    6.50
   3  -4   1   45.90    6.70
   3  -4   1   50.99    9.80
  -4   4  -1    0.50    3.50
  -4   4  -1    4.80    7.80
  -4   4  -1    0.70    3.60
  -4   4  -1    5.60    7.50
   4  -4   1    5.40    4.10
   4  -4   1   12.00    7.90
   4  -4   1   -1.00    3.70
   4  -4   1    5.30    3.30
  -5   4  -1   17.00    5.00
  -5   4  -1   25.00    5.40
  -5   4  -1   13.70    9.70
   5  -4   1   28.30    5.50
   5  -4   1   22.90    5.30
   5  -4   1   18.20    4.60
  -6   4  -1   22.10    7.30
  -6   4  -1    2.00    4.70
  -6   4  -1   -9.50   10.20
   6  -4   1   -2.60    4.60
   6  -4   1    0.60    4.70
   6   3  -1    6.50    4.80
   6   3  -1    6.30    3.50
  -6  -3   1    0.80    4.40
  -6  -3   1    9.20    5.20
   5   3  -1    8.20    4.10
   5   3  -1    2.30    3.00
   5   3  -1   -2.10    4.00
  -5  -3   1    3.10    4.30
  -5  -3   1   -5.90    3.60
   4   3  -1   59.39    6.70
   4   3  -1   45.90    6.60
   4   3  -1   54.99    6.70
   4   3  -1   52.59    6.30
  -4  -3   1   54.39    6.80
  -4  -3   1   60.39    6.80
   3   3  -1   39.10    5.60
   3   3  -1   43.30    5.50
   3   3  -1   39.80    5.30
   3   3  -1   39.50    4.60
  -3  -3   1   40.90    5.60
  -3  -3   1   44.80    5.50
   2   3  -1  355.76   12.90
   2   3  -1  360.06   12.60
   2   3  -1  353.86   13.50
  -2  -3   1  363.06   13.00
  -2  -3   1  361.76   13.40
   1   3  -1  203.48    8.50
   1   3  -1  201.28    8.60
  -1  -3   1  190.98   10.30
  -1  -3   1  198.68    8.40
  -1  -3   1  201.38    8.90
   0   3  -1  832.12   22.20
   0   3  -1  828.02   24.50
   0   3  -1  847.22   22.30
   0  -3   1  849.02   24.30
   0  -3   1  830.62   22.20
   0  -3   1  839.22   22.70
  -1   3  -1 1258.17   30.40
  -1   3  -1 1259.67   30.60
  -1   3  -1 1253.87   33.20
   1  -3   1 1167.48   30.10
   1  -3   1 1184.38   30.70
   1  -3   1 1250.77   33.10
  -2   3  -1  146.29    7.40
  -2   3  -1  135.79   10.00
  -2   3  -1  145.49    7.20
   2  -3   1  148.09    7.60
   2  -3   1  142.59    7.20
   2  -3   1  148.09   10.40
  -3   3  -1   30.10    4.50
  -3   3  -1   37.10    8.10
  -3   3  -1   30.10    5.60
  -3   3  -1   27.20    4.30
   3  -3   1   25.20    4.20
   3  -3   1   30.80    7.60
   3  -3   1   26.70    4.30
  -4   3  -1   -4.10    2.80
  -4   3  -1    3.10    3.00
  -4   3  -1   -1.20    4.80
  -4   3  -1    0.70    6.30
   4  -3   1    2.40    3.60
   4  -3   1   -2.20    1.90
   4  -3   1    0.00    3.10
  -5   3  -1   65.89    7.90
  -5   3  -1   61.49   12.80
  -5   3  -1   65.79    7.80
  -5   3  -1   92.89   10.90
   5  -3   1   61.59    9.10
   5  -3   1   85.59    8.00
   5  -3   1   63.39    8.00
  -6   3  -1  113.49    9.80
  -6   3  -1   72.49   15.90
  -6   3  -1   93.29    9.50
  -7   3  -1   16.40   12.50
   7   2  -1   -1.50    4.10
  -7  -2   1   19.90    6.20
   6   2  -1   27.70    5.60
   6   2  -1   13.90    4.70
  -6  -2   1   19.90    5.80
  -6  -2   1   22.90    5.10
   5   2  -1    7.10    4.10
   5   2  -1   11.10    4.40
   5   2  -1    7.10    3.10
  -5  -2   1   -1.10    2.40
  -5  -2   1    4.30    4.00
  -5  -2   1   15.50    4.90
   4   2  -1   50.59    5.90
   4   2  -1   51.09    8.20
   4   2  -1   47.40    5.90
  -4  -2   1   52.69    6.10
  -4  -2   1   44.70    6.20
  -4  -2   1   49.50    6.40
   3   2  -1  265.67   10.40
   3   2  -1  253.17   10.30
   3   2  -1  253.87   10.80
   3   2  -1  246.98   10.30
  -3  -2   1  262.47   10.70
  -3  -2   1  259.37   10.80
  -3  -2   1  275.77   13.50
   2   2  -1  394.86   12.60
   2   2  -1  381.36   12.10
   2   2  -1  363.56   11.30
   2   2  -1  359.56   12.20
  -2  -2   1  379.96   12.60
  -2  -2   1  381.66   12.20
   1   2  -1  110.89    5.50
   1   2  -1  102.89    5.40
  -1  -2   1  108.39    5.50
  -1  -2   1  100.59    5.70
  -1  -2   1  103.39    7.10
   0   2  -1 1573.64   35.80
   0   2  -1 1512.95   35.80
   0   2  -1 1544.85   37.30
   0  -2   1 1468.85   35.50
   0  -2   1 1558.14   37.20
   0  -2   1 1549.74   36.00
  -1   2  -1 3416.86   74.29
  -1   2  -1 3378.06   76.19
  -1   2  -1 3365.96   74.09
   1  -2   1 3366.76   76.29
   1  -2   1 3338.37   74.49
   1  -2   1 3293.47   74.09
  -2   2  -1   17.90    3.80
  -2   2  -1   29.10    5.80
  -2   2  -1   27.20    3.90
  -2   2  -1   24.10    3.30
   2  -2   1   22.30    3.30
   2  -2   1   23.80    5.30
   2  -2   1   20.60    3.10
  -3   2  -1  194.48    8.20
  -3   2  -1  211.38    8.40
   3  -2   1  189.58    9.80
   3  -2   1  196.58   11.30
   3  -2   1  198.38    8.40
  -4   2  -1   -0.60    3.00
  -4   2  -1    0.70    5.00
  -4   2  -1   10.00    6.70
  -4   2  -1    2.40    2.90
   4  -2   1    1.00    2.30
   4  -2   1    0.70    2.80
   4  -2   1    3.10    2.80
  -5   2  -1    7.50    4.10
  -5   2  -1    0.80    2.80
  -5   2  -1    4.20    9.80
  -5   2  -1   21.20    7.40
  -5   2  -1    6.40    3.70
   5  -2   1    5.20    3.90
   5  -2   1    2.10    3.30
  -6   2  -1   -5.60    9.00
  -6   2  -1    7.30    4.30
  -6   2  -1    2.70    4.60
   6  -2   1   -2.90    3.20
  -7   2  -1    5.00   10.70
   7  -2   1    5.20    4.50
  -7  -1   1    3.50    6.10
  -7  -1   1   17.80    5.20
  -7  -1   1   26.50   11.00
   6   1  -1   -4.50    4.10
   6   1  -1   -2.40    3.00
  -6  -1   1    0.40    4.30
  -6  -1   1   -6.80    3.70
   5   1  -1   38.60    5.80
   5   1  -1   64.49    7.10
   5   1  -1   60.29    7.50
  -5  -1   1   53.79    7.00
  -5  -1   1   46.10    6.70
  -5  -1   1   30.30    4.80
   4   1  -1   10.50    3.60
   4   1  -1    7.80    3.60
   4   1  -1    8.40    3.10
  -4  -1   1    9.00    3.60
  -4  -1   1    4.80    2.30
  -4  -1   1    5.40    3.40
   3   1  -1   17.40    3.40
   3   1  -1    8.70    2.60
   3   1  -1   20.70    3.50
  -3  -1   1   16.10    3.40
  -3  -1   1   16.20    3.50
   2   1  -1  170.98    7.00
   2   1  -1  161.48    6.90
   2   1  -1  166.38    6.90
   2   1  -1  162.58    6.80
  -2  -1   1  172.38    6.90
  -2  -1   1  167.98    7.10
  -2  -1   1  168.18    7.00
   1   1  -1 1936.81   43.00
   1   1  -1 1862.31   42.90
   1   1  -1 1927.71   42.30
  -1  -1   1 1855.91   42.90
  -1  -1   1 1912.61   42.90
  -1  -1   1 1916.71   42.20
   0  -1   1   47.00    2.90
  -1   1  -1 3858.11   83.99
  -1   1  -1 3683.03   82.89
  -1   1  -1 3870.31   81.99
  -1   1  -1 3702.93   81.99
   1  -1   1 3772.22   83.99
   1  -1   1 3917.01   81.99
   1  -1   1 3747.12   82.09
   1  -1   1 3797.32   83.39
  -2   1  -1  320.87   12.60
  -2   1  -1  318.97    9.30
  -2   1  -1  328.87    9.40
   2  -1   1  321.97   11.60
   2  -1   1  325.77    9.40
   2  -1   1  314.67    9.40
  -3   1  -1   66.39    4.90
  -3   1  -1   74.09    8.80
  -3   1  -1   72.49    5.10
  -3   1  -1   77.69    8.00
   3  -1   1   70.09    4.80
   3  -1   1   74.09    6.50
   3  -1   1   67.79    4.70
  -4   1  -1    3.70    2.80
  -4   1  -1    5.00    6.60
  -4   1  -1    3.40    2.50
  -4   1  -1    5.10    3.20
   4  -1   1    1.30    2.60
   4  -1   1    4.30    2.70
   4  -1   1    3.80    2.50
  -5   1  -1  897.11   26.00
  -5   1  -1  966.20   33.70
  -5   1  -1  905.41   35.00
  -5   1  -1  911.91   25.80
   5  -1   1  924.21   31.10
  -6   1  -1   10.40    4.80
  -6   1  -1    4.00   16.20
   6  -1   1    3.30    4.10
  -7   1  -1   -0.50   10.50
   7  -1   1    6.00    5.10
   7   0  -1    1.50    4.30
  -7   0   1   -3.80    4.90
  -7   0   1    7.20    4.90
  -7   0   1   17.90   12.20
   6   0  -1   -4.80    4.40
   6   0  -1    7.20    5.10
   6   0  -1    0.50    3.30
  -6   0   1   -3.80    4.70
  -6   0   1   11.30    4.90
   5   0  -1   10.90    3.90
   5   0  -1    4.80    3.50
   5   0  -1    3.00    3.20
  -5   0   1   -4.20    7.50
  -5   0   1    4.70    4.10
  -5   0   1    1.00    2.90
  -5   0   1    4.00    3.50
   4   0  -1   -1.00    2.20
   4   0  -1    2.10    3.00
   4   0  -1    1.20    2.90
  -4   0   1   -1.60    1.80
  -4   0   1    0.90    3.20
   3   0  -1  297.67   10.40
   3   0  -1  291.77   10.50
  -3   0   1  304.87   11.60
  -3   0   1  306.47   10.80
  -3   0   1  306.17   10.90
   2   0  -1 2078.99   47.40
   2   0  -1 2067.49   47.20
  -2   0   1 2072.89   47.30
  -2   0   1 2069.89   47.60
  -2   0   1 2088.19   47.30
  -1   0   1 9999.00  228.18
  -1   0  -1 5302.17  118.09
  -1   0  -1 5517.25  117.29
  -1   0  -1 5394.16  117.49
   1   0   1 5463.25  117.19
   1   0   1 5401.96  117.39
  -2   0  -1  367.76   10.00
  -2   0  -1  368.56   12.10
   2   0   1  373.56   12.40
  -3   0  -1    2.50    2.20
   3   0   1    2.60    1.80
  -4   0  -1  143.89    7.50
  -4   0  -1  132.49    9.40
   4   0   1  143.69   10.00
  -5   0  -1   94.19   11.60
  -5   0  -1   55.29    6.60
  -5   0  -1   79.49   15.10
   5   0   1   84.49   10.00
  -6   0  -1   10.40   13.20
   6   0   1    7.50    4.00
  -7   0  -1   -6.10    9.60
   7   0   1   -2.50    3.80
   7  -1  -1   -3.80    3.70
  -7   1   1   -8.30    4.60
  -7   1   1    2.50    5.60
  -7   1   1    1.40   10.60
   6  -1  -1   88.09   11.70
   6  -1  -1   84.49    9.40
   6  -1  -1   79.29   12.10
  -6   1   1  100.99   26.30
  -6   1   1   93.19   10.20
   5  -1  -1  175.78   10.20
   5  -1  -1  180.38   10.20
   5  -1  -1  191.38   13.10
  -5   1   1  152.28   11.60
  -5   1   1  195.98   10.90
  -5   1   1  200.58   10.90
  -5   1   1  183.38   16.40
   4  -1  -1  315.97   12.20
   4  -1  -1  314.97   12.30
  -4   1   1  311.37   12.30
  -4   1   1  317.77   12.40
  -4   1   1  298.37   17.20
  -4   1   1  300.57   13.20
   3  -1  -1  330.17   11.30
   3  -1  -1  321.87   11.30
  -3   1   1  330.67   11.40
  -3   1   1  334.67   11.40
  -3   1   1  317.77   15.10
   2  -1  -1  292.67    9.70
   2  -1  -1  304.07    9.80
  -2   1   1  302.57   12.20
  -2   1   1  301.67    9.70
  -2   1   1  307.87    9.70
   1  -1  -1  162.28    5.80
   1  -1  -1  169.18    7.00
   1  -1  -1  162.98    6.00
  -1   1   1  161.68    5.90
  -1   1   1  166.08    5.80
  -1   1   1  166.58    6.90
   0  -1  -1   53.09    3.00
   0  -1  -1   47.00    2.70
   0   1   1   50.09    3.10
   0   1   1   53.99    2.70
   0   1   1   45.20    3.20
  -1  -1  -1 1009.10   24.00
  -1  -1  -1  994.40   25.30
  -1  -1  -1 1008.70   22.80
  -1  -1  -1  978.10   23.40
  -1  -1  -1  961.40   22.80
   1   1   1  976.80   22.70
   1   1   1  973.00   23.40
   1   1   1 1003.80   24.10
   1   1   1  999.90   22.80
  -2  -1  -1 1240.28   31.00
  -2  -1  -1 1277.17   30.80
  -2  -1  -1 1198.78   28.90
  -2  -1  -1 1222.18   28.90
   2   1   1 1235.98   30.90
   2   1   1 1277.37   30.60
   2   1   1 1172.58   28.60
  -3  -1  -1    0.90    1.90
  -3  -1  -1    1.50    2.20
  -3  -1  -1    2.80    2.00
   3   1   1    2.50    1.90
   3   1   1   -1.30    1.80
  -4  -1  -1  150.08   12.00
  -4  -1  -1  139.79    7.50
  -4  -1  -1  129.89    9.80
  -4  -1  -1  139.89    8.00
   4   1   1  135.89   10.20
  -5  -1  -1  580.84   19.00
  -5  -1  -1  526.15   30.00
  -5  -1  -1  573.64   33.50
   5   1   1  617.94   22.70
   6   1   1    2.00    3.70
  -7  -1  -1   12.90   10.70
   7   1   1    2.20    4.20
   7  -2  -1    2.10    4.60
   7  -2  -1   -0.60    6.10
  -7   2   1    6.10    5.80
  -7   2   1   -4.00    9.90
   6  -2  -1   20.50    5.90
   6  -2  -1   19.50    7.00
  -6   2   1   23.60    6.40
  -6   2   1   13.50   13.40
  -6   2   1    5.20    5.90
   5  -2  -1    2.80    3.40
   5  -2  -1    5.10    3.90
   5  -2  -1    6.10    4.20
  -5   2   1    3.80    4.30
  -5   2   1    8.00    4.20
  -5   2   1   -2.60    7.10
   4  -2  -1   25.90    4.90
   4  -2  -1   12.30    3.90
  -4   2   1   18.40    4.40
  -4   2   1   16.60    4.30
  -4   2   1   13.20    7.10
   3  -2  -1  179.78    8.70
   3  -2  -1  181.08    8.50
  -3   2   1  172.78    8.40
  -3   2   1  173.18   13.20
  -3   2   1  187.28    8.60
   2  -2  -1  183.58    7.70
   2  -2  -1  182.08    8.10
   2  -2  -1  177.88   10.00
  -2   2   1  193.38    7.80
  -2   2   1  192.38    9.90
  -2   2   1  191.48    7.90
   0  -2  -1 6184.98  134.09
   0  -2  -1 6196.38  135.09
   0  -2  -1 6205.18  134.79
   0  -2  -1 6252.97  136.19
   0   2   1 6337.17  134.89
   0   2   1 6107.79  136.29
   0   2   1 6300.97  134.79
  -1  -2  -1   17.70    3.60
  -1  -2  -1   19.10    2.60
  -1  -2  -1   17.00    2.50
  -1  -2  -1   18.30    2.90
   1   2   1   20.40    2.70
   1   2   1   16.90    2.60
   1   2   1   14.70    2.20
  -2  -2  -1  296.57   10.10
  -2  -2  -1  294.37   10.90
  -2  -2  -1  288.77    9.90
  -2  -2  -1  291.27    9.60
  -2  -2  -1  274.07   12.30
   2   2   1  278.27    9.50
   2   2   1  280.57    9.80
   2   2   1  285.27   10.90
   2   2   1  274.07    9.40
  -3  -2  -1  164.28    9.00
  -3  -2  -1  164.58   10.90
  -3  -2  -1  159.28    7.90
  -3  -2  -1  163.48    7.60
   3   2   1  152.38    7.30
   3   2   1  166.68    8.70
   3   2   1  166.68   12.50
  -4  -2  -1   76.59    6.80
  -4  -2  -1   74.29    7.60
  -4  -2  -1   96.19   10.60
  -4  -2  -1   78.69    8.40
   4   2   1  104.79    8.60
   4   2   1   82.69    8.90
  -5  -2  -1  130.89   11.30
  -5  -2  -1  145.79    9.30
   5   2   1  185.28   11.90
   6   2   1    4.30    3.80
   7  -3  -1   11.80    5.10
   7  -3  -1   28.60    8.30
  -7   3   1   23.30    6.90
  -7   3   1   23.00   12.60
   6  -3  -1   20.10    5.90
   6  -3  -1   11.40    5.00
  -6   3   1   15.70    9.40
  -6   3   1   13.20    5.50
   5  -3  -1    7.80    4.30
   5  -3  -1   17.30    5.00
  -5   3   1   19.30    8.90
  -5   3   1   13.60    4.90
  -5   3   1   15.40    4.80
   4  -3  -1   10.40    4.10
   4  -3  -1    8.20    3.60
  -4   3   1    6.30    6.70
  -4   3   1    9.10    4.00
  -4   3   1   10.50    4.20
   3  -3  -1    1.90    3.00
   3  -3  -1   -2.80    2.90
   3  -3  -1    4.80    5.80
  -3   3   1    7.90    5.80
  -3   3   1    0.80    3.10
  -3   3   1    0.90    2.80
   2  -3  -1   57.59    6.20
   2  -3  -1   63.09    7.80
   2  -3  -1   67.39    6.00
  -2   3   1   61.99    8.00
  -2   3   1   64.79    5.70
  -2   3   1   76.39    6.00
   1  -3  -1   51.19    6.90
   1  -3  -1   46.40    4.70
   1  -3  -1   46.40    5.40
  -1   3   1   45.30    4.90
  -1   3   1   42.70    7.10
  -1   3   1   45.20    4.90
   0  -3  -1  304.77   10.50
   0  -3  -1  308.97   12.50
   0  -3  -1  302.97   10.90
   0   3   1  314.47   10.50
   0   3   1  302.87   10.70
   0   3   1  309.67   12.60
  -1  -3  -1   92.99    7.70
  -1  -3  -1  100.49    6.70
  -1  -3  -1   98.29    5.90
  -1  -3  -1  104.99    6.20
   1   3   1   99.89    6.00
   1   3   1  105.99    6.10
  -2  -3  -1  265.27    9.40
  -2  -3  -1  252.97   10.00
  -2  -3  -1  243.48   12.30
  -2  -3  -1  250.97   10.40
   2   3   1  262.87   10.10
   2   3   1  267.27   11.10
   2   3   1  262.97   12.80
  -3  -3  -1  888.71   24.50
  -3  -3  -1  882.31   25.10
  -3  -3  -1  873.71   29.50
   3   3   1  887.11   26.50
   3   3   1  868.91   24.30
   3   3   1  876.11   24.10
   3   3   1  880.01   24.10
  -4  -3  -1 1260.27   40.70
  -4  -3  -1 1250.57   34.30
  -4  -3  -1 1242.98   33.80
   4   3   1 1216.18   32.90
   4   3   1 1346.07   34.80
   4   3   1 1226.48   32.80
   4   3   1 1233.18   36.60
  -5  -3  -1   -3.50    2.90
  -5  -3  -1    3.30    3.70
   5   3   1   -1.60    2.60
   5   3   1    1.60    2.80
   6   3   1    9.10    4.20
  -7   4   1   -0.40    6.10
   6  -4  -1   26.30    9.10
   6  -4  -1   15.30    5.30
  -6   4   1   19.60    6.00
  -6   4   1   18.60    6.00
  -6   4   1   11.10    9.90
   5  -4  -1   -3.40    4.20
  -5   4   1   10.50    4.70
  -5   4   1    1.80    8.20
  -5   4   1    1.50    4.80
   4  -4  -1    5.40    6.70
   4  -4  -1    4.40    3.70
   4  -4  -1   -3.10    3.80
  -4   4   1    4.40    3.60
  -4   4   1    3.90    3.30
  -4   4   1    2.80    6.30
   3  -4  -1   13.60    4.50
   3  -4  -1   19.80    7.90
   3  -4  -1   16.70    4.20
  -3   4   1   15.20    7.10
  -3   4   1   20.40    4.50
  -3   4   1   16.70    5.30
   2  -4  -1 2949.41   69.19
   2  -4  -1 2838.02   68.39
   2  -4  -1 2860.41   72.29
  -2   4   1 3027.30   68.59
  -2   4   1 2862.01   68.29
  -2   4   1 3005.30   75.69
   1  -4  -1 3103.69   73.09
   1  -4  -1 3287.57   79.39
   1  -4  -1 3206.58   73.79
  -1   4   1 3025.90   75.59
  -1   4   1 3135.69   72.99
  -1   4   1 3209.88   72.99
   0  -4  -1    0.90    2.40
   0  -4  -1   -8.10    4.70
   0  -4  -1    4.30    2.80
   0   4   1    6.50    2.80
   0   4   1   -6.20    4.40
  -1  -4  -1    6.70    4.50
  -1  -4  -1    8.00    5.40
  -1  -4  -1    3.80    2.80
  -1  -4  -1   11.00    3.60
   1   4   1    3.20    3.10
   1   4   1    5.20    2.90
  -2  -4  -1   95.49   10.00
  -2  -4  -1   90.29    6.70
  -2  -4  -1   87.79    8.70
  -2  -4  -1   95.49    7.50
   2   4   1   96.09    7.00
   2   4   1   96.39    7.60
   2   4   1   92.79    6.80
  -3  -4  -1   14.80    4.00
  -3  -4  -1   10.40    4.10
  -3  -4  -1   12.60    6.20
   3   4   1   12.60    3.80
   3   4   1   11.50    3.80
   3   4   1   10.70    3.20
  -4  -4  -1   23.10    5.30
  -4  -4  -1   22.60    5.00
   4   4   1   36.80    5.50
  -5  -4  -1   35.00    6.20
  -5  -4  -1   32.40    5.90
   5   4   1   26.90    6.60
  -6  -4  -1   44.00    7.10
  -6  -4  -1   24.20    6.50
   6  -5  -1    3.60    6.80
   6  -5  -1    0.70    4.10
  -6   5   1   18.90    6.50
  -6   5   1   -7.70    7.90
  -6   5   1    1.30    5.10
   5  -5  -1    1.10    5.10
  -5   5   1    7.90    8.90
  -5   5   1    2.60    5.10
   4  -5  -1    0.90    4.00
   4  -5  -1   -9.30    8.80
   4  -5  -1   -2.00    4.60
  -4   5   1   -0.40    7.10
  -4   5   1    0.30    4.00
  -4   5   1    0.90    4.00
   3  -5  -1   23.40    5.10
   3  -5  -1   33.80   10.00
   3  -5  -1   37.30    6.40
  -3   5   1   25.00    8.50
  -3   5   1   31.50    5.70
  -3   5   1   34.50    5.60
   2  -5  -1   64.39   12.10
   2  -5  -1   68.29    8.60
   2  -5  -1   61.19    7.50
  -2   5   1   72.09    7.70
  -2   5   1   69.89   11.10
  -2   5   1   66.99    7.50
   1  -5  -1  384.36   15.10
   1  -5  -1  412.56   15.90
   1  -5  -1  416.96   19.20
  -1   5   1  407.26   15.30
  -1   5   1  384.06   18.10
  -1   5   1  427.66   15.50
   0  -5  -1    0.20    6.10
   0  -5  -1    4.00    3.40
   0  -5  -1    3.50    3.20
   0   5   1    3.80    3.20
   0   5   1    2.00    5.40
   0   5   1    5.70    3.50
  -1  -5  -1    2.90    4.60
  -1  -5  -1   -1.00    3.30
  -1  -5  -1    1.30    3.50
  -1  -5  -1    2.40    3.50
   1   5   1   -4.40    2.60
   1   5   1    5.80    3.50
  -2  -5  -1   50.39    6.60
  -2  -5  -1   68.29   12.00
  -2  -5  -1   45.10    8.00
  -2  -5  -1   47.10    7.00
   2   5   1   51.49    6.70
   2   5   1   54.49    7.20
   2   5   1   44.30    6.40
  -3  -5  -1   85.79   20.10
  -3  -5  -1   56.59    6.70
  -3  -5  -1   52.19   10.30
  -3  -5  -1   50.69    7.40
   3   5   1   31.00    5.10
   3   5   1   47.40    7.20
   3   5   1   47.70    7.20
  -4  -5  -1   41.20    7.40
   4   5   1   23.70    5.90
   4   5   1   34.40    6.00
   4   5   1   22.90    4.70
  -5  -5  -1    6.30    4.70
  -5  -5  -1   -9.30    4.40
   5   5   1    1.30    4.10
   6  -6  -1    7.90    7.10
   6  -6  -1    0.00    4.30
  -6   6   1   -5.00    9.20
  -6   6   1    2.00    5.50
  -6   6   1   14.10    6.60
   5  -6  -1   11.10    5.60
  -5   6   1    4.40    9.00
  -5   6   1    3.10    5.30
  -5   6   1    4.20    5.30
   4  -6  -1    8.30    5.60
  -4   6   1   -1.80    7.20
  -4   6   1   -3.40    4.30
  -4   6   1   -6.70    4.80
   3  -6  -1   11.60    5.20
   3  -6  -1    5.00    9.50
  -3   6   1   13.50    7.40
  -3   6   1   11.00    4.70
  -3   6   1    5.50    4.80
   2  -6  -1  681.53   24.10
   2  -6  -1  755.52   25.70
   2  -6  -1  769.62   30.60
  -2   6   1  729.53   24.30
  -2   6   1  715.73   28.00
  -2   6   1  734.53   23.90
   1  -6  -1   36.50    6.20
   1  -6  -1   41.00    6.70
   1  -6  -1   48.90   11.10
  -1   6   1   49.80   10.10
  -1   6   1   50.59    7.40
  -1   6   1   52.09    7.70
   0  -6  -1   28.20    8.60
   0  -6  -1   21.40    5.60
   0  -6  -1   23.60    5.60
   0   6   1   29.20    5.60
   0   6   1   28.40    5.60
   0   6   1   30.50    8.50
  -1  -6  -1    7.50    6.10
  -1  -6  -1   -3.40    3.30
  -1  -6  -1    1.00    3.70
  -1  -6  -1    4.40    4.10
   1   6   1    4.00    3.80
   1   6   1    7.80    4.20
  -2  -6  -1   17.50    5.40
  -2  -6  -1   48.80   19.50
  -2  -6  -1   11.20    4.80
  -2  -6  -1   10.40    4.70
   2   6   1    6.40    3.20
   2   6   1   20.50    7.20
   2   6   1   14.50    4.70
  -3  -6  -1   56.49    8.20
  -3  -6  -1   72.69    9.10
  -3  -6  -1   65.09   10.70
   3   6   1   68.49    9.10
   3   6   1   67.09    8.40
  -4  -6  -1   22.20    6.50
  -4  -6  -1   23.30    5.80
   4   6   1   22.40    5.00
   4   6   1   27.60    6.20
  -5  -6  -1    9.30    5.90
  -5  -6  -1   14.10    5.70
   5  -7  -1    4.10    6.30
  -5   7   1   -3.10    7.90
  -5   7   1    7.60    5.50
   4  -7  -1    2.30    6.00
  -4   7   1    2.40    5.60
  -4   7   1   -3.60    4.60
  -4   7   1    9.60    8.50
   3  -7  -1   15.60    6.70
  -3   7   1   18.10    5.50
  -3   7   1   20.10    6.20
  -3   7   1   26.30   10.10
   2  -7  -1    3.90    4.40
   2  -7  -1    6.80    5.30
  -2   7   1    3.20    4.80
  -2   7   1    2.30    4.10
  -2   7   1   -1.80    6.60
   1  -7  -1   34.50   11.20
   1  -7  -1   39.40   12.90
   1  -7  -1   43.90    8.10
  -1   7   1   28.90    6.30
  -1   7   1   52.29    7.80
  -1   7   1   44.90   10.80
   0  -7  -1   20.70    6.20
   0  -7  -1   13.10    4.90
   0  -7  -1   25.10   10.60
   0   7   1   24.70    6.00
   0   7   1   10.70    4.90
   0   7   1   25.40    9.40
   1   7   1    8.00    4.60
  -2  -7  -1    5.00    5.00
  -2  -7  -1    2.40    4.40
  -2  -7  -1   -4.40    5.90
   2   7   1   -2.10    2.60
   2   7   1    0.50    4.40
  -3  -7  -1   30.00    9.10
  -3  -7  -1   19.80    5.30
  -3  -7  -1    6.30    5.50
   3   7   1    6.00    4.90
   3   7   1    8.00    3.80
  -4  -7  -1   -6.90    6.20
  -4  -7  -1    3.50    4.70
   4   7   1    1.80    3.20
   4   7   1  -10.10    5.60
  -5   8   1    8.90    9.00
  -5   8   1   -0.60    5.60
   4  -8  -1   11.50    7.00
  -4   8   1    3.30    6.10
  -4   8   1   15.90    8.20
   3  -8  -1   22.20    7.50
  -3   8   1   26.90    6.70
  -3   8   1   34.10   10.00
   2  -8  -1   11.50    6.30
  -2   8   1   12.20    7.80
  -2   8   1   15.10    5.90
   1  -8  -1   -2.60    5.20
  -1   8   1   -5.90    6.80
  -1   8   1    4.10    4.60
   0  -8  -1   24.80    6.50
   0  -8  -1    8.10    5.90
   0   8   1   14.40    5.90
   0   8   1   27.50   10.40
  -1  -8  -1   -1.70    4.70
   1   8   1   -1.20    4.70
  -2  -8  -1    7.60    5.20
  -2  -8  -1   14.70    7.80
   2   8   1    1.70    4.80
   2   8   1   -0.30    5.50
  -3  -8  -1   11.90   11.90
  -3  -8  -1  -11.20    5.60
  -3  -8  -1    0.90    4.80
   3   8   1    3.50    3.90
   3  -9  -1   -5.30    7.10
  -3   9   1   28.00    9.60
  -3   9   1   -5.60    5.10
   2  -9  -1    6.90    6.70
  -2   9   1   13.10    8.40
  -2   9   1    2.70    5.00
   1  -9  -1   15.30    7.10
  -1   9   1   19.90    6.60
  -1   9   1   12.30    9.70
   0  -9  -1    3.50    5.20
   0   9   1    2.50    5.50
  -1  -9  -1    4.30    4.40
   1   9   1    4.10    6.20
  -2  -9  -1    8.30    6.00
   2   9   1    3.90    6.40
   2   9   1    1.40    3.50
   0  10  -2   -1.70    5.60
   0 -10   2   -4.60    6.30
  -1  10  -2   -7.10    5.40
  -1  10  -2   21.40    8.70
   1 -10   2   -5.30    6.50
   2   9  -2   -9.10    9.80
  -2  -9   2    5.60    6.10
   1   9  -2    6.50    9.40
  -1  -9   2    5.50    5.40
   0   9  -2   20.40    9.00
   0   9  -2   10.10    5.60
   0  -9   2    8.50    6.50
  -1   9  -2    6.90    8.70
  -1   9  -2    2.30    5.50
   1  -9   2    0.20    6.00
  -2   9  -2    7.90    7.80
  -2   9  -2    1.10    5.00
   2  -9   2    8.20    8.70
   2  -9   2   -5.40    2.90
  -3   9  -2    2.80    5.20
   3  -9   2    1.00    3.90
   3  -9   2   -7.40   13.30
   3   8  -2   -2.30    2.80
   3   8  -2   -5.80    5.50
  -3  -8   2   24.90    9.10
  -3  -8   2    2.20    4.60
   2   8  -2    8.80    3.60
   2   8  -2    9.10    6.50
  -2  -8   2    8.30    7.60
  -2  -8   2    5.60    5.60
   1   8  -2    2.40    4.60
  -1  -8   2   -1.80    6.50
  -1  -8   2   -8.60    5.10
   0   8  -2    6.40    7.90
   0   8  -2    9.90    5.30
   0  -8   2    8.40    5.60
  -1   8  -2    1.50    6.80
  -1   8  -2   -5.60    4.00
   1  -8   2    2.90    5.30
  -2   8  -2    9.00   10.90
  -2   8  -2   -2.00    6.40
  -2   8  -2   -9.60    5.50
   2  -8   2    1.10    2.90
   2  -8   2    6.70    5.90
  -3   8  -2   -0.40    4.30
  -3   8  -2   -5.10    5.90
  -3   8  -2    6.00    7.30
   3  -8   2    4.90    6.10
   3  -8   2   -4.00    3.00
  -4   8  -2    8.40    8.40
  -4   8  -2   -1.40    5.40
   4  -8   2   -8.20    4.20
   4  -8   2   -5.30    6.20
   4   7  -2    0.60    3.00
   4   7  -2   -0.60    5.40
  -4  -7   2    4.70    5.30
   3   7  -2   21.00    6.50
   3   7  -2   20.80    4.20
  -3  -7   2   36.90    7.40
  -3  -7   2   45.10    9.50
  -3  -7   2   22.20    6.90
   2   7  -2    2.00    2.40
   2   7  -2   -3.80    4.00
  -2  -7   2    5.60    5.10
  -2  -7   2   -5.10    4.10
  -2  -7   2   -1.50    4.50
   1   7  -2   38.50    6.70
   1   7  -2   36.80    7.40
  -1  -7   2   31.20    7.70
  -1  -7   2   23.40    5.80
   0   7  -2    3.00    4.30
   0   7  -2   -0.10    6.00
   0   7  -2    1.90    4.20
   0  -7   2    6.40    5.70
   0  -7   2    1.70    4.60
  -1   7  -2    0.10    3.30
  -1   7  -2    0.20    3.80
  -1   7  -2    3.40    6.60
   1  -7   2   -6.10    3.70
   1  -7   2    5.20    4.80
  -2   7  -2   -2.60    3.70
  -2   7  -2    5.90    6.80
  -2   7  -2   -2.50    4.10
   2  -7   2    0.40    4.40
   2  -7   2   -1.20    2.40
  -3   7  -2   -7.10    4.70
  -3   7  -2    1.60    7.40
  -3   7  -2    2.60    4.00
   3  -7   2   -2.20    4.80
   3  -7   2    5.70    3.30
  -4   7  -2    5.80    4.80
  -4   7  -2   -2.00    7.30
  -4   7  -2    5.20    5.90
   4  -7   2    4.50    5.00
  -5   7  -2    8.00    5.00
  -5   7  -2    4.80    9.00
  -5   7  -2   -5.70    6.40
   5  -7   2    8.10    5.10
   5  -7   2    9.40    6.50
   5   6  -2    1.40    3.00
  -5  -6   2    0.50    5.50
  -5  -6   2    3.80    5.10
   4   6  -2   -3.20    2.20
   4   6  -2   -1.80    4.60
  -4  -6   2   -1.10    4.80
  -4  -6   2   -1.80    4.80
   3   6  -2    2.90    4.50
   3   6  -2    3.80    2.90
  -3  -6   2    3.30    4.40
  -3  -6   2   -1.20    3.80
  -3  -6   2    6.80    6.00
   2   6  -2   10.40    3.00
   2   6  -2   21.70    5.80
  -2  -6   2   16.70    5.10
  -2  -6   2   30.40    9.60
  -2  -6   2   21.50    6.00
  -2  -6   2   13.20    4.90
   1   6  -2   61.39    8.00
   1   6  -2   44.70    6.90
  -1  -6   2   68.69   10.30
  -1  -6   2   57.09    8.10
  -1  -6   2   50.89    6.90
  -1  -6   2   47.70    7.10
   0   6  -2    4.20    4.20
   0   6  -2    5.40    4.10
   0   6  -2    4.50    6.30
   0  -6   2    3.30    6.20
   0  -6   2   10.90    4.80
   0  -6   2    1.70    3.60
  -1   6  -2   -2.60    3.50
  -1   6  -2    5.90    3.80
  -1   6  -2    0.10    5.10
   1  -6   2   10.30    7.80
   1  -6   2    4.50    2.20
   1  -6   2    0.20    3.40
   1  -6   2    7.10    4.20
  -2   6  -2    1.30    6.20
  -2   6  -2   -0.90    3.80
  -2   6  -2    1.90    3.70
   2  -6   2    1.10    2.50
   2  -6   2    2.40    3.60
   2  -6   2   -0.30    3.40
   2  -6   2   -0.90    8.00
  -3   6  -2    5.40    4.60
  -3   6  -2    7.00    7.30
  -3   6  -2    4.50    4.10
   3  -6   2    0.60    4.30
   3  -6   2    4.70    4.60
   3  -6   2    2.80    3.10
  -4   6  -2   21.80    9.50
  -4   6  -2   22.80    5.60
  -4   6  -2   18.00    5.70
   4  -6   2   14.70    4.60
   4  -6   2   20.50    5.80
  -5   6  -2   10.00   10.20
  -5   6  -2   12.30    5.60
  -5   6  -2   17.30    5.80
   5  -6   2    7.90    5.30
   5  -6   2    8.30    5.10
  -6  -5   2   -5.80    5.10
  -6  -5   2   -9.00    5.80
   5   5  -2   -1.20    5.10
   5   5  -2   -2.00    2.60
  -5  -5   2   -3.70    3.90
  -5  -5   2   -0.60    3.90
   4   5  -2   79.49    8.30
   4   5  -2   81.99   11.40
  -4  -5   2   91.29    9.90
  -4  -5   2   65.09    8.20
   3   5  -2   31.30    4.40
  -3  -5   2   44.70    7.40
  -3  -5   2   42.00    6.30
   2   5  -2   51.49    6.20
   2   5  -2   54.59    6.90
  -2  -5   2   71.69   12.30
  -2  -5   2   59.29    7.40
  -2  -5   2   50.79    6.70
   1   5  -2  662.53   21.50
   1   5  -2  648.74   23.90
  -1  -5   2  685.53   22.50
  -1  -5   2  663.73   21.40
  -1  -5   2  650.33   24.30
   0   5  -2   22.50    4.30
   0   5  -2   30.20    7.70
   0   5  -2   20.90    4.40
   0  -5   2   26.80    7.00
   0  -5   2   23.30    4.90
   0  -5   2   17.50    3.80
  -1   5  -2   19.80    4.30
  -1   5  -2   11.60    6.40
  -1   5  -2   17.10    4.40
   1  -5   2   14.10    4.40
   1  -5   2   17.80    7.70
   1  -5   2   12.80    3.80
  -2   5  -2   28.40    8.20
  -2   5  -2   28.70    4.90
  -2   5  -2   23.60    4.60
   2  -5   2   33.30    9.10
   2  -5   2   21.90    5.10
   2  -5   2   16.30    4.00
  -3   5  -2   10.00    3.70
  -3   5  -2    5.90    7.10
  -3   5  -2    5.30    4.00
   3  -5   2    3.20    3.00
   3  -5   2    3.30    3.70
   3  -5   2    3.60    4.20
   3  -5   2   -4.40    6.30
  -4   5  -2   61.99    7.90
  -4   5  -2   60.19    8.10
  -4   5  -2   73.39   13.10
   4  -5   2   63.09    9.10
   4  -5   2   66.69    8.80
   4  -5   2   58.99    8.60
  -5   5  -2    2.10    4.40
  -5   5  -2    3.10    4.50
  -6   5  -2   -5.30    4.90
  -6   5  -2    0.90    9.60
  -6   5  -2   13.50    5.70
   6  -5   2    3.00    5.60
   6  -5   2   -0.90    4.60
   6   4  -2    1.70    5.40
   6   4  -2    1.50    3.30
  -6  -4   2    2.80    4.50
  -6  -4   2    5.40    5.10
   5   4  -2    0.00    2.30
   5   4  -2   -0.20    2.50
   5   4  -2    4.90    4.40
  -5  -4   2    9.00    4.80
  -5  -4   2   -3.40    4.00
   4   4  -2    6.50    2.70
   4   4  -2   11.30    4.30
  -4  -4   2   14.70    4.40
  -4  -4   2   13.80    4.60
   3   4  -2    8.90    3.50
   3   4  -2    2.00    2.30
   3   4  -2    6.20    3.70
  -3  -4   2    8.70    4.00
  -3  -4   2    8.10    4.10
   2   4  -2  294.37   11.70
   2   4  -2  330.17   13.00
   2   4  -2  289.97   12.60
  -2  -4   2  319.87   13.50
  -2  -4   2  319.47   12.90
  -2  -4   2  290.07   15.90
   1   4  -2  311.97   12.40
   1   4  -2  294.77   12.10
  -1  -4   2  290.77   11.80
  -1  -4   2  289.47   14.10
  -1  -4   2  292.07   13.30
   0   4  -2    0.60    2.40
   0   4  -2    2.10    2.30
   0   4  -2   -1.80    3.80
   0  -4   2    0.30    2.50
   0  -4   2    0.40    2.40
  -1   4  -2  499.75   16.00
  -1   4  -2  474.15   18.60
  -1   4  -2  499.35   16.00
   1  -4   2  478.95   19.20
   1  -4   2  487.35   16.50
   1  -4   2  479.85   15.60
  -2   4  -2   84.39   10.00
  -2   4  -2   89.69    6.70
  -2   4  -2   84.49    6.70
   2  -4   2   75.29    9.70
   2  -4   2   74.69    6.90
   2  -4   2   85.29    7.10
   2  -4   2   73.79    6.20
  -3   4  -2   95.99   11.10
  -3   4  -2   91.49    7.60
  -3   4  -2   93.49    7.50
   3  -4   2   85.59   11.20
   3  -4   2   82.29    7.50
   3  -4   2   87.59    8.60
   3  -4   2   94.79    8.10
  -4   4  -2  140.89   10.60
  -4   4  -2  135.09    8.80
  -4   4  -2  119.79   13.40
  -4   4  -2  122.39    9.20
   4  -4   2  129.39    9.40
   4  -4   2  128.89    9.40
   4  -4   2  137.59   11.30
   4  -4   2  152.68   18.20
  -5   4  -2   22.50    5.60
  -5   4  -2   10.90    9.40
  -5   4  -2   25.50    5.40
   5  -4   2   22.50    4.90
   5  -4   2   13.60    4.90
   5  -4   2   10.80    4.10
  -6   4  -2   16.90    5.90
  -6   4  -2   -5.50   10.20
   6  -4   2   13.70    6.00
   6  -4   2    7.60    4.80
   6   3  -2   14.90    5.80
  -6  -3   2   10.50    4.80
  -6  -3   2   10.40    5.70
   5   3  -2   23.10    4.50
   5   3  -2   36.70    6.20
   5   3  -2   34.30    5.70
  -5  -3   2   33.80    7.10
  -5  -3   2   35.20    6.70
   4   3  -2    6.40    2.40
   4   3  -2    5.90    3.70
   4   3  -2   11.20    3.80
   4   3  -2    7.70    2.50
  -4  -3   2    9.90    3.80
  -4  -3   2    8.70    4.20
   3   3  -2  270.17   11.00
   3   3  -2  265.27   11.60
   3   3  -2  270.57   11.70
  -3  -3   2  274.77   12.10
  -3  -3   2  249.28   11.50
   2   3  -2 2237.78   52.89
   2   3  -2 2240.98   51.39
   2   3  -2 2159.58   52.59
  -2  -3   2 2182.98   53.19
  -2  -3   2 2134.79   52.49
   1   3  -2  169.58    8.00
   1   3  -2  178.28    8.10
  -1  -3   2  170.08    8.40
  -1  -3   2  161.08    9.70
  -1  -3   2  171.28    8.00
   0   3  -2    4.00    2.40
   0   3  -2    2.00    3.60
   0   3  -2    7.10    2.50
   0  -3   2    2.90    2.40
   0  -3   2    4.80    2.10
   0  -3   2   -1.60    3.60
  -1   3  -2   43.30    4.30
  -1   3  -2   39.70    7.00
  -1   3  -2   50.29    4.60
   1  -3   2   48.20    4.90
   1  -3   2   38.80    4.20
   1  -3   2   44.20    4.30
   1  -3   2   43.60    6.70
  -2   3  -2    2.70    2.30
  -2   3  -2    7.00    2.50
  -2   3  -2    2.40    4.80
   2  -3   2   -0.40    1.70
   2  -3   2    0.70    2.40
   2  -3   2    4.00    2.40
   2  -3   2    2.60    5.20
  -3   3  -2    3.80    2.80
  -3   3  -2    2.50    5.80
  -3   3  -2   -0.60    2.60
  -3   3  -2   -3.60    4.10
   3  -3   2   -1.80    2.20
   3  -3   2   -2.10    3.10
   3  -3   2    0.80    5.10
   3  -3   2    1.80    2.80
  -4   3  -2    2.90    3.20
  -4   3  -2    8.00    7.30
  -4   3  -2    7.30    5.80
  -4   3  -2    3.40    3.70
   4  -3   2    7.60    3.80
   4  -3   2    0.70    2.60
   4  -3   2    3.50    3.50
  -5   3  -2   27.80    5.30
  -5   3  -2   10.40    9.60
  -5   3  -2   22.80    5.00
  -5   3  -2   33.30    9.80
   5  -3   2   16.10    4.50
   5  -3   2   14.30    4.00
  -6   3  -2    4.80    4.60
  -6   3  -2    4.90    4.40
  -6   3  -2    4.70   10.60
  -7   3  -2   -4.40    5.00
  -7   3  -2   -7.20   11.20
   7  -3   2    0.60    4.70
   7   2  -2   14.10    6.40
   7   2  -2    7.70    4.90
  -7  -2   2   28.30    6.10
  -7  -2   2   26.90    7.10
   6   2  -2    9.10    4.00
   6   2  -2    1.00    4.50
  -6  -2   2    1.80    5.10
  -6  -2   2   -8.50    5.20
   5   2  -2    4.20    3.60
   5   2  -2   10.10    4.70
   5   2  -2    1.40    2.70
  -5  -2   2    3.00    4.00
  -5  -2   2   -5.90    2.90
  -5  -2   2   -1.00    2.50
   4   2  -2    1.50    2.10
   4   2  -2   -0.30    2.90
   4   2  -2    6.10    3.50
  -4  -2   2   -1.70    3.00
  -4  -2   2    2.90    1.90
  -4  -2   2    2.10    3.00
   3   2  -2  148.49    7.40
   3   2  -2  136.29    7.90
   3   2  -2  127.49    7.30
   3   2  -2  128.89    7.80
  -3  -2   2  136.59    8.10
  -3  -2   2  146.99    7.50
  -3  -2   2  125.69    7.70
   2   2  -2 4438.36   97.89
   2   2  -2 4327.17   96.49
   2   2  -2 4323.17   97.89
  -2  -2   2 4408.76   97.99
  -2  -2   2 4374.06   98.19
   1   2  -2  194.28    7.80
   1   2  -2  198.18    7.90
  -1  -2   2  189.08    9.40
  -1  -2   2  197.68    7.70
  -1  -2   2  202.38    8.10
   0   2  -2 1400.56   33.10
   0   2  -2 1403.86   34.50
   0   2  -2 1436.56   33.10
   0  -2   2 1390.56   33.20
   0  -2   2 1351.76   32.80
   0  -2   2 1393.36   34.30
  -1   2  -2 1223.18   29.20
  -1   2  -2 1244.18   31.30
  -1   2  -2 1255.47   29.20
   1  -2   2 1218.88   30.00
   1  -2   2 1204.98   28.90
   1  -2   2 1239.18   31.40
   1  -2   2 1235.98   29.50
  -2   2  -2 1093.89   25.90
  -2   2  -2 1057.09   29.30
  -2   2  -2 1058.09   27.50
  -2   2  -2 1076.69   26.00
   2  -2   2 1077.59   26.20
   2  -2   2 1061.89   28.50
   2  -2   2 1037.10   29.90
   2  -2   2 1085.19   25.90
  -3   2  -2   20.50    7.80
  -3   2  -2    7.70    4.90
  -3   2  -2   10.60    3.10
  -3   2  -2   13.90    3.30
   3  -2   2    9.50    3.10
   3  -2   2    6.50    2.80
   3  -2   2   14.90    3.20
  -4   2  -2  104.69    6.70
  -4   2  -2   82.09    8.20
  -4   2  -2   92.29    6.60
  -4   2  -2  107.69   12.10
  -4   2  -2   97.29   10.40
   4  -2   2  107.29    9.30
   4  -2   2   99.89    6.50
  -5   2  -2    7.00    3.70
  -5   2  -2    3.20    3.10
  -5   2  -2    5.20    3.70
  -5   2  -2  -11.90    8.10
   5  -2   2    4.00    3.60
  -6   2  -2   63.89   13.80
   6  -2   2   32.40    6.60
  -7   2  -2   -9.20   10.20
   7   1  -2    0.80    3.90
   7   1  -2    7.70    6.70
  -7  -1   2    0.20    5.80
  -7  -1   2   11.10   10.20
  -7  -1   2    1.20    4.90
   6   1  -2    5.00    4.20
   6   1  -2   -0.70    3.30
  -6  -1   2    4.20    4.30
  -6  -1   2    1.80    3.60
  -6  -1   2    3.40    4.60
   5   1  -2   84.19    7.80
   5   1  -2   69.29    8.80
   5   1  -2   78.99    8.10
  -5  -1   2   73.59    8.30
  -5  -1   2   68.59    6.90
  -5  -1   2   71.79    8.20
   4   1  -2    5.20    3.30
   4   1  -2   -2.70    2.60
   4   1  -2    1.30    3.20
  -4  -1   2    0.90    1.70
  -4  -1   2    2.30    2.90
  -4  -1   2    2.70    3.10
   3   1  -2  235.18   11.50
   3   1  -2  231.58    9.70
  -3  -1   2  232.68    9.60
  -3  -1   2  245.28   10.10
  -3  -1   2  241.08   10.30
   2   1  -2  899.81   23.10
   2   1  -2  862.01   23.00
   2   1  -2  873.81   22.00
  -2  -1   2  885.41   23.20
  -2  -1   2  911.91   22.20
  -2  -1   2  916.51   23.40
   1   1  -2 2345.67   53.39
   1   1  -2 2402.16   53.39
  -1  -1   2 2353.96   53.39
  -1  -1   2 2387.36   53.39
   0   1  -2 1912.61   41.90
   0   1  -2 1913.31   42.50
   0   1  -2 1899.21   43.00
   0   1  -2 1888.51   42.50
   0  -1   2 1889.11   41.80
   0  -1   2 1880.91   42.50
   0  -1   2 1928.71   42.50
   0  -1   2 1970.80   43.10
  -1   1  -2 1717.03   38.90
  -1   1  -2 1661.83   38.30
  -1   1  -2 1710.43   36.80
  -1   1  -2 1660.73   36.80
  -1   1  -2 1691.93   38.70
   1  -1   2 1474.05   36.70
   1  -1   2 1608.04   38.40
   1  -1   2 1716.13   39.10
   1  -1   2 1690.63   38.80
  -2   1  -2  756.52   22.00
  -2   1  -2  774.92   22.50
  -2   1  -2  766.02   18.50
   2  -1   2  780.32   21.90
  -3   1  -2    5.60    5.30
  -3   1  -2    1.90    1.90
  -3   1  -2    4.30    3.70
  -3   1  -2    2.50    2.20
   3  -1   2    0.10    2.70
  -4   1  -2   70.19    6.00
  -4   1  -2   66.29    5.40
  -4   1  -2   56.89    7.70
  -4   1  -2   55.59   10.70
  -4   1  -2   71.79    9.30
   4  -1   2   63.59    7.90
  -5   1  -2  217.48   21.40
  -5   1  -2  188.98   17.50
  -5   1  -2  172.48   12.50
   5  -1   2  163.88   12.80
  -6   1  -2   65.69   17.60
   6  -1   2   23.70    8.00
  -7   1  -2  -11.90    9.80
   7  -1   2   -2.40    3.90
   7   0  -2   -1.80    4.20
   7   0  -2    6.10    6.30
  -7   0   2   22.00   11.70
  -7   0   2   10.60    5.60
  -7   0   2    7.10    4.50
   6   0  -2   -1.00    4.20
  -6   0   2   -0.10    4.70
  -6   0   2   -4.00    3.40
   5   0  -2   14.70    4.40
   5   0  -2    2.70    3.50
   5   0  -2   10.90    4.20
  -5   0   2   11.20    5.00
  -5   0   2    7.60    3.80
  -5   0   2    7.10    3.00
   4   0  -2  126.49    8.30
   4   0  -2  127.19    8.30
  -4   0   2  118.99    8.50
  -4   0   2  134.29    8.60
   3   0  -2   43.80    5.10
   3   0  -2   49.40    5.40
  -3   0   2   52.59    5.40
  -3   0   2   47.30    5.10
  -3   0   2   47.30    5.30
   2   0  -2 1142.09   27.70
   2   0  -2 1101.49   27.70
  -2   0   2 1126.99   27.70
  -2   0   2 1134.49   27.70
   1   0  -2   62.59    3.90
   1   0  -2   62.89    3.80
  -1   0   2   65.59    3.90
  -1   0   2   67.29    4.00
   0   0   2 1806.22   38.70
   0   0   2 1722.63   39.50
  -1   0  -2  256.77    9.20
  -1   0  -2  268.67    8.40
   1   0   2  264.57    8.60
   1   0   2  256.27    9.40
   1   0   2  257.97    8.70
  -2   0  -2  166.08    7.70
  -2   0  -2  169.28    8.10
  -2   0  -2  167.58    9.00
   2   0   2  169.68    7.80
   2   0   2  167.28    8.00
  -3   0  -2   74.39    8.20
  -3   0  -2   78.29    6.50
   3   0   2   78.09    6.70
  -4   0  -2    7.90    7.70
  -4   0  -2   11.00    5.90
  -4   0  -2    3.30    2.50
   4   0   2    6.80    2.90
  -5   0  -2   36.50    5.40
   5   0   2   27.50    5.60
  -6   0  -2   -2.80    9.80
   6   0   2    4.10    3.90
  -7   0  -2  -10.70    9.80
   7   0   2   -1.60    3.90
   7  -1  -2   -5.30    4.00
   7  -1  -2  -12.90    5.60
  -7   1   2   -4.20   10.40
  -7   1   2   -5.60    5.60
   6  -1  -2   13.70    4.40
   6  -1  -2   35.30    7.00
  -6   1   2   13.60   15.50
  -6   1   2   19.80    6.10
   5  -1  -2   -0.70    3.90
   5  -1  -2    4.60    3.80
   5  -1  -2   -3.80    3.10
  -5   1   2    3.10    7.40
  -5   1   2    7.70    4.40
  -5   1   2   -3.30    2.20
  -5   1   2    0.70    4.20
   4  -1  -2   15.00    4.20
   4  -1  -2    7.90    3.70
  -4   1   2   11.90    4.10
  -4   1   2   13.30    4.00
  -4   1   2    8.70    6.80
   3  -1  -2  188.48   11.40
   3  -1  -2  207.48    9.00
  -3   1   2  201.28   12.20
  -3   1   2  212.18    9.10
  -3   1   2  209.78    9.10
   2  -1  -2 1264.67   30.80
   2  -1  -2 1251.37   30.70
  -2   1   2 1298.87   30.80
  -2   1   2 1265.37   30.80
  -2   1   2 1264.77   33.10
   1  -1  -2  702.83   17.90
   1  -1  -2  686.03   18.60
   1  -1  -2  697.83   17.70
  -1   1   2  726.83   17.80
  -1   1   2  719.33   17.80
  -1   1   2  722.43   18.50
   0  -1  -2 2154.48   47.80
   0  -1  -2 2171.88   47.70
   0   1   2 2227.48   47.80
   0   1   2 2202.68   48.60
   0   1   2 2052.89   48.00
   0   1   2 2243.88   47.70
  -1  -1  -2  423.86   13.70
  -1  -1  -2  440.16   12.40
  -1  -1  -2  454.25   12.70
   1   1   2  419.56   12.10
   1   1   2  441.86   12.80
   1   1   2  426.86   13.80
  -2  -1  -2   56.69    4.80
  -2  -1  -2   54.59    4.90
  -2  -1  -2   47.00    6.10
   2   1   2   58.79    5.00
   2   1   2   50.09    4.90
  -3  -1  -2  160.38    9.20
  -3  -1  -2  154.88   10.70
   3   1   2  168.08   11.00
   3   1   2  168.88    9.10
  -4  -1  -2 1283.57   38.10
  -4  -1  -2 1356.36   41.40
   4   1   2 1411.66   38.30
  -5  -1  -2   69.59    9.30
   5   1   2   45.70    6.70
  -6  -1  -2   16.10    9.70
   6   1   2    4.90    3.70
   7  -2  -2   -4.30    4.60
   7  -2  -2   -9.90    6.10
  -7   2   2  -10.90    9.00
  -7   2   2   -4.80    6.00
   6  -2  -2    8.10    5.80
   6  -2  -2    6.40    5.00
  -6   2   2    5.40    5.20
  -6   2   2    9.50    5.60
  -6   2   2   -1.60   14.40
   5  -2  -2    2.10    3.90
   5  -2  -2    0.50    4.00
  -5   2   2    0.90    3.80
  -5   2   2   -0.30    4.10
  -5   2   2   -1.50    6.60
   4  -2  -2  101.99    7.90
   4  -2  -2  109.99    8.70
  -4   2   2   94.79    7.80
  -4   2   2  115.79    8.60
  -4   2   2  104.49   11.60
   3  -2  -2   72.89    6.20
   3  -2  -2   76.69    6.80
  -3   2   2   81.39    8.60
  -3   2   2   75.39    8.60
  -3   2   2   79.19    6.30
   2  -2  -2  229.48    9.20
   2  -2  -2  219.18    8.80
   2  -2  -2  206.28   10.70
  -2   2   2  225.98    9.00
  -2   2   2  231.88   10.70
  -2   2   2  218.28    8.70
   1  -2  -2   77.49    6.80
   1  -2  -2   90.49    6.50
  -1   2   2   94.99    6.50
   0  -2  -2 2675.13   59.59
   0  -2  -2 2668.03   60.79
   0  -2  -2 2659.73   59.59
   0  -2  -2 2649.63   59.89
   0   2   2 2721.63   59.69
   0   2   2 2727.33   59.99
   0   2   2 2612.94   60.99
   0   2   2 2710.23   59.69
  -1  -2  -2   76.79    5.80
  -1  -2  -2   79.59    4.30
  -1  -2  -2   80.49    4.60
  -1  -2  -2   80.69    4.60
   1   2   2   82.79    4.40
   1   2   2   81.69    4.40
   1   2   2   83.69    5.40
  -2  -2  -2    6.30    1.80
  -2  -2  -2   11.90    2.30
  -2  -2  -2    6.20    2.00
  -2  -2  -2    6.90    2.30
  -2  -2  -2   10.50    4.30
   2   2   2    5.70    2.00
   2   2   2    5.90    1.70
   2   2   2    9.00    2.10
   2   2   2    8.80    2.10
  -3  -2  -2   10.20    2.60
  -3  -2  -2   12.10    4.70
  -3  -2  -2    6.70    2.30
  -3  -2  -2   10.50    2.80
   3   2   2    6.50    2.50
   3   2   2    7.90    2.40
  -4  -2  -2  122.09   11.90
  -4  -2  -2   94.99    7.80
  -4  -2  -2   95.29    9.10
   4   2   2  108.49   10.00
   4   2   2  108.79    9.30
  -5  -2  -2   -1.20    3.00
   5   2   2   -3.00    2.90
   6   2   2   -0.30    3.50
   7  -3  -2    2.40    4.50
  -7   3   2    5.70    6.10
  -7   3   2   12.90   10.90
   6  -3  -2   13.50    5.90
   6  -3  -2    5.80    4.80
  -6   3   2   18.70   10.60
  -6   3   2   32.00    6.70
   5  -3  -2   61.09    8.40
   5  -3  -2   56.39    8.70
  -5   3   2   60.19    8.50
  -5   3   2   62.09    8.20
  -5   3   2   47.90   11.30
   4  -3  -2   99.39    9.00
   4  -3  -2   80.69    7.70
  -4   3   2   67.79   11.30
  -4   3   2   87.29    8.40
  -4   3   2   74.39    8.00
   3  -3  -2   75.39   11.10
   3  -3  -2   86.99    7.80
   3  -3  -2   86.89    7.20
  -3   3   2   90.79   10.20
  -3   3   2   90.69    7.00
  -3   3   2   92.09    7.40
   2  -3  -2   -0.40    2.30
   2  -3  -2    0.50    3.10
   2  -3  -2    1.50    4.20
  -2   3   2    1.60    4.40
  -2   3   2   -1.10    2.50
  -2   3   2   -0.70    2.30
   1  -3  -2  338.47   13.20
   1  -3  -2  328.97   11.90
   1  -3  -2  339.97   11.60
  -1   3   2  330.67   13.50
  -1   3   2  346.57   11.40
  -1   3   2  337.77   11.50
   0  -3  -2  250.97    9.70
   0  -3  -2  252.37   11.10
   0  -3  -2  257.67    9.40
   0  -3  -2  255.17    8.70
   0   3   2  251.27    9.30
   0   3   2  247.98    8.90
   0   3   2  249.97   11.00
   0   3   2  268.57    9.40
  -1  -3  -2  736.13   20.00
  -1  -3  -2  763.02   20.60
  -1  -3  -2  736.93   21.70
  -1  -3  -2  701.23   22.50
   1   3   2  748.03   20.00
   1   3   2  763.82   20.20
  -2  -3  -2   50.99    4.80
  -2  -3  -2   54.89    5.10
  -2  -3  -2   54.59    4.70
   2   3   2   46.40    7.00
   2   3   2   57.09    6.40
   2   3   2   60.89    4.90
  -3  -3  -2  328.17   16.90
  -3  -3  -2  329.87   12.80
  -3  -3  -2  341.17   13.50
  -3  -3  -2  328.37   12.30
   3   3   2  344.27   14.80
   3   3   2  340.37   12.10
   3   3   2  331.17   11.90
  -4  -3  -2  690.73   35.50
  -4  -3  -2  646.04   20.60
  -4  -3  -2  659.23   21.30
   4   3   2  647.34   24.30
   4   3   2  699.43   22.60
  -5  -3  -2   17.70    4.30
   5   3   2   11.40    3.70
   5   3   2   14.00    3.50
   6   3   2    1.50    3.50
   7  -4  -2    5.90    5.60
  -7   4   2  -12.10    5.30
  -7   4   2  -15.00    9.50
   6  -4  -2    1.60    4.10
   6  -4  -2   -2.30    5.90
  -6   4   2   -2.30    4.80
  -6   4   2    6.20    9.40
  -6   4   2   -2.10    5.80
   5  -4  -2   13.90    5.30
  -5   4   2   12.20    5.20
  -5   4   2   18.90    5.10
  -5   4   2   11.40    8.50
   4  -4  -2   15.50    8.60
   4  -4  -2    8.90    4.00
  -4   4   2   10.00    4.30
  -4   4   2   10.00    4.50
  -4   4   2    8.90    7.40
   3  -4  -2   55.89    6.90
   3  -4  -2   60.39    7.70
   3  -4  -2   54.19   10.20
  -3   4   2   46.90    9.40
  -3   4   2   58.29    7.30
  -3   4   2   48.10    7.00
   2  -4  -2 3727.43   90.29
   2  -4  -2 3897.01   94.19
   2  -4  -2 4030.40   91.49
  -2   4   2 4090.29   90.59
  -2   4   2 4039.20   91.99
   1  -4  -2 1786.52   45.00
   1  -4  -2 1826.02   47.10
   1  -4  -2 1766.62   44.10
  -1   4   2 1788.82   46.90
  -1   4   2 1785.02   50.59
  -1   4   2 1890.41   44.50
   0  -4  -2   -3.00    4.80
   0  -4  -2    5.50    2.80
   0  -4  -2    3.00    3.00
   0  -4  -2    8.70    2.60
   0   4   2    3.90    2.60
   0   4   2   -1.40    5.00
   0   4   2    6.70    2.90
  -1  -4  -2   79.79   10.50
  -1  -4  -2   88.39    7.10
  -1  -4  -2   85.69    6.30
  -1  -4  -2   97.39    7.00
   1   4   2   83.29    6.50
   1   4   2   86.79    6.50
  -2  -4  -2   63.79    8.10
  -2  -4  -2   70.29    6.70
  -2  -4  -2   76.99    6.40
  -2  -4  -2   63.89    5.40
  -2  -4  -2   68.89    9.20
   2   4   2   73.99    6.40
   2   4   2   67.09    7.10
   2   4   2   75.49    6.10
  -3  -4  -2    3.20    3.40
  -3  -4  -2    0.50    4.70
  -3  -4  -2    1.10    3.10
  -3  -4  -2    0.00    2.20
   3   4   2    1.60    3.00
   3   4   2    1.70    3.40
   3   4   2    3.60    2.60
  -4  -4  -2  179.38   10.40
  -4  -4  -2  188.18   11.10
  -4  -4  -2  207.48   14.80
   4   4   2  164.78    9.50
   4   4   2  180.38   12.80
  -5  -4  -2    2.00    3.80
   5   4   2   -0.80    2.80
   5  -5  -2   -8.00    4.90
  -5   5   2   -2.40    4.80
  -5   5   2   -0.90    7.60
  -5   5   2    9.30    5.30
   4  -5  -2    9.40    9.50
   4  -5  -2   10.40    5.90
  -4   5   2    2.70    4.40
  -4   5   2    1.00    4.00
  -4   5   2   -1.90    6.90
   3  -5  -2    1.70    3.50
   3  -5  -2    2.60    4.70
   3  -5  -2    2.40    8.10
  -3   5   2    4.40    3.80
  -3   5   2    6.00    4.30
  -3   5   2    2.60    6.70
   2  -5  -2    7.50    4.00
   2  -5  -2   -2.30    6.20
   2  -5  -2    6.60    4.30
  -2   5   2    2.00    6.20
  -2   5   2   -1.60    3.20
  -2   5   2   10.90    3.80
   1  -5  -2   15.60    4.20
   1  -5  -2   15.70    4.50
   1  -5  -2   11.40    6.90
  -1   5   2   12.10    4.00
  -1   5   2   10.80    4.00
  -1   5   2   12.00    6.50
   0  -5  -2    1.00    3.30
   0  -5  -2   -5.50    5.00
   0  -5  -2   -1.40    3.00
   0   5   2   -3.00    5.10
   0   5   2    0.20    3.00
   0   5   2    0.90    2.60
  -1  -5  -2   14.00    4.60
  -1  -5  -2   13.90    4.00
  -1  -5  -2   13.10    4.00
  -1  -5  -2   16.20    5.60
   1   5   2   12.40    4.00
   1   5   2   13.60    4.20
  -2  -5  -2  169.28    9.80
  -2  -5  -2  213.98   15.70
  -2  -5  -2  184.68   10.60
  -2  -5  -2  181.78   12.30
   2   5   2  174.88   10.10
   2   5   2  170.08   10.90
   2   5   2  168.58    9.80
  -3  -5  -2 1357.46   53.79
  -3  -5  -2 1229.08   33.50
  -3  -5  -2 1273.87   36.40
  -3  -5  -2 1283.87   40.70
  -3  -5  -2 1237.28   35.10
   3   5   2 1264.47   35.20
   3   5   2 1338.07   38.70
   3   5   2 1233.18   34.50
  -4  -5  -2    2.10    3.90
  -4  -5  -2   -3.80    3.50
   4   5   2   -0.90    3.80
   4   5   2   -0.20    4.30
   4   5   2   -1.50    2.90
  -5  -5  -2    6.90    4.70
  -5  -5  -2    6.20    4.50
   5   5   2   -2.10    3.30
   5  -6  -2    0.30    5.80
  -5   6   2   11.50    7.30
  -5   6   2   -2.00    8.20
  -5   6   2   -2.30    4.80
   4  -6  -2    2.20    5.20
  -4   6   2   -3.20    4.60
  -4   6   2   -0.60    4.70
  -4   6   2    1.60    7.40
   3  -6  -2  433.66   19.20
   3  -6  -2  340.87   17.00
   3  -6  -2  439.96   26.90
  -3   6   2  388.66   17.20
  -3   6   2  410.46   17.70
  -3   6   2  388.76   21.30
   2  -6  -2  271.07   19.90
   2  -6  -2  260.87   15.30
   2  -6  -2  245.38   14.00
  -2   6   2  249.38   13.90
  -2   6   2  258.37   14.00
  -2   6   2  253.67   17.10
   1  -6  -2   31.10    5.80
   1  -6  -2   32.90    9.90
   1  -6  -2   34.90    6.40
  -1   6   2   48.50    7.20
  -1   6   2   38.20    6.50
  -1   6   2   33.40    8.80
   0  -6  -2   -1.80    4.00
   0  -6  -2    0.40    3.70
   0  -6  -2   -0.60    6.80
   0   6   2   -2.90    5.70
   0   6   2    2.10    3.40
   0   6   2   -5.50    3.10
  -1  -6  -2   39.10    6.80
  -1  -6  -2   27.00    5.80
  -1  -6  -2   36.70    9.50
  -1  -6  -2   23.10    5.40
   1   6   2   32.30    6.20
   1   6   2   29.00    5.30
  -2  -6  -2   -1.10    3.50
  -2  -6  -2   -1.80    4.00
  -2  -6  -2   34.80   14.40
  -2  -6  -2    9.10    5.40
   2   6   2   -0.10    4.10
   2   6   2    3.50    3.90
   2   6   2   -4.00    2.80
  -3  -6  -2   13.50    8.70
  -4  -6  -2   61.09    8.70
  -4  -6  -2   37.00    6.70
   4   6   2   43.50    7.50
   4   6   2   32.40    7.20
  -5  -6  -2   26.20    7.10
  -5  -6  -2   26.30    6.80
   5  -7  -2   -0.50    6.70
  -5   7   2   -8.00    5.00
  -5   7   2    0.80    8.90
   4  -7  -2    4.50    5.70
  -4   7   2    2.80    5.30
  -4   7   2   -1.50    5.70
  -4   7   2    0.30    7.70
   3  -7  -2    3.20    5.50
  -3   7   2   11.80    7.90
  -3   7   2   -0.50    4.90
  -3   7   2    5.20    4.60
   2  -7  -2   23.00    6.20
   2  -7  -2   33.40   15.00
   2  -7  -2   31.70    6.90
  -2   7   2   34.30    7.10
  -2   7   2   33.20    6.50
  -2   7   2   52.89   11.70
   1  -7  -2    4.10    5.50
   1  -7  -2  -14.00    9.70
   1  -7  -2    6.60    4.70
  -1   7   2   -0.40    6.50
  -1   7   2    1.00    4.10
  -1   7   2   -5.00    3.60
   0  -7  -2    2.80    9.10
   0  -7  -2   -6.60    4.10
   0  -7  -2    1.40    4.70
   0   7   2    3.00    4.20
   0   7   2    2.50    7.50
  -1  -7  -2   15.90    5.70
  -1  -7  -2   17.20    5.80
   1   7   2   26.20    5.70
  -2  -7  -2   90.39   10.10
  -2  -7  -2   61.99    9.00
  -2  -7  -2   57.89    9.80
   2   7   2   76.29    8.90
   2   7   2   75.59   10.00
  -3  -7  -2   34.70    7.00
   3   7   2   52.99    7.90
   3   7   2   37.60    7.70
  -4  -7  -2  -10.40    5.40
  -4  -7  -2    3.80    5.00
   4   7   2   -2.30    3.10
   4  -8  -2   -5.20    6.00
  -4   8   2   24.50    9.70
  -4   8   2    2.80    5.20
   3  -8  -2  139.99   14.00
  -3   8   2  140.99   15.60
  -3   8   2  109.39   12.20
   2  -8  -2    0.60    5.60
  -2   8   2    1.70    6.60
  -2   8   2   -0.50    4.70
   1  -8  -2   -5.00    4.90
  -1   8   2    0.60    4.00
  -1   8   2    1.50    7.10
   0  -8  -2    0.80    5.70
   0  -8  -2    3.00    6.60
   0   8   2  -11.90    6.50
   0   8   2   -8.40    3.80
  -1  -8  -2   -7.60    5.60
  -1  -8  -2   12.90    5.50
   1   8   2    7.80    4.80
  -2  -8  -2   10.00   10.40
  -2  -8  -2   13.50    8.10
  -2  -8  -2    6.50    5.80
   2   8   2   11.80    4.20
   2   8   2   16.00    5.80
  -3  -8  -2   18.40    6.10
   3   8   2    2.00    5.50
   3   8   2    7.70    4.40
   3  -9  -2   -1.10    6.80
  -3   9   2   16.90    7.90
  -3   9   2   -3.00    5.20
   2  -9  -2   16.10    7.20
  -2   9   2    6.80    5.90
  -2   9   2   33.30    9.90
   1  -9  -2    7.80    6.70
  -1   9   2    7.60    8.50
  -1   9   2    3.50    5.20
   0  -9  -2    2.40    5.70
   0   9   2    3.80    5.80
  -1  -9  -2   -3.00    4.40
   1   9   2    2.10    5.80
  -2  -9  -2   21.10    6.60
   2   9   2    8.30    6.70
   2   9   2   -0.80    3.60
  -1  10  -3   28.50   10.80
   2   9  -3   16.40    6.70
   2   9  -3   11.80    6.40
  -2  -9   3   15.60    7.20
   1   9  -3   -8.20    4.90
  -1  -9   3    3.60    6.50
   0   9  -3   -6.00    5.20
   0   9  -3   11.40    8.50
   0  -9   3   -5.30    5.20
  -1   9  -3   -7.10    5.20
  -1   9  -3    2.30    7.60
   1  -9   3   -2.50    6.10
  -2   9  -3    6.70    7.90
   2  -9   3   -2.80    3.30
   2  -9   3   10.10   11.10
  -3   9  -3   -4.10    5.30
   3  -9   3    3.90    4.10
   3  -9   3    7.70    7.30
  -3  -8   3   22.80    8.80
  -3  -8   3   11.30    6.20
   2   8  -3    7.40    5.50
   2   8  -3    7.90    3.30
  -2  -8   3    9.10    5.60
  -2  -8   3   19.30    6.70
   1   8  -3   -5.70    3.80
  -1  -8   3    5.30    5.60
   0   8  -3    4.60    4.80
   0   8  -3    1.20    7.70
   0  -8   3    3.60    5.20
  -1   8  -3   -1.80    6.50
  -1   8  -3    0.70    4.60
  -1   8  -3   -9.20    6.70
   1  -8   3   -5.00    4.90
  -2   8  -3    5.70    5.70
  -2   8  -3    9.70    7.70
  -2   8  -3    9.60    6.30
   2  -8   3    7.90    3.40
   2  -8   3   14.10    6.70
  -3   8  -3    3.80    4.70
  -3   8  -3    5.70    6.40
  -3   8  -3    3.40    6.50
   3  -8   3    2.00    3.30
   3  -8   3   12.90    6.20
  -4   8  -3    2.10    7.40
  -4   8  -3    6.80    7.70
  -4   8  -3   -0.80    4.90
   4  -8   3    7.60    6.70
   4  -8   3   -5.50    3.90
   4   7  -3    7.10    3.10
   4   7  -3    6.00    6.30
  -4  -7   3   -6.70    5.60
  -4  -7   3   -4.10    4.60
   3   7  -3   -0.30    2.20
   3   7  -3    3.90    5.10
  -3  -7   3   11.00    7.00
  -3  -7   3    1.40    4.10
  -3  -7   3   -1.00    4.60
   2   7  -3    1.00    4.80
  -2  -7   3    2.80    7.50
  -2  -7   3   12.60    5.80
  -2  -7   3   11.50    5.40
   1   7  -3   41.00    7.40
   1   7  -3   36.60    7.40
  -1  -7   3   39.80    7.40
   0   7  -3   20.80    7.60
   0   7  -3   31.80    9.10
   0   7  -3   23.00    6.00
   0  -7   3   21.60    6.40
   0  -7   3   15.50    5.40
  -1   7  -3    3.30    6.70
  -1   7  -3    2.90    4.50
  -1   7  -3   -3.30    4.70
   1  -7   3   10.30    5.30
   1  -7   3   -3.70    4.10
  -2   7  -3   11.80    7.60
  -2   7  -3    3.10    4.00
  -2   7  -3    2.60    4.90
   2  -7   3    0.60    2.40
   2  -7   3    8.70    5.70
  -3   7  -3    6.80    5.00
  -3   7  -3    5.10    5.10
  -3   7  -3    4.80    8.00
   3  -7   3   -7.50    4.60
   3  -7   3    0.90    3.40
  -4   7  -3    4.10    4.80
  -4   7  -3    3.90    6.00
  -4   7  -3   -5.00    7.80
   4  -7   3   10.80    5.50
   4  -7   3   -3.30    3.60
  -5   7  -3    6.40    4.90
  -5   7  -3    4.60    7.10
  -5   7  -3   -3.50    8.50
   5  -7   3    0.80    4.50
   5  -7   3    2.40    6.40
   5   6  -3    7.00    6.10
   5   6  -3   -1.20    2.50
  -5  -6   3    0.60    4.30
  -5  -6   3   -6.70    7.10
   4   6  -3   -1.50    2.30
   4   6  -3    7.40    5.40
  -4  -6   3    1.10    4.70
  -4  -6   3    3.60    5.00
   3   6  -3   36.50    7.10
   3   6  -3   30.20    4.50
  -3  -6   3   33.30    6.10
  -3  -6   3   42.80    7.40
   2   6  -3   -1.60    1.60
   2   6  -3   -3.10    3.20
  -2  -6   3   -5.30    3.10
  -2  -6   3   -1.30    3.70
   1   6  -3    2.80    3.90
   1   6  -3   -1.00    3.60
  -1  -6   3    2.40    3.60
  -1  -6   3    6.70    4.30
  -1  -6   3   15.20    6.50
   0   6  -3   -0.60    3.70
   0   6  -3   -0.50    5.50
   0   6  -3    2.30    3.90
   0  -6   3   -4.10    5.40
   0  -6   3   -2.30    3.70
   0  -6   3   -4.40    3.00
  -1   6  -3    8.40    4.20
  -1   6  -3   11.00    6.40
  -1   6  -3   12.20    4.60
   1  -6   3   12.80    8.30
   1  -6   3    7.60    3.80
   1  -6   3    8.10    2.70
   1  -6   3   11.10    4.60
  -2   6  -3   -0.10    3.80
  -2   6  -3    0.50    6.30
  -2   6  -3    0.60    3.90
   2  -6   3   -1.10    2.40
   2  -6   3    4.10    4.40
   2  -6   3   -5.20    7.50
   2  -6   3   -5.80    3.60
  -3   6  -3   -0.50    3.60
  -3   6  -3    3.00    7.20
  -3   6  -3   -0.80    4.00
   3  -6   3   -6.50    3.60
   3  -6   3   -7.80    3.80
   3  -6   3    1.00    3.00
  -4   6  -3   46.20   11.80
  -4   6  -3   43.90    6.90
  -4   6  -3   51.69    8.00
   4  -6   3   48.50    9.20
  -5   6  -3    0.50    4.90
  -5   6  -3   -3.00    5.30
  -5   6  -3    1.20    8.90
   5  -6   3   -6.30    3.40
   5  -6   3    1.10    5.70
  -6   6  -3   15.00    6.60
  -6   6  -3   -1.60   10.00
  -6   6  -3    0.80    5.50
   6  -6   3    7.30    7.00
   6   5  -3    9.40    6.50
  -6  -5   3   -0.90    4.70
  -6  -5   3    7.00    6.50
   5   5  -3    0.10    2.60
   5   5  -3   -0.80    4.50
  -5  -5   3    1.40    4.20
   4   5  -3   84.99    8.00
   4   5  -3   90.49    9.40
  -4  -5   3   87.49    9.10
  -4  -5   3   95.29    9.90
   3   5  -3   18.20    5.10
   3   5  -3   12.00    5.40
   3   5  -3   15.60    3.00
  -3  -5   3    7.20    4.40
  -3  -5   3   20.60    5.20
   2   5  -3   40.70    6.10
   2   5  -3   40.60    5.70
   2   5  -3   44.00    6.80
  -2  -5   3   55.99   10.70
  -2  -5   3   45.30    6.80
  -2  -5   3   31.10    6.00
   1   5  -3   13.50    4.00
   1   5  -3   14.90    4.50
  -1  -5   3   12.20    5.90
  -1  -5   3   16.20    3.90
  -1  -5   3   12.20    3.70
   0   5  -3   16.40    4.30
   0   5  -3   16.00    6.50
   0   5  -3   11.90    4.00
   0  -5   3    9.00    4.30
   0  -5   3   15.80    6.50
   0  -5   3   13.40    3.90
  -1   5  -3    0.10    2.90
  -1   5  -3    5.50    3.50
  -1   5  -3    0.10    5.20
   1  -5   3    0.00    1.70
   1  -5   3    4.90    3.60
   1  -5   3    6.50    6.60
   1  -5   3   -0.10    2.60
  -2   5  -3   18.10    8.00
  -2   5  -3   16.70    4.30
  -2   5  -3   12.90    6.70
   2  -5   3   12.60    4.10
   2  -5   3   11.70    7.70
   2  -5   3   17.00    4.60
   2  -5   3   12.90    4.20
  -3   5  -3   25.10    5.00
  -3   5  -3   18.80    4.60
  -3   5  -3   25.20    9.20
   3  -5   3   31.70    9.60
   3  -5   3   17.40    4.10
   3  -5   3   19.70    4.70
   3  -5   3   25.00    5.00
  -4   5  -3   25.90    5.50
  -4   5  -3   28.30   10.10
  -4   5  -3   21.70    4.60
   4  -5   3   22.30    5.30
   4  -5   3   31.70    5.80
   4  -5   3   32.70    6.00
   4  -5   3   19.50    7.90
  -5   5  -3   -2.00    9.40
  -5   5  -3   29.70    8.70
  -5   5  -3    3.00    7.00
   5  -5   3    9.00    7.40
   5  -5   3   -3.70    4.40
  -6   5  -3   13.40    6.60
  -6   5  -3   -6.30    4.50
  -6   5  -3   -5.10    8.70
   6  -5   3   -0.50    4.00
   6  -5   3    1.90    5.00
   6   4  -3    9.50    5.90
   6   4  -3   10.80    2.80
  -6  -4   3    7.40    5.40
  -6  -4   3   -3.90    4.40
   5   4  -3    8.30    7.80
  -5  -4   3    5.40    4.20
  -5  -4   3   -2.00    4.20
   4   4  -3    2.80    4.00
   4   4  -3    2.40    2.00
  -4  -4   3    0.80    3.60
  -4  -4   3    0.00    3.40
   3   4  -3   10.90    4.20
   3   4  -3    7.70    2.30
   3   4  -3    8.50    3.60
  -3  -4   3    9.30    4.10
  -3  -4   3    5.20    3.50
   2   4  -3   30.70    4.80
   2   4  -3   33.20    5.20
   2   4  -3   22.20    2.90
  -2  -4   3   24.40    4.70
  -2  -4   3   40.00    8.90
  -2  -4   3   26.40    7.50
   1   4  -3  148.29    8.40
   1   4  -3  149.69    8.50
  -1  -4   3  144.99   10.10
  -1  -4   3  149.09    9.70
  -1  -4   3  151.28   10.10
   0   4  -3    3.70    2.40
   0   4  -3   -3.60    3.90
   0   4  -3   -1.10    2.20
   0  -4   3    0.60    5.40
   0  -4   3    3.70    4.20
   0  -4   3   -0.10    2.60
  -1   4  -3  108.39    7.20
  -1   4  -3  114.29    7.80
  -1   4  -3  108.29    9.60
   1  -4   3  102.19    6.90
   1  -4   3  115.49   10.20
   1  -4   3  105.19    6.60
   1  -4   3  117.89    7.70
  -2   4  -3    0.00    5.20
  -2   4  -3   -3.80    2.40
  -2   4  -3    1.30    2.50
   2  -4   3   -0.60    5.00
   2  -4   3    0.40    2.10
   2  -4   3   -1.80    2.70
   2  -4   3   -0.90    2.60
  -3   4  -3  265.97   11.50
  -3   4  -3  241.98   15.30
  -3   4  -3  264.87   11.20
   3  -4   3  276.27   13.90
   3  -4   3  261.87   11.90
   3  -4   3  245.08   15.90
   3  -4   3  245.58   11.20
  -4   4  -3   51.19    8.40
  -4   4  -3   45.10   10.70
  -4   4  -3   47.90    6.70
  -4   4  -3   45.90    6.90
   4  -4   3   32.80    5.50
   4  -4   3   30.00    5.80
   4  -4   3   42.90    6.50
  -5   4  -3    6.90    4.10
  -5   4  -3    1.30    7.60
  -5   4  -3    0.20    3.80
   5  -4   3    2.20    3.90
   5  -4   3   -5.70    3.70
   5  -4   3   -0.10    3.20
  -6   4  -3   21.10    5.50
  -6   4  -3    0.00    5.50
  -6   4  -3    2.60   10.90
   6  -4   3    6.70    5.00
   6   3  -3   -1.00    2.80
   6   3  -3    1.50    4.70
  -6  -3   3    3.40    3.80
  -6  -3   3    7.00    4.70
   5   3  -3  106.99    9.60
   5   3  -3   85.19    8.30
  -5  -3   3   99.99    9.70
  -5  -3   3   99.09    9.10
   4   3  -3   85.59    8.20
   4   3  -3   82.79    7.30
   4   3  -3   77.89    6.60
   4   3  -3   87.69    7.80
  -4  -3   3  101.49   12.30
  -4  -3   3   90.79    8.50
   3   3  -3  144.69    9.00
   3   3  -3  143.09    7.60
   3   3  -3  151.18    9.20
  -3  -3   3  144.69    9.30
  -3  -3   3  141.39    8.80
   2   3  -3 1205.78   32.30
   2   3  -3 1245.88   30.30
   2   3  -3 1257.27   32.70
  -2  -3   3 1200.78   34.10
  -2  -3   3 1219.28   32.30
   1   3  -3  450.55   14.90
   1   3  -3  472.75   15.20
  -1  -3   3  468.95   15.30
  -1  -3   3  470.55   14.90
  -1  -3   3  442.16   16.70
   0   3  -3    7.50    2.60
   0   3  -3    4.60    3.90
   0   3  -3    2.50    2.10
   0  -3   3    1.10    3.70
   0  -3   3    1.90    2.20
   0  -3   3    2.50    2.10
  -1   3  -3  113.89    6.50
  -1   3  -3  106.99    8.90
  -1   3  -3  122.89    6.50
   1  -3   3  116.89    6.70
   1  -3   3  109.59    6.10
   1  -3   3  115.89    8.70
   1  -3   3  116.69    6.30
  -2   3  -3   20.20    6.20
  -2   3  -3   18.80    3.40
  -2   3  -3   14.80    3.10
  -2   3  -3   15.90    3.20
   2  -3   3   15.00    9.10
   2  -3   3    8.80    2.50
   2  -3   3   13.90    3.10
   2  -3   3   14.70    2.90
  -3   3  -3  477.15   15.20
  -3   3  -3  495.85   17.50
  -3   3  -3  488.55   15.20
  -3   3  -3  487.05   20.00
   3  -3   3  478.95   15.40
   3  -3   3  475.85   15.10
   3  -3   3  497.25   18.70
   3  -3   3  477.65   20.90
  -4   3  -3    8.60    3.70
  -4   3  -3   10.60    6.20
  -4   3  -3    5.40    7.30
  -4   3  -3    6.10    3.30
   4  -3   3   10.60    3.60
   4  -3   3    6.80    3.20
   4  -3   3   10.40    3.60
  -5   3  -3   -0.20    3.20
  -5   3  -3    0.30    3.20
  -5   3  -3   10.20    8.20
  -5   3  -3   -6.90    8.10
   5  -3   3    0.00    2.90
  -6   3  -3    8.40    4.60
  -6   3  -3    2.00   10.20
   6  -3   3    4.40    4.60
   7   2  -3    0.20    6.50
  -7  -2   3   26.40    6.10
  -7  -2   3    9.70    6.30
   6   2  -3    0.90    2.80
   6   2  -3   -1.20    4.40
  -6  -2   3   -6.50    3.00
  -6  -2   3   -8.70    5.10
  -6  -2   3    0.20    4.10
   5   2  -3   32.00    5.80
   5   2  -3   14.20    3.80
   5   2  -3   22.80    5.40
  -5  -2   3   12.20    7.60
  -5  -2   3   21.20    5.50
   4   2  -3   17.90    4.50
   4   2  -3   12.90    3.00
   4   2  -3   16.40    4.60
  -4  -2   3   10.00    3.70
  -4  -2   3   12.20    2.60
  -4  -2   3   20.20    5.10
   3   2  -3  273.37   11.70
   3   2  -3  278.47   10.30
   3   2  -3  271.17   11.60
  -3  -2   3  289.77   12.10
  -3  -2   3  282.17   10.30
  -3  -2   3  289.27   11.80
   2   2  -3    2.80    2.60
   2   2  -3    2.40    1.20
   2   2  -3    3.70    2.30
  -2  -2   3    3.30    2.80
  -2  -2   3    3.60    2.40
   1   2  -3    0.30    1.90
   1   2  -3    2.10    1.90
  -1  -2   3   -0.60    2.60
  -1  -2   3    0.80    2.10
  -1  -2   3   -1.60    1.60
   0   2  -3 3281.07   74.99
   0   2  -3 3441.36   76.59
   0   2  -3 3411.06   75.09
   0   2  -3 3396.06   73.59
   0  -2   3 3298.87   74.89
   0  -2   3 3436.06   76.39
   0  -2   3 3313.57   75.19
   0  -2   3 3349.56   73.39
  -1   2  -3  343.47   11.10
  -1   2  -3  328.27   12.20
  -1   2  -3  344.97   10.30
  -1   2  -3  351.76   10.30
   1  -2   3  316.57   10.40
   1  -2   3  339.97   11.20
   1  -2   3  331.77   12.40
   1  -2   3  334.77   10.00
   1  -2   3  323.47   10.40
  -2   2  -3  252.67    8.40
  -2   2  -3  245.98   10.20
  -2   2  -3  261.37    8.50
  -2   2  -3  253.57   12.20
   2  -2   3  247.38    8.60
   2  -2   3  245.68   12.00
   2  -2   3  248.58    8.30
   2  -2   3  233.78   10.70
  -3   2  -3 1264.27   38.50
  -3   2  -3 1360.16   31.90
  -3   2  -3 1344.67   36.40
  -3   2  -3 1297.67   32.00
   3  -2   3 1391.06   37.10
  -4   2  -3  103.39   10.60
  -4   2  -3  111.39   12.00
  -4   2  -3   90.09    8.70
   4  -2   3  104.89    9.30
  -5   2  -3   80.69   11.70
  -5   2  -3   50.69   12.00
   5  -2   3   62.49    9.20
  -6   2  -3   -2.40    9.00
   6  -2   3   -3.00    3.60
   7  -2   3   -1.10    4.40
   7   1  -3    5.20    6.10
   7   1  -3   -1.20    4.10
  -7  -1   3    9.10    5.90
  -7  -1   3   -5.50    5.50
  -7  -1   3   15.50    9.50
   6   1  -3   10.90    5.20
   6   1  -3    3.20    3.70
  -6  -1   3   12.00    5.10
  -6  -1   3    8.20    4.40
   5   1  -3   -4.10    2.50
   5   1  -3    1.40    3.50
   5   1  -3    0.60    6.10
  -5  -1   3   -2.90    3.20
  -5  -1   3   -0.50    2.20
  -5  -1   3   -0.30    3.60
   4   1  -3   97.39    7.90
   4   1  -3  101.09    8.20
  -4  -1   3  102.59    7.70
  -4  -1   3  104.79    7.00
  -4  -1   3  110.79    8.30
   3   1  -3 1907.11   47.10
   3   1  -3 1895.91   46.70
  -3  -1   3 1878.81   48.90
  -3  -1   3 1984.10   47.40
  -3  -1   3 1984.60   45.80
   2   1  -3   16.40    3.20
   2   1  -3   15.10    3.10
  -2  -1   3   19.00    2.70
  -2  -1   3   15.50    3.30
  -2  -1   3   17.20    3.40
   1   1  -3  244.28    8.50
   1   1  -3  234.28    8.40
  -1  -1   3  237.88    8.70
  -1  -1   3  241.78    8.50
   0   1  -3   90.39    4.00
   0   1  -3   89.49    4.20
   0   1  -3   84.59    4.70
   0   1  -3   86.89    4.20
   0  -1   3   91.99    4.10
   0  -1   3   85.49    5.00
   0  -1   3   88.49    4.30
  -1   1  -3  176.18    6.90
  -1   1  -3  165.78    7.60
  -1   1  -3  170.98    7.20
  -1   1  -3  170.98    7.20
   1  -1   3  167.98    7.40
   1  -1   3  170.78    7.30
   1  -1   3  180.38    7.50
  -2   1  -3  186.08    8.60
  -2   1  -3  177.28    9.50
  -2   1  -3  175.08    8.90
  -2   1  -3  180.88    9.30
   2  -1   3  179.88    8.80
  -3   1  -3   29.60    6.20
  -3   1  -3   17.10    3.10
   3  -1   3   17.80    3.30
  -4   1  -3    3.60    4.50
  -4   1  -3   -2.20    6.40
  -4   1  -3   -2.10    2.30
   4  -1   3   -0.60    2.50
  -5   1  -3   11.40    9.20
  -5   1  -3   16.10    8.10
  -6   1  -3   30.40   12.40
  -7   1  -3    0.80   11.60
   7  -1   3    6.90    4.50
   7   0  -3  -11.40    6.00
  -7   0   3    6.70    5.80
  -7   0   3    4.20    9.70
   6   0  -3    8.20    4.90
   6   0  -3    3.40    3.40
  -6   0   3   -0.10    4.20
  -6   0   3    3.60    4.60
  -6   0   3   -3.70   16.00
   5   0  -3   15.00    4.50
   5   0  -3   11.60    4.30
  -5   0   3    8.80    4.30
  -5   0   3    3.00    3.30
  -5   0   3    6.80    2.70
   4   0  -3    9.90    3.90
   4   0  -3   10.10    3.50
  -4   0   3    5.10    2.30
  -4   0   3   11.80    4.40
   3   0  -3 2449.16   58.49
   3   0  -3 2407.76   57.19
  -3   0   3 2454.35   57.49
  -3   0   3 2405.36   56.39
  -3   0   3 2453.15   57.49
   2   0  -3  135.39    6.70
   2   0  -3  142.09    6.80
  -2   0   3  139.69    6.80
  -2   0   3  141.59    6.90
   1   0  -3 2049.99   46.70
   1   0  -3 2070.79   46.70
  -1   0   3 1974.70   46.50
  -1   0   3 2128.09   46.80
   0   0  -3  588.04   14.20
   0   0  -3  614.44   14.30
   0   0  -3  570.74   14.20
   0   0   3  574.94   14.20
   0   0   3  603.34   14.20
  -1   0  -3 3892.21   87.89
  -1   0  -3 3858.01   86.89
  -1   0  -3 3920.31   87.29
  -1   0  -3 3981.00   86.99
   1   0   3 3926.71   88.29
   1   0   3 4039.10   87.09
   1   0   3 3948.60   87.29
  -2   0  -3  421.46   15.50
  -2   0  -3  440.46   14.60
   2   0   3  420.16   14.10
   2   0   3  433.06   14.40
  -3   0  -3  688.53   24.00
  -3   0  -3  702.03   22.20
   3   0   3  775.92   27.20
  -4   0  -3   86.29    8.20
  -4   0  -3   84.19   12.60
  -4   0  -3   91.89   10.60
   4   0   3   85.69    8.40
  -5   0  -3  202.08   18.10
  -5   0  -3  193.68   14.90
  -5   0  -3  190.78   13.30
   5   0   3  166.08   13.20
  -6   0  -3   -1.30    9.50
   6   0   3   -1.70    3.60
  -7   0  -3    8.50   11.70
   7  -1  -3    0.70    4.80
   7  -1  -3   -2.50    7.00
  -7   1   3    2.10   10.50
  -7   1   3    3.70    5.70
  -7   1   3   -5.30    4.60
   6  -1  -3   27.40    6.00
   6  -1  -3   31.80    7.10
  -6   1   3   35.30    7.00
  -6   1   3   29.30   14.40
   5  -1  -3    8.30    4.50
   5  -1  -3    5.50    3.90
  -5   1   3    0.70    2.40
  -5   1   3   10.10    7.30
  -5   1   3    3.40    4.00
  -5   1   3    1.00    4.50
   4  -1  -3   61.49    6.70
   4  -1  -3   65.99    7.30
  -4   1   3   52.49    7.00
  -4   1   3   66.19    7.30
  -4   1   3   51.39   10.40
   3  -1  -3  550.84   17.30
   3  -1  -3  555.64   17.20
  -3   1   3  545.35   17.10
  -3   1   3  549.05   20.50
  -3   1   3  571.04   17.20
   2  -1  -3  310.67   10.80
   2  -1  -3  300.47   10.60
  -2   1   3  316.17   10.70
  -2   1   3  318.17   10.80
  -2   1   3  319.37   12.50
   1  -1  -3  280.47   10.00
   1  -1  -3  294.47    9.60
   1  -1  -3  291.67    9.50
  -1   1   3  301.97    9.50
  -1   1   3  303.27    9.40
  -1   1   3  304.87    9.40
   0  -1  -3 1521.15   35.10
   0  -1  -3 1501.15   35.00
   0   1   3 1595.44   35.10
   0   1   3 1609.14   35.00
   0   1   3 1570.94   36.50
  -1  -1  -3 2675.03   61.89
  -1  -1  -3 2664.83   60.69
  -1  -1  -3 2649.83   60.49
   1   1   3 2717.03   60.89
   1   1   3 2644.94   62.09
  -2  -1  -3  302.97   11.30
  -2  -1  -3  296.37   13.00
  -2  -1  -3  305.57   11.60
   2   1   3  297.27   11.20
   2   1   3  285.27   11.40
  -3  -1  -3   39.60    5.80
  -3  -1  -3   41.80    7.10
  -3  -1  -3   22.20    3.40
   3   1   3   39.40    5.90
   3   1   3   30.20    4.90
  -4  -1  -3  270.37   15.60
  -4  -1  -3  239.48   13.10
   4   1   3  221.98   13.50
  -5  -1  -3  130.39   11.50
   5   1   3  140.69   11.70
  -6  -1  -3   12.60    9.70
   6   1   3    3.70    4.90
   7  -2  -3   -3.20    4.00
   7  -2  -3  -13.00    6.60
  -7   2   3   -8.20    9.10
  -7   2   3   -7.70    6.00
   6  -2  -3    3.00    4.50
   6  -2  -3   -0.10    5.50
  -6   2   3   -3.30    4.60
  -6   2   3   -1.00    4.80
  -6   2   3    0.50   14.90
   5  -2  -3   10.80    5.00
   5  -2  -3   12.40    4.80
  -5   2   3   15.10    5.40
  -5   2   3   12.90    8.30
  -5   2   3   10.20    5.20
   4  -2  -3  118.29    8.70
   4  -2  -3  137.19    9.50
  -4   2   3  127.39    8.90
  -4   2   3  130.19    9.10
  -4   2   3  123.59   12.20
   3  -2  -3  224.68   10.30
   3  -2  -3  205.18    9.80
  -3   2   3  206.58   12.10
  -3   2   3  224.58   10.70
  -3   2   3  212.18    9.80
   2  -2  -3   18.00    3.50
   2  -2  -3   21.10    5.10
   2  -2  -3   16.70    3.60
  -2   2   3   20.20    3.50
  -2   2   3   26.10    5.30
  -2   2   3   20.00    3.60
   1  -2  -3    2.00    3.00
   1  -2  -3    1.00    2.10
   1  -2  -3   -0.30    2.30
  -1   2   3    1.60    2.10
  -1   2   3   -1.10    2.20
   0  -2  -3  471.05   13.80
   0  -2  -3  450.75   13.00
   0  -2  -3  455.85   12.80
   0   2   3  476.95   12.80
   0   2   3  447.06   13.80
   0   2   3  471.15   13.90
   0   2   3  466.75   12.90
  -1  -2  -3    1.80    1.40
  -1  -2  -3    4.70    1.70
  -1  -2  -3    1.40    1.80
  -1  -2  -3    1.20    2.80
   1   2   3    3.40    1.70
   1   2   3    3.30    1.70
   1   2   3    2.10    1.60
   1   2   3    3.70    2.90
  -2  -2  -3   20.50    5.20
  -2  -2  -3   10.60    2.20
  -2  -2  -3   10.80    2.10
   2   2   3    7.40    2.40
  -3  -2  -3   10.30    2.80
  -3  -2  -3   25.60    6.30
  -3  -2  -3   14.40    3.10
   3   2   3   15.30    3.10
   3   2   3   16.10    3.30
  -4  -2  -3  348.07   18.50
  -4  -2  -3  345.97   16.40
   4   2   3  359.56   16.80
   4   2   3  373.76   16.00
   5   2   3    8.20    3.50
   6   2   3    1.60    3.50
   7  -3  -3   -3.10    7.00
  -7   3   3    2.90    6.30
  -7   3   3   -4.10    9.70
   6  -3  -3    7.30    6.10
  -6   3   3   12.30    5.30
  -6   3   3   -0.40    8.10
  -6   3   3    6.10    5.40
   5  -3  -3    5.00    6.50
   5  -3  -3    5.50    4.40
  -5   3   3    6.50    4.90
  -5   3   3    0.60    7.10
  -5   3   3   -0.10    3.90
   4  -3  -3   90.09    9.10
   4  -3  -3   82.19    8.10
  -4   3   3   90.89    8.20
  -4   3   3   96.79    8.60
  -4   3   3   78.29   11.80
   3  -3  -3  287.67   12.90
   3  -3  -3  246.88   15.60
   3  -3  -3  268.97   11.90
  -3   3   3  273.77   14.40
  -3   3   3  296.37   12.30
  -3   3   3  277.97   12.40
   2  -3  -3  157.68    9.00
   2  -3  -3  149.88    9.90
   2  -3  -3  155.48    9.90
  -2   3   3  153.08   10.00
  -2   3   3  153.88    8.30
  -2   3   3  158.08    8.20
   1  -3  -3  133.29    7.40
   1  -3  -3  125.09    8.30
   1  -3  -3  118.99    6.90
  -1   3   3  129.09    7.00
  -1   3   3  125.89    6.90
  -1   3   3  121.69    8.60
   0  -3  -3   -0.40    2.10
   0  -3  -3   -5.60    3.20
   0  -3  -3    0.40    2.30
   0   3   3   -1.30    1.90
   0   3   3    0.00    3.20
   0   3   3   -0.10    2.50
   0   3   3    2.40    2.20
  -1  -3  -3    6.20    3.50
  -1  -3  -3    4.30    3.80
  -1  -3  -3   10.50    2.60
  -1  -3  -3    6.00    2.50
   1   3   3    7.00    2.50
   1   3   3    2.50    3.20
   1   3   3    8.60    2.40
  -2  -3  -3  164.88   10.90
  -2  -3  -3  169.88    8.00
  -2  -3  -3  161.98    8.20
  -2  -3  -3  175.18    7.70
   2   3   3  177.08   10.20
   2   3   3  175.08    9.60
   2   3   3  176.88    7.60
  -3  -3  -3  795.62   24.40
  -3  -3  -3  800.72   22.80
  -3  -3  -3  812.22   28.30
  -3  -3  -3  787.92   22.00
   3   3   3  801.62   25.80
  -4  -3  -3   97.59    7.10
  -4  -3  -3  106.59   12.20
   4   3   3  108.59    9.10
   4   3   3   93.09   10.40
   5   3   3    2.10    2.80
   5   3   3    3.60    3.20
   6   3   3    2.30    3.90
  -7   4   3   -8.00    5.70
   6  -4  -3    6.60    6.50
  -6   4   3   -8.10    5.30
  -6   4   3   -8.70    8.20
  -6   4   3    1.50    5.00
   5  -4  -3    9.80    5.40
  -5   4   3    9.30    4.90
  -5   4   3   10.90    5.20
  -5   4   3    8.40    8.00
   4  -4  -3    4.00    4.10
   4  -4  -3    8.30    5.10
  -4   4   3    6.00    4.40
  -4   4   3   10.70    7.30
  -4   4   3   10.90    4.50
   3  -4  -3    4.10    4.40
   3  -4  -3    8.60    7.00
   3  -4  -3    6.00    3.50
  -3   4   3    9.10    4.30
  -3   4   3    8.90    6.40
  -3   4   3    2.40    3.90
   2  -4  -3   43.90   10.20
   2  -4  -3   59.69    8.20
  -2   4   3   59.29    8.20
  -2   4   3   37.00    5.90
   1  -4  -3  187.78   11.10
   1  -4  -3  189.68   10.00
   1  -4  -3  192.98   11.80
  -1   4   3  179.48   11.30
  -1   4   3  180.38    9.50
  -1   4   3  190.78    9.70
   0  -4  -3   15.90    3.70
   0  -4  -3   18.60    5.70
   0   4   3   21.80    4.20
   0   4   3   19.80    3.70
   0   4   3   18.80    3.70
   0   4   3   19.30    6.40
  -1  -4  -3   23.50    4.20
  -1  -4  -3   22.30    4.20
  -1  -4  -3   21.70    4.70
  -1  -4  -3   19.20   10.30
   1   4   3   30.30    4.60
   1   4   3   26.10    4.20
  -2  -4  -3   -3.60    4.60
  -2  -4  -3   -6.40    2.70
  -2  -4  -3    0.60    4.10
  -2  -4  -3   -0.50    2.80
  -2  -4  -3    1.30    1.90
   2   4   3   -1.30    2.80
   2   4   3    1.70    2.00
   2   4   3   -1.70    2.80
  -3  -4  -3   -1.00    2.30
  -3  -4  -3    6.30    4.00
  -3  -4  -3    9.10    3.70
  -3  -4  -3    7.20    5.70
   3   4   3    4.50    3.20
   3   4   3    4.80    3.50
   3   4   3    6.00    3.60
  -4  -4  -3   20.00    4.90
  -4  -4  -3   23.10    7.00
  -4  -4  -3   16.90    4.30
   4   4   3   10.40    3.80
  -5  -4  -3    4.10    4.10
   5   4   3   -2.70    3.00
   6  -5  -3    8.10    6.80
  -6   5   3    6.00    6.00
  -6   5   3    7.40    6.70
  -6   5   3    5.30    9.10
   5  -5  -3    8.00    6.00
  -5   5   3    9.20    8.60
  -5   5   3   11.40    5.40
  -5   5   3   10.50    6.20
   4  -5  -3   30.00    7.00
   4  -5  -3   27.30   13.00
  -4   5   3   25.40    5.90
  -4   5   3   22.40    8.60
  -4   5   3   23.60    5.80
   3  -5  -3    2.50    4.60
   3  -5  -3    6.40    8.50
   3  -5  -3    0.30    4.10
  -3   5   3    4.70    7.40
  -3   5   3    2.00    4.30
  -3   5   3    0.20    4.20
   2  -5  -3  135.19    9.80
   2  -5  -3  154.48   13.50
   2  -5  -3  146.19   11.00
  -2   5   3  172.48   10.20
  -2   5   3  137.59   13.20
  -2   5   3  151.08   10.10
   1  -5  -3   16.20    4.20
   1  -5  -3   16.20    5.00
   1  -5  -3   21.60    7.60
  -1   5   3   18.00    4.40
  -1   5   3   19.70    4.80
  -1   5   3   18.30    7.10
   0  -5  -3   44.10    6.60
   0  -5  -3   51.39    6.80
   0  -5  -3   47.70    8.80
   0   5   3   39.70    6.00
   0   5   3   43.80    6.00
   0   5   3   50.79    8.90
  -1  -5  -3   42.00    6.40
  -1  -5  -3   51.59    8.90
  -1  -5  -3   33.70    5.30
  -1  -5  -3   38.20    6.80
   1   5   3   38.90    5.80
   1   5   3   39.60    5.80
  -2  -5  -3  268.37   12.90
  -2  -5  -3  258.07   10.90
  -2  -5  -3  325.27   18.10
  -2  -5  -3  254.07   14.80
  -2  -5  -3  258.67   12.10
   2   5   3  271.87   12.40
   2   5   3  276.47   14.10
   2   5   3  268.07   12.00
  -3  -5  -3  297.77   14.40
  -3  -5  -3  260.47   13.10
  -3  -5  -3  251.47   12.50
  -3  -5  -3  319.07   18.40
  -3  -5  -3  342.07   26.50
   3   5   3  269.67   13.00
   3   5   3  278.37   15.90
   3   5   3  267.07   12.80
  -4  -5  -3   28.10    5.80
  -4  -5  -3   26.20    5.60
   4   5   3   31.60    5.20
   4   5   3   18.70    4.60
   4   5   3   29.90    5.60
  -5  -5  -3   -3.00    4.50
  -5  -5  -3    3.30    4.60
   5   5   3    0.20    3.80
   5  -6  -3   -0.70    6.10
  -5   6   3   -1.00    5.00
  -5   6   3    7.00    8.90
  -5   6   3    1.90    5.80
   4  -6  -3   -2.30    5.50
  -4   6   3   13.60    5.70
  -4   6   3   10.70    8.20
  -4   6   3   -0.10    8.50
   3  -6  -3  257.87   14.80
   3  -6  -3  290.87   16.70
   3  -6  -3  296.77   28.20
  -3   6   3  256.37   18.40
  -3   6   3  265.17   15.00
  -3   6   3  298.57   15.20
   2  -6  -3  158.88   12.70
   2  -6  -3  181.48   18.60
   2  -6  -3  160.48   11.60
  -2   6   3  155.38   11.60
  -2   6   3  153.28   14.00
  -2   6   3  155.58   11.40
   1  -6  -3   12.80    5.10
   1  -6  -3    6.50    4.30
   1  -6  -3   11.90    8.60
  -1   6   3    4.80    6.00
  -1   6   3   14.30    4.30
  -1   6   3   21.60    5.60
   0  -6  -3    2.50    4.20
   0  -6  -3   -6.20    6.40
   0  -6  -3    2.60    4.10
   0   6   3    5.40    3.80
   0   6   3   -3.30    3.00
   0   6   3    3.00    5.90
  -1  -6  -3   25.10    8.50
  -1  -6  -3   15.60    5.30
  -1  -6  -3   13.50    5.90
  -1  -6  -3    8.20    4.30
   1   6   3   20.60    7.70
   1   6   3   10.40    4.60
  -2  -6  -3    0.90    4.20
  -2  -6  -3    7.40    4.20
  -2  -6  -3   18.80    6.40
   2   6   3    6.30    4.60
   2   6   3    3.40    3.40
   2   6   3   12.10    4.90
  -3  -6  -3   72.79   12.70
  -4  -6  -3    2.70    4.40
  -4  -6  -3   -5.60    4.90
   4   6   3    7.00    4.50
   4   6   3    0.40    3.50
  -5  -6  -3    7.20    5.40
  -5  -6  -3  -10.40    5.40
   5   6   3   -0.80    3.90
   5  -7  -3    5.10    7.50
  -5   7   3   -5.40    8.10
  -5   7   3    0.80    5.80
   4  -7  -3   -5.10    5.60
  -4   7   3   -9.40    4.60
  -4   7   3    6.60   10.30
   3  -7  -3    6.00    5.70
  -3   7   3    2.10    7.50
  -3   7   3    9.50    5.30
  -3   7   3   -5.00    5.10
   2  -7  -3   -7.10   12.80
   2  -7  -3    0.10    5.00
   2  -7  -3   -5.50    4.30
  -2   7   3    1.50    6.00
  -2   7   3    1.40    4.50
  -2   7   3   -3.40    3.60
   1  -7  -3   -3.70    4.10
   1  -7  -3  -12.90   11.10
   1  -7  -3    0.30    4.90
  -1   7   3    5.00    4.50
  -1   7   3    7.50    6.70
  -1   7   3    5.20    4.20
   0  -7  -3    1.80    4.70
   0  -7  -3  -10.40    4.30
   0  -7  -3    9.50   11.80
   0   7   3   -2.00    4.00
   0   7   3    2.70    6.40
  -1  -7  -3    5.10    4.60
  -1  -7  -3    5.70    5.20
   1   7   3    6.30    4.40
  -2  -7  -3  510.05   22.20
  -2  -7  -3  485.35   21.50
  -2  -7  -3  442.06   19.40
   2   7   3  462.35   21.10
   2   7   3  498.25   20.20
  -3  -7  -3   -1.40    5.00
  -3  -7  -3   10.00    5.10
  -3  -7  -3   21.20    9.00
   3   7   3    1.10    3.70
   3   7   3   -2.90    7.30
  -4  -7  -3    7.70    5.00
  -4  -7  -3   -4.50    5.80
   4   7   3   -3.10    5.70
   4   7   3   -1.20    3.50
   4  -8  -3   51.49   12.50
  -4   8   3   35.30    8.30
   3  -8  -3   23.50    8.40
  -3   8   3   19.60    7.00
   2  -8  -3    8.20    6.30
  -2   8   3   13.60    6.00
  -2   8   3    9.00    7.80
   1  -8  -3    0.90    5.40
  -1   8   3   -1.60    7.60
  -1   8   3   -1.10    4.50
   0  -8  -3    4.70    5.80
   0  -8  -3   -5.30    5.60
   0   8   3    6.30    4.80
   0   8   3    1.40    7.50
  -1  -8  -3    7.40    5.00
  -1  -8  -3   -4.80    6.00
   1   8   3    2.50    5.00
  -2  -8  -3  -16.20    7.30
  -2  -8  -3    4.10    4.80
  -2  -8  -3   -2.30    8.60
   2   8   3   -1.70    3.30
   2   8   3    8.90    5.10
  -3  -8  -3    3.90    7.70
  -3  -8  -3   14.30    5.80
   3   8   3    5.10    5.70
   3   8   3   11.30    4.50
   3  -9  -3   -7.00    7.00
  -3   9   3   19.10    7.30
  -3   9   3    2.90    6.10
   2  -9  -3    0.20    6.70
  -2   9   3   13.10    8.60
  -2   9   3   -8.30    5.10
   1  -9  -3    4.90    6.60
  -1   9   3   13.00    8.50
  -1   9   3   -1.70    5.20
   0  -9  -3    6.10    6.30
   0   9   3   -2.40    4.70
  -1  -9  -3   45.60    8.70
   1   9   3   27.00    7.40
  -2  -9  -3   16.60    6.50
   2   9  -4    8.30    3.80
   2   9  -4   13.80    6.70
  -2  -9   4    7.00    7.20
   1   9  -4   10.30    6.40
  -1  -9   4   10.90    6.00
   0   9  -4   10.70    6.10
   0   9  -4   16.30    9.10
   0  -9   4   -1.90    5.70
  -1   9  -4    6.20    8.20
  -1   9  -4    4.00    5.70
   1  -9   4   -3.20    6.40
  -2   9  -4   -0.10    4.90
  -2   9  -4   10.80    7.50
   2  -9   4   -3.00    2.80
   2  -9   4   -7.70    5.70
  -3   9  -4   29.60    8.50
  -3   9  -4   10.00    5.80
   3  -9   4   11.10    7.40
   3  -9   4   11.80    4.40
   2   8  -4   10.20    5.50
   2   8  -4    1.40    2.60
  -2  -8   4    0.10    4.90
   1   8  -4   -8.30    3.70
  -1  -8   4    0.20    5.40
   0   8  -4   12.40    6.20
   0   8  -4   19.20   12.90
   0  -8   4   -3.30    5.50
  -1   8  -4    3.10   14.40
  -1   8  -4   10.90    5.40
  -1   8  -4    0.50    6.00
   1  -8   4    0.30    5.20
  -2   8  -4    3.50    6.40
  -2   8  -4   -2.20    4.20
   2  -8   4   -2.00    5.60
  -3   8  -4    8.50    5.60
  -3   8  -4    4.60    6.70
  -3   8  -4   14.80    8.80
   3  -8   4   13.30    3.90
   3  -8   4   25.60    7.50
  -4   8  -4   -8.70    6.90
  -4   8  -4   13.80    9.00
   4  -8   4    3.70    6.00
   4   7  -4   -2.80    2.60
   4   7  -4   -7.60    5.10
  -4  -7   4   -4.80    4.60
  -4  -7   4  -12.10    6.70
   3   7  -4  102.99    9.10
   3   7  -4  123.79   12.10
  -3  -7   4  100.49   11.80
  -3  -7   4  108.09   11.30
   2   7  -4    1.40    4.60
  -2  -7   4    2.10    4.30
  -2  -7   4   -7.50    4.20
   1   7  -4   20.50    6.10
   1   7  -4   16.80    6.10
  -1  -7   4   27.90    6.50
  -1  -7   4   18.10    6.80
   0   7  -4    2.70    6.20
   0   7  -4    2.80    4.90
   0   7  -4    5.40    7.60
   0  -7   4   -1.00    4.50
   0  -7   4    8.90    5.30
  -1   7  -4    0.90    4.00
  -1   7  -4    1.90    4.90
  -1   7  -4    1.50    6.70
   1  -7   4    2.50    4.60
   1  -7   4   -6.30    3.20
  -2   7  -4   15.70    7.90
  -2   7  -4    3.60    4.20
  -2   7  -4   15.10    6.00
   2  -7   4   13.60    6.00
   2  -7   4    5.70    3.00
  -3   7  -4   -4.70    4.00
  -3   7  -4    1.10    7.70
  -3   7  -4   -2.20    5.10
   3  -7   4    3.80    5.10
   3  -7   4   -2.00    3.30
  -4   7  -4    4.80    6.00
  -4   7  -4    6.10    8.10
  -4   7  -4   -2.30    4.80
   4  -7   4    6.50    6.00
  -5   7  -4    3.90    6.60
  -5   7  -4   19.00   10.60
  -5   7  -4    1.00    5.00
   5  -7   4   -4.70    6.70
   5  -7   4    0.70    4.10
   5   6  -4   16.80    6.50
  -5  -6   4   15.90    6.50
  -5  -6   4   13.70    5.60
   4   6  -4   11.80    6.00
  -4  -6   4   19.50    6.00
  -4  -6   4   15.90    6.20
   3   6  -4   58.69    7.00
   3   6  -4   70.79    9.20
  -3  -6   4   56.49    9.20
  -3  -6   4   50.99    7.90
   2   6  -4    0.30    3.80
   2   6  -4   -1.40    3.70
  -2  -6   4    0.40    3.60
  -2  -6   4   -0.60    4.00
   1   6  -4   31.70    5.80
   1   6  -4   26.00    5.70
  -1  -6   4   35.50    7.50
  -1  -6   4   36.80    6.40
   0   6  -4   -4.70    3.10
   0   6  -4    4.20    6.10
   0   6  -4   -3.20    3.70
   0  -6   4    3.40    4.30
   0  -6   4    6.90    3.70
   0  -6   4    5.50    6.40
  -1   6  -4  100.69    9.00
  -1   6  -4   87.89   11.20
  -1   6  -4   89.89    9.20
   1  -6   4   81.39    8.10
   1  -6   4   92.39    6.80
   1  -6   4  109.39    9.80
   1  -6   4   92.89   13.40
  -2   6  -4   38.40    6.50
  -2   6  -4   46.80   10.70
  -2   6  -4   44.90    7.20
   2  -6   4   29.10    4.60
   2  -6   4   37.80    9.60
   2  -6   4   42.60    7.30
   2  -6   4   47.80   14.20
  -3   6  -4   -1.20    3.80
  -3   6  -4    3.10    3.90
  -3   6  -4    1.70    7.80
   3  -6   4   -8.00    6.90
   3  -6   4   -2.50    5.30
   3  -6   4   -1.30    2.80
   3  -6   4    0.80    4.20
  -4   6  -4   -2.20    7.40
  -4   6  -4   -5.40    4.80
  -4   6  -4    3.50    4.20
   4  -6   4   -2.70    3.90
   4  -6   4    0.80    3.50
  -5   6  -4   -0.90    9.20
  -5   6  -4   -4.30    4.40
  -5   6  -4    7.70    5.60
   5  -6   4   -5.50    5.10
   5  -6   4   -5.80    3.50
  -6  -5   4    3.80    5.60
  -6  -5   4    1.50    6.80
   5   5  -4    3.00    4.80
  -5  -5   4   -6.20    4.80
  -5  -5   4    8.50    4.60
   4   5  -4    1.70    4.40
   4   5  -4    2.00    2.40
  -4  -5   4    1.90    4.20
  -4  -5   4    0.60    4.20
   3   5  -4   11.80    4.70
   3   5  -4   15.20    5.00
  -3  -5   4   12.40    4.80
  -3  -5   4   15.90    4.90
   2   5  -4  142.69    7.90
   2   5  -4  119.89    9.40
   2   5  -4  137.69    9.70
  -2  -5   4  126.89    9.30
  -2  -5   4  141.69   10.40
  -2  -5   4  129.79   12.90
   1   5  -4   89.89    7.90
   1   5  -4   97.59    8.40
  -1  -5   4   86.49    7.60
  -1  -5   4   83.89   10.10
  -1  -5   4   92.99    8.50
   0   5  -4   52.49    6.60
   0   5  -4   72.49    7.10
   0   5  -4   56.49    9.30
   0  -5   4   59.39    7.30
   0  -5   4   56.49    6.40
   0  -5   4   68.99    9.90
  -1   5  -4   -2.30    4.80
  -1   5  -4   -1.10    3.00
  -1   5  -4   -3.80    3.10
   1  -5   4    0.10    3.50
   1  -5   4    3.00    6.50
   1  -5   4    5.30    3.10
   1  -5   4   -1.00    1.80
  -2   5  -4   -4.10    6.40
  -2   5  -4   -2.50    3.40
  -2   5  -4    0.00    3.10
   2  -5   4    0.80    2.30
   2  -5   4    0.80    3.60
   2  -5   4   -2.70    2.90
   2  -5   4   -7.60    6.20
  -3   5  -4    1.20    7.30
  -3   5  -4    5.40    3.70
  -3   5  -4    4.40    3.90
   3  -5   4   -0.20    2.60
   3  -5   4    3.70    7.90
   3  -5   4    5.60    4.20
   3  -5   4    1.10    3.80
  -4   5  -4    5.40    8.50
  -4   5  -4    7.60    3.80
  -4   5  -4   10.90    7.70
  -4   5  -4    6.70    3.80
   4  -5   4    6.20    4.10
   4  -5   4    1.70    3.20
   4  -5   4   16.70    4.80
  -5   5  -4   -0.40    4.20
  -5   5  -4   21.40    9.20
  -5   5  -4    2.20    8.30
  -5   5  -4   -4.70    3.90
   5  -5   4    5.80    4.00
   6   4  -4    2.60    2.80
   6   4  -4    4.00    5.60
  -6  -4   4   -1.10    5.50
  -6  -4   4    7.60    5.30
   5   4  -4    6.80    4.90
  -5  -4   4   -0.40    6.50
  -5  -4   4    5.80    4.70
   4   4  -4   86.59    8.90
   4   4  -4   59.19    6.60
  -4  -4   4   51.19    7.50
  -4  -4   4   64.09    8.30
   3   4  -4   16.40    6.10
   3   4  -4   11.70    4.50
   3   4  -4    6.70    2.10
  -3  -4   4    5.70    4.00
  -3  -4   4    9.80    4.40
  -3  -4   4   20.40    8.70
   2   4  -4   12.90    4.40
   2   4  -4    7.40    3.60
   2   4  -4    7.30    2.00
  -2  -4   4   16.30    6.80
  -2  -4   4    4.50    3.80
  -2  -4   4    6.80    3.50
   1   4  -4    0.00    2.20
   1   4  -4    4.10    2.80
  -1  -4   4   -4.90    3.50
  -1  -4   4    2.00    2.50
  -1  -4   4    2.50    3.10
   0   4  -4    1.00    2.40
   0   4  -4   -0.80    4.00
   0   4  -4    0.40    2.50
   0  -4   4   -1.50    2.80
   0  -4   4   -1.10    4.40
   0  -4   4    2.80    2.40
  -1   4  -4    7.50    7.00
  -1   4  -4    9.20    3.30
  -1   4  -4    8.80    3.40
   1  -4   4    5.70    2.90
   1  -4   4   11.70    5.90
   1  -4   4    5.10    2.10
   1  -4   4    5.60    3.20
  -2   4  -4    9.10    3.60
  -2   4  -4   11.10    6.60
  -2   4  -4    5.80    3.30
   2  -4   4    2.40    5.70
   2  -4   4    5.50    2.50
   2  -4   4    8.80    3.20
   2  -4   4   10.00    3.60
  -3   4  -4  189.18   10.50
  -3   4  -4  201.18    9.70
  -3   4  -4  199.38    9.90
  -3   4  -4  175.38   13.90
   3  -4   4  172.28    9.40
   3  -4   4  185.48   14.20
   3  -4   4  190.08    9.80
   3  -4   4  182.68   11.70
  -4   4  -4   53.09    8.90
  -4   4  -4   57.79    6.90
  -4   4  -4   50.99   10.80
  -4   4  -4   60.49    6.80
   4  -4   4   58.39    8.80
   4  -4   4   56.79    7.20
   4  -4   4   84.49   14.30
   4  -4   4   51.09    6.90
  -5   4  -4   -5.60    3.60
  -5   4  -4   21.60    9.70
  -5   4  -4    3.50    3.90
  -5   4  -4    2.50    8.00
   5  -4   4    0.10    3.20
  -6   4  -4    2.40   10.00
   6  -4   4    2.60    4.20
   6   3  -4    1.40    5.20
   6   3  -4   -4.80    2.60
  -6  -3   4   -2.20    3.80
  -6  -3   4    2.20    5.00
   5   3  -4  130.19   11.40
   5   3  -4  100.49    8.80
  -5  -3   4  115.89   10.50
  -5  -3   4  114.39    9.80
   4   3  -4   65.79    7.80
   4   3  -4   73.39    7.60
   4   3  -4   61.29    6.00
  -4  -3   4   64.09    7.70
  -4  -3   4   62.69    7.00
   3   3  -4    6.80    3.50
   3   3  -4    6.30    1.90
   3   3  -4    4.30    3.20
  -3  -3   4    7.70    3.80
   2   3  -4    0.30    1.20
   2   3  -4    0.90    2.40
   2   3  -4   -1.20    2.60
  -2  -3   4    0.60    4.10
  -2  -3   4    6.70    4.70
  -2  -3   4   -1.50    2.30
   1   3  -4  186.48    8.80
   1   3  -4  172.98    8.60
  -1  -3   4  167.28    9.90
  -1  -3   4  167.88    8.40
  -1  -3   4  179.98    8.90
   0   3  -4   48.60    6.50
   0   3  -4   52.79    4.90
   0   3  -4   52.19    5.20
   0  -3   4   49.50    4.60
   0  -3   4   58.59    5.50
   0  -3   4   48.30    6.80
  -1   3  -4   53.29    7.80
  -1   3  -4   59.29    5.20
  -1   3  -4   72.59    5.50
   1  -3   4   61.69    4.90
   1  -3   4   63.59    5.50
   1  -3   4   54.59    4.60
   1  -3   4   76.79    8.00
   1  -3   4   63.79    5.20
  -2   3  -4   85.89    5.70
  -2   3  -4   80.39    5.60
  -2   3  -4   77.99    6.00
  -2   3  -4   71.89    9.10
   2  -3   4   75.49    6.70
   2  -3   4   86.69    7.30
   2  -3   4   65.09    9.30
   2  -3   4   83.09    5.70
  -3   3  -4  171.48    8.10
  -3   3  -4  156.68   12.40
  -3   3  -4  172.28    8.20
  -3   3  -4  170.98   10.50
   3  -3   4  172.88    8.30
   3  -3   4  169.78   13.30
   3  -3   4  167.98    7.90
   3  -3   4  170.48   11.00
  -4   3  -4    1.00    2.70
  -4   3  -4   -2.10    7.00
  -4   3  -4    3.00    2.50
  -4   3  -4    1.70    6.20
   4  -3   4    0.10    2.80
  -5   3  -4    5.80    3.60
  -5   3  -4   29.50    9.20
  -5   3  -4    4.50    9.00
   5  -3   4    1.70    3.20
  -6   3  -4    4.50    9.70
   6  -3   4    7.40    4.70
   7   2  -4    2.10    6.90
   7   2  -4    1.40    3.70
  -7  -2   4   -4.00    6.10
  -7  -2   4   -0.90    6.10
   6   2  -4    0.40    6.00
   6   2  -4    2.30    3.50
  -6  -2   4   -3.10    3.30
  -6  -2   4    2.60    4.80
  -6  -2   4    0.00    3.60
   5   2  -4    5.60    4.50
   5   2  -4    6.80    4.50
   5   2  -4   -2.80    2.30
  -5  -2   4    1.80    2.20
  -5  -2   4   -4.30    3.50
  -5  -2   4   -3.70    3.60
   4   2  -4    9.30    4.10
   4   2  -4    4.60    3.90
  -4  -2   4    7.10    2.40
  -4  -2   4   12.60    4.40
   3   2  -4   -1.60    2.40
   3   2  -4   -2.80    2.60
  -3  -2   4   -0.80    1.20
  -3  -2   4    1.10    2.80
  -3  -2   4   -0.60    2.50
   2   2  -4  300.67   11.70
   2   2  -4  305.37   11.80
  -2  -2   4  321.37   11.90
  -2  -2   4  310.87   12.00
   1   2  -4  105.39    6.20
   1   2  -4  107.59    6.20
  -1  -2   4   98.89    6.80
  -1  -2   4  108.19    6.40
  -1  -2   4   97.99    5.80
   0   2  -4  519.95   14.00
   0   2  -4  530.05   15.10
   0   2  -4  535.15   15.20
   0   2  -4  536.65   16.40
   0  -2   4  534.75   15.10
   0  -2   4  536.35   16.30
   0  -2   4  525.45   15.30
  -1   2  -4  432.86   12.40
  -1   2  -4  432.96   14.50
  -1   2  -4  419.06   13.40
   1  -2   4  419.16   11.90
   1  -2   4  418.66   14.30
   1  -2   4  396.16   13.00
   1  -2   4  415.96   12.30
   1  -2   4  430.36   13.50
  -2   2  -4 1027.40   28.10
  -2   2  -4 1087.19   29.20
  -2   2  -4 1017.70   29.20
  -2   2  -4 1093.89   25.80
  -2   2  -4 1051.69   25.60
   2  -2   4 1052.09   29.20
   2  -2   4 1089.79   29.30
   2  -2   4 1058.29   30.30
  -3   2  -4   11.70    2.80
  -3   2  -4   26.30    9.50
  -3   2  -4   23.10    7.20
   3  -2   4    7.10    3.20
  -4   2  -4    4.00    7.10
  -4   2  -4    0.70    5.60
  -4   2  -4    1.20    2.20
   4  -2   4    0.70    2.50
  -5   2  -4   23.20   12.10
  -5   2  -4    8.00    8.90
   5  -2   4    5.10    3.50
  -6   2  -4   -6.60    9.30
   6  -2   4   -4.50    3.90
   7   1  -4    4.00    7.10
   7   1  -4   -3.50    4.00
  -7  -1   4   -8.80    5.00
  -7  -1   4    3.50    5.40
  -7  -1   4    8.00   10.50
   6   1  -4   34.70    6.40
   6   1  -4   58.79   11.60
  -6  -1   4   21.20    7.70
  -6  -1   4   45.40    7.20
  -6  -1   4   53.09   13.40
   5   1  -4   45.20    6.60
   5   1  -4   22.10    5.00
   5   1  -4   35.10    6.30
  -5  -1   4   32.60    6.10
  -5  -1   4   36.30    6.30
  -5  -1   4   24.10    3.90
   4   1  -4  108.49    8.40
   4   1  -4  113.49    8.60
  -4  -1   4  115.19    7.40
  -4  -1   4  105.69    8.00
  -4  -1   4  104.29    8.50
   3   1  -4  735.63   22.30
   3   1  -4  747.53   22.10
  -3  -1   4  751.82   20.10
  -3  -1   4  786.82   23.60
  -3  -1   4  754.72   22.30
   2   1  -4  436.86   14.40
   2   1  -4  459.95   14.60
  -2  -1   4  446.86   14.40
  -2  -1   4  471.65   14.90
   1   1  -4   97.99    5.50
   1   1  -4   85.59    5.40
  -1  -1   4   91.79    5.50
  -1  -1   4   96.69    5.40
   0   1  -4   45.40    3.60
   0   1  -4   48.10    2.90
   0   1  -4   42.40    3.60
   0   1  -4   43.50    3.50
   0  -1   4   43.90    4.30
   0  -1   4   42.20    3.60
   0  -1   4   44.00    3.40
  -1   1  -4    7.70    1.90
  -1   1  -4   15.60    3.20
  -1   1  -4    9.50    1.80
   1  -1   4    9.90    3.00
   1  -1   4   10.40    2.10
   1  -1   4   17.80    3.50
  -2   1  -4 2243.28   51.49
  -2   1  -4 2026.40   51.39
  -2   1  -4 2117.69   51.89
  -2   1  -4 2135.19   51.79
   2  -1   4 2109.39   51.69
   2  -1   4 2135.99   52.89
  -3   1  -4   77.39    9.40
  -3   1  -4   72.59    6.90
  -3   1  -4   84.19    8.40
   3  -1   4   82.19    7.70
  -4   1  -4    9.20    7.60
  -4   1  -4   19.00    6.80
  -4   1  -4    7.20    3.00
   4  -1   4   10.70    3.50
  -5   1  -4    1.50    7.70
  -6   1  -4   -2.90    9.30
   6  -1   4   -2.60    3.60
   7   0  -4  -10.30    6.30
   7   0  -4   -4.40    3.70
  -7   0   4    8.80    9.60
  -7   0   4    8.40    5.40
   6   0  -4    4.50    3.20
   6   0  -4    1.80    6.50
  -6   0   4    2.20    4.10
  -6   0   4   -3.70    2.50
  -6   0   4    0.90    4.40
   5   0  -4    3.00    3.70
   5   0  -4   -0.20    5.40
  -5   0   4    2.40    4.10
  -5   0   4    1.30    3.20
  -5   0   4   -0.80    2.00
   4   0  -4   14.30    4.80
   4   0  -4   16.60    4.50
  -4   0   4   12.10    4.60
  -4   0   4    7.70    2.50
   3   0  -4   40.20    6.00
   3   0  -4   39.80    5.30
  -3   0   4   53.59    7.40
  -3   0   4   57.39    6.10
   2   0  -4    4.30    2.50
   2   0  -4    1.90    2.40
  -2   0   4    4.40    2.50
  -2   0   4    1.80    2.20
   1   0  -4 3608.34   81.49
   1   0  -4 3687.33   81.49
  -1   0   4 3807.92   81.59
  -1   0   4 3597.54   81.39
   0   0  -4 1323.77   30.00
   0   0  -4 1310.27   30.10
   0   0   4 1271.07   30.00
   0   0   4 1323.37   29.90
  -1   0  -4    2.50    1.30
  -1   0  -4    2.40    1.50
  -1   0  -4    1.20    2.30
   1   0   4    1.70    1.50
   1   0   4    3.10    2.60
   1   0   4    1.60    1.30
  -2   0  -4 5158.08  115.69
  -2   0  -4 5062.19  115.09
  -2   0  -4 5255.27  117.19
  -2   0  -4 5164.88  116.19
   2   0   4 5164.28  117.69
   2   0   4 5118.09  115.49
   2   0   4 5116.09  115.09
  -3   0  -4   52.69    6.00
  -3   0  -4   49.50    6.60
  -3   0  -4   47.90    7.70
  -3   0  -4   47.40    9.10
   3   0   4   42.40    6.50
  -4   0  -4   21.90    3.90
  -4   0  -4   34.20    8.30
   4   0   4   25.80    4.90
  -5   0  -4    1.90    8.50
  -5   0  -4    1.70    7.50
   5   0   4   -0.80    3.30
  -6   0  -4   -9.20    8.80
   6   0   4    2.80    3.80
   7  -1  -4   -5.00    3.80
  -7   1   4   -4.70    5.10
  -7   1   4    6.20    5.90
  -7   1   4   -1.50    9.50
   6  -1  -4    1.80    5.20
  -6   1   4    1.50    3.10
  -6   1   4    0.60    9.70
  -6   1   4   -0.70    5.10
   5  -1  -4    7.40    4.90
   5  -1  -4   14.00    5.10
  -5   1   4    1.20    2.50
  -5   1   4    3.40    4.60
  -5   1   4   14.90    5.30
  -5   1   4    8.40    6.90
   4  -1  -4  429.16   16.40
   4  -1  -4  412.56   16.20
  -4   1   4  443.46   16.30
  -4   1   4  431.66   16.50
  -4   1   4  448.96   20.50
   3  -1  -4   34.20    5.00
   3  -1  -4   26.90    4.40
  -3   1   4   40.20    7.60
  -3   1   4   43.20    7.60
  -3   1   4   39.20    5.40
   2  -1  -4   80.99    5.90
   2  -1  -4   76.29    5.60
  -2   1   4   83.29    6.80
  -2   1   4   84.79    5.80
  -2   1   4   84.19    5.70
   1  -1  -4  159.88    6.90
   1  -1  -4  153.58    6.80
  -1   1   4  166.28    6.80
  -1   1   4  159.18    6.70
   0  -1  -4   47.30    4.10
   0  -1  -4   41.10    3.80
   0   1   4   54.59    3.90
   0   1   4   53.89    5.10
   0   1   4   46.80    3.70
  -1  -1  -4  835.12   21.90
  -1  -1  -4  797.42   21.70
  -1  -1  -4  793.52   22.80
   1   1   4  829.12   22.00
   1   1   4  813.12   23.30
  -2  -1  -4   82.19    6.30
  -2  -1  -4   78.89    7.90
  -2  -1  -4   76.69    6.40
   2   1   4   88.39    7.70
   2   1   4   82.29    6.30
   2   1   4   78.79    6.60
  -3  -1  -4   13.90    5.10
  -3  -1  -4    7.70    2.40
  -3  -1  -4    6.40    2.60
   3   1   4    6.30    2.70
   3   1   4    8.10    2.50
  -4  -1  -4   20.10    3.90
   4   1   4   21.70    4.50
   5   1   4   57.79    9.20
  -6  -1  -4   30.90   12.60
   6   1   4   11.90    4.60
   7  -2  -4   -0.40    4.00
   7  -2  -4   -9.80    6.20
  -7   2   4   -3.00    5.90
  -7   2   4   -4.40    9.40
   6  -2  -4   -2.60    5.20
  -6   2   4    4.80    5.00
   5  -2  -4   -4.80    3.60
   5  -2  -4    6.30    5.90
  -5   2   4    2.30    4.50
  -5   2   4    1.80    4.40
  -5   2   4    2.30    6.90
   4  -2  -4  331.97   14.30
   4  -2  -4  381.66   15.30
  -4   2   4  361.06   14.80
  -4   2   4  357.36   14.80
  -4   2   4  338.17   17.60
   3  -2  -4  204.08   10.40
   3  -2  -4  185.58    9.70
  -3   2   4  196.98   10.00
  -3   2   4  202.48    9.90
  -3   2   4  193.28   11.60
   2  -2  -4  443.86   14.70
   2  -2  -4  458.85   15.00
   2  -2  -4  427.56   16.10
  -2   2   4  495.95   15.00
  -2   2   4  462.25   15.70
  -2   2   4  465.25   14.70
   1  -2  -4   36.40    4.30
   1  -2  -4   49.20    5.00
   1  -2  -4   39.40    4.90
  -1   2   4   42.90    4.30
  -1   2   4   42.70    4.60
  -1   2   4   37.80    5.40
   0  -2  -4 1083.39   27.30
   0  -2  -4 1111.59   27.10
   0  -2  -4 1132.39   27.60
   0   2   4 1155.08   27.10
   0   2   4 1118.79   27.10
   0   2   4 1138.79   28.90
  -1  -2  -4 1840.02   44.80
  -1  -2  -4 1893.91   42.80
  -1  -2  -4 1947.41   43.20
  -1  -2  -4 1884.71   46.70
   1   2   4 1875.41   47.00
   1   2   4 1904.11   42.80
   1   2   4 1888.31   42.60
   1   2   4 1863.11   45.60
  -2  -2  -4 1572.24   40.00
  -2  -2  -4 1593.74   42.90
  -3  -2  -4   87.39   10.00
  -3  -2  -4   88.99    7.80
  -3  -2  -4   90.49    7.90
   3   2   4   98.79    8.50
   3   2   4   99.59    7.60
  -4  -2  -4  179.58   11.80
   4   2   4  179.08   11.70
   4   2   4  167.58   11.90
   5   2   4    6.10    3.50
   6   2   4    2.50    3.70
   6  -3  -4   -5.10    5.70
  -6   3   4   -0.80    8.40
  -6   3   4    2.20    5.70
  -6   3   4   18.20    6.20
   5  -3  -4   10.40    4.40
   5  -3  -4   12.70    6.10
  -5   3   4   13.00    5.60
  -5   3   4   11.20    7.80
  -5   3   4   14.30    5.30
   4  -3  -4  162.18   11.00
   4  -3  -4  145.49   10.10
  -4   3   4  139.89   10.10
  -4   3   4  137.59   13.30
  -4   3   4  151.38   10.50
   3  -3  -4    1.30    6.10
   3  -3  -4    8.60    3.90
   3  -3  -4    5.50    4.20
  -3   3   4    5.40    3.90
  -3   3   4   15.60    6.30
  -3   3   4    4.20    3.70
   2  -3  -4   31.10    5.80
   2  -3  -4   23.50    4.70
   2  -3  -4   35.50    6.50
  -2   3   4   27.90    4.80
  -2   3   4   24.50    5.10
  -2   3   4   30.00    6.20
   1  -3  -4  249.88   10.30
   1  -3  -4  244.48   10.00
   1  -3  -4  239.38   10.70
  -1   3   4  244.98    9.70
  -1   3   4  256.07    9.80
  -1   3   4  238.38   11.20
   0  -3  -4  919.41   25.00
   0  -3  -4  876.41   23.80
   0  -3  -4  893.91   23.50
   0   3   4  922.11   23.50
   0   3   4  900.11   24.60
   0   3   4  908.01   23.40
   0   3   4  871.51   25.10
  -1  -3  -4  763.92   20.30
  -1  -3  -4  761.72   20.70
  -1  -3  -4  756.42   23.20
  -1  -3  -4  743.63   23.00
   1   3   4  778.72   20.30
   1   3   4  749.23   23.40
   1   3   4  753.92   22.80
   1   3   4  767.82   20.30
  -2  -3  -4   28.40    4.20
  -2  -3  -4   34.80    6.80
  -2  -3  -4   32.40    4.40
  -2  -3  -4   18.90    3.20
   2   3   4   24.40    4.00
   2   3   4   26.60    3.90
  -3  -3  -4  169.88   10.50
  -3  -3  -4  165.78    8.70
  -3  -3  -4  174.78   12.80
   3   3   4  159.28   11.10
  -4  -3  -4  154.68   10.90
  -4  -3  -4  175.08   13.50
   4   3   4  155.68   12.40
   5   3   4    8.10    4.90
   6  -4  -4   -3.80    5.70
  -6   4   4    2.60    9.30
  -6   4   4   -5.70    5.00
  -6   4   4   11.50    6.10
   5  -4  -4   15.70    6.10
  -5   4   4   16.90    5.80
  -5   4   4   22.80    9.50
  -5   4   4   23.90    6.50
   4  -4  -4   19.00    5.60
  -4   4   4   19.20    5.40
  -4   4   4   17.60    8.40
  -4   4   4   15.20    5.10
   3  -4  -4   27.50    8.70
   3  -4  -4   29.40    6.00
   3  -4  -4   26.10    5.50
  -3   4   4   40.60    6.40
  -3   4   4   41.40    8.40
  -3   4   4   32.00    5.60
   2  -4  -4   21.70    4.80
   2  -4  -4   27.30    5.60
   2  -4  -4   34.60    7.50
  -2   4   4   39.80    5.90
  -2   4   4   28.80    7.40
  -2   4   4   25.30    4.70
   1  -4  -4   70.79    7.30
   1  -4  -4   71.19    8.60
   1  -4  -4   68.49    6.90
  -1   4   4   76.89    6.10
  -1   4   4   79.29    6.90
  -1   4   4   63.19    8.10
  -1   4   4   84.49    7.10
   0  -4  -4    3.90    3.30
   0  -4  -4    3.50    2.80
   0  -4  -4    6.60    5.10
   0   4   4    5.10    2.60
   0   4   4   -1.50    3.10
   0   4   4    6.70    4.70
   0   4   4    4.60    2.80
  -1  -4  -4  133.29    7.70
  -1  -4  -4  120.89    7.70
  -1  -4  -4  115.79   14.20
  -1  -4  -4  109.19    9.00
   1   4   4  119.29    7.20
   1   4   4  124.69    7.30
   1   4   4  103.49    8.60
  -2  -4  -4  116.39   10.50
  -2  -4  -4  109.79   11.60
  -2  -4  -4  101.49    7.20
  -2  -4  -4  110.59    7.70
  -2  -4  -4  101.49    8.00
   2   4   4  105.99    7.00
   2   4   4  113.59    9.40
   2   4   4  111.49    7.30
  -3  -4  -4  435.96   17.10
  -3  -4  -4  504.85   22.10
  -3  -4  -4  458.75   16.60
  -3  -4  -4  443.36   15.80
   3   4   4  459.45   15.50
   3   4   4  471.55   19.80
  -4  -4  -4   -5.50    3.00
  -4  -4  -4   -1.80    2.80
   4   4   4    0.20    2.80
   5   4   4    1.90    3.20
   6  -5  -4    0.10    7.00
  -6   5   4    3.20    5.50
  -6   5   4    0.80    9.80
  -6   5   4   11.90    6.60
   5  -5  -4   27.90    6.90
  -5   5   4   19.30    9.80
  -5   5   4   30.50    8.30
   4  -5  -4   35.80    7.70
  -4   5   4   45.10   10.50
  -4   5   4   34.70    6.90
  -4   5   4   61.39    9.20
   3  -5  -4   22.80   10.40
   3  -5  -4   13.20    4.90
   3  -5  -4    6.00    5.50
  -3   5   4   10.20    4.50
  -3   5   4   15.80    5.00
  -3   5   4   15.50    8.00
   2  -5  -4    5.10    6.90
   2  -5  -4   12.80    5.10
   2  -5  -4   10.30    4.40
  -2   5   4    4.20    3.70
  -2   5   4   11.50    4.50
  -2   5   4   11.70    6.90
   1  -5  -4    7.70    3.90
   1  -5  -4    5.40    3.90
   1  -5  -4    4.60    6.10
  -1   5   4    5.70    3.60
  -1   5   4    6.90    4.00
  -1   5   4    3.90    5.10
   0  -5  -4   10.80    3.70
   0  -5  -4    6.50    4.60
   0  -5  -4    3.90    5.90
   0   5   4    9.00    4.00
   0   5   4    9.30    3.60
   0   5   4    5.70    5.70
   0   5   4    9.20    3.70
  -1  -5  -4   26.10    7.30
  -1  -5  -4   11.60    4.10
  -1  -5  -4   18.10    4.60
  -1  -5  -4   14.80    5.20
   1   5   4   10.80    3.90
   1   5   4   18.10    4.10
  -2  -5  -4  238.38   12.00
  -2  -5  -4  267.37   15.10
  -2  -5  -4  244.08   12.00
  -2  -5  -4  270.17   12.70
   2   5   4  257.77   12.30
   2   5   4  279.17   14.60
   2   5   4  239.88   11.70
  -3  -5  -4   61.59    7.70
  -3  -5  -4   32.60    5.90
  -3  -5  -4   57.09   15.20
  -3  -5  -4   46.10    7.10
   3   5   4   47.10    5.90
   3   5   4   31.60    5.60
   3   5   4   46.30    6.10
  -4  -5  -4   -5.90    3.60
  -4  -5  -4    7.90    4.40
   4   5   4   -0.10    2.90
   5   5   4    0.30    3.60
   6  -6  -4   12.30    8.70
  -6   6   4   -4.00    9.20
  -6   6   4   -6.40    5.60
   5  -6  -4   -2.60    6.80
  -5   6   4   10.90    6.40
  -5   6   4    7.20    9.00
  -5   6   4  -10.50    5.00
   4  -6  -4    0.40    5.50
  -4   6   4    5.00    8.30
  -4   6   4    0.90    4.80
  -4   6   4    1.30    4.90
   3  -6  -4   10.10    5.20
   3  -6  -4   26.80   22.60
   3  -6  -4   14.60    6.90
  -3   6   4   21.80    5.80
  -3   6   4   22.60    9.20
  -3   6   4   26.30   11.20
   2  -6  -4    1.50    4.30
   2  -6  -4    9.20    5.80
   2  -6  -4    8.00    9.60
  -2   6   4    9.10    5.80
  -2   6   4    3.10    4.60
  -2   6   4    4.10    4.00
   1  -6  -4   12.90    5.00
   1  -6  -4    2.10    8.40
   1  -6  -4    7.10    4.40
  -1   6   4   10.00    6.20
  -1   6   4    8.70    4.30
  -1   6   4    4.70    3.70
   0  -6  -4    0.40    4.00
   0  -6  -4   -3.10    3.40
   0  -6  -4    1.00    7.70
   0   6   4    1.70    6.20
   0   6   4   -2.30    3.60
   0   6   4   -0.70    3.50
  -1  -6  -4    5.60    4.50
  -1  -6  -4    8.60    4.80
  -1  -6  -4   10.50    4.60
   1   6   4   15.60    4.40
   1   6   4   10.00    7.20
  -2  -6  -4   13.80    5.60
  -2  -6  -4   28.40    7.60
  -2  -6  -4   10.50    3.10
  -2  -6  -4   18.10    5.70
   2   6   4   20.10    5.30
   2   6   4   15.40    4.00
   2   6   4   13.60    5.60
  -3  -6  -4   50.99   10.70
  -3  -6  -4   25.60    5.60
  -3  -6  -4   36.10    6.90
  -3  -6  -4   20.50    3.90
   3   6   4   21.40    5.20
   3   6   4   32.90    6.20
  -4  -6  -4    5.70    4.60
  -4  -6  -4   -3.70    4.60
   4   6   4    0.70    3.70
   5  -7  -4    4.10    7.30
  -5   7   4    4.60    8.70
  -5   7   4   -5.10    5.00
   4  -7  -4    4.20    6.30
  -4   7   4    5.70   13.70
  -4   7   4   -4.10    4.90
   3  -7  -4   26.50    7.70
  -3   7   4   25.00    6.70
  -3   7   4   22.20    9.50
   2  -7  -4   -3.20    5.10
   2  -7  -4    2.60    5.60
   2  -7  -4  -23.60   13.20
  -2   7   4    1.00    6.70
  -2   7   4    1.20    4.30
  -2   7   4   -1.60    5.10
   1  -7  -4    2.10    4.30
   1  -7  -4  -25.90   20.00
   1  -7  -4    7.80    5.20
  -1   7   4    1.20    6.40
  -1   7   4    2.20    3.70
  -1   7   4   -0.30    4.20
   0  -7  -4   33.10   21.80
   0  -7  -4    1.20    4.30
   0  -7  -4   -9.50    4.00
   0   7   4   -1.20    3.50
   0   7   4    0.20    6.50
  -1  -7  -4   88.19   10.20
  -1  -7  -4   64.79    9.90
   1   7   4   83.99    9.40
  -2  -7  -4   42.20   12.30
  -2  -7  -4   48.10    8.10
  -2  -7  -4   74.29   13.20
   2   7   4   67.89    9.40
   2   7   4   71.99   11.00
  -3  -7  -4   10.70    5.90
  -3  -7  -4   18.30    5.40
   3   7   4   15.50    5.80
   3   7   4    3.80    4.00
  -4  -7  -4    8.90    5.10
  -4  -7  -4   -8.20    6.10
   4   7   4    2.60    4.10
   4  -8  -4   31.90    9.70
  -4   8   4   24.30    7.70
   3  -8  -4   11.60    7.20
  -3   8   4   15.80    8.10
  -3   8   4    3.00    5.70
   2  -8  -4   -0.90    6.30
  -2   8   4    3.30    5.00
  -2   8   4    9.70    7.60
   1  -8  -4   -3.10    5.50
  -1   8   4    0.40    6.50
  -1   8   4    0.40    4.50
   0  -8  -4    4.80    5.60
   0  -8  -4   -2.60    5.40
   0   8   4    3.50    5.30
  -1  -8  -4   -1.70    9.80
  -1  -8  -4    3.60    5.20
   1   8   4   10.60    5.10
  -2  -8  -4    8.00    5.60
  -2  -8  -4   -9.50    6.20
   2   8   4    1.30    3.50
   2   8   4   -1.30    5.10
  -3  -8  -4   -5.10    7.00
  -3  -8  -4   13.40    5.60
   3   8   4   -0.50    4.00
   3   8   4   -5.60    5.50
   3  -9  -4    7.30    7.50
  -3   9   4   -2.10    5.00
  -3   9   4   19.50    8.00
   1  -9  -4    3.10    5.40
  -1   9   4   -0.20    6.20
  -1   9   4   13.30    8.20
   0  -9  -4    4.70    5.60
   0   9   4    5.40    6.40
  -1  -9  -4   91.09   12.80
   1   9   4   94.09   12.40
   2   9  -5   -4.80    2.40
   2   9  -5    6.90    5.90
  -2  -9   5    0.20    5.90
   1   9  -5   -3.50    5.20
  -1  -9   5    3.50    5.80
   0   9  -5   -1.40    5.50
   0   9  -5    1.30    8.30
   0  -9   5    5.60    6.40
  -1   9  -5    0.10    5.70
  -1   9  -5   17.90    8.70
   1  -9   5    7.90    8.50
  -2   9  -5   13.80    8.30
  -2   9  -5   -4.90    5.10
   2  -9   5    8.50    7.20
  -3   9  -5   29.00    8.70
  -3   9  -5    3.00    5.10
   3  -9   5   -3.70    7.60
   3   8  -5    7.70    6.60
  -3  -8   5   17.90    6.70
   2   8  -5    3.90    5.00
   2   8  -5   -0.60    2.50
  -2  -8   5   -2.10    5.10
   1   8  -5   -9.30    4.40
  -1  -8   5    1.20    6.80
   0   8  -5   10.00    6.00
   0  -8   5    9.20    6.20
  -1   8  -5   11.00   12.10
  -1   8  -5    3.70    6.30
   1  -8   5    5.20    5.70
  -2   8  -5   37.10   10.20
  -2   8  -5   41.70    8.20
  -2   8  -5   34.40    8.40
   2  -8   5   43.00    8.60
   2  -8   5   25.80    4.50
  -3   8  -5    0.10    4.90
  -3   8  -5   20.20    8.40
   3  -8   5    8.90    6.10
  -4   8  -5    1.60    5.00
  -4   8  -5    0.80    7.50
  -4   8  -5   12.60    8.80
   4  -8   5   -5.10    3.70
   4  -8   5    6.00    6.10
   4   7  -5   17.10    3.60
   4   7  -5   30.70    8.70
  -4  -7   5   29.90    7.30
   3   7  -5   15.00    6.50
  -3  -7   5   26.90    7.40
  -3  -7   5   21.40    6.70
   2   7  -5   21.60    6.10
  -2  -7   5   22.90    6.30
  -2  -7   5   21.40    6.00
   1   7  -5   11.50    5.90
   1   7  -5   20.10    5.90
  -1  -7   5   20.30    5.60
  -1  -7   5   21.00    6.50
   0   7  -5    2.60    4.60
   0   7  -5   -3.00    5.60
   0   7  -5   11.90    7.20
   0  -7   5    4.50    4.80
   0  -7   5    4.80    5.70
   0  -7   5    8.60    5.80
  -1   7  -5    2.60    5.10
  -1   7  -5    8.70    8.00
  -1   7  -5    9.40    5.20
   1  -7   5    3.30    4.70
   1  -7   5  -13.50   10.30
  -2   7  -5   71.99    9.20
  -2   7  -5   67.49    8.90
  -2   7  -5   82.69   12.30
   2  -7   5   94.89   11.10
   2  -7   5   76.79    7.70
  -3   7  -5    2.20    7.90
  -3   7  -5    5.10    7.40
  -3   7  -5   -3.10    4.90
   3  -7   5    0.00    5.10
   3  -7   5    1.70    3.40
  -4   7  -5    4.10    8.30
  -4   7  -5   -2.10    5.40
  -4   7  -5   -5.80    4.00
   4  -7   5    3.60    5.70
   4  -7   5   -0.50    3.60
  -5   7  -5    3.00    4.90
  -5   7  -5   -1.60    6.90
  -5   7  -5   20.20    9.70
   5  -7   5    2.00    6.80
   5  -7   5   -7.10    3.70
   5   6  -5    5.00    6.00
  -5  -6   5   14.00    6.70
  -5  -6   5    5.30    4.90
   4   6  -5   -1.50    2.10
   4   6  -5   -8.20    4.60
  -4  -6   5    6.70    4.80
  -4  -6   5    2.60    4.90
   3   6  -5   14.20    3.00
   3   6  -5   26.00    6.90
  -3  -6   5   11.90    5.60
  -3  -6   5   11.60    5.30
   2   6  -5    2.60    4.30
  -2  -6   5    4.30    4.50
   1   6  -5   13.50    4.80
   1   6  -5   12.70    5.20
  -1  -6   5   21.30    6.60
  -1  -6   5   11.50    4.40
   0   6  -5    7.20    4.20
   0   6  -5   12.10    4.30
   0   6  -5   14.10    7.80
   0  -6   5    7.00    7.10
   0  -6   5    5.60    5.00
   0  -6   5    3.50    3.50
  -1   6  -5    6.20    4.40
  -1   6  -5    6.10    4.10
  -1   6  -5    4.70    6.50
   1  -6   5    3.60    2.20
   1  -6   5    6.50    4.30
   1  -6   5    4.00    7.20
   1  -6   5    3.90    3.40
  -2   6  -5  130.49   10.10
  -2   6  -5  122.09   10.00
  -2   6  -5  131.09   13.00
   2  -6   5  109.29   26.20
   2  -6   5  123.89    9.80
   2  -6   5  127.89    9.40
   2  -6   5  146.19   10.90
  -3   6  -5    5.30    7.70
  -3   6  -5   -8.70    3.70
  -3   6  -5   -1.90    3.60
   3  -6   5    0.10    3.60
   3  -6   5    0.50    3.20
  -4   6  -5    3.60    8.60
  -4   6  -5   -2.90    4.70
  -4   6  -5    3.50    4.30
   4  -6   5    3.80    5.00
   4  -6   5    1.10    3.50
  -5   6  -5   14.90    6.00
  -5   6  -5   -6.40    7.70
  -5   6  -5   -7.50    4.40
   5  -6   5   -5.60    3.50
   5  -6   5    2.40    5.60
   5   5  -5    4.40    5.00
  -5  -5   5   11.20    5.60
  -5  -5   5    6.40    8.40
   4   5  -5  239.48   11.40
  -4  -5   5  242.48   15.10
  -4  -5   5  233.58   14.00
   3   5  -5   63.69    5.80
   3   5  -5   65.19    8.90
  -3  -5   5   61.19    8.90
  -3  -5   5   62.89    8.10
   2   5  -5  150.58    7.80
   2   5  -5  143.19   10.30
   2   5  -5  124.29    9.80
  -2  -5   5  152.08   13.40
  -2  -5   5  137.59   10.80
  -2  -5   5  139.09    9.90
   1   5  -5   94.29    8.50
   1   5  -5  106.29    8.80
  -1  -5   5   93.39    9.20
  -1  -5   5  100.69    8.30
  -1  -5   5  108.09   10.70
   0   5  -5    3.80    3.80
   0   5  -5    4.00    5.90
   0   5  -5    4.90    3.60
   0  -5   5   -1.80    2.70
   0  -5   5    2.20    5.80
   0  -5   5    2.20    3.50
  -1   5  -5   27.10    8.10
  -1   5  -5   30.00    5.50
  -1   5  -5   29.80    5.60
   1  -5   5   21.50    4.50
   1  -5   5   28.40    5.90
   1  -5   5   34.00    5.30
   1  -5   5   26.80    8.30
  -2   5  -5   45.40    6.40
  -2   5  -5   61.99   11.30
  -2   5  -5   58.69    7.00
   2  -5   5   51.19   10.80
   2  -5   5   40.60    6.50
   2  -5   5   31.80    5.20
   2  -5   5   43.50    6.80
  -3   5  -5    5.90    7.50
  -3   5  -5    6.40    4.00
  -3   5  -5    1.40    3.80
   3  -5   5    1.20    2.60
   3  -5   5   -3.00    7.00
   3  -5   5    0.10    3.40
   3  -5   5   -0.10    3.60
  -4   5  -5   -3.20    3.80
  -4   5  -5   -0.40    3.50
  -4   5  -5    7.40    8.60
  -4   5  -5   -6.30    6.90
   4  -5   5    4.10    3.20
   4  -5   5   -2.00    3.40
   4  -5   5   -7.50    4.10
  -5   5  -5    4.50   10.20
  -5   5  -5   -5.70    8.10
  -5   5  -5   11.80    4.70
  -5   5  -5    0.70    4.40
   5  -5   5    6.20    4.00
   5  -5   5    5.90    3.70
  -6   5  -5  -12.30    9.50
   6   4  -5    9.60    6.10
  -6  -4   5    8.20    5.00
  -6  -4   5   22.80   10.50
   5   4  -5   22.20    6.10
  -5  -4   5   18.40    6.00
  -5  -4   5   22.80    7.60
   4   4  -5  100.99    7.70
  -4  -4   5  115.69   10.00
  -4  -4   5   98.09   10.20
   3   4  -5    1.10    3.50
   3   4  -5   -0.50    1.50
   3   4  -5    1.70    3.50
  -3  -4   5   -1.80    2.90
  -3  -4   5   -1.10    3.60
  -3  -4   5    4.50    6.80
   2   4  -5  133.89    6.40
   2   4  -5  115.69    9.00
   2   4  -5  117.89    8.80
  -2  -4   5  123.99   11.80
  -2  -4   5  125.39    8.60
  -2  -4   5  125.89    9.30
   1   4  -5   15.50    3.70
   1   4  -5   15.60    4.20
  -1  -4   5   17.70    3.60
  -1  -4   5   13.40    5.30
   0   4  -5  609.84   19.40
   0   4  -5  633.74   23.50
   0   4  -5  566.74   18.90
   0  -4   5  610.84   19.90
   0  -4   5  567.44   18.80
   0  -4   5  588.54   21.70
  -1   4  -5  522.75   17.40
  -1   4  -5  556.94   17.90
  -1   4  -5  510.25   26.60
   1  -4   5  539.35   16.80
   1  -4   5  523.75   17.80
   1  -4   5  498.25   16.80
   1  -4   5  539.25   20.40
  -2   4  -5   42.40    5.80
  -2   4  -5   37.50    5.50
  -2   4  -5   43.80    8.90
   2  -4   5   42.00    5.90
   2  -4   5   46.60    6.70
   2  -4   5   51.09    9.50
   2  -4   5   39.70    5.70
  -3   4  -5    6.50    7.40
  -3   4  -5    2.30    3.50
  -3   4  -5   10.80    5.60
  -3   4  -5    1.30    3.20
   3  -4   5    5.20    3.50
   3  -4   5    7.80    7.20
   3  -4   5    4.80    3.30
   3  -4   5    0.40    2.70
  -4   4  -5   20.50    8.40
  -4   4  -5   14.40    4.10
  -4   4  -5   32.90    8.00
  -4   4  -5   20.70    4.40
   4  -4   5   30.60    8.30
   4  -4   5   15.40    4.40
   4  -4   5   13.20    4.00
   4  -4   5   14.40    4.00
  -5   4  -5    1.50    8.50
  -5   4  -5   24.80   10.10
  -5   4  -5   -3.40    3.60
   5  -4   5   -7.30    4.90
  -6   4  -5   -6.60    9.30
   6  -4   5   -6.90    3.90
   6   3  -5   -2.90    2.80
   6   3  -5   -2.70    5.00
  -6  -3   5    1.20    4.80
  -6  -3   5    1.20    4.70
   5   3  -5   26.00    6.00
   5   3  -5   16.80    3.90
  -5  -3   5   25.90    5.90
  -5  -3   5   19.00    5.80
   4   3  -5   51.19   11.30
   4   3  -5   62.29    6.10
   4   3  -5   64.49    8.00
  -4  -3   5   58.39    7.10
  -4  -3   5   53.69    8.00
   3   3  -5  134.39    9.10
  -3  -3   5  124.69    9.20
  -3  -3   5  131.69    9.10
   2   3  -5  200.58   10.00
   2   3  -5  198.18   10.20
  -2  -3   5  186.58   10.20
  -2  -3   5  187.98   11.90
  -2  -3   5  191.68   10.50
   1   3  -5   89.59    6.40
   1   3  -5   98.69    6.70
  -1  -3   5   82.39    7.50
  -1  -3   5   85.59    6.70
  -1  -3   5   83.09    6.10
   0   3  -5  117.89    7.00
   0   3  -5  120.59    8.80
   0   3  -5  126.99    7.20
   0   3  -5  126.09    5.70
   0  -3   5  117.69    6.80
   0  -3   5  119.59    7.40
   0  -3   5  122.09    9.10
  -1   3  -5    0.00    1.70
  -1   3  -5    2.90    2.60
  -1   3  -5   -0.20    4.50
  -1   3  -5    3.30    2.80
   1  -3   5    1.20    1.60
   1  -3   5    0.90    2.40
   1  -3   5   -1.20    2.40
   1  -3   5    6.20    4.80
   1  -3   5   -0.70    2.10
  -2   3  -5    2.70    2.60
  -2   3  -5    2.10    2.40
  -2   3  -5    0.70    5.40
  -2   3  -5    2.30    3.20
   2  -3   5    0.50    2.20
   2  -3   5    1.00    2.20
   2  -3   5    2.90    2.30
   2  -3   5   -2.20    4.60
   2  -3   5    0.40    2.60
  -3   3  -5   22.90    9.50
  -3   3  -5   18.30    7.20
  -3   3  -5   13.60    3.30
  -3   3  -5   12.20    2.90
   3  -3   5   20.40    7.60
   3  -3   5    9.70    3.30
  -4   3  -5    3.20    7.60
  -4   3  -5    1.20    4.90
  -4   3  -5   -0.20    6.50
  -4   3  -5    0.90    2.70
   4  -3   5    2.40    2.90
  -5   3  -5    9.70    9.40
   5  -3   5    9.00    4.70
  -6   3  -5    1.20   10.80
   6  -3   5   -4.00    3.80
   7   2  -5   -4.70    3.70
  -7  -2   5   -1.50    5.50
  -7  -2   5  -14.00    6.40
   6   2  -5    2.90    5.10
  -6  -2   5   -4.10    4.40
  -6  -2   5   12.10    5.10
  -6  -2   5   -3.00    2.50
   5   2  -5   23.00    4.50
   5   2  -5   29.90    7.20
   5   2  -5   33.90    6.80
  -5  -2   5   21.40    3.50
  -5  -2   5   25.70    6.30
  -5  -2   5   25.00    5.80
   4   2  -5   26.10    5.70
   4   2  -5   32.10    5.90
  -4  -2   5   25.40    5.40
  -4  -2   5   26.10    5.90
   3   2  -5   72.89    6.70
   3   2  -5   74.09    7.00
  -3  -2   5   76.59    7.40
  -3  -2   5   90.09   11.40
   2   2  -5    0.20    2.90
   2   2  -5    2.80    2.40
  -2  -2   5    2.00    2.20
  -2  -2   5    2.00    2.70
   1   2  -5   87.69    6.10
   1   2  -5   82.99    6.00
  -1  -2   5   91.09    6.20
  -1  -2   5   80.89    6.50
  -1  -2   5   90.09    5.80
   0   2  -5   69.29    5.00
   0   2  -5   64.79    4.30
   0   2  -5   63.49    5.80
   0   2  -5   65.69    4.90
   0  -2   5   61.59    4.60
   0  -2   5   68.59    5.10
   0  -2   5   62.39    6.10
  -1   2  -5  103.59    5.40
  -1   2  -5   94.79    6.10
  -1   2  -5   92.59    7.50
  -1   2  -5   95.89    5.30
   1  -2   5   99.59    6.20
   1  -2   5   93.59    5.30
   1  -2   5  101.79    6.60
   1  -2   5  105.09    7.70
   1  -2   5   96.99    4.90
  -2   2  -5  297.07    9.40
  -2   2  -5  291.57   13.00
  -2   2  -5  309.17   13.00
  -2   2  -5  290.77   11.90
  -2   2  -5  275.87   14.30
   2  -2   5  300.07   13.60
   2  -2   5  290.47   12.80
   2  -2   5  284.17   12.50
  -3   2  -5  401.66   17.80
  -3   2  -5  403.66   16.80
  -3   2  -5  424.96   16.10
   3  -2   5  413.06   17.10
  -4   2  -5    9.50    6.10
  -4   2  -5    7.60    7.30
  -4   2  -5    1.30    2.40
   4  -2   5    4.50    3.30
  -5   2  -5   30.20    9.60
  -5   2  -5   -3.50    7.70
  -6   2  -5   -0.30   10.40
   6  -2   5   -5.30    3.40
   7   1  -5   -4.10    6.20
   7   1  -5    0.10    4.20
  -7  -1   5    6.00    5.60
  -7  -1   5   -1.30    5.60
  -7  -1   5    5.00    8.50
   6   1  -5   29.00    5.60
  -6  -1   5   24.60    4.50
  -6  -1   5   44.20    8.40
   5   1  -5  124.29   11.00
   5   1  -5  125.59   10.00
  -5  -1   5  103.59    8.00
  -5  -1   5  108.89    9.30
  -5  -1   5  115.09   10.20
   4   1  -5    7.30    3.90
   4   1  -5    4.40    4.00
  -4  -1   5    0.80    3.00
  -4  -1   5    3.50    3.60
  -4  -1   5    0.30    1.60
   3   1  -5   24.10    4.40
   3   1  -5   17.40    4.10
  -3  -1   5   19.90    4.10
  -3  -1   5   29.60    5.00
  -3  -1   5   15.10    2.00
   2   1  -5   40.40    5.00
   2   1  -5   36.20    4.90
  -2  -1   5   38.30    4.50
  -2  -1   5   43.10    5.10
   1   1  -5  173.08    7.70
  -1  -1   5  175.38    7.80
  -1  -1   5  167.88    7.50
   0   1  -5   46.60    3.90
   0   1  -5   52.59    4.00
   0   1  -5   48.40    3.00
   0  -1   5   44.50    3.90
   0  -1   5   43.30    3.70
  -1   1  -5   94.39    6.00
  -1   1  -5  106.39    5.70
  -1   1  -5  100.89    6.10
   1  -1   5  104.59    6.10
   1  -1   5   96.89    6.00
   1  -1   5   95.79    6.60
  -2   1  -5  721.43   22.50
  -2   1  -5  749.42   21.80
  -2   1  -5  741.23   22.10
  -2   1  -5  735.43   25.60
   2  -1   5  746.83   23.50
  -3   1  -5   11.30    6.50
  -3   1  -5    2.60    2.40
  -3   1  -5    6.70    2.50
  -3   1  -5   12.80    5.10
   3  -1   5    5.20    2.50
  -4   1  -5   17.50    3.70
  -4   1  -5   34.60    8.70
  -4   1  -5   22.00    8.40
  -5   1  -5   18.60    8.90
   5  -1   5   13.30    4.30
  -6   1  -5   -0.70   10.60
   6  -1   5    0.10    3.80
   7   0  -5   -0.10    3.60
   7   0  -5   10.80    6.90
  -7   0   5   -7.40    5.50
  -7   0   5    1.00    5.80
  -7   0   5    3.80    9.30
   6   0  -5    0.80    4.90
  -6   0   5    1.90    3.00
  -6   0   5   -0.50    4.20
   5   0  -5   23.70    5.60
   5   0  -5   11.30    4.80
  -5   0   5    6.50    2.50
  -5   0   5    5.90    4.20
  -5   0   5   17.80    5.70
   4   0  -5    0.10    3.20
   4   0  -5   -1.40    3.60
  -4   0   5    1.10    1.70
  -4   0   5   -0.40    3.80
   3   0  -5   38.90    5.40
   3   0  -5   41.70    5.60
  -3   0   5   42.60    5.80
  -3   0   5   49.90    6.00
   2   0  -5  433.56   14.50
   2   0  -5  433.56   14.40
  -2   0   5  442.56   14.40
  -2   0   5  446.56   14.40
   1   0  -5  632.14   17.50
   1   0  -5  643.34   17.50
  -1   0   5  614.24   17.20
  -1   0   5  634.04   17.30
   0   0  -5 1045.60   25.40
   0   0  -5 1086.29   25.60
   0   0   5 1080.59   25.40
   0   0   5 1067.49   25.60
  -1   0  -5  395.46   13.10
  -1   0  -5  381.86   13.50
  -1   0  -5  392.26   12.60
   1   0   5  394.06   14.20
  -2   0  -5   89.49    8.30
  -2   0  -5  100.99    8.40
  -2   0  -5   86.79    8.00
  -2   0  -5  101.29    7.30
   2   0   5   96.89    6.90
   2   0   5   93.09    8.10
   2   0   5  105.09    7.30
  -3   0  -5   48.10    6.70
  -3   0  -5   56.59    8.70
  -3   0  -5   54.89    9.00
  -3   0  -5   46.00    6.30
   3   0   5   42.40    6.30
  -4   0  -5   -4.60    6.60
  -4   0  -5    9.30    6.00
  -4   0  -5    6.50    2.90
   4   0   5   -1.20    2.50
  -5   0  -5    8.20    9.50
   5   0   5    8.60    4.10
  -6   0  -5    0.30    9.90
   6   0   5    0.30    3.60
   7  -1  -5   -2.60    4.10
   7  -1  -5   15.40    7.90
  -7   1   5    6.40   10.90
  -7   1   5    8.30    6.80
  -7   1   5   -0.30    5.80
   6  -1  -5    5.50    5.40
  -6   1   5   -3.50    3.00
  -6   1   5    7.20   13.60
   5  -1  -5    9.80    4.80
   5  -1  -5   12.70    5.00
  -5   1   5   14.10    7.80
  -5   1   5    3.30    2.30
  -5   1   5    8.10    4.60
  -5   1   5    9.30    5.00
   4  -1  -5  148.29   10.00
   4  -1  -5  159.18   10.60
  -4   1   5  169.08   10.40
  -4   1   5  168.68   13.90
  -4   1   5  155.98   10.30
   3  -1  -5  102.49    7.90
   3  -1  -5   92.99    7.30
  -3   1   5  111.39    7.70
  -3   1   5  105.49    9.80
  -3   1   5  107.59    7.60
   2  -1  -5   15.80    3.60
   2  -1  -5   22.10    4.20
  -2   1   5   22.50    4.80
  -2   1   5   18.70    3.60
  -2   1   5   26.00    4.20
   1  -1  -5   26.70    3.60
   1  -1  -5   31.50    4.30
  -1   1   5   35.20    4.00
  -1   1   5   34.80    3.90
   0  -1  -5    4.50    2.10
   0  -1  -5    3.60    2.00
   0   1   5    5.30    1.90
   0   1   5    4.00    1.90
   0   1   5    4.60    2.60
  -1  -1  -5 2523.65   59.99
  -1  -1  -5 2448.66   58.79
   1   1   5 2571.24   58.99
   1   1   5 2542.55   60.89
  -2  -1  -5  153.18    8.40
  -2  -1  -5  138.89   12.60
  -2  -1  -5  165.08   10.30
   2   1   5  156.98   10.80
   2   1   5  149.69    8.80
  -3  -1  -5   69.59    7.20
  -3  -1  -5   68.89    8.80
  -3  -1  -5   70.39    7.40
   3   1   5   67.29    7.40
   3   1   5   82.09    7.70
  -4  -1  -5   -1.50    3.00
  -4  -1  -5    5.20    5.70
  -4  -1  -5    1.80    2.60
   4   1   5   -0.30    2.70
   4   1   5    0.60    2.40
  -5  -1  -5    6.60    8.50
   5   1   5    0.10    3.10
  -6  -1  -5   15.00   11.30
   6   1   5   -2.10    3.70
   7  -2  -5   -5.30    4.00
   7  -2  -5    7.90    7.20
  -7   2   5    7.10    6.80
  -7   2   5    0.20   10.80
   6  -2  -5   -2.00    5.20
  -6   2   5   12.90    5.60
  -6   2   5    4.10    5.50
   5  -2  -5    6.70    4.00
   5  -2  -5   -0.60    4.30
  -5   2   5    3.30    4.70
  -5   2   5    2.00    7.40
  -5   2   5   -2.50    4.10
   4  -2  -5    3.30    3.70
   4  -2  -5   -2.10    3.90
  -4   2   5   10.10    6.60
  -4   2   5    4.60    3.70
  -4   2   5    1.80    3.50
   3  -2  -5    5.00    3.30
   3  -2  -5    2.20    3.70
  -3   2   5    8.40    3.60
  -3   2   5    6.40    5.10
  -3   2   5    1.90    2.90
   2  -2  -5  459.75   15.50
   2  -2  -5  476.65   15.80
  -2   2   5  485.95   15.40
  -2   2   5  466.85   15.20
  -2   2   5  470.55   16.00
   1  -2  -5  806.22   22.60
   1  -2  -5  845.42   22.60
  -1   2   5  885.41   22.50
  -1   2   5  849.12   22.40
   0  -2  -5   41.70    4.50
   0  -2  -5   39.60    4.10
   0   2   5   45.80    4.10
   0   2   5   44.30    5.40
   0   2   5   46.00    4.00
  -1  -2  -5 2742.23   60.59
  -1  -2  -5 2673.03   62.89
  -1  -2  -5 2727.93   64.69
  -1  -2  -5 2631.34   60.09
  -1  -2  -5 2662.63   62.99
   1   2   5 2733.43   65.39
   1   2   5 2755.12   63.79
  -2  -2  -5   60.49    6.40
  -2  -2  -5   56.49    7.80
   2   2   5   51.89    6.50
   2   2   5   57.09    7.40
  -3  -2  -5    0.10    2.00
  -3  -2  -5   -0.60    2.30
  -3  -2  -5    1.40    4.40
   3   2   5    1.40    2.20
  -4  -2  -5    6.50    3.10
  -4  -2  -5   16.20    4.40
   4   2   5    7.10    3.10
   4   2   5   13.00    3.70
   5   2   5   -1.10    2.90
   7  -3  -5   -2.40    7.80
  -7   3   5  -13.30    5.80
  -7   3   5  -11.40   10.20
   6  -3  -5   -8.60    5.10
  -6   3   5   -1.20    9.00
  -6   3   5   -4.50    5.60
  -6   3   5   -2.10    5.20
   5  -3  -5   60.19    9.10
  -5   3   5   40.80    7.40
  -5   3   5   50.49    7.90
  -5   3   5   55.79   11.80
   4  -3  -5   10.90    5.10
   4  -3  -5    4.90    4.10
  -4   3   5    6.10    6.60
  -4   3   5    3.50    3.70
  -4   3   5    4.40    4.50
   3  -3  -5   20.90    5.30
   3  -3  -5   19.20    5.00
  -3   3   5   32.10    7.30
  -3   3   5   26.40    5.00
  -3   3   5   21.50    5.10
   2  -3  -5   62.79    7.50
   2  -3  -5   55.59    6.20
   2  -3  -5   55.69    7.80
  -2   3   5   48.70    5.90
  -2   3   5   62.59    6.60
  -2   3   5   56.79    7.50
   1  -3  -5    0.90    2.90
   1  -3  -5    2.40    2.50
   1  -3  -5    2.80    4.00
  -1   3   5   -3.30    3.50
  -1   3   5    1.70    2.80
  -1   3   5    0.80    2.60
   0  -3  -5  244.48    9.70
   0  -3  -5  242.78   10.90
   0  -3  -5  239.18    9.90
   0   3   5  241.58    9.90
   0   3   5  235.18   10.70
   0   3   5  246.98   11.10
   0   3   5  247.78    9.50
  -1  -3  -5   86.89    5.70
  -1  -3  -5   83.09    5.90
  -1  -3  -5   85.29    8.20
  -1  -3  -5   75.69    7.30
   1   3   5   87.49    5.80
   1   3   5   80.49    7.90
   1   3   5   87.19    5.50
  -2  -3  -5   15.10    5.20
  -2  -3  -5    7.20    2.60
  -2  -3  -5   12.60    4.60
   2   3   5    9.60    2.90
  -3  -3  -5   22.60    4.10
  -3  -3  -5   43.40    8.70
   3   3   5   29.90    4.90
  -4  -3  -5   38.50    5.50
   4   3   5   30.80    5.60
   5   3   5    9.10    4.20
   6  -4  -5    4.10    6.20
  -6   4   5   -1.60    9.10
  -6   4   5    1.60    5.40
  -6   4   5   -0.30    5.90
   5  -4  -5   32.10    7.90
  -5   4   5   22.60    9.60
  -5   4   5   34.80    6.70
  -5   4   5   27.70    6.60
   4  -4  -5   35.30    7.30
   4  -4  -5   21.80    6.30
  -4   4   5   12.70    5.50
  -4   4   5   20.00    7.80
  -4   4   5   20.50    5.40
   3  -4  -5   24.40    8.30
   3  -4  -5   23.10    5.20
   3  -4  -5   23.10    5.90
  -3   4   5   24.50    7.30
  -3   4   5   26.70    5.40
  -3   4   5   24.30    5.40
   2  -4  -5    9.60    4.40
   2  -4  -5    4.40    5.30
   2  -4  -5    9.00    3.90
  -2   4   5    8.60    3.50
  -2   4   5    6.40    4.00
  -2   4   5    8.10    5.40
   1  -4  -5   35.90    7.20
   1  -4  -5   29.90    5.40
   1  -4  -5   42.60    6.50
  -1   4   5   31.50    4.70
  -1   4   5   32.20    4.90
  -1   4   5   33.60    6.60
  -1   4   5   32.60    5.60
   0  -4  -5  769.12   23.30
   0  -4  -5  796.02   23.00
   0  -4  -5  813.82   25.00
   0   4   5  816.42   25.50
   0   4   5  774.12   23.80
   0   4   5  839.72   23.10
   0   4   5  810.32   22.80
  -1  -4  -5  511.75   17.00
  -1  -4  -5  516.35   18.90
  -1  -4  -5  503.75   16.50
  -1  -4  -5  513.05   21.20
   1   4   5  503.15   16.10
   1   4   5  516.15   22.10
   1   4   5  525.05   16.50
  -2  -4  -5   -1.00    2.10
  -2  -4  -5   -1.90    5.90
  -2  -4  -5    6.20    5.10
  -2  -4  -5   -1.10    2.80
  -2  -4  -5    1.80    3.00
   2   4   5   -2.10    2.80
   2   4   5   -0.30    2.70
   2   4   5    4.80    2.70
  -3  -4  -5   91.19   13.60
  -3  -4  -5   84.39   11.20
  -3  -4  -5   62.19    7.50
  -3  -4  -5   55.99    6.30
  -3  -4  -5   57.79    7.10
   3   4   5   63.39    9.10
  -4  -4  -5   14.40    4.00
   4   4   5   10.10    3.70
   5   4   5    2.60    3.40
   6  -5  -5  -10.50    7.10
  -6   5   5  -12.20    8.20
  -6   5   5    3.10    6.00
   5  -5  -5   21.20    7.60
  -5   5   5   13.60    6.50
  -5   5   5   22.30    9.90
  -5   5   5   21.50    6.70
  -4   5   5    2.70    7.10
   3  -5  -5   -2.20    4.40
   3  -5  -5   -2.60    8.30
   3  -5  -5   -2.30    4.60
  -3   5   5    1.40    4.20
  -3   5   5   -2.20    4.40
  -3   5   5   -5.70    6.40
   2  -5  -5   12.70    7.10
   2  -5  -5   11.70    4.90
   2  -5  -5   10.20    4.50
  -2   5   5   11.90    4.60
  -2   5   5    8.70    6.50
  -2   5   5   11.90    4.50
   1  -5  -5   73.99    8.40
   1  -5  -5   83.69    8.30
   1  -5  -5   79.79   11.30
  -1   5   5   84.89    7.20
  -1   5   5   78.89    9.20
  -1   5   5   78.79    7.40
  -1   5   5   85.09    7.80
   0  -5  -5  318.07   18.70
   0  -5  -5  287.87   13.30
   0  -5  -5  286.97   15.80
   0   5   5  284.37   12.50
   0   5   5  279.17   12.90
   0   5   5  290.07   12.60
   0   5   5  281.57   16.00
  -1  -5  -5   26.60    6.10
  -1  -5  -5   39.30    8.00
  -1  -5  -5   23.40    4.90
  -1  -5  -5   22.30    4.80
   1   5   5   27.20    5.00
   1   5   5   30.60    5.20
  -2  -5  -5   40.30    5.90
  -2  -5  -5   51.49    7.50
  -2  -5  -5   58.69   10.10
  -2  -5  -5   41.20    5.20
   2   5   5   58.39    8.50
   2   5   5   51.39    6.10
   2   5   5   50.89    6.80
  -3  -5  -5   84.99    8.70
  -3  -5  -5   71.29    8.00
  -3  -5  -5   72.19    7.60
  -3  -5  -5   99.09   12.80
   3   5   5   80.49   10.80
  -4  -5  -5    6.40    3.60
   4   5   5    5.70    3.40
   5   5   5   -1.30    3.60
   6  -6  -5    5.70    7.90
  -6   6   5    2.10    6.60
  -6   6   5    0.80   10.00
   5  -6  -5   -0.10    7.00
  -5   6   5    9.70    8.90
  -5   6   5   -2.90    5.20
   4  -6  -5   -0.50    5.80
  -4   6   5    4.30    4.80
  -4   6   5   10.90    8.40
  -4   6   5   14.20    5.90
   3  -6  -5   -1.20    5.50
   3  -6  -5   -5.30    4.80
  -3   6   5    5.80    7.40
  -3   6   5    5.80    5.10
  -3   6   5   -5.50    4.40
   2  -6  -5    1.60    4.50
   2  -6  -5    4.80    9.30
   2  -6  -5   -3.90    4.60
  -2   6   5    4.20    6.10
  -2   6   5   -0.40    4.50
  -2   6   5    0.80    4.00
   1  -6  -5    6.20    8.40
   1  -6  -5   13.70    5.00
   1  -6  -5   14.60    5.50
  -1   6   5   15.40    4.80
  -1   6   5    9.30    7.10
   0  -6  -5   75.79    8.50
   0  -6  -5   94.39    9.10
   0  -6  -5  116.69   14.00
   0   6   5  101.39   13.50
   0   6   5  106.69    9.00
   0   6   5  102.39   11.90
  -1  -6  -5   50.69    7.90
  -1  -6  -5   40.00    6.70
  -1  -6  -5   42.80    7.10
   1   6   5   45.30    6.80
   1   6   5   57.29    7.70
  -2  -6  -5  115.29   12.80
  -2  -6  -5  178.38   14.00
  -2  -6  -5  173.78   11.90
  -2  -6  -5  154.48   10.10
   2   6   5  146.89   10.70
   2   6   5  134.29   10.10
   2   6   5  152.58   12.70
  -4  -6  -5   -6.40    4.30
  -4  -6  -5  -10.00    4.60
   4   6   5   -1.30    3.80
   5  -7  -5   -2.20    8.40
  -5   7   5    0.10    6.10
  -5   7   5    2.80    8.20
   4  -7  -5   -8.00    6.00
  -4   7   5    3.90   15.70
  -4   7   5   -5.60    5.30
   3  -7  -5    5.80    6.00
  -3   7   5    5.70    6.40
  -3   7   5    3.20    5.30
   2  -7  -5   -9.60    4.60
   2  -7  -5   -1.50    5.20
   2  -7  -5  -14.80   13.40
  -2   7   5   -5.30    4.00
  -2   7   5    1.80    5.80
   1  -7  -5   -3.00    5.30
   1  -7  -5   -0.50    4.30
  -1   7   5    2.60    4.20
  -1   7   5    8.40    6.20
   0  -7  -5    1.20    4.90
   0   7   5   -2.30    4.00
  -1  -7  -5   57.49    8.80
  -1  -7  -5   49.80    8.20
   1   7   5   58.39    9.00
  -2  -7  -5    6.60    8.60
  -2  -7  -5   10.90    5.90
  -2  -7  -5    9.90    5.30
  -2  -7  -5   -0.60    3.00
   2   7   5    6.00    3.70
   2   7   5    5.50    7.70
  -3  -7  -5    8.10    5.30
  -3  -7  -5   -9.00    5.60
  -3  -7  -5   -5.90    3.20
   3   7   5   -3.10    4.80
   3   7   5   -2.80    3.40
   4  -8  -5    3.80    7.20
  -4   8   5    0.00    6.30
  -4   8   5   13.20    7.90
   3  -8  -5    2.70    7.10
  -3   8   5    1.10    5.80
   2  -8  -5    5.70    6.30
  -2   8   5    0.90    5.00
  -2   8   5    3.80    6.90
   1  -8  -5   10.20    5.90
  -1   8   5   17.80    8.20
  -1   8   5    7.00    5.00
   0  -8  -5    2.50    6.30
   0  -8  -5    7.00    5.60
   0   8   5    3.00    5.20
  -1  -8  -5   10.80    3.40
  -1  -8  -5  -12.10   10.50
  -1  -8  -5   11.70    5.90
   1   8   5   23.00    6.70
  -2  -8  -5   -0.80    7.30
  -2  -8  -5   13.00    6.30
   2   8   5   14.40    5.00
   2   8   5    8.10    5.60
   2  -9  -5  -10.10    6.60
  -2   9   5   -2.00    5.00
  -2   9   5   18.40    8.90
   1  -9  -5   -4.40    5.40
  -1   9   5   21.50    8.10
  -1   9   5  -10.60    5.10
   0  -9  -5   28.50    7.70
   0   9   5   10.50    6.60
  -1  -9  -5    4.20    5.80
   1   9   5    6.60    6.40
   2   9  -6   -5.40    5.60
   2   9  -6    0.10    2.90
  -2  -9   6   10.00    7.00
   1   9  -6   16.30    6.90
  -1  -9   6   11.20    6.60
   0   9  -6   17.30    9.90
   0   9  -6    6.10    5.30
   0  -9   6    5.00    6.70
  -1   9  -6   34.40   10.50
   1  -9   6   22.80   12.20
  -2   9  -6    2.90    5.40
  -2   9  -6   13.10    8.70
   2  -9   6    0.80    6.10
   3  -9   6   -1.60    7.10
   3   8  -6   -8.90    5.00
   3   8  -6    1.50    2.60
  -3  -8   6    6.10    6.00
   2   8  -6   -2.00    2.40
   2   8  -6    4.20    9.40
  -2  -8   6    9.30    5.40
   1   8  -6   49.40   11.40
  -1  -8   6   24.80   10.90
   0   8  -6   12.60    9.10
   0  -8   6    3.60    6.30
  -1   8  -6   22.60    7.80
  -1   8  -6   33.70    7.70
  -1   8  -6   30.90   10.50
   1  -8   6   21.40    6.90
  -2   8  -6    8.10    7.20
  -2   8  -6   24.40    9.40
  -2   8  -6   15.80    5.90
   2  -8   6   10.80    3.80
   2  -8   6   12.30    6.00
  -3   8  -6   15.00    8.00
  -3   8  -6   -3.30    4.40
   3  -8   6   -0.80    3.80
   3  -8   6   -2.10    6.40
  -4   8  -6   -3.40    5.00
  -4   8  -6  -11.80    7.20
  -4   8  -6   23.20    8.70
   4  -8   6   -2.90    4.30
   4  -8   6    5.00    6.90
   4   7  -6    0.40    6.10
   4   7  -6   -2.60    2.20
  -4  -7   6    9.50    5.60
   3   7  -6   -3.60    2.10
   3   7  -6   -1.10    5.20
  -3  -7   6    7.70    5.10
   2   7  -6    4.70    4.70
   2   7  -6   -1.50    2.00
  -2  -7   6    5.00    5.50
  -2  -7   6   -4.00    5.50
   1   7  -6    1.60    5.00
   1   7  -6    7.20    5.80
  -1  -7   6    5.00    6.10
  -1  -7   6    0.20    4.70
   0   7  -6    5.90    7.80
   0   7  -6    0.10    6.10
   0   7  -6   -0.40    4.40
   0  -7   6    5.50    5.40
   0  -7   6    7.80    4.60
  -1   7  -6    5.30    5.40
  -1   7  -6    6.80    4.50
  -1   7  -6    3.80    7.50
   1  -7   6    8.80    5.40
  -2   7  -6   14.70    8.00
  -2   7  -6    1.60    4.90
  -2   7  -6   -4.70    4.20
   2  -7   6    1.90    5.40
   2  -7   6    0.30    2.60
  -3   7  -6   -2.60    5.10
  -3   7  -6   -1.00    4.80
   3  -7   6   -1.00    2.90
   3  -7   6   -3.80    4.90
  -4   7  -6   16.40    9.20
  -4   7  -6    2.60    4.70
  -4   7  -6   -5.10    6.00
   4  -7   6   -1.20    4.90
  -5   7  -6   -0.20    5.10
  -5   7  -6    8.80    9.90
  -5   7  -6   -4.20    6.60
   5  -7   6   -3.00    3.80
   5  -7   6   22.70    7.90
   5   6  -6    6.70    5.70
  -5  -6   6    7.90    6.00
   4   6  -6    9.40    2.80
   4   6  -6    0.80    5.70
  -4  -6   6   14.20    6.00
  -4  -6   6   22.30    6.40
   3   6  -6   17.90    6.30
  -3  -6   6    8.60    4.70
  -3  -6   6    5.40    4.60
   2   6  -6    9.70    5.10
   1   6  -6   69.59    9.80
   1   6  -6   73.69    9.70
  -1  -6   6   89.29   13.00
  -1  -6   6   59.19    9.10
  -1  -6   6   52.49    7.70
   0   6  -6   56.09   11.50
   0   6  -6   45.80    7.50
   0   6  -6   53.19    8.20
   0  -6   6   37.80    6.40
   0  -6   6   47.30    8.10
   0  -6   6   58.89   11.40
  -1   6  -6  175.78   14.60
  -1   6  -6  198.18   11.80
  -1   6  -6  178.98   11.70
   1  -6   6  176.58   16.00
   1  -6   6  179.18    9.30
   1  -6   6  182.88   12.70
  -2   6  -6    1.30    4.10
  -2   6  -6   -2.60    4.10
  -2   6  -6    4.10    6.10
   2  -6   6    1.90    2.40
   2  -6   6    0.80    4.50
   2  -6   6   -8.10    3.60
   2  -6   6    2.10    8.50
  -3   6  -6    6.10    7.70
  -3   6  -6    2.20    3.80
  -3   6  -6    0.60    4.60
   3  -6   6    5.10    4.80
   3  -6   6    4.30    3.40
  -4   6  -6   -1.00    4.10
  -4   6  -6    3.30    4.90
   4  -6   6   13.40    5.40
   4  -6   6    3.40    4.00
  -5   6  -6    7.90    7.00
  -5   6  -6   -5.60    4.40
  -5   6  -6    0.30    8.80
   5  -6   6   -2.90    3.80
   5  -6   6    4.10    5.00
   5   5  -6   15.80    6.20
  -5  -5   6   24.70    6.70
  -5  -5   6   21.90    6.50
   4   5  -6    3.70    3.70
  -4  -5   6   13.80    5.20
  -4  -5   6    5.00    5.20
   3   5  -6  102.89    9.90
  -3  -5   6   82.69    9.10
  -3  -5   6   97.29   10.30
   2   5  -6   86.99    9.30
   2   5  -6   91.69    9.50
  -2  -5   6   89.29    8.80
  -2  -5   6   99.69    9.90
  -2  -5   6  121.09   12.70
   1   5  -6   29.10    5.80
   1   5  -6   33.80    6.20
  -1  -5   6   22.50    5.20
  -1  -5   6   31.60    6.50
  -1  -5   6   44.60    9.00
   0   5  -6    5.80    3.50
   0   5  -6   -1.80    5.70
   0   5  -6    8.10    4.20
   0  -5   6   -1.70    2.50
   0  -5   6   -1.00    3.70
   0  -5   6   -4.50    5.70
  -1   5  -6  592.64   21.20
  -1   5  -6  569.64   19.90
  -1   5  -6  577.74   23.10
   1  -5   6  578.54   20.40
   1  -5   6  557.24   23.50
   1  -5   6  550.24   19.30
   1  -5   6  596.24   18.60
  -2   5  -6    3.50    7.00
  -2   5  -6    7.30    3.70
  -2   5  -6    6.60    3.40
   2  -5   6   11.10    7.70
   2  -5   6    5.10    3.90
   2  -5   6    2.60    2.50
   2  -5   6    5.70    3.70
  -3   5  -6    4.30    6.90
  -3   5  -6    1.40    3.70
  -3   5  -6    8.80    4.00
   3  -5   6    6.00    3.00
   3  -5   6    1.80   13.50
   3  -5   6    5.50    4.00
   3  -5   6    4.10    4.00
  -4   5  -6   -4.60    4.00
  -4   5  -6   -0.20    4.00
  -4   5  -6   -1.20    7.50
   4  -5   6    0.40    3.60
   4  -5   6    1.80    4.10
   4  -5   6   -8.40    4.30
  -5   5  -6  -10.90   10.60
  -5   5  -6   -5.50    8.10
  -5   5  -6   -5.70    3.90
  -5   5  -6    6.10    4.70
   5  -5   6   -2.10    3.60
  -6   5  -6   22.70   11.90
   6   4  -6    1.30    6.40
  -6  -4   6   -1.90    5.70
  -6  -4   6    5.50    5.00
   5   4  -6    2.90    5.10
  -5  -4   6    6.90    5.50
  -5  -4   6    0.70    4.50
   4   4  -6   17.30    5.30
  -4  -4   6   18.50    5.20
  -4  -4   6   17.30    5.70
   3   4  -6   -1.20    3.30
   3   4  -6    4.80    4.00
  -3  -4   6    2.40    3.80
  -3  -4   6    8.70    7.70
  -3  -4   6   -0.10    3.40
   2   4  -6   19.60    4.60
   2   4  -6    7.40    4.00
  -2  -4   6   10.20    4.30
  -2  -4   6    3.60    3.10
  -2  -4   6    9.80    6.60
   1   4  -6   -0.80    2.80
   1   4  -6    4.20    3.00
  -1  -4   6    1.50    4.80
  -1  -4   6   -1.60    3.60
  -1  -4   6    3.80    2.80
   0   4  -6   65.99    6.70
   0   4  -6   61.99    6.80
   0  -4   6   60.19    5.90
   0  -4   6   63.69    7.20
   0  -4   6   44.60    9.00
  -1   4  -6  910.01   25.30
  -1   4  -6  886.51   28.40
  -1   4  -6  882.81   25.30
   1  -4   6  864.71   28.20
   1  -4   6  833.52   24.00
   1  -4   6  829.42   24.40
   1  -4   6  885.91   25.60
   1  -4   6  878.41   24.60
  -2   4  -6   42.00    5.70
  -2   4  -6   36.10    8.60
  -2   4  -6   44.20    6.10
   2  -4   6   44.30    9.30
   2  -4   6   35.60    6.10
   2  -4   6   38.00    5.20
   2  -4   6   41.50    6.20
   2  -4   6   35.00    4.80
  -3   4  -6    2.70    3.10
  -3   4  -6   -2.80    6.40
  -3   4  -6    0.20    3.00
  -3   4  -6    5.60    7.30
   3  -4   6    2.80    3.20
   3  -4   6    3.00    7.10
   3  -4   6   -2.20    2.70
   3  -4   6   -2.40    2.40
  -4   4  -6    4.40    7.40
  -4   4  -6    3.60    8.00
  -4   4  -6   -1.00    3.20
  -4   4  -6   -3.50    3.50
   4  -4   6    4.20    3.30
   4  -4   6   15.00    6.70
  -5   4  -6   -0.20    9.10
  -5   4  -6   29.80   14.20
   5  -4   6    5.00    4.10
  -6   4  -6   -9.80    9.60
   6  -4   6   -0.90    4.60
   6   3  -6   15.00    6.50
   6   3  -6    6.30    3.30
  -6  -3   6   15.10    7.70
  -6  -3   6   13.30    5.60
   5   3  -6  171.28   10.40
   5   3  -6  159.98   12.00
  -5  -3   6  147.99   12.20
  -5  -3   6  171.38   12.30
   4   3  -6  172.98   11.90
  -4  -3   6  169.28   11.40
  -4  -3   6  193.28   12.20
   3   3  -6  207.08   11.80
  -3  -3   6  233.58   12.60
  -3  -3   6  229.98   12.00
   2   3  -6  357.86   16.80
   2   3  -6  320.37   13.80
  -2  -3   6  333.27   14.00
  -2  -3   6  323.67   13.40
  -2  -3   6  334.17   16.10
   1   3  -6    1.40    2.40
   1   3  -6   -1.80    2.10
  -1  -3   6    4.30    2.70
  -1  -3   6    0.10    2.20
  -1  -3   6   -3.10    3.10
   0   3  -6  150.98    7.00
   0   3  -6  151.18    8.20
   0   3  -6  142.69    9.90
   0   3  -6  154.78    8.40
   0  -3   6  152.68    8.40
   0  -3   6  143.29    8.20
   0  -3   6  158.88   10.50
  -1   3  -6  751.92   21.80
  -1   3  -6  753.92   21.10
  -1   3  -6  741.13   23.40
  -1   3  -6  750.82   21.20
   1  -3   6  738.23   20.90
   1  -3   6  749.13   21.60
   1  -3   6  748.23   23.50
   1  -3   6  742.13   21.10
   1  -3   6  731.03   21.80
  -2   3  -6    0.30    2.10
  -2   3  -6   -0.10    2.30
  -2   3  -6    3.80    4.40
  -2   3  -6    1.60    5.20
   2  -3   6   -0.30    2.20
   2  -3   6    2.60    2.40
   2  -3   6    1.20    2.20
   2  -3   6    2.00    4.70
   2  -3   6    1.90    3.50
  -3   3  -6   -1.50    2.20
  -3   3  -6    0.00    5.70
  -3   3  -6    4.20    4.90
   3  -3   6    2.80    6.40
   3  -3   6    1.10    2.60
  -4   3  -6   -0.70    6.60
  -4   3  -6   14.40    7.00
  -4   3  -6    1.30    2.70
   4  -3   6    0.00    2.60
  -5   3  -6   -2.80    8.50
  -5   3  -6   34.70   10.50
  -6   3  -6   -2.50   11.10
   6  -3   6    5.80    4.70
   6   2  -6    9.50    5.90
   6   2  -6    6.70    3.40
  -6  -2   6    7.70    5.80
  -6  -2   6    6.40    5.30
  -6  -2   6    9.70    2.80
   5   2  -6  113.29   10.80
  -5  -2   6   83.99    7.00
  -5  -2   6   73.49    9.10
  -5  -2   6   80.59    9.60
   4   2  -6   -5.00    3.20
   4   2  -6    0.70    3.90
  -4  -2   6   -0.90    1.30
  -4  -2   6    1.20    3.60
  -4  -2   6    1.50    3.40
   3   2  -6  165.38   12.10
   3   2  -6  154.38    9.80
  -3  -2   6  154.28    9.50
  -3  -2   6  170.08   10.30
   2   2  -6    3.60    2.60
  -2  -2   6    1.10    2.70
   1   2  -6 1295.37   33.60
   1   2  -6 1303.17   33.50
  -1  -2   6 1344.77   33.80
  -1  -2   6 1241.78   34.00
  -1  -2   6 1348.57   33.80
   0   2  -6 3412.96   73.99
   0   2  -6 3359.56   75.69
   0   2  -6 3402.96   76.39
   0   2  -6 3314.67   76.29
   0   2  -6 3381.76   77.09
   0  -2   6 3501.35   77.09
   0  -2   6 3189.48   75.79
   0  -2   6 3342.37   76.29
  -1   2  -6  269.17    9.40
  -1   2  -6  259.17   11.30
  -1   2  -6  264.07   10.70
  -1   2  -6  274.17   10.00
  -1   2  -6  263.67    9.40
   1  -2   6  274.57   11.60
   1  -2   6  276.97   10.80
   1  -2   6  273.87   11.30
   1  -2   6  251.37    9.20
   1  -2   6  255.97    9.00
  -2   2  -6  136.99    8.90
  -2   2  -6  142.89    8.90
  -2   2  -6  147.99    9.70
  -2   2  -6  155.58    8.60
   2  -2   6  137.69    9.40
   2  -2   6  137.59    9.40
   2  -2   6  135.99    9.80
  -3   2  -6   25.00    4.00
  -3   2  -6   24.50    4.30
  -3   2  -6   47.60    8.40
   3  -2   6   32.30    4.90
  -4   2  -6   11.90    7.10
  -4   2  -6   -4.60    4.40
  -4   2  -6    8.30    7.50
   4  -2   6    3.60    3.00
  -5   2  -6    0.60    8.80
  -5   2  -6   28.40   10.20
  -6   2  -6   -1.30   10.70
   6  -2   6   -1.60    4.30
   7   1  -6    4.80    6.80
   7   1  -6    0.00    4.00
  -7  -1   6   15.70   10.30
  -7  -1   6   -1.90    6.00
  -7  -1   6   -5.00    5.20
   6   1  -6   29.20    7.00
  -6  -1   6   15.20    3.60
  -6  -1   6   24.40    5.80
  -6  -1   6   42.20    8.40
   5   1  -6   28.60    5.80
   5   1  -6   42.90    7.40
  -5  -1   6   39.50    6.60
  -5  -1   6   25.90    3.80
  -5  -1   6   41.90    6.90
   4   1  -6    2.70    4.10
   4   1  -6    9.30    4.00
  -4  -1   6    5.60    1.90
  -4  -1   6    4.80    3.80
  -4  -1   6    7.50    3.80
   3   1  -6   93.09    7.50
   3   1  -6   86.49    7.40
  -3  -1   6   78.69    6.90
  -3  -1   6  103.09    7.90
   2   1  -6   13.60    3.50
   2   1  -6   20.10    4.30
  -2  -1   6   19.80    4.20
  -2  -1   6   14.90    3.40
   1   1  -6  235.88    9.60
   1   1  -6  223.08    9.40
  -1  -1   6  222.68    9.30
  -1  -1   6  233.08    9.40
  -1  -1   6  250.77    9.80
   0   1  -6  106.79    5.60
   0   1  -6   97.79    5.60
   0   1  -6   95.49    4.60
   0  -1   6   98.19    5.30
   0  -1   6  101.99    5.60
  -1   1  -6  184.78    8.00
  -1   1  -6  181.08    8.20
  -1   1  -6  175.58    8.70
   1  -1   6  189.08    8.20
   1  -1   6  174.58    9.50
  -2   1  -6    4.10    1.90
  -2   1  -6    6.10    2.50
  -2   1  -6    9.50    4.70
   2  -1   6    4.60    3.40
   2  -1   6    8.40    3.90
  -3   1  -6   -1.50    4.20
  -3   1  -6   -2.10    2.00
  -3   1  -6   -1.40    1.90
   3  -1   6    2.60    2.60
  -4   1  -6   22.40    6.20
  -4   1  -6   58.79   11.20
  -4   1  -6   52.49   10.40
   4  -1   6   32.90    5.50
   5  -1   6   26.70    5.60
  -6   1  -6   -0.50    9.70
   6  -1   6   -3.20    3.40
   7   0  -6    3.30    7.10
   7   0  -6   -0.10    4.20
  -7   0   6   -7.60    5.70
  -7   0   6   -2.70    5.70
  -7   0   6    7.20   10.60
   6   0  -6   13.00    5.60
  -6   0   6    5.20    5.10
  -6   0   6   12.10    6.10
  -6   0   6    3.40    2.80
  -6   0   6   13.90   16.60
   5   0  -6   34.40    6.70
  -5   0   6   21.20    5.40
  -5   0   6   31.40    7.00
  -5   0   6   16.60    3.20
   4   0  -6   65.19    8.30
   4   0  -6   64.79    7.50
  -4   0   6   68.79    8.00
  -4   0   6   66.59    5.80
   3   0  -6   -0.30    3.00
   3   0  -6   -2.40    2.70
  -3   0   6   -0.10    2.50
  -3   0   6   -0.40    2.60
   2   0  -6    8.90    3.40
   2   0  -6    8.80    3.50
  -2   0   6   11.90    3.30
  -2   0   6   12.30    3.40
   1   0  -6  352.56   12.00
   1   0  -6  363.26   12.10
  -1   0   6  359.46   11.90
  -1   0   6  345.37   11.70
   0   0  -6    2.20    2.00
   0   0  -6    1.40    2.10
   0   0   6    1.50    1.80
   0   0   6    0.50    1.10
   0   0   6    0.60    1.50
  -1   0  -6  277.27   10.20
  -1   0  -6  259.67   10.70
  -1   0  -6  244.68   11.50
   1   0   6  265.37   10.10
   1   0   6  260.77   11.90
  -2   0  -6  606.84   19.30
  -2   0  -6  602.14   20.80
  -2   0  -6  599.14   19.80
  -2   0  -6  583.74   19.40
   2   0   6  618.24   20.30
   2   0   6  640.34   28.90
   2   0   6  616.24   24.40
  -3   0  -6   51.29    8.40
  -3   0  -6   47.30    6.80
  -3   0  -6   52.39    9.00
   3   0   6   45.40    6.80
  -4   0  -6   14.10    7.10
  -4   0  -6    9.10    7.80
  -4   0  -6    0.30    3.70
   4   0   6    5.10    3.10
  -5   0  -6    8.60    9.70
   5   0   6    1.60    3.20
  -6   0  -6   -5.90   10.60
   6   0   6   -3.10    3.40
   7  -1  -6    4.00    7.00
   7  -1  -6   -0.30    4.50
  -7   1   6   12.40    6.30
  -7   1   6   -3.80    6.40
  -7   1   6    2.30   10.30
   6  -1  -6   54.29    8.70
  -6   1   6   69.39    9.90
  -6   1   6   40.50    6.70
  -6   1   6   69.29   21.30
   5  -1  -6   10.10    5.20
  -5   1   6    6.80    5.10
  -5   1   6    3.60    7.30
  -5   1   6    6.60    5.10
   4  -1  -6   15.80    5.00
   4  -1  -6   13.90    4.40
  -4   1   6   14.70    7.20
  -4   1   6   11.80    4.60
  -4   1   6   22.60    5.50
   3  -1  -6   -3.00    2.50
   3  -1  -6    0.50    3.50
  -3   1   6   -0.10    4.60
  -3   1   6   -2.90    2.80
  -3   1   6    1.50    3.10
   2  -1  -6   38.20    5.80
   2  -1  -6   40.70    5.20
  -2   1   6   49.60    5.30
  -2   1   6   47.10    5.40
  -2   1   6   43.40    6.00
   1  -1  -6   -0.30    2.40
   1  -1  -6    1.70    2.50
  -1   1   6    3.40    2.40
  -1   1   6    3.90    2.30
   0  -1  -6    3.50    2.00
   0  -1  -6    4.10    2.30
   0   1   6   -1.90    2.90
   0   1   6    6.30    2.00
   0   1   6    1.70    1.30
   0   1   6    4.80    2.10
  -1  -1  -6  794.32   23.00
  -1  -1  -6  808.32   24.00
   1   1   6  816.92   25.10
   1   1   6  833.32   23.10
  -2  -1  -6  103.49    7.50
  -2  -1  -6  105.59    9.00
  -2  -1  -6   94.99    7.10
   2   1   6   97.59    8.90
   2   1   6   95.29    7.60
  -3  -1  -6    8.90    2.90
  -3  -1  -6   14.40    3.40
  -3  -1  -6   23.20    6.70
   3   1   6   15.30    3.20
   3   1   6   14.00    3.40
  -4  -1  -6   13.50    4.30
   4   1   6   15.40    3.60
   4   1   6   20.40    4.50
  -5  -1  -6    2.60    9.60
   5   1   6   -0.90    2.90
   6   1   6   30.20    6.30
   7  -2  -6  -11.60    8.10
  -7   2   6   -2.80    6.60
  -7   2   6   -1.60   11.00
   6  -2  -6    0.90    5.70
  -6   2   6   10.70    6.70
  -6   2   6    4.40   16.30
  -6   2   6   -4.10    2.90
  -6   2   6    7.70    5.70
   5  -2  -6   -2.70    4.60
  -5   2   6   -5.10    4.30
  -5   2   6    4.00    4.50
  -5   2   6    0.00    6.50
   4  -2  -6    7.30    4.80
   4  -2  -6    4.40    3.90
  -4   2   6    3.30    3.70
  -4   2   6   10.80    4.50
  -4   2   6    6.30    6.40
   3  -2  -6   94.79    7.90
   3  -2  -6   87.29    8.60
  -3   2   6  103.89    7.80
  -3   2   6   86.99    7.50
  -3   2   6   92.09    9.00
   2  -2  -6  430.26   15.10
   2  -2  -6  444.56   15.40
  -2   2   6  446.06   14.90
  -2   2   6  418.76   14.80
  -2   2   6  431.96   14.90
   1  -2  -6  303.37   11.50
   1  -2  -6  307.47   11.30
  -1   2   6  321.67   11.20
  -1   2   6  310.37   11.10
   0  -2  -6    2.90    2.50
   0  -2  -6    2.70    2.40
   0   2   6    1.10    2.20
   0   2   6    2.60    2.10
   0   2   6    3.20    3.40
  -1  -2  -6  199.38    9.80
  -1  -2  -6  179.68    7.30
  -1  -2  -6  193.18    7.50
   1   2   6  193.78    9.80
   1   2   6  189.98   10.80
  -2  -2  -6   41.20    7.10
  -2  -2  -6   47.30    6.00
   2   2   6   45.60    6.40
   2   2   6   41.50    7.10
  -3  -2  -6    9.40    5.60
  -3  -2  -6    5.00    2.70
  -3  -2  -6    8.80    3.10
   3   2   6    5.50    2.50
  -4  -2  -6    7.50    3.80
   4   2   6    2.10    2.80
   5   2   6   -0.70    3.20
  -6  -2  -6   37.20   12.20
   7  -3  -6    1.10    7.50
  -7   3   6   -4.20   10.70
   6  -3  -6    0.20    5.90
  -6   3   6    1.50    9.00
  -6   3   6    1.30    5.40
  -6   3   6    4.90    6.20
   5  -3  -6   17.30    6.50
  -5   3   6   16.00    6.10
  -5   3   6   14.40    5.50
  -5   3   6   14.20    8.30
   4  -3  -6   12.70    5.90
   4  -3  -6   17.40    5.30
  -4   3   6   16.80    5.20
  -4   3   6   19.20    8.00
  -4   3   6    9.60    4.70
   3  -3  -6    0.90    4.30
   3  -3  -6    2.60    3.50
  -3   3   6    5.20    3.30
  -3   3   6   -2.00    5.60
  -3   3   6   -0.90    3.50
   2  -3  -6   21.90    4.90
   2  -3  -6   21.90    4.60
   2  -3  -6   21.50    5.70
  -2   3   6   26.10    4.80
  -2   3   6   27.30    6.20
  -2   3   6   25.30    4.50
   1  -3  -6    5.10    2.90
   1  -3  -6    3.00    3.70
  -1   3   6    4.70    2.70
  -1   3   6    6.80    3.10
  -1   3   6   -0.30    3.50
   0  -3  -6  647.74   21.30
   0  -3  -6  617.24   18.50
   0   3   6  638.04   18.30
   0   3   6  647.44   20.90
   0   3   6  672.73   18.50
  -1  -3  -6   55.99    6.50
  -1  -3  -6   52.09    7.20
  -1  -3  -6   51.39    5.20
   1   3   6   56.69    4.80
   1   3   6   56.39   12.20
   1   3   6   60.29    6.50
   1   3   6   59.59    5.00
  -2  -3  -6   52.49    8.60
  -2  -3  -6   52.09    6.80
   2   3   6   58.19    7.40
   2   3   6   57.69    7.90
  -3  -3  -6   16.10    6.70
  -3  -3  -6    7.20    3.40
   3   3   6   11.30    3.40
  -4  -3  -6   -6.10    3.30
   4   3   6   -0.90    2.50
   5   3   6    7.90    4.00
   6  -4  -6   -5.30    6.30
  -6   4   6    7.90    6.70
  -6   4   6    6.90    6.10
  -6   4   6   -1.80    8.90
   5  -4  -6    3.90    5.20
  -5   4   6    5.20    8.10
  -5   4   6   -2.10   10.10
  -5   4   6   -0.40    4.90
   4  -4  -6   -6.90    4.50
  -4   4   6    1.20    6.40
  -4   4   6   -3.00    4.10
  -4   4   6   -0.90    4.20
   3  -4  -6   41.60    6.90
   3  -4  -6   44.10   10.30
   3  -4  -6   44.70    7.80
  -3   4   6   46.40    9.00
  -3   4   6   42.30    6.50
  -3   4   6   42.50    6.80
   2  -4  -6   59.39    7.90
   2  -4  -6   56.29    9.40
   2  -4  -6   48.10    6.90
  -2   4   6   56.39    7.40
  -2   4   6   52.99    8.70
  -2   4   6   61.79    6.80
   1  -4  -6    7.30    5.00
   1  -4  -6    6.00    3.60
  -1   4   6    7.00    3.70
  -1   4   6    4.30    4.50
  -1   4   6    6.00    3.60
  -1   4   6    5.80    3.20
   0  -4  -6  286.57   12.40
   0  -4  -6  292.77   13.70
   0  -4  -6  276.77   12.10
   0   4   6  301.77   14.00
   0   4   6  278.97   11.60
   0   4   6  302.07   13.50
   0   4   6  296.97   11.80
  -1  -4  -6   76.69    7.00
  -1  -4  -6   82.29    8.80
  -1  -4  -6   74.29    6.80
  -1  -4  -6   82.19    8.70
   1   4   6   79.39    8.00
   1   4   6   80.59    6.60
   1   4   6   86.99    8.60
   1   4   6   81.89    6.60
  -2  -4  -6   -1.60    3.00
  -2  -4  -6   -5.20    2.60
  -2  -4  -6   -0.60    2.10
  -2  -4  -6   -4.90    5.50
  -2  -4  -6   -2.40    4.60
   2   4   6   -3.80    2.20
   2   4   6   -0.30    2.70
   2   4   6    1.20    2.20
  -3  -4  -6    5.30    2.90
  -3  -4  -6   25.80    8.40
  -3  -4  -6    7.40    6.50
   3   4   6    7.30    3.10
   4   4   6    3.20    5.50
   5   4   6   15.00    4.60
   6  -5  -6   -1.30    7.20
  -6   5   6   -3.70    5.80
  -6   5   6   -7.20    7.80
   5  -5  -6    0.80    5.90
  -5   5   6    3.00    8.20
  -5   5   6   -1.10    4.80
  -5   5   6   12.60    6.30
   4  -5  -6    9.10    9.30
   4  -5  -6   10.50    5.90
   3  -5  -6    7.90    5.40
   3  -5  -6   -1.20    4.50
   3  -5  -6   15.80   10.60
  -3   5   6   10.50    5.30
  -3   5   6   15.50    5.00
  -3   5   6   14.50    7.60
   2  -5  -6    1.20    4.10
   2  -5  -6   -5.20    7.10
   2  -5  -6    3.80    3.80
  -2   5   6   -4.30    3.40
  -2   5   6   -1.40    3.50
  -2   5   6   -1.20    5.60
   1  -5  -6   20.10    5.60
   1  -5  -6   19.70    5.30
   1  -5  -6   29.70    8.20
  -1   5   6   28.90    5.60
  -1   5   6   20.30    4.60
  -1   5   6   24.00    5.30
  -1   5   6   18.80    6.20
   0  -5  -6   43.30    8.70
   0  -5  -6   50.89    9.50
   0  -5  -6   31.80    6.00
   0   5   6   43.90    7.30
   0   5   6   34.90    5.50
   0   5   6   51.59    9.90
   0   5   6   47.80    6.90
  -1  -5  -6    2.10    5.90
  -1  -5  -6   -1.70    5.00
  -1  -5  -6   -0.80    3.30
  -1  -5  -6    0.70    3.40
   1   5   6   -0.90    2.60
   1   5   6   -0.20    4.30
   1   5   6   -3.80    2.90
  -2  -5  -6    1.20    4.10
  -2  -5  -6    0.80    2.40
  -2  -5  -6   22.40    7.60
  -2  -5  -6    6.90    6.20
  -2  -5  -6    0.10    3.80
   2   5   6    0.00    3.60
   2   5   6    5.70    3.10
   2   5   6   -0.80    3.80
  -3  -5  -6   40.20    9.40
  -3  -5  -6   34.50    6.00
  -4  -5  -6    5.90    3.80
   4   5   6    8.20    4.00
   5   5   6   18.50    5.30
   6  -6  -6   -1.50    8.10
  -6   6   6   -5.90    6.40
  -6   6   6  -10.10    9.10
   5  -6  -6    4.80    6.80
  -5   6   6    0.70    7.90
  -4   6   6   -4.90    6.70
  -4   6   6    0.20    5.20
   3  -6  -6    3.40    5.40
   3  -6  -6    1.70   21.80
   3  -6  -6    4.40    5.40
  -3   6   6    1.70    4.50
  -3   6   6    4.40    5.10
  -3   6   6   -4.60    5.50
   2  -6  -6   -1.30    4.50
   2  -6  -6   -2.00    9.70
   2  -6  -6   -1.70    4.00
  -2   6   6   -2.50    4.00
  -2   6   6    2.40    4.90
  -2   6   6   -7.00    3.70
   1  -6  -6  128.79   10.90
   1  -6  -6  108.69   10.20
   1  -6  -6  121.39   15.50
  -1   6   6  129.19   11.90
  -1   6   6  126.29    8.60
  -1   6   6  128.29   10.10
   0  -6  -6   58.39   11.60
   0  -6  -6   32.80    6.40
   0  -6  -6   34.30    6.40
   0   6   6   40.50    6.50
   0   6   6   43.60    7.50
   0   6   6   32.30    5.90
  -1  -6  -6    1.40    4.20
  -1  -6  -6   -1.90    4.30
  -1  -6  -6   15.60    7.80
   1   6   6   -4.40    3.40
   1   6   6   -4.90    3.50
  -2  -6  -6   19.10    4.00
  -2  -6  -6   21.70    6.00
  -2  -6  -6   12.80    8.20
  -2  -6  -6   14.80    5.30
   2   6   6    7.00    5.30
   2   6   6   15.70    4.70
   2   6   6   15.60    4.10
  -4  -6  -6  -11.00    4.60
  -4  -6  -6    2.90    4.70
  -4  -6  -6   11.70    4.40
   4   6   6   -6.00    3.40
   5  -7  -6  -11.40    7.40
  -5   7   6   -7.30    6.10
  -5   7   6    9.20    9.10
   4  -7  -6   -6.70    7.90
  -4   7   6   -0.70   13.50
  -4   7   6   -2.60    5.60
   3  -7  -6   -1.90    5.80
  -3   7   6   -6.50    4.60
  -3   7   6    6.20    6.90
   2  -7  -6   -3.80    4.70
   2  -7  -6  -22.30   14.20
   2  -7  -6    3.60    5.80
  -2   7   6   -0.10    6.40
  -2   7   6    3.40    4.90
   1  -7  -6   49.50   27.50
   1  -7  -6   20.50    8.60
   1  -7  -6   38.10    7.60
  -1   7   6   59.99   11.20
  -1   7   6   32.40    6.70
   0  -7  -6    0.60    5.40
   0  -7  -6   -4.10   21.00
   0  -7  -6    0.50    4.50
   0   7   6   -0.70    4.50
  -1  -7  -6    4.30    6.70
   1   7   6    9.00    5.10
  -2  -7  -6    2.80    4.90
  -2  -7  -6   -1.20   10.20
  -2  -7  -6   18.80    5.70
  -2  -7  -6   17.60    4.20
   2   7   6   10.30    4.60
   2   7   6   14.90    5.90
  -3  -7  -6    7.10    5.40
  -3  -7  -6   -9.00    5.70
  -3  -7  -6   -1.80    3.70
   3   7   6    0.80    3.80
   3   7   6   -8.70    4.80
   4  -8  -6   -0.30    7.30
  -4   8   6   21.40    8.60
  -4   8   6   -1.40    6.40
   3  -8  -6    2.40    6.20
  -3   8   6   12.20    7.80
   2  -8  -6    0.40    6.30
  -2   8   6   -0.20    5.10
  -2   8   6   12.10    7.20
   1  -8  -6    7.20    6.00
  -1   8   6   34.20    9.40
  -1   8   6   18.30    6.20
   0  -8  -6    4.20    5.60
   0   8   6    1.40    4.70
  -1  -8  -6   19.70    6.60
  -1  -8  -6   15.70    3.80
  -1  -8  -6   -6.30    9.20
   1   8   6   29.50    6.70
  -2  -8  -6    1.80    3.40
  -2  -8  -6    2.00    5.50
   2   8   6   -3.20    5.80
   2   8   6   -2.30    3.50
   2  -9  -6    2.00    6.80
   1  -9  -6    1.50    6.10
  -1   9   6   15.80    8.60
  -1   9   6    3.70    6.90
   0  -9  -6    7.90    6.40
   0   9   6   11.00    6.60
  -2  -9   7   11.90    7.10
   1   9  -7    2.30    5.50
  -1  -9   7   12.30    6.50
   0   9  -7  133.59   14.10
   0   9  -7  189.98   18.60
   0  -9   7  172.88   15.60
  -1   9  -7    6.30    5.90
   1  -9   7   12.10   11.20
  -2   9  -7   23.80    8.70
  -2   9  -7    0.50    5.80
   2  -9   7    6.00    7.50
   3   8  -7   -1.00    6.00
  -3  -8   7   -2.30    5.90
   2   8  -7    1.80    5.70
   2   8  -7    0.40    2.40
  -2  -8   7   16.70    6.70
   1   8  -7    7.10    6.10
   0   8  -7   -1.40    5.30
   0   8  -7   15.30    9.30
   0  -8   7    8.40    6.20
  -1   8  -7   10.90    7.00
  -1   8  -7   29.30   10.20
  -1   8  -7   16.60    6.10
   1  -8   7   21.10    7.20
  -2   8  -7   13.70    7.50
  -2   8  -7    3.30    4.90
  -2   8  -7    0.70    6.00
   2  -8   7    5.90    5.60
   2  -8   7   -2.00    2.90
  -3   8  -7   -7.50    6.80
  -3   8  -7    4.60    5.60
   3  -8   7    1.40    4.00
   3  -8   7   -4.40    5.80
   4   7  -7   -9.10    7.10
  -4  -7   7    4.10    6.10
   3   7  -7   -2.70    4.30
  -3  -7   7    4.70    5.30
   2   7  -7   66.99    6.90
   2   7  -7   64.69    9.70
  -2  -7   7   72.49   11.10
   1   7  -7   54.49    9.10
   1   7  -7   37.30    8.70
  -1  -7   7   46.80    9.10
   0   7  -7   88.39   10.20
   0   7  -7   91.09   12.40
   0   7  -7   97.59   13.70
   0  -7   7   99.09   11.00
  -1   7  -7    1.50    7.20
  -1   7  -7   -1.80    5.00
  -1   7  -7    0.40    4.40
   1  -7   7    3.70    5.20
  -2   7  -7   -0.30    5.40
  -2   7  -7    8.50    7.00
  -2   7  -7    8.20    5.20
   2  -7   7    4.60    3.20
   2  -7   7    3.00    4.80
  -3   7  -7   12.30    8.40
   3  -7   7    8.30    5.50
   3  -7   7    0.40    3.40
  -4   7  -7    8.70    6.60
  -4   7  -7   16.30    8.80
  -4   7  -7    3.00    5.20
   4  -7   7   -3.80    3.70
   4  -7   7    1.50   10.80
   5   6  -7   21.60    6.90
  -5  -6   7   24.00    6.70
   4   6  -7   -0.30    4.80
  -4  -6   7    5.90    5.50
   3   6  -7   -3.00    4.70
  -3  -6   7   -3.20    4.20
  -3  -6   7   -6.00    4.00
   2   6  -7  139.69   11.90
   2   6  -7  142.19   11.90
  -2  -6   7  125.69   10.90
  -2  -6   7  130.59   12.40
   1   6  -7   -1.70    4.30
  -1  -6   7   -7.40    4.40
  -1  -6   7   -6.00    3.90
   0   6  -7   77.89   13.20
   0   6  -7   58.39    8.20
   0   6  -7   60.09    8.20
   0  -6   7   51.89    8.10
   0  -6   7   66.99   11.60
   0  -6   7   59.79    8.70
  -1   6  -7   51.39    7.90
  -1   6  -7   54.99   11.00
  -1   6  -7   44.10    6.80
   1  -6   7   50.39    7.90
   1  -6   7   56.09   12.40
   1  -6   7   44.10    5.90
   1  -6   7   41.80    8.40
  -2   6  -7    8.50    4.60
  -2   6  -7   18.70    8.20
  -2   6  -7   10.20    4.40
   2  -6   7   20.50    8.40
   2  -6   7    3.60    4.30
   2  -6   7    7.00    3.20
   2  -6   7   -2.90    9.30
  -3   6  -7   -3.80    4.00
  -3   6  -7    1.30    3.90
  -3   6  -7    9.20    8.00
   3  -6   7   -0.60    4.10
   3  -6   7    1.30    3.40
  -4   6  -7    8.80    8.90
  -4   6  -7  -18.90    8.30
   4  -6   7    3.10    3.90
   4  -6   7    3.80    4.80
  -5   6  -7    2.10    5.90
  -5   6  -7   -0.30    9.50
  -5   6  -7    7.50    4.90
   5  -6   7   12.10    4.80
   5   5  -7    3.00    4.80
  -5  -5   7    1.90    4.80
  -4  -5   7    1.30    4.50
  -4  -5   7    1.80    5.00
   2   5  -7   66.39    8.90
   2   5  -7   55.39    8.10
  -2  -5   7   59.39    9.10
  -2  -5   7   76.79   11.60
  -2  -5   7   55.69    8.40
   1   5  -7   -2.60    3.60
   1   5  -7   -0.40    3.70
  -1  -5   7    3.40    3.70
  -1  -5   7    9.20    6.50
  -1  -5   7   -3.80    3.80
   0   5  -7   -5.00    5.30
   0   5  -7   -5.00    3.50
   0   5  -7    0.10    3.40
   0  -5   7   -1.60    5.80
   0  -5   7   -0.90    3.70
   0  -5   7    0.00    3.00
  -1   5  -7    1.80    3.60
  -1   5  -7    9.30    4.10
  -1   5  -7    8.00    6.50
   1  -5   7    4.40    3.40
   1  -5   7    7.40    4.30
   1  -5   7    9.80    7.20
  -2   5  -7   11.10    4.40
  -2   5  -7   11.20    4.30
  -2   5  -7   10.10    7.10
   2  -5   7    6.90    4.30
   2  -5   7   18.30    5.20
   2  -5   7    9.00    3.60
   2  -5   7   14.80    9.20
  -3   5  -7    8.90    4.20
  -3   5  -7   10.30    4.40
  -3   5  -7   10.60    8.00
   3  -5   7   11.60    4.50
   3  -5   7    7.00    3.60
   3  -5   7    6.80    4.40
   3  -5   7    0.50   10.00
  -4   5  -7    1.70    8.20
  -4   5  -7   -3.90    3.90
   4  -5   7   -1.00    3.40
   4  -5   7   -1.90    3.20
  -5   5  -7    9.50    9.60
  -5   5  -7   -3.90    3.90
   5  -5   7    2.70    3.90
   6   4  -7    8.60    7.10
  -6  -4   7   22.90    7.40
   5   4  -7    2.10    5.10
  -5  -4   7    2.80    4.70
  -5  -4   7   -5.50    4.00
   4   4  -7    3.10    4.60
  -4  -4   7    4.80    4.60
  -4  -4   7   -4.60    3.60
   3   4  -7    7.90    5.00
   3   4  -7    3.10    3.70
  -3  -4   7   -1.00    3.80
  -3  -4   7    0.90    4.00
  -3  -4   7    7.00    8.30
   2   4  -7  172.28   11.20
   2   4  -7  171.28   11.20
  -2  -4   7  173.88   11.70
  -2  -4   7  166.38   12.90
  -2  -4   7  162.98   10.20
   1   4  -7  188.58   10.60
   1   4  -7  185.58   10.90
  -1  -4   7  161.98    9.70
  -1  -4   7  172.58   10.60
  -1  -4   7  170.48   11.90
   0   4  -7  403.56   20.00
   0   4  -7  359.16   14.50
   0   4  -7  388.06   15.00
   0   4  -7  367.96   12.60
   0  -4   7  359.36   14.20
   0  -4   7  360.76   16.90
   0  -4   7  378.26   15.00
  -1   4  -7    3.10    3.20
  -1   4  -7    2.10    2.10
  -1   4  -7    3.40    3.10
  -1   4  -7    6.40    5.30
   1  -4   7    3.60    2.90
   1  -4   7    3.40    2.10
   1  -4   7   -0.20    2.70
   1  -4   7    0.30    2.80
   1  -4   7    8.40    6.10
  -2   4  -7    6.50    6.90
  -2   4  -7   10.10    3.90
  -2   4  -7   10.40    3.60
   2  -4   7    8.00    2.90
   2  -4   7    3.30    4.00
   2  -4   7   12.60    7.10
   2  -4   7    6.40    3.40
   2  -4   7   10.40    3.20
  -3   4  -7   54.89    8.10
  -3   4  -7   51.29    6.80
  -3   4  -7   44.00    6.60
  -3   4  -7   66.79   11.50
   3  -4   7   59.09    8.40
   3  -4   7   42.10    5.60
   3  -4   7   60.39   11.40
  -4   4  -7    0.70    3.40
  -4   4  -7   -6.00    7.40
  -4   4  -7   -4.50    3.10
  -4   4  -7    0.40    3.10
   4  -4   7   -0.20    3.10
  -5   4  -7   26.80   12.10
  -5   4  -7   -4.10   18.60
   5  -4   7    5.70    4.20
  -6   4  -7    5.90   11.00
   6  -4   7   -3.90    4.00
   6   3  -7   23.50    7.00
   6   3  -7    2.60    3.20
  -6  -3   7   12.30    5.80
  -6  -3   7    3.40    5.20
   5   3  -7    3.20    4.40
   5   3  -7   -2.10    2.60
  -5  -3   7    7.90    5.20
  -5  -3   7    5.40    4.70
   4   3  -7   83.19    9.60
  -4  -3   7   77.89    9.00
  -4  -3   7   83.89    9.60
   3   3  -7  289.07   14.30
  -3  -3   7  290.67   14.20
  -3  -3   7  302.57   14.70
   2   3  -7   24.00    4.80
   2   3  -7   25.30    5.40
  -2  -3   7   21.20    4.20
  -2  -3   7   31.20    7.70
  -2  -3   7   19.90    4.70
   1   3  -7  108.19    5.40
   1   3  -7  102.19    7.80
   1   3  -7  112.59    7.90
  -1  -3   7  107.69    7.40
  -1  -3   7   95.09    8.40
  -1  -3   7  118.79    8.20
   0   3  -7 1635.34   41.20
   0   3  -7 1710.53   43.40
   0   3  -7 1624.04   42.00
   0   3  -7 1649.93   39.90
   0  -3   7 1566.24   41.10
   0  -3   7 1656.03   42.80
   0  -3   7 1604.04   40.70
  -1   3  -7  203.18    9.40
  -1   3  -7  199.98    9.70
  -1   3  -7  194.58   11.10
  -1   3  -7  205.48    9.80
   1  -3   7  197.68    9.10
   1  -3   7  204.88    9.60
   1  -3   7  200.38    8.90
   1  -3   7  202.68   11.40
   1  -3   7  191.18   10.50
  -2   3  -7   26.20    4.00
  -2   3  -7   36.90    4.90
  -2   3  -7   27.10    4.10
  -2   3  -7   52.19   14.50
  -2   3  -7   16.20    3.00
   2  -3   7   21.00    3.80
   2  -3   7   23.80    3.70
   2  -3   7   33.80    6.20
   2  -3   7   39.40    7.60
   2  -3   7   30.00    4.50
  -3   3  -7    1.70    6.40
  -3   3  -7    2.90    2.40
  -3   3  -7    2.00    5.90
   3  -3   7    2.70    2.90
   3  -3   7   -1.10    5.70
  -4   3  -7   -0.40    7.10
  -4   3  -7   -3.10    2.90
  -4   3  -7   -6.10    7.80
   4  -3   7   -0.60    3.30
  -5   3  -7   68.59   13.40
  -5   3  -7   44.10   12.70
  -6   3  -7  -14.40    9.60
   6  -3   7   -0.40    4.10
   6   2  -7   -3.70    5.40
   6   2  -7   -4.10    3.00
  -6  -2   7    9.20    6.00
  -6  -2   7   -0.40    4.90
  -6  -2   7   -1.00    2.20
   5   2  -7    5.00    5.10
  -5  -2   7    2.10    4.90
  -5  -2   7   -2.80    4.20
   4   2  -7   -0.70    3.90
   4   2  -7   -2.30    3.80
  -4  -2   7    2.40    3.20
  -4  -2   7    0.40    4.10
   3   2  -7    6.40    4.00
   3   2  -7   20.30    5.10
  -3  -2   7    8.80    4.30
  -3  -2   7    8.90    3.60
   2   2  -7   40.00    5.70
  -2  -2   7   36.40    5.20
  -2  -2   7   43.10    5.90
   1   2  -7  362.86   13.10
   1   2  -7  328.07   12.60
  -1  -2   7  314.97   12.90
  -1  -2   7  316.17   13.30
  -1  -2   7  348.57   13.00
   0   2  -7 2244.08   51.89
   0   2  -7 2175.08   50.89
   0   2  -7 2230.18   51.39
   0   2  -7 2127.69   50.99
   0  -2   7 2146.69   51.19
   0  -2   7 2107.69   50.89
   0  -2   7 2009.60   50.39
  -1   2  -7  279.07   12.10
  -1   2  -7  275.17    9.90
  -1   2  -7  269.07   11.40
  -1   2  -7  290.07   10.70
  -1   2  -7  274.97   10.00
   1  -2   7  280.47   11.80
   1  -2   7  275.17    9.60
   1  -2   7  279.07   12.60
   1  -2   7  280.17    9.90
  -2   2  -7   45.60    5.90
  -2   2  -7   40.00    6.00
  -2   2  -7   46.10    6.90
  -2   2  -7   41.30    7.50
   2  -2   7   43.80    6.40
   2  -2   7   41.50    7.40
   2  -2   7   42.00    6.90
  -3   2  -7   12.70    3.20
  -3   2  -7   19.40    7.00
  -3   2  -7   32.60    8.10
  -3   2  -7   14.10    3.70
   3  -2   7   15.30    3.90
   3  -2   7   23.80    6.50
  -4   2  -7   21.40    4.20
  -4   2  -7   33.40    9.90
   4  -2   7   14.60    4.10
  -5   2  -7   17.20   10.90
   5  -2   7    9.90    4.40
  -6   2  -7   -7.90   10.60
   6  -2   7   -3.00    3.50
   7   1  -7   11.20    7.20
   7   1  -7    1.50    4.40
  -7  -1   7  -13.60    6.50
  -7  -1   7   -4.50    5.70
  -7  -1   7   24.70   10.60
   6   1  -7   42.30    8.30
  -6  -1   7   31.10    7.90
  -6  -1   7   37.60    8.50
   5   1  -7  139.89   11.20
  -5  -1   7  107.09   10.20
  -5  -1   7  114.39   10.60
  -5  -1   7  101.09    7.40
   4   1  -7  144.19   11.00
   4   1  -7  143.69   10.40
  -4  -1   7  152.68   10.70
  -4  -1   7  150.88    7.20
  -4  -1   7  162.58   10.50
   3   1  -7  155.68    9.70
   3   1  -7  157.98    9.90
  -3  -1   7  161.98   10.00
  -3  -1   7  154.38    9.30
   2   1  -7   43.60    6.00
   2   1  -7   51.39    6.00
  -2  -1   7   52.29    5.40
  -2  -1   7   50.99    5.70
   1   1  -7 1022.40   27.70
   1   1  -7 1034.80   27.70
  -1  -1   7 1033.80   27.60
  -1  -1   7 1056.39   27.80
   0   1  -7 2199.28   49.99
   0  -1   7 2276.07   49.99
   0  -1   7 2096.19   50.89
   0  -1   7 2247.88   51.29
  -1   1  -7   50.89    4.80
  -1   1  -7   54.39    5.60
   1  -1   7   54.39    6.50
  -2   1  -7    0.70    1.80
  -2   1  -7    3.20    2.20
  -2   1  -7    0.80    4.40
  -2   1  -7    2.90    3.70
   2  -1   7    0.70    3.20
   2  -1   7   -0.60    1.80
  -3   1  -7   31.90   12.50
  -3   1  -7   18.40    3.90
  -3   1  -7   29.40    7.00
  -3   1  -7   12.30    3.30
   3  -1   7   15.80    3.80
   3  -1   7   23.10    6.70
  -4   1  -7   10.40    7.90
  -4   1  -7    3.90    3.20
  -4   1  -7   -5.80    5.60
  -4   1  -7   15.90    8.10
   4  -1   7    5.60    3.10
  -5   1  -7   64.49   12.90
   5  -1   7   36.40    9.40
  -6   1  -7   -8.40   10.80
   7   0  -7  -14.30    6.20
   7   0  -7    0.00    4.90
  -7   0   7    4.70   10.20
  -7   0   7   -2.40    6.50
  -7   0   7   -7.40    5.60
   6   0  -7   39.90    8.30
  -6   0   7   16.30    3.50
  -6   0   7   62.59   19.00
  -6   0   7   22.00    7.40
  -6   0   7   29.50    7.30
   5   0  -7    1.90    4.40
  -5   0   7    3.70    4.20
  -5   0   7    1.70    2.30
  -5   0   7   -6.00    3.50
   4   0  -7   55.99    7.50
   4   0  -7   55.39    7.40
  -4   0   7   54.29    5.20
  -4   0   7   62.09    8.30
   3   0  -7   24.80    5.00
   3   0  -7   27.50    5.30
  -3   0   7   32.90    5.30
   2   0  -7  226.38   10.40
   2   0  -7  235.18   10.70
  -2   0   7  236.18   10.60
  -2   0   7  237.18   11.80
   1   0  -7 4772.72  108.09
   1   0  -7 4746.53  107.99
  -1   0   7 4999.40  107.89
   0   0  -7  384.16   12.10
   0   0  -7  385.86   12.10
   0   0   7  401.86   11.80
   0   0   7  351.46   11.60
   0   0   7  388.86   12.00
  -1   0  -7  357.16   19.60
  -1   0  -7  425.96   14.00
   1   0   7  427.76   14.20
   1   0   7  446.06   16.60
  -2   0  -7   53.69    6.30
  -2   0  -7   53.09    6.10
  -2   0  -7   61.39    7.50
  -2   0  -7   61.39    7.00
   2   0   7   53.89    7.50
   2   0   7   60.19    6.40
  -3   0  -7    4.40    5.80
  -3   0  -7    0.90    2.60
  -3   0  -7    2.70    5.20
  -3   0  -7    4.00    2.70
   3   0   7    4.50    2.70
   3   0   7   -3.10    3.80
   3   0   7    2.50    2.60
  -4   0  -7   -1.20    7.50
  -4   0  -7    3.90    2.90
  -4   0  -7    3.00    5.50
   4   0   7   -3.50    2.50
  -5   0  -7   -0.60    8.60
   5   0   7   -0.90    3.30
  -6   0  -7   -6.50   11.10
   6   0   7    8.40    4.00
   7  -1  -7    7.50    8.00
  -7   1   7    5.20   11.00
  -7   1   7   -7.10    7.40
  -7   1   7   10.10    6.90
   6  -1  -7    4.60    5.50
  -6   1   7    9.40    3.60
  -6   1   7   12.40    5.50
   5  -1  -7    7.80    5.00
  -5   1   7    6.60    7.40
  -5   1   7    7.50    4.80
  -5   1   7    6.70    5.10
   4  -1  -7    6.20    4.10
   4  -1  -7    2.90    4.40
  -4   1   7   -4.50    3.50
  -4   1   7    4.00    6.10
  -4   1   7    0.00    3.70
   3  -1  -7   -3.70    2.80
   3  -1  -7   -3.20    3.50
  -3   1   7   -3.10    4.50
  -3   1   7   -0.90    3.00
  -3   1   7    2.20    3.30
   2  -1  -7    1.20    3.00
   2  -1  -7   -0.60    2.60
  -2   1   7   -0.20    2.70
  -2   1   7    2.20    3.40
  -2   1   7   -0.10    2.70
   1  -1  -7  630.94   18.90
   1  -1  -7  648.74   19.10
  -1   1   7  685.13   18.90
   0  -1  -7  679.03   18.30
   0  -1  -7  650.03   18.30
   0   1   7  657.93   18.00
   0   1   7  684.73   19.10
   0   1   7  706.93   18.00
   0   1   7  694.93   21.50
  -1  -1  -7   36.10    5.20
   1   1   7   44.30    5.10
   1   1   7   43.60    7.00
  -2  -1  -7    1.00    2.00
  -2  -1  -7   -3.20    3.70
  -2  -1  -7    1.00    1.90
   2   1   7   -0.30    3.40
   2   1   7    0.30    1.60
  -3  -1  -7   56.19    9.10
  -3  -1  -7   29.30    4.60
  -3  -1  -7   38.30    5.60
   3   1   7   54.29    9.70
   3   1   7   53.69    7.30
  -4  -1  -7  115.39   11.10
  -4  -1  -7  126.39   14.60
   4   1   7  126.59   11.00
   4   1   7  118.19   10.70
  -5  -1  -7    5.10    8.80
   5   1   7    1.20    3.50
  -6  -1  -7   -8.00   10.40
   6   1   7    2.50    3.90
   7  -2  -7   -5.60    7.80
  -7   2   7    4.40   10.50
   6  -2  -7   23.70    8.30
  -6   2   7   -1.50   15.10
  -6   2   7   11.70    6.50
  -6   2   7   33.10    8.00
   5  -2  -7   15.90    5.90
  -5   2   7   16.50    5.60
  -5   2   7   19.80    6.50
  -5   2   7   12.10    7.80
   4  -2  -7   -1.00    3.50
   4  -2  -7   -3.50    4.00
  -4   2   7   -1.60    4.00
  -4   2   7    3.10    5.90
  -4   2   7   -0.30    3.80
   3  -2  -7    5.40    3.40
   3  -2  -7    7.60    4.70
  -3   2   7    2.50    3.20
  -3   2   7    8.00    5.00
  -3   2   7    4.10    3.70
   2  -2  -7   13.50    4.20
   2  -2  -7    9.80    5.60
  -2   2   7   15.60    4.20
  -2   2   7   14.70    3.60
   1  -2  -7  178.38    8.90
   1  -2  -7  191.48    9.30
  -1   2   7  188.08    8.70
  -1   2   7  182.88    8.60
   0  -2  -7   41.60    5.20
   0  -2  -7   37.60    4.70
   0   2   7   46.30    4.50
   0   2   7   45.00    4.70
   0   2   7   46.00    6.40
  -1  -2  -7  184.48    9.60
  -1  -2  -7  185.68   11.10
   1   2   7  187.78    9.90
   1   2   7  178.98   11.30
  -2  -2  -7   43.70    8.00
  -2  -2  -7   48.70    6.70
   2   2   7   52.79    6.80
   2   2   7   47.60    7.90
  -3  -2  -7   20.80    7.00
  -3  -2  -7   10.30    3.60
   3   2   7   10.00    3.20
  -4  -2  -7   -1.10    3.60
   4   2   7    6.10    3.20
  -5  -2  -7   20.70    8.20
  -6  -2  -7   27.60   11.90
   6  -3  -7    0.80    6.70
  -6   3   7    9.70    6.20
  -6   3   7    5.10    6.10
  -6   3   7    1.70    8.80
   5  -3  -7    2.00    6.10
  -5   3   7    9.30    6.10
  -5   3   7   -1.40    4.50
  -5   3   7    5.90    8.00
   4  -3  -7    1.60    4.00
   4  -3  -7    6.40    7.90
  -4   3   7    6.30    7.10
  -4   3   7    5.50    4.40
  -4   3   7    1.20    4.30
   3  -3  -7    4.40    3.90
   3  -3  -7   -0.10    4.30
  -3   3   7    3.10    4.10
  -3   3   7    1.80    5.60
  -3   3   7    2.80    3.10
   2  -3  -7   17.90    4.80
   2  -3  -7   12.10    5.40
   2  -3  -7    8.70    3.80
  -2   3   7    8.70    5.40
  -2   3   7    8.20    3.40
   1  -3  -7  123.79    8.30
   1  -3  -7  112.59    7.80
  -1   3   7  125.59    7.70
  -1   3   7  117.09    7.50
   0  -3  -7  175.88    9.20
   0  -3  -7  181.08    8.90
   0   3   7  195.88   11.00
   0   3   7  195.08    8.60
   0   3   7  190.38    8.70
  -1  -3  -7   83.49    6.20
  -1  -3  -7   96.09    6.40
  -1  -3  -7   91.49    8.90
   1   3   7   91.59    9.00
   1   3   7   91.09    7.70
   1   3   7   90.19    5.90
   1   3   7   82.09    5.60
  -2  -3  -7   -2.60    4.50
  -2  -3  -7    2.30    2.10
   2   3   7    4.80    4.90
   2   3   7    0.10    2.30
  -3  -3  -7   20.20    7.50
  -3  -3  -7   15.50    3.50
   3   3   7   11.60    3.30
  -4  -3  -7    2.60    3.40
   4   3   7    0.00    3.30
   5   3   7   22.20    5.10
   6  -4  -7    2.10    7.40
  -6   4   7   -6.80    5.60
  -6   4   7   -2.20    9.30
   5  -4  -7   11.40    6.70
  -5   4   7   -0.30    5.60
  -5   4   7    8.70    9.40
  -5   4   7    8.10    6.30
   4  -4  -7    5.80    4.50
   4  -4  -7   -7.10    4.70
  -4   4   7    0.10    4.10
  -4   4   7   -1.70    4.20
  -4   4   7   -4.90    5.90
   3  -4  -7   83.29   10.20
   3  -4  -7   68.89    8.80
   3  -4  -7   98.09   12.60
  -3   4   7   89.79    9.30
  -3   4   7   84.59   10.80
  -3   4   7   73.89    8.20
   2  -4  -7   79.89    9.20
   2  -4  -7   76.99   12.70
   2  -4  -7   83.29    8.40
  -2   4   7   96.79    8.50
  -2   4   7   80.99    9.40
  -2   4   7   90.29    7.90
   1  -4  -7    3.80    5.40
   1  -4  -7    2.00    3.80
   1  -4  -7    1.90    3.50
  -1   4   7   -3.50    3.10
  -1   4   7    0.80    3.60
  -1   4   7    1.00    3.10
  -1   4   7   -2.00    3.60
   0  -4  -7   47.30    6.20
   0  -4  -7   46.50    6.70
   0   4   7   53.59    6.20
   0   4   7   56.09    7.90
   0   4   7   51.09    5.90
  -1  -4  -7    6.20    3.50
  -1  -4  -7    2.20    2.80
   1   4   7    1.30    2.80
   1   4   7    3.20    4.30
   1   4   7    2.30    2.10
   1   4   7    7.30    3.20
  -2  -4  -7   17.30    6.40
  -2  -4  -7   13.20    3.60
  -2  -4  -7   27.70    7.00
  -2  -4  -7    7.90    3.50
  -2  -4  -7   14.50    4.00
   2   4   7   14.40    3.90
   2   4   7   16.90    5.80
  -3  -4  -7   17.70    6.60
  -4  -4  -7   -1.40    3.80
   4   4   7    0.20    3.10
   5   4   7    4.40    4.00
   6  -5  -7   -6.40    7.80
  -6   5   7   -6.20    8.60
  -6   5   7    4.00    6.60
   5  -5  -7   -3.10    6.80
  -5   5   7    5.40    5.20
  -5   5   7   -4.70    7.70
   4  -5  -7    0.50    5.90
  -4   5   7    4.70    4.90
  -4   5   7    4.80    7.40
  -4   5   7    0.20    4.60
   3  -5  -7   12.00    6.30
   3  -5  -7   25.70   11.60
  -3   5   7   16.40    7.00
  -3   5   7    9.10    4.90
  -3   5   7    6.70    4.70
   2  -5  -7    5.20    4.40
   2  -5  -7    2.10    4.80
   2  -5  -7   -5.10    7.10
  -2   5   7   -0.20    4.00
  -2   5   7    1.70    3.60
  -2   5   7   -0.50    5.00
  -2   5   7   -1.50    3.80
   1  -5  -7   53.59    9.80
   1  -5  -7   35.60    6.10
   1  -5  -7   36.50    6.50
  -1   5   7   57.79   13.50
  -1   5   7   45.90    7.70
  -1   5   7   36.20    5.70
  -1   5   7   52.19    7.20
   0  -5  -7    4.40    4.50
   0  -5  -7    1.20    4.10
   0  -5  -7    3.90    6.40
   0   5   7    2.30    3.10
   0   5   7    3.90    4.30
   0   5   7    2.50    3.50
  -1  -5  -7    7.20    4.30
  -1  -5  -7    6.40    4.00
  -1  -5  -7   17.90    6.30
   1   5   7    6.50    2.90
   1   5   7   12.50    3.90
   1   5   7   13.20    5.10
   1   5   7   11.30    4.00
  -2  -5  -7   -5.30    6.00
  -2  -5  -7   -2.70    2.70
  -2  -5  -7    1.40    3.70
  -2  -5  -7   -0.30    3.90
   2   5   7   -0.40    3.00
   2   5   7    4.20    3.20
   2   5   7    2.70    3.10
  -4  -5  -7   -8.30    4.40
   4   5   7   19.10    5.10
  -5   6   7   -1.00    8.10
  -5   6   7   -2.10    5.70
   4  -6  -7   -1.30    5.50
  -4   6   7    7.10    7.70
  -4   6   7    0.80    7.20
   3  -6  -7    7.30    5.80
   3  -6  -7   -1.80    5.70
  -3   6   7    4.80    7.00
  -3   6   7    0.60    4.70
   2  -6  -7  -14.70    9.60
   2  -6  -7    2.90    5.40
   2  -6  -7    3.50    5.10
  -2   6   7    8.40    4.20
  -2   6   7    4.50    6.00
  -2   6   7    1.20    3.90
   1  -6  -7   11.90    5.50
   1  -6  -7   29.20   11.20
   1  -6  -7   16.00    5.60
  -1   6   7   23.80    8.00
  -1   6   7   19.50    5.50
   0  -6  -7   15.90   10.50
   0  -6  -7   16.10    5.40
   0  -6  -7    4.20    4.80
   0   6   7   11.90    4.50
   0   6   7   21.00    5.50
   0   6   7   19.10    5.50
  -1  -6  -7   -1.90    4.00
  -1  -6  -7   -9.90    4.10
   1   6   7   -1.70    3.60
   1   6   7   -5.70    3.80
   1   6   7   -3.60    2.40
   4   6   7    4.30    4.00
   5  -7  -7    6.20    8.40
   4  -7  -7  -10.30    6.40
  -4   7   7   -1.90    5.60
   3  -7  -7    8.30    6.40
   3  -7  -7  -32.40   32.60
  -3   7   7   -1.10    5.10
  -3   7   7    8.70    7.30
   2  -7  -7   -5.70    5.30
   2  -7  -7    3.70    7.40
  -2   7   7   -3.50    4.10
  -2   7   7    5.60    6.10
   1  -7  -7    8.90    5.90
   1  -7  -7  -15.40   17.50
  -1   7   7   17.40    6.40
  -1   7   7    1.90    4.80
   0  -7  -7  -11.30   14.70
   0  -7  -7   -6.20    7.30
   0  -7  -7  -10.40    4.90
   0   7   7   -4.60    4.00
  -1  -7  -7   -4.20    4.40
   1   7   7    7.50    4.00
   1   7   7   -4.60    4.30
  -2  -7  -7    4.40    3.50
  -2  -7  -7    1.80    5.20
   2   7   7    9.80    5.70
   2   7   7    3.20    3.50
  -3  -7  -7    8.00    5.00
  -3  -7  -7    2.80    4.10
   3   7   7   -5.10    3.20
   3   7   7   -6.70    5.00
   4  -8  -7    9.90    8.90
  -4   8   7   21.10    7.90
   3  -8  -7   -4.20    6.70
  -3   8   7   -2.60    5.50
  -3   8   7   14.00    6.80
   2  -8  -7    7.40    6.20
  -2   8   7    8.90    5.90
  -2   8   7   26.40    8.10
   1  -8  -7   -6.10    4.70
  -1   8   7    8.30    7.90
  -1   8   7   -4.30    4.30
   0  -8  -7   -3.60    5.40
   0   8   7   -6.90    5.10
  -1  -8  -7    0.10    5.60
  -1  -8  -7    7.90    5.60
   1   8   7    4.50    5.60
   1   8   7    3.30    3.90
  -2  -8  -7    8.20    5.60
  -2  -8  -7   13.10    4.30
  -2  -8  -7  -10.20    6.70
   2   8   7   -2.50    3.30
   2   8   7    5.60    5.80
   2  -9  -7   -5.90    6.30
  -2   9   7   -3.80    5.60
   1  -9  -7   -7.10    5.90
  -1   9   7   16.40    8.60
  -1   9   7   -3.20    5.70
   0  -9  -7    7.90    6.40
   0   9   7    6.40    6.70
   1   9  -8   50.59    9.30
   0   9  -8   48.60    9.60
   0  -9   8   62.89   11.40
  -1   9  -8   10.70    8.50
  -1   9  -8   -0.50    5.00
   1  -9   8   11.70   12.20
  -2   9  -8   -5.30    5.70
  -2   9  -8   16.00    7.40
   2  -9   8   -3.80    7.20
   3   8  -8    0.10    6.30
  -3  -8   8    0.80    6.00
   2   8  -8    3.90    5.80
  -2  -8   8    7.00    5.60
   1   8  -8    4.60    5.40
  -1  -8   8    1.30    7.40
   0   8  -8   22.50    9.80
   0   8  -8    5.10    5.70
   0  -8   8    5.80    5.90
  -1   8  -8   -5.90    4.80
  -1   8  -8   14.80    8.20
  -1   8  -8    8.20    7.50
   1  -8   8    0.90    5.80
  -2   8  -8    4.50    5.10
  -2   8  -8    5.00    8.00
   2  -8   8    7.10    6.90
  -3   8  -8    6.30    5.30
  -3   8  -8   -2.60    7.10
   3  -8   8    7.90    4.90
   3  -8   8   19.30    6.00
  -4  -7   8    6.00    6.60
   3   7  -8    6.50    7.50
  -3  -7   8    7.20    6.30
   2   7  -8    8.90    6.00
  -2  -7   8    9.30    5.80
   1   7  -8  786.22   29.20
   1   7  -8  778.02   34.40
  -1  -7   8  819.42   30.60
   0   7  -8    8.80    8.20
   0   7  -8    5.40    5.50
   0   7  -8   12.40    5.80
   0  -7   8   -0.40    5.60
  -1   7  -8    6.00    6.20
  -1   7  -8   -0.60    4.50
   1  -7   8    5.20    5.00
  -2   7  -8  -10.20    5.10
  -2   7  -8    0.10    6.30
  -2   7  -8    0.00    7.70
   2  -7   8    5.60    5.30
   2  -7   8   -3.30    2.70
  -3   7  -8    4.80    5.00
  -3   7  -8    6.60    7.10
   3  -7   8   11.30    5.40
   3  -7   8    4.30    3.40
  -4   7  -8    7.50    5.00
  -4   7  -8    3.20    6.00
   4  -7   8   13.00    6.00
   4  -7   8    6.20    4.20
   5   6  -8   16.50    9.50
  -5  -6   8    2.20    5.40
  -4  -6   8   28.50    7.20
   3   6  -8    1.10    4.90
  -3  -6   8   11.10    5.90
   2   6  -8   -2.90    5.20
   2   6  -8    5.50    4.80
  -2  -6   8   -6.00    4.50
  -2  -6   8    1.70    5.00
   1   6  -8    3.90    5.20
   1   6  -8    4.20    4.20
  -1  -6   8    3.30    4.70
  -1  -6   8    9.80    7.60
  -1  -6   8    1.20    5.20
   0   6  -8   46.60    7.70
   0   6  -8   75.09   13.20
   0   6  -8   54.19    8.70
   0  -6   8   47.00    8.30
   0  -6   8   60.09   12.70
  -1   6  -8    2.10    4.30
  -1   6  -8    8.90    4.90
  -1   6  -8    9.40    7.30
   1  -6   8    8.40    4.90
   1  -6   8    0.00    3.70
  -2   6  -8    9.10    5.20
  -2   6  -8   23.50    8.40
  -2   6  -8   15.10    5.50
   2  -6   8   11.90    9.80
   2  -6   8   14.90    4.10
   2  -6   8   23.00    6.00
  -3   6  -8   59.29    8.60
  -3   6  -8   83.19   13.30
  -3   6  -8   46.80    7.20
   3  -6   8   65.69    9.50
  -4   6  -8   48.90   12.00
  -4   6  -8   33.60    6.20
  -4   6  -8   37.00    7.10
   4  -6   8   33.10    7.30
  -5   6  -8    2.40    9.90
  -5   6  -8   -7.90    4.40
   5  -6   8   -4.70    4.00
   5   5  -8    3.80    5.40
  -5  -5   8   11.00    6.00
  -4  -5   8   -0.60    5.70
  -4  -5   8   -1.50    4.30
   3   5  -8  156.28   12.30
   3   5  -8  151.78   13.70
  -3  -5   8  142.89   12.00
  -3  -5   8  132.69   11.10
   2   5  -8  263.47   15.90
   2   5  -8  301.57   16.60
  -2  -5   8  273.47   16.80
  -2  -5   8  284.27   15.60
  -2  -5   8  345.07   18.50
   1   5  -8  496.35   19.90
   1   5  -8  493.25   19.90
  -1  -5   8  478.15   19.30
  -1  -5   8  515.25   22.20
  -1  -5   8  540.35   21.00
   0   5  -8   72.59    8.00
   0   5  -8   91.69    9.00
   0   5  -8   73.09   10.70
   0  -5   8   65.29    7.60
   0  -5   8   75.09   11.00
   0  -5   8   74.59    8.30
  -1   5  -8   15.10    5.00
  -1   5  -8   12.90    6.70
  -1   5  -8   10.70    4.10
   1  -5   8    7.00    4.00
   1  -5   8   13.90    8.30
   1  -5   8    5.40    3.30
   1  -5   8   12.50    4.40
  -2   5  -8   -3.10    3.60
  -2   5  -8    1.50    3.60
  -2   5  -8   -8.50    5.30
   2  -5   8    5.10    3.90
   2  -5   8   -1.30    7.20
   2  -5   8   -5.80    3.30
   2  -5   8    1.80    3.70
   2  -5   8   -3.60    2.20
  -3   5  -8   14.40    4.40
  -3   5  -8    2.20    4.10
  -3   5  -8    8.60    8.40
   3  -5   8    7.20    3.70
   3  -5   8    7.10   10.10
   3  -5   8    2.50    5.50
   3  -5   8    8.10    4.70
  -4   5  -8   -0.60    4.20
  -4   5  -8   -0.20    8.10
   4  -5   8    1.20    3.50
  -5   5  -8   16.70   10.90
   5  -5   8    6.80    5.00
   6   4  -8    3.40    6.40
  -6  -4   8    2.80    5.80
   5   4  -8    0.40    5.00
  -5  -4   8    7.30    5.10
  -5  -4   8    7.50    5.30
   4   4  -8   -0.90    4.10
  -4  -4   8    1.70    4.30
  -4  -4   8  -14.20    6.20
   3   4  -8  207.68   20.40
  -3  -4   8  202.78   13.10
  -3  -4   8  226.58   17.40
  -3  -4   8  224.68   13.80
   2   4  -8   35.20    6.50
   2   4  -8   38.70    6.70
  -2  -4   8   57.49   10.40
  -2  -4   8   29.60    5.90
  -2  -4   8   21.90    6.10
   1   4  -8  165.08   10.40
   1   4  -8  163.58   11.00
  -1  -4   8  146.09    9.60
  -1  -4   8  158.78   10.70
  -1  -4   8  164.08   11.90
   0   4  -8   80.09    7.40
   0   4  -8   69.39    9.40
   0   4  -8   72.39    7.80
   0   4  -8   77.99    6.00
   0  -4   8   80.39    7.70
   0  -4   8   80.79    7.00
   0  -4   8   71.99    9.50
  -1   4  -8   66.79    6.70
  -1   4  -8   64.69    6.60
  -1   4  -8   71.79    7.40
  -1   4  -8   51.49    9.00
   1  -4   8   59.09    7.40
   1  -4   8   69.89    7.10
   1  -4   8   68.39   10.10
   1  -4   8   59.89    6.40
  -2   4  -8   10.50    3.30
  -2   4  -8   17.80    7.70
  -2   4  -8   13.70    4.10
  -2   4  -8   11.10    4.10
   2  -4   8   12.10    4.20
   2  -4   8   13.20    3.80
   2  -4   8   16.10    7.30
   2  -4   8   13.80    3.60
   2  -4   8   15.50    5.30
  -3   4  -8    2.10    2.70
  -3   4  -8   -1.70    3.70
  -3   4  -8   14.50    7.90
  -3   4  -8   -1.80    3.20
   3  -4   8   17.20    9.10
   3  -4   8    6.10    3.20
  -4   4  -8    2.90    8.80
   4  -4   8   -1.20    3.10
  -5   4  -8    4.30   11.40
  -5   4  -8   24.00   13.70
   5  -4   8   10.90    4.90
   6   3  -8    5.50    3.50
   6   3  -8   11.30    7.00
  -6  -3   8   11.00    5.70
   5   3  -8   22.20    6.20
  -5  -3   8   22.50    8.10
  -5  -3   8    6.00    5.70
   4   3  -8    7.60    4.80
  -4  -3   8    0.60    4.70
  -4  -3   8    6.90    4.50
   3   3  -8  188.58   12.80
   3   3  -8  176.18   11.90
  -3  -3   8  166.48   11.80
  -3  -3   8  176.58   11.70
   2   3  -8  107.19    8.40
   2   3  -8  111.39    8.90
  -2  -3   8  105.59    8.30
  -2  -3   8  110.39    9.10
  -2  -3   8  112.79   10.40
   1   3  -8  260.17    9.70
   1   3  -8  231.28   16.20
   1   3  -8  286.07   12.70
  -1  -3   8  287.47   12.80
  -1  -3   8  246.98   13.00
  -1  -3   8  262.47   11.80
   0   3  -8  311.87   12.60
   0   3  -8  293.97   11.50
   0   3  -8  295.67    9.80
   0   3  -8  301.37   14.10
   0   3  -8  300.37   12.50
   0  -3   8  315.27   12.70
   0  -3   8  290.67   13.60
   0  -3   8  292.27   11.90
  -1   3  -8   12.70    2.90
  -1   3  -8   15.00    3.60
  -1   3  -8   11.40    2.50
  -1   3  -8   18.40    3.80
  -1   3  -8   22.40    6.00
   1  -3   8   20.40    5.20
   1  -3   8   15.20    3.20
   1  -3   8   14.10    3.40
   1  -3   8   24.50    6.40
  -2   3  -8   55.09    7.80
  -2   3  -8   55.99    7.00
  -2   3  -8   62.49    5.70
  -2   3  -8   54.89   10.80
  -2   3  -8   63.69    5.80
   2  -3   8   60.29    8.10
   2  -3   8   64.59    7.50
   2  -3   8   67.29    9.40
  -3   3  -8    2.60    2.80
  -3   3  -8   12.00    7.60
  -3   3  -8   14.20    7.40
  -3   3  -8   -6.20    3.20
   3  -3   8    0.30    6.40
   3  -3   8    4.10    2.80
   3  -3   8   -2.80    4.80
  -4   3  -8    6.00    3.60
  -4   3  -8   13.30    8.40
  -4   3  -8  -11.70    8.80
   4  -3   8    2.70    3.10
  -5   3  -8   10.50    9.50
   5  -3   8    8.70    4.70
  -6   3  -8    3.90   10.90
   6  -3   8    2.10    4.40
   6   2  -8    0.10    5.40
  -6  -2   8   -4.20    4.90
  -6  -2   8   -3.10    4.80
   5   2  -8    4.40    4.70
  -5  -2   8   -1.70    4.30
  -5  -2   8   -6.00    3.90
   4   2  -8   21.20    6.00
   4   2  -8   12.00    5.60
  -4  -2   8    7.00    4.80
  -4  -2   8    9.30    4.90
   3   2  -8  182.58   11.50
   3   2  -8  185.88   11.50
  -3  -2   8  191.68   11.10
  -3  -2   8  194.68   11.60
   2   2  -8  161.58    9.70
   2   2  -8  155.18    9.60
  -2  -2   8  167.38    9.50
  -2  -2   8  172.38   12.10
  -2  -2   8  143.89   10.40
   1   2  -8  200.38   10.10
  -1  -2   8  202.08   10.10
  -1  -2   8  211.18    9.90
  -1  -2   8  218.98   10.30
   0   2  -8   30.50    4.50
   0   2  -8   26.60    3.50
   0   2  -8   37.10    3.70
   0   2  -8   33.30    4.50
   0  -2   8   31.20    4.80
   0  -2   8   32.60    4.50
  -1   2  -8    0.90    2.20
  -1   2  -8    1.20    1.90
  -1   2  -8   -0.90    1.40
  -1   2  -8    1.10    1.80
   1  -2   8    2.00    3.80
   1  -2   8   -1.40    3.80
   1  -2   8    0.00    3.50
   1  -2   8   -0.10    2.20
  -2   2  -8  156.18   10.90
  -2   2  -8  184.78    9.80
  -2   2  -8  173.78   10.40
   2  -2   8  169.38   11.20
   2  -2   8  160.88   11.30
   2  -2   8  167.68   10.20
  -3   2  -8   -1.10    2.70
  -3   2  -8    3.80    2.40
  -3   2  -8    2.90    6.00
   3  -2   8    3.30    2.70
  -4   2  -8   26.10    9.40
  -4   2  -8    3.40    3.60
   4  -2   8   14.10    4.00
  -5   2  -8   14.80   10.40
   5  -2   8    8.60    4.40
  -6   2  -8   -8.30   10.60
   6  -2   8   -1.30    3.90
   6   1  -8    5.60    6.10
  -6  -1   8   -2.50    4.50
  -6  -1   8   -3.80    2.60
  -6  -1   8    2.30    5.00
  -5  -1   8    4.40    3.90
  -5  -1   8   10.70    5.00
  -5  -1   8    9.50    5.40
   4   1  -8  277.57   14.30
   4   1  -8  270.07   14.40
  -4  -1   8  262.27   14.20
  -4  -1   8  257.47   13.80
   3   1  -8    9.90    4.30
   3   1  -8    6.70    4.30
  -3  -1   8    9.50    3.80
  -3  -1   8    9.80    4.20
   2   1  -8   69.99    7.00
   2   1  -8   81.59    7.20
  -2  -1   8   61.89    6.20
  -2  -1   8   67.49    6.90
   1   1  -8  351.76   13.40
   1   1  -8  354.76   13.40
  -1  -1   8  364.66   13.20
  -1  -1   8  346.27   13.00
   0   1  -8 1235.68   31.20
   0   1  -8 1235.58   29.70
   0  -1   8 1186.68   30.70
   0  -1   8 1264.47   29.80
   0  -1   8 1226.48   30.90
  -1   1  -8   80.69    6.00
  -1   1  -8   82.49    6.90
   1  -1   8   84.69    9.70
  -2   1  -8    4.20    2.30
  -2   1  -8    5.00    2.60
  -2   1  -8   11.70    4.70
  -2   1  -8    7.30    4.70
   2  -1   8    8.90    4.90
  -3   1  -8   13.40    3.70
  -3   1  -8   32.70    8.20
  -3   1  -8   36.90   10.40
  -3   1  -8   12.40    3.10
   3  -1   8   14.10    6.40
   3  -1   8   15.20    3.60
  -4   1  -8   49.60   11.20
  -4   1  -8   46.20   10.40
  -4   1  -8   17.10    4.20
   4  -1   8   28.20    5.30
  -5   1  -8    6.20    9.20
   5  -1   8    7.70    4.00
  -7   0   8    2.10    6.40
  -7   0   8    3.60    9.50
   6   0  -8    1.20    5.50
  -6   0   8   -2.60    5.30
  -6   0   8   -4.70    2.30
  -6   0   8    4.50    9.50
   5   0  -8   -5.10    4.60
  -5   0   8   -2.10    1.90
  -5   0   8    2.70    4.70
  -5   0   8   -3.00    4.10
   4   0  -8   76.99    9.10
   4   0  -8   66.89    8.50
  -4   0   8   77.39    9.00
   3   0  -8   69.09    8.20
   3   0  -8   77.09    7.60
  -3   0   8   66.59    7.60
   2   0  -8  266.87   12.20
   2   0  -8  264.07   14.30
  -2   0   8  281.77   12.00
   1   0  -8 1202.38   31.90
   1   0  -8 1223.28   32.00
  -1   0   8 1239.38   31.60
   0   0  -8  412.46   13.10
   0   0  -8  393.36   12.90
   0   0   8  401.36   12.80
   0   0   8  392.76   12.70
   0   0   8  420.86   12.60
  -1   0  -8   71.19    5.70
  -1   0  -8   75.29    6.80
   1   0   8   79.29    8.10
   1   0   8   80.99    6.40
  -2   0  -8  136.29   10.40
  -2   0  -8  131.79    8.90
  -2   0  -8  125.09    8.90
   2   0   8  140.49   10.90
   2   0   8  133.19    9.10
  -3   0  -8   20.40    4.00
  -3   0  -8   47.00   10.10
  -3   0  -8   27.50    4.90
  -3   0  -8   36.30    9.00
   3   0   8   25.30    7.30
   3   0   8   22.10    4.10
   3   0   8   25.00    3.90
  -4   0  -8   81.69   12.00
  -4   0  -8   62.69    9.90
  -4   0  -8   83.59   12.70
   4   0   8   82.29    9.60
  -5   0  -8   -5.00    9.00
   5   0   8    0.20    3.10
  -6   0  -8  -16.20   10.70
   6   0   8    5.30    4.10
   7  -1  -8    3.30    8.10
  -7   1   8    4.60    5.90
  -7   1   8    3.40   11.00
   6  -1  -8   18.00    6.90
  -6   1   8   17.20   18.60
  -6   1   8   24.40    7.00
   5  -1  -8   67.49   10.40
  -5   1   8   73.09   12.40
  -5   1   8   78.89   10.20
  -5   1   8   71.99    9.60
   4  -1  -8    8.50    4.40
   4  -1  -8   11.80    5.00
  -4   1   8   13.90    5.00
  -4   1   8   17.70    5.40
  -4   1   8   11.40    6.90
   3  -1  -8   45.10    6.90
   3  -1  -8   31.40    5.50
  -3   1   8   53.09    8.30
  -3   1   8   42.80    6.60
  -3   1   8   41.10    6.40
   2  -1  -8  569.84   19.10
  -2   1   8  571.74   18.70
  -2   1   8  575.34   18.60
   1  -1  -8  300.27   11.90
   1  -1  -8  314.07   13.00
  -1   1   8  298.87   11.50
  -1   1   8  317.37   11.60
   0  -1  -8  248.48    9.50
   0  -1  -8  231.48    9.50
   0   1   8  248.98   10.20
   0   1   8  258.67    9.10
   0   1   8  269.57   14.40
  -1  -1  -8    2.10    2.10
   1   1   8    2.20    2.10
   1   1   8    8.90    4.00
  -2  -1  -8   44.10    7.90
  -2  -1  -8   46.00    6.40
  -2  -1  -8   47.20    6.80
   2   1   8   43.50    6.40
   2   1   8   42.00    7.90
  -3  -1  -8   20.00    7.10
  -3  -1  -8   12.30    3.20
  -3  -1  -8   31.70   12.10
  -3  -1  -8   13.50    3.70
   3   1   8   15.00    6.20
   3   1   8   10.90    3.00
  -4  -1  -8  106.89   14.10
  -4  -1  -8   68.29   10.80
   4   1   8   90.59   10.50
  -5  -1  -8   29.40   11.40
  -6  -1  -8   -5.60   10.80
  -7   2   8   -5.60    6.60
   6  -2  -8    3.30    6.80
  -6   2   8   11.30    6.70
  -6   2   8    0.90    5.80
  -6   2   8   -2.20   10.40
   5  -2  -8   30.90    7.30
  -5   2   8   26.90    6.60
  -5   2   8   13.70    8.40
  -5   2   8   33.00   10.20
   4  -2  -8    3.30    4.00
   4  -2  -8    3.50    4.80
  -4   2   8   -1.20    4.20
  -4   2   8   -2.50    6.00
  -4   2   8    1.10    3.90
   3  -2  -8   -0.10    3.40
   3  -2  -8    2.50    3.80
  -3   2   8    7.00    5.60
  -3   2   8    3.00    3.90
  -3   2   8    4.10    4.00
   2  -2  -8 1205.48   33.20
   2  -2  -8 1173.88   32.80
  -2   2   8 1226.38   32.40
  -2   2   8 1186.98   32.50
   1  -2  -8  190.28    9.60
   1  -2  -8  188.98    9.90
  -1   2   8  193.28    9.20
  -1   2   8  193.88    9.20
   0  -2  -8  190.48    8.80
   0   2   8  185.48    8.30
   0   2   8  195.98    8.20
   0   2   8  189.28   11.60
  -1  -2  -8   74.09    6.90
  -1  -2  -8   69.79    5.10
   1   2   8   79.99    7.30
   1   2   8   67.69    8.30
  -2  -2  -8   11.90    5.10
  -2  -2  -8   10.50    2.90
   2   2   8   13.70    5.70
   2   2   8    7.50    2.80
  -3  -2  -8    1.10    3.00
  -3  -2  -8    6.00    6.40
   3   2   8   -4.00    4.60
   3   2   8    0.20    2.30
  -4  -2  -8   12.60    4.60
   4   2   8    7.80    3.40
  -5  -2  -8   35.80   10.90
   6  -3  -8   -4.60    6.60
  -6   3   8    4.60    5.90
  -6   3   8   -0.50    8.90
   5  -3  -8    7.90    6.40
  -5   3   8    6.40    5.00
  -5   3   8    5.60    5.90
  -5   3   8   -2.40    8.00
   4  -3  -8    2.20    4.30
   4  -3  -8    3.70    4.40
  -4   3   8   -2.50    5.60
  -4   3   8   -0.50    4.20
  -4   3   8    2.60    4.00
   3  -3  -8   19.30    5.80
   3  -3  -8   14.60    4.70
  -3   3   8   17.80    5.60
  -3   3   8   13.70    4.50
  -3   3   8   20.60    8.00
   2  -3  -8  215.18   11.80
   2  -3  -8  233.58   12.60
  -2   3   8  244.28   11.90
  -2   3   8  219.48   11.00
   1  -3  -8  118.29    8.70
   1  -3  -8  113.49    8.30
  -1   3   8  132.09    8.30
  -1   3   8  115.19    7.80
   0  -3  -8  100.99    7.30
   0  -3  -8  119.09    7.90
   0   3   8  119.99    9.90
   0   3   8  112.09    7.10
   0   3   8  108.69    7.10
  -1  -3  -8    0.40    2.70
  -1  -3  -8    0.30    2.60
   1   3   8    0.70    2.30
   1   3   8   -2.50    4.20
   1   3   8    1.80    2.20
   1   3   8   -1.40    2.20
  -2  -3  -8   14.60    3.60
  -2  -3  -8   31.10    7.70
   2   3   8   12.80    5.50
   2   3   8    9.90    3.10
  -3  -3  -8  121.59   11.10
  -3  -3  -8  112.39   12.40
   3   3   8  127.69   11.00
   4   3   8   -2.10    3.30
   5   3   8   -5.40    3.40
   6  -4  -8    7.70    7.80
  -6   4   8    4.80    5.90
  -6   4   8  -15.20    8.60
   5  -4  -8   -2.20    5.90
  -5   4   8    0.30    8.40
  -5   4   8    8.40    7.10
   4  -4  -8   -0.80    5.60
   4  -4  -8    5.20    5.00
  -4   4   8    0.30    4.60
  -4   4   8   -0.20    4.80
  -4   4   8   -4.30    6.30
   3  -4  -8   15.30    5.50
   3  -4  -8   16.50    6.30
  -3   4   8   11.50    5.00
  -3   4   8   19.70    7.70
  -3   4   8   18.20    5.40
   2  -4  -8   76.69    9.30
   2  -4  -8   70.89    8.10
  -2   4   8   59.59    9.30
  -2   4   8   87.09    8.00
  -2   4   8   74.39    8.20
   1  -4  -8   -6.50    3.40
   1  -4  -8   -1.50    3.60
  -1   4   8    0.30    3.00
  -1   4   8   -0.20    3.10
  -1   4   8    5.10    4.10
   0  -4  -8   25.50    4.90
   0  -4  -8   26.20    5.20
   0   4   8   30.90    6.70
   0   4   8   27.70    4.70
   0   4   8   21.00    4.20
  -1  -4  -8    1.70    3.10
  -1  -4  -8    0.60    3.00
   1   4   8    3.60    2.70
   1   4   8    4.50    2.90
   1   4   8    5.40    2.90
   1   4   8    3.20    4.30
  -2  -4  -8   -1.10    5.70
  -2  -4  -8   15.70    6.90
  -2  -4  -8    1.60    3.00
  -2  -4  -8    2.00    2.90
   2   4   8    2.70    5.20
   2   4   8    0.70    2.70
   5   4   8   -5.10    3.30
   6  -5  -8   -9.00    7.80
  -6   5   8   -1.30    6.10
  -6   5   8   -5.00    9.20
   5  -5  -8   -4.90    5.90
  -5   5   8   -4.50    5.30
  -5   5   8   -9.30    7.90
   4  -5  -8    3.40    6.10
  -4   5   8   -6.10    4.40
  -4   5   8    0.20    7.60
   3  -5  -8    9.90    6.10
   3  -5  -8   24.30    6.60
  -3   5   8   20.40    5.70
  -3   5   8    8.70    4.90
   2  -5  -8   27.80    6.00
   2  -5  -8   36.30   10.40
   2  -5  -8   35.80    6.90
  -2   5   8   29.00    5.90
  -2   5   8   30.40    6.30
  -2   5   8   36.00    7.00
  -2   5   8   27.80    7.70
   1  -5  -8   28.50    6.10
   1  -5  -8   51.59   10.30
   1  -5  -8   39.50    6.70
  -1   5   8   39.80    9.60
  -1   5   8   43.60    6.80
  -1   5   8   42.70    7.60
   0  -5  -8    4.60    3.90
   0  -5  -8    5.90    4.40
   0   5   8    6.20    3.60
   0   5   8    5.20    4.50
   0   5   8    6.40    3.70
  -1  -5  -8   -1.90    3.60
  -1  -5  -8   -3.40    3.40
   1   5   8    0.50    2.50
   1   5   8   -3.00    3.30
  -2  -5  -8    6.20    4.00
   4   5   8    1.70    3.80
   5  -6  -8    4.30    7.00
  -5   6   8   -5.30    6.20
  -5   6   8    0.10    7.80
   4  -6  -8   13.80    8.60
  -4   6   8    9.00    7.50
  -4   6   8    4.40    7.60
   3  -6  -8   62.19   20.00
   3  -6  -8   15.30    6.50
  -3   6   8   18.70    6.00
  -3   6   8   29.90    7.70
   2  -6  -8   -9.20   11.00
   2  -6  -8    1.90    4.90
  -2   6   8    4.10    5.10
  -2   6   8    1.60    4.60
  -2   6   8   -0.40    4.70
   1  -6  -8    4.50    5.00
   1  -6  -8  -12.80   10.60
   1  -6  -8   17.00    5.70
  -1   6   8    9.40    5.60
  -1   6   8    6.80    4.30
  -1   6   8    7.10    4.20
   0  -6  -8   -3.30    9.40
   0  -6  -8   -6.10    4.40
   0  -6  -8   -2.50    3.80
   0   6   8    3.80    4.80
   0   6   8   -4.10    3.30
  -1  -6  -8   -2.30    4.40
  -1  -6  -8    8.00    4.50
   1   6   8   -0.70    3.00
   1   6   8    1.00    4.00
   1   6   8    3.10    4.60
   4  -7  -8    5.40    6.80
  -4   7   8   -2.60    5.90
   3  -7  -8   44.50   28.90
   3  -7  -8   -0.70    6.40
  -3   7   8   11.10    6.70
   2  -7  -8   -3.20    5.00
  -2   7   8   12.20    6.90
  -2   7   8   -5.70    4.80
   1  -7  -8    3.90    6.50
   1  -7  -8    3.60    5.40
  -1   7   8    1.60    6.30
  -1   7   8   -1.50    4.60
  -1   7   8    1.20    5.10
   0  -7  -8   -6.20    5.70
   0  -7  -8   -0.80    4.50
   0   7   8    2.90    4.60
   0   7   8   -3.20    4.00
  -1  -7  -8   -8.70    5.00
  -1  -7  -8   11.00   13.70
  -1  -7  -8    3.60    5.30
  -1  -7  -8   -4.60    3.10
   1   7   8    8.20    4.60
  -3  -7  -8    5.70    5.10
  -3  -7  -8   -2.60    7.90
   3   7   8    1.50    4.30
   3  -8  -8  -12.20    6.20
  -3   8   8   -9.80    5.10
   2  -8  -8    4.50    6.70
  -2   8   8   -6.20    4.90
  -2   8   8   22.40    7.50
   1  -8  -8    2.80    6.20
  -1   8   8   12.10    8.20
  -1   8   8   -2.20    4.80
   0  -8  -8   -0.60    5.70
   0   8   8   -7.70    4.40
  -1  -8  -8  -19.90    8.30
  -1  -8  -8    4.80    6.30
  -1  -8  -8   -5.20    4.00
   1   8   8   -7.70    5.30
   1   8   8    1.10    3.70
   1   9  -9   31.30    8.20
  -1  -9   9   42.60    9.00
   0   9  -9    2.50    5.90
   0  -9   9   -1.30    6.00
   1  -9   9   11.60   11.80
   3   8  -9   -5.30    5.30
  -3  -8   9    6.20    6.50
   2   8  -9   -0.40    5.60
  -2  -8   9   22.60    7.10
   1   8  -9   12.20    6.00
  -1  -8   9   11.40    6.70
   0   8  -9   17.20    9.00
   0   8  -9    9.50    5.80
   0  -8   9    7.10    5.60
  -1   8  -9   11.70    7.40
  -1   8  -9   -5.00    4.30
   1  -8   9    0.50    6.70
  -2   8  -9   15.30    8.20
  -2   8  -9   12.90    7.30
   2  -8   9   19.60    7.00
  -3   8  -9   16.80    8.20
  -3   8  -9    0.60    5.40
  -3   8  -9  -12.80    7.80
   3  -8   9   20.80    6.60
   3  -8   9   -1.90    3.90
  -4  -7   9    8.00    5.80
   3   7  -9   14.20    6.40
  -3  -7   9   19.20    7.30
   2   7  -9  150.28   20.50
  -2  -7   9  182.38   19.30
   1   7  -9  106.59   13.60
  -1  -7   9  111.99   12.20
   0   7  -9   24.10    7.00
   0   7  -9   23.20    7.30
   0   7  -9   23.10    9.70
   0  -7   9   25.70    6.90
  -1   7  -9  -11.70    5.10
  -1   7  -9   -5.40    6.80
  -1   7  -9    0.50    7.40
   1  -7   9   -4.50    5.20
  -2   7  -9   -2.40    7.00
  -2   7  -9   -5.40    4.50
  -2   7  -9   -7.80    5.80
   2  -7   9   -0.60    2.90
   2  -7   9    0.80    5.40
  -3   7  -9   15.50    9.10
  -3   7  -9    3.30    5.10
  -3   7  -9   -4.10    5.40
   3  -7   9    2.00    3.80
   3  -7   9   22.20    6.80
  -4   7  -9    5.10    5.50
   4  -7   9   16.80    6.50
  -4  -6   9   19.20    6.30
   3   6  -9    6.00    5.40
  -3  -6   9    3.90    7.10
   2   6  -9    7.80    5.60
   2   6  -9    7.60    5.70
  -2  -6   9    2.80    5.50
   1   6  -9   46.20   11.40
   1   6  -9   31.20    7.10
  -1  -6   9   27.10    6.50
  -1  -6   9   32.00    6.50
   0   6  -9    3.20    3.90
   0   6  -9    6.50    7.00
   0   6  -9    1.10    5.00
   0  -6   9   10.70    5.20
  -1   6  -9   -3.00    4.40
  -1   6  -9   -4.20    3.20
  -1   6  -9    4.10    6.00
   1  -6   9    4.20    4.60
   1  -6   9   -1.20    7.80
  -2   6  -9   21.40    5.80
  -2   6  -9   27.00    8.70
  -2   6  -9   22.90    5.70
   2  -6   9   19.60    4.20
   2  -6   9   15.10   10.80
   2  -6   9   20.90    6.10
  -3   6  -9   75.29    9.50
  -3   6  -9   71.19   10.70
  -3   6  -9   98.49   13.90
   3  -6   9   92.19   10.00
  -4   6  -9  108.79   10.20
  -4   6  -9   96.59   11.10
   4  -6   9   90.19   12.10
   5   5  -9    2.90    6.50
  -5  -5   9   -4.70    4.90
   4   5  -9   39.90    7.80
  -4  -5   9   39.40    7.90
   2   5  -9 1980.10   65.39
   2   5  -9 2139.69   57.19
  -2  -5   9 1988.40   55.89
  -2  -5   9 2117.09   57.39
  -2  -5   9 2224.68   59.39
   1   5  -9   50.89    7.70
   1   5  -9   42.20    7.00
  -1  -5   9   51.69    8.30
  -1  -5   9   70.09   10.30
   0   5  -9    2.70    3.70
   0   5  -9    3.00    4.50
   0   5  -9    4.00    5.70
   0   5  -9    0.80    2.00
   0  -5   9   11.30    4.80
   0  -5   9    0.10    3.70
   0  -5   9    6.60    6.20
  -1   5  -9   11.30    4.70
  -1   5  -9   18.90    7.60
  -1   5  -9   12.80    4.70
   1  -5   9   18.40    5.00
   1  -5   9   17.20    8.40
   1  -5   9    5.00    3.90
   1  -5   9   11.40    4.80
  -2   5  -9    1.60    3.70
  -2   5  -9   -0.10    4.00
  -2   5  -9   -4.50    6.10
   2  -5   9    3.60    4.30
   2  -5   9    1.20    2.70
   2  -5   9  -10.10    7.60
   2  -5   9    3.90    3.40
  -3   5  -9    8.90    3.80
  -3   5  -9   24.90    5.80
  -3   5  -9   36.30   10.60
  -3   5  -9   14.30    5.40
   3  -5   9   18.90    5.20
   3  -5   9   15.90    4.60
   3  -5   9   29.20    5.60
   3  -5   9   20.80   10.90
  -4   5  -9   30.30    5.80
  -4   5  -9   37.70   10.90
  -4   5  -9   22.90    5.60
   4  -5   9   14.60    5.90
  -5   5  -9    4.60    9.20
   5  -5   9    2.10    4.10
   6   4  -9   -2.20    6.60
  -6  -4   9   -2.20    5.80
   5   4  -9   27.60    7.60
  -5  -4   9   35.20    8.10
   4   4  -9    3.60    4.70
  -4  -4   9   -6.10    4.00
  -4  -4   9    1.50    4.40
   3   4  -9   28.80    7.50
  -3  -4   9   38.70   12.00
  -3  -4   9   24.80    7.40
   2   4  -9    8.40    5.70
   2   4  -9    4.20    4.40
  -2  -4   9   17.40    7.00
  -2  -4   9    2.20    4.30
  -2  -4   9   -1.30    4.40
   1   4  -9   49.40    5.20
   1   4  -9   60.49    8.10
   1   4  -9   53.09    7.40
  -1  -4   9   59.89    8.80
  -1  -4   9   56.99    7.00
  -1  -4   9   50.29    7.20
   0   4  -9    7.80    5.80
   0   4  -9    5.10    2.20
   0   4  -9   11.60    4.00
   0   4  -9   12.50    6.60
   0  -4   9   10.10    4.20
   0  -4   9    9.10    6.10
   0  -4   9    6.30    3.30
  -1   4  -9   53.29    6.50
  -1   4  -9   54.69    7.00
  -1   4  -9   41.10    6.60
  -1   4  -9   66.69   10.00
   1  -4   9   44.00    6.10
   1  -4   9   57.89    9.80
   1  -4   9   65.09   13.30
   1  -4   9   45.50    6.40
  -2   4  -9  310.87   13.20
  -2   4  -9  332.17   17.20
  -2   4  -9  313.37   13.20
  -2   4  -9  303.87   14.90
  -2   4  -9  279.07   13.80
   2  -4   9  302.97   12.90
   2  -4   9  312.47   17.70
   2  -4   9  291.67   12.30
   2  -4   9  337.57   16.00
   2  -4   9  303.57   14.80
  -3   4  -9  378.26   19.60
  -3   4  -9  331.27   13.80
  -3   4  -9  363.46   14.40
   3  -4   9  391.86   21.30
   3  -4   9  381.96   18.60
   3  -4   9  345.07   17.60
  -4   4  -9    8.10    8.70
   4  -4   9    8.40    4.20
  -5   4  -9  -11.70    8.80
   5  -4   9    2.20    3.50
   6   3  -9   -1.70    6.40
   6   3  -9   -0.10    3.50
  -6  -3   9    7.60    5.50
   5   3  -9   -2.30    4.70
  -5  -3   9   -5.90    4.30
  -5  -3   9    0.20    4.30
   4   3  -9   54.59    8.40
   4   3  -9   52.89    9.20
  -4  -3   9   53.59    8.70
   3   3  -9  978.90   31.80
   3   3  -9 1013.90   32.30
  -3  -3   9  982.20   32.00
  -3  -3   9 1056.59   35.30
  -3  -3   9  993.50   32.50
   2   3  -9 1139.09   33.80
  -2  -3   9 1134.99   34.50
  -2  -3   9 1155.28   33.90
  -2  -3   9 1117.49   33.20
   1   3  -9   56.39    5.30
   1   3  -9   63.39    7.20
   1   3  -9   57.59    7.80
  -1  -3   9   57.29    8.70
  -1  -3   9   59.39    6.60
  -1  -3   9   60.59    7.20
   0   3  -9    6.80    2.40
   0   3  -9   19.20    5.50
   0   3  -9   12.20    3.60
   0   3  -9    8.30    1.80
   0   3  -9   19.60    4.30
   0  -3   9   13.60    5.90
   0  -3   9   12.40    3.60
   0  -3   9   19.40    4.30
  -1   3  -9   25.50    4.60
  -1   3  -9   19.30    3.20
  -1   3  -9   19.80    3.60
  -1   3  -9   31.90    6.90
  -1   3  -9   26.80    4.30
   1  -3   9   29.70    4.70
   1  -3   9   32.50    6.60
   1  -3   9   40.70    7.50
   1  -3   9   22.40    4.30
  -2   3  -9    0.40    2.70
  -2   3  -9   -1.50    2.80
  -2   3  -9   -3.00    2.80
  -2   3  -9    2.50    6.20
  -2   3  -9   -3.00    2.80
   2  -3   9    1.90    2.50
   2  -3   9    4.80    5.90
   2  -3   9   -1.70    4.20
  -3   3  -9   20.60    8.30
  -3   3  -9    6.50    4.50
  -3   3  -9   10.50    3.40
   3  -3   9    4.20    3.10
   3  -3   9    7.40    6.00
  -4   3  -9   42.20   10.40
   4  -3   9   27.00    5.40
  -5   3  -9   10.30    9.50
   5  -3   9   10.80    4.50
   6   2  -9    8.40    6.80
  -6  -2   9    6.60    5.50
   5   2  -9   -0.70    5.10
  -5  -2   9    1.70    5.10
  -5  -2   9   -6.90    4.20
   4   2  -9  116.89   11.40
   4   2  -9  126.09   11.40
  -4  -2   9  123.49   11.20
  -4  -2   9  114.79   10.80
   3   2  -9  174.28   12.20
   3   2  -9  177.28   12.50
  -3  -2   9  173.78   11.60
  -3  -2   9  179.88   12.00
   2   2  -9  337.47   14.60
   2   2  -9  339.97   14.80
  -2  -2   9  333.27   14.70
  -2  -2   9  323.57   14.00
  -2  -2   9  322.57   15.00
   1   2  -9   34.50    5.40
  -1  -2   9   26.50    4.50
  -1  -2   9   27.80    5.00
  -1  -2   9   32.30    5.80
   0   2  -9  186.98    9.60
   0   2  -9  190.78    9.50
   0   2  -9  193.58   11.40
   0  -2   9  177.78    8.80
   0  -2   9  184.58    9.30
  -1   2  -9  100.99    6.90
  -1   2  -9  106.79    7.10
  -1   2  -9  107.59    6.80
  -1   2  -9  116.29    8.30
   1  -2   9  105.19    6.20
   1  -2   9  101.49    9.70
  -2   2  -9    0.20    2.30
  -2   2  -9    5.20    5.60
  -2   2  -9   -0.10    2.40
   2  -2   9   -2.80    4.30
   2  -2   9    3.30    5.00
  -3   2  -9   19.10    8.90
  -3   2  -9   26.40    7.50
  -3   2  -9    8.60    3.50
  -3   2  -9   -2.60    6.70
   3  -2   9   11.10    6.70
   3  -2   9   14.70    4.00
  -4   2  -9   -8.00    9.90
  -4   2  -9    8.20    8.20
   4  -2   9    6.70    3.50
  -5   2  -9   15.30   11.00
   5  -2   9   17.50    5.10
   6   1  -9   14.40    7.40
  -6  -1   9   16.30    6.60
   5   1  -9   -3.30    4.80
  -5  -1   9    2.50    4.40
  -5  -1   9   -4.40    4.40
   4   1  -9   62.69    9.30
   4   1  -9   55.49   10.80
  -4  -1   9   57.79    8.80
  -4  -1   9   47.00    7.80
   3   1  -9  809.12   26.10
   3   1  -9  798.02   25.90
  -3  -1   9  759.12   25.50
  -3  -1   9  817.12   26.10
   2   1  -9  669.93   22.00
   2   1  -9  665.23   22.10
  -2  -1   9  666.23   21.90
  -2  -1   9  725.53   23.70
   1   1  -9  354.06   13.80
   1   1  -9  340.17   13.70
  -1  -1   9  369.66   13.70
  -1  -1   9  342.67   13.20
   0   1  -9   60.99    6.00
   0   1  -9   61.99    6.00
   0  -1   9   60.69    5.30
   0  -1   9   59.09    5.40
   0  -1   9   69.19    5.00
  -1   1  -9  134.49    7.90
  -1   1  -9  148.39    9.10
  -1   1  -9  136.19    7.10
   1  -1   9  134.39   10.20
  -2   1  -9  101.39    8.70
  -2   1  -9  105.79    9.00
   2  -1   9  105.49   10.40
  -3   1  -9   10.00    4.70
  -3   1  -9   12.20    7.10
  -3   1  -9    5.00    3.00
  -3   1  -9   22.10    7.40
   3  -1   9    0.10    5.90
   3  -1   9   10.30    3.30
  -4   1  -9   36.50   10.20
   4  -1   9   23.00    5.10
  -5   1  -9   -2.90    9.00
   5  -1   9    2.10    3.50
  -6   1  -9  -14.90   11.50
   6  -1   9    2.70    4.00
   6   0  -9   -8.20    5.10
  -6   0   9    6.40    9.30
  -6   0   9    2.60    5.80
  -6   0   9    4.40    2.60
   5   0  -9   22.20    6.80
  -5   0   9   20.20    9.50
  -5   0   9    8.40    6.30
  -5   0   9   14.90    5.70
   4   0  -9   73.09    9.70
   4   0  -9   74.99   11.00
  -4   0   9   53.99    8.00
  -4   0   9   78.99    8.90
   3   0  -9   33.10    5.40
   3   0  -9   37.10    6.30
  -3   0   9   33.50    6.40
   2   0  -9   77.09    7.60
   2   0  -9   76.69    7.50
  -2   0   9   83.19    7.60
   1   0  -9   55.39    6.50
   1   0  -9   60.39    6.30
  -1   0   9   57.19    5.70
  -1   0   9   56.89    4.30
  -1   0   9   60.59    6.10
   0   0  -9   47.40    5.10
   0   0  -9   52.49    5.40
   0   0   9   45.70    4.90
   0   0   9   47.90    4.70
   0   0   9   55.29    4.90
   0   0   9   56.09    7.30
  -1   0  -9   80.39    7.30
  -1   0  -9   70.59    6.70
   1   0   9   71.39    8.30
   1   0   9   76.59    6.60
  -2   0  -9    6.90    5.60
  -2   0  -9    2.10    2.30
  -2   0  -9    2.90    2.20
   2   0   9    8.00    2.80
   2   0   9    8.10    5.30
  -3   0  -9   52.29   10.90
  -3   0  -9   25.10    4.40
  -3   0  -9   31.80    8.20
   3   0   9   50.79    9.80
   3   0   9   23.10    4.30
  -4   0  -9   -3.80    7.80
  -5   0  -9  -10.80    8.50
   5   0   9   -5.60    3.50
   6  -1  -9   -4.90    6.20
  -6   1   9   -5.60   13.20
  -6   1   9   -6.10    2.50
  -6   1   9   -0.60    5.40
   5  -1  -9  101.89   11.80
  -5   1   9   95.59   13.30
  -5   1   9  100.49   10.60
   4  -1  -9   40.30    7.10
   4  -1  -9   33.20    8.40
  -4   1   9   52.79    8.10
  -4   1   9   34.40    6.60
  -4   1   9   43.30    9.50
   3  -1  -9   40.40    6.90
   3  -1  -9   39.20    6.40
  -3   1   9   44.20    6.60
  -3   1   9   38.80    6.40
  -3   1   9   43.70    8.20
   2  -1  -9    5.80    4.30
   2  -1  -9    3.10    3.60
  -2   1   9    4.80    3.70
  -2   1   9    8.20    4.40
   1  -1  -9  649.34   20.30
   1  -1  -9  668.13   20.50
  -1   1   9  686.53   19.90
  -1   1   9  640.44   19.70
   0  -1  -9   11.90    5.00
   0  -1  -9    2.20    2.70
   0   1   9   12.50    4.60
   0   1   9    6.70    2.50
   0   1   9    5.80    2.10
   0   1   9    6.70    2.80
  -1  -1  -9    6.90    2.60
   1   1   9    9.90    2.80
   1   1   9   17.60    5.80
  -2  -1  -9   13.00    4.20
  -2  -1  -9   18.10    6.30
  -2  -1  -9   10.40    3.00
   2   1   9   14.10    5.90
   2   1   9    8.60    2.80
  -3  -1  -9    7.20    4.00
  -3  -1  -9   13.40    7.60
   3   1   9    8.60    6.10
  -4  -1  -9    7.20    7.70
   4   1   9    5.30    2.90
  -5  -1  -9  -13.30    9.00
   6  -2  -9    4.10    7.10
  -6   2   9    2.60    5.70
  -6   2   9  -11.40    8.40
   5  -2  -9   86.19   12.30
  -5   2   9   79.99   11.00
  -5   2   9   59.79   12.90
  -5   2   9   65.69   10.10
   4  -2  -9   12.50    4.90
   4  -2  -9   12.90    5.40
  -4   2   9    8.50    4.80
  -4   2   9   16.50    5.60
  -4   2   9    2.20    7.00
   3  -2  -9   91.99    9.40
   3  -2  -9   96.39    9.30
  -3   2   9   83.49    8.60
  -3   2   9   84.39    8.70
  -3   2   9   91.69    9.50
   2  -2  -9  228.58   11.90
   2  -2  -9  209.18   11.60
  -2   2   9  213.48   10.80
  -2   2   9  228.68   13.50
   1  -2  -9  136.39    8.70
   1  -2  -9  135.69    9.10
  -1   2   9  136.19    8.30
  -1   2   9  146.29    8.50
   0  -2  -9   21.60    4.20
   0  -2  -9   17.60    4.00
   0   2   9   24.10    4.00
   0   2   9   14.60    2.80
   0   2   9   16.90    3.50
   0   2   9   22.90    5.60
  -1  -2  -9  115.79    8.80
   1   2   9  102.79   10.30
   1   2   9  104.59    8.80
  -2  -2  -9    3.20    2.80
  -2  -2  -9    2.60    5.80
   2   2   9    4.40    5.10
   2   2   9    3.90    2.70
  -3  -2  -9  143.89   11.40
   3   2   9  111.39   12.00
   3   2   9  113.59   10.90
  -4  -2  -9    8.80    7.60
   4   2   9    0.50    4.00
  -5  -2  -9   29.30   11.10
   6  -3  -9   18.00    7.90
  -6   3   9   15.40    7.60
  -6   3   9    8.60   10.00
   5  -3  -9    3.50    5.90
  -5   3   9    4.70    6.00
  -5   3   9    2.30    5.20
   4  -3  -9    1.90    4.80
   4  -3  -9    9.80    4.90
  -4   3   9    8.10    4.50
  -4   3   9   -2.40    4.30
  -4   3   9    5.30    7.20
   3  -3  -9   49.40    7.70
   3  -3  -9   58.89    8.60
  -3   3   9   66.99    8.60
  -3   3   9   53.69    7.70
   2  -3  -9    5.40    4.30
   2  -3  -9    3.70    4.20
  -2   3   9    8.30    3.90
  -2   3   9    5.90    4.30
   1  -3  -9   74.79    8.00
   1  -3  -9   71.89    7.40
  -1   3   9   84.99    8.80
  -1   3   9   70.59    6.80
  -1   3   9   72.79    7.20
   0  -3  -9   11.90    3.90
   0  -3  -9    8.10    3.30
   0   3   9    3.40    4.90
   0   3   9    6.20    2.90
   0   3   9    9.10    3.50
  -1  -3  -9   10.40    3.10
  -1  -3  -9    8.90    3.70
  -1  -3  -9    6.80    3.10
   1   3   9   10.20    5.70
   1   3   9    7.10    2.40
   1   3   9    6.70    2.70
   1   3   9    9.90    2.90
  -2  -3  -9    5.50    3.10
  -2  -3  -9   -3.00    5.30
   2   3   9   -0.60    4.80
   2   3   9    2.20    2.90
  -3  -3  -9   58.59    9.20
   3   3   9   78.59    9.70
   4   3   9   14.30    4.60
   6  -4  -9    7.10    8.20
  -6   4   9   -3.30    6.50
  -6   4   9   -0.90   10.00
   5  -4  -9    2.20    6.50
  -5   4   9    1.30    5.80
  -5   4   9   -9.10    7.80
   4  -4  -9   21.40    7.50
   4  -4  -9   -1.60    9.60
  -4   4   9   -0.70    6.80
  -4   4   9    6.20    5.10
  -4   4   9   15.80    5.70
   3  -4  -9  156.78   12.50
   3  -4  -9  138.59   11.50
  -3   4   9  152.38   12.50
  -3   4   9  161.08   10.90
  -3   4   9  160.08   11.20
   2  -4  -9   31.80    6.70
   2  -4  -9   34.00    6.10
  -2   4   9   33.40    6.00
  -2   4   9   28.20    5.20
   1  -4  -9   19.00    4.90
   1  -4  -9   19.40    5.40
  -1   4   9   29.90    6.60
  -1   4   9   25.50    5.40
  -1   4   9   17.20    4.30
   0  -4  -9   36.80    5.60
   0  -4  -9   25.40    4.90
   0   4   9   34.50    7.60
   0   4   9   37.40    5.40
   0   4   9   33.50    4.90
  -1  -4  -9   11.20    3.90
  -1  -4  -9   11.90    4.10
   1   4   9   11.30    6.00
   1   4   9   13.00    3.60
   1   4   9   13.30    3.70
   1   4   9   15.20    3.60
  -2  -4  -9    6.70    3.80
  -2  -4  -9   -2.50    7.20
   2   4   9   11.50    6.20
   2   4   9   10.30    3.50
   4   4   9    2.20    3.80
   6  -5  -9  -12.70    7.30
  -6   5   9    9.10    9.70
  -6   5   9    3.50    6.00
   5  -5  -9   -2.90    8.60
  -5   5   9   -0.30    8.30
  -5   5   9    2.40    6.00
   4  -5  -9   -8.10    5.60
  -4   5   9    0.20    7.50
  -4   5   9   -5.00    4.40
   3  -5  -9   16.50    5.40
   3  -5  -9   18.20    6.50
  -3   5   9   34.60    8.70
  -3   5   9   21.60    5.90
   2  -5  -9    0.40    4.30
   2  -5  -9   -0.10    4.50
  -2   5   9   -0.40    3.60
  -2   5   9   -1.30    4.00
   1  -5  -9   41.20    6.80
   1  -5  -9   48.10    7.50
  -1   5   9   40.30    6.40
  -1   5   9   27.40    5.10
  -1   5   9   52.39    8.60
   0  -5  -9   -0.80    3.50
   0  -5  -9    4.20    4.10
   0   5   9    0.80    3.50
   0   5   9    3.10    3.50
   0   5   9    1.30    4.60
  -1  -5  -9   -2.90    3.90
  -1  -5  -9    7.70    4.10
   1   5   9   -3.80    2.50
   1   5   9    8.30    3.80
   1   5   9    2.50    3.20
   1   5   9   -0.50    4.80
  -2  -5  -9   71.89    9.40
  -2  -5  -9   68.29    8.30
  -2  -5  -9   54.19    7.70
   2   5   9   71.49   10.90
   2   5   9   60.49   10.60
   4   5   9   -3.80    3.80
   5  -6  -9  -14.60    6.90
  -5   6   9   -1.60    6.20
  -5   6   9   -2.50    8.70
   4  -6  -9   13.20    7.30
  -4   6   9    1.30    5.90
  -4   6   9    9.10    8.70
   3  -6  -9   19.90   10.40
   3  -6  -9   53.59   17.40
  -3   6   9   10.70    5.80
  -3   6   9   17.90    7.20
  -3   6   9    6.00    5.10
   2  -6  -9    3.10    5.10
   2  -6  -9   -1.50    5.40
   2  -6  -9  -22.30   13.00
  -2   6   9   -3.60    4.50
  -2   6   9    2.60    4.60
  -2   6   9    6.80    5.60
   1  -6  -9    4.50    5.40
   1  -6  -9  -15.00   10.60
   1  -6  -9    5.30    4.90
  -1   6   9   -4.40    4.00
  -1   6   9    7.10    4.70
  -1   6   9    3.70    5.60
   0  -6  -9   -5.20    4.30
   0  -6  -9   -1.10    4.70
   0   6   9    6.50    4.90
   0   6   9    0.50    4.30
  -1  -6  -9    3.20    4.00
  -1  -6  -9   -2.90    4.70
  -1  -6  -9   -4.60    3.00
   1   6   9   -1.30    4.10
   1   6   9    4.40    5.40
   1   6   9    0.00    3.10
   4  -7  -9   -2.80    6.80
  -4   7   9   -4.30    5.70
  -3   7   9   23.30    7.50
   2  -7  -9    5.90    6.30
   2  -7  -9  -25.70   18.60
  -2   7   9   12.90    5.30
  -2   7   9   -5.70    4.70
   1  -7  -9    8.10    6.60
   1  -7  -9    5.90    5.30
  -1   7   9    2.50    5.00
  -1   7   9    6.10    6.80
  -1   7   9    3.20    4.80
   0  -7  -9    7.20    6.40
   0  -7  -9   -6.10    4.30
   0   7   9    8.30    5.50
   0   7   9   -9.70    4.40
  -1  -7  -9   -1.70    5.20
  -1  -7  -9    2.60   16.10
  -1  -7  -9   -0.30    3.80
   1   7   9   -1.30    3.30
   1   7   9   -3.40    5.30
  -2  -7  -9    4.20    5.30
   2   7   9   -0.60    5.30
   2   7   9   -2.40    3.40
   3  -8  -9  -15.50    7.00
  -3   8   9   -0.40    6.10
   2  -8  -9   -0.40    6.70
  -2   8   9   12.60    7.40
   1  -8  -9   -4.80    5.50
  -1   8   9   -5.50    5.40
   0  -8  -9    0.00    8.00
   0  -8  -9  -10.10    5.30
   0   8   9   -1.30    5.40
  -1  -8  -9   -4.20    5.80
  -1  -8  -9   -5.30    9.90
   1   8   9   -7.40    3.70
   1   8   9   -0.20    5.80
   2   8 -10    5.30    5.90
  -2  -8  10   10.80    6.60
  -1  -8  10    8.80    5.80
   0   8 -10   -7.90    4.50
   0  -8  10    2.90    5.20
  -1   8 -10   -2.20    5.00
  -1   8 -10   11.60    9.50
   1  -8  10    4.00    6.50
  -2   8 -10   14.90    8.40
  -2   8 -10    2.80    5.80
  -2   8 -10   -0.10    7.90
   2  -8  10    6.10    6.10
   3   7 -10   -1.90    6.40
  -3  -7  10    6.70    6.40
   2   7 -10   37.40    8.30
  -2  -7  10   36.70   12.20
   1   7 -10   16.60    5.90
  -1  -7  10   18.50    6.20
   0   7 -10    6.60    4.50
   0   7 -10    5.10    8.10
   0   7 -10    5.70    6.70
   0  -7  10   -2.00    5.00
  -1   7 -10    2.70    5.40
  -1   7 -10    4.80    8.90
  -1   7 -10    6.50    6.00
   1  -7  10    6.40    5.50
  -2   7 -10    7.60    5.70
  -2   7 -10    6.80    6.50
   2  -7  10    4.60    5.90
  -3   7 -10   13.60    7.10
  -3   7 -10   -8.50    5.90
  -3   7 -10    6.10    5.30
   3  -7  10    3.30   10.10
   3  -7  10    1.00    3.50
  -4  -6  10    5.60    6.30
   3   6 -10   20.10    8.20
  -3  -6  10   30.00    8.10
   2   6 -10   -4.30    4.70
  -2  -6  10    3.70    5.10
   1   6 -10   13.30    5.40
   1   6 -10   19.60    6.50
  -1  -6  10    6.70    5.50
   0   6 -10    0.20    7.30
   0   6 -10   -4.70    5.30
   0   6 -10    0.60    4.10
   0  -6  10   -1.80    4.40
   0  -6  10    0.80    8.00
  -1   6 -10    3.60    5.30
  -1   6 -10    3.60    6.90
  -1   6 -10    1.40    4.20
   1  -6  10  -11.10    8.10
   1  -6  10    7.70    4.70
  -2   6 -10   -6.30    7.00
  -2   6 -10   -4.20    4.80
  -2   6 -10    2.20    4.40
   2  -6  10    1.70    4.50
   2  -6  10    0.40    2.90
  -3   6 -10  277.17   18.70
  -3   6 -10  257.77   17.90
  -3   6 -10  273.67   20.10
   3  -6  10  290.27   14.20
   3  -6  10  268.47   16.40
  -4   6 -10   16.10    5.40
  -4   6 -10   17.70    8.70
  -4   6 -10    6.60    5.90
   4  -6  10   -3.80    3.70
   5   5 -10   27.90    6.80
  -5  -5  10    9.20    6.20
   4   5 -10   19.40    5.80
  -4  -5  10   15.40    6.40
  -3  -5  10  101.99   10.70
   2   5 -10   34.10    8.30
   2   5 -10   16.90    6.10
  -2  -5  10   28.50    6.20
  -2  -5  10   22.50    6.40
   1   5 -10   97.79   10.50
   1   5 -10   81.49    9.50
  -1  -5  10   84.39    9.90
  -1  -5  10  118.99   12.20
   0   5 -10   24.90    5.80
   0   5 -10   22.00    8.00
   0   5 -10    8.80    4.80
   0   5 -10   23.70    5.60
   0  -5  10   15.80    5.20
   0  -5  10   10.40    7.40
   0  -5  10   10.00    4.20
  -1   5 -10   -3.80    5.20
  -1   5 -10   -1.50    2.20
  -1   5 -10   -3.80    2.20
  -1   5 -10   -1.00    4.50
  -1   5 -10    3.20    3.60
   1  -5  10    0.70    4.00
   1  -5  10    6.00    4.00
   1  -5  10   -4.00    3.40
   1  -5  10   -6.40    7.20
  -2   5 -10    6.70    4.30
  -2   5 -10   -3.30    3.00
  -2   5 -10    1.60    4.20
  -2   5 -10   -5.10    6.40
   2  -5  10   -7.70    8.50
   2  -5  10    6.60    4.10
   2  -5  10    3.40    4.60
   2  -5  10   -0.20    4.20
   2  -5  10    4.50    3.00
  -3   5 -10   19.30    5.50
  -3   5 -10   12.10    5.50
  -3   5 -10    8.70    3.80
  -3   5 -10   15.50    8.20
   3  -5  10   22.60    6.50
   3  -5  10    8.00    4.40
   3  -5  10    1.40    4.10
   3  -5  10   19.40   10.60
  -4   5 -10   11.40    9.00
   4  -5  10    0.60    4.00
  -5   5 -10    0.20    9.10
   5  -5  10    2.50    4.60
   5   4 -10   46.30    9.20
  -5  -4  10   51.89    9.40
   4   4 -10   -0.10    4.00
  -4  -4  10   -1.00    4.90
   3   4 -10   16.70    6.00
  -3  -4  10   18.40    8.90
  -3  -4  10    6.60    4.70
  -3  -4  10    4.60    4.40
   2   4 -10   19.80    6.80
   2   4 -10   18.80    6.00
  -2  -4  10   34.60    8.30
  -2  -4  10   22.00    6.20
   1   4 -10   49.60    7.80
   1   4 -10   39.10    6.50
   1   4 -10   36.60    5.30
  -1  -4  10   52.69    9.40
  -1  -4  10   39.70    6.00
  -1  -4  10   51.39    7.50
   0   4 -10  102.39    8.40
   0   4 -10   91.89    7.40
   0   4 -10   91.69   10.90
   0   4 -10   93.19    8.80
   0  -4  10   91.49    8.90
   0  -4  10  102.29    7.90
   0  -4  10   99.99   11.00
  -1   4 -10    1.80    5.50
  -1   4 -10    2.50    4.00
  -1   4 -10   -1.20    1.90
  -1   4 -10    2.50    2.60
  -1   4 -10    7.50    3.80
   1  -4  10    5.80    4.80
   1  -4  10    5.30    3.70
   1  -4  10    2.70    3.10
   1  -4  10    4.60    7.10
  -2   4 -10  305.07   15.80
  -2   4 -10  315.77   13.70
  -2   4 -10  322.77   17.40
  -2   4 -10  315.07   13.50
  -2   4 -10  284.07   14.60
   2  -4  10  299.47   13.00
   2  -4  10  315.37   13.40
   2  -4  10  301.57   18.10
   2  -4  10  329.07   16.50
  -3   4 -10  324.87   16.70
  -3   4 -10  371.16   14.40
  -3   4 -10  384.06   19.90
  -3   4 -10  342.37   13.80
   3  -4  10  365.76   18.60
   3  -4  10  363.56   19.20
   3  -4  10  401.66   21.40
  -4   4 -10   -2.10    8.10
   4  -4  10   -0.80    3.30
  -5   4 -10   -1.90    9.00
   5  -4  10    0.10    4.00
   6   3 -10    0.10    7.40
  -6  -3  10    5.30    5.50
   5   3 -10   66.39   10.40
  -5  -3  10   52.79    9.10
   4   3 -10   18.20    6.00
  -4  -3  10   24.00    6.60
  -4  -3  10   18.60    6.00
   3   3 -10 1805.32   50.59
   3   3 -10 1861.91   51.99
  -3  -3  10 1854.21   53.19
  -3  -3  10 1857.41   51.39
  -3  -3  10 1809.82   56.49
   2   3 -10  501.45   20.60
  -2  -3  10  502.75   19.70
  -2  -3  10  537.55   20.60
  -2  -3  10  530.85   20.80
   1   3 -10   13.60    4.20
   1   3 -10    8.90    4.90
   1   3 -10   10.30    2.70
  -1  -3  10   10.70    3.70
  -1  -3  10   11.90    4.20
   0   3 -10  126.69    8.40
   0   3 -10  125.29    8.70
   0   3 -10  126.59    9.70
   0   3 -10  113.49   10.10
   0  -3  10  113.99    7.90
   0  -3  10  123.29    8.50
   0  -3  10  124.99   10.50
  -1   3 -10   -5.60    4.50
  -1   3 -10    3.70    3.40
  -1   3 -10    0.30    2.20
  -1   3 -10   -0.80    3.80
  -1   3 -10    7.40    3.50
   1  -3  10    3.80    4.50
   1  -3  10    3.40    3.00
   1  -3  10   -5.70    5.80
   1  -3  10   -1.70    3.20
  -2   3 -10   15.40    3.90
  -2   3 -10   27.40    5.10
  -2   3 -10   27.00    8.40
  -2   3 -10   13.70    3.80
   2  -3  10   33.20    8.70
   2  -3  10   21.50    7.40
  -3   3 -10  237.68   14.50
  -3   3 -10  223.08   15.50
   3  -3  10  229.88   14.30
   3  -3  10  231.58   15.40
  -4   3 -10   -1.30    7.60
   4  -3  10    0.10    5.40
  -5   3 -10   -0.10    9.70
   5  -3  10    5.00    4.30
   6   2 -10   16.80    8.00
  -6  -2  10   10.00    6.20
   5   2 -10    1.60    5.40
  -5  -2  10  -12.00    5.10
  -5  -2  10   -3.40    4.80
   4   2 -10   16.70    7.10
   4   2 -10    8.20    6.40
  -4  -2  10   14.80    6.00
  -4  -2  10   17.40    6.30
   3   2 -10   17.20    6.80
   3   2 -10   17.40    6.30
  -3  -2  10   11.40    4.90
  -3  -2  10   16.30    6.30
   2   2 -10   14.30    4.90
   2   2 -10    7.80    4.30
  -2  -2  10    9.90    4.10
  -2  -2  10   14.80    5.70
  -2  -2  10   11.40    3.90
   1   2 -10    5.30    3.80
   1   2 -10    7.20    3.80
  -1  -2  10    8.80    3.40
  -1  -2  10    6.20    3.70
   0   2 -10   11.10    2.90
   0   2 -10   14.90    4.00
   0  -2  10   15.30    3.80
   0  -2  10   11.90    3.80
  -1   2 -10  652.03   19.40
  -1   2 -10  621.54   24.90
  -1   2 -10  626.34   21.80
   1  -2  10  654.03   18.90
   1  -2  10  633.94   23.90
  -2   2 -10 1629.24   44.30
  -2   2 -10 1699.03   46.30
   2  -2  10 1639.34   48.30
  -3   2 -10   24.40    8.70
  -3   2 -10   12.60    4.50
  -3   2 -10   14.30    4.30
   3  -2  10   15.50    4.20
   3  -2  10   23.20    7.60
  -4   2 -10    3.00    7.50
  -4   2 -10  -18.50   18.10
   4  -2  10    3.80    4.20
  -5   2 -10   -8.30    9.00
   5  -2  10   -1.50    3.90
   6   1 -10   -4.20    6.20
  -6  -1  10    6.70    4.90
   5   1 -10    6.40    5.90
  -5  -1  10   -7.00    4.00
   4   1 -10  910.61   30.80
   4   1 -10  891.51   30.30
  -4  -1  10  868.61   36.20
  -4  -1  10  915.71   30.50
   3   1 -10  566.74   21.70
   3   1 -10  569.54   21.90
  -3  -1  10  590.64   21.60
  -3  -1  10  552.14   21.40
   2   1 -10   46.10    7.00
   2   1 -10   56.79    8.00
  -2  -1  10   49.70    6.50
  -2  -1  10   51.29    7.40
   1   1 -10  115.29    8.80
   1   1 -10  110.69    8.40
  -1  -1  10  118.39    8.00
  -1  -1  10  120.69    8.40
   0   1 -10  104.89    7.80
   0   1 -10  105.19    7.40
   0   1 -10  104.19    7.50
   0  -1  10  103.59    6.10
   0  -1  10   95.29    6.60
   0  -1  10  100.99    7.00
  -1   1 -10    5.90    2.20
  -1   1 -10   11.40    3.30
  -1   1 -10    4.50    2.70
   1  -1  10    3.80    4.60
  -2   1 -10   -0.30    2.60
  -2   1 -10   -0.60    2.50
   2  -1  10   -7.30    5.20
  -3   1 -10  172.68   12.90
  -3   1 -10  166.78   17.40
  -3   1 -10  128.69   16.60
   3  -1  10  157.98   14.40
  -4   1 -10   64.19   11.80
   4  -1  10   69.99   10.30
  -5   1 -10   -8.60    9.40
   5  -1  10    3.10    3.80
   6   0 -10   -4.40    5.60
  -6   0  10    0.70    8.60
  -6   0  10   -1.90    5.00
   5   0 -10   33.30    7.90
  -5   0  10   42.80   11.40
  -5   0  10   23.20    7.00
  -5   0  10   17.10    6.20
   4   0 -10   96.09   11.10
   4   0 -10  109.29   12.00
  -4   0  10  110.69   11.50
  -4   0  10   90.39   11.20
   3   0 -10  311.37   15.20
   3   0 -10  286.87   14.70
  -3   0  10  301.57   14.90
   2   0 -10    1.30    3.80
   2   0 -10   -0.80    3.30
  -2   0  10    0.30    2.80
  -2   0  10   -1.00    3.90
   1   0 -10   66.39    6.70
   1   0 -10   59.99    6.60
  -1   0  10   63.09    6.50
  -1   0  10   46.30    5.80
  -1   0  10   59.59    4.70
   0   0 -10  304.47   11.90
   0   0 -10  309.67   11.90
   0   0  10  311.87   15.10
   0   0  10  293.37   11.40
   0   0  10  320.07   11.40
   0   0  10  311.17   11.70
  -1   0 -10    1.10    2.50
   1   0  10    2.50    2.20
   1   0  10    3.00    4.40
  -2   0 -10  198.48   11.50
  -2   0 -10  208.68   12.20
   2   0  10  198.28   11.80
   2   0  10  152.48   14.20
  -3   0 -10    0.70    7.10
   3   0  10    1.90    5.20
  -4   0 -10   64.59   12.20
  -5   0 -10  -10.40    8.60
   6  -1 -10   -6.90    6.50
  -6   1  10   -0.10    2.80
  -6   1  10    8.70    6.10
  -6   1  10  -11.60   10.20
   5  -1 -10   11.70    6.30
  -5   1  10    5.00    4.80
  -5   1  10    3.70    8.30
   4  -1 -10  705.53   25.90
   4  -1 -10  719.13   26.10
  -4   1  10  692.93   25.10
  -4   1  10  700.23   26.70
   3  -1 -10  135.19   10.70
   3  -1 -10  151.38   11.10
  -3   1  10  152.28   11.00
  -3   1  10  149.49   10.60
  -3   1  10  150.28   10.90
   2  -1 -10   12.00    4.60
   2  -1 -10    9.90    4.50
  -2   1  10   13.30    4.00
  -2   1  10   10.30    5.40
   1  -1 -10  212.58   10.70
   1  -1 -10  196.28   10.30
  -1   1  10  205.88    9.10
  -1   1  10  207.58    9.90
  -1   1  10  206.38   10.20
   0  -1 -10   92.89    7.00
   0  -1 -10   96.19    6.90
   0   1  10   97.19    6.50
   0   1  10   99.69    7.20
   0   1  10   99.29    9.60
  -1  -1 -10  256.57   12.90
   1   1  10  266.47   15.40
   1   1  10  260.57   12.40
  -2  -1 -10   55.59    8.30
   2   1  10   66.99   11.00
   2   1  10   72.79    8.30
  -3  -1 -10   64.19    9.40
  -3  -1 -10   92.39    9.80
   3   1  10   81.29   11.50
   3   1  10   83.39    9.40
  -4  -1 -10   -6.10    6.90
   4   1  10   -0.50    3.10
  -5  -1 -10  -10.20    9.60
   6  -2 -10   -5.30    6.90
  -6   2  10   -0.40    8.30
  -6   2  10   12.60    7.10
   5  -2 -10   17.30    6.70
  -5   2  10    1.90    8.20
  -5   2  10   16.70    6.50
   4  -2 -10    3.20    5.00
   4  -2 -10    8.20    5.20
  -4   2  10   -7.10    6.50
  -4   2  10   -2.40    4.30
  -4   2  10    9.30    5.10
   3  -2 -10   54.19    7.90
   3  -2 -10   58.49    8.50
  -3   2  10   45.20    6.80
  -3   2  10   55.59    8.10
  -3   2  10   50.09    8.80
   2  -2 -10   11.20    4.70
   2  -2 -10   12.30    4.50
  -2   2  10   12.00    4.10
  -2   2  10   10.60    4.50
   1  -2 -10    9.00    4.20
   1  -2 -10   10.20    4.10
  -1   2  10   12.60    3.80
  -1   2  10   10.10    3.90
   0  -2 -10    7.90    3.30
   0  -2 -10    8.10    3.40
   0   2  10    7.20    3.20
   0   2  10    4.20    2.40
   0   2  10   17.20    3.80
   0   2  10    9.00    4.90
  -1  -2 -10    2.10    2.30
   1   2  10   -0.70    2.20
   1   2  10   -1.10    4.70
  -2  -2 -10    8.30    3.50
   2   2  10   18.80    7.20
   2   2  10    6.80    3.00
  -3  -2 -10    7.20    4.20
   3   2  10    5.20    3.50
   3   2  10    5.30    5.70
  -4  -2 -10   -2.70    7.20
   4   2  10    3.30    3.50
  -5  -2 -10    5.10   10.40
   6  -3 -10   -1.60    7.80
  -6   3  10   -1.30    9.60
  -6   3  10   14.80    7.30
   5  -3 -10   52.59    9.70
  -5   3  10   37.00   10.10
  -5   3  10   39.90    9.70
   4  -3 -10   97.39   11.80
   4  -3 -10   73.79   10.80
  -4   3  10   61.59   11.70
  -4   3  10   76.79   10.10
  -4   3  10   89.99   10.40
   3  -3 -10    0.00    4.60
   3  -3 -10    9.80    5.90
  -3   3  10    9.60    4.90
  -3   3  10    4.00    4.50
   2  -3 -10   34.10    6.10
   2  -3 -10   47.20    7.40
  -2   3  10   47.70    7.20
  -2   3  10   56.19    7.60
   1  -3 -10    4.00    4.60
   1  -3 -10    1.10    3.50
  -1   3  10    5.40    4.80
  -1   3  10    5.30    3.90
  -1   3  10    0.00    3.20
   0  -3 -10    4.90    3.90
   0  -3 -10    4.20    3.40
   0   3  10   -1.20    2.90
   0   3  10    0.60    4.60
   0   3  10    4.40    2.50
   0   3  10    5.10    3.00
  -1  -3 -10    0.50    2.80
  -1  -3 -10   -2.20    2.80
  -1  -3 -10   -0.70    2.40
   1   3  10    1.10    2.50
   1   3  10   -2.00    4.70
  -2  -3 -10    5.60    3.50
   2   3  10    9.00    6.30
   2   3  10    8.50    3.50
   3   3  10    5.00    6.50
   3   3  10    5.20    3.40
   4   3  10    0.10    3.50
   6  -4 -10    2.40    9.00
  -6   4  10    5.30    7.20
  -6   4  10    2.30    9.90
   5  -4 -10    2.30    9.60
  -5   4  10   -0.70    5.90
  -5   4  10   -6.70    8.30
   4  -4 -10   23.50    7.30
  -4   4  10   22.30    8.90
  -4   4  10   20.90    6.40
   3  -4 -10   33.30   10.00
   3  -4 -10   26.10    7.20
  -3   4  10   36.70    7.10
  -3   4  10   25.20    5.60
   2  -4 -10   16.60    5.70
   2  -4 -10   10.10    4.60
  -2   4  10   16.50    5.30
   1  -4 -10    8.40    4.40
   1  -4 -10   10.80    4.30
  -1   4  10   14.20    4.60
  -1   4  10   13.80    6.10
  -1   4  10   13.00    5.50
   0  -4 -10   18.00    5.40
   0  -4 -10   17.00    4.50
   0   4  10   11.40    6.20
   0   4  10   16.80    4.30
   0   4  10    9.80    3.50
   0   4  10    6.40    3.30
  -1  -4 -10    2.10    3.50
  -1  -4 -10   -1.00    3.40
   1   4  10   -3.20    2.60
   1   4  10    1.10    5.00
   1   4  10   -0.10    2.90
   1   4  10   -0.30    2.30
  -2  -4 -10   78.19    9.60
   2   4  10   69.79   10.90
   2   4  10   65.29    9.40
   3   4  10    1.00    3.60
   4   4  10    3.30    4.50
   5  -5 -10    4.70    7.60
  -5   5  10   -4.20    8.60
  -5   5  10    4.90    6.40
   4  -5 -10    1.50   14.80
  -4   5  10   -0.60    7.30
  -4   5  10    2.00    5.10
   3  -5 -10    9.20    6.00
   3  -5 -10    4.50    5.10
  -3   5  10    2.90    4.90
  -3   5  10    4.20    6.10
   2  -5 -10    4.90    5.20
   2  -5 -10    3.70    5.20
  -2   5  10    1.60    5.10
  -2   5  10    0.70    4.40
   1  -5 -10    5.10    4.50
   1  -5 -10    7.90    4.50
  -1   5  10    1.10    5.30
  -1   5  10    3.00    4.10
   0  -5 -10   -2.10    4.20
   0  -5 -10   -2.00    3.90
   0   5  10    5.60    3.80
   0   5  10    1.40    4.80
   0   5  10   -3.10    3.40
  -1  -5 -10    2.40    3.00
  -1  -5 -10   -4.90    3.70
  -1  -5 -10    0.00    4.00
   1   5  10   -1.40    3.60
   1   5  10    2.40    3.00
   1   5  10   -1.50    3.20
   1   5  10    0.20    5.20
  -2  -5 -10   30.00    5.70
  -2  -5 -10   16.00    4.30
  -2  -5 -10   16.30    5.90
   2   5  10   18.00    7.10
   2   5  10   18.60    4.60
   5  -6 -10   -4.00    8.00
  -5   6  10    3.30    6.80
  -5   6  10    6.20   10.10
   4  -6 -10   11.50    7.30
  -4   6  10    0.80    5.70
   2  -6 -10   -0.70    5.00
   2  -6 -10    6.50    6.00
  -2   6  10   -2.50    4.30
  -2   6  10    8.70    5.80
  -2   6  10   15.50    6.10
   1  -6 -10    0.00    7.90
   1  -6 -10   -2.50    5.30
  -1   6  10    7.00    5.50
  -1   6  10   -5.20    4.30
   0  -6 -10   -2.40    6.00
   0   6  10    9.90    5.80
   0   6  10   -6.20    4.00
  -1  -6 -10    2.10    4.80
   1   6  10    6.30    4.80
   1   6  10   19.90    7.30
   1   6  10   15.60    4.40
  -2  -6 -10    2.20    4.30
  -2  -6 -10   -3.50    4.50
   2   6  10    0.00    3.60
   3   6  10   -2.90    4.30
   4  -7 -10   10.30    7.90
  -4   7  10   34.40   16.10
  -4   7  10   -5.70    6.50
  -3   7  10   48.80    9.90
   2  -7 -10  -39.60   25.70
   2  -7 -10    5.60    6.20
  -2   7  10    1.10    5.10
  -2   7  10   10.90    5.30
   1  -7 -10    1.20    5.20
   1  -7 -10   -7.40    6.10
  -1   7  10   -6.00    4.30
  -1   7  10   10.00    5.50
   0  -7 -10   -6.30    4.90
   0   7  10   -7.30    4.50
   0   7  10   -0.80    5.10
  -1  -7 -10   11.20    6.60
  -1  -7 -10   24.50    7.00
   1   7  10   14.50    4.50
  -2  -7 -10  -11.10    5.60
  -2  -7 -10    1.50    5.00
   2   7  10   -0.30    4.10
   2   7  10   10.60    5.20
   1  -8 -10   -8.20    6.00
  -1   8  10    3.80    6.00
  -1   8  10   14.50    6.00
   0  -8 -10    3.00    5.30
   0  -8 -10  -16.90    7.50
   0   8  10   -3.00    6.10
  -2  -8  11    4.50    6.40
   1   8 -11    0.90    5.50
  -1  -8  11    0.60    5.50
   0   8 -11    6.20    5.30
   0  -8  11    7.20    7.00
  -1   8 -11   15.70    8.50
  -1   8 -11   -2.80    5.40
   1  -8  11   12.70    6.60
   2  -8  11    8.00    6.70
   3   7 -11   -2.60    6.40
  -3  -7  11   15.80    5.80
   2   7 -11   29.30    8.00
  -2  -7  11   35.70    7.40
   1   7 -11    5.50    4.80
  -1  -7  11    5.50    6.10
   0   7 -11    2.60    9.30
   0   7 -11   13.90    7.20
   0   7 -11    2.40    4.70
   0  -7  11   10.70    5.70
  -1   7 -11   -0.20    6.50
  -1   7 -11    9.30    9.00
  -1   7 -11   -0.20    4.20
   1  -7  11   18.10    6.30
  -2   7 -11   35.10    7.10
  -2   7 -11   37.10   10.20
  -2   7 -11   23.50    6.30
   2  -7  11   21.40    7.10
  -3   7 -11   -8.30    6.60
  -3   7 -11    6.80    5.40
   3  -7  11    1.30    4.50
   3  -7  11   -2.20    5.10
   4   6 -11   11.60    6.90
  -4  -6  11   16.10    6.70
   3   6 -11   21.30    7.30
  -3  -6  11   28.10    7.40
   2   6 -11   -3.40    9.80
  -2  -6  11    7.30    5.50
   1   6 -11   16.90    6.10
   1   6 -11    9.20    5.20
  -1  -6  11    7.40    5.30
  -1  -6  11   11.90    7.50
   0   6 -11   17.80    9.10
   0   6 -11   25.00    7.60
   0   6 -11   21.00    6.40
   0  -6  11   13.50   10.40
   0  -6  11   15.20    6.10
  -1   6 -11    2.40    6.00
  -1   6 -11   -1.50    7.90
  -1   6 -11    1.50    2.90
  -1   6 -11    0.30    4.20
   1  -6  11    0.10    4.40
   1  -6  11    2.80    4.60
  -2   6 -11   12.50    6.20
  -2   6 -11   21.00    8.70
  -2   6 -11   14.80    5.30
   2  -6  11   22.60    6.10
   2  -6  11   23.70    5.90
  -3   6 -11   32.60    6.90
  -3   6 -11   24.10    8.20
   3  -6  11   13.60    5.00
  -4   6 -11   -2.40    4.70
  -4   6 -11   27.80    8.60
   4  -6  11    3.60    4.40
   5   5 -11    3.30    6.30
  -5  -5  11    2.10    5.50
   4   5 -11   28.60    7.90
  -4  -5  11   26.80    7.10
  -3  -5  11   18.30    6.80
   2   5 -11   31.00    8.20
  -2  -5  11   14.60    5.40
   1   5 -11   25.00    6.50
   1   5 -11   36.30    7.00
  -1  -5  11   33.40    7.40
   0   5 -11    6.60    4.90
   0   5 -11    5.30    6.70
   0   5 -11   -1.40    2.60
   0   5 -11    7.80    4.50
   0  -5  11   10.80    8.40
   0  -5  11    3.20    3.60
   0  -5  11    3.30    4.80
  -1   5 -11    3.80    5.10
  -1   5 -11    0.20    3.40
  -1   5 -11    0.00    2.80
  -1   5 -11    0.00    2.40
   1  -5  11   -0.90    3.90
   1  -5  11  -13.40    7.40
   1  -5  11   -3.30    3.70
   1  -5  11   -1.30    4.10
  -2   5 -11   13.10    3.70
  -2   5 -11    2.00    4.10
  -2   5 -11   11.20    7.60
  -2   5 -11   11.30    5.10
   2  -5  11    8.40    4.30
   2  -5  11   13.80    6.10
   2  -5  11    3.40    9.10
  -3   5 -11   26.60    5.50
  -3   5 -11   29.30    5.40
   3  -5  11   54.49   12.40
   3  -5  11   35.30    7.80
   3  -5  11   14.30    4.80
  -4   5 -11   22.20   15.60
   5   4 -11   13.70    6.90
  -5  -4  11   10.80    5.90
   4   4 -11   43.50    8.10
   3   4 -11   13.00    5.80
   3   4 -11   26.50    7.00
  -3  -4  11    8.00    5.30
  -3  -4  11   15.30    8.90
   2   4 -11    2.00    5.00
   2   4 -11   -0.20    2.00
  -2  -4  11    1.20    4.00
  -2  -4  11    6.10    4.50
   1   4 -11    4.60    4.90
   1   4 -11    4.60    3.60
   1   4 -11    1.30    2.50
  -1  -4  11    7.80    5.60
  -1  -4  11    2.10    4.00
   0   4 -11   15.00    3.30
   0   4 -11   17.30    5.00
   0   4 -11   21.50    5.10
   0   4 -11   20.40    7.20
   0  -4  11   15.60    4.60
   0  -4  11   16.70    5.20
   0  -4  11   25.10    7.80
  -1   4 -11   26.80    5.50
  -1   4 -11   12.90    2.90
  -1   4 -11   17.00    7.60
  -1   4 -11   11.30    3.70
  -1   4 -11   19.10    4.60
   1  -4  11   11.80    4.60
   1  -4  11   13.00    8.00
   1  -4  11   18.50    4.60
   1  -4  11   20.00    6.60
  -2   4 -11  641.34   20.50
  -2   4 -11  528.45   20.50
  -2   4 -11  588.24   20.00
  -2   4 -11  557.04   23.00
  -2   4 -11  612.34   27.00
   2  -4  11  592.54   24.90
   2  -4  11  540.55   18.40
   2  -4  11  566.34   18.80
   2  -4  11  579.84   23.90
  -3   4 -11   24.10    4.70
  -3   4 -11   46.10   10.00
   3  -4  11   25.30    6.80
   3  -4  11   16.90    4.80
  -4   4 -11    2.80    7.30
   4  -4  11    2.10    3.90
  -5   4 -11   16.90   10.60
   5  -4  11    0.90    3.90
   6   3 -11   -6.40    7.20
  -6  -3  11    8.80    6.10
   5   3 -11   -3.10    5.00
  -5  -3  11    3.00    5.50
   3   3 -11   -3.90    4.30
   3   3 -11    8.80    6.70
  -3  -3  11   18.40    7.70
  -3  -3  11   -2.30    4.00
  -3  -3  11    0.40    4.10
   2   3 -11   58.79    8.10
   2   3 -11   77.89   10.60
  -2  -3  11   58.39    8.80
  -2  -3  11   64.39   10.00
   1   3 -11   12.90    5.10
  -1  -3  11    7.70    6.40
  -1  -3  11    9.90    3.80
   0   3 -11   16.30    4.40
   0   3 -11   14.60    3.40
   0   3 -11   18.70    5.10
   0  -3  11   18.10    6.40
   0  -3  11   15.70    4.30
   0  -3  11   14.20    4.50
  -1   3 -11    6.40    2.40
  -1   3 -11    8.00    4.00
  -1   3 -11   20.60    4.50
  -1   3 -11    7.40    2.90
   1  -3  11   13.40    3.60
   1  -3  11   17.90    6.80
   1  -3  11   -0.20   11.30
   1  -3  11   13.60    4.00
  -2   3 -11    8.30    4.00
  -2   3 -11   13.90    4.30
  -2   3 -11   21.70    7.90
  -2   3 -11    5.10    3.30
   2  -3  11   24.20    7.70
   2  -3  11   22.30    7.90
  -3   3 -11   22.00    7.60
   3  -3  11   10.40    6.80
  -4   3 -11    4.20    7.80
   4  -3  11   -3.20    3.60
  -5   3 -11   -0.30   18.20
   5  -3  11   -5.70    3.70
   6   2 -11   15.50    8.60
  -6  -2  11    1.60    5.80
   5   2 -11   -1.90    5.50
  -5  -2  11    3.90    5.30
   4   2 -11    3.10    5.40
   4   2 -11   10.80    8.80
  -4  -2  11    3.30    5.60
  -4  -2  11   -1.10    4.80
   3   2 -11    8.40    5.10
   3   2 -11   14.50    5.30
  -3  -2  11   -6.70    4.60
  -3  -2  11    1.20    4.10
   2   2 -11   30.80    6.20
   2   2 -11   40.10    7.30
  -2  -2  11   22.60    5.40
  -2  -2  11   35.50    7.80
  -2  -2  11   22.70    5.40
   1   2 -11  217.28   11.40
   1   2 -11  184.58   14.50
  -1  -2  11  194.18   10.70
  -1  -2  11  211.98   11.40
   0   2 -11   52.29    7.10
   0   2 -11   62.49    7.60
   0   2 -11   58.09    6.60
   0   2 -11   48.80    4.80
   0  -2  11   58.39    6.20
   0  -2  11   55.69    6.20
  -1   2 -11  730.63   24.30
  -1   2 -11  684.03   21.40
  -1   2 -11  669.73   21.60
   1  -2  11  734.73   26.80
   1  -2  11  684.83   20.30
   1  -2  11  696.63   20.60
  -2   2 -11  549.85   20.50
  -2   2 -11  562.04   22.70
   2  -2  11  550.14   24.60
  -3   2 -11   35.90    8.20
   3  -2  11   28.00    8.10
  -4   2 -11   -0.80    7.60
  -5   2 -11   -3.00    9.60
   5  -2  11    6.10    4.20
   6   1 -11   -0.30    9.50
  -6  -1  11   17.70    6.60
   5   1 -11    5.80    6.70
  -5  -1  11   -0.70    5.90
   4   1 -11  488.55   21.90
   4   1 -11  492.35   21.70
  -4  -1  11  461.15   20.90
  -4  -1  11  490.05   21.30
   3   1 -11  556.64   21.90
   3   1 -11  589.44   22.80
  -3  -1  11  577.54   22.10
  -3  -1  11  548.05   21.80
   2   1 -11   -8.60    3.70
   2   1 -11   -1.50    3.60
  -2  -1  11    0.90    3.10
  -2  -1  11   -2.80    3.50
   1   1 -11   84.99    8.20
   1   1 -11   87.89    7.90
  -1  -1  11   86.69    7.50
  -1  -1  11   99.49    7.90
   0   1 -11   23.70    4.90
   0   1 -11   32.00    5.40
   0   1 -11   19.40    3.80
   0  -1  11   38.90    7.40
   0  -1  11   33.20    4.80
   0  -1  11   24.10    4.50
   0  -1  11   25.60    4.50
  -1   1 -11   -1.30    4.40
  -1   1 -11    8.80    2.80
  -1   1 -11    8.60    3.00
   1  -1  11   11.90    6.40
  -2   1 -11  464.65   19.10
  -2   1 -11  471.25   22.60
   2  -1  11  480.15   22.60
  -3   1 -11   14.10    3.90
   3  -1  11   20.60    8.10
  -4   1 -11    4.00    8.50
  -5   1 -11   -7.10   10.90
   6   0 -11   -2.00    8.60
  -6   0  11    3.20    5.70
  -6   0  11    3.10    8.50
   5   0 -11    4.20    6.10
  -5   0  11    2.60    8.30
  -5   0  11    0.70    9.20
   4   0 -11   14.50    5.80
   4   0 -11   11.60    5.80
  -4   0  11    0.70    5.00
  -4   0  11    5.80    5.40
   3   0 -11    5.00    4.40
   3   0 -11    7.00    4.90
  -3   0  11    0.10    4.00
  -3   0  11    3.70    4.30
   2   0 -11    9.60    4.10
   2   0 -11    7.50    4.40
  -2   0  11    7.90    4.60
  -2   0  11    7.40    3.60
   1   0 -11    3.70    3.40
   1   0 -11   -2.40    3.60
  -1   0  11   -3.30    2.50
  -1   0  11    1.30    1.50
  -1   0  11   -0.30    3.50
   0   0 -11  177.18    9.60
   0   0 -11  180.88    9.70
   0   0  11  186.28    9.00
   0   0  11  180.88    8.80
   0   0  11  174.08   12.50
   0   0  11  183.68    9.00
  -1   0 -11 2995.40   74.49
   1   0  11 3115.49   72.29
   1   0  11 2899.11   77.29
  -2   0 -11   -2.10    2.60
   2   0  11   -0.70    2.40
   2   0  11    0.60    5.20
  -3   0 -11    8.90    3.40
   3   0  11    7.30    6.80
  -4   0 -11   -9.10    8.20
  -5   0 -11   -3.80   10.20
  -6   1  11    3.10    5.10
  -6   1  11   -3.80    8.40
  -6   1  11   -1.50    3.30
   5  -1 -11  286.47   17.30
  -5   1  11  246.88   22.80
  -5   1  11  249.58   18.20
   4  -1 -11  112.19   11.70
   4  -1 -11   86.79   11.10
  -4   1  11   83.09    9.90
  -4   1  11  121.49   11.40
  -4   1  11   83.09   11.40
   3  -1 -11  123.69   10.90
   3  -1 -11  122.19   11.00
  -3   1  11  140.29   11.50
  -3   1  11  134.89   10.30
   2  -1 -11   46.10    6.90
   2  -1 -11   53.09    8.10
  -2   1  11   60.79    7.20
  -2   1  11   51.49    7.20
   1  -1 -11   33.90    5.90
   1  -1 -11   43.90    6.80
  -1   1  11   47.70    5.90
  -1   1  11   43.30    6.20
  -1   1  11   46.00    5.10
   0  -1 -11    9.10    3.70
   0  -1 -11    5.80    3.30
   0   1  11   10.20    3.30
   0   1  11    5.60    2.50
   0   1  11    5.30    4.90
  -1  -1 -11   27.00    4.90
   1   1  11   35.40    8.30
   1   1  11   16.60    3.80
  -2  -1 -11  289.87   15.30
   2   1  11  272.77   14.80
   2   1  11  261.67   17.50
   3   1  11   38.70    9.40
   3   1  11   38.70    6.10
  -5  -1 -11   -2.80   10.50
   6  -2 -11   -2.50    8.00
  -6   2  11    0.80    6.50
  -6   2  11  -11.40    8.00
   5  -2 -11   23.40    7.70
  -5   2  11   11.40    8.70
  -5   2  11   13.40    8.60
   4  -2 -11   95.19   11.20
   4  -2 -11  116.59   12.40
  -4   2  11  120.59   11.50
  -4   2  11   98.99   10.80
  -4   2  11   91.19   11.80
   3  -2 -11    8.90    4.40
   3  -2 -11    3.20    4.60
  -3   2  11   -5.50    3.80
  -3   2  11   -0.90    4.10
   2  -2 -11    5.80    4.40
   2  -2 -11   -2.40    3.70
  -2   2  11   -0.80    3.50
  -2   2  11    0.10    3.40
   1  -2 -11  152.98   10.00
   1  -2 -11  163.88   10.60
  -1   2  11  156.28    9.40
  -1   2  11  153.58    9.30
   0  -2 -11  134.59    8.80
   0  -2 -11  136.79    9.00
   0   2  11  138.89    8.10
   0   2  11  130.19    8.00
   0   2  11  132.09   11.70
   0   2  11  123.49    9.30
  -1  -2 -11  439.56   18.50
   1   2  11  373.86   20.90
   1   2  11  446.16   18.10
  -2  -2 -11    1.00    2.80
   2   2  11   -3.30    2.40
   2   2  11    3.20    5.80
   3   2  11   39.40    6.00
   3   2  11   45.90    9.70
   4   2  11    0.50    3.20
   6  -3 -11    6.70    8.60
  -6   3  11    7.40    8.30
  -6   3  11    4.50   10.30
   5  -3 -11  208.48   21.10
  -5   3  11  166.28   16.50
  -5   3  11  198.98   15.00
   4  -3 -11    9.10    6.50
  -4   3  11   -1.50    5.00
  -4   3  11   -2.40    7.10
   3  -3 -11    2.70    5.00
   3  -3 -11   12.90    4.90
  -3   3  11   12.50    4.80
  -3   3  11    3.90    4.30
   2  -3 -11   60.29    8.80
   2  -3 -11   58.89    8.60
  -2   3  11   53.19    7.60
   1  -3 -11   54.29    7.70
   1  -3 -11   60.69    8.70
  -1   3  11   65.89    7.60
  -1   3  11   63.19    7.30
  -1   3  11   61.39    8.90
   0  -3 -11  105.39    8.30
   0  -3 -11  110.69    9.00
   0   3  11   88.69   10.70
   0   3  11  100.39    7.70
   0   3  11  105.29    7.70
   0   3  11   81.19    8.70
  -1  -3 -11  145.39   11.00
  -1  -3 -11  162.98    9.10
  -1  -3 -11  144.59    8.70
   1   3  11  157.78   11.90
   1   3  11  134.99   13.60
  -2  -3 -11   81.29   10.30
   2   3  11  111.69   10.60
   2   3  11   83.09   11.90
   3   3  11   -0.70    2.80
   3   3  11    5.50    6.20
   5  -4 -11    3.40    7.30
  -5   4  11   -2.30    8.00
  -5   4  11    9.90    6.80
   4  -4 -11   34.50    8.10
  -4   4  11   26.00    6.90
  -4   4  11   22.30    8.70
   3  -4 -11   -3.50    5.10
   3  -4 -11   -7.00    5.00
  -3   4  11    1.80    4.40
   2  -4 -11   -1.70    4.30
   2  -4 -11    4.30    4.50
  -2   4  11   -2.80    3.90
   1  -4 -11    4.00    4.80
   1  -4 -11    4.10    4.40
  -1   4  11    3.40    5.20
  -1   4  11    8.60    5.80
  -1   4  11   12.70    4.10
   0  -4 -11   52.49    7.30
   0  -4 -11   52.89    8.20
   0   4  11   41.40    9.00
   0   4  11   23.80    4.60
   0   4  11   36.50    6.30
   0   4  11   31.30    5.30
  -1  -4 -11   -4.20    3.10
  -1  -4 -11    4.80    4.10
  -1  -4 -11    8.50    3.80
   1   4  11    0.30    2.80
   1   4  11   -0.50    5.80
   2   4  11   17.90    6.90
   2   4  11    5.50    3.80
   3   4  11   -3.30    3.10
   4   4  11    0.00    4.10
   5  -5 -11    9.60    8.40
  -5   5  11   13.70   10.00
  -5   5  11    7.30    7.00
   4  -5 -11    6.10    6.80
  -4   5  11    1.50    7.30
   3  -5 -11   -8.20    8.70
   3  -5 -11    5.40    6.30
  -3   5  11   -1.00    5.00
   2  -5 -11    1.40    5.20
   2  -5 -11    1.20    4.90
  -2   5  11   -2.90    4.50
  -2   5  11    1.80    5.00
   1  -5 -11    1.30    4.70
   1  -5 -11    5.30    4.90
  -1   5  11    3.10    5.60
  -1   5  11    7.20    4.50
   0  -5 -11    1.50    4.50
   0  -5 -11    5.60    4.30
   0   5  11    4.00    3.40
   0   5  11   -8.00    3.40
   0   5  11    0.80    5.20
  -1  -5 -11   24.50    6.00
  -1  -5 -11   20.50    5.30
   1   5  11   25.60    8.20
   1   5  11   12.00    6.40
   1   5  11   17.30    5.70
   1   5  11   33.00    5.50
  -2  -5 -11    3.60    4.00
  -2  -5 -11    4.70    4.30
   2   5  11    7.00    7.10
   2   5  11    5.00    4.20
   3   5  11   -1.30    3.40
   4  -6 -11    8.90    7.40
  -4   6  11   21.40    8.20
  -4   6  11    6.40    6.60
   3  -6 -11   -7.70    5.40
  -3   6  11   -4.80    5.50
  -3   6  11   -5.60    4.90
   2  -6 -11   -2.40    6.20
   2  -6 -11   11.40    6.20
  -2   6  11    5.10    5.20
  -2   6  11    7.10    5.80
   1  -6 -11    6.90    5.90
   1  -6 -11   -0.10    5.20
  -1   6  11    4.10    4.90
  -1   6  11    5.00    5.10
   0  -6 -11   -5.00    5.20
   0  -6 -11    5.80    5.70
   0   6  11   -7.90    4.40
   0   6  11   -1.10    3.00
   0   6  11   -6.80    5.20
  -1  -6 -11   -0.60    5.00
  -1  -6 -11    5.50    5.00
   1   6  11    3.00    4.10
   1   6  11   -1.90    4.70
   1   6  11    4.30    5.90
  -2  -6 -11   -5.80    4.80
  -2  -6 -11    0.50    4.70
   2   6  11   -1.50    3.70
   2  -7 -11   -0.90    6.20
  -2   7  11    2.20    5.50
  -2   7  11   -1.30    5.10
   1  -7 -11   -0.30    6.60
   1  -7 -11   -1.40    5.60
  -1   7  11    0.70    5.50
  -1   7  11   -2.00    5.10
   0  -7 -11    4.80    6.80
   0  -7 -11   -6.60    5.20
   0   7  11   -3.70    4.40
   0   7  11    8.00    6.10
   0   7  11   -1.70    3.20
  -1  -7 -11    7.30    5.80
  -1  -7 -11    5.70    6.70
   1   7  11    6.30    3.90
   1   7  11   -8.20    5.20
   1   8 -12   -5.80    4.90
  -1  -8  12    4.20    6.50
   0   8 -12    3.10    5.30
   0  -8  12    5.40    6.20
  -1   8 -12    9.90    5.80
   1  -8  12   23.00    8.60
   3   7 -12   -8.60    5.70
  -3  -7  12    4.60    5.20
   2   7 -12   35.10    9.30
  -2  -7  12   39.20    8.80
   1   7 -12    3.80    5.10
  -1  -7  12    5.10    5.90
   0   7 -12   11.80    6.80
   0   7 -12    7.20    5.50
   0  -7  12    1.40    5.60
   0  -7  12    0.60    5.40
  -1   7 -12   41.10   16.80
  -1   7 -12   41.50    7.70
   1  -7  12   68.29   10.20
  -2   7 -12   23.20    8.30
  -2   7 -12    3.70    7.00
  -2   7 -12    8.10    4.60
   2  -7  12    8.70    5.50
   3  -7  12   29.40    7.20
   4   6 -12   15.10    6.20
  -4  -6  12    4.70    6.60
  -3  -6  12   -6.40    5.10
   2   6 -12   -9.70    4.60
  -2  -6  12    2.30    5.20
   1   6 -12    3.30    4.50
   1   6 -12   -6.70    5.50
  -1  -6  12   11.20    5.60
  -1  -6  12    4.60    6.70
   0   6 -12   30.80    7.80
   0   6 -12    9.40    4.70
   0  -6  12    4.20   10.50
   0  -6  12   16.10    5.90
   0  -6  12   10.30    5.90
  -1   6 -12   16.60    9.30
  -1   6 -12    9.70    5.00
  -1   6 -12    0.10    6.10
  -1   6 -12    5.10    3.20
   1  -6  12   10.10    5.40
   1  -6  12   20.40    5.90
  -2   6 -12   13.80    7.80
  -2   6 -12    7.70    3.80
  -2   6 -12    9.50    5.90
  -2   6 -12    9.20    4.60
   2  -6  12   11.50    4.30
   2  -6  12   20.00    6.60
  -3   6 -12    0.60    5.30
  -3   6 -12    5.00    4.50
   3  -6  12   11.40    4.80
   4   5 -12   -1.40    5.40
  -4  -5  12   -0.80    5.30
  -3  -5  12   77.89   11.00
   2   5 -12    8.60    7.70
   1   5 -12   16.70    3.30
   1   5 -12   31.40    7.00
   1   5 -12   17.60    6.00
  -1  -5  12   26.00    6.70
  -1  -5  12   39.40    9.50
   0   5 -12   29.00    4.40
   0   5 -12   56.79    8.70
   0   5 -12   53.59    8.20
   0  -5  12   45.80   10.80
   0  -5  12   40.80    7.10
  -1   5 -12  122.59   13.50
  -1   5 -12  110.99    9.50
  -1   5 -12  136.19   11.50
  -1   5 -12  101.79   10.20
  -1   5 -12   88.29    7.90
   1  -5  12  114.09   10.00
   1  -5  12   80.19   14.60
   1  -5  12  102.89   10.70
  -2   5 -12   24.90    4.30
  -2   5 -12   18.20    4.80
  -2   5 -12   40.50    6.80
  -2   5 -12   27.50    6.10
   2  -5  12   33.70    7.50
   2  -5  12   36.90   18.80
  -3   5 -12   24.10    4.70
   3  -5  12   22.90    7.20
  -4   5 -12   18.70    9.80
   4  -5  12   -0.40    4.10
   5   4 -12   39.20    8.90
  -5  -4  12   21.50    7.70
   4   4 -12   20.90   11.40
  -4  -4  12   17.30    6.30
   2   4 -12    7.10    7.30
  -2  -4  12   16.30    5.70
   1   4 -12   65.39    9.50
   1   4 -12   45.30    7.70
   1   4 -12   52.09    6.80
  -1  -4  12   57.39    8.30
  -1  -4  12   71.29   10.10
   0   4 -12   16.10    3.40
   0   4 -12   29.90    6.40
   0   4 -12   25.70    6.10
   0  -4  12   22.40    5.30
   0  -4  12   30.50    6.00
   0  -4  12   14.50    7.20
  -1   4 -12    3.20    2.50
  -1   4 -12   19.40    5.50
  -1   4 -12    9.30    6.20
  -1   4 -12    7.50    4.40
  -1   4 -12    4.10    3.50
   1  -4  12    3.80    4.00
   1  -4  12   -0.90    7.40
   1  -4  12   12.60    4.10
   1  -4  12   12.10    6.40
  -2   4 -12   50.39    7.50
  -2   4 -12   68.79    8.70
  -2   4 -12   60.29    8.40
  -2   4 -12   63.29    8.90
   2  -4  12   46.30    9.30
   2  -4  12   63.29   11.80
  -3   4 -12   72.79   11.10
  -4   4 -12   13.20    9.10
   5   3 -12   18.90    7.80
  -5  -3  12   13.50    6.60
   3   3 -12   13.40    5.30
   3   3 -12   16.30    7.70
  -3  -3  12    6.30    4.30
  -3  -3  12    2.20    7.90
   2   3 -12   89.39   11.40
   2   3 -12   75.69    9.10
  -2  -3  12  105.49    9.10
  -2  -3  12   73.89    9.20
   1   3 -12   -2.10    2.10
   1   3 -12   -5.00    4.60
  -1  -3  12   -3.20    3.60
   0   3 -12    5.00    3.00
   0   3 -12    2.10    4.80
   0  -3  12    2.40    3.20
   0  -3  12    3.10    3.40
  -1   3 -12  108.59   10.40
  -1   3 -12  111.69    8.90
  -1   3 -12  127.19    9.60
  -1   3 -12  129.59    8.80
   1  -3  12  107.19    8.20
   1  -3  12  117.29   11.70
   1  -3  12  116.19    8.50
  -2   3 -12  223.58   10.60
  -2   3 -12  190.08   12.30
  -2   3 -12  209.08   12.40
  -2   3 -12  183.58   13.40
   2  -3  12  190.28   14.60
  -3   3 -12   14.70    7.10
  -3   3 -12   -4.30    3.30
   3  -3  12   -0.70    5.30
  -4   3 -12   -1.90    7.80
   6   2 -12   19.30    8.00
  -6  -2  12    8.00    6.30
   5   2 -12   35.10   13.20
  -5  -2  12   33.30    8.20
   4   2 -12   10.60    6.20
  -4  -2  12   12.50    5.80
   3   2 -12    8.20    5.10
   3   2 -12   11.80    6.60
  -3  -2  12    1.60    4.60
  -3  -2  12   -3.00    4.10
  -3  -2  12    3.00    6.20
   2   2 -12   15.90    5.80
   2   2 -12    8.20    4.80
  -2  -2  12   13.30    5.60
  -2  -2  12   12.60    4.80
   1   2 -12   29.80    6.00
   1   2 -12   25.00    5.40
  -1  -2  12   25.00    5.10
  -1  -2  12   23.90    5.30
   0   2 -12   12.10    3.60
   0   2 -12   25.40    5.70
   0   2 -12   23.00    4.80
   0  -2  12   13.20    4.00
   0  -2  12   17.20    4.10
   0  -2  12    7.30    6.50
  -1   2 -12  563.74   19.10
  -1   2 -12  590.64   19.50
  -1   2 -12  558.54   18.80
  -1   2 -12  559.24   21.70
   1  -2  12  572.14   24.30
  -2   2 -12  117.49   10.80
  -2   2 -12  103.49    9.90
   2  -2  12   90.99   11.70
  -3   2 -12    5.80    3.60
   3  -2  12    6.10    6.40
  -4   2 -12    7.40    8.60
  -5   2 -12   -5.80   10.00
   5   1 -12    7.60    6.80
  -5  -1  12    4.20    6.20
   4   1 -12    9.10    6.10
   4   1 -12    8.40   10.70
  -4  -1  12    8.10    5.40
   3   1 -12   12.60    5.90
   3   1 -12   -3.60    4.30
  -3  -1  12   -2.00    4.40
  -3  -1  12   -4.00    3.80
   2   1 -12    6.90    4.40
   2   1 -12   -0.10    4.60
  -2  -1  12    5.60    4.00
  -2  -1  12    9.20    4.00
   1   1 -12   70.69    9.20
   1   1 -12   55.59    7.80
  -1  -1  12   50.49    6.70
  -1  -1  12   55.69    7.40
   0   1 -12    9.90    4.20
   0   1 -12    4.00    4.50
   0   1 -12    6.70    3.20
   0  -1  12    6.40    6.10
   0  -1  12    7.20    3.70
   0  -1  12   18.60    4.40
  -1   1 -12   57.59    7.80
  -1   1 -12   59.59    6.90
   1  -1  12   56.39    9.80
  -2   1 -12   89.19    9.20
  -2   1 -12  101.89   10.70
   2  -1  12   91.19   12.00
   3  -1  12    6.50    6.10
  -4   1 -12   -4.90    7.80
  -5   1 -12    0.30   10.20
   6   0 -12    7.10    7.10
  -6   0  12    4.00    6.00
  -6   0  12    8.40    9.00
   5   0 -12    6.90    7.40
  -5   0  12    6.70    6.50
  -5   0  12   14.70    9.40
   4   0 -12    0.60    5.90
   4   0 -12    1.40    5.90
  -4   0  12    4.70    5.70
  -4   0  12   10.40    7.60
   3   0 -12    8.30    5.10
   3   0 -12    6.10    4.90
  -3   0  12    7.30    4.50
  -3   0  12    9.40    5.10
   2   0 -12   51.99    7.30
   2   0 -12   41.00    6.90
  -2   0  12   36.30    5.80
  -2   0  12   42.00    6.60
   1   0 -12  127.29   10.00
   1   0 -12  138.69    9.80
  -1   0  12  131.59    7.10
  -1   0  12  134.79    8.90
  -1   0  12  142.89    9.30
   0   0 -12  515.05   18.30
   0   0 -12  544.35   18.30
   0   0  12  554.84   17.90
   0   0  12  540.65   17.30
   0   0  12  519.75   22.70
   0   0  12  519.25   17.50
  -1   0 -12  319.37   15.90
   1   0  12  304.27   14.60
   1   0  12  298.37   18.00
  -2   0 -12   59.29    8.80
   2   0  12   61.49    8.60
   2   0  12   64.89   10.80
   3   0  12    2.10    5.20
  -6   1  12  -12.80    7.40
  -6   1  12   -6.40    6.20
   5  -1 -12   86.39   12.70
  -5   1  12   76.69   10.80
  -5   1  12   66.89   12.60
   4  -1 -12  137.09   13.40
   4  -1 -12  121.49   12.70
  -4   1  12  118.09   11.70
  -4   1  12  114.79   12.00
   3  -1 -12   19.20    5.80
   3  -1 -12   16.60    5.80
  -3   1  12   11.90    4.90
   2  -1 -12    9.80    4.90
   2  -1 -12    8.50    4.70
  -2   1  12    9.60    4.40
   1  -1 -12   54.99    7.20
   1  -1 -12   53.59    7.70
  -1   1  12   54.29    6.00
  -1   1  12   52.99    6.60
   0  -1 -12   22.50    5.00
   0  -1 -12   18.60    4.70
   0   1  12   18.60    3.40
   0   1  12   15.40    6.90
   0   1  12   21.50    4.90
   0   1  12   21.30    4.70
   1   1  12   90.49    9.70
   1   1  12  110.29   12.60
   2   1  12  113.69   10.50
   2   1  12  101.29   12.20
   3   1  12   -0.60    3.10
   3   1  12    4.00   10.50
   6  -2 -12   -3.60    7.90
  -6   2  12   -9.50    8.80
  -6   2  12    2.80    6.80
   5  -2 -12    7.20    8.40
  -5   2  12   -5.70    5.50
  -5   2  12   -4.40    7.70
   4  -2 -12   -0.30    5.70
  -4   2  12    8.30    5.60
   3  -2 -12   -4.80    4.40
   3  -2 -12   -0.70    4.30
  -3   2  12   -0.90    3.40
   2  -2 -12    0.90    4.40
   2  -2 -12   -2.40    4.00
  -2   2  12   -3.40    3.60
  -2   2  12   -5.60    3.70
   1  -2 -12    0.50    4.30
   1  -2 -12    4.90    5.40
  -1   2  12   -1.80    2.00
  -1   2  12   11.50    4.00
  -1   2  12   -4.70    4.60
  -1   2  12    2.60    3.80
   0  -2 -12 1706.03   42.70
   0  -2 -12 1592.64   42.50
   0   2  12 1634.54   49.00
   0   2  12 1727.63   44.40
   0   2  12 1601.84   41.40
   0   2  12 1635.14   41.00
  -1  -2 -12   11.60    4.10
  -1  -2 -12   14.10    3.90
   1   2  12    9.90    3.50
   1   2  12   11.00    6.80
   2   2  12   13.60    6.40
   3   2  12    4.90    6.10
   3   2  12   -1.40    3.50
   4   2  12   -5.80    3.00
   6  -3 -12   25.20    9.70
  -6   3  12   33.10    9.30
  -6   3  12   15.90   12.20
   5  -3 -12   12.80    8.00
  -5   3  12    3.40    9.10
  -5   3  12    9.60    6.60
   4  -3 -12   31.20    8.50
  -4   3  12   25.00    6.80
   3  -3 -12    8.50   10.20
   3  -3 -12    2.30    5.20
  -3   3  12    2.30    4.70
   2  -3 -12   -1.30    4.10
   2  -3 -12   -0.70    4.60
  -2   3  12    1.50    4.00
   1  -3 -12   22.90    6.10
   1  -3 -12   27.50    5.80
  -1   3  12   33.40    5.40
  -1   3  12   31.00    6.00
  -1   3  12   33.90    7.90
   0  -3 -12   34.70    6.30
   0  -3 -12   24.10    5.10
   0   3  12   18.60    4.00
   0   3  12   23.40    8.30
  -1  -3 -12  100.69    8.30
  -1  -3 -12   95.39    8.10
  -1  -3 -12   98.19   10.20
   1   3  12   90.79   12.10
   1   3  12   99.89   10.50
   2   3  12    1.00    5.70
   2   3  12    3.20    3.40
   3   3  12   10.20    4.20
   3   3  12   21.20    8.20
   4   3  12    0.10    3.70
   5  -4 -12   21.40    8.50
  -5   4  12    0.50    8.30
  -5   4  12    5.00    6.90
   4  -4 -12    2.50    6.80
  -4   4  12    7.20    5.80
   3  -4 -12   11.20    6.30
   3  -4 -12    9.30    5.60
   2  -4 -12   22.00    6.70
   2  -4 -12   15.50    5.60
  -2   4  12   15.30    5.60
  -2   4  12   12.60    6.90
   1  -4 -12  200.58   12.70
   1  -4 -12  199.88   13.40
  -1   4  12  185.28   14.40
  -1   4  12  209.48   14.80
   0  -4 -12  212.18   12.50
   0  -4 -12  206.18   12.10
   0   4  12  218.18   13.90
   0   4  12  222.78   11.30
   0   4  12  173.08   15.60
   0   4  12  205.48   11.30
  -1  -4 -12    2.50    4.30
  -1  -4 -12   12.50    4.30
   1   4  12    8.70    6.10
   1   4  12    3.20    3.70
   2   4  12   17.70    7.60
   2   4  12   15.10    4.80
   3   4  12    5.30    3.90
   5  -5 -12    2.90    8.30
  -5   5  12    2.40    8.90
  -5   5  12    0.80    6.10
   4  -5 -12   11.60    7.80
  -4   5  12    2.30    5.80
   3  -5 -12   -1.40    6.00
  -3   5  12   -9.60    4.90
   2  -5 -12   -9.30    7.00
   2  -5 -12   17.60    6.50
  -2   5  12   10.00    5.50
  -2   5  12   24.90    7.60
   1  -5 -12    6.50    5.80
   1  -5 -12   22.80   10.40
  -1   5  12    9.10    6.40
  -1   5  12    4.30    4.80
   0  -5 -12   96.79   10.00
   0  -5 -12   95.49    9.70
   0   5  12   77.39   10.50
   0   5  12   60.69    8.00
   0   5  12   72.09   12.00
  -1  -5 -12   24.30    6.00
  -1  -5 -12   32.60    5.50
   1   5  12   11.30    4.60
   1   5  12   25.20    8.40
   1   5  12   22.10    4.90
   2   5  12   10.10    6.60
   2   5  12   -7.70    3.10
   3   5  12   -7.00    3.30
   3  -6 -12   -8.40    5.70
  -3   6  12   -4.70    6.00
  -3   6  12   -1.20    5.60
   2  -6 -12    4.40    5.70
   2  -6 -12    0.40    6.30
  -2   6  12    4.40    5.70
  -2   6  12   -3.40    5.00
   1  -6 -12   40.00    8.10
   1  -6 -12   25.30    7.10
  -1   6  12   48.30    9.90
  -1   6  12   37.10    7.30
   0  -6 -12   -0.90    4.90
   0  -6 -12    4.40    5.60
   0   6  12   13.90    6.60
   0   6  12   -8.50    4.90
   0   6  12   -0.30    3.30
  -1  -6 -12   10.10    5.40
  -1  -6 -12    3.90    5.20
   1   6  12   -4.40    4.60
   1   6  12   -2.20    3.30
   1   6  12    0.80    6.20
  -2  -6 -12    9.30    5.60
   2   6  12   -1.40    4.00
   3  -7 -12   16.50    7.90
  -3   7  12    6.30    6.30
  -3   7  12   -5.50    6.50
   2  -7 -12    0.70    6.50
  -2   7  12   17.60    6.80
  -2   7  12    2.50    5.90
   1  -7 -12    5.30    6.80
   1  -7 -12    4.60    7.70
  -1   7  12    4.40    6.40
  -1   7  12    2.30    5.60
   0  -7 -12   -0.20    5.80
   0  -7 -12   15.70    7.90
   0   7  12    7.80    4.80
   0   7  12   11.10    6.50
   0   7  12   28.00   10.10
   2   7 -13    0.60    7.30
  -2  -7  13   15.90    6.80
   1   7 -13    0.00    5.00
  -1  -7  13   -2.40    5.10
   0   7 -13    9.20    5.80
   0  -7  13   15.30    6.80
   0  -7  13   15.20    6.90
  -1   7 -13    1.50    4.60
  -1   7 -13    2.20    3.80
  -1   7 -13   18.60    8.40
   1  -7  13   10.60    5.00
   1  -7  13    5.80    4.80
   2  -7  13   10.20    5.70
  -3  -6  13    9.70    6.50
   2   6 -13   -9.50    4.40
  -2  -6  13    8.10    5.50
   1   6 -13   -6.40    4.40
   1   6 -13   19.00    6.70
  -1  -6  13    0.80    5.50
   0   6 -13   45.50    8.70
   0   6 -13   24.50    4.70
   0  -6  13   49.99    8.00
   0  -6  13   36.40    8.60
   0  -6  13   31.40   13.00
  -1   6 -13   -4.30    3.60
  -1   6 -13    4.20    7.10
  -1   6 -13    1.60    2.80
  -1   6 -13  -13.10    5.80
   1  -6  13   -6.90    4.60
   1  -6  13    4.40    4.80
  -2   6 -13    6.70    4.90
  -2   6 -13    5.80    3.60
  -2   6 -13    7.20    6.10
  -2   6 -13   24.50    8.10
   2  -6  13    9.50    6.20
   2  -6  13    7.00    4.90
   4   5 -13    4.80    5.50
  -4  -5  13    3.00    5.30
   3   5 -13   55.49    9.40
  -3  -5  13   61.49   15.30
   1   5 -13    1.50    3.00
   1   5 -13    7.10    6.80
   1   5 -13   31.90    7.40
  -1  -5  13   12.40    8.30
  -1  -5  13    8.80    5.20
   0   5 -13   99.19    9.90
   0   5 -13  122.19   11.00
   0   5 -13  143.09   12.70
   0  -5  13  111.99   10.20
   0  -5  13   87.09   14.30
   0  -5  13   98.39   11.40
  -1   5 -13   -0.20    2.40
  -1   5 -13    7.80    5.60
  -1   5 -13    2.00    4.10
  -1   5 -13    7.50    6.60
   1  -5  13   -6.50    4.70
   1  -5  13   -3.00    3.90
  -2   5 -13   16.80    7.30
  -2   5 -13   15.10    6.50
  -2   5 -13    6.40    4.90
  -2   5 -13   -4.40    4.80
   2  -5  13   -2.60   12.20
   2  -5  13    1.30    5.50
  -3   5 -13   23.20    6.80
  -3   5 -13   -6.20    7.30
   3  -5  13   14.60    7.30
   5   4 -13   -6.70    5.50
  -5  -4  13   -3.20    5.40
   4   4 -13   -3.00    5.80
  -4  -4  13   -4.00    4.90
   3   4 -13    0.30    8.10
  -3  -4  13   -1.00    4.40
   2   4 -13   -4.50    7.50
   2   4 -13    1.10    3.80
  -2  -4  13   -1.00    4.50
   1   4 -13   30.30    4.60
   1   4 -13   64.49   10.10
  -1  -4  13   47.40    8.00
  -1  -4  13   51.59    9.80
   0   4 -13   17.80    6.70
   0   4 -13   13.50    5.50
   0   4 -13   12.50    3.80
   0  -4  13   15.00    6.70
   0  -4  13   12.90    4.40
  -1   4 -13   -3.60    4.00
  -1   4 -13   -1.10    4.20
  -1   4 -13    0.80    4.20
  -1   4 -13    8.20    5.80
  -1   4 -13   -4.10    2.20
   1  -4  13   -0.30    3.80
   1  -4  13   -0.40    5.10
   1  -4  13    1.20    3.40
  -2   4 -13    4.10    4.60
  -2   4 -13    9.10    4.90
  -2   4 -13    0.80    5.10
  -2   4 -13   -1.10    3.20
   2  -4  13    4.20    5.60
   2  -4  13   11.30    8.60
  -3   4 -13   23.10    7.30
   3  -4  13   13.20    6.60
  -4   4 -13   17.20    8.30
   5   3 -13    7.40    7.20
  -5  -3  13    8.50    5.90
   3   3 -13    9.70    8.00
   3   3 -13    4.70    4.90
  -3  -3  13   -2.30    4.60
   2   3 -13    7.00    4.90
   2   3 -13    7.30    6.50
  -2  -3  13   19.70    6.30
  -2  -3  13    0.50    3.90
   1   3 -13  230.48   14.70
   1   3 -13  223.58   13.00
   1   3 -13  211.08   11.90
  -1  -3  13  185.18   12.10
  -1  -3  13  209.18   12.60
   0   3 -13  197.78   12.20
   0   3 -13  233.28   16.10
   0  -3  13  209.88   11.40
   0  -3  13  185.68   11.20
   0  -3  13  191.18   14.50
  -1   3 -13   45.50    6.70
   1  -3  13   46.50    9.20
   1  -3  13   26.90    4.90
   1  -3  13   43.10    6.10
  -2   3 -13    5.80    3.30
   2  -3  13    3.10    5.30
   3  -3  13    2.60    5.90
  -4   3 -13   18.90    8.80
   5   2 -13   -6.40    5.80
  -5  -2  13   -0.50    5.20
   4   2 -13    6.80    5.90
  -4  -2  13   -1.40    4.80
   3   2 -13   19.50    6.70
   3   2 -13    9.90    5.20
  -3  -2  13   19.60    5.90
   2   2 -13   31.30    6.40
   2   2 -13   61.49    9.00
  -2  -2  13   43.30    7.50
   1   2 -13   93.49   10.50
   1   2 -13   99.79    9.20
  -1  -2  13   85.59    9.50
  -1  -2  13   92.19    8.70
   0   2 -13   -0.60    2.90
   0   2 -13    4.00    4.10
   0   2 -13    5.10    4.60
   0  -2  13    0.90    3.20
   0  -2  13    2.10    3.90
   0  -2  13    2.00    5.70
  -1   2 -13   41.40    6.30
  -1   2 -13   33.00    6.60
  -1   2 -13   41.00    6.00
   1  -2  13   37.80    5.00
   1  -2  13   43.30    9.50
  -2   2 -13   27.80    4.90
   2  -2  13   52.99   10.40
   3  -2  13    9.60    6.80
  -4   2 -13    0.70    8.00
   4  -2  13   -0.50    6.20
  -6  -1  13   -5.20    6.10
  -6  -1  13   28.00    9.20
   5   1 -13   27.50    8.20
  -5  -1  13   22.30    7.10
   4   1 -13   29.60    8.10
  -4  -1  13   26.10    7.10
   3   1 -13   30.40    7.00
   3   1 -13   51.79    9.60
  -3  -1  13   25.00    6.30
  -3  -1  13   12.60    6.40
   2   1 -13    4.40    5.50
   2   1 -13    7.50    4.90
  -2  -1  13    8.00    4.60
   1   1 -13  120.79   10.40
   1   1 -13  116.39    9.80
  -1  -1  13  118.59    9.20
  -1  -1  13  116.89    9.20
   0   1 -13  254.77   13.90
   0   1 -13  256.67   12.90
   0   1 -13  268.97   13.30
   0  -1  13  251.07   15.70
   0  -1  13  250.77   11.90
   0  -1  13  248.98   12.00
  -1   1 -13  293.17   12.70
  -1   1 -13  294.37   15.80
   1  -1  13  289.27   17.40
  -2   1 -13    2.40    3.00
   2  -1  13   12.30    6.50
   3  -1  13    2.60    9.20
   4  -1  13   -1.80    6.20
   6   0 -13   12.90    7.70
  -6   0  13   13.30    7.70
  -6   0  13   24.10   10.30
   5   0 -13    0.00    6.50
  -5   0  13    6.80    7.70
  -5   0  13    6.90    6.30
   4   0 -13    3.60    6.10
  -4   0  13   -0.90    5.10
  -4   0  13    9.90    7.30
   3   0 -13   12.90    5.50
   3   0 -13   21.30    6.30
  -3   0  13   21.80    5.70
   2   0 -13    0.70    4.40
   2   0 -13    2.90    4.20
  -2   0  13   -2.40    3.70
   1   0 -13    0.80    6.40
   1   0 -13    3.50    4.00
  -1   0  13    0.90    3.60
  -1   0  13   -2.40    3.30
  -1   0  13    0.20    1.60
   0   0 -13  252.37   12.50
   0   0 -13  247.68   12.70
   0   0 -13  255.67   19.80
   0   0  13  266.07   11.60
   0   0  13  245.18   15.90
   0   0  13  225.68   11.30
   0   0  13  230.38   11.00
  -1   0 -13  101.59    9.70
   1   0  13   99.69    9.00
   1   0  13   90.29   11.70
   2   0  13    2.50    2.60
   2   0  13    4.20    5.70
   3   0  13    8.60    6.40
  -6   1  13  -14.20    9.20
  -6   1  13   -2.40    6.70
   5  -1 -13   24.70    7.80
  -5   1  13    7.30    6.90
  -5   1  13    7.90    8.10
   4  -1 -13   13.90    6.40
  -4   1  13    9.10    5.40
   3  -1 -13    6.40    4.80
   3  -1 -13    5.20    5.30
  -3   1  13    4.80    4.30
   2  -1 -13    6.00    4.90
   2  -1 -13    4.20    4.60
  -2   1  13    1.10    1.70
  -2   1  13    2.80    3.70
   1  -1 -13   18.80    5.20
   1  -1 -13   26.40    8.40
  -1   1  13   19.50    3.20
  -1   1  13   17.10    4.60
   0  -1 -13  216.08   12.40
   0  -1 -13  236.38   12.20
   0   1  13  226.38   11.20
   0   1  13  225.08   15.60
   0   1  13  256.37   12.40
   0   1  13  235.28   11.10
   1   1  13   95.69   12.40
   1   1  13   91.09    8.80
   2   1  13   -2.70    3.00
   2   1  13   -1.80    4.90
   3   1  13    3.90    6.40
   3   1  13   -0.60    3.90
   5  -2 -13    9.00    7.40
  -5   2  13   -3.10    7.80
  -5   2  13    4.60    6.60
   4  -2 -13   -2.40    9.80
  -4   2  13    3.10    5.10
   3  -2 -13   -0.50    8.30
   3  -2 -13    5.30    5.10
  -3   2  13    0.40    4.30
   2  -2 -13   20.20    5.90
   2  -2 -13   29.20    6.50
  -2   2  13   27.90    6.20
   1  -2 -13  186.88   12.00
   1  -2 -13  154.78   10.90
  -1   2  13  163.58   10.50
  -1   2  13  162.78   10.10
  -1   2  13  158.28   10.30
  -1   2  13  164.88   13.70
   0  -2 -13   70.89    8.80
   0  -2 -13   76.79    8.20
   0   2  13   69.59    8.60
   0   2  13   86.69   11.70
   0   2  13   56.69    7.40
   1   2  13   33.10    9.20
   1   2  13   22.80    4.20
   2   2  13    2.00    3.10
   2   2  13   -2.50    6.20
   3   2  13    5.30    4.10
   3   2  13   17.60    7.50
   4   2  13   -1.10    3.50
   5  -3 -13    8.80    7.60
  -5   3  13   -9.90    8.00
  -5   3  13    1.90    6.20
   4  -3 -13   10.10    7.00
  -4   3  13    8.50    5.80
   3  -3 -13    9.30    5.40
   3  -3 -13    4.30    5.60
  -3   3  13    1.50    4.60
   2  -3 -13    1.20    5.10
   2  -3 -13   23.20    5.80
  -2   3  13    0.20    4.40
   1  -3 -13   -6.90    5.00
   1  -3 -13   -8.80    4.30
  -1   3  13    1.50    2.60
  -1   3  13   -0.80    4.40
  -1   3  13   11.10    6.30
  -1   3  13   -0.20    4.50
   0  -3 -13    4.90    4.60
   0  -3 -13    0.50    4.70
   0   3  13   -4.20    2.90
   0   3  13    3.70    3.80
   0   3  13    5.90    6.70
   0   3  13    0.60    3.60
  -1  -3 -13   60.79    7.20
   1   3  13   70.69   11.40
   2   3  13    0.50    6.00
   2   3  13    2.90    4.70
   3   3  13   -6.50    3.60
   3   3  13    7.70    6.70
   5  -4 -13   -2.00    7.30
  -5   4  13   -2.80    6.60
  -5   4  13   -5.70    8.60
   4  -4 -13   -4.70    6.40
  -4   4  13   -4.40    8.90
   3  -4 -13    1.40    6.10
   3  -4 -13    8.90    6.30
  -3   4  13   -4.10    4.80
   2  -4 -13   20.70   10.20
   2  -4 -13   20.80    6.50
  -2   4  13    7.50    7.10
  -2   4  13   11.80    5.50
   1  -4 -13  398.36   18.80
   1  -4 -13  393.76   18.00
  -1   4  13  393.66   21.00
  -1   4  13  388.46   17.10
   0  -4 -13   17.40    4.60
   0  -4 -13   19.50    6.00
   0   4  13   16.10    7.30
   0   4  13   11.70    4.10
   0   4  13    9.60    4.60
  -1  -4 -13   -7.70    3.60
  -1  -4 -13   -1.80    4.00
   1   4  13   -2.00    4.20
   1   4  13   -2.80    6.60
   2   4  13    2.60    6.80
   2   4  13   -0.30    3.50
   3   4  13    0.00    5.70
   3   4  13   -2.70    3.60
   4  -5 -13    4.60    7.80
  -4   5  13    0.10    6.10
   3  -5 -13   -6.50    6.00
  -3   5  13   -9.60    4.80
   2  -5 -13   14.10    6.50
   2  -5 -13    7.80    6.40
  -2   5  13   -2.20    5.30
  -2   5  13    8.90    6.60
   1  -5 -13    1.80    5.60
   1  -5 -13   -2.30    5.40
  -1   5  13    4.40    6.10
  -1   5  13   -0.60    4.80
   0  -5 -13   18.80    5.60
   0  -5 -13    8.00    5.40
   0   5  13    5.40    6.30
   0   5  13    0.60    3.30
   0   5  13   -3.50    4.10
  -1  -5 -13    1.00    4.40
  -1  -5 -13   -0.50    4.30
   1   5  13    5.30    6.00
   1   5  13    4.40    3.90
   2   5  13   12.10    7.00
   2   5  13    0.90    4.10
   3  -6 -13    8.60    7.10
  -3   6  13  -11.00   10.40
  -3   6  13   -1.10    6.40
   2  -6 -13   88.19   12.80
  -2   6  13   66.89   11.90
  -2   6  13   41.10    8.60
   1  -6 -13   29.10    8.10
   1  -6 -13   35.90   10.00
  -1   6  13   29.60    7.10
  -1   6  13   35.30    8.90
   0  -6 -13   20.00    6.40
   0  -6 -13    2.80    5.90
   0   6  13    1.70    5.90
   0   6  13   -7.50    5.30
   0   6  13    1.70    3.50
  -1  -6 -13   20.60    6.40
  -1  -6 -13   -2.20    5.10
   1   6  13   -1.50    3.60
   1   6  13    4.40    6.60
   1  -7 -13    2.30    7.10
  -1   7  13    0.30    6.00
  -1   7  13   21.50   10.70
   1   7 -14   -7.40    5.40
  -1  -7  14   10.30    6.80
   0   7 -14   -5.80    5.40
   0  -7  14   10.00    6.40
   0  -7  14    6.20    6.90
  -1   7 -14    5.20    3.70
  -1   7 -14   31.60    8.90
   1  -7  14   15.00    6.70
   1  -7  14   12.60    5.70
   3   6 -14    1.40    5.60
  -3  -6  14   11.60    6.80
  -2  -6  14   -8.00    5.20
   1   6 -14   -0.10    4.50
  -1  -6  14   12.60    5.70
   0   6 -14   15.00    6.20
   0   6 -14    3.20    4.10
   0   6 -14   31.80   13.50
   0  -6  14    5.50    5.10
   0  -6  14    9.90    6.90
   1  -6  14    9.10    5.20
   1  -6  14    0.50    4.80
  -2   6 -14   14.00    4.50
  -2   6 -14   11.30    5.20
  -2   6 -14   -0.40    5.90
   2  -6  14   16.20    6.70
   2  -6  14   11.40    5.20
   4   5 -14    8.70    5.80
  -4  -5  14    5.10    6.10
   3   5 -14   22.20    7.40
  -3  -5  14   20.30    7.50
   1   5 -14    3.50    3.70
   1   5 -14   16.40    8.30
  -1  -5  14   13.90    5.60
  -1  -5  14    8.60    8.60
   0   5 -14    8.40    6.50
   0   5 -14    6.50    5.50
   0  -5  14   -6.20    5.20
   0  -5  14    4.20    4.20
  -1   5 -14   -5.30    4.90
  -1   5 -14   20.50    7.60
  -1   5 -14    8.50    6.50
  -1   5 -14   -1.40    2.70
   1  -5  14   -1.70    5.40
   1  -5  14    6.30    4.50
  -2   5 -14   -2.70    3.40
  -2   5 -14   -0.40    4.20
  -2   5 -14    2.60    5.50
   2  -5  14    3.20    6.20
   2  -5  14   -9.40   10.80
   4   4 -14    6.20    6.50
  -4  -4  14   -1.60    5.60
   3   4 -14    7.60    5.00
  -3  -4  14    3.70    4.70
   2   4 -14   10.10    8.70
   1   4 -14   84.49    9.20
   1   4 -14  119.29   13.60
  -1  -4  14   93.99   10.10
  -1  -4  14   79.99   12.20
   0   4 -14   17.10    7.30
   0   4 -14   -5.00    3.00
   0  -4  14    2.50    6.20
   0  -4  14    2.90    5.70
  -1   4 -14   -4.60    2.20
  -1   4 -14   -8.60    4.60
  -1   4 -14   -8.40    3.70
   1  -4  14   -3.20    5.30
   1  -4  14   -0.30    3.60
  -2   4 -14   23.10    7.30
  -2   4 -14   -0.70    4.90
   2  -4  14   10.00    6.30
   3  -4  14   -3.10    9.60
   5   3 -14    7.70    6.70
  -5  -3  14    1.40    6.10
   2   3 -14   10.60    5.00
   2   3 -14   30.70    8.50
  -2  -3  14   11.50    5.10
   1   3 -14   79.79    9.40
   1   3 -14   95.69   12.20
  -1  -3  14   83.49    8.90
   0   3 -14   13.00    7.30
   0   3 -14   22.60    5.70
   0   3 -14    8.50    4.10
   0  -3  14   17.40    6.70
   0  -3  14   22.20    5.30
   0  -3  14    3.50    4.50
  -1   3 -14    3.20    3.20
  -1   3 -14    3.20    4.40
  -1   3 -14    4.70    2.60
  -1   3 -14    1.10    3.50
   1  -3  14   -5.10    5.00
   1  -3  14   -2.70    3.30
   1  -3  14   -4.70    3.50
  -2   3 -14    9.00    5.80
   2  -3  14   23.50    8.20
   3  -3  14    7.50    7.60
   4  -3  14   25.80    9.20
   5   2 -14    7.60    6.50
  -5  -2  14   -2.50    5.20
   3   2 -14   11.90    7.50
   3   2 -14   -4.70    4.40
  -3  -2  14    2.40    4.60
   2   2 -14   64.29   11.00
   2   2 -14   39.40    7.70
  -2  -2  14   50.19    7.80
   1   2 -14    5.50    3.20
   1   2 -14    9.20    6.60
   1   2 -14   10.60    4.70
  -1  -2  14    6.20    4.40
   0   2 -14    3.00    3.50
   0   2 -14   -6.80    5.00
   0   2 -14    2.00    3.50
   0  -2  14   -0.90    3.40
   0  -2  14    6.60    3.60
   0  -2  14    1.20    5.60
  -1   2 -14   16.90    3.40
  -1   2 -14   16.10    4.70
  -1   2 -14   26.60    5.60
  -1   2 -14    5.00    4.40
   1  -2  14   16.10    7.40
  -2   2 -14   -8.20    6.40
   2  -2  14   -5.10    5.00
   3  -2  14   10.80    7.10
   4  -2  14   45.20   11.00
   5   1 -14   18.00    7.40
  -5  -1  14    9.00    6.70
   4   1 -14   -1.10    5.80
  -4  -1  14    2.30    5.10
   3   1 -14   -2.80    6.20
   3   1 -14    7.80    5.70
  -3  -1  14    0.40    4.70
   2   1 -14  228.48   15.40
   2   1 -14  207.98   14.00
  -2  -1  14  237.98   13.40
   1   1 -14   65.59   10.20
   1   1 -14   84.59    9.20
  -1  -1  14   82.69    8.70
  -1  -1  14   83.49    8.30
   0   1 -14    1.10    3.70
   0   1 -14    8.60    4.90
   0   1 -14   -1.50    2.90
   0  -1  14   -0.50    3.60
   0  -1  14    1.50    3.30
   0  -1  14   -0.70    5.20
   1  -1  14    4.30    5.00
  -2   1 -14    6.50    3.70
   2  -1  14   16.20    7.70
   3  -1  14   10.60    7.50
   4  -1  14    5.70    8.10
   5   0 -14   -4.40    6.20
  -5   0  14    1.10    7.30
  -5   0  14   -4.70    5.10
   4   0 -14    6.20    6.10
  -4   0  14    6.90    5.60
   3   0 -14    3.30    5.40
   3   0 -14   15.60    7.40
  -3   0  14    6.70    5.30
   2   0 -14  129.99   11.30
   2   0 -14  101.49   11.80
  -2   0  14  108.89    9.80
   1   0 -14    0.70    4.00
   1   0 -14   -0.40    5.10
  -1   0  14   -2.40    3.50
  -1   0  14   -1.80    1.70
  -1   0  14    0.00    3.70
   0   0 -14    7.90    3.50
   0   0 -14   11.20    4.90
   0   0 -14   10.60    5.10
   0   0  14    7.60    4.20
   0   0  14   15.70    7.30
   0   0  14    9.30    3.00
   0   0  14   13.10    4.20
   1   0  14   30.90    8.30
   1   0  14   17.90    3.70
   2   0  14   26.20   10.40
   2   0  14   10.20    3.60
   3   0  14   10.30    6.50
   4   0  14   35.60   10.70
   5  -1 -14   13.30    7.40
  -5   1  14   -4.90    7.80
  -5   1  14   11.90    6.40
   4  -1 -14    4.30    5.80
  -4   1  14   -3.30    4.50
   3  -1 -14   46.20    9.20
   3  -1 -14   25.20    6.90
  -3   1  14   30.70    6.70
   2  -1 -14  122.79   12.00
   2  -1 -14  134.09   11.50
  -2   1  14  133.79    7.90
  -2   1  14  135.09   10.50
   1  -1 -14  103.09    9.70
   1  -1 -14  106.89   10.30
  -1   1  14   94.59    8.80
  -1   1  14   97.59    8.90
  -1   1  14  104.39    7.80
   0  -1 -14   94.79    8.50
   0  -1 -14  108.69    8.90
   0   1  14   97.09    8.70
   0   1  14  108.59    7.90
   0   1  14   96.39   11.90
   0   1  14   96.99    8.60
   1   1  14   63.69   11.80
   1   1  14   58.99    8.60
   2   1  14   -3.70    4.40
   2   1  14   -0.20    3.20
   3   1  14   15.90    8.00
   3   1  14    5.60    3.50
   5  -2 -14   -8.10    6.00
  -5   2  14   -4.10    5.30
  -5   2  14  -10.90    7.80
   4  -2 -14    4.30    6.10
  -4   2  14    2.20    5.60
   3  -2 -14   -1.80    8.00
   3  -2 -14   24.70    6.70
  -3   2  14    8.00    4.80
   2  -2 -14    5.10    5.20
   2  -2 -14   -2.20    4.70
  -2   2  14    6.80    4.80
  -2   2  14   -0.30    2.00
   1  -2 -14   64.89    9.80
   1  -2 -14   65.99    9.60
  -1   2  14   69.49    7.90
  -1   2  14   71.09   11.00
  -1   2  14   62.09    8.60
   0  -2 -14   55.49    8.00
   0  -2 -14   29.80    6.00
   0   2  14   34.70    8.90
   0   2  14   38.80    6.00
   1   2  14    1.60    5.20
   1   2  14    4.50    3.10
   2   2  14    4.90    5.50
   2   2  14   -1.60    2.80
   3   2  14    6.70    7.30
   3   2  14   -1.10    3.20
   5  -3 -14   12.50    8.00
  -5   3  14    4.80    6.90
   4  -3 -14   -3.40    6.00
  -4   3  14    1.60    5.80
   3  -3 -14    8.10    6.10
   3  -3 -14   10.50    6.40
  -3   3  14    4.20    4.90
   2  -3 -14   35.40   10.00
   2  -3 -14   38.60    7.30
  -2   3  14   28.10    6.70
   1  -3 -14  137.09   11.90
   1  -3 -14  111.29   11.80
  -1   3  14  109.79   10.50
  -1   3  14  118.19   10.00
  -1   3  14  120.09   12.70
   0  -3 -14   11.40    5.20
   0  -3 -14   12.20    5.60
   0   3  14    3.80    3.40
   0   3  14   18.20    7.40
   0   3  14   15.10    4.90
   0   3  14    9.00    5.60
   1   3  14    1.30    3.10
   1   3  14    5.90    6.00
   2   3  14    2.10    3.40
   2   3  14    7.60    7.00
   3   3  14    2.60    7.00
   3   3  14    0.70    4.30
   4  -4 -14   -5.50    6.70
  -4   4  14   -1.50    5.90
   3  -4 -14   -0.20    5.90
  -3   4  14   -3.60    5.20
   2  -4 -14   32.40    8.20
   2  -4 -14   24.70    7.00
  -2   4  14   26.30    8.50
  -2   4  14   29.80    7.30
   1  -4 -14    4.20    6.40
   1  -4 -14    7.20    5.70
  -1   4  14    7.50    7.20
  -1   4  14    5.70    3.30
  -1   4  14   13.20    5.80
   0  -4 -14   14.80    8.70
   0   4  14   12.00   11.60
   0   4  14    4.00    3.60
   0   4  14    6.00    4.50
  -1  -4 -14    1.40    4.30
  -1  -4 -14    0.70    4.40
   1   4  14    6.00    6.60
   1   4  14    1.20    3.10
   2   4  14    3.30    3.80
   2   4  14   -0.20    5.60
   4  -5 -14   -1.10    8.10
  -4   5  14   -9.30    5.90
   3  -5 -14   -1.60    6.40
  -3   5  14   -2.80    6.20
  -3   5  14   -7.60    6.50
   2  -5 -14    0.50    6.50
   2  -5 -14   11.70    7.20
  -2   5  14    3.70    7.60
  -2   5  14   -3.30    5.70
   1  -5 -14   17.90    6.70
   1  -5 -14   21.90    6.50
  -1   5  14   18.40   12.90
  -1   5  14    7.90    4.40
  -1   5  14   12.40    5.70
   0  -5 -14    2.10    5.20
   0  -5 -14   12.70    5.70
   0   5  14   -0.60    3.70
   0   5  14    3.00    4.60
   0   5  14    9.80    6.30
  -1  -5 -14   -4.90    5.00
  -1  -5 -14   -5.40    4.90
   1   5  14   -0.80    3.80
   1   5  14    6.80    6.50
   2   5  14   14.30    7.10
   3  -6 -14   -4.00    7.20
  -3   6  14  -12.30    5.50
  -3   6  14    6.30    7.20
   2  -6 -14   37.80    9.10
  -2   6  14   41.00    9.30
  -2   6  14   37.20    8.10
   1  -6 -14   -5.80    7.00
   1  -6 -14   10.70    7.10
  -1   6  14   -0.90    3.80
  -1   6  14    8.60    6.90
  -1   6  14   -5.50    5.10
   0  -6 -14   21.60    7.10
   0  -6 -14    0.20    5.50
   0   6  14   -2.70    4.10
   0   6  14    3.40    6.40
   0   6  14  -12.40    6.30
  -2  -6  15    4.40    7.00
  -1  -6  15    0.90    5.30
   0   6 -15    1.50    5.60
   0   6 -15   -7.50    5.30
   0  -6  15   -5.20    4.90
   0  -6  15   -4.60    6.50
  -1   6 -15   12.50    7.70
   1  -6  15   -2.70    5.70
   1  -6  15    9.90    6.20
   2  -6  15   19.00    7.10
   3   5 -15    6.10    6.50
  -3  -5  15   -3.40    5.70
   1   5 -15   23.10    7.50
  -1  -5  15    7.50    5.20
  -1  -5  15   -5.50   10.40
   0   5 -15   -1.80    4.10
   0  -5  15    3.30    6.40
   0  -5  15  -13.50    9.90
   0  -5  15   17.00    5.60
  -1   5 -15   -3.00    4.70
  -1   5 -15    0.00    3.30
   1  -5  15   10.50    5.40
   1  -5  15    9.50    6.10
  -2   5 -15   -0.40    5.40
   2  -5  15    7.10    6.90
   2  -5  15    2.60   11.50
   4   4 -15    0.70    6.20
  -4  -4  15    6.20    6.70
   3   4 -15    8.00    6.00
  -3  -4  15   -1.40    5.10
   2   4 -15   23.80    9.00
   1   4 -15    2.20    4.60
   1   4 -15   -2.70    3.60
  -1  -4  15    8.00    5.60
   0   4 -15   -5.10    3.60
   0   4 -15   11.70    7.90
   0   4 -15    6.70    3.90
   0  -4  15    0.30    6.40
   0  -4  15    1.90    5.60
  -1   4 -15    5.90    6.20
  -1   4 -15    3.00    2.90
   1  -4  15   14.40    4.60
   1  -4  15    7.80    6.40
  -2   4 -15   -0.80    5.40
  -2   4 -15   -4.80    3.50
   2  -4  15    4.40    6.50
   3  -4  15    2.10    7.00
   2   3 -15    2.70    4.60
   2   3 -15   38.00   10.80
   1   3 -15   19.30    8.70
   1   3 -15    6.10    6.50
   1   3 -15    7.80    5.00
  -1  -3  15    8.90    5.10
   0   3 -15   -0.10    3.70
   0   3 -15    1.20    6.50
   0   3 -15   -6.80    3.40
   0  -3  15    0.90    4.00
   0  -3  15    1.00    5.90
  -1   3 -15    4.90    2.80
  -1   3 -15    9.30    4.60
  -1   3 -15    2.50    5.30
   1  -3  15    5.30    3.50
   1  -3  15    3.60    5.40
   2  -3  15   11.00   13.50
   3  -3  15    9.50    7.60
   5   2 -15   -5.60    6.10
  -5  -2  15   -3.10    5.70
   3   2 -15   22.70   10.60
   3   2 -15    9.10    6.30
  -3  -2  15   -0.80    4.60
   2   2 -15   62.99    9.50
   2   2 -15   92.39   13.30
  -2  -2  15   60.69    9.40
   1   2 -15   29.00    7.80
   1   2 -15    5.20    4.40
  -1  -2  15   17.50    5.90
   0   2 -15   -1.50    4.10
   0   2 -15    1.00    6.30
   0   2 -15    2.30    4.30
   0  -2  15    6.30    4.90
   0  -2  15    0.30    5.50
   0  -2  15   -0.60    3.30
  -1   2 -15   17.40    4.90
  -1   2 -15   18.70    5.30
   1  -2  15   19.80    7.70
  -2   2 -15    0.30    3.50
   2  -2  15   -3.60    5.50
   3  -2  15   41.80   10.40
   5   1 -15   17.10    6.90
  -5  -1  15   20.00    7.20
   4   1 -15   14.00    6.80
  -4  -1  15   16.30    6.80
   3   1 -15   18.30    7.10
  -3  -1  15    7.90    5.30
   2   1 -15    3.80    7.30
   2   1 -15    6.40    5.20
  -2  -1  15    3.90    5.10
   1   1 -15   50.29    9.00
   1   1 -15   37.30    7.00
  -1  -1  15   43.50    7.00
   0   1 -15    5.70    5.20
   0   1 -15   -3.00    3.60
   0  -1  15    0.10    5.40
   0  -1  15   -0.30    3.40
   1  -1  15   18.00    7.70
   2  -1  15   14.90    7.40
   3  -1  15   33.00    9.20
   5   0 -15    6.80    6.90
  -5   0  15   -6.90    7.10
  -5   0  15   -2.70    5.00
   4   0 -15    5.80    6.80
  -4   0  15   -6.40    4.40
   3   0 -15   21.10    7.40
   3   0 -15   17.10    6.10
  -3   0  15   22.20    6.60
   2   0 -15    2.10    6.20
   2   0 -15    4.50    5.30
  -2   0  15    3.40    4.40
   1   0 -15    7.10    5.40
   1   0 -15   -1.30    4.70
  -1   0  15    3.50    2.20
  -1   0  15   -0.30    3.80
   0   0 -15   38.70    6.40
   0   0 -15   32.90    6.20
   0   0  15   23.70    3.80
   0   0  15   29.50    8.20
   0   0  15   25.60    4.90
   0   0  15   31.60    5.60
   1   0  15    1.10    2.90
   1   0  15   -4.50    6.00
   2   0  15    0.70    6.10
   3   0  15   73.19   13.40
   5  -1 -15   -0.40    6.70
  -5   1  15   -0.90    6.00
   4  -1 -15   -1.80    5.80
  -4   1  15    2.80    5.00
   3  -1 -15   69.89   10.70
  -3   1  15   52.79    8.80
   2  -1 -15   22.70    6.50
   2  -1 -15    6.70    5.50
  -2   1  15    5.30    4.50
   1  -1 -15    6.60    4.50
   1  -1 -15   12.00    5.30
  -1   1  15    7.70    6.00
  -1   1  15    5.70    2.50
  -1   1  15    2.00    4.10
   0  -1 -15   -2.00    4.30
   0  -1 -15    5.10    4.40
   0   1  15   -6.00    3.40
   0   1  15    1.90    2.70
   0   1  15    5.20    4.20
   0   1  15    4.90    6.00
   1   1  15    3.00    5.40
   1   1  15    7.00    3.50
   2   1  15   -5.70    6.00
   3   1  15   -0.90    3.40
   3   1  15   -4.00    5.60
   5  -2 -15   10.70    8.00
  -5   2  15   -7.30    6.10
   4  -2 -15    3.10    6.50
  -4   2  15    6.80    6.00
   3  -2 -15   47.60    9.60
  -3   2  15   28.70    6.90
   2  -2 -15   -1.20    8.60
   2  -2 -15   13.50    6.00
  -2   2  15   -5.70    4.20
  -2   2  15    0.50    2.30
   1  -2 -15    2.20    5.40
   1  -2 -15   -3.20    5.00
  -1   2  15    1.20    2.60
  -1   2  15   -2.60    4.10
  -1   2  15    3.10    5.80
   0  -2 -15   13.70    5.10
   0  -2 -15    6.50    4.90
   0   2  15    1.00    2.80
   0   2  15   -5.80    4.50
   0   2  15    8.50    4.40
   0   2  15   -4.40    8.80
   1   2  15    7.40    7.60
   1   2  15    3.50    3.40
   2   2  15    1.80    3.70
   2   2  15   13.50    7.10
   3   2  15   33.80    9.70
   3   2  15   17.10    4.60
   4  -3 -15    4.60    6.80
  -4   3  15    9.90    6.50
   3  -3 -15   24.40    7.60
  -3   3  15   26.50    7.00
   2  -3 -15   14.70    7.20
   2  -3 -15   10.50    5.70
  -2   3  15    2.50    2.60
  -2   3  15   14.40   11.70
  -2   3  15    8.30    5.60
   1  -3 -15   13.10    6.00
   1  -3 -15   28.50    6.20
  -1   3  15    6.80    8.80
  -1   3  15   10.40    3.60
   0  -3 -15   29.30    6.70
   0  -3 -15   35.50    5.80
   0   3  15   34.30    8.90
   0   3  15   17.70    4.50
   0   3  15   30.80    5.60
   1   3  15    1.60    5.60
   1   3  15   -6.30    4.20
   2   3  15   20.00    7.50
   2   3  15   11.20    4.20
   4  -4 -15    2.70    7.20
  -4   4  15   -7.90    6.10
   3  -4 -15    2.90    6.70
  -3   4  15   -5.80    4.90
   2  -4 -15   20.50    7.70
  -2   4  15   16.20    7.80
   1  -4 -15   -2.90    5.50
   1  -4 -15   29.30    7.00
  -1   4  15    2.80    3.00
  -1   4  15    8.70    7.40
  -1   4  15   -4.50    4.80
   0  -4 -15   -5.70    4.70
   0  -4 -15    5.00    5.30
   0   4  15    1.60    5.60
   0   4  15    1.30    3.20
   1   4  15    3.90    6.20
   1   4  15   -2.90    3.60
   2   4  15   -2.70    4.10
   2   4  15    9.00    6.90
   3  -5 -15   11.00    8.00
  -3   5  15    5.70    7.50
  -3   5  15    1.20    6.90
   2  -5 -15    7.90    7.40
   2  -5 -15   15.80    8.00
  -2   5  15   15.80    7.80
  -2   5  15    5.60    6.90
   1  -5 -15   -3.80    5.40
   1  -5 -15   24.90    7.70
  -1   5  15   -0.80    3.60
  -1   5  15   -2.40    5.50
  -1   5  15    6.10    7.10
   0  -5 -15   23.10    6.80
   0  -5 -15    1.90    5.50
   0   5  15   -3.50    3.60
   0   5  15    2.30    6.30
  -1  -5 -15   15.00    5.90
  -1  -5 -15   -6.00    4.30
   1   5  15   -0.90    5.90
   1   5  15   -1.90    4.40
  -1  -6  16   24.30    7.70
   0  -6  16    6.10    6.20
   0  -6  16  -10.50    6.90
   3   5 -16   96.99   12.70
  -3  -5  16   88.09   12.40
   2   5 -16   11.70    6.20
  -2  -5  16    5.80    9.50
  -2  -5  16    9.50    5.90
   1   5 -16    5.70    4.90
   1   5 -16    1.70    5.20
  -1  -5  16    3.30    5.80
   0  -5  16    9.00    5.50
   1  -5  16    6.10    5.50
   1  -5  16   -1.40    6.90
  -2   5 -16   23.90    7.10
   2  -5  16    2.90    7.10
   2   4 -16    8.30    5.40
   2   4 -16   15.60    5.70
  -2  -4  16   11.60    6.30
   0   4 -16    4.20    4.60
   0  -4  16    1.30    4.60
   0  -4  16   -7.20   10.60
  -1   4 -16   28.40    6.00
   1  -4  16   33.30    8.80
   1  -4  16   26.50    6.00
  -2   4 -16   23.50    5.30
  -2   4 -16   42.00    7.40
   2  -4  16   25.30    8.50
   4   3 -16   14.60    6.60
  -4  -3  16   11.40    7.10
   3   3 -16   24.80    7.30
  -3  -3  16   20.40    7.00
   2   3 -16    0.80    4.80
   2   3 -16    2.80    3.30
  -2  -3  16    6.40    5.20
   1   3 -16   -2.30    4.20
   1   3 -16   34.30    9.70
   1   3 -16   -4.60    3.50
  -1  -3  16   -1.50    4.50
   0   3 -16   15.90    8.50
   0   3 -16    7.80    4.80
   0  -3  16    3.20    4.50
   0  -3  16   11.00   11.90
  -1   3 -16    1.80    5.80
  -1   3 -16    4.20    5.40
   1  -3  16    1.70    5.40
   1  -3  16    8.10    3.60
  -2   3 -16    7.90    3.90
   2  -3  16    6.50    6.40
   3  -3  16    8.90    7.10
   4   2 -16    4.50    6.40
  -4  -2  16   -7.00    5.70
   3   2 -16   25.50    7.80
  -3  -2  16   16.90    6.30
   2   2 -16   -3.20    4.50
   2   2 -16   34.60   12.30
  -2  -2  16   -1.90    4.50
   1   2 -16    0.50    5.50
   1   2 -16   17.30    7.60
  -1  -2  16   -1.40    4.00
   0   2 -16   10.30    5.00
   0  -2  16    6.90    4.20
  -1   2 -16   -1.00    4.20
  -1   2 -16   -1.30    5.00
   1  -2  16   10.80    6.40
   2  -2  16    7.60    6.90
   3  -2  16   24.00    7.90
   4   1 -16    6.50    6.70
  -4  -1  16   16.70    7.20
   3   1 -16    2.90    5.00
  -3  -1  16   -2.70    4.40
   2   1 -16    6.30    5.50
   2   1 -16   23.30    7.70
  -2  -1  16   10.10    5.20
   1   1 -16   17.50    7.00
   1   1 -16    2.40    5.50
   0   1 -16   19.60    5.60
   0   1 -16   23.70    6.90
   0  -1  16   16.40    9.10
   0  -1  16   10.40    4.20
   1  -1  16    1.10    5.40
   2  -1  16    1.00    5.60
   3  -1  16   19.90    9.00
   4   0 -16    3.70    6.70
  -4   0  16    1.10    6.00
   3   0 -16   17.70    7.20
   3   0 -16   32.40    8.80
  -3   0  16    1.70    5.10
   2   0 -16    7.50    5.60
   2   0 -16    7.70    7.30
  -2   0  16    4.60    5.00
   1   0 -16    3.80    5.00
   1   0 -16   13.90    6.00
  -1   0  16   -0.10    6.10
  -1   0  16   -4.10    4.00
   0   0 -16    8.30    4.60
   0   0 -16   19.90    6.40
   0   0  16    6.30    2.60
   0   0  16    7.60    3.90
   0   0  16   21.10    7.50
   1   0  16   11.20    6.50
   1   0  16    5.30    3.00
   2   0  16   25.40    8.70
   3   0  16   18.00    8.60
   4  -1 -16    9.30    7.40
  -4   1  16   -0.50    6.80
   3  -1 -16   -2.60    5.20
   3  -1 -16   23.80    7.50
  -3   1  16    0.30    5.00
   2  -1 -16   15.00    6.90
   2  -1 -16   10.70    5.60
  -2   1  16    9.90    5.20
   1  -1 -16   10.20    5.50
   1  -1 -16   11.30    8.20
  -1   1  16    6.10    6.30
   0  -1 -16    0.70    4.20
   0  -1 -16   10.20    4.90
   0   1  16   -2.20    2.60
   0   1  16   -5.40    3.40
   0   1  16   -6.70    4.70
   1   1  16   24.00    8.70
   1   1  16    4.90    3.50
   2   1  16   36.80    9.80
   3   1  16   -0.70    4.10
   3   1  16   10.20    8.40
   4  -2 -16   -2.60    7.00
  -4   2  16   -0.90    5.30
   3  -2 -16    5.00    6.20
  -3   2  16    5.70    5.80
  -3   2  16    1.40    2.30
   2  -2 -16    1.70    6.10
   2  -2 -16   13.60    6.00
  -2   2  16   -4.60    2.10
  -2   2  16   -3.00    4.40
   1  -2 -16    4.30    5.60
   1  -2 -16   12.60    6.70
  -1   2  16    0.30    2.90
  -1   2  16    8.30    5.30
  -1   2  16   -0.30    5.90
   0  -2 -16   15.60    4.80
   0  -2 -16   -0.70    4.90
   0   2  16   -1.00    2.90
   0   2  16   -3.20    3.80
   0   2  16    0.20    6.20
   1   2  16    0.70    3.00
   1   2  16   -8.30    5.10
   2   2  16   26.00    5.80
   2   2  16   47.40   10.40
   4  -3 -16   -0.60    6.70
  -4   3  16    7.80    7.20
   3  -3 -16   -0.80    6.80
  -3   3  16  -11.90    5.20
   2  -3 -16   15.70   11.60
   2  -3 -16   -1.70    5.70
  -2   3  16    1.50    5.90
  -2   3  16   -0.70    2.50
  -2   3  16    4.10    5.20
   1  -3 -16   -5.90    5.40
   1  -3 -16   -2.00    4.90
  -1   3  16   -7.50    4.90
  -1   3  16    1.80    5.80
  -1   3  16   -0.70    3.00
   0  -3 -16   15.10    5.40
   0  -3 -16    1.40    5.30
   0   3  16   -6.50    4.20
   0   3  16   -3.70    5.60
   0   3  16   -1.70    2.70
   1   3  16    1.10    5.20
   1   3  16    1.30    3.60
   2   3  16   -1.10    4.00
   2   3  16    4.60    7.00
   3  -4 -16   -9.60    6.60
  -3   4  16   -1.50    6.80
   2  -4 -16   12.50    7.00
   2  -4 -16   -4.30    6.20
  -2   4  16   -4.50    3.00
  -2   4  16   -4.20    5.90
  -2   4  16   -8.00    5.30
   1  -4 -16   -7.20    5.30
   1  -4 -16   19.50    6.70
  -1   4  16   -0.50    3.50
  -1   4  16   -5.50    5.40
   0  -4 -16   14.80    5.50
   0  -4 -16    2.70    5.00
   0   4  16    9.00    6.90
   0   4  16   -6.40    4.90
   0   4  16   -7.30    3.20
   1   4  16    7.90    4.60
   1   4  16   21.30    7.90
   2  -5 -16    1.50    7.00
  -2   5  16    7.30    7.20
   1  -5 -16   19.60    7.90
   1  -5 -16   -9.70    5.70
  -1   5  16   -6.40    3.30
  -1   5  16    3.00    7.50
  -1   5  16    3.00    6.10
   1   5 -17    3.40    5.20
  -1  -5  17   11.60    5.80
   0   5 -17    8.50    4.80
   0  -5  17   13.60    5.70
   0  -5  17    2.00    7.20
   3   4 -17   16.80    6.90
   3   4 -17    3.20    6.20
  -3  -4  17   15.80    6.60
   2   4 -17   39.90    8.20
  -2  -4  17   33.90    7.90
   1   4 -17   10.10    5.40
   0   4 -17    8.80    7.00
   0   4 -17    2.50    4.60
   0  -4  17   -2.50    4.90
   0  -4  17   -2.00    6.50
  -1   4 -17    1.50    4.90
  -1   4 -17   21.90    7.70
   1  -4  17   15.00    7.40
   1  -4  17    6.60    4.80
   3   3 -17   18.60    7.90
  -3  -3  17   16.20    8.20
   2   3 -17   13.40    5.70
  -2  -3  17   10.30    5.40
   1   3 -17   13.30    5.90
  -1  -3  17   -2.10    4.30
   0   3 -17    1.40    4.90
   0  -3  17    1.30    4.90
   0  -3  17    4.10    6.10
  -1   3 -17   -0.20    4.60
   1  -3  17   -0.20    6.00
   2  -3  17   17.60    8.30
   4   2 -17   39.90    9.40
  -4  -2  17   16.70    7.40
   3   2 -17    1.70    5.60
  -3  -2  17    4.80    6.00
   2   2 -17   46.20    8.50
  -2  -2  17   30.80    7.30
   1   2 -17   -3.20    4.70
  -1  -2  17   -1.60    4.70
   0   2 -17   17.70    5.80
   0  -2  17   21.50    7.90
   0  -2  17   16.50    5.00
  -1   2 -17   50.99   11.60
   1  -2  17   70.89   12.20
   2  -2  17   -6.40    5.40
   4   1 -17   26.70    8.00
  -4  -1  17   12.80    6.70
   3   1 -17    9.30    6.30
  -3  -1  17    8.00    5.60
   2   1 -17    0.50    5.10
  -2  -1  17   -2.10    4.40
   1   1 -17    3.60    5.20
  -1  -1  17   -3.30    5.40
  -1  -1  17    2.20    4.20
   0   1 -17    7.80    6.20
   0   1 -17    1.30    5.50
   0  -1  17    2.00    3.80
   0  -1  17   -5.60    4.30
   1  -1  17    3.20    6.40
   2  -1  17    7.30    7.50
   4   0 -17   18.90    7.40
  -4   0  17   22.20    7.10
   3   0 -17   10.10    6.50
  -3   0  17    0.40    5.10
   2   0 -17   29.90    8.30
   2   0 -17   -0.20    5.70
  -2   0  17    0.40    4.90
   1   0 -17   15.70    6.80
   1   0 -17    1.50    4.80
  -1   0  17    2.60    8.20
  -1   0  17    3.00    6.50
   0   0 -17   19.70    5.80
   0   0 -17    1.40    7.80
   0   0  17   -3.30    4.00
   0   0  17    2.70    5.90
   0   0  17    2.30    2.60
   1   0  17   14.20    7.60
   1   0  17    3.30    3.50
   2   0  17    1.30    7.80
   4  -1 -17   -3.70    6.30
  -4   1  17    2.00    6.20
   3  -1 -17   -8.70    4.80
  -3   1  17   -2.40    5.00
   2  -1 -17    7.30    5.40
  -2   1  17    1.90    4.80
   1  -1 -17    5.80    5.30
  -1   1  17    4.90    2.80
  -1   1  17   11.60    7.00
  -1   1  17    5.20    5.40
   0  -1 -17    6.30    5.40
   0   1  17    0.30    2.60
   0   1  17    2.80    6.20
   1   1  17   -0.30    5.80
   1   1  17   -5.10    2.90
   2   1  17   16.40    4.70
   2   1  17   32.30    9.90
   4  -2 -17   -3.10    6.80
  -4   2  17   -4.60    6.00
   3  -2 -17   -3.90    6.50
  -3   2  17   -8.70    5.40
   2  -2 -17    2.50    5.80
  -2   2  17   -3.00    6.50
  -2   2  17   -3.20    2.30
   1  -2 -17    3.00    5.60
  -1   2  17   -2.30    8.30
  -1   2  17    0.10    2.90
  -1   2  17   11.10    6.90
   0   2  17    5.20    6.20
   1   2  17   21.60    8.90
   3  -3 -17   -8.90    6.10
  -3   3  17  -11.40    5.60
  -3   3  17   -5.40    2.60
   2  -3 -17    2.80    6.80
  -2   3  17   -9.00    4.90
  -2   3  17   -5.90    2.90
  -2   3  17   -3.20    5.80
   1  -3 -17   -6.90    5.00
  -1   3  17   -3.50    3.00
  -1   3  17   -9.70    5.30
  -1   3  17   -1.00    6.40
   0  -3 -17    5.50    5.50
   0   3  17    6.80    6.50
   1   3  17   18.00    7.50
   1   3  17   10.60    4.40
   2  -4 -17   -5.70    6.90
  -2   4  17    5.60    3.90
  -2   4  17   -0.60    6.10
   1  -4 -17   -2.90    6.30
  -1   4  17   -0.40    6.30
  -1   4  17   -5.30    3.30
  -1   4  17  -11.40    4.90
   0   4  17    5.60    7.90
   1   4 -18    6.60    5.40
  -1  -4  18   -9.90    7.40
  -1  -4  18   -3.20    5.50
   0   4 -18    9.90    5.50
   0  -4  18   -5.20    6.10
   0  -4  18   -3.20    5.00
   2   3 -18    6.40    5.90
  -2  -3  18    4.50    5.70
   1   3 -18   -2.90    4.80
  -1  -3  18    6.80    5.70
  -1  -3  18   -6.40    7.00
   0   3 -18    8.20    5.50
   0  -3  18    8.90    5.00
   0  -3  18   14.00    7.40
  -1   3 -18   35.50    6.60
   1  -3  18   49.00   10.90
   3   2 -18   25.30    7.80
  -3  -2  18   23.60    7.60
   2   2 -18    6.80    5.80
  -2  -2  18    6.50    5.80
   1   2 -18    3.40    4.90
  -1  -2  18    1.50    4.80
  -1  -2  18   -3.10    6.50
   0   2 -18   -1.80    5.30
   0  -2  18   -2.40    4.50
   0  -2  18    4.80    7.00
  -1   2 -18   24.60    5.90
   1  -2  18   21.50    8.90
   3   1 -18   21.40    7.20
  -3  -1  18    3.60    5.80
   2   1 -18   12.20    6.50
  -2  -1  18    6.90    5.00
   1   1 -18    5.80    5.80
  -1  -1  18    0.90    6.20
  -1  -1  18    3.30    4.50
   0   1 -18   10.60    5.80
   0  -1  18   -0.50    4.30
   0  -1  18   11.40    7.20
   1  -1  18   46.20   11.20
   3   0 -18   25.00    7.20
  -3   0  18   12.20    6.70
   2   0 -18    2.10    5.60
  -2   0  18    2.40    5.20
   1   0 -18    8.20    6.00
  -1   0  18    5.60    4.80
  -1   0  18    3.50    6.80
   0   0 -18   48.10    7.50
   0   0  18   45.20   11.00
   0   0  18   32.00    4.60
   1   0  18   -3.80    6.80
   3  -1 -18  -12.70    5.90
  -3   1  18    1.30    6.00
   2  -1 -18    0.30    5.70
  -2   1  18   -6.40    4.40
   1  -1 -18    1.00    6.30
  -1   1  18   -5.50    7.40
  -1   1  18   -1.80    2.80
  -1   1  18    2.10    6.20
   0  -1 -18   -2.10    5.30
   0   1  18   -4.40    3.20
   0   1  18   -7.70    5.30
   1   1  18   -4.90    2.90
   1   1  18    0.90    6.40
  -3   2  18    4.00    6.50
   2  -2 -18    7.80    6.40
  -2   2  18   -7.20    6.40
  -2   2  18   -2.70    3.00
   1  -2 -18    5.00    5.80
  -1   2  18  -10.50    5.60
  -1   2  18   -1.70    2.80
  -1   2  18    2.60    6.10
  -2   3  18    0.20    3.70
  -2   3  18    0.00    6.90
  -2   3  18  -12.60    5.60
  -1   3  18  -11.90    6.20
  -1   3  18   -0.50    6.50
  -2  -2  19   -7.30    5.60
   1   2 -19    8.20    6.00
  -1  -2  19   -2.80    7.40
  -1  -2  19   -6.70    5.00
   0   2 -19   27.30    6.90
   0  -2  19    9.10    5.40
   0  -2  19   12.40    8.00
   2   1 -19    6.60    6.80
  -2  -1  19    1.40    5.30
   1   1 -19   11.30    6.40
  -1  -1  19    2.40    7.40
  -1  -1  19   11.60    5.70
   0   1 -19   15.50    6.70
   0  -1  19    9.80    4.70
   0  -1  19   14.00    8.40
   2   0 -19   -2.30    4.60
  -2   0  19   -4.70    6.30
   1   0 -19    5.50    5.70
  -1   0  19   -8.10    4.70
  -1   0  19   -0.50    6.60
   0   0 -19    2.30    5.80
   0   0  19   10.70    8.10
  -2   1  19   -8.80    6.10
   1  -1 -19   17.50    7.10
  -1   1  19   20.20    8.00
  -1   1  19    8.30    6.80
   0   0   0    0.00    0.00


_computing_structure_solution     'SHELXT 2014/5 (Sheldrick, 2014)'
_computing_structure_solution     'SHELXT 2014/5 (Sheldrick, 2014)'
;
_shelx_hkl_checksum              65230
_olex2_submission_special_instructions 'No special instructions were received'
loop_
_space_group_symop_operation_xyz
'x, y, z'
'-x, -y, -z'
loop_
_atom_site_label
_atom_site_type_symbol
_atom_site_fract_x
_atom_site_fract_y
_atom_site_fract_z
_atom_site_U_iso_or_equiv
_atom_site_adp_type
_atom_site_occupancy
_atom_site_site_symmetry_order
_atom_site_calc_flag
_atom_site_refinement_flags_posn
_atom_site_refinement_flags_adp
_atom_site_refinement_flags_occupancy
_atom_site_disorder_assembly
_atom_site_disorder_group
F1 F -0.1294(2) 0.51467(18) 0.36116(9) 0.0830(5) Uani 1 1 d . . . . .
O1 O 1.0230(3) 0.9162(2) 0.62909(10) 0.0826(6) Uani 1 1 d . . . . .
F2 F 0.3564(3) 0.7852(2) 0.17165(9) 0.1015(6) Uani 1 1 d . . . . .
C1 C 0.7873(8) 0.6981(6) 1.0209(2) 0.1066(11) Uani 1 1 d . U . . .
H1AA H 0.6383 0.6260 1.0247 0.160 Uiso 0.5 1 calc GR . P A 1
H1AB H 0.7943 0.8067 1.0589 0.160 Uiso 0.5 1 calc GR . P A 1
H1AC H 0.9235 0.6354 1.0419 0.160 Uiso 0.5 1 calc GR . P A 1
C2 C 0.7961(5) 0.7387(3) 0.92381(15) 0.0712(7) Uani 1 1 d . U . . .
C3 C 0.6042(5) 0.6942(3) 0.85788(16) 0.0777(7) Uani 1 1 d . . . . .
H3 H 0.4616 0.6384 0.8740 0.093 Uiso 1 1 calc R . . . .
C4 C 0.6106(4) 0.7277(3) 0.76892(15) 0.0691(7) Uani 1 1 d . . . . .
H4 H 0.4735 0.6950 0.7252 0.083 Uiso 1 1 calc R . . . .
C5 C 0.8152(3) 0.8085(3) 0.74268(13) 0.0505(5) Uani 1 1 d . . . . .
C6 C 0.8367(4) 0.8431(3) 0.64742(14) 0.0546(5) Uani 1 1 d . . . . .
C7 C 0.6359(4) 0.7856(3) 0.57570(13) 0.0552(5) Uani 1 1 d . . . . .
H7 H 0.4965 0.7251 0.5918 0.066 Uiso 1 1 calc R . . . .
C8 C 0.6405(4) 0.8141(3) 0.49034(13) 0.0528(5) Uani 1 1 d . . . . .
H8 H 0.7808 0.8776 0.4767 0.063 Uiso 1 1 calc R . . . .
C9 C 0.4536(3) 0.7589(2) 0.41408(13) 0.0491(5) Uani 1 1 d . . . . .
C10 C 0.4897(4) 0.8005(3) 0.32745(14) 0.0570(5) Uani 1 1 d . . . . .
H10 H 0.6327 0.8666 0.3183 0.068 Uiso 1 1 calc R . . . .
C11 C 0.3175(4) 0.7456(3) 0.25589(14) 0.0664(6) Uani 1 1 d . . . . .
C12 C 0.1057(4) 0.6501(3) 0.26436(15) 0.0670(6) Uani 1 1 d . . . . .
H12 H -0.0122 0.6132 0.2137 0.080 Uiso 1 1 calc R . . . .
C13 C 1.0082(4) 0.8546(3) 0.80919(15) 0.0710(7) Uani 1 1 d . . . . .
H13 H 1.1509 0.9112 0.7934 0.085 Uiso 1 1 calc R . . . .
C14 C 0.9988(5) 0.8205(4) 0.89767(16) 0.0819(8) Uani 1 1 d . . . . .
H14 H 1.1349 0.8540 0.9418 0.098 Uiso 1 1 calc R . . . .
C15 C 0.0761(4) 0.6120(3) 0.35011(15) 0.0581(6) Uani 1 1 d . . . . .
C16 C 0.2395(4) 0.6631(3) 0.42482(14) 0.0529(5) Uani 1 1 d . . . . .
H16 H 0.2084 0.6341 0.4831 0.063 Uiso 1 1 calc R . . . .
H1BD H 0.932(9) 0.754(8) 1.059(3) 0.063(13) Uiso 0.5 1 d . . P B 2
H1BE H 0.636(12) 0.747(10) 1.035(4) 0.09(2) Uiso 0.5 1 d . . P C 2
H1BF H 0.786(17) 0.558(9) 1.020(4) 0.12(2) Uiso 0.5 1 d . . P D 2
loop_
_atom_site_aniso_label
_atom_site_aniso_U_11
_atom_site_aniso_U_22
_atom_site_aniso_U_33
_atom_site_aniso_U_23
_atom_site_aniso_U_13
_atom_site_aniso_U_12
F1 0.0658(8) 0.0923(10) 0.0845(10) 0.0086(8) 0.0072(7) -0.0211(7)
O1 0.0631(10) 0.1145(14) 0.0666(11) 0.0275(9) 0.0104(8) -0.0247(9)
F2 0.1167(13) 0.1371(14) 0.0480(8) 0.0198(8) 0.0136(8) -0.0120(10)
C1 0.121(3) 0.137(4) 0.0593(18) 0.0237(19) 0.011(2) -0.009(3)
C2 0.0782(17) 0.0829(17) 0.0522(13) 0.0161(12) 0.0081(13) 0.0013(13)
C3 0.0698(16) 0.101(2) 0.0622(15) 0.0221(13) 0.0171(13) -0.0140(14)
C4 0.0573(14) 0.0903(18) 0.0567(14) 0.0150(12) 0.0080(11) -0.0139(12)
C5 0.0484(11) 0.0536(12) 0.0497(12) 0.0115(9) 0.0062(10) 0.0019(9)
C6 0.0516(12) 0.0574(13) 0.0555(13) 0.0139(10) 0.0100(11) -0.0009(10)
C7 0.0517(12) 0.0604(14) 0.0530(13) 0.0127(10) 0.0094(10) -0.0055(10)
C8 0.0535(12) 0.0532(12) 0.0524(12) 0.0115(9) 0.0115(10) -0.0008(9)
C9 0.0541(12) 0.0458(11) 0.0487(12) 0.0077(9) 0.0109(10) 0.0047(9)
C10 0.0616(13) 0.0578(13) 0.0529(12) 0.0123(10) 0.0128(11) 0.0011(10)
C11 0.0823(17) 0.0747(16) 0.0441(13) 0.0124(11) 0.0129(12) 0.0072(13)
C12 0.0711(15) 0.0707(16) 0.0546(14) 0.0025(11) -0.0015(12) 0.0008(12)
C13 0.0572(14) 0.0898(18) 0.0617(15) 0.0186(12) 0.0023(12) -0.0136(12)
C14 0.0724(17) 0.110(2) 0.0574(15) 0.0183(14) -0.0050(13) -0.0095(15)
C15 0.0554(13) 0.0547(13) 0.0632(14) 0.0069(10) 0.0091(11) -0.0016(10)
C16 0.0572(13) 0.0531(12) 0.0495(12) 0.0082(9) 0.0121(11) 0.0024(10)
loop_
_atom_type_symbol
_atom_type_description
_atom_type_scat_dispersion_real
_atom_type_scat_dispersion_imag
_atom_type_scat_source
C C 0.0033 0.0016 'International Tables Vol C Tables 4.2.6.8 and 6.1.1.4'
H H 0.0000 0.0000 'International Tables Vol C Tables 4.2.6.8 and 6.1.1.4'
O O 0.0106 0.0060 'International Tables Vol C Tables 4.2.6.8 and 6.1.1.4'
F F 0.0171 0.0103 'International Tables Vol C Tables 4.2.6.8 and 6.1.1.4'
loop_
_geom_angle_atom_site_label_1
_geom_angle_atom_site_label_2
_geom_angle_atom_site_label_3
_geom_angle
_geom_angle_site_symmetry_1
_geom_angle_site_symmetry_3
_geom_angle_publ_flag
H1AA C1 H1AB 109.5 . . ?
H1AA C1 H1AC 109.5 . . ?
H1AB C1 H1AC 109.5 . . ?
C2 C1 H1AA 109.5 . . ?
C2 C1 H1AB 109.5 . . ?
C2 C1 H1AC 109.5 . . ?
C2 C1 H1BD 109(3) . . ?
C2 C1 H1BE 103(3) . . ?
C2 C1 H1BF 105(3) . . ?
H1BD C1 H1BE 113(4) . . ?
H1BD C1 H1BF 109(4) . . ?
H1BE C1 H1BF 116(5) . . ?
C3 C2 C1 121.6(3) . . ?
C3 C2 C14 117.0(2) . . ?
C14 C2 C1 121.4(3) . . ?
C2 C3 H3 118.9 . . ?
C2 C3 C4 122.3(2) . . ?
C4 C3 H3 118.9 . . ?
C3 C4 H4 119.7 . . ?
C3 C4 C5 120.6(2) . . ?
C5 C4 H4 119.7 . . ?
C4 C5 C6 123.28(19) . . ?
C13 C5 C4 117.23(19) . . ?
C13 C5 C6 119.47(18) . . ?
O1 C6 C5 119.80(18) . . ?
O1 C6 C7 120.58(18) . . ?
C7 C6 C5 119.60(17) . . ?
C6 C7 H7 118.5 . . ?
C8 C7 C6 123.02(19) . . ?
C8 C7 H7 118.5 . . ?
C7 C8 H8 116.4 . . ?
C7 C8 C9 127.17(19) . . ?
C9 C8 H8 116.4 . . ?
C10 C9 C8 119.34(18) . . ?
C10 C9 C16 118.51(18) . . ?
C16 C9 C8 122.15(17) . . ?
C9 C10 H10 120.3 . . ?
C11 C10 C9 119.4(2) . . ?
C11 C10 H10 120.3 . . ?
F2 C11 C10 118.7(2) . . ?
F2 C11 C12 117.9(2) . . ?
C10 C11 C12 123.4(2) . . ?
C11 C12 H12 122.2 . . ?
C15 C12 C11 115.7(2) . . ?
C15 C12 H12 122.2 . . ?
C5 C13 H13 119.3 . . ?
C14 C13 C5 121.5(2) . . ?
C14 C13 H13 119.3 . . ?
C2 C14 H14 119.3 . . ?
C13 C14 C2 121.4(2) . . ?
C13 C14 H14 119.3 . . ?
C12 C15 F1 117.5(2) . . ?
C12 C15 C16 124.2(2) . . ?
C16 C15 F1 118.27(19) . . ?
C9 C16 H16 120.6 . . ?
C15 C16 C9 118.82(19) . . ?
C15 C16 H16 120.6 . . ?
loop_
_geom_bond_atom_site_label_1
_geom_bond_atom_site_label_2
_geom_bond_distance
_geom_bond_site_symmetry_2
_geom_bond_publ_flag
F1 C15 1.365(2) . ?
O1 C6 1.225(2) . ?
F2 C11 1.358(2) . ?
C1 H1AA 0.9800 . ?
C1 H1AB 0.9800 . ?
C1 H1AC 0.9800 . ?
C1 C2 1.513(3) . ?
C1 H1BD 0.98(5) . ?
C1 H1BE 1.01(5) . ?
C1 H1BF 1.09(7) . ?
C2 C3 1.369(3) . ?
C2 C14 1.378(3) . ?
C3 H3 0.9500 . ?
C3 C4 1.377(3) . ?
C4 H4 0.9500 . ?
C4 C5 1.384(3) . ?
C5 C6 1.487(3) . ?
C5 C13 1.380(3) . ?
C6 C7 1.470(3) . ?
C7 H7 0.9500 . ?
C7 C8 1.314(3) . ?
C8 H8 0.9500 . ?
C8 C9 1.461(3) . ?
C9 C10 1.393(3) . ?
C9 C16 1.398(3) . ?
C10 H10 0.9500 . ?
C10 C11 1.365(3) . ?
C11 C12 1.378(3) . ?
C12 H12 0.9500 . ?
C12 C15 1.364(3) . ?
C13 H13 0.9500 . ?
C13 C14 1.374(3) . ?
C14 H14 0.9500 . ?
C15 C16 1.364(3) . ?
C16 H16 0.9500 . ?
loop_
_geom_torsion_atom_site_label_1
_geom_torsion_atom_site_label_2
_geom_torsion_atom_site_label_3
_geom_torsion_atom_site_label_4
_geom_torsion
_geom_torsion_site_symmetry_1
_geom_torsion_site_symmetry_2
_geom_torsion_site_symmetry_3
_geom_torsion_site_symmetry_4
_geom_torsion_publ_flag
F1 C15 C16 C9 178.28(18) . . . . ?
O1 C6 C7 C8 -2.6(3) . . . . ?
F2 C11 C12 C15 179.3(2) . . . . ?
C1 C2 C3 C4 -178.9(3) . . . . ?
C1 C2 C14 C13 178.8(3) . . . . ?
C2 C3 C4 C5 0.1(4) . . . . ?
C3 C2 C14 C13 -0.5(4) . . . . ?
C3 C4 C5 C6 177.9(2) . . . . ?
C3 C4 C5 C13 -0.6(4) . . . . ?
C4 C5 C6 O1 179.6(2) . . . . ?
C4 C5 C6 C7 -1.8(3) . . . . ?
C4 C5 C13 C14 0.5(4) . . . . ?
C5 C6 C7 C8 178.8(2) . . . . ?
C5 C13 C14 C2 0.0(4) . . . . ?
C6 C5 C13 C14 -178.0(2) . . . . ?
C6 C7 C8 C9 178.37(19) . . . . ?
C7 C8 C9 C10 -179.8(2) . . . . ?
C7 C8 C9 C16 -0.7(3) . . . . ?
C8 C9 C10 C11 178.5(2) . . . . ?
C8 C9 C16 C15 -178.23(19) . . . . ?
C9 C10 C11 F2 -179.1(2) . . . . ?
C9 C10 C11 C12 0.2(4) . . . . ?
C10 C9 C16 C15 1.0(3) . . . . ?
C10 C11 C12 C15 -0.1(4) . . . . ?
C11 C12 C15 F1 -178.7(2) . . . . ?
C11 C12 C15 C16 0.4(4) . . . . ?
C12 C15 C16 C9 -0.8(3) . . . . ?
C13 C5 C6 O1 -1.9(3) . . . . ?
C13 C5 C6 C7 176.7(2) . . . . ?
C14 C2 C3 C4 0.4(4) . . . . ?
C16 C9 C10 C11 -0.7(3) . . . . ?
