#------------------------------------------------------------------------------
#$Date: 2021-06-05 21:09:15 +0300 (Sat, 05 Jun 2021) $
#$Revision: 265950 $
#$URL: file:///home/coder/svn-repositories/cod/cif/7/24/26/7242674.cif $
#------------------------------------------------------------------------------
#
# This file is available in the Crystallography Open Database (COD),
# http://www.crystallography.net/
#
# All data on this site have been placed in the public domain by the
# contributors.
#
data_7242674
loop_
_publ_author_name
'Lin, Yuan'
'Jiang, Huijie'
'Liang, Guangling'
'Deng, Wei-Hua'
'Li, Qiaohong'
'Li, Wen-Hua'
'Xu, Gang'
_publ_section_title
;
 The exceptionally high moisture responsiveness of a new
 conductive-coordination-polymer based chemiresistive sensor
;
_journal_issue                   19
_journal_name_full               CrystEngComm
_journal_page_first              3549
_journal_page_last               3556
_journal_paper_doi               10.1039/D1CE00347J
_journal_volume                  23
_journal_year                    2021
_chemical_formula_moiety         'C6 H4 Ag2 N2 O5 S'
_chemical_formula_sum            'C6 H4 Ag2 N2 O5 S'
_chemical_formula_weight         431.91
_chemical_properties_physical    Moisture-sensitive
_space_group_crystal_system      monoclinic
_space_group_IT_number           14
_space_group_name_Hall           '-P 2yn'
_space_group_name_H-M_alt        'P 1 21/n 1'
_atom_sites_solution_hydrogens   geom
_audit_creation_date             2020-12-28
_audit_creation_method
;
Olex2 1.3
(compiled 2020.11.12 svn.r5f609507 for OlexSys, GUI svn.r6226)
;
_audit_update_record
;
2020-12-28 deposited with the CCDC.	2021-04-14 downloaded from the CCDC.
;
_cell_angle_alpha                90
_cell_angle_beta                 111.44(3)
_cell_angle_gamma                90
_cell_formula_units_Z            4
_cell_length_a                   13.896(3)
_cell_length_b                   4.8595(11)
_cell_length_c                   15.280(4)
_cell_measurement_reflns_used    2350
_cell_measurement_temperature    293(2)
_cell_measurement_theta_max      27.9340
_cell_measurement_theta_min      4.4770
_cell_volume                     960.4(4)
_computing_molecular_graphics    'Olex2 1.3 (Dolomanov et al., 2009)'
_computing_publication_material  'Olex2 1.3 (Dolomanov et al., 2009)'
_computing_structure_refinement  'XL  (Sheldrick, 2008)'
_computing_structure_solution    'olex2.solve 1.3 (Bourhis et al., 2015)'
_diffrn_ambient_temperature      293(2)
_diffrn_measured_fraction_theta_full 0.997
_diffrn_measured_fraction_theta_max 0.995
_diffrn_measurement_device_type  'XtaLAB AFC10 (RCD3): fixed-chi single'
_diffrn_radiation_type           MoK\a
_diffrn_radiation_wavelength     0.71073
_diffrn_reflns_av_R_equivalents  0.0606
_diffrn_reflns_av_unetI/netI     0.0441
_diffrn_reflns_Laue_measured_fraction_full 0.997
_diffrn_reflns_Laue_measured_fraction_max 0.995
_diffrn_reflns_limit_h_max       19
_diffrn_reflns_limit_h_min       -19
_diffrn_reflns_limit_k_max       6
_diffrn_reflns_limit_k_min       -6
_diffrn_reflns_limit_l_max       20
_diffrn_reflns_limit_l_min       -20
_diffrn_reflns_number            13794
_diffrn_reflns_point_group_measured_fraction_full 0.997
_diffrn_reflns_point_group_measured_fraction_max 0.995
_diffrn_reflns_theta_full        25.242
_diffrn_reflns_theta_max         29.114
_diffrn_reflns_theta_min         4.001
_exptl_absorpt_coefficient_mu    4.300
_exptl_absorpt_correction_T_max  1.00000
_exptl_absorpt_correction_T_min  0.56864
_exptl_absorpt_correction_type   multi-scan
_exptl_absorpt_process_details
;
Empirical absorption correction using spherical harmonics,
 implemented in SCALE3 ABSPACK scaling algorithm.
;
_exptl_crystal_colour            'clear light yellow'
_exptl_crystal_colour_lustre     clear
_exptl_crystal_colour_modifier   light
_exptl_crystal_colour_primary    yellow
_exptl_crystal_density_diffrn    2.987
_exptl_crystal_description       plate
_exptl_crystal_F_000             816
_exptl_crystal_size_max          1
_exptl_crystal_size_mid          0.05
_exptl_crystal_size_min          0.005
_refine_diff_density_max         1.053
_refine_diff_density_min         -1.108
_refine_diff_density_rms         0.128
_refine_ls_extinction_method     none
_refine_ls_goodness_of_fit_ref   1.038
_refine_ls_hydrogen_treatment    constr
_refine_ls_matrix_type           full
_refine_ls_number_parameters     145
_refine_ls_number_reflns         2573
_refine_ls_number_restraints     0
_refine_ls_restrained_S_all      1.038
_refine_ls_R_factor_all          0.0660
_refine_ls_R_factor_gt           0.0436
_refine_ls_shift/su_max          0.000
_refine_ls_shift/su_mean         0.000
_refine_ls_structure_factor_coef Fsqd
_refine_ls_weighting_details
'w=1/[\s^2^(Fo^2^)+4.1611P] where P=(Fo^2^+2Fc^2^)/3'
_refine_ls_weighting_scheme      calc
_refine_ls_wR_factor_gt          0.0736
_refine_ls_wR_factor_ref         0.0796
_reflns_Friedel_coverage         0.000
_reflns_number_gt                1965
_reflns_number_total             2573
_reflns_threshold_expression     'I > 2\s(I)'
_cod_data_source_file            d1ce00347j2.cif
_cod_data_source_block           ly-cry
_cod_depositor_comments          'Adding full bibliography for 7242674.cif.'
_cod_database_code               7242674
_shelx_shelxl_version_number     2014/7
_shelx_space_group_comment
;
The symmetry employed for this shelxl refinement is uniquely defined
by the following loop, which should always be used as a source of
symmetry information in preference to the above space-group names.
They are only intended as comments.
;
_shelx_estimated_absorpt_t_max   0.979
_shelx_estimated_absorpt_t_min   0.099
_olex2_refinement_description
;
1. Fixed Uiso
 At 1.2 times of:
  All C(H) groups
2.a Aromatic/amide H refined with riding coordinates:
 C2(H2), C3(H3), C6(H6), C5(H5)
;
_shelx_res_file
;
    ly-cry.res created by SHELXL-2014/7

TITL ly-cry_a.res in P2(1)/n
REM Old TITL ly-cry_a.res in P2(1)/n
REM SHELXT solution in P2(1)/n
REM R1 0.147, Rweak 0.013, Alpha 0.034, Orientation as input
REM Formula found by SHELXT: C8 N O5 Br2
CELL 0.71073 13.8955 4.8595 15.2802 90 111.44 90
ZERR 4 0.0029 0.0011 0.0043 0 0.028 0
LATT 1
SYMM 0.5-X,0.5+Y,0.5-Z
SFAC C H Ag N O S
UNIT 24 16 8 8 20 4

L.S. 20 0 0
PLAN  5
SIZE 1 0.05 0.005
TEMP 20(2)
CONF
list 4
MORE -1
BOND $H
htab
fmap 2 53
acta
SHEL 999 0.73
REM <olex2.extras>
REM <HklSrc "%.\\ly-cry.hkl">
REM </olex2.extras>

WGHT    0.000000    4.161100
FVAR       0.31865
AG1   3   -0.212931   -0.035302    0.335883    11.00000    0.04000    0.03991 =
         0.06350   -0.00061    0.02175   -0.00470
AG2   3    0.147188    0.618175    0.477235    11.00000    0.03887    0.05949 =
         0.05796    0.00891    0.00587    0.00186
S1    6    0.262158    0.532823    0.644613    11.00000    0.02720    0.03449 =
         0.03872    0.00015    0.01432   -0.00060
O5    5   -0.020796   -0.119309    0.402005    11.00000    0.05231    0.03663 =
         0.05178   -0.00495    0.02020   -0.01171
N2    4    0.020784    0.103878    0.400077    11.00000    0.03668    0.03887 =
         0.04485   -0.00530    0.02028    0.00097
O3    5    0.117171    0.116879    0.431362    11.00000    0.03672    0.08004 =
         0.06647   -0.01132    0.02486   -0.00872
O2    5    0.706915    0.277803    0.591764    11.00000    0.05728    0.09380 =
         0.07054    0.01001    0.03922    0.02737
O1    5    0.752217    0.637233    0.679891    11.00000    0.03738    0.08378 =
         0.10070    0.01609    0.03191   -0.00353
C1    1    0.388176    0.512450    0.642713    11.00000    0.02787    0.02642 =
         0.02873    0.00655    0.01130    0.00088
N1    4    0.689110    0.462436    0.637920    11.00000    0.04307    0.06707 =
         0.05855    0.02541    0.02946    0.02021
O4    5   -0.031228    0.309288    0.367677    11.00000    0.08251    0.04586 =
         0.10849    0.02002    0.05007    0.02435
C2    1    0.464615    0.692568    0.695341    11.00000    0.03036    0.03570 =
         0.03254   -0.00607    0.00932   -0.00146
AFIX  43
H2    2    0.449017    0.827726    0.731173    11.00000   -1.20000
AFIX   0
C4    1    0.584728    0.476719    0.641611    11.00000    0.03043    0.04798 =
         0.03771    0.01735    0.01644    0.01104
C3    1    0.563720    0.673935    0.695264    11.00000    0.02934    0.04991 =
         0.03578    0.00164    0.00710   -0.00545
AFIX  43
H3    2    0.615132    0.793893    0.731198    11.00000   -1.20000
AFIX   0
C6    1    0.412775    0.311671    0.589708    11.00000    0.03926    0.03729 =
         0.04478   -0.01073    0.01751   -0.00279
AFIX  43
H6    2    0.362459    0.187884    0.554527    11.00000   -1.20000
AFIX   0
C5    1    0.511769    0.295170    0.589059    11.00000    0.05087    0.04758 =
         0.04772   -0.00161    0.02501    0.01258
AFIX  43
H5    2    0.528378    0.161901    0.553223    11.00000   -1.20000
AFIX   0
HKLF 4

REM  ly-cry_a.res in P2(1)/n
REM R1 =  0.0436 for    1965 Fo > 4sig(Fo)  and  0.0660 for all    2573 data
REM    145 parameters refined using      0 restraints

END

WGHT      0.0000      4.1617

REM Instructions for potential hydrogen bonds
EQIV $1 -x+3/2, y+1/2, -z+3/2
HTAB C3 O1_$1

REM Highest difference peak  1.053,  deepest hole -1.108,  1-sigma level  0.128
Q1    1  -0.1908 -0.1593  0.3139  11.00000  0.05    1.05
Q2    1   0.1146  0.5419  0.5060  11.00000  0.05    0.95
Q3    1   0.1820  0.7403  0.4951  11.00000  0.05    0.90
Q4    1   0.1261  0.6210  0.4225  11.00000  0.05    0.74
Q5    1  -0.1914  0.0802  0.3128  11.00000  0.05    0.62
;
_shelx_res_checksum              4419
_shelx_hkl_file
;
   0   0   3    2.86    3.20
   0   0   4 2189.46  102.03
   0   0   5   -0.95    4.20
   0   0   6 3770.69  170.63
   0   0   6 3633.69  169.24
   0   0   7   -3.32    2.05
   0   0   7    0.72    2.34
   0   0   8   21.11    3.24
   0   0   8   18.44    2.81
   0   0   8   22.70    6.20
   0   0   9    3.12    2.50
   0   0   9    2.48    3.05
   0   0   9   -2.78    6.37
   0   0  10   84.09    9.18
   0   0  10   70.39    5.70
   0   0  10   76.21    5.41
   0   0  11   -1.41    3.23
   0   0  11    5.61    8.70
   0   0  11    0.97    3.83
   0   0  12  187.62   13.72
   0   0  12  173.81    9.98
   0   0  12  157.18   10.12
   0   0  13   -2.19    8.03
   0   0  13    1.07    3.62
   0   0  13    1.30    2.49
   0   0  14   -1.77    9.12
   0   0  14    0.28    3.75
   0   0  14   -0.22    0.88
   0   0  15    4.08    4.84
   0   0  15    1.10    3.95
   0   0  15   -1.28   10.39
   0   0  16   91.98    7.70
   0   0  16  108.08   12.22
   0   0  16  107.04    7.55
   0   0  16  100.74   12.42
   0   0  17    1.25    3.67
   0   0  17    1.61    9.59
   0   0  17    7.35   10.31
   0   0  17    4.43    4.44
   0   0  18   20.45   12.27
   0   0  18   34.31   11.01
   0   0  18   36.48    8.45
   0   0  19   -2.52   12.75
   0   1   0   -1.34    2.35
   0   1   1  836.30   36.56
   0  -1  -1  718.53   36.46
   0  -1   2  165.01   10.45
   0  -1  -2  201.19   10.09
   0  -1   2  206.38    9.78
   0  -1  -3 1517.02   68.23
   0  -1   3 1509.85   68.94
   0  -1   3 1484.43   68.40
   0   1   3 1526.26   68.90
   0   1  -3 1507.86   68.20
   0  -1  -3 1546.28   68.68
   0  -1  -4 1116.22   51.46
   0  -1  -4 1126.70   51.78
   0   1  -4 1122.56   51.24
   0  -1   4 1022.16   51.83
   0   1   4 1173.83   52.20
   0  -1  -4 1083.40   50.93
   0   1   4 1031.20   51.89
   0   1   4 1103.06   51.73
   0   1  -4 1078.09   51.83
   0   1   5  122.28    7.46
   0   1   5  118.72    7.80
   0   1  -5  115.76    7.29
   0  -1  -5  117.45    6.44
   0  -1  -5  132.66    7.94
   0  -1   5  124.63    7.56
   0   1   5  132.27    8.28
   0   1   6   84.73    7.18
   0   1   6   83.84    6.25
   0  -1  -6   80.15    4.90
   0  -1   6   91.03    6.43
   0   1  -6   81.51    6.03
   0   1   6   91.90    7.53
   0  -1  -6  102.28    6.98
   0   1   7  295.75   16.09
   0  -1  -7  298.38   16.39
   0   1   7  285.02   16.70
   0  -1   7  296.03   15.68
   0   1  -7  284.25   15.36
   0  -1  -7  292.40   14.17
   0   1   7  297.23   15.42
   0  -1  -8  184.75    8.99
   0   1   8  188.17   10.84
   0  -1  -8  186.09   11.94
   0  -1   8  186.67   10.58
   0   1   8  155.69   11.71
   0   1   8  175.61   11.47
   0   1   8  169.89    9.20
   0   1  -8  175.84   10.75
   0  -1   9  471.57   23.60
   0   1   9  443.52   22.00
   0   1   9  464.88   23.45
   0   1   9  414.31   24.69
   0   1   9  494.50   24.74
   0   1  -9  462.07   23.65
   0  -1  -9  496.43   25.03
   0   1  10   74.52    7.31
   0   1  10   72.39    8.71
   0   1  10   72.22    8.52
   0  -1  10   77.89    6.67
   0   1 -10   73.40    7.18
   0   1  10   69.35    4.89
   0   1 -11  241.63   13.48
   0   1  11  228.14   15.34
   0  -1  11  229.26   12.86
   0   1  11  258.87   15.02
   0  -1  11  198.09   12.13
   0   1  11  226.31   13.39
   0   1  11  181.20   10.54
   0   1  11  208.13   10.78
   0  -1  12  125.73   11.48
   0  -1  12   83.53    7.38
   0   1  12   65.10    4.82
   0   1  12  113.41   11.34
   0   1  12  100.54   10.70
   0   1 -12  106.70    9.06
   0   1  12   85.75    5.35
   0   1  12  102.56    8.91
   0  -1  12   91.08    7.95
   0  -1  13   28.78    9.88
   0  -1  13   17.58    5.41
   0   1 -13   24.23    7.16
   0   1  13   35.57    8.76
   0   1  13   45.85    8.72
   0  -1  13   13.18    5.59
   0   1  13   16.48    7.13
   0   1  13   18.82    2.34
   0   1  14  161.94   14.19
   0  -1  14  134.27   10.54
   0   1  14  155.29   11.55
   0   1 -14  143.31   11.33
   0  -1  14  138.29   10.00
   0  -1  15   63.26    7.45
   0  -1  15   77.93    8.13
   0   1  15   73.28    9.07
   0   1  15   87.97   11.10
   0   1  15   72.00   10.32
   0   1 -15   76.34    9.53
   0  -1  15   79.66   10.95
   0  -1  16    3.42    9.49
   0  -1  16   10.50    6.07
   0  -1  16    4.99    6.04
   0   1  16   13.50    9.77
   0   1  16    5.01    9.31
   0   1  16   10.26    7.94
   0   1 -16    6.99    7.19
   0   1  17   80.50   12.83
   0  -1  17   70.06    7.92
   0   1 -17   67.03    9.41
   0   1  17   77.11   12.65
   0  -1  17   50.54    7.42
   0   1  17   57.79   10.05
   0   1 -18    7.37    8.80
   0   1  18   -3.43   10.55
   0   1  18   -3.41    7.79
   0  -1  18    2.24   10.83
   0   1  18   -0.94    9.98
   0   1 -19   32.44   10.52
   0  -1  19   32.40   12.05
   0   1  19   22.91   12.79
   0   2   0 1807.16   84.72
   0  -2   0 1792.53   84.69
   0   2  -1  346.68   19.94
   0  -2  -1  419.47   19.89
   0   2   1  390.59   19.88
   0  -2  -2  276.44   15.03
   0   2   2  287.51   15.05
   0  -2   3  535.49   24.62
   0  -2  -3  479.23   25.04
   0   2   3  522.00   25.08
   0   2  -3  530.77   25.13
   0  -2   3  444.55   25.54
   0  -2  -4  742.90   35.85
   0  -2   4  732.94   35.18
   0  -2   4  745.68   36.08
   0   2  -4  725.70   35.19
   0   2   4  681.93   34.98
   0  -2   4  734.43   34.70
   0  -2  -4  757.27   35.88
   0  -2  -4  713.32   35.04
   0  -2  -5 1896.16   85.94
   0   2  -5 1920.36   87.03
   0  -2   5 1890.24   87.13
   0  -2   5 1921.63   86.27
   0  -2  -5 1934.31   86.64
   0  -2  -5 1949.61   86.90
   0   2   5 1829.64   85.91
   0  -2  -5 1778.80   86.82
   0  -2  -6 1501.67   71.19
   0  -2   6 1480.90   72.62
   0  -2  -6 1532.37   72.56
   0   2  -6 1566.62   72.55
   0  -2   6 1603.26   71.95
   0   2  -6 1503.62   71.35
   0  -2  -6 1518.26   71.98
   0  -2  -6 1503.31   72.32
   0   2   6 1497.13   71.28
   0  -2  -7   11.39    5.67
   0  -2   7   11.43    4.95
   0  -2  -7   30.24    5.88
   0  -2  -7   34.09    3.75
   0   2  -7   12.62    4.07
   0   2   7   15.87    2.72
   0   2  -7   16.16    4.60
   0   2  -8    2.60    3.96
   0   2   8    0.18    0.52
   0  -2  -8    8.15    3.46
   0  -2   8    0.43    5.23
   0   2  -8    1.57    4.49
   0   2   8   -4.42    6.23
   0  -2  -8   -0.75    6.34
   0   2   9  182.09   10.38
   0   2  -9  234.08   12.33
   0   2   9  205.14   13.79
   0  -2   9  203.37   13.08
   0   2  -9  199.30   12.29
   0  -2  -9  188.91   10.40
   0  -2  -9  201.86   13.59
   0  -2  10  565.34   28.35
   0  -2 -10  529.39   25.46
   0   2  10  524.06   28.67
   0   2  10  511.23   25.58
   0   2  10  531.29   29.49
   0  -2 -10  535.03   28.73
   0   2 -10  581.62   27.38
   0   2 -10  531.31   27.51
   0   2  11  309.26   18.89
   0  -2 -11  248.63   13.31
   0   2  11  267.66   13.57
   0   2  11  298.48   18.15
   0   2 -11  282.43   16.60
   0  -2  11  308.91   17.15
   0  -2 -11  319.12   17.84
   0   2 -11  326.81   16.37
   0   2 -12   32.38    6.72
   0   2  12   38.46    9.75
   0   2  12   33.55    8.78
   0  -2  12   35.09    6.68
   0   2 -12   35.17    7.03
   0  -2  13   63.63    8.24
   0   2 -13   67.77    8.44
   0   2 -13   58.04    7.92
   0   2  13   36.83   10.21
   0  -2  14    5.85    6.53
   0   2 -14   11.70    7.38
   0   2  14   -6.02    9.73
   0   2 -14   11.36    6.99
   0  -2  14    3.55    6.21
   0   2  14    4.36    9.23
   0   2 -15   17.96    7.23
   0   2  15   21.16   10.07
   0  -2  15   24.67    6.37
   0   2  15    9.19   11.23
   0  -2  15   28.68    7.09
   0   2 -15   23.45    8.02
   0   2 -16   23.21    8.22
   0  -2  16   36.08    8.54
   0   2  16   29.46   11.05
   0   2  16   16.62   10.05
   0   2 -16   22.93    8.59
   0  -2  16   43.60   12.62
   0  -2  16   32.83    7.58
   0  -2  17   33.54   12.20
   0   2 -17   12.75    9.31
   0  -2  17   20.25    8.10
   0   2 -17   10.46    9.06
   0   2  17   12.59   12.02
   0   2  17   15.52   12.01
   0  -2  17   26.95    7.94
   0   2 -18   11.71    9.56
   0  -2  18   28.89   14.18
   0   2 -18    1.22    9.74
   0   2  18   -6.53   12.45
   0   2 -19    1.93   10.25
   0   2  19  -11.14   15.28
   0   3   0   -1.61    4.04
   0  -3   0    4.75    4.54
   0  -3  -1  491.39   25.06
   0  -3   1  480.06   25.17
   0   3  -1  488.55   25.00
   0   3   1  501.86   24.99
   0  -3   1  421.23   24.13
   0  -3  -2  204.79   13.07
   0   3   2  199.79   12.59
   0   3  -2  216.72   12.95
   0  -3  -3    7.59    5.67
   0   3   3   11.71    4.50
   0  -3   4   35.01    4.83
   0  -3  -4   27.99    5.41
   0  -3  -4   29.28    6.40
   0  -3   4   26.86    5.19
   0   3   4   30.34    4.45
   0  -3  -5  552.31   28.20
   0   3   5  527.64   26.77
   0  -3   5  537.78   26.86
   0  -3   5  511.26   25.96
   0  -3   5  497.53   27.82
   0  -3  -5  508.83   26.84
   0  -3  -5  532.87   27.95
   0  -3  -5  530.95   27.96
   0  -3  -6  138.65    9.88
   0   3   6  128.28    9.21
   0   3  -6  131.11    9.99
   0  -3  -6  123.61   11.00
   0  -3  -6  135.42   11.35
   0   3  -6  150.30   10.52
   0  -3   6  144.49   11.07
   0  -3  -6  154.00   11.43
   0  -3   6  144.48    9.98
   0  -3  -7   18.62    6.64
   0  -3  -7   21.90    6.81
   0  -3   7   25.40    6.82
   0   3  -7   15.84    5.92
   0  -3   7   21.61    6.26
   0   3   7   18.08    4.41
   0   3  -7    4.60    5.42
   0  -3  -7   15.99    5.72
   0  -3  -8  437.64   23.18
   0   3  -8  379.08   22.35
   0  -3  -8  416.80   21.41
   0   3   8  407.85   21.30
   0  -3  -8  395.48   23.57
   0  -3   8  414.81   23.53
   0  -3  -8  433.37   22.88
   0   3   9   29.76    4.45
   0  -3   9   35.85    7.71
   0  -3  -9   27.93    7.97
   0   3  -9   39.30    7.11
   0  -3  -9   48.01    8.24
   0  -3  -9   16.66    5.37
   0  -3 -10   27.29    8.56
   0  -3  10   17.45    7.27
   0  -3 -10   23.10    4.56
   0   3  10    0.25    0.83
   0   3 -10   27.78    6.84
   0  -3 -11  121.18    7.83
   0  -3 -11  147.06   12.44
   0   3  11  126.21    7.79
   0  -3  11  123.20   11.33
   0   3 -11  134.14   11.27
   0  -3  12   38.90    8.44
   0   3  12   37.23    3.55
   0   3 -12   40.91    8.20
   0  -3 -12   37.23    3.90
   0  -3 -12   56.74   10.54
   0  -3  13   -2.13    7.13
   0  -3 -13   16.11    9.65
   0   3 -13   -2.16    6.68
   0  -3  14   29.80    8.62
   0   3 -14   22.29    7.35
   0   3 -15   19.33    8.02
   0  -3  15    4.71    7.61
   0  -3  15   43.67   10.04
   0  -3 -15   42.47   13.85
   0   3 -16   -4.21    7.76
   0  -3  16    8.95    9.53
   0  -3  16   -2.67    7.83
   0  -3  17   13.50    9.86
   0   3 -17    1.11    8.55
   0  -3  17   -3.26    8.38
   0  -4   0   11.38    6.84
   0  -4   0    1.31    6.11
   0   4   0   -5.41    6.15
   0  -4   1  147.96   11.12
   0   4   1  164.94   11.45
   0  -4  -1  130.84   12.11
   0   4  -1  144.21   11.49
   0  -4   1  173.79   12.95
   0  -4  -2  497.51   27.16
   0  -4   2  472.24   25.61
   0   4  -2  479.26   26.55
   0   4   2  482.78   26.16
   0  -4   2  489.82   27.23
   0   4  -3    8.81    5.98
   0  -4  -3    2.15    7.70
   0  -4   3    9.57    6.17
   0   4   3    2.99    5.62
   0   4   4  466.51   24.56
   0  -4  -4  442.92   25.06
   0  -4   4  429.45   23.12
   0  -4   4  470.47   24.46
   0  -4   5  199.61   13.85
   0  -4  -5  217.73   16.26
   0  -4  -5  227.09   14.61
   0  -4   5  205.82   12.69
   0  -4  -5  225.66   15.92
   0   4   5  227.94   13.97
   0  -4   6   56.97    7.71
   0  -4   6   75.10    7.00
   0  -4  -6   71.61    8.41
   0   4   6   46.33    6.87
   0  -4   6   63.04    9.09
   0  -4  -6   41.06    8.83
   0  -4  -6   55.99    9.70
   0  -4  -6   67.16    9.83
   0  -4  -7   26.44    8.08
   0  -4  -7   18.60    8.36
   0   4   7   13.94    5.77
   0  -4  -7   -7.43    8.43
   0  -4  -7   10.32    7.48
   0  -4   7   19.89    7.66
   0  -4   7   22.88    6.48
   0  -4  -8   11.94    7.81
   0  -4   8   20.68    6.59
   0   4   8    5.82    5.28
   0  -4  -8   14.56    8.22
   0  -4   8   10.24    7.43
   0  -4  -8    5.27    6.96
   0  -4  -8   18.22    7.80
   0   4   9    9.02    4.84
   0  -4  -9   22.22    6.75
   0  -4   9   10.56    7.95
   0  -4  -9   26.93    8.39
   0  -4  -9   12.74    8.08
   0  -4  -9   14.89    8.64
   0  -4 -10  120.67   13.12
   0   4  10  116.21    8.99
   0   4 -10  116.25   11.20
   0  -4  10  116.28   12.22
   0  -4 -10  116.92   12.14
   0  -4 -10  118.63    9.30
   0   4  11   92.79    7.25
   0  -4 -11   95.74    8.34
   0   4 -11  101.33   11.04
   0  -4  11   92.22   11.93
   0  -4 -11   86.70   11.83
   0  -4 -12   20.14    5.18
   0   4  12   18.20    4.37
   0   4 -12   15.35    8.51
   0  -4 -12   12.42   10.53
   0  -4  12   16.84    8.60
   0   4 -13    9.93    9.11
   0  -4 -13   17.41   11.01
   0  -4 -13   10.04    3.84
   0  -4  13   24.55   10.05
   0   4 -14   10.58    9.70
   0  -4 -14   24.49   13.61
   0  -4  14   23.80   10.19
   0  -4 -15   26.08   14.42
   0  -4  15   24.85   11.05
   0  -4 -16    1.85   12.97
   0  -4  16   -4.60   10.42
   0  -4  16   14.96   11.74
   0  -5   0    2.86    6.87
   0  -5   0    5.43    9.12
   0   5   0    1.38    6.60
   0   5  -1   -2.12    6.63
   0  -5  -1    2.37    7.54
   0  -5   1   -3.98    9.75
   0   5   1   16.87    7.27
   0  -5   1    0.55    6.81
   0  -5  -1   10.55    8.08
   0  -5   2   22.68    9.60
   0   5   2   45.98    7.82
   0   5  -2   33.28    7.77
   0  -5  -2   39.42    8.74
   0  -5   2   41.55    7.74
   0  -5   3   56.67   10.01
   0  -5   3   58.98    8.38
   0   5  -3   57.71    8.62
   0   5   3   46.15    8.06
   0  -5  -3   45.49    9.79
   0  -5   3   44.63    6.55
   0  -5   4   66.90    9.03
   0  -5  -4   78.69   11.95
   0  -5   4   80.24    8.06
   0   5  -4   76.76    9.61
   0  -5  -4   92.38   10.84
   0   5   4   81.86    9.50
   0  -5   4   93.41   11.71
   0  -5  -5   86.29   12.21
   0   5   5   72.88    9.50
   0  -5  -5   79.12   11.73
   0  -5   5   92.45    8.37
   0  -5  -5   99.06   11.01
   0   5  -5   84.17   10.32
   0  -5   6   14.98    8.38
   0  -5  -6   -3.15    9.68
   0  -5   6    6.00    5.46
   0   5   6    1.18    6.49
   0  -5  -6    7.28    9.70
   0  -5  -6   18.34    8.51
   0  -5  -6  -10.69    8.82
   0  -5   7    7.59    7.79
   0  -5   7   17.64    9.19
   0  -5  -7   11.49    8.46
   0  -5  -7   -1.52    9.02
   0  -5  -7    7.23    9.43
   0  -5  -7   -7.62    9.42
   0   5   7    3.41    5.92
   0  -5  -8   12.53    9.34
   0  -5   8    6.33    8.78
   0  -5   8   16.08    8.25
   0  -5  -8    5.56    9.23
   0  -5  -8   -2.20    8.90
   0  -5  -8    0.78    8.35
   0   5   8   -1.09    5.85
   0  -5  -9   21.39    9.63
   0  -5  -9   18.47    8.10
   0  -5  -9   10.55    9.80
   0  -5   9   24.99    9.57
   0  -5  -9   28.66    9.77
   0   5   9   21.29    6.54
   0   5  10   34.96    6.69
   0  -5  10   57.90   11.63
   0  -5 -10   51.37    8.38
   0  -5 -10   66.19   10.95
   0  -5 -10   52.17   11.20
   0  -5 -10   37.96   11.46
   0  -5 -11    0.39    7.13
   0  -5  11    5.88    9.74
   0  -5 -11   -2.44   12.29
   0  -5 -11    9.52   10.58
   0  -5 -12   -3.28   12.09
   0  -5  12    2.03    9.84
   0   6   0   15.11    8.34
   0  -6   0    9.39    9.55
   0  -6   0   25.40   11.77
   0  -6   1   88.68   14.48
   0  -6  -1   95.78   14.14
   0   6   1   81.43   11.51
   0  -6  -1   85.49   12.30
   0  -6   1  105.85   12.74
   0  -6   1   92.88   12.02
   0   6  -1  105.37   12.29
   0  -6   2   16.41   10.26
   0  -6   2   14.96    8.12
   0  -6  -2   10.01   10.74
   0  -6  -2    8.82   11.25
   0   6  -2   13.09    8.72
   0  -6   2    3.95   10.90
   0  -6   2   13.08    9.58
   0   6   2    8.86    8.07
   0   6  -3    9.78    9.09
   0  -6   3  -12.07   12.03
   0  -6  -3   10.28   10.52
   0  -6  -3    7.08   11.00
   0   6   3    1.57    8.78
   0  -6   3    8.21    9.90
   0  -6   3    6.66    7.09
   0  -6  -4   24.00   11.73
   0  -6   4    5.97    6.69
   0  -6   4    6.19    8.87
   0   6   4   11.52    9.01
   0  -6  -4   -2.85   10.81
   0  -6  -4    2.02   12.19
   0  -6   4   15.34   11.29
   0  -6   5   24.92   12.27
   0  -6  -5   20.56   12.77
   0  -6  -5   57.07   12.49
   0  -6  -5   14.41    9.89
   0   6   5   38.16    9.15
   0  -6  -5   46.58   12.66
   0  -6   5   41.17    8.20
   0  -6  -6   -6.59   12.40
   0   6   6   13.80    8.68
   0  -6   6   22.86    7.32
   0  -6  -6    0.76   12.78
   0  -6  -6    1.74    9.45
   0  -6  -6   13.25   11.45
   0  -6  -7   55.76   13.02
   0  -6  -7   61.50   13.83
   0   6   7   78.44   10.23
   0  -6  -7   49.65   12.37
   0  -6  -7   65.23   11.36
   0  -6  -8   14.27   13.51
   0  -6  -8   -4.12   10.32
   0  -6  -9   42.54   12.80
   0  -6 -10   20.20   11.34
  -1   0  19   28.26    9.78
  -1   0  19  -13.45   12.38
  -1   0  19    7.13   10.61
  -1   0  18   -4.72   12.14
  -1   0  18    0.83    9.69
  -1   0  17   22.59    4.94
  -1   0  17   47.05   11.15
  -1   0  17   39.07    9.97
  -1   0  17   41.97    5.94
  -1   0  16    3.61    4.85
  -1   0  16    3.65    8.24
  -1   0  16   -1.74    4.82
  -1   0  16  -11.03    9.81
  -1   0  15   71.71   11.62
  -1   0  15   68.16    6.70
  -1   0  15   62.78    7.26
  -1   0  14    1.78    8.66
  -1   0  14    2.88    5.47
  -1   0  14    4.94    4.24
  -1   0  13   26.27    4.72
  -1   0  13   29.12    8.61
  -1   0  13   23.47    5.79
  -1   0  12    3.14    5.34
  -1   0  12    4.70    3.89
  -1   0  12   -0.51    8.50
  -1   0  11  845.25   41.34
  -1   0  11  924.31   43.71
  -1   0  11  846.71   41.50
  -1   0  10    1.03    3.91
  -1   0  10   -0.88    6.83
  -1   0   9    6.85    6.24
  -1   0   9   10.79    3.59
  -1   0   8    5.47    5.86
  -1   0   8   -0.66    3.21
  -1   0   7  344.51   17.84
  -1   0   7  405.46   19.74
  -1   0   6    6.59    5.09
  -1   0   6    0.78    2.81
  -1   0   5 4123.90  188.75
  -1   0   5 4023.27  189.70
  -1   0   4    2.58    2.56
  -1   0   4    6.85    4.66
   1   0  -4   -2.20    2.21
   1   0  -3  192.02    9.51
  -1   0  -3 2207.30  101.78
   1   0   4    4.61    4.28
   1   0   5 5529.61  255.67
   1   0   6   -0.08    0.19
   1   0   6    5.23    4.89
   1   0   7  175.70    8.05
   1   0   7  141.18    3.94
   1   0   8    2.83    5.22
   1   0   8   -0.11    0.22
   1   0   8    1.83    2.13
   1   0   9   41.75    3.21
   1   0   9   47.89    7.38
   1   0  10   -1.85    2.85
   1   0  10   -0.14    0.53
   1   0  11 1119.17   45.35
   1   0  11 1063.36   42.44
   1   0  12   -6.49    8.32
   1   0  12    2.30    3.02
   1   0  12    2.80    3.92
   1   0  13   14.09    7.95
   1   0  13   21.24    4.15
   1   0  13   19.96    3.61
   1   0  14    2.94    8.98
   1   0  14    1.07    3.12
   1   0  15   31.82    4.52
   1   0  15   40.32    4.20
   1   0  15   31.82    9.86
   1   0  16    1.37    9.91
   1   0  16   13.13    9.94
   1   0  16   -5.19    3.26
   1   0  17   39.67   10.83
   1   0  17   60.91    8.87
   1   0  17   49.96   11.29
   1   0  18   -1.57   11.19
   1   0  18    0.88    9.58
  -1   0 -18   11.23    8.64
  -1   0 -19   -2.48    8.86
   1   0  19    6.66   11.52
  -1   1  19   12.61   10.35
   1   1 -19   13.23    9.13
  -1   1  19   10.13   11.90
  -1  -1  19    4.74   11.22
  -1   1  18   14.68    9.98
  -1  -1  18   10.85    7.02
  -1  -1  18   10.43    6.68
  -1  -1  18   15.70   11.18
   1   1 -18   -1.24    9.30
  -1   1  18   12.14   11.87
  -1   1  17   -0.12    1.93
  -1  -1  17    7.85   11.43
  -1   1  17   -0.59    7.72
  -1  -1  17   -2.07    6.25
  -1   1  17    4.07    9.62
  -1   1  17   -3.46    8.73
   1   1 -17    6.48    7.35
  -1  -1  17    7.79    6.54
  -1  -1  16   20.28    6.38
  -1   1  16   11.41    8.95
  -1  -1  16   22.01   10.57
  -1  -1  16   16.73    6.48
   1   1 -16   12.25    8.34
  -1   1  16   24.40    9.22
  -1   1  16   11.83    2.97
  -1   1  16   15.00    7.55
  -1   1  15    1.64    2.86
   1   1 -15    8.38    7.79
  -1   1  15   26.41    8.73
  -1  -1  15    9.89    9.40
  -1  -1  15    2.94    6.02
  -1  -1  15    4.52    5.51
  -1   1  15    2.30    8.44
  -1   1  15    0.52    7.17
  -1   1  15   -3.20    3.89
  -1   1  14  223.58   16.32
  -1  -1  14  231.45   14.10
  -1   1  14  224.45   12.10
  -1   1  14  198.94   11.66
  -1  -1  14  209.89   13.28
   1   1 -14  210.03   14.66
  -1   1  14  229.75   15.02
  -1  -1  14  221.97   16.84
  -1  -1  13    5.06    5.53
  -1   1  13   13.36    8.11
  -1   1  13   19.07    7.45
  -1   1  13    4.17    4.21
   1   1 -13   13.30    6.52
  -1   1  13   10.59    8.22
  -1  -1  13    6.14    5.28
  -1  -1  13   22.31    9.49
  -1   1  12  265.76   18.37
  -1   1  12  295.98   15.06
  -1  -1  12  294.73   16.78
  -1  -1  12  274.92   16.08
  -1  -1  12  299.21   18.99
  -1   1  12  310.13   17.51
   1   1 -12  264.39   17.08
  -1   1  12  300.06   19.06
  -1   1  11   54.97    9.04
  -1  -1  11   34.43    5.60
  -1   1  11   37.39    7.95
  -1  -1  11   40.12    5.26
  -1   1  11   50.56    6.97
  -1  -1  10   36.71    4.98
  -1  -1  10   43.40    4.99
  -1   1  10   37.63    7.56
  -1   1  10   48.73    7.14
  -1   1  10   58.91    8.04
  -1  -1   9  362.42   11.98
  -1   1   9  389.01   13.98
  -1  -1   9  368.66   11.00
   1  -1  -9  362.14   14.25
  -1   1   9  409.43   12.73
   1  -1  -9  371.74    9.47
   1  -1  -8  687.68   36.14
  -1   1   8  776.59   36.22
   1  -1  -8  720.65   34.17
  -1  -1   8  744.87   35.44
  -1   1   8  726.60   35.39
  -1   1   8  695.90   34.31
   1  -1  -7  968.06   44.64
  -1   1   7 1053.43   46.37
   1  -1  -7  988.23   46.11
  -1   1   7 1024.83   44.84
  -1  -1   7  949.39   45.74
  -1   1   7  997.20   45.72
  -1   1   6  154.49    9.33
   1  -1  -6  139.40    7.74
  -1  -1   6  136.72    8.75
  -1   1   6  148.23    8.75
   1  -1  -6  146.84    9.05
  -1   1   6  136.17    7.92
  -1   1   5  173.97    9.44
  -1  -1   5  153.33    9.33
  -1   1   5  174.74    9.97
   1  -1  -5  155.62    8.55
  -1   1   5  156.69    8.66
   1  -1  -4 3899.86  184.62
  -1   1   4 4132.34  185.24
  -1  -1   4 4080.28  185.28
  -1   1   4 4075.64  185.38
  -1   1   4 3823.07  184.73
   1   1  -4 4096.96  184.44
   1  -1  -4 3970.12  185.04
   1  -1  -3  212.01   10.51
   1   1  -3  241.09   10.50
   1  -1  -3  160.53   10.66
  -1  -1   3  229.59   10.90
  -1   1   3  208.10   10.52
  -1   1   3  137.44   10.85
  -1   1   2  296.92   15.07
   1   1  -2  318.46   14.79
  -1  -1   2  289.35   14.21
   1  -1  -2  307.41   15.01
  -1   1   1  606.91   28.24
   1   1  -1  572.04   28.05
   1   1   0  579.75   27.59
  -1  -1  -1  459.46   21.99
  -1  -1  -2 3994.29  183.73
   1  -1   2 3920.91  183.87
   1  -1   2 4103.69  184.38
   1  -1   2 4273.86  183.96
  -1   1  -2 4126.34  183.90
  -1  -1  -2 3705.97  184.15
  -1  -1  -2 4045.90  184.17
   1  -1   2 3704.35  183.98
  -1  -1  -3 2177.16  100.93
   1  -1   3 2171.36  101.23
  -1   1  -3 2193.90  100.72
  -1  -1  -3 2050.53  101.12
   1  -1   3 2215.18  100.73
  -1   1  -3 2125.93  100.78
   1   1   3 2269.16  101.31
  -1   1  -3 2118.58  101.18
  -1  -1  -3 2167.12  100.30
  -1  -1  -3 2216.88  100.73
  -1  -1  -4  241.03   12.08
   1  -1   4  222.12   12.61
  -1   1  -4  251.98   12.79
  -1  -1  -4  238.61   12.93
  -1   1  -4  263.63   12.42
  -1   1  -4  245.81   12.33
  -1  -1  -4  233.32   11.43
  -1  -1  -4  231.91   12.60
   1   1   4  236.14   12.67
   1   1   4  232.96   13.03
   1  -1   5   -2.06    3.16
   1   1   5   -2.53    3.83
  -1  -1  -5    2.52    4.01
  -1   1  -5    4.20    2.96
  -1   1  -5    0.45    2.71
   1   1   5   -1.14    3.46
   1   1   5   -1.02    2.99
   1   1   6  539.87   27.43
  -1  -1  -6  587.02   27.48
  -1   1  -6  572.43   27.18
   1   1   6  511.51   27.80
   1  -1   6  535.23   27.15
  -1   1  -6  543.46   26.79
   1   1   6  551.75   26.71
   1   1   7   79.96    7.72
  -1   1  -7   72.16    5.83
   1   1   7   78.46    6.40
  -1  -1  -7   77.44    7.34
   1  -1   7   73.67    5.98
   1   1   7   72.39    5.72
   1  -1   8 1329.70   60.83
  -1  -1  -8 1251.97   61.51
  -1   1  -8 1281.52   60.58
   1   1   8 1095.63   61.51
   1   1   8 1313.36   61.32
   1   1   8 1327.56   60.39
   1  -1   9    6.13    4.02
   1   1   9   15.24    6.02
  -1   1  -9   16.05    4.73
   1   1   9   17.08    6.47
   1   1   9    9.08    4.50
   1  -1  10    0.65    4.14
   1   1  10    2.70    7.40
   1   1  10    9.61    6.31
   1   1  10    2.52    4.97
  -1   1 -10    6.82    5.69
  -1   1 -11  112.21    9.44
   1   1  11  114.94    8.81
   1   1  11  107.98   11.06
   1  -1  11   99.81    7.85
   1   1  11  124.56   11.19
   1  -1  11  102.56    8.29
   1  -1  12   59.40   10.35
   1  -1  12   46.53    6.10
   1   1  12   44.89    7.25
   1   1  12   67.73    8.54
   1   1  12   79.57   10.05
   1  -1  12   46.37    6.62
  -1   1 -12   70.56    7.71
   1  -1  13   30.10    5.76
  -1   1 -13   31.27    6.95
   1  -1  13   38.86    9.24
   1  -1  13   21.97    5.13
   1   1  13   49.45    8.53
   1   1  13   21.19    6.83
   1   1  13   24.50    8.36
   1  -1  14   79.29   11.88
   1  -1  14   70.56    7.61
   1   1  14   80.00    8.46
   1  -1  14   66.31    7.15
   1   1  14   67.05   10.74
   1   1  14   83.48   10.59
  -1   1 -14   64.23    8.08
   1  -1  15   20.23    9.64
   1  -1  15    8.16    5.33
   1  -1  15    7.75    5.54
   1   1  15    0.43    6.85
   1   1  15    4.82    8.62
   1   1  15    7.51    8.55
  -1   1 -15   14.30    6.89
   1   1  16   22.83    9.57
  -1   1 -16   14.82    6.91
   1   1  16    6.83    9.77
   1   1  16   10.09    7.16
   1  -1  16   20.99    5.92
   1  -1  16   12.18    9.75
   1  -1  16   12.82    6.06
   1   1  17   25.35   10.78
  -1   1 -17   12.39    7.93
   1  -1  17   15.61    6.60
   1   1  17   22.63   10.62
   1  -1  17   27.47    6.32
   1   1  17    2.95    7.69
   1  -1  17   31.72   10.32
  -1   1 -18    2.39    9.13
   1  -1  18    9.67   11.13
   1   1  18    5.77   10.61
   1   1  19    6.31   11.53
  -1   1 -19    3.80   10.11
   1  -1  19    2.36   11.15
   1   2 -19    9.00    9.97
  -1   2  18   -2.95   13.03
   1   2 -18   -6.66    9.49
  -1  -2  18    0.71    8.07
  -1  -2  18   13.78   12.62
  -1   2  18   -7.49   11.66
  -1  -2  18    1.36    8.43
   1   2 -18    4.56    8.35
  -1  -2  17   13.95   12.29
   1   2 -17    2.15    8.24
  -1  -2  17    9.68    8.03
  -1  -2  17    8.07    7.41
   1   2 -17    8.83    8.17
  -1   2  17   13.23   10.54
  -1  -2  16   -6.60    7.33
   1   2 -16    3.03    7.39
  -1  -2  16   11.63   10.19
  -1   2  16    1.74    9.59
  -1   2  16   -0.96   10.92
   1   2 -16   11.31    8.36
  -1  -2  16   -4.00    6.98
  -1   2  15    4.06   10.07
   1   2 -15    0.94    6.78
  -1  -2  15    4.47    6.79
  -1  -2  15    3.84    7.26
  -1   2  15    0.91    9.09
   1   2 -15    0.56    6.83
  -1   2  14    6.03    9.16
   1   2 -14   -0.44    6.21
  -1   2  14    4.45    2.29
   1   2 -14    1.57    7.21
  -1   2  14  -11.00    9.54
  -1  -2  14    1.64    6.39
  -1  -2  14   -0.61    6.53
  -1   2  13   10.38    3.08
  -1  -2  13    4.04    6.48
   1   2 -13    7.97    6.05
   1   2 -13   12.15    6.89
   1  -2 -13   12.66    9.86
  -1  -2  13    7.17    6.45
  -1   2  13    3.94    8.96
  -1   2  12  107.73   11.68
   1   2 -12  111.23    9.70
  -1  -2  12  111.16   10.17
   1  -2 -12  104.77    6.75
  -1   2  12  116.31    7.24
  -1   2  12  104.81   12.13
   1  -2 -12  127.55   11.76
   1   2 -12  107.98    9.29
   1  -2 -11   73.12    5.45
  -1   2  11   61.13    9.42
  -1   2  11   55.32    5.10
   1   2 -11   53.13    7.57
   1  -2 -11   67.03   10.32
  -1  -2  11   74.93    8.26
  -1   2  11   52.11    9.35
   1   2 -11   51.40    6.97
  -1   2  10   18.57    7.19
   1  -2 -10    8.23    3.80
  -1   2  10   -0.46    0.86
  -1  -2  10   15.48    5.70
   1   2 -10   22.44    5.95
   1   2 -10    9.55    5.04
   1  -2 -10   23.24    7.52
   1   2  -9    3.50    5.65
   1   2  -9    6.38    4.78
  -1  -2   9   12.32    5.36
   1  -2  -9   -0.41    6.57
  -1   2   9   -0.70    3.61
   1   2  -9    3.12    4.88
   1  -2  -9    4.85    4.02
  -1   2   9   -2.51    6.46
   1  -2  -8  345.80   17.93
   1   2  -8  356.48   18.25
   1   2  -8  368.82   19.26
  -1   2   8  349.63   18.25
  -1   2   8  370.34   20.25
   1  -2  -8  369.55   19.76
   1   2  -8  317.82   18.79
  -1  -2   8  377.46   19.79
   1   2  -7   34.13    5.26
   1   2  -7   44.16    4.68
   1  -2  -7   33.71    6.34
   1  -2  -7   48.88    4.83
  -1   2   7   36.61    4.57
  -1  -2   7   63.40    6.10
  -1  -2   6 2087.81   99.17
   1  -2  -6 2089.36   98.94
   1   2  -6 2171.45   98.46
   1  -2  -6 2101.94   97.96
   1  -2  -6 2034.68   98.60
  -1   2   6 2095.44   98.12
   1  -2  -5  946.71   45.28
  -1   2   5  947.13   44.84
   1  -2  -5  934.76   45.48
   1   2  -5  947.51   44.83
   1  -2  -5  916.49   44.71
  -1  -2   5  910.72   45.53
   1  -2  -4  235.22   13.72
  -1   2   4  225.84   12.85
   1   2  -4  236.03   12.84
   1  -2  -4  234.93   12.89
  -1  -2   4  246.05   11.93
  -1  -2   4  204.58   13.30
   1  -2  -3   19.38    3.86
  -1  -2   3   15.67    2.78
  -1  -2   3    9.93    3.62
  -1   2   3   14.63    3.58
  -1   2   2  616.60   28.90
  -1  -2   2  549.52   28.15
   1   2  -2  573.89   28.77
   1  -2  -2  591.54   28.74
  -1   2   1 2197.99  100.66
   1  -2  -1 2075.05  100.54
  -1  -2   1 2282.12  100.06
  -1  -2   1 1923.44  100.55
   1   2  -1 2209.30  100.57
   1   2   0 3141.04  145.12
  -1  -2   0 3035.60  145.26
  -1   2   0 3186.92  145.43
  -1  -2  -1  914.51   42.95
   1   2   1  874.30   42.73
   1   2   2  678.48   32.99
  -1  -2  -2  689.28   33.20
   1  -2   3   24.36    3.88
  -1  -2  -3   19.25    3.55
   1   2   3   26.88    3.42
   1  -2   3   22.20    3.69
   1  -2   3   19.83    4.79
   1  -2   4   10.90    3.27
  -1  -2  -4    9.81    4.65
  -1   2  -4   15.86    4.19
   1   2   4   12.08    2.93
  -1  -2  -4    4.63    4.83
  -1  -2  -4    9.22    3.05
   1  -2   4   17.60    4.73
   1  -2   4    9.97    3.64
  -1  -2  -4    3.68    4.06
  -1   2  -5 1276.60   62.39
  -1  -2  -5 1352.73   61.94
   1  -2   5 1337.74   61.75
  -1  -2  -5 1300.96   61.12
   1   2   5 1261.78   61.06
   1  -2   5 1313.10   62.56
  -1  -2  -5 1282.88   62.47
  -1  -2  -5 1311.58   62.14
  -1   2  -6   10.56    4.23
   1  -2   6    3.88    4.62
  -1  -2  -6    9.32    3.09
  -1  -2  -6   13.32    4.41
  -1  -2  -6   11.71    4.82
  -1  -2  -6   18.24    5.40
   1   2   6   -0.16    0.18
  -1   2  -6    7.09    4.22
   1  -2   6   12.74    4.09
   1  -2   7  501.64   25.88
  -1   2  -7  547.42   26.03
  -1  -2  -7  492.15   25.60
  -1   2  -7  500.43   25.01
  -1  -2  -7  496.65   23.67
   1   2   7  472.19   23.72
  -1   2  -8    5.76    5.05
   1   2   8    7.98    1.77
  -1   2  -8    8.86    4.67
  -1  -2  -8    5.67    2.39
  -1  -2  -8    4.05    6.51
   1  -2   8   15.79    5.48
  -1   2  -9   39.39    5.87
  -1   2  -9   43.27    6.59
  -1  -2  -9   21.59    2.18
  -1  -2  -9   34.24    7.73
   1  -2   9   35.45    6.08
   1   2   9   28.20    7.61
   1  -2  10  183.03   12.78
  -1  -2 -10  211.44   13.87
   1   2  10  196.37   14.65
  -1   2 -10  181.74   12.28
   1   2  10  186.86   14.06
  -1   2 -10  187.44   12.27
  -1  -2 -11  380.76   22.47
  -1   2 -11  403.72   20.86
   1  -2  11  384.89   21.23
   1   2  11  341.79   22.03
  -1   2 -11  356.86   20.39
   1   2  11  358.04   22.85
  -1   2 -12   19.23    6.59
   1   2  12   12.72    9.11
   1   2  12   23.84    8.24
  -1   2 -12   15.99    6.51
  -1  -2 -12   17.98    9.69
   1  -2  12   20.19    6.55
  -1   2 -13   23.21    6.68
  -1   2 -13   26.54    7.13
   1  -2  13   18.43    6.55
   1   2  13    2.43    8.90
   1   2  13   14.22    8.16
  -1   2 -14   12.94    5.91
   1  -2  14   12.45    6.70
  -1   2 -14   16.36    7.58
   1   2  14    5.60    8.01
   1   2  14    6.98    9.65
   1  -2  14    1.90    5.69
   1  -2  15   48.02    7.34
   1  -2  15   51.69    8.07
   1   2  15   21.12    9.79
   1   2  15   40.06   11.80
   1  -2  15   60.91   12.00
  -1   2 -15   35.11    8.31
  -1   2 -15   31.25    8.45
   1   2  16   37.63   11.16
  -1   2 -16   36.76    8.56
   1   2  16   40.51   11.44
   1  -2  16   44.33    7.42
  -1   2 -16   67.25    9.97
   1  -2  16   71.35   13.11
   1  -2  16   58.09    8.83
   1   2  17   -4.34   11.82
  -1   2 -17   -1.86    8.70
   1  -2  17   15.08    7.40
   1   2  17    1.05   11.70
   1  -2  17   12.96    7.85
   1  -2  17   22.00   13.38
  -1   2 -17   -2.40    8.67
   1   2  18   -5.54   12.13
  -1   2 -18    1.31    9.40
   1  -2  18   19.25   13.39
  -1   2 -18    5.70    8.34
  -1   2 -19    9.57   12.28
   1   2  19  -11.73   14.10
  -1  -3  18   -4.65    9.81
  -1  -3  18    8.09   11.04
   1   3 -17   17.06    8.00
  -1  -3  17   25.11   11.60
  -1  -3  17    2.26    9.25
  -1  -3  16   32.43    9.46
  -1  -3  16   47.34   11.28
   1   3 -16   47.93   10.60
   1   3 -16   43.63    8.35
  -1  -3  15   16.78    8.43
  -1  -3  15   34.15    9.70
   1   3 -15   25.37    7.16
   1  -3 -15   32.36   12.58
   1   3 -15   23.17    8.79
  -1  -3  14   24.93    8.86
   1   3 -14    2.08    6.34
   1  -3 -14    5.42    2.78
   1   3 -14   13.75    8.35
   1  -3 -14   19.91   11.18
  -1  -3  13    0.72    7.63
  -1   3  13    1.89    3.39
   1   3 -13    5.48    7.57
   1  -3 -13    2.60    3.84
   1  -3 -13    5.99    9.58
   1  -3 -12   21.47    5.02
   1  -3 -12   16.22    9.13
   1   3 -12   22.05    7.48
  -1   3  12   13.65    3.72
  -1  -3  12   19.93    7.39
  -1  -3  11   17.67    7.39
   1  -3 -11   22.89    8.59
   1   3 -11   19.89    7.33
  -1   3  11   10.73    4.10
   1  -3 -11   16.41    5.19
  -1   3  10  476.21   23.93
   1   3 -10  491.50   25.45
  -1  -3  10  503.04   26.62
   1  -3 -10  429.94   26.11
   1  -3 -10  474.73   26.19
   1  -3 -10  439.41   23.55
   1  -3  -9  286.58   18.13
   1  -3  -9  308.75   18.12
  -1   3   9  263.43   15.64
   1   3  -9  271.60   16.82
  -1  -3   9  274.45   17.83
   1  -3  -9  295.33   15.73
   1  -3  -8   88.54   10.06
   1  -3  -8  108.46    9.48
   1  -3  -8  117.86    8.83
   1  -3  -8  106.41    9.92
   1   3  -8  105.01    9.07
  -1   3   8   88.43    7.72
  -1  -3   8   83.69    9.15
   1  -3  -7  104.42   10.88
   1  -3  -7  129.35    9.92
  -1  -3   7  110.45    9.45
  -1   3   7  148.36    9.53
   1  -3  -7  151.27   10.96
   1   3  -7  141.68   10.20
  -1  -3   7  123.33   10.53
   1  -3  -7  144.04   10.87
  -1  -3   6  106.46    9.15
   1  -3  -6   91.99    9.20
  -1   3   6   88.88    7.90
   1  -3  -6  118.62    9.69
   1  -3  -6   71.97    8.67
   1   3  -6  107.49    8.61
  -1  -3   5   40.45    4.60
  -1  -3   5   29.09    6.23
   1  -3  -5   21.53    7.16
   1  -3  -5   39.62    6.42
  -1   3   5   33.95    5.37
   1  -3  -5   26.36    6.45
  -1  -3   4  168.22    9.97
  -1  -3   4  193.11   11.25
  -1   3   4  190.59   11.56
   1  -3  -4  167.38   11.60
   1  -3  -4  160.18   12.60
   1  -3  -3 1042.07   51.09
  -1   3   3 1054.25   51.20
  -1  -3   3 1015.00   50.35
   1   3  -3 1088.74   51.36
  -1   3   2  179.45   12.33
   1   3  -2  210.61   12.29
  -1  -3   2  196.87   12.70
  -1  -3   2  190.63   11.58
   1  -3  -2  197.51   12.68
  -1   3   1  165.93   11.13
   1   3  -1  158.12   10.71
   1  -3  -1  169.58   11.41
  -1  -3   1  164.19   10.31
  -1  -3   1  150.76   11.05
  -1  -3   0   99.88    8.58
   1   3   0  119.26    8.47
  -1   3   0  109.60    8.51
   1  -3   0   94.75    8.62
   1   3   1    0.73    3.62
  -1   3  -1    0.44    4.35
  -1  -3  -1    3.64    4.43
   1   3   2   10.11    4.31
  -1  -3  -2   27.34    5.66
  -1  -3  -3  304.82   16.47
   1   3   3  274.15   15.71
   1  -3   3  279.16   15.49
   1  -3   3  300.24   16.19
   1  -3   4  305.92   18.57
   1  -3   4  321.47   16.99
   1  -3   4  313.55   17.45
   1   3   4  319.41   17.07
  -1  -3  -4  322.63   18.84
  -1  -3  -4  318.89   17.46
  -1  -3  -5  -10.28    7.81
   1  -3   5    7.82    5.27
  -1  -3  -5    5.13    6.01
   1  -3   5    1.65    4.90
   1   3   5    1.81    3.76
  -1   3  -5    5.87    5.03
   1  -3   5    5.16    5.10
  -1  -3  -5   -8.65    6.33
  -1  -3  -5    1.90    4.82
   1   3   6  337.91   18.89
  -1  -3  -6  367.32   20.51
   1  -3   6  354.48   21.00
  -1  -3  -6  378.56   19.40
  -1   3  -6  379.27   20.67
  -1  -3  -6  376.59   20.74
   1  -3   6  357.94   19.80
  -1  -3  -6  380.03   20.96
   1   3   7    9.21    3.65
   1  -3   7   22.48    6.31
   1  -3   7    7.25    5.85
  -1   3  -7   16.21    5.68
  -1  -3  -7   17.64    7.19
  -1  -3  -7    3.98    5.69
  -1  -3  -7   17.11    7.11
  -1  -3  -7   24.54    7.36
  -1  -3  -8   47.30    8.34
   1   3   8   26.62    3.70
  -1   3  -8   45.17    6.70
   1  -3   8   28.29    7.38
  -1  -3  -8   36.79    8.74
  -1  -3  -8   39.61    5.36
  -1  -3  -8   45.01    7.06
  -1  -3  -9    4.35    4.19
   1  -3   9   10.80    6.47
   1   3   9    6.33    2.82
  -1  -3  -9   -0.50    7.65
  -1  -3 -10   38.18    4.08
   1   3  10   40.45    3.67
   1  -3  10   36.78    7.25
  -1  -3 -10   38.77    7.58
   1  -3  11   67.53    8.97
  -1  -3 -11   73.74    9.30
  -1  -3 -11   40.70    3.26
  -1  -3 -12   11.61    9.05
   1  -3  12   26.43    7.81
   1  -3  13   63.64    9.81
  -1  -3 -13   65.15   12.13
  -1   3 -13   50.70    8.36
  -1   3 -14   -2.05    7.33
   1  -3  14   11.06    8.40
  -1  -3 -14   10.34   11.24
  -1   3 -15    2.18    7.70
   1  -3  15    6.14    8.27
  -1   3 -16   15.03    8.76
   1  -3  16   23.88   10.09
   1  -3  16   24.33    8.67
  -1   3 -17    6.65   10.16
  -1  -4  17    8.21   10.40
  -1  -4  16    8.81   10.76
  -1  -4  16    9.01   11.38
   1  -4 -16   29.56   15.17
   1  -4 -15   29.97   14.50
   1   4 -15   18.22   10.16
  -1  -4  15   21.05   10.33
   1  -4 -14   15.76   12.72
   1   4 -14    1.49    9.40
  -1  -4  14    6.40   10.02
   1  -4 -13   27.69    6.31
   1  -4 -13   35.74   11.94
   1   4 -13   32.12    8.80
  -1  -4  13   32.34   10.15
  -1   4  13   24.89    4.99
   1  -4 -12    2.80    8.83
   1   4 -12   12.45    8.59
  -1  -4  12   11.74    8.42
   1  -4 -12   15.19    6.07
  -1   4  12    6.60    4.93
   1   4 -11    1.84    7.92
   1  -4 -11   11.94    8.64
   1  -4 -11   -4.10    9.09
   1  -4 -11    1.96    6.51
  -1  -4  11    4.02    8.57
  -1   4  11    2.42    5.14
   1  -4 -10   77.25   10.09
  -1   4  10   64.19    7.42
   1   4 -10   51.04    8.45
   1  -4 -10   67.33    8.29
   1  -4 -10   33.06   10.06
  -1  -4  10   42.73    9.57
   1  -4  -9   38.83    8.59
   1  -4  -9   38.70    8.59
  -1  -4   9   38.98    8.41
   1  -4  -9   37.13    7.24
   1  -4  -9   31.12   10.14
  -1   4   9   37.44    6.46
   1  -4  -8    9.11    7.31
   1  -4  -8    7.76    7.80
   1  -4  -8   25.90    8.45
  -1   4   8   10.76    5.82
  -1  -4   8   20.32    7.48
   1  -4  -8   10.01    8.01
  -1  -4   8   24.65    7.11
   1  -4  -7  131.69   11.53
   1  -4  -7  136.99   12.32
  -1  -4   7  130.39   11.98
  -1   4   7  137.04   10.62
   1  -4  -7  149.13   12.94
   1  -4  -7  149.59   12.82
  -1   4   6  173.36   12.07
  -1  -4   6  164.21   10.60
   1  -4  -6  176.66   13.81
  -1  -4   6  135.10   13.09
   1  -4  -6  173.91   14.15
   1  -4  -6  189.63   12.78
   1  -4  -6  186.53   14.33
   1  -4  -5   54.61    8.55
  -1   4   5   29.05    6.46
   1  -4  -5   27.20    8.63
  -1  -4   5   39.21    5.60
  -1  -4   5   47.09    7.39
   1  -4  -5   25.10    8.33
  -1  -4   4   16.56    4.95
  -1  -4   4    7.08    5.95
   1  -4  -4   24.57    7.72
  -1   4   4   16.22    6.06
   1   4  -4   16.95    6.41
   1  -4  -3   -3.28    6.99
  -1  -4   3    1.90    6.55
  -1   4   3    0.54    5.95
   1   4  -3   -3.42    5.59
  -1  -4   3    5.74    6.13
   1  -4  -2   18.27    7.60
  -1   4   2   24.14    6.63
  -1  -4   2   30.77    6.73
   1   4  -2   24.38    6.72
  -1  -4   2   35.28    7.50
  -1  -4   1    1.26    6.14
   1   4  -1    1.61    5.68
  -1  -4   1   17.49    6.71
   1  -4  -1   -2.38    7.89
  -1   4   1    6.17    6.03
  -1  -4   0  561.45   30.69
  -1   4   0  547.95   30.31
  -1  -4   0  600.28   29.70
   1  -4   0  581.79   31.14
   1   4   0  540.30   29.75
   1   4   1  826.06   43.49
   1  -4   1  865.28   44.61
  -1   4  -1  862.82   44.12
  -1  -4  -1  918.48   44.20
  -1  -4  -2   32.58    8.71
  -1   4  -2   43.85    7.55
   1  -4   2   34.07    8.65
   1   4   2   42.35    6.87
  -1  -4  -3  170.08   13.30
   1  -4   3  180.40   11.43
  -1   4  -3  159.45   13.08
   1   4   3  185.86   12.13
   1  -4   3  174.82   12.54
   1   4   4  335.71   19.13
   1  -4   4  309.98   19.14
   1  -4   4  343.88   18.47
  -1  -4  -4  357.28   20.15
   1   4   5   23.52    5.89
   1  -4   5   37.13    8.27
  -1  -4  -5   34.81    8.52
   1  -4   5   39.61    6.75
   1  -4   5   35.82    5.93
  -1  -4  -5   31.80    7.32
  -1  -4  -5   29.93    9.16
   1  -4   6  190.76   12.53
  -1  -4  -6  231.45   14.11
  -1   4  -6  181.40   14.45
   1  -4   6  219.99   15.27
  -1  -4  -6  215.39   15.27
  -1  -4  -6  216.58   15.97
   1  -4   6  218.97   13.94
   1   4   6  199.85   13.00
  -1  -4  -6  207.30   15.01
  -1  -4  -7  288.07   18.61
  -1  -4  -7  285.15   18.47
   1  -4   7  283.62   18.61
   1  -4   7  271.24   16.66
  -1  -4  -7  236.92   16.65
  -1  -4  -7  296.14   18.14
   1   4   7  298.18   16.09
  -1   4  -7  249.48   17.63
  -1  -4  -8   10.92    7.38
   1  -4   8    7.39    7.79
  -1  -4  -8   17.89    8.63
  -1   4  -8   -2.02    6.86
   1  -4   8   10.86    6.54
   1   4   8    3.70    4.87
  -1  -4  -8   -3.99    7.84
  -1  -4  -8   -5.61    7.01
  -1  -4  -9  166.36   13.31
   1   4   9  166.22   10.83
   1  -4   9  182.19   14.80
  -1  -4  -9  179.94   14.66
  -1  -4  -9  185.25   14.90
  -1  -4  -9  163.51   11.54
  -1  -4 -10   85.62   11.06
   1  -4  10   95.33   10.32
  -1  -4 -10  120.07   11.75
  -1  -4 -10   79.95    6.72
  -1  -4 -11   -7.21   10.51
   1  -4  11    4.90    7.74
  -1  -4 -11    5.27    4.60
  -1  -4 -12   12.91   10.58
   1  -4  12   15.23    9.15
  -1  -4 -12    7.07    3.29
  -1  -4 -13   10.96   10.70
   1  -4  13   27.33   10.03
  -1  -4 -14   22.41   12.34
   1  -4  14   17.38   10.68
   1  -4  15   14.31   11.08
  -1  -4 -15   26.86   14.10
   1  -4  16   -5.97   13.82
   1  -5 -12   23.34   11.53
  -1  -5  12    9.03   10.42
   1  -5 -12   -1.68   12.26
  -1   5  11   38.87    7.24
   1  -5 -11   72.64   12.44
  -1  -5  11   38.73   11.46
   1  -5 -11   40.04   13.49
   1  -5 -11   38.87    8.78
   1  -5 -10   62.20   11.57
  -1  -5  10   56.41   11.29
   1  -5 -10   62.65   11.72
   1  -5 -10   67.32   11.50
   1  -5 -10   51.45    8.84
  -1   5  10   35.86    7.33
   1  -5  -9   22.71   10.97
  -1  -5   9   11.88    9.19
   1  -5  -9   30.32   10.57
   1  -5  -9   12.81    7.95
   1  -5  -9   15.49    9.21
  -1   5   9    7.96    6.18
   1  -5  -8    3.25    9.92
  -1   5   8    5.31    6.40
   1  -5  -8    6.80    9.66
   1  -5  -8    3.98    8.83
  -1  -5   8   12.57    7.72
   1  -5  -8    4.63    7.76
  -1  -5   8   11.59    9.15
  -1   5   7   21.91    6.99
  -1  -5   7   22.65    8.85
   1  -5  -7    5.43    8.74
   1  -5  -7   13.45    9.40
   1  -5  -7   22.16   10.80
   1  -5  -7   -0.61    9.48
   1  -5  -6    3.17    9.99
   1  -5  -6    0.77    8.86
  -1   5   6    8.75    6.42
  -1  -5   6    4.81    5.33
   1  -5  -6    8.82    8.12
   1  -5  -6    6.61    9.59
  -1   5   5  103.79   10.36
   1  -5  -5  126.86   11.78
   1  -5  -5   78.21   12.66
  -1  -5   5   94.69    8.36
   1  -5  -5  112.73   12.70
  -1  -5   5  119.24   10.80
   1  -5  -4   10.97    7.45
   1  -5  -4    9.90    8.86
  -1  -5   4   18.89    8.34
  -1  -5   4    8.68    7.77
  -1   5   4   10.49    7.01
  -1  -5   4   16.65    7.27
  -1  -5   4    8.76    6.00
  -1  -5   3   -0.81    7.83
   1   5  -3    2.14    6.18
   1  -5  -3    4.95    8.98
  -1   5   3   13.40    7.26
  -1  -5   3    4.11    7.72
  -1  -5   3   -0.53    6.97
  -1   5   2    7.54    6.57
  -1  -5   2    9.99    8.18
   1   5  -2    1.40    6.98
  -1  -5   2    2.73    7.43
  -1  -5   2    3.96    7.94
   1  -5  -2    4.42    9.48
  -1  -5   1   11.09    7.59
   1  -5  -1    8.39    9.05
   1  -5  -1   30.10    7.67
   1   5  -1   20.46    7.60
  -1   5   1    9.09    7.36
  -1  -5   1   12.42    8.69
   1   5   0   41.98    7.47
  -1   5   0   32.92    7.97
  -1  -5   0   38.88    9.83
   1  -5   0   36.97    8.50
   1  -5   0   32.13    9.78
  -1  -5   0   46.68    8.87
  -1  -5  -1   40.12    8.79
  -1   5  -1   45.38    8.16
   1  -5   1   45.16   10.54
   1   5   1   44.13    8.21
   1  -5   1   42.70    8.47
  -1  -5  -1   43.17    9.58
  -1   5  -2    6.73    7.11
  -1  -5  -2   -4.30    8.54
   1  -5   2   -5.78    9.90
   1  -5   2   -2.19    7.18
   1   5   2    1.26    6.50
   1  -5   3    7.56    8.60
   1  -5   3   12.46    7.27
   1   5   3    2.46    6.22
  -1  -5  -3    1.38    7.99
   1  -5   3    7.33    6.04
  -1   5  -3    9.15    6.81
   1  -5   4   69.18    9.40
   1   5   4   68.40    8.77
  -1  -5  -4   67.46    9.79
  -1   5  -4   80.88    9.80
   1  -5   4   76.73    9.56
  -1  -5  -4   53.99   11.59
   1  -5   4   68.53    7.71
  -1  -5  -5   21.33    8.62
   1  -5   5   27.98    7.56
  -1  -5  -5   12.35    8.63
  -1  -5  -5    0.81   11.57
   1  -5   5   11.73    5.89
   1   5   5    2.87    6.33
  -1  -5  -5   10.34    9.74
  -1  -5  -6   33.08   10.42
   1  -5   6   45.76    9.61
   1  -5   6   31.02    7.79
   1  -5   6   41.18    7.02
   1   5   6   47.01    7.10
  -1  -5  -6   35.59    9.50
  -1  -5  -6   35.85    9.07
  -1  -5  -6   52.66    8.56
  -1  -5  -7   11.32    9.04
   1   5   7   13.17    5.85
  -1  -5  -7   18.78   10.15
  -1  -5  -7    5.92    8.91
   1  -5   7   21.54    8.02
  -1   5  -7    4.87    6.87
  -1  -5  -7   -5.05    8.36
   1  -5   7   18.82    8.92
  -1  -5  -8    3.08    9.02
   1   5   8    5.96    5.99
  -1  -5  -8    9.99    8.71
  -1  -5  -8  -10.93    8.51
   1  -5   8    3.66    8.83
  -1  -5  -8    3.10    8.71
   1  -5   8   16.64    8.44
  -1  -5  -9   25.31    8.44
  -1  -5  -9   23.38    9.79
  -1  -5  -9   28.93   11.01
  -1  -5  -9   25.71   10.42
   1  -5   9   18.74    9.70
  -1  -5 -10   33.20    9.53
   1  -5  10   36.58   11.26
  -1  -5 -10   42.56   11.80
  -1  -5 -10    7.09   11.59
  -1  -5 -10   33.16    7.69
   1  -5  11   -1.98   10.21
  -1  -5 -11   18.16   12.02
  -1  -5 -12   -0.80   11.43
   1  -5  12   -5.13   12.08
   1  -6 -10   36.71   12.92
   1  -6  -9   10.75   12.31
  -1   6   8   18.77    8.80
   1  -6  -8   22.88   11.96
   1  -6  -8    8.59   11.84
   1  -6  -7    2.68   10.16
   1  -6  -7    3.77   11.61
   1  -6  -7   -5.30   11.94
   1  -6  -7   18.39   11.71
   1  -6  -6   19.70   12.27
  -1  -6   6   49.62   11.16
  -1  -6   6   29.81    7.01
   1  -6  -6   32.77   11.03
  -1   6   6   37.43    9.29
   1  -6  -6   29.68   12.15
   1  -6  -6   43.65   12.38
  -1   6   5   -2.35    7.78
   1  -6  -5    7.30   10.51
   1  -6  -5    4.97   12.48
  -1  -6   5   -2.22    8.98
  -1  -6   5   -9.17   12.00
  -1  -6   5    9.71    6.51
   1  -6  -5   11.68   12.00
  -1  -6   4  130.52   12.88
   1  -6  -4  107.52   16.11
   1  -6  -4   89.36   14.80
   1  -6  -4  132.43   14.76
  -1  -6   4  109.54   10.28
  -1  -6   4  107.96   13.14
  -1   6   4   96.00   11.87
  -1  -6   4   92.53   13.84
   1  -6  -3   -3.11   10.29
  -1   6   3   -4.90    8.28
  -1  -6   3   12.98   10.02
  -1  -6   3    8.05    7.14
  -1  -6   3    2.97   11.61
  -1  -6   3    3.05    9.43
   1  -6  -3   11.39   11.32
   1  -6  -2  117.16   13.42
  -1  -6   2  124.34   13.32
  -1  -6   2   96.40   14.13
  -1  -6   2  117.70   13.24
  -1   6   2   89.15   11.88
   1  -6  -2  106.32   13.75
   1  -6  -1   10.30    8.84
  -1  -6   1   10.75   11.38
  -1  -6   1  -17.18   11.99
  -1  -6   1   -2.85    8.89
   1  -6  -1   -2.77   10.79
  -1  -6   0   33.46   12.13
   1  -6   0   43.78   11.46
   1  -6   0   51.13   11.05
  -1  -6   0   46.63   11.12
  -1   6   0   44.35    9.89
  -1   6  -1   25.73   10.12
   1   6   1   22.89    8.72
  -1  -6  -1    5.42   10.54
  -1  -6  -1   24.71   10.48
   1  -6   1   22.49   11.63
   1  -6   1   20.44    9.51
   1   6   2    8.48    8.13
  -1   6  -2   20.80    9.75
  -1  -6  -2   14.76   10.69
   1  -6   2   20.92   10.85
   1  -6   2   19.32    7.99
   1  -6   2   28.88    9.45
  -1  -6  -2   15.51   10.63
   1   6   3    6.76    8.22
  -1   6  -3    8.27    8.55
   1  -6   3    2.01    7.35
  -1  -6  -3    0.79   11.17
   1  -6   3    1.01   11.27
  -1  -6  -3   -0.84   10.13
   1  -6   3    2.75    9.19
   1  -6   4   46.33    8.27
   1   6   4   47.40   10.00
  -1   6  -4   47.58   10.90
   1  -6   4   76.19   11.40
   1  -6   4   42.20   12.93
  -1  -6  -4   38.85   11.62
  -1  -6  -4   64.63   11.81
  -1  -6  -5   -7.73   13.29
  -1  -6  -5   20.33   11.77
   1  -6   5   -0.73    9.47
  -1   6  -5   19.86    9.56
  -1  -6  -5   -5.83   10.35
  -1  -6  -5   16.18   10.57
   1  -6   6   46.92   10.07
   1  -6   6   38.57    8.43
  -1  -6  -6   58.65   10.79
  -1  -6  -6   40.51   13.59
  -1  -6  -6   47.81   13.47
  -1  -6  -6   32.82   11.59
  -1  -6  -7    0.85   10.49
  -1  -6  -7   -0.89   10.56
  -1  -6  -7   -6.30   11.40
  -1  -6  -7    0.92   12.23
  -1  -6  -8    1.72   13.36
  -1  -6  -9   39.19   12.76
  -1  -6 -10   22.48   13.44
   1  -7   0    2.56    9.17
  -2   0  19  -15.08   13.15
  -2   0  18   25.19    6.40
  -2   0  18   28.79    7.09
  -2   0  18   29.84   11.11
  -2   0  17   -1.70    5.56
  -2   0  17   -8.85   10.66
  -2   0  17    4.57    6.43
  -2   0  16    9.25    6.32
  -2   0  16   11.17    5.46
  -2   0  16   15.12    9.26
  -2   0  15    3.83    9.31
  -2   0  15    1.20    4.99
  -2   0  15    4.63    6.17
  -2   0  14   54.89   10.15
  -2   0  14   41.86    7.07
  -2   0  14   61.29    6.34
  -2   0  13    2.21    8.67
  -2   0  13    4.86    5.87
  -2   0  13    0.71    4.30
  -2   0  12  678.26   34.72
  -2   0  12  760.06   37.13
  -2   0  11   -4.12    5.36
  -2   0  11    0.95    7.43
  -2   0  10    8.39    7.19
  -2   0  10    8.87    4.56
  -2   0   9    5.07    4.17
  -2   0   9    6.09    6.48
  -2   0   8   84.27    8.70
  -2   0   8   85.64    6.27
  -2   0   7    3.29    3.60
  -2   0   7   -0.33    5.86
  -2   0   6 9187.13  422.92
   2   0  -6 9178.81  422.82
   2   0  -5   -3.15    2.95
  -2   0   5    1.92    2.69
   2   0  -4 1367.66   68.92
  -2   0   4 1611.89   69.09
  -2   0   3    4.77    2.83
  -2   0  -1   -4.50    2.01
  -2   0  -2   86.71    4.84
  -2   0  -3    0.88    1.48
  -2   0  -4 3329.30  152.68
   2   0   4 3272.33  153.43
   2   0   5    4.03    4.12
   2   0   6  478.78   24.36
   2   0   7    7.04    5.32
   2   0   7    3.17    1.92
   2   0   8  205.64   12.24
   2   0   8  181.77    9.62
   2   0   8  185.36    9.41
   2   0   9    0.32    2.24
   2   0   9    4.16    6.54
   2   0   9    4.28    2.31
   2   0  10 1673.95   79.24
   2   0  10 1850.37   81.61
   2   0  10 1683.62   79.01
   2   0  11   -4.49    3.15
   2   0  11    4.06    3.15
   2   0  11    6.77    7.81
   2   0  12    6.23    2.75
   2   0  12    4.93    8.08
   2   0  12   14.20    3.16
   2   0  13    5.89    7.40
   2   0  13    2.49    2.80
   2   0  13   -1.28    2.48
   2   0  14   17.49    2.81
   2   0  14   15.69    9.05
   2   0  15   -1.89    9.31
   2   0  16  102.28   12.99
   2   0  16  113.78   10.24
   2   0  16  141.54   13.70
   2   0  17   16.14   11.79
  -2   0 -17   13.96    8.29
   2   0  17  -10.21   11.95
  -2   0 -18    4.53    8.29
   2   0  18    0.91    9.56
  -2   0 -19    9.53    9.02
   2   0  19    7.41   11.24
  -2   1  20   19.66   12.87
  -2  -1  19   -1.58   12.24
  -2   1  19    7.59   10.80
  -2   1  19    4.22    9.42
   2   1 -19   -2.68    9.87
  -2   1  19    7.42   12.20
  -2  -1  18    5.52    6.93
  -2  -1  18   10.49    9.70
  -2  -1  18    2.95    7.08
  -2   1  18   25.11   11.37
  -2   1  18   30.59   11.95
   2   1 -18    7.01    8.59
  -2   1  18   10.68    8.97
  -2  -1  17   19.57    7.10
  -2   1  17   19.60    8.67
   2   1 -17   18.18    8.35
  -2   1  17   17.23    4.32
  -2  -1  17   23.79    7.23
  -2   1  17   35.39   11.24
  -2  -1  17   33.06   11.47
  -2  -1  16    8.31    6.21
   2   1 -16   13.21    7.75
  -2   1  16    5.37    5.24
  -2  -1  16    8.41    6.52
  -2  -1  16   18.58   10.20
  -2   1  16    5.37    7.79
  -2   1  16   13.17   10.39
  -2   1  16    5.67    3.98
  -2   1  15  147.65   10.88
  -2   1  15  146.59   13.09
  -2  -1  15  149.73    9.23
  -2   1  15  132.68    6.50
  -2  -1  15  116.75    7.83
   2   1 -15  134.41    9.81
  -2  -1  15  156.86   12.72
  -2  -1  14   12.63    6.05
  -2  -1  14    7.35    5.96
  -2   1  14   14.00    5.17
  -2  -1  14   25.76    9.96
  -2   1  14   14.77    7.90
  -2   1  14   25.35    8.96
  -2  -1  13   83.24   11.43
  -2   1  13   84.12    9.80
  -2   1  13   81.96   10.60
  -2  -1  13   74.03    7.96
  -2   1  13   88.14    7.59
  -2  -1  13   84.59    8.22
  -2   1  12   43.01    7.98
  -2   1  12   40.92    6.19
  -2  -1  12   36.36    6.44
  -2  -1  12   47.35    6.34
  -2  -1  12   41.06    9.69
  -2   1  12   53.85    9.45
   2  -1 -11   11.31    4.01
  -2   1  11   20.73    5.23
  -2  -1  11    4.31    4.99
  -2   1  11   18.25    7.30
  -2   1  11   16.08    6.91
  -2  -1  11    7.52    4.93
  -2   1  10   12.17    4.93
  -2  -1  10    4.76    3.89
  -2   1  10   14.65    7.19
  -2  -1  10   -1.87    4.98
   2  -1 -10   15.46    7.38
   2  -1 -10   -1.53    3.86
  -2   1  10   14.78    6.84
  -2  -1   9 1591.62   77.19
   2  -1  -9 1582.58   78.43
  -2  -1   9 1664.61   77.81
  -2   1   9 1673.75   77.00
   2  -1  -9 1691.59   76.75
  -2   1   9 1612.27   78.58
  -2   1   9 1600.99   77.98
  -2   1   8    6.00    3.81
   2  -1  -8    2.54    5.53
   2  -1  -8    8.36    3.28
  -2   1   8   17.11    5.12
  -2  -1   8    7.04    3.74
  -2  -1   8    6.07    4.23
  -2   1   8   19.90    6.01
   2  -1  -7  643.68   32.59
  -2   1   7  696.12   32.90
  -2   1   7  700.89   33.73
  -2  -1   7  684.58   33.08
  -2  -1   7  668.32   33.41
  -2   1   7  738.21   34.29
  -2   1   6  149.85    9.67
  -2   1   6  134.51    9.09
   2  -1  -6  138.87    8.08
  -2   1   6  144.06    8.39
   2  -1  -5  353.08   17.57
  -2   1   5  359.57   18.25
   2  -1  -5  355.24   18.25
  -2   1   5  347.10   17.75
  -2   1   4 1409.73   61.78
   2  -1  -4 1380.82   61.21
  -2   1   4 1362.52   61.39
   2  -1  -4 1330.14   61.61
   2   1  -3 1861.86   82.53
  -2   1   3 1582.71   83.19
   2  -1  -3 1705.38   82.82
  -2   1   3 1870.43   82.95
   2   1  -3 1798.26   82.59
  -2   1   2  178.03    9.65
  -2  -1   2  174.69    8.93
   2  -1  -2  143.36    9.55
   2   1  -2  201.25    9.11
   2   1  -2  167.23    9.04
  -2  -1   1  728.30   32.49
  -2  -1   1  651.92   32.57
  -2  -1   0  407.02   19.73
   2  -1   1  190.10   10.45
   2  -1   1  212.37   10.00
  -2  -1  -1  175.79    9.67
  -2  -1  -2 1587.44   72.14
   2  -1   2 1532.94   72.38
  -2  -1  -2 1518.16   72.48
  -2   1  -2 1572.80   72.55
   2  -1   2 1543.82   72.93
  -2   1  -2 1484.73   72.88
  -2  -1  -2 1630.12   72.70
  -2  -1  -3  459.60   20.22
   2  -1   3  442.34   20.25
  -2  -1  -3  429.26   19.47
  -2  -1  -3  420.16   19.76
  -2   1  -3  310.44   19.69
  -2   1  -3  406.79   20.18
  -2  -1  -3  378.02   18.95
  -2   1  -3  414.67   19.88
   2  -1   3  415.36   19.67
   2   1   3  422.74   20.30
  -2   1  -4  438.38   21.05
   2   1   4  449.37   21.85
  -2  -1  -4  429.94   21.26
  -2   1  -4  418.56   21.49
  -2   1  -4  440.37   21.31
   2  -1   4  435.31   21.62
   2   1   4  411.92   21.43
  -2  -1  -4  430.82   20.65
  -2   1  -5  265.25   14.34
   2  -1   5  277.79   14.49
  -2  -1  -5  280.80   14.38
   2   1   5  284.10   14.51
  -2   1  -5  257.93   13.99
   2   1   5  282.05   15.03
  -2   1  -5  274.69   14.45
   2   1   6  360.94   19.33
  -2  -1  -6  379.12   18.73
  -2   1  -6  355.08   18.39
   2   1   6  371.63   18.52
  -2   1  -6  337.76   18.15
   2  -1   6  352.57   18.41
   2   1   7  864.05   37.90
  -2   1  -7  816.39   37.26
   2   1   7  822.18   38.66
  -2  -1  -7  811.23   38.26
   2  -1   7  786.71   37.54
  -2   1  -7  848.15   37.72
  -2   1  -8  230.73   13.25
   2   1   8  238.16   12.71
   2   1   8  251.22   14.23
   2  -1   8  233.80   13.28
   2   1   8  231.91   14.86
  -2   1  -9    4.29    4.77
   2  -1   9    6.31    3.83
   2   1   9    2.41    3.81
   2   1   9    6.34    5.15
   2   1   9    2.00    6.24
  -2   1 -10   38.53    6.07
   2   1  10   35.93    7.93
   2   1  10   30.68    4.90
   2  -1  10   47.96    5.49
   2   1  10   51.84    7.44
  -2   1 -11  138.50   10.14
   2   1  11  143.73   12.66
   2  -1  11  169.02   12.90
   2   1  11  159.64   12.00
   2  -1  11  139.43    9.88
   2   1  11  134.83    9.56
   2   1  12    4.45    4.80
   2  -1  12    7.00    4.64
   2  -1  12    5.63    4.20
   2   1  12    8.21    7.24
   2   1  12    1.98    8.04
   2  -1  12   19.67    9.39
  -2   1 -12    0.76    5.79
   2   1  13  163.04   14.36
   2  -1  13  186.42   14.45
   2  -1  13  148.18   10.09
   2  -1  13  164.27   11.01
   2   1  13  182.45   13.43
   2   1  13  165.55   10.97
  -2   1 -13  173.72   11.79
   2   1  14    1.77    6.16
   2  -1  14   -3.36    5.53
  -2   1 -14    5.80    6.17
   2  -1  14   10.49    8.63
   2  -1  14    0.50    4.89
   2   1  14    5.39    9.35
   2   1  14   12.29    8.28
   2  -1  15    1.52    4.97
   2   1  15   -2.30    6.36
  -2   1 -15    2.40    6.27
   2  -1  15   -3.78    5.81
   2  -1  15    8.32   10.08
   2   1  15    2.67    8.71
   2   1  15    4.11   10.00
   2  -1  16   12.00   10.04
   2   1  16    6.11   10.57
  -2   1 -16   -4.10    7.22
   2   1  16    1.44    9.65
   2  -1  16    3.34    6.15
   2  -1  16    1.02    2.91
   2  -1  17   23.06   10.92
   2   1  17    8.32   11.48
  -2   1 -17   17.51    8.76
   2   1  18   -3.93   10.75
   2   1  18    5.80   11.78
   2  -1  18   -2.22   10.90
  -2   1 -18   -4.07    8.04
   2   1  19    8.81   12.39
   2  -1  19    8.66   11.97
  -2   1 -19   -0.62    8.86
  -2   2  19  -10.64   14.32
  -2   2  18    3.02   13.14
  -2  -2  18    5.75    8.48
  -2  -2  18   10.35   12.48
   2   2 -18    5.46    8.79
  -2   2  18   -5.25   12.16
   2   2 -18    2.11    8.32
  -2  -2  18   -3.03    8.31
  -2  -2  17   15.55   11.73
  -2   2  17   11.97   10.62
  -2  -2  17   28.20    8.11
   2   2 -17   23.90    9.65
   2   2 -17   18.85    7.39
  -2  -2  17   32.89    8.79
   2   2 -16   -0.61    8.28
  -2   2  16    4.47   11.55
  -2  -2  16    3.22    7.14
  -2   2  16    5.38    3.52
  -2   2  16    5.51    8.90
  -2  -2  16    8.40    7.87
  -2   2  16    1.89   10.84
  -2  -2  16   19.37   12.27
   2   2 -16    1.85    6.73
  -2  -2  15   29.89    8.10
   2   2 -15   26.87    8.41
  -2   2  15   16.74   10.63
  -2  -2  15    9.41    7.11
   2   2 -15   11.98    6.43
  -2   2  15    3.91    8.68
  -2   2  15   13.30   10.00
  -2   2  15   17.70    4.41
  -2   2  14   -8.30   10.40
   2  -2 -14   13.72   10.03
  -2   2  14   -4.29    8.91
  -2   2  14   -1.08    4.17
   2   2 -14    5.88    6.53
  -2  -2  14    3.76    6.70
  -2   2  14   -7.02   10.28
   2   2 -14    1.18    6.41
  -2  -2  14   -0.43    6.91
  -2  -2  13    6.60    6.20
  -2   2  13   -5.76    8.58
  -2   2  13    0.28    0.67
  -2  -2  13    2.36    6.41
   2  -2 -13    5.07    9.56
  -2   2  13   -5.79    8.78
   2   2 -13   -0.50    6.43
  -2   2  13  -14.67    9.56
   2  -2 -13   -0.63    4.35
   2   2 -13    2.85    5.83
   2  -2 -12   72.86   10.57
   2   2 -12   76.38    8.90
  -2   2  12   83.31    9.88
  -2   2  12   82.67    7.04
  -2  -2  12   79.16    8.83
   2  -2 -12   83.16    6.56
  -2  -2  12   79.66    8.35
  -2   2  12   96.33   10.73
   2   2 -12   82.62    7.86
   2  -2 -11   86.67    6.70
   2   2 -11   76.00    7.05
  -2   2  11   73.10    9.56
   2   2 -11   89.82    8.59
  -2   2  11   80.02    6.94
  -2  -2  11   76.53    8.67
   2  -2 -11   77.66   10.26
  -2   2  11   64.06   10.81
   2   2 -10   63.95    5.90
  -2   2  10   38.54    8.47
   2   2 -10   49.62    7.07
   2  -2 -10   54.78    8.56
  -2   2  10   52.69    5.84
   2  -2 -10   54.61    6.05
  -2   2  10   50.58    8.50
  -2  -2  10   43.06    6.73
  -2   2   9   -9.87    7.06
  -2   2   9    3.30    4.15
   2   2  -9    3.78    5.43
  -2  -2   9   -1.36    4.79
   2  -2  -9   10.48    6.85
   2   2  -9    2.16    3.96
   2  -2  -9    0.65    4.46
   2  -2  -8   84.20    8.42
  -2   2   8   89.12    7.20
   2   2  -8  104.66    6.64
   2  -2  -8  110.94    7.53
  -2   2   8   81.51    8.95
  -2  -2   8   93.68    8.29
   2   2  -8  108.35    8.16
  -2   2   7  191.85   11.86
   2   2  -7  221.80   12.28
   2  -2  -7  223.78   11.90
   2  -2  -7  189.79   12.96
   2   2  -7  200.94   10.93
  -2  -2   7  212.63   12.76
  -2  -2   6 1252.93   60.80
   2   2  -6 1234.40   59.96
   2  -2  -6 1261.86   60.52
   2  -2  -6 1272.23   59.90
  -2   2   6 1293.66   60.21
  -2  -2   5    2.49    3.71
   2  -2  -5    5.57    4.59
  -2   2   5    1.14    4.07
   2   2  -5    2.88    3.63
   2  -2  -5    1.57    4.50
   2  -2  -4  139.69    9.93
  -2   2   4  142.69    9.80
  -2  -2   4  167.92    8.21
   2   2  -4  160.86    9.25
   2  -2  -4  145.99    9.85
   2  -2  -3  483.71   24.46
  -2  -2   3  482.34   23.79
  -2   2   3  483.45   24.61
  -2   2   2  900.85   44.41
  -2  -2   2  927.11   43.73
   2  -2  -2  906.95   44.21
  -2  -2   2  921.87   43.51
  -2   2   1 3462.20  162.59
  -2  -2   1 3525.18  162.43
   2   2  -1 3481.60  162.18
   2   2   0 2555.56  123.26
  -2  -2   0 2753.78  123.57
   2  -2   1  904.41   47.03
   2   2   1 1012.59   47.12
  -2  -2  -1 1060.82   47.44
   2   2   2   89.51    6.04
   2  -2   2   94.87    7.46
   2  -2   2   84.07    6.15
   2  -2   2   88.72    6.69
  -2  -2  -2   85.98    6.18
  -2   2  -3  663.11   34.44
   2  -2   3  733.39   34.05
   2  -2   3  697.01   33.66
   2  -2   3  678.21   34.59
   2  -2   3  736.72   33.83
  -2  -2  -3  725.66   34.32
  -2  -2  -3  694.52   34.43
   2   2   3  666.61   33.29
  -2  -2  -3  682.07   33.52
  -2   2  -4 1301.61   62.03
   2   2   4 1268.71   60.59
  -2  -2  -4 1262.61   60.72
   2  -2   4 1280.52   62.10
  -2  -2  -4 1353.83   61.96
   2  -2   4 1287.68   61.16
   2  -2   4 1295.73   61.21
  -2  -2  -4 1347.65   61.70
  -2   2  -5 1266.58   18.16
  -2  -2  -5 1361.35   18.52
   2  -2   5 1360.89   15.74
  -2   2  -5 1360.65   15.46
  -2  -2  -5 1358.96   17.05
   2  -2   5 1327.02   18.81
  -2  -2  -5 1339.22   15.41
  -2  -2  -5 1318.11   11.74
  -2  -2  -6  571.66   27.76
  -2   2  -6  561.76   28.75
  -2  -2  -6  538.12   26.71
  -2   2  -6  588.52   28.10
   2  -2   6  550.22   28.06
  -2  -2  -6  603.24   29.07
   2  -2   6  573.54   28.89
  -2  -2  -6  556.90   28.49
  -2  -2  -7   29.53    2.52
  -2   2  -7   27.86    5.64
   2  -2   7   33.69    5.95
  -2   2  -7   42.43    5.79
  -2  -2  -7   30.69    6.37
  -2   2  -7   38.83    5.39
  -2  -2  -8   -0.73    6.63
   2  -2   8    4.29    5.25
  -2   2  -8   -4.47    5.39
  -2   2  -8   -1.99    5.17
  -2   2  -8    4.16    4.61
  -2   2  -9    5.09    5.97
  -2   2  -9    2.46    5.66
   2   2   9   -0.57    6.88
  -2   2  -9    4.94    5.80
   2  -2   9   10.77    5.74
  -2   2 -10  291.99   16.86
  -2   2 -10  309.79   17.42
  -2  -2 -10  311.17   18.78
   2   2  10  273.04   17.93
   2  -2  10  295.53   17.58
  -2   2 -10  312.36   17.90
   2   2  10  284.25   19.12
  -2   2 -11  158.71   11.95
  -2  -2 -11  181.84   14.12
   2   2  11  195.33   13.34
  -2   2 -11  170.54   12.26
   2  -2  11  175.67   12.58
   2   2  11  203.47   15.23
  -2   2 -11  195.14   13.41
   2  -2  12   28.68    6.82
  -2   2 -12   28.37    7.41
  -2   2 -12   29.12    7.13
   2   2  12   30.17   10.04
   2   2  12   23.99    7.72
   2   2  13   -9.00    9.40
   2  -2  13   -2.13    6.11
  -2   2 -13    1.53    7.10
  -2   2 -13    6.38    5.97
   2   2  13   -1.86    8.14
  -2   2 -14   22.46    8.24
  -2   2 -14   17.05    6.98
   2   2  14   18.48    9.72
   2  -2  14   21.52    6.62
   2   2  14    8.05    7.99
   2  -2  15   10.83    6.50
   2   2  15   23.89    8.95
  -2   2 -15   12.32    8.10
   2  -2  15   31.39   11.45
   2  -2  15   15.40    8.01
  -2   2 -15   15.71    7.59
   2   2  15    5.64   12.72
   2  -2  16    9.89    7.80
   2  -2  16   36.26   12.23
   2  -2  16   16.83    6.58
  -2   2 -16   17.84    8.89
   2   2  16   12.00   12.26
  -2   2 -16   26.16    9.22
  -2   2 -16   16.83    8.96
   2   2  16   16.34   10.12
   2   2  17   -5.83   11.45
   2  -2  17   21.66   12.67
  -2   2 -17    8.54    9.74
   2   2  17   -5.29   13.64
  -2   2 -17   -0.60    8.60
  -2   2 -17   -3.95    9.76
  -2   2 -18    2.07   10.46
   2   2  18  -10.63   12.91
  -2   2 -18    3.80    8.89
   2  -2  18   16.41   12.61
  -2  -3  18   -1.86   11.74
  -2  -3  18   13.87   11.44
   2   3 -17   24.56    7.38
   2   3 -17   45.36   11.26
  -2  -3  17   26.71    9.79
   2   3 -17   27.69    9.59
  -2  -3  17   39.10   11.36
  -2  -3  16    9.15    8.36
   2   3 -16    5.46    6.23
   2  -3 -16   16.81   13.63
   2   3 -16    2.21    9.56
   2   3 -16   -0.69    9.27
  -2  -3  16   18.68    9.88
   2   3 -15   13.35    6.48
   2   3 -15   19.98    9.50
   2   3 -15   22.06    9.01
   2  -3 -15   10.33    4.00
  -2   3  15   15.53    4.21
  -2  -3  15   23.43    9.31
  -2  -3  15    6.71    8.48
   2  -3 -15   29.27   11.79
  -2  -3  14   48.12    9.78
  -2   3  14   67.02    6.34
  -2  -3  14   74.49   10.70
   2  -3 -14   61.29   11.89
   2   3 -14   62.83    9.14
   2  -3 -14   64.13    6.37
   2   3 -14   77.63   10.54
   2  -3 -13   29.04    5.69
   2   3 -13   26.22    7.96
  -2   3  13   28.31    4.92
   2   3 -13   27.48    7.97
  -2  -3  13   27.01    7.73
   2  -3 -13   29.02   10.32
  -2   3  12   35.52    5.74
  -2  -3  12   56.15    9.37
   2  -3 -12   44.31    6.51
   2   3 -12   46.33    8.29
   2  -3 -12   58.93    9.78
   2   3 -11  275.82   17.10
   2  -3 -11  260.09   17.75
  -2   3  11  282.43   15.85
   2  -3 -11  256.46   15.22
  -2  -3  11  286.89   18.09
   2  -3 -10   58.62    7.24
   2   3 -10   60.15    7.82
   2  -3 -10   59.66    9.53
  -2   3  10   57.30    6.83
  -2  -3  10   67.09    8.71
   2   3  -9    1.73    6.29
  -2   3   9    5.66    4.91
   2  -3  -9   17.20    6.38
   2  -3  -9   -2.66    8.23
  -2  -3   9   13.75    6.54
   2  -3  -8   30.76    6.93
  -2   3   8   23.76    5.55
   2  -3  -8   30.76    7.67
   2   3  -8   14.88    6.32
  -2  -3   8   24.56    6.61
   2  -3  -8   22.97    7.52
  -2  -3   7   55.28    7.70
  -2   3   7   49.08    6.55
   2  -3  -7   43.86    7.62
   2   3  -7   40.32    6.34
   2  -3  -7   56.80    8.20
   2  -3  -7   49.45    7.49
   2  -3  -6    3.48    6.84
  -2   3   6    1.59    4.27
   2   3  -6    2.48    5.34
  -2  -3   6    3.68    5.33
   2  -3  -6    6.58    6.69
   2  -3  -6    1.12    6.42
  -2  -3   5  583.85   28.45
   2  -3  -5  582.28   30.08
   2  -3  -5  617.36   30.91
  -2   3   5  583.14   30.21
  -2  -3   4  684.09   33.47
   2  -3  -4  736.31   35.15
  -2  -3   4  638.58   32.32
   2  -3  -4  690.97   34.16
  -2   3   4  693.77   34.34
  -2  -3   3   16.27    5.25
  -2  -3   3    8.01    5.38
   2   3  -3   13.88    4.67
  -2   3   3    5.94    4.92
  -2  -3   3   11.52    4.60
   2  -3  -3   13.45    5.66
   2  -3  -2  137.30   10.58
   2   3  -2  154.69   10.18
  -2  -3   2  155.92    9.82
  -2   3   2  138.69   10.56
  -2  -3   2  152.40   10.82
  -2  -3   1    2.06    4.24
   2  -3  -1    2.66    5.05
  -2   3   1    0.89    4.40
   2   3  -1    1.54    3.85
  -2  -3   1    0.87    4.89
  -2   3   0   12.36    5.16
  -2  -3   0   10.84    4.69
   2   3   0    9.93    4.21
   2   3   1  277.15   15.97
  -2  -3  -1  302.10   16.56
  -2   3  -1  284.20   16.94
   2   3   2  684.35   34.82
  -2  -3  -2  726.12   35.28
   2  -3   2  699.88   34.40
   2  -3   3  113.83    9.27
   2   3   3   93.77    7.24
   2  -3   3  104.88    7.74
  -2  -3  -3  101.60    7.89
   2  -3   3   83.96    8.11
   2   3   4  271.87   15.71
  -2  -3  -4  291.05   17.42
   2  -3   4  293.70   16.71
   2  -3   4  330.56   18.06
  -2  -3  -4  286.84   17.57
  -2  -3  -4  296.26   16.51
   2  -3   4  301.19   16.13
   2  -3   4  288.03   16.43
  -2   3  -4  298.23   17.43
   2  -3   5   31.20    6.19
  -2  -3  -5   34.15    5.39
   2  -3   5   37.74    6.78
   2   3   5   29.21    4.48
  -2  -3  -5   35.17    7.13
  -2  -3  -5   22.03    6.14
  -2  -3  -5   42.83    7.26
   2  -3   5   32.06    5.75
  -2   3  -5   27.75    5.71
   2  -3   6   53.74    7.63
  -2  -3  -6   57.05    5.89
  -2   3  -6   43.57    6.89
   2  -3   6   48.52    6.44
  -2  -3  -6   46.05    7.62
   2   3   6   46.01    4.88
  -2  -3  -6   50.13    7.70
  -2  -3  -6   53.71    8.17
  -2   3  -7    3.22    5.57
  -2  -3  -7    9.01    6.55
  -2  -3  -7   14.04    6.60
   2   3   7    2.67    1.90
   2  -3   7    8.49    6.74
  -2  -3  -7   18.28    7.39
   2  -3   7   18.06    6.08
  -2  -3  -7    0.93    4.91
  -2  -3  -8  105.76    7.41
  -2  -3  -8  131.27   11.13
  -2   3  -8  112.06    9.67
  -2  -3  -8  132.09    9.52
   2  -3   8  112.81   10.48
  -2  -3  -8   96.11   10.61
  -2  -3  -9  112.62   10.57
  -2   3  -9  126.55   10.05
   2  -3   9  125.38   10.70
  -2  -3  -9  105.07    6.48
   2  -3  10    6.29    7.52
  -2   3 -10    3.60    6.30
  -2  -3 -10    3.55    7.67
  -2   3 -11   14.49    7.94
  -2  -3 -11   23.40    8.79
   2  -3  11    9.14    7.20
  -2   3 -12    0.49    6.27
  -2  -3 -12   13.17    8.50
  -2   3 -12    4.78    7.90
   2  -3  12    6.77    6.42
   2  -3  13   16.19    7.98
  -2   3 -13   -1.28    7.87
  -2   3 -13    5.23    7.67
  -2  -3 -13   16.46   10.80
  -2   3 -14    2.06    8.69
  -2   3 -14    4.45    7.67
  -2  -3 -14   10.33   11.30
   2  -3  14    2.93    8.48
  -2   3 -15   54.30   10.20
  -2   3 -15   70.26   11.57
   2  -3  15   47.92   10.80
  -2   3 -16    0.62    9.02
   2  -3  16   15.56    8.65
   2  -3  16    7.04   11.67
  -2   3 -17    0.65    9.81
  -2  -4  17    0.71   10.05
  -2  -4  16    5.59   10.92
   2  -4 -16   12.09   13.98
  -2  -4  16    8.03   10.61
   2   4 -15    5.44   10.51
  -2  -4  15   -7.56   10.60
   2  -4 -15    8.53   12.44
  -2  -4  15    6.70   10.43
   2   4 -14   21.95    9.37
   2  -4 -14   25.44    6.45
   2  -4 -14   19.56   11.48
  -2  -4  14   16.49    9.59
  -2  -4  13    7.87    8.41
   2  -4 -13    1.93    6.23
   2  -4 -13    0.74   10.61
   2   4 -13    6.16    8.80
  -2   4  13    4.99    5.52
   2   4 -12   -2.57    8.25
   2  -4 -12   13.86    6.36
  -2  -4  12    0.84    8.18
   2  -4 -12   -2.14    9.46
   2  -4 -11   29.46    7.36
   2   4 -11   40.41    8.49
   2  -4 -11   11.85    9.73
   2  -4 -11   41.11    9.04
  -2   4  11   31.90    6.72
  -2  -4  11   40.97    9.13
   2  -4 -10   63.37   11.24
  -2  -4  10   83.53   10.36
   2  -4 -10   81.46    8.78
   2  -4 -10   83.91   10.75
  -2   4  10   85.95    8.96
   2   4 -10   67.61    9.45
   2  -4  -9   -8.31    7.95
   2  -4  -9   14.95    8.16
  -2   4   9   -0.50    5.96
   2  -4  -9   20.05    8.40
   2  -4  -9   19.64    7.30
  -2  -4   9    5.22    7.65
  -2   4   8  148.19   11.27
   2  -4  -8  152.13   12.49
   2  -4  -8  134.86   11.59
   2  -4  -8  138.93   13.02
  -2  -4   8  137.01   12.51
   2  -4  -7   64.26   10.21
  -2   4   7   72.83    8.28
  -2  -4   7   64.31    9.62
   2  -4  -7   77.46   10.00
   2  -4  -7   59.89    9.14
   2  -4  -6   11.97    7.65
   2  -4  -6   -4.54    8.50
  -2   4   6   11.71    6.30
  -2  -4   6    5.90    4.23
   2  -4  -6    3.76    7.96
   2  -4  -5  149.53   13.27
  -2  -4   5  151.78   11.10
  -2  -4   5  106.33   10.99
  -2  -4   5  143.22    9.28
   2  -4  -5  152.65   13.52
   2  -4  -5  164.30   12.37
  -2   4   5  172.68   12.07
  -2  -4   4  374.21   19.45
  -2  -4   4  342.52   19.68
  -2  -4   4  292.83   20.54
   2  -4  -4  368.40   20.84
  -2  -4   4  335.21   17.94
  -2   4   4  351.62   20.51
  -2   4   3    6.80    6.55
  -2  -4   3   -0.44    6.09
  -2  -4   3    4.03    6.37
  -2  -4   3   -1.25    6.58
   2  -4  -3    4.45    7.68
  -2  -4   2  253.75   15.98
   2  -4  -2  273.71   17.50
  -2  -4   2  271.07   17.51
   2   4  -2  250.89   16.40
  -2   4   2  297.47   17.39
   2  -4  -1  423.10   25.42
  -2   4   1  476.19   25.43
   2   4  -1  452.51   24.67
  -2  -4   1  449.58   24.25
  -2  -4   1  439.44   25.32
   2   4   0  212.56   13.43
  -2   4   0  206.51   14.07
  -2  -4   0  196.41   14.09
   2  -4   0  166.42   14.06
   2  -4   1  147.78   13.14
   2   4   1  154.85   11.84
  -2  -4  -1  170.84   12.56
  -2   4  -1  189.79   12.99
   2   4   2    0.46    5.26
  -2  -4  -2    8.04    7.06
  -2   4  -2    1.86    6.71
  -2  -4  -3    2.07    7.42
   2  -4   3   12.81    5.93
   2  -4   3    6.34    6.48
   2   4   3    5.35    5.50
   2  -4   4   65.35    7.71
   2  -4   4   68.57    7.56
  -2  -4  -4   65.63    8.65
   2  -4   4   54.90    9.88
   2   4   4   82.27    7.45
  -2  -4  -4   67.27   10.04
  -2  -4  -5  344.89   19.75
   2  -4   5  335.88   18.81
  -2   4  -5  318.19   20.43
  -2  -4  -5  328.34   20.96
   2  -4   5  345.37   19.45
   2  -4   5  342.25   21.38
   2   4   5  345.67   18.95
  -2  -4  -5  350.82   20.89
  -2  -4  -6  166.49   13.86
  -2  -4  -6  184.35   13.83
  -2   4  -6  174.42   13.29
   2  -4   6  161.09   11.62
   2  -4   6  170.22   12.53
  -2  -4  -6  166.62   13.75
   2   4   6  172.02   11.36
  -2  -4  -6  195.85   12.62
   2  -4   6  190.09   14.52
  -2  -4  -7   37.39    7.26
  -2  -4  -7   39.10    8.31
  -2  -4  -7   28.45    8.28
   2  -4   7   41.81    7.29
  -2  -4  -7   47.69    8.80
   2  -4   7   33.64    8.62
  -2   4  -7   49.74    7.89
  -2  -4  -8   99.38   11.32
   2  -4   8   90.13   11.22
  -2   4  -8   72.07    9.92
  -2  -4  -8   84.54    9.62
  -2  -4  -8   78.59    8.70
   2  -4   8   89.89    9.60
  -2  -4  -8   86.46    9.79
  -2  -4  -9   60.46    8.89
  -2  -4  -9   40.82    9.75
  -2  -4  -9   63.06    6.84
   2  -4   9   49.44    9.95
  -2   4  -9   42.98    8.78
  -2  -4  -9   64.78   10.31
  -2  -4 -10    0.20    4.27
  -2  -4 -10   -4.39    8.98
   2  -4  10    8.76    9.42
  -2  -4 -11   17.90    3.25
  -2  -4 -11   19.86    9.23
   2  -4  11   24.73    9.98
   2  -4  12   60.71   11.59
  -2  -4 -12   60.05   11.00
  -2  -4 -13   13.28   12.36
   2  -4  13   -3.55   10.55
   2  -4  14   23.97   12.01
  -2  -4 -14   39.12   14.25
  -2  -4 -15   20.75   14.45
   2  -4  15   26.74   12.78
  -2  -5  12    1.99   10.21
   2  -5 -12   17.14   10.70
   2  -5 -12   17.16   12.30
   2  -5 -12   10.79    8.19
   2  -5 -11   61.90    9.72
  -2  -5  11   52.90   11.44
   2  -5 -11   53.61   11.51
   2  -5 -11   43.52   12.66
  -2   5  10   60.22    8.91
   2  -5 -10   57.05   11.29
   2  -5 -10   66.42   11.26
   2  -5 -10   59.66    9.59
  -2  -5  10   59.63   10.91
   2  -5 -10   55.47   12.35
   2  -5  -9   14.41    9.55
   2  -5  -9    6.60    9.36
  -2  -5   9   11.77    9.12
  -2   5   9   -0.62    6.29
   2  -5  -9    7.88    8.71
   2  -5  -9   14.01    9.52
  -2   5   8   38.39    7.97
   2  -5  -8   28.19   10.85
   2  -5  -8   22.68    9.13
   2  -5  -8   20.02    9.50
  -2  -5   8    6.18    8.38
   2  -5  -8   31.96    9.08
   2  -5  -7    9.16    9.38
   2  -5  -7   14.22   10.30
   2  -5  -7   12.19    8.70
   2  -5  -7    4.43    8.65
  -2   5   7   22.27    7.59
  -2  -5   6   69.43    7.04
   2  -5  -6   52.01   10.79
  -2  -5   6   72.31    9.55
  -2   5   6   84.81    9.30
   2  -5  -6   77.88   12.34
   2  -5  -6   40.60   10.43
   2  -5  -5   63.77    9.83
  -2  -5   5   83.08    9.40
  -2   5   5   60.62    9.07
  -2  -5   5   73.20    9.21
  -2  -5   5   50.74    6.58
   2  -5  -5   64.26   11.47
  -2  -5   5   52.80    9.65
   2  -5  -5   52.93   10.94
  -2  -5   4   63.96    8.82
   2  -5  -4   39.80    9.35
  -2  -5   4   32.39    7.76
  -2  -5   4   36.43    8.52
  -2   5   4   40.97    8.60
   2  -5  -4   37.67   11.12
  -2  -5   4   35.41    5.99
   2  -5  -4   29.28    9.87
  -2   5   3   11.28    6.98
  -2  -5   3    4.13    7.39
   2  -5  -3   16.66    8.48
  -2  -5   3   11.10    6.99
  -2  -5   3    7.13    7.93
  -2  -5   2   32.35    9.16
  -2   5   2   41.58    8.85
  -2  -5   2   28.14    7.71
   2  -5  -2   37.89    9.56
  -2  -5   2   37.26    9.04
  -2   5   1   24.81    8.06
  -2  -5   1   27.75    8.06
   2  -5  -1   14.52    9.05
   2  -5   0  124.21   12.81
  -2   5   0   98.99   11.03
  -2  -5   0  119.52   12.02
  -2  -5   0  112.85   11.62
   2   5   1   61.99    8.48
  -2  -5  -1   52.33    9.79
  -2  -5  -1   65.07    9.84
   2  -5   1   63.44   10.60
  -2   5  -1   70.45    9.19
  -2  -5  -2    0.71    8.89
   2   5   2    6.01    6.20
   2  -5   2    8.33    8.94
  -2   5  -2    3.86    7.03
   2  -5   2   11.35    6.35
   2  -5   3   27.75    7.13
  -2   5  -3   33.85    8.01
  -2  -5  -3   43.84    9.30
   2   5   3   36.60    7.29
   2  -5   3   34.03    7.97
  -2  -5  -4    3.87    8.82
   2  -5   4   14.25    6.27
  -2  -5  -4   21.27    8.51
  -2  -5  -5   16.97   10.05
  -2  -5  -5   21.24    7.99
   2  -5   5   23.32    7.67
   2  -5   5    1.76    9.00
  -2  -5  -5   11.51    8.81
   2  -5   5   20.48    6.35
  -2  -5  -5   14.36   10.59
  -2   5  -6   40.53    9.22
   2  -5   6   24.18   10.31
   2  -5   6   34.97    7.16
  -2  -5  -6   45.77    8.48
   2  -5   6   56.03    9.08
  -2  -5  -6   34.72   10.58
  -2  -5  -6   53.42   11.32
  -2  -5  -6   36.26    9.30
   2  -5   7    8.23    9.66
   2  -5   7   16.86    8.08
  -2  -5  -7   20.06    9.45
  -2   5  -7   10.03    7.86
  -2  -5  -7   25.78    9.31
  -2  -5  -7    2.23    7.94
  -2  -5  -7   12.25    7.94
  -2  -5  -8   11.19    9.22
  -2   5  -8    5.07    7.25
  -2  -5  -8    6.97    9.32
   2  -5   8    7.13    7.71
  -2  -5  -8   -5.35    7.71
  -2  -5  -8   13.68    9.25
   2  -5   8   -8.40   10.41
  -2  -5  -9   24.97   10.53
  -2  -5  -9   39.34   10.19
  -2  -5  -9   35.25    9.62
  -2  -5  -9   21.15    7.78
   2  -5   9   12.42   10.47
   2  -5  10   11.72   11.91
  -2  -5 -10   -0.76   11.07
  -2  -5 -10   34.86   11.65
   2  -5  11   -4.02   12.19
  -2  -5 -11   -2.31   11.11
  -2  -5 -12   -3.90   11.29
   2  -6  -9   11.01   12.65
   2  -6  -9   13.88   11.57
  -2   6   9   -1.49    8.41
   2  -6  -8   11.21   13.59
  -2   6   8   -3.05    8.56
   2  -6  -8   -5.94   12.05
   2  -6  -7    2.79    9.74
   2  -6  -7   10.15   12.87
  -2  -6   7   12.51    9.18
  -2  -6   7   23.90   10.67
  -2   6   7   10.93    8.83
   2  -6  -7   14.82   13.30
   2  -6  -7    6.70   12.25
   2  -6  -6  -15.43   12.06
  -2  -6   6   14.14    9.52
  -2  -6   6   -1.91    6.12
  -2  -6   6    7.16    9.58
  -2   6   6    1.59    8.07
   2  -6  -6    5.82   12.84
   2  -6  -6   -5.42   10.14
   2  -6  -6   -0.99   11.29
   2  -6  -5   53.85   14.43
  -2  -6   5   61.97   10.99
  -2  -6   5   69.17   12.63
  -2   6   5   56.01    9.93
   2  -6  -5   40.97   13.25
   2  -6  -5   39.66   12.87
  -2  -6   5   51.41    7.31
  -2   6   4    0.83    9.01
   2  -6  -4   -8.28   12.98
  -2  -6   4    9.86   10.02
  -2  -6   4    6.13    8.86
  -2  -6   4    7.78    6.24
   2  -6  -4   23.24   10.84
  -2  -6   4    5.29   10.09
   2  -6  -4    1.98   11.16
   2  -6  -3    4.45   10.06
  -2   6   3   11.82    9.93
  -2  -6   3   10.49    6.85
  -2  -6   3   15.33   10.78
  -2  -6   3   14.29    9.18
   2  -6  -3    4.65   10.57
  -2  -6   3    8.73   10.86
  -2   6   2    0.86    8.91
  -2  -6   2    2.08    9.67
  -2  -6   2    4.77   11.10
   2  -6  -2   16.57   10.19
   2  -6  -2    6.43   11.70
  -2  -6   2    2.34    9.90
  -2  -6   1   36.58   10.80
  -2  -6   1   31.04   11.58
  -2  -6   1    1.87   11.54
   2  -6  -1   20.68   12.65
   2  -6  -1    2.93    9.48
   2  -6   0    7.90    9.28
  -2  -6   0   -9.13   11.26
  -2  -6   0   -2.93    9.88
   2  -6   0    9.60   10.57
  -2   6   0    1.79    8.34
  -2  -6  -1   89.44   13.84
  -2   6  -1   99.65   12.20
  -2  -6  -1  112.68   13.79
   2  -6   1   87.40   10.30
   2  -6   1  135.07   15.21
   2  -6   1  120.64   12.10
   2  -6   2    6.89    9.19
  -2  -6  -2    3.92   10.36
   2  -6   2    3.86   10.27
  -2   6  -2    3.73    8.92
  -2  -6  -2   -5.12   10.69
   2  -6   2    3.77    8.61
   2  -6   2  -12.00   11.27
  -2  -6  -3   71.05   13.64
   2  -6   3   78.24   11.95
  -2  -6  -3   69.17   12.30
   2  -6   3   82.71   11.59
  -2   6  -3   72.01   11.29
   2  -6   3   60.13    9.70
   2  -6   3   57.32   12.51
  -2  -6  -3   45.45   12.06
  -2  -6  -4    6.26    9.92
  -2   6  -4   -3.85    8.83
   2  -6   4    9.31    7.15
  -2  -6  -4    4.00    9.43
  -2  -6  -4   -8.96   12.22
  -2  -6  -5   24.71   10.95
   2  -6   5   20.00    7.70
  -2  -6  -5   19.74   10.74
   2  -6   5   29.44   10.61
  -2  -6  -5    5.37   11.06
  -2  -6  -5   11.30   12.64
  -2  -6  -6    6.57   10.46
  -2  -6  -6   41.66   11.00
  -2  -6  -6    4.47   11.03
   2  -6   6   11.89    7.72
  -2  -6  -6   -2.67   12.33
  -2  -6  -7   18.53   11.80
  -2  -6  -7    6.90   11.40
  -2  -6  -8   10.76   11.70
  -2  -6  -9   21.39   13.74
  -3   0  20  -14.26   13.63
  -3   0  19   -9.22   12.91
  -3   0  18    3.75    6.78
  -3   0  18    2.98    5.81
  -3   0  18  -12.58   11.81
  -3   0  17    7.02    7.19
  -3   0  17    6.84    5.86
  -3   0  17   -9.56   11.23
  -3   0  16   -0.47    5.63
  -3   0  16    3.45    7.80
  -3   0  16    0.69   10.22
  -3   0  16   -3.95    6.94
  -3   0  15    1.03    6.57
  -3   0  15    3.12    5.55
  -3   0  15    0.64    8.52
  -3   0  14   -0.99    6.64
  -3   0  14    8.38    8.55
  -3   0  13   39.35    7.20
  -3   0  13   53.29   10.17
  -3   0  12    2.74    5.86
  -3   0  12    5.16    8.46
  -3   0  11   14.19    5.95
  -3   0  11   19.66    7.74
  -3   0  10   -3.00    4.20
  -3   0  10    0.89    6.67
  -3   0   9   13.28    4.84
  -3   0   9   21.14    6.59
   3   0  -8   -7.04    3.25
  -3   0   8    2.37    4.24
   3   0  -7 2698.10  127.18
  -3   0   7 2786.87  127.46
  -3   0   6    0.61    3.70
   3   0  -6   -0.37    3.09
  -3   0   5 1706.94   79.69
   3   0  -5 1700.84   79.57
  -3   0   4   -4.12    4.06
  -3   0   3 1048.33   53.00
  -3   0   3 1187.44   52.69
  -3   0   2    1.57    1.50
  -3   0   2    2.22    2.40
   3   0  -1 6782.21  287.76
  -3   0   1 6508.88  287.29
  -3   0   0    5.67    2.94
  -3   0   0    3.61    1.84
  -3   0   0    0.10    1.06
   3   0   0    3.20    2.77
  -3   0  -1  105.39    6.09
  -3   0  -2    7.17    2.20
  -3   0  -2   -0.46    1.18
  -3   0  -3  212.79   10.73
  -3   0  -4   -0.83    1.76
   3   0   4   -0.17    3.31
  -3   0  -5 4747.82  214.68
   3   0   5 4487.98  215.39
   3   0   6    1.77    4.23
  -3   0  -6    0.11    1.63
   3   0   7  131.71    9.38
   3   0   8    4.51    2.14
   3   0   8    2.94    6.16
   3   0   9  618.74   28.61
   3   0   9  588.91   30.82
   3   0   9  590.90   28.36
   3   0  10    0.40    7.13
   3   0  10   -0.76    2.18
   3   0  10    0.25    2.30
   3   0  11  138.69    7.62
   3   0  11  149.15    7.73
   3   0  11  134.71   11.48
   3   0  12   -3.85    7.34
   3   0  13    6.32    8.25
   3   0  14   -6.31    8.92
   3   0  14   12.99    4.88
   3   0  15   94.96   11.58
  -3   0 -15  104.45    8.49
  -3   0 -16    4.33    6.55
   3   0  16    2.45   10.56
   3   0  16  -10.07    9.84
   3   0  16   -1.34    2.54
   3   0  17    5.26   10.44
  -3   0 -17    6.12    7.54
   3   0  17   15.76   11.34
   3   0  18   15.26   11.98
  -3   0 -18    1.08    8.81
  -3   1  20    9.35   11.61
  -3   1  20   34.47   14.05
  -3   1  19   10.39    9.47
   3   1 -19   19.84    9.30
  -3   1  19   37.26   12.34
  -3  -1  19    8.60    7.81
  -3  -1  19    6.00    7.62
  -3  -1  19    6.31   11.42
  -3   1  18   20.66    5.59
  -3   1  18    4.87    5.34
  -3  -1  18   22.53    7.83
   3   1 -18   15.66    9.28
  -3  -1  18   20.08    8.26
  -3  -1  18   22.46   11.44
  -3   1  18   19.36   12.21
  -3   1  18   32.47   10.47
  -3   1  17   -1.14    5.26
  -3  -1  17    6.19    6.50
  -3   1  17    1.78    6.26
  -3   1  17    9.42    9.13
  -3  -1  17    2.15    9.95
   3   1 -17    8.08    8.23
  -3   1  17   -2.49   10.13
  -3  -1  16   38.86    7.39
  -3   1  16   47.76    9.85
  -3   1  16   68.12   11.82
  -3  -1  16   57.08   10.87
   3   1 -16   60.80    9.16
  -3   1  16   45.19    7.83
  -3  -1  16   49.66    8.19
  -3  -1  15   57.91    8.00
  -3   1  15   58.88    9.73
  -3  -1  15   53.30    7.67
  -3   1  15   67.21   10.91
  -3  -1  15   86.10   11.02
  -3   1  15   49.57    8.03
  -3   1  14  102.73   10.75
  -3   1  14  118.87   12.65
  -3  -1  14   99.50    8.93
  -3  -1  14   95.59    9.31
  -3  -1  14   94.03   11.96
  -3   1  14   83.17    8.76
  -3   1  13  126.05   11.68
  -3  -1  13   86.68    8.77
  -3  -1  13   87.82   11.01
  -3   1  13  105.20    8.53
  -3   1  13  102.74   11.61
  -3  -1  13   86.29    8.49
  -3  -1  12   84.68   10.58
  -3  -1  12   68.30    7.91
  -3   1  12   95.04   10.19
   3  -1 -12   63.55    6.67
  -3  -1  12   73.92    7.28
  -3   1  12   91.91   10.19
  -3   1  12   67.95    8.08
  -3   1  11   75.87    9.31
  -3  -1  11   66.36    6.62
   3  -1 -11   59.21    6.19
  -3   1  11   81.90    7.79
  -3   1  11   68.03    9.06
  -3  -1  11   74.46    6.97
   3  -1 -10 1808.62   80.34
  -3   1  10 1737.66   81.85
  -3   1  10 1510.20   81.88
  -3  -1  10 1767.52   80.77
  -3   1  10 1692.78   80.66
   3  -1 -10 1627.10   81.99
  -3  -1   9  584.58   29.97
   3  -1  -9  599.04   29.65
  -3   1   9  652.38   31.16
  -3   1   9  591.96   31.37
  -3   1   9  608.49   30.10
  -3  -1   8   18.02    4.27
  -3   1   8   31.38    5.95
  -3   1   8   23.89    5.91
  -3   1   8   25.60    4.96
   3  -1  -8   28.25    4.72
  -3   1   7    6.54    4.65
  -3   1   7   13.28    4.85
   3  -1  -7    3.51    4.13
  -3   1   7   11.22    4.08
  -3  -1   7    7.63    3.91
   3  -1  -6  234.14   12.42
  -3   1   6  198.41   12.97
  -3   1   6  239.29   13.17
  -3  -1   6  240.62   12.54
  -3   1   6  228.40   12.71
   3  -1  -6  230.64   12.86
   3  -1  -5  345.25   17.06
  -3   1   5  337.30   17.36
   3   1  -5  323.14   17.04
   3  -1  -5  323.61   17.37
  -3  -1   5  347.22   17.21
  -3   1   5  340.79   17.71
   3  -1  -4 4483.83  218.62
   3  -1  -4 5011.13  218.69
  -3   1   4 4342.31  218.77
   3  -1  -4 4779.25  218.42
   3   1  -4 4939.25  218.26
  -3   1   4 4710.11  218.67
   3  -1  -3  211.16   10.56
   3   1  -3  182.40    9.75
  -3   1   3  165.55   10.47
   3   1  -3  186.95    9.61
   3   1  -2  467.55   21.29
  -3  -1   2  444.49   21.12
   3  -1  -2  474.19   22.07
   3  -1  -2  393.89   21.98
  -3  -1   2  433.83   21.28
  -3  -1   1    1.63    2.56
  -3  -1   1    4.97    2.14
  -3  -1   0    8.14    2.37
   3  -1   0   13.60    3.82
   3  -1   0    5.01    2.58
  -3  -1  -1  115.90    6.67
   3  -1   1  120.04    7.53
   3  -1   1  108.74    6.58
  -3   1  -1  112.53    6.77
  -3  -1  -1  109.09    6.15
  -3   1  -1  114.83    7.57
  -3  -1  -2 4195.78  191.68
  -3   1  -2 4187.12  192.19
  -3   1  -2 3878.31  192.32
   3  -1   2 4320.85  192.76
   3  -1   2 4226.36  192.04
  -3  -1  -2 4145.28  192.28
  -3  -1  -2 4110.01  191.99
  -3   1  -2 4249.87  192.80
  -3  -1  -3  102.97    5.32
   3  -1   3   98.28    6.24
   3   1   3  105.18    6.88
  -3   1  -3  102.06    6.79
  -3  -1  -3   97.78    5.57
   3  -1   3   97.19    6.90
  -3   1  -3  113.72    6.53
  -3  -1  -3  104.98    6.26
  -3   1  -3  110.31    6.74
  -3  -1  -3   99.97    5.32
   3  -1   4  269.48   14.68
  -3   1  -4  268.57   14.38
  -3  -1  -4  295.60   14.04
   3   1   4  254.10   14.11
   3   1   4  294.84   14.80
  -3   1  -4  257.92   14.34
  -3  -1  -5  545.44   25.31
  -3   1  -5  498.96   25.46
   3   1   5  502.45   25.08
   3   1   5  544.43   26.01
   3  -1   5  507.33   25.41
  -3   1  -5  513.39   25.40
  -3   1  -5  480.93   24.85
   3   1   6  133.02    8.70
  -3  -1  -6  151.33    9.40
  -3   1  -6  135.43    8.54
  -3   1  -6  136.72    8.28
   3  -1   6  144.97    8.89
  -3   1  -6  131.58    8.92
   3   1   6  150.37    9.89
   3   1   7  618.48   31.23
   3   1   7  612.76   30.07
   3  -1   7  612.38   30.10
  -3   1  -7  580.52   29.59
  -3   1  -7  618.09   29.94
  -3   1  -8  120.33    8.21
  -3   1  -8  122.89    8.51
   3   1   8  125.92   10.52
   3  -1   8  122.20    8.59
   3   1   8  130.43    9.02
   3  -1   9  171.56   10.93
   3   1   9  147.02   12.72
   3   1   9  164.68   11.66
  -3   1  -9  198.93   11.03
   3   1  10   11.26    8.12
  -3   1 -10    6.48    4.97
   3   1  10   16.40    6.45
   3  -1  10   -9.31    5.41
  -3   1 -11   27.76    5.88
   3   1  11   38.81    7.37
   3  -1  11   29.85    5.64
   3   1  11   35.89    8.77
   3  -1  11   34.59    9.08
   3   1  12   43.00    7.91
  -3   1 -12   47.63    6.51
   3  -1  12   24.62    5.83
   3   1  12   45.83    9.39
   3   1  13   38.65    9.93
   3  -1  13   39.96    5.41
   3  -1  13   50.41    9.71
   3  -1  13   29.34    6.13
  -3   1 -13   36.83    6.65
   3   1  13   42.95    8.48
   3  -1  14    1.86    4.42
   3  -1  14   -2.41    5.77
   3   1  14    4.69    9.52
   3  -1  14   15.75    9.51
   3   1  14    1.19    7.93
  -3   1 -14    3.90    6.02
   3   1  15   22.10    9.23
   3   1  15   19.20   10.53
   3  -1  15    0.92    2.26
  -3   1 -15   20.01    6.90
   3  -1  15    7.30    5.64
   3  -1  15   27.02   10.12
   3   1  16   31.98   12.21
   3  -1  16   48.40   10.91
  -3   1 -16   31.84    8.17
   3   1  16   47.71   10.47
   3   1  17    6.77   10.24
  -3   1 -17   -3.45   10.47
   3  -1  17    4.85   12.11
  -3   1 -17    6.89    8.03
   3   1  17    2.84   11.46
   3  -1  18    5.88   11.77
  -3   1 -18    5.63    8.47
   3   1  18   -1.61   10.91
   3   2 -19    2.20    9.96
  -3  -2  19   -1.65   10.81
  -3  -2  19   21.27   14.30
  -3   2  19  -14.11   13.66
  -3  -2  19   15.55    9.23
  -3  -2  18   13.61    8.00
  -3   2  18    2.46   10.64
  -3  -2  18    9.60    8.82
  -3  -2  18   30.21   13.44
   3   2 -18    6.25    7.61
  -3   2  18    3.09   12.48
   3   2 -18    5.56    8.51
  -3  -2  17    3.93    7.78
   3   2 -17   -6.74    6.41
  -3  -2  17   14.72   12.71
  -3   2  17    0.97   12.39
   3   2 -17   -0.66    8.75
  -3  -2  17    1.53    8.01
  -3   2  17    0.93    5.40
  -3   2  17   -8.60   11.68
  -3  -2  16   14.48    7.86
   3   2 -16   17.57    6.30
   3   2 -16   31.67    9.14
  -3  -2  16   39.47   11.86
  -3   2  16    5.99    3.83
  -3   2  16   29.35   10.59
  -3  -2  16   26.93    7.99
  -3   2  16   12.57   10.70
  -3   2  15   -3.47    9.92
   3   2 -15    2.70    5.93
   3   2 -15    9.92    7.42
  -3  -2  15   -0.68    6.81
  -3   2  15   -1.72   11.63
  -3   2  15   12.58    5.59
  -3  -2  15    2.81    7.40
  -3  -2  14   61.83    8.42
   3  -2 -14   65.56    6.81
  -3   2  14   59.18    6.97
   3   2 -14   62.25    8.75
  -3  -2  14   65.43    8.38
  -3   2  14   74.68   10.15
   3   2 -14   54.01    7.43
   3  -2 -14   76.09   12.18
  -3   2  14   45.75   11.53
  -3  -2  13   45.73    7.92
  -3  -2  13   32.89    7.95
   3   2 -13   37.79    6.41
   3   2 -13   46.19    7.49
  -3   2  13   33.24    6.09
   3  -2 -13   29.07    5.67
   3  -2 -13   40.14   10.65
  -3   2  13   42.52    9.22
  -3   2  13   50.00    9.79
   3  -2 -12  193.26   11.30
   3  -2 -12  208.05   14.72
   3   2 -12  154.58   11.25
  -3   2  12  202.44   15.23
  -3   2  12  185.00   11.90
   3   2 -12  142.24   12.57
  -3  -2  12  184.07   13.07
  -3   2  12  225.10   14.95
  -3  -2  12  194.77   13.00
  -3   2  11   88.02    7.86
  -3  -2  11   83.63    9.14
  -3  -2  11   98.08    8.87
  -3   2  11   78.23   10.47
   3  -2 -11   92.64    7.89
  -3   2  11   83.47   10.70
   3   2 -11   96.72    7.16
   3  -2 -11   89.03   10.73
   3   2 -10  145.00    8.58
  -3   2  10  133.41    9.46
  -3   2  10  125.92   11.33
   3  -2 -10  130.24    9.41
  -3  -2  10  139.90   10.48
  -3  -2  10  126.90   10.65
   3  -2 -10  138.37   11.54
  -3   2  10  125.05   11.93
  -3   2   9   44.05    5.78
  -3   2   9   16.52    7.65
   3   2  -9   32.15    6.45
   3  -2  -9   33.43    5.50
   3  -2  -9   25.10    6.62
   3   2  -9   27.45    3.94
   3  -2  -9   29.50    6.95
  -3   2   9   25.84    7.21
  -3  -2   9   28.01    5.26
   3  -2  -8   76.31    8.11
  -3  -2   8   82.01    7.32
  -3   2   8   78.33    8.81
   3   2  -8   91.28    7.56
  -3   2   8   80.78    6.99
   3   2  -8   76.87    5.24
  -3   2   8   63.15    8.50
   3  -2  -8   77.50    6.92
  -3   2   7  409.57   22.27
   3  -2  -7  428.53   22.27
  -3  -2   7  445.49   23.11
   3   2  -7  469.51   22.38
   3  -2  -7  445.25   23.17
   3   2  -7  415.38   22.15
   3   2  -6  479.15   25.00
   3  -2  -6  521.21   25.20
   3  -2  -6  481.69   25.67
   3   2  -6  493.83   25.03
  -3  -2   6  491.48   25.78
  -3   2   6  499.43   25.45
   3  -2  -6  541.92   26.02
   3  -2  -5  399.58   20.33
   3  -2  -5  401.82   20.08
   3  -2  -5  393.51   20.38
  -3   2   5  395.97   20.12
   3   2  -5  424.31   19.53
  -3   2   4  246.53   13.70
   3  -2  -4  232.62   13.60
  -3  -2   4  236.42   11.46
   3   2  -4  216.39   12.68
  -3  -2   4  247.80   12.92
  -3   2   3   -4.28    4.57
   3  -2  -3   -2.45    4.69
  -3  -2   3    0.21    3.39
  -3  -2   3    0.19    3.22
  -3  -2   2  227.39   12.61
  -3   2   2  224.52   13.15
  -3  -2   2  209.63   11.83
  -3  -2   2  223.21   11.79
  -3   2   1 2000.32   97.50
  -3  -2   1 2128.43   97.12
   3  -2   0   40.98    4.69
  -3  -2   0   40.65    4.38
   3  -2   1  546.83   28.01
  -3  -2  -1  547.73   27.31
   3  -2   1  526.19   27.05
   3  -2   1  591.14   27.30
   3  -2   2  506.20   23.71
   3  -2   2  474.86   23.55
   3  -2   2  455.84   24.42
  -3   2  -2  434.55   24.32
  -3  -2  -2  470.63   23.46
   3  -2   3  377.64   19.76
   3  -2   3  388.30   19.67
   3  -2   3  378.86   20.77
  -3   2  -3  377.84   19.85
  -3  -2  -3  402.86   20.21
  -3  -2  -3  384.10   20.33
  -3  -2  -3  384.13   19.29
  -3   2  -3  398.66   20.78
   3  -2   4 1575.76   75.91
   3  -2   4 1588.30   76.89
  -3  -2  -4 1603.32   76.15
  -3  -2  -4 1713.53   76.66
  -3   2  -4 1551.77   76.78
  -3  -2  -4 1598.58   75.31
  -3   2  -4 1669.83   76.14
  -3   2  -5  863.67   40.09
  -3   2  -5  807.14   40.63
  -3  -2  -5  848.81   40.58
  -3  -2  -5  799.72   38.72
   3  -2   5  789.78   40.71
  -3  -2  -5  789.27   39.42
  -3  -2  -5  860.74   39.99
  -3   2  -5  836.64   39.90
   3  -2   5  829.55   39.79
  -3   2  -6  133.25    8.47
  -3  -2  -6  148.95    7.52
   3  -2   6  145.51    9.40
  -3   2  -6  156.18    9.10
  -3   2  -6  146.70    8.76
  -3  -2  -6   99.72    5.84
  -3  -2  -6   88.04    5.50
  -3  -2  -6  150.74    8.99
  -3   2  -7   44.42    5.67
  -3  -2  -7   42.10    6.48
  -3   2  -7   50.55    6.39
  -3   2  -7   43.45    6.46
   3  -2   7   41.85    6.20
  -3   2  -8  190.36   12.45
  -3   2  -8  183.39   12.22
  -3  -2  -8  198.80   13.03
  -3   2  -8  188.75   12.27
   3  -2   8  185.28   12.51
  -3   2  -9  215.38   13.70
   3   2   9  208.92   14.89
  -3   2  -9  217.12   13.93
  -3  -2  -9  210.94   15.03
   3  -2   9  198.21   13.94
  -3   2  -9  245.91   14.02
   3   2  10  400.58   23.99
  -3   2 -10  441.29   22.54
  -3  -2 -10  405.04   22.98
   3  -2  10  358.51   22.13
  -3   2 -10  410.60   22.38
  -3   2 -11  106.56    9.63
  -3   2 -11  112.50   10.32
   3  -2  11   90.98    9.74
   3   2  11   86.06   11.33
  -3   2 -12   33.97    7.98
  -3   2 -12   23.58    6.41
   3   2  12   21.18    9.50
   3  -2  12   25.66    7.35
  -3   2 -12   25.15    7.86
   3   2  13   -0.59    7.37
   3   2  13   -1.64   10.17
  -3   2 -13    5.46    7.83
  -3   2 -13    0.47    6.48
  -3   2 -13   11.22    7.30
   3  -2  13    7.92    6.74
  -3   2 -14   12.26    7.95
   3   2  14    9.70   10.26
  -3   2 -14    9.42    6.90
  -3   2 -14   32.42    8.75
   3  -2  14   15.17    7.35
   3   2  14    1.92    7.90
   3  -2  15   40.41    7.51
   3   2  15   33.06   11.97
   3  -2  15   53.26   13.52
  -3   2 -15   48.47    9.67
   3  -2  15   43.80    8.66
  -3   2 -15   61.92   10.34
  -3   2 -15   59.21    9.12
  -3   2 -16   34.08   10.32
  -3   2 -16   19.08    9.92
   3   2  16   20.10   12.62
   3  -2  16   24.48   11.78
  -3   2 -17    9.04   10.58
   3  -2  17   29.78   13.03
   3   2  17    1.07   13.53
  -3  -3  19   15.19   11.38
  -3  -3  19   -5.95   12.51
  -3  -3  18    1.88   10.63
  -3  -3  18   -8.57   11.72
  -3  -3  17    5.55   10.58
   3   3 -17    3.67    9.47
   3   3 -17    4.60    9.50
  -3  -3  17   -2.73   10.14
   3  -3 -16   39.76    5.79
   3   3 -16   45.35   10.73
   3   3 -16   42.97    9.89
  -3  -3  16   42.43   10.06
  -3   3  16   39.37    5.97
   3  -3 -16   57.59   12.70
  -3  -3  16   31.21    9.18
  -3   3  15   56.82    6.21
   3   3 -15   50.90    9.04
   3   3 -15   73.45   10.29
   3  -3 -15   51.54   13.43
   3  -3 -15   54.65    6.83
  -3  -3  15   67.20   10.27
  -3  -3  15   70.59   10.52
   3   3 -14    7.96    8.06
   3  -3 -14   24.39    6.17
   3  -3 -14   28.34   11.43
  -3   3  14   25.41    5.86
  -3  -3  14   13.98    7.90
  -3  -3  14   13.01    8.83
   3   3 -14   37.64    9.57
  -3   3  13   52.93    7.03
  -3  -3  13   52.12    9.07
  -3  -3  13   39.68    8.92
   3   3 -13   37.00    8.63
   3  -3 -13   50.99    7.10
   3  -3 -13   53.39   11.11
   3   3 -13   63.45    8.92
   3  -3 -12   84.48   10.75
   3   3 -12   80.95    9.52
   3  -3 -12   61.48    7.59
  -3  -3  12   73.11    9.51
  -3   3  12   80.96    7.92
  -3  -3  11   15.20    6.81
   3   3 -11    4.99    6.95
   3  -3 -11   12.09    8.04
  -3   3  11    6.24    5.44
   3  -3 -11    6.06    6.39
  -3  -3  10   31.39    7.48
  -3   3  10   43.47    6.68
   3   3 -10   42.28    7.51
   3  -3 -10   36.12    8.90
   3  -3 -10   36.09    7.12
   3  -3  -9  259.07   15.40
  -3  -3   9  254.37   16.46
   3  -3  -9  221.13   16.66
  -3   3   9  256.53   15.45
   3   3  -9  271.68   15.83
  -3  -3   8  129.45   11.20
   3  -3  -8  160.77   10.77
   3  -3  -8  153.52   11.86
   3   3  -8  141.95   10.86
   3  -3  -8  150.57   11.64
  -3   3   8  129.41   10.53
  -3  -3   7  178.89   12.35
   3   3  -7  163.85   11.57
  -3   3   7  164.92   11.40
   3  -3  -7  165.17   12.25
   3  -3  -7  173.17   12.65
   3  -3  -6  510.99   31.02
   3  -3  -6  623.55   31.18
   3  -3  -6  593.74   30.47
  -3   3   6  636.51   30.70
  -3  -3   6  582.97   29.97
  -3  -3   5  107.50    6.31
  -3  -3   5  112.76    8.56
  -3   3   5  106.59    8.87
   3  -3  -5   84.78    9.50
   3  -3  -5   90.27    9.44
   3  -3  -4   62.50    8.75
  -3  -3   4   93.70    7.49
   3  -3  -4   97.98    8.53
  -3   3   4   82.99    7.97
  -3  -3   4   97.74    7.66
  -3  -3   3   83.81    7.81
  -3   3   3   90.90    8.01
  -3  -3   3   81.84    7.14
   3  -3  -3  106.24    8.69
  -3  -3   3   74.60    7.30
  -3  -3   2   90.04    8.12
  -3  -3   2   97.80    7.43
  -3   3   2   80.37    7.88
   3  -3  -2   93.91    8.75
   3  -3  -1    5.44    6.02
  -3  -3   1    2.89    4.35
  -3   3   1   11.40    5.43
  -3  -3   1    8.20    4.97
  -3  -3   0 1139.67   55.33
   3  -3   0 1121.50   54.68
  -3   3   0 1153.69   55.83
   3  -3   1  435.70   22.59
  -3  -3  -1  431.63   23.20
   3  -3   2   -1.21    4.60
  -3  -3  -2    3.33    3.93
   3  -3   2   -0.33    4.81
   3  -3   2   -6.04    6.26
  -3   3  -3   10.29    5.34
   3  -3   3    4.04    5.05
   3  -3   3    8.08    5.34
  -3  -3  -3   14.87    4.60
   3  -3   3   -1.04    6.42
   3  -3   3   20.25    5.53
  -3  -3  -4   74.05    8.29
  -3  -3  -4   75.13    6.51
  -3   3  -4   69.56    7.61
   3  -3   4   57.43    6.53
   3  -3   4   65.18    6.72
   3  -3   4   56.54    7.99
  -3  -3  -4   67.03    8.28
  -3   3  -5  128.75    9.76
   3  -3   5  102.73    8.83
  -3  -3  -5  108.18    8.19
  -3  -3  -5  114.45   10.07
   3  -3   5  119.37   10.58
  -3  -3  -5  102.52    9.62
  -3  -3  -5  119.29   10.17
   3  -3   5  104.09    8.92
  -3   3  -6  121.94   10.16
  -3  -3  -6  149.23   11.44
   3  -3   6  109.64   10.99
  -3  -3  -6  160.68   11.07
   3  -3   6  142.94   10.04
  -3  -3  -6  144.55    9.00
  -3  -3  -6  138.54   10.78
  -3   3  -6  126.59   10.75
  -3  -3  -7  427.00   22.60
  -3   3  -7  392.55   22.02
   3  -3   7  368.00   22.48
  -3  -3  -7  380.61   20.76
   3  -3   7  370.13   20.84
  -3  -3  -7  419.35   21.64
  -3  -3  -7  373.87   19.39
  -3   3  -7  361.82   21.24
  -3   3  -8   38.50    7.20
  -3  -3  -8   38.20    8.00
  -3  -3  -8   41.44    3.67
  -3   3  -8   38.80    6.82
   3  -3   8   29.81    7.63
  -3   3  -9   32.71    6.54
  -3   3  -9   24.38    6.83
  -3  -3  -9   27.42    7.62
   3  -3   9   26.49    7.98
  -3   3 -10   -1.58    6.00
  -3  -3 -10    4.05    7.67
   3  -3  10   -2.55    8.09
   3  -3  11   15.20    7.81
  -3  -3 -11   27.90    9.11
  -3  -3 -12   20.36    9.91
  -3   3 -12    1.59    7.29
  -3   3 -12    6.70    7.97
   3  -3  12  -13.01    8.53
  -3   3 -13   43.50    9.22
   3  -3  13   22.53    9.20
  -3  -3 -13   39.14   11.19
  -3   3 -13   29.99    9.19
  -3   3 -14   15.00    8.54
   3  -3  14   -0.73    8.82
  -3   3 -14   14.60    9.81
  -3   3 -15    1.90    8.96
  -3   3 -15    3.70    9.07
   3  -3  15    4.44    9.55
  -3   3 -16    2.67    9.78
  -3  -4  17   -5.14   11.12
  -3  -4  16   -5.03   10.74
   3  -4 -16   14.79   15.17
  -3  -4  16    8.08   11.55
  -3  -4  15   -6.40   10.65
  -3  -4  15   -6.74   10.14
   3  -4 -15   12.76   12.51
   3   4 -15   -8.38   10.62
   3  -4 -14    3.14   10.85
   3  -4 -14    3.94    6.57
  -3  -4  14    3.48   10.51
   3   4 -14    7.15    9.72
  -3  -4  14   11.01    9.89
  -3   4  14   -6.51    6.14
   3  -4 -13    3.72    6.86
   3   4 -13   -3.35    8.61
   3  -4 -13   11.17   11.37
  -3   4  13   -0.49    5.94
  -3  -4  13    6.14    9.45
   3  -4 -12   15.93   10.07
  -3  -4  12   34.40    9.47
   3   4 -12   34.06    9.00
  -3   4  12   17.78    6.20
   3  -4 -12   39.40    7.73
   3   4 -11   19.44    7.91
   3  -4 -11   15.75    7.60
  -3  -4  11   19.34    8.61
   3  -4 -11    4.25    9.21
  -3   4  11   13.53    6.33
   3  -4 -10   -1.40    8.68
   3  -4 -10   21.37    7.39
  -3   4  10    5.82    6.04
   3   4 -10    2.75    6.88
  -3  -4  10    9.29    7.78
  -3   4   9    6.98    6.40
  -3  -4   9    7.46    7.11
   3  -4  -9   17.63    8.60
   3  -4  -9   14.64    7.12
   3  -4  -9   13.57    8.95
  -3   4   8   23.94    6.72
   3  -4  -8   23.05    9.38
   3  -4  -8   22.29    8.18
   3  -4  -8   18.69    7.95
  -3  -4   8   16.61    7.24
  -3   4   7    1.10    5.62
  -3  -4   7    0.47    5.93
   3  -4  -7   -9.43    8.36
   3  -4  -7    3.58    7.75
   3  -4  -7   10.04    8.15
   3  -4  -6  331.61   20.45
  -3  -4   6  332.79   19.39
   3  -4  -6  323.55   20.69
  -3  -4   6  324.03   17.03
  -3   4   6  349.64   19.79
   3  -4  -5  542.90   28.60
  -3  -4   5  498.68   26.35
   3  -4  -5  428.93   26.98
  -3  -4   5  498.27   24.48
  -3  -4   5  515.57   26.27
  -3   4   5  492.54   26.98
  -3  -4   5  463.51   27.60
   3  -4  -4   21.60    8.19
   3  -4  -4    0.67    8.17
  -3  -4   4    7.49    5.91
  -3  -4   4    8.75    5.95
  -3   4   4    0.58    6.24
  -3  -4   4   10.20    7.03
  -3  -4   3  353.75   19.91
   3  -4  -3  363.83   21.32
  -3  -4   3  360.90   20.16
  -3  -4   3  355.58   21.16
  -3   4   3  340.85   21.07
   3  -4  -2  253.76   17.74
  -3  -4   2  316.05   17.36
  -3  -4   2  279.42   16.49
  -3  -4   2  270.16   17.59
  -3   4   2  259.64   17.38
   3  -4  -1   -3.16    6.48
  -3  -4   1   -8.33    5.88
  -3  -4   1    1.17    6.46
   3  -4  -1   -0.61    7.28
  -3   4   1   -3.73    6.06
  -3   4   0  123.61   11.15
   3  -4   0  112.04   11.89
   3  -4   0  145.20   10.69
  -3  -4   0  139.83   11.34
  -3   4  -1  352.07   19.90
  -3  -4  -1  298.68   18.57
   3  -4   1  298.77   18.00
   3  -4   2    4.81    6.20
  -3  -4  -2    2.10    5.58
   3  -4   2   11.69    5.77
   3  -4   3  199.24   13.15
   3  -4   3  209.17   13.14
   3  -4   3  189.93   14.93
  -3  -4  -3  199.25   13.41
   3  -4   3  172.43   12.50
  -3  -4  -4  179.27   13.52
  -3   4  -4  182.15   13.88
   3  -4   4  192.14   14.40
   3  -4   4  163.48   12.49
   3  -4   4  174.98   11.86
  -3  -4  -4  178.26   13.92
   3  -4   4  165.05   12.37
  -3  -4  -4  179.82   12.89
  -3  -4  -5   10.19    6.78
  -3  -4  -5   15.91    7.61
  -3   4  -5   12.85    6.82
  -3  -4  -5   19.11    8.12
   3  -4   5   13.15    5.78
   3  -4   5   23.73    6.91
   3  -4   5   12.82    7.77
  -3  -4  -6   32.26    8.31
   3  -4   6   16.79    8.09
  -3  -4  -6   44.58    6.91
  -3  -4  -6   27.92    8.53
   3  -4   6   36.78    7.39
  -3   4  -6   24.76    7.44
  -3  -4  -6   41.27    8.43
  -3  -4  -7   44.14    9.25
   3  -4   7   26.87    9.77
  -3   4  -7   30.16    7.77
  -3  -4  -7   43.36    8.83
  -3  -4  -7   44.53    6.93
  -3  -4  -7   54.42    8.79
   3  -4   7   34.52    7.41
   3  -4   8    3.00    6.81
  -3   4  -8    7.14    7.22
  -3  -4  -8   19.50    7.29
   3  -4   8    3.06    9.66
  -3  -4  -8   30.06    8.09
  -3  -4  -8    3.58    5.79
  -3  -4  -8    6.71    8.44
   3  -4   9    0.79    9.70
  -3  -4  -9   -1.79    9.12
  -3  -4  -9   27.59    7.70
  -3   4  -9    5.79    7.53
  -3  -4  -9   13.01    4.45
   3  -4  10   59.89   11.48
  -3  -4 -10   72.29   10.01
  -3   4 -10   68.99    9.53
  -3  -4 -10   41.79    3.96
  -3  -4 -11   88.95   11.70
   3  -4  11   73.17   11.88
  -3   4 -11   68.42   10.13
  -3   4 -12    9.79    8.93
  -3  -4 -12   20.42   11.19
   3  -4  12   -5.16   10.25
  -3   4 -13    6.69    9.32
   3  -4  13  -10.64   11.03
  -3  -4 -13   23.35   14.27
   3  -4  14   -0.91   12.30
  -3  -4 -14    7.30   13.93
   3  -4  15  -13.08   13.53
  -3   5  12    4.33    7.19
   3  -5 -12   -3.50   12.76
  -3  -5  12   19.84   11.19
   3  -5 -12    2.49    8.58
   3  -5 -12   33.61   11.90
  -3   5  11   69.13    9.49
   3  -5 -11   70.78   10.93
  -3  -5  11   69.25   11.98
   3  -5 -11   57.11   13.90
   3  -5 -11   88.91   12.93
  -3   5  10    5.90    6.90
   3  -5 -10   36.76   11.58
   3  -5 -10   18.77   11.25
  -3  -5  10    0.93    8.94
   3  -5 -10   27.96    8.86
   3  -5  -9   28.38   11.05
  -3  -5   9   14.47    8.81
   3  -5  -9   10.60    9.43
   3  -5  -9   26.30   10.64
  -3   5   9    5.35    6.61
  -3   5   8   36.04    8.18
   3  -5  -8   46.97   10.47
   3  -5  -8   36.25    9.79
  -3  -5   8   38.37    8.89
   3  -5  -8   19.55    9.43
  -3   5   7   10.36    7.23
  -3  -5   7   15.33    7.37
   3  -5  -7   -0.65    9.12
   3  -5  -7   17.55   10.39
   3  -5  -7    5.89    9.57
  -3  -5   6   41.11    8.52
   3  -5  -6   40.29   10.78
  -3  -5   6   49.83    6.09
  -3   5   6   49.14    9.01
  -3  -5   6   59.33    9.54
   3  -5  -6   70.17   11.71
   3  -5  -6   37.16   10.65
  -3   5   5   74.27    9.74
  -3  -5   5   87.83    7.30
   3  -5  -5   66.12   12.09
  -3  -5   5   96.29   10.12
  -3  -5   5   84.03   10.94
  -3  -5   5  104.46   10.13
   3  -5  -5   56.84   11.17
  -3   5   4    8.72    7.43
   3  -5  -4   14.23    9.14
  -3  -5   4    4.45    5.07
   3  -5  -4   -6.85   10.76
  -3  -5   4   -0.52    6.42
  -3  -5   4   -1.17    7.59
  -3  -5   4    1.60    7.62
  -3  -5   3   44.84    8.73
  -3  -5   3   22.64    8.01
  -3   5   3   25.91    7.68
  -3  -5   3   35.19    8.00
   3  -5  -3   47.00   10.24
  -3  -5   2   73.33   10.60
  -3  -5   2   90.70   10.57
   3  -5  -2   88.70   12.11
  -3  -5   2   80.19   10.22
  -3   5   2   96.62   10.65
  -3   5   1   21.50    8.48
  -3  -5   1   14.16    8.34
   3  -5  -1   15.52    8.75
  -3  -5   1   26.13    8.80
  -3  -5   0  152.26   12.92
   3  -5   0  135.75   13.84
  -3  -5   0  159.28   13.04
  -3   5   0  114.48   11.94
   3  -5   1   62.95   10.30
  -3  -5  -1   66.32    9.37
  -3   5  -1   59.84    9.47
  -3  -5  -1   48.62    9.54
  -3   5  -2   -1.60    7.40
  -3  -5  -2    2.06    7.71
   3  -5   2   -3.74    6.46
   3  -5   3   42.07    8.62
   3  -5   3   35.81    7.44
  -3  -5  -3   42.45    8.95
  -3  -5  -4    6.87    8.09
  -3  -5  -4    3.78    7.43
   3  -5   4  -10.41    9.60
   3  -5   4    1.85    5.86
   3  -5   4   -3.39    7.97
   3  -5   4    8.04    7.17
  -3  -5  -4   -3.00    8.27
   3  -5   5   22.10   10.07
  -3   5  -5   24.35    8.22
  -3  -5  -5   21.74    8.51
  -3  -5  -5   22.32    7.46
   3  -5   5   25.49    8.06
   3  -5   5   28.50    7.37
  -3  -5  -5   13.98    9.31
  -3  -5  -5   26.08    8.61
   3  -5   6    9.92    9.59
  -3  -5  -6    7.87    7.93
   3  -5   6    9.13    7.39
  -3  -5  -6    7.29    8.71
  -3  -5  -6   12.10    8.13
  -3   5  -6    3.41    7.60
  -3  -5  -6   -0.74    8.18
   3  -5   6   13.88    6.60
  -3  -5  -7   18.01    7.63
   3  -5   7   -4.59   10.12
  -3  -5  -7   -0.69    8.88
  -3  -5  -7   14.09    8.98
   3  -5   7   23.56    8.56
  -3   5  -7    1.72    8.69
  -3  -5  -7   10.88    8.49
   3  -5   8   14.30    8.31
   3  -5   8    7.49   10.23
  -3  -5  -8    5.19    8.54
  -3  -5  -8   10.03    8.83
  -3  -5  -8    3.61    8.21
  -3  -5  -8    6.69    7.72
  -3   5  -8   -0.87    8.03
   3  -5   9   32.53   11.95
  -3  -5  -9    8.10   10.52
  -3  -5  -9   36.65    8.99
  -3  -5  -9   48.81   11.29
  -3   5  -9   23.64    9.16
   3  -5  10   11.78   12.56
  -3  -5 -10    2.94   10.91
  -3  -5 -11    7.43   11.89
   3  -5  11   -5.02   12.91
  -3  -5 -12   -8.38   11.74
   3  -6  -9    2.81   11.85
   3  -6  -9    4.32   13.34
  -3   6   9   -2.36    9.73
   3  -6  -8   29.37   13.22
   3  -6  -8   26.08   12.65
  -3   6   8   24.89   10.12
  -3   6   7    4.08    8.80
  -3  -6   7   12.66   10.30
   3  -6  -7    6.76   13.98
  -3  -6   7    6.20    9.50
   3  -6  -7   -0.80   12.00
  -3  -6   6   10.10    9.48
   3  -6  -6   12.72   12.34
  -3  -6   6    9.71    9.67
   3  -6  -6   -1.66   12.17
  -3   6   6    3.32    8.52
   3  -6  -6   18.07   11.88
   3  -6  -5  -12.89   12.84
   3  -6  -5    4.99   12.46
  -3  -6   5    3.63    5.86
  -3  -6   5    6.95   10.27
  -3   6   5    5.06    9.70
  -3  -6   5    8.26    9.49
   3  -6  -5    7.04   12.00
  -3  -6   4   11.40   10.76
  -3  -6   4   11.14    7.02
  -3  -6   4   27.23   11.27
   3  -6  -4   -2.06   12.06
  -3  -6   4   20.37    9.95
   3  -6  -4   12.27   10.68
  -3   6   4    4.29    8.79
   3  -6  -3   16.26   11.87
  -3  -6   3   11.57    8.97
  -3  -6   3    5.71    9.49
   3  -6  -3  -20.14   12.82
  -3   6   3   -3.49    9.71
  -3  -6   3   15.35   10.34
  -3   6   2   28.40    8.94
   3  -6  -2   49.25   11.92
  -3  -6   2   29.85   10.79
  -3  -6   2   32.61   10.23
  -3  -6   2   39.85   11.33
   3  -6  -1   14.29   11.50
  -3  -6   1    2.88    9.86
  -3   6   1    5.42    9.16
  -3  -6   1    4.57   11.52
  -3  -6   1    9.60   10.56
  -3  -6   0   87.65   13.88
  -3  -6   0  116.32   14.66
  -3   6   0  114.31   13.45
   3  -6   0  106.22   14.19
  -3  -6   0   92.10   13.00
  -3  -6  -1    3.47   10.45
   3  -6   1    7.46    8.16
  -3  -6  -1   -0.76   11.06
   3  -6   1    1.98   10.69
  -3   6  -1   12.22    9.19
  -3  -6  -2   11.84   10.65
   3  -6   2   20.54   10.29
   3  -6   2   19.43    8.92
  -3  -6  -2    9.16   10.16
   3  -6   2   13.08   12.08
  -3   6  -2    8.63    9.31
  -3  -6  -3   -5.19   11.32
   3  -6   3    8.31    8.59
  -3  -6  -3   -3.22   10.85
  -3  -6  -3   -1.60   10.21
   3  -6   3    3.06   12.41
   3  -6   3   13.12    9.64
  -3   6  -3    3.90    9.15
   3  -6   4   31.59   10.49
   3  -6   4   24.14    8.33
  -3  -6  -4   34.70   12.05
  -3  -6  -4    9.49    9.65
  -3  -6  -4   30.31   10.35
  -3  -6  -5    6.04   11.18
  -3  -6  -5    7.95    9.06
  -3  -6  -5   -0.80    9.92
   3  -6   5    4.36    7.98
  -3  -6  -5    0.91   11.77
   3  -6   5    7.11    9.30
  -3  -6  -6   68.20   10.87
  -3  -6  -6   55.77   12.20
  -3  -6  -6   37.65   12.52
  -3  -6  -6   43.03   13.08
  -3  -6  -7    1.66   11.18
  -3  -6  -7    0.84   11.73
  -3  -6  -8   13.33   11.77
  -4   0  20    3.51   10.14
  -4   0  20   -7.12   12.72
  -4   0  19    5.79    9.40
  -4   0  19    5.96    8.07
  -4   0  19    0.57    6.81
  -4   0  19    0.83   12.63
  -4   0  18   48.50    8.36
  -4   0  18   46.78    9.47
  -4   0  18   28.30   11.78
  -4   0  18   36.63    7.59
  -4   0  17    3.68    7.51
  -4   0  17   -0.54    6.12
  -4   0  17    6.54    8.02
  -4   0  16   38.19    7.77
  -4   0  16   31.06    9.92
  -4   0  16   25.00    7.84
  -4   0  15    0.38    7.15
  -4   0  15   -0.64    8.89
  -4   0  15   10.66    7.45
  -4   0  14   18.23    7.30
  -4   0  14   21.01    8.99
  -4   0  13    5.59    6.95
  -4   0  13   -6.68    8.24
  -4   0  12  426.35   24.38
  -4   0  12  427.53   22.79
  -4   0  11    5.76    7.63
  -4   0  11    3.85    5.92
  -4   0  10  468.68   24.37
   4   0 -10  469.43   23.83
   4   0  -9   -4.05    4.01
  -4   0   9   -3.17    5.41
  -4   0   8  190.30   11.46
   4   0  -8  189.12   11.10
   4   0  -7   -1.17    3.70
  -4   0   7    0.26    4.67
  -4   0   6  535.52   26.44
   4   0  -6  524.06   26.16
  -4   0   5    3.77    4.34
  -4   0   5   -1.45    4.12
  -4   0   4 1369.98   60.94
  -4   0   4 1342.56   60.35
  -4   0   3    1.48    3.34
  -4   0   3   -1.31    2.01
   4   0  -2 7918.29  359.97
  -4   0   2 7744.60  359.48
   4   0  -2 7812.88  359.41
  -4   0   1    0.22    2.16
   4   0  -1   -0.15    3.19
   4   0  -1    1.09    2.28
  -4   0   1    1.12    3.89
  -4   0   1    1.73    1.61
  -4   0   0  416.61   19.36
  -4   0   0  392.99   18.86
  -4   0   0  373.11   19.04
  -4   0   0  388.84   18.40
   4   0   0  410.09   19.29
   4   0   1    1.52    2.86
  -4   0  -1    0.14    3.02
   4   0   2  884.38   42.41
  -4   0  -2  929.95   42.67
  -4   0  -3   -3.59    2.43
   4   0   3    1.70    2.33
  -4   0  -3   -0.55    1.52
   4   0   4 6327.86  286.94
  -4   0  -4 6270.67  286.84
   4   0   4 6023.92  287.24
  -4   0  -4 6240.66  287.13
   4   0   5    2.75    3.28
   4   0   5    2.88    2.23
  -4   0  -5   -0.92    1.97
   4   0   6  108.13    6.13
   4   0   6  114.45    7.78
  -4   0  -6  106.85    6.10
   4   0   7   -1.62    5.11
   4   0   7   -2.00    2.38
   4   0   8  104.42    6.00
   4   0   8  110.94    8.90
   4   0   9   -2.51    1.76
   4   0   9   -5.85    6.70
   4   0  10  609.44   31.29
   4   0  11   -3.84    7.26
   4   0  12    7.58    3.86
  -4   0 -12   11.54    5.43
  -4   0 -13    2.21    5.65
   4   0  13   -8.23    8.15
  -4   0 -14   11.11    6.01
   4   0  14   -1.68    8.38
   4   0  14    6.12    4.13
   4   0  15   -2.37    9.20
   4   0  15    3.94    4.84
   4   0  15   -7.92    9.61
  -4   0 -15   10.21    6.16
   4   0  16   35.39   11.13
  -4   0 -16   24.56    7.04
   4   0  16   44.45    9.72
   4   0  17    3.62   11.77
   4   0  17   28.67   10.20
  -4   0 -17    0.49    8.09
  -4   1  20    6.91   13.14
  -4   1  20    4.07   10.82
  -4   1  19    1.56    9.30
   4   1 -19    2.78   10.10
  -4   1  19    8.20   10.43
  -4  -1  19    7.87    7.58
  -4   1  19    8.42   10.83
  -4  -1  18    2.74    7.60
   4   1 -18    6.67    8.25
  -4  -1  18    7.72    7.34
  -4   1  18   -8.59    9.13
  -4  -1  18   -5.24   10.00
  -4   1  18   -5.54    7.72
  -4   1  18   24.80   11.59
  -4   1  17   -0.81    9.12
  -4  -1  17    8.47    7.16
  -4  -1  17   25.12   10.17
  -4   1  17   17.61   10.47
  -4   1  17   22.65    9.25
  -4   1  17   16.07    7.82
  -4  -1  17    6.65    7.47
  -4  -1  16   16.02    7.20
  -4   1  16   31.00    9.86
  -4  -1  16   17.01    7.01
  -4  -1  16   32.98   10.51
  -4   1  16   24.33    9.59
  -4   1  16   31.89    7.84
  -4   1  16   22.15    9.14
  -4   1  15  220.97   14.77
  -4  -1  15  252.07   15.89
  -4   1  15  228.01   16.71
  -4  -1  15  196.41   14.40
  -4   1  15  264.77   18.04
  -4   1  15  246.82   17.17
  -4  -1  15  253.03   17.57
  -4  -1  14   23.28    9.01
  -4   1  14   16.20    9.80
  -4  -1  14    5.37    6.41
  -4   1  14   18.60    8.43
  -4  -1  14    5.37    5.56
  -4   1  14   12.10    7.22
  -4   1  14    1.32    7.51
  -4   1  13  145.29   12.73
  -4   1  13  142.46   10.96
  -4  -1  13  118.72   12.67
  -4  -1  13  117.81   10.06
   4  -1 -13  127.72    9.31
  -4   1  13  110.52   11.67
  -4   1  13  152.19   13.10
  -4  -1  13  113.82   10.22
  -4  -1  12   26.69    6.86
   4  -1 -12   20.63    5.64
  -4   1  12   25.22    7.26
  -4   1  12   40.38    9.15
  -4   1  12   40.10    8.86
  -4   1  12   19.28    7.35
  -4  -1  12   37.97    9.35
  -4   1  11  246.31   15.66
  -4  -1  11  254.63   15.20
   4  -1 -11  271.93   14.74
  -4   1  11  244.59   16.26
  -4   1  11  272.95   17.32
  -4   1  11  263.25   16.60
   4  -1 -10  376.88   19.14
  -4   1  10  376.33   19.82
  -4   1  10  398.66   20.98
  -4   1  10  279.81   20.36
  -4  -1  10  369.91   19.57
  -4   1  10  365.21   20.53
  -4  -1   9  275.86   15.58
   4  -1  -9  278.96   15.10
  -4   1   9  289.85   17.00
  -4   1   9  265.23   16.54
  -4   1   9  302.16   15.95
  -4  -1   8  491.39   24.13
  -4   1   8  475.95   24.48
  -4   1   8  456.50   24.71
   4  -1  -8  453.02   23.88
  -4   1   8  490.03   25.04
  -4  -1   7  240.94   13.03
   4  -1  -7  196.20   13.14
  -4   1   7  205.26   13.50
   4  -1  -7  249.95   12.92
  -4   1   7  238.24   14.03
  -4   1   7  241.05   13.26
  -4  -1   6  227.64   12.93
   4  -1  -6  227.02   12.67
  -4   1   6  254.75   13.74
  -4   1   6  238.46   13.35
   4  -1  -6  221.89   12.89
   4  -1  -6  229.78   13.17
   4   1  -5 1793.80   81.79
  -4   1   5 1769.60   82.31
   4  -1  -5 1684.79   81.93
   4  -1  -5 1729.66   82.14
   4  -1  -5 1764.29   82.03
   4   1  -4  558.61   27.12
  -4   1   4  575.61   27.99
   4  -1  -4  513.80   27.55
   4  -1  -4  599.47   27.77
  -4   1   4  547.93   27.94
   4   1  -4  579.84   26.87
   4   1  -3   -0.37    1.89
   4   1  -3    0.26    2.42
  -4   1   3   -6.93    4.73
   4  -1  -3    2.45    3.32
  -4  -1   2  593.62   27.47
   4  -1  -2  648.29   28.76
   4   1  -2  574.91   27.76
  -4  -1   2  588.92   28.28
   4  -1  -2  636.68   28.62
  -4  -1   1    4.11    3.10
  -4  -1   1    1.87    1.86
   4  -1  -1   -0.23    4.55
   4  -1  -1    2.12    3.48
   4  -1   0    3.09    2.39
  -4  -1   0    2.04    1.92
  -4  -1   0    1.51    3.00
   4  -1   0   -1.72    3.65
   4  -1   0    1.65    4.30
  -4   1   0    2.26    3.98
  -4  -1   0    2.82    2.12
  -4  -1  -1 4383.79  200.22
  -4   1  -1 4399.16  201.25
   4  -1   1 4290.00  201.05
  -4  -1  -1 4204.63  200.23
   4  -1   1 4509.37  200.44
  -4   1  -1 4283.69  200.40
  -4   1  -2  125.15    8.08
  -4  -1  -2  142.75    7.59
   4  -1   2  142.03    8.69
  -4   1  -2  144.44    8.84
  -4  -1  -2  145.37    7.45
   4  -1   2  140.65    7.61
  -4  -1  -3  198.14    9.55
  -4   1  -3  182.03   10.55
  -4   1  -3  196.28   10.48
   4  -1   3  188.17   11.06
   4  -1   3  183.50    9.95
   4   1   3  198.90   10.66
  -4  -1  -3  198.59    9.90
  -4   1  -3  180.20   10.87
  -4  -1  -3  184.46    9.27
  -4  -1  -4  225.45   11.60
  -4   1  -4  277.78   13.27
   4   1   4  283.72   13.67
  -4  -1  -4  267.94   12.73
  -4   1  -4  251.52   13.45
   4  -1   4  296.71   13.77
  -4   1  -4  246.16   13.39
  -4  -1  -4  229.73   11.63
  -4   1  -5   21.04    4.29
   4  -1   5   11.75    4.35
   4   1   5    6.07    3.16
  -4  -1  -5   20.36    4.39
  -4   1  -5    9.80    3.49
   4   1   5   25.38    4.67
  -4   1  -6   77.46    5.97
   4   1   6   75.63    7.38
   4  -1   6   79.81    6.52
  -4   1  -6   68.88    6.55
  -4   1  -6   66.75    5.74
   4   1   6   58.58    5.54
  -4   1  -7 1269.75   59.25
  -4   1  -7 1166.01   58.16
   4   1   7 1311.16   59.91
   4   1   7 1225.05   58.56
  -4   1  -7 1243.71   58.71
   4  -1   7 1230.72   58.73
   4  -1   8   53.31    6.29
  -4   1  -8   54.69    5.91
  -4   1  -8   43.39    5.21
   4   1   8   62.76    8.02
   4   1   8   59.63    6.05
   4   1   9   64.01    9.30
  -4   1  -9   66.72    6.66
   4   1   9   66.19    7.38
   4  -1   9   64.82    6.75
   4   1  10   78.43   10.01
   4  -1  10   64.88    6.98
  -4   1 -10   83.12    7.17
   4   1  10   73.17    7.88
   4   1  11    3.77    7.70
  -4   1 -11    8.29    5.22
   4  -1  11    9.01    8.43
   4  -1  11    2.87    5.04
   4   1  11    0.86    5.85
  -4   1 -12   61.61    7.31
   4   1  12   79.41   11.05
   4  -1  12   71.04    7.08
   4  -1  12   79.75   10.16
   4   1  12   85.62    8.99
   4  -1  13   10.60    3.71
   4  -1  13   40.24    6.13
   4  -1  13   35.06    9.85
  -4   1 -13   28.87    6.23
   4   1  13   44.49    8.22
   4   1  13   40.02    9.02
   4  -1  14   16.84    5.65
   4  -1  14   11.23    4.12
  -4   1 -14    9.23    5.94
   4   1  14   15.91    9.36
   4  -1  14    9.39    9.49
   4   1  14   16.03    7.58
  -4   1 -15    8.99    8.38
  -4   1 -15   12.61    6.59
   4   1  15    0.85    9.65
   4  -1  15   13.44    4.53
   4  -1  15   11.57    9.77
   4   1  15    6.22    8.78
   4  -1  15    1.41    5.75
  -4   1 -16   13.65    9.66
   4   1  16   24.41   11.29
   4  -1  16   22.50   12.96
  -4   1 -16   22.14    7.05
   4   1  16    5.38    9.72
  -4   1 -17    5.13    7.63
   4  -1  17   -1.37   11.83
   4   1  17   -3.85   12.12
  -4   2  20  -10.44   14.06
  -4  -2  19    0.87   10.76
  -4  -2  19   21.27   13.96
   4   2 -19    6.69    9.80
  -4   2  19   -5.51   12.70
  -4   2  18  -10.47   10.80
  -4  -2  18    8.48    9.12
   4   2 -18    8.24    6.72
   4   2 -18   -2.12    9.31
  -4  -2  18    3.45   13.07
  -4  -2  18    3.32    8.78
  -4   2  18   -1.05   12.48
   4   2 -17    2.82    6.56
  -4  -2  17   16.51    7.84
  -4  -2  17    1.57    7.21
  -4   2  17    4.96   11.49
   4   2 -17    6.70    8.08
  -4  -2  17    4.08   11.87
  -4   2  17    8.96    6.30
  -4   2  17    4.13   10.76
  -4   2  16    0.42    6.40
  -4   2  16   -3.12   10.60
  -4  -2  16    5.03    7.63
  -4  -2  16   -5.88    6.76
   4   2 -16   -1.49    5.95
  -4   2  16  -14.05   10.69
  -4  -2  16   28.59   11.61
   4   2 -16    0.63    7.10
  -4  -2  15   -4.13    7.39
  -4   2  15   17.92    6.84
   4  -2 -15    4.54    5.38
  -4  -2  15    0.98    7.09
   4   2 -15    6.46    6.02
  -4   2  15    5.14    9.46
   4   2 -15    7.13    7.60
  -4   2  15    1.76    9.83
  -4  -2  14   18.51    7.18
   4  -2 -14   10.82    5.55
   4   2 -14    3.67    5.19
  -4   2  14   16.44    9.24
  -4   2  14   10.42    8.89
   4  -2 -14   17.25   10.28
  -4  -2  14   30.31    7.13
  -4   2  14   27.22    7.05
  -4   2  13   84.23    8.57
   4   2 -13   67.58    7.10
  -4  -2  13   90.28    9.28
   4  -2 -13   87.65    7.80
  -4  -2  13   75.18    9.20
   4  -2 -13  100.08   11.17
  -4   2  13   81.10   10.77
  -4   2  13   57.56   10.95
   4  -2 -12  118.94    9.05
  -4   2  12  131.90    9.77
  -4   2  12  108.35   11.52
  -4  -2  12  120.93   10.49
  -4  -2  12   90.44    9.26
  -4   2  12  115.32   11.79
   4   2 -12   93.66    7.54
   4  -2 -12  136.14   12.17
  -4  -2  11   36.92    7.61
  -4   2  11   37.02    8.06
  -4  -2  11   51.34    6.99
   4  -2 -11   57.90    8.97
   4  -2 -11   38.99    6.81
  -4   2  11   34.18    8.83
   4   2 -11   41.42    4.90
  -4   2  11   54.82    6.98
  -4  -2  10    1.19    6.02
  -4  -2  10   -0.50    4.77
   4  -2 -10   -0.30    5.61
  -4   2  10   -9.84    7.91
  -4   2  10    7.89    5.69
   4   2 -10    2.13    3.12
  -4   2  10   -4.85    7.67
  -4  -2   9  106.38    8.82
  -4  -2   9   85.67    8.00
  -4   2   9   79.45    9.29
  -4   2   9   97.35    8.08
   4   2  -9   79.93    5.34
   4  -2  -9   68.12    7.57
   4   2  -9   76.71    7.67
   4   2  -9   83.64    7.77
   4  -2  -9   96.19    8.61
  -4   2   9   63.37    9.68
   4  -2  -8  327.73   18.83
   4  -2  -8  320.18   19.53
  -4   2   8  359.38   20.48
   4   2  -8  333.39   18.90
   4   2  -8  379.11   19.07
  -4  -2   8  358.02   19.67
  -4   2   8  361.81   19.25
  -4  -2   8  390.37   19.57
   4   2  -7 1471.35   69.57
  -4   2   7 1429.05   70.12
   4  -2  -7 1498.69   70.46
  -4  -2   7 1470.56   70.56
   4  -2  -7 1446.50   69.80
   4   2  -7 1502.47   69.74
   4   2  -6  491.27   23.66
   4  -2  -6  471.61   24.18
   4  -2  -6  519.77   24.87
   4  -2  -6  396.95   24.63
   4   2  -6  472.39   23.79
   4  -2  -6  474.59   24.51
  -4   2   6  471.53   24.57
   4   2  -5  704.48   35.04
   4  -2  -5  723.63   35.57
  -4   2   5  703.32   35.71
   4  -2  -5  710.45   35.86
   4   2  -5  748.29   34.93
   4  -2  -4  117.38    8.68
  -4   2   4  116.28    8.66
  -4  -2   4  113.29    7.41
   4  -2  -4  113.33    8.92
  -4  -2   4  115.79    5.76
  -4  -2   3  628.79   31.19
  -4   2   3  614.44   31.62
  -4  -2   3  624.11   30.45
   4  -2  -3  622.02   31.55
   4  -2  -3  583.15   31.29
  -4  -2   3  658.14   30.22
  -4  -2   2 1004.38   49.30
   4  -2  -2 1152.69   50.16
  -4  -2   2 1019.94   48.67
  -4   2   2 1038.46   49.99
  -4  -2   2  984.88   48.40
  -4  -2   1 1489.12   70.45
  -4  -2   0  200.91   11.67
   4  -2   0  171.20   12.43
   4  -2   1   81.55    5.94
   4  -2   1   74.93    6.99
  -4   2  -1   52.10    6.62
  -4  -2  -1   75.47    5.53
  -4  -2  -2   28.93    5.11
  -4  -2  -2   31.35    3.69
   4  -2   2   24.14    5.71
   4  -2   2   37.10    4.63
  -4   2  -2   26.49    5.01
   4  -2   2   36.15    4.74
   4  -2   3   46.92    5.18
  -4  -2  -3   60.66    6.12
  -4   2  -3   56.13    5.78
   4  -2   3   65.42    7.15
  -4  -2  -3   61.22    5.80
  -4   2  -3   56.70    6.18
   4  -2   3   54.33    5.61
  -4  -2  -3   62.10    4.33
  -4  -2  -3   61.92    4.68
  -4  -2  -4  915.84   43.73
  -4   2  -4  922.77   43.92
  -4  -2  -4  894.94   42.58
   4  -2   4  906.06   44.73
  -4  -2  -4  888.62   42.93
   4  -2   4  879.26   43.62
  -4  -2  -4  987.21   44.33
  -4   2  -4  918.62   44.79
  -4   2  -5  177.19   11.11
  -4   2  -5  158.64   10.47
  -4  -2  -5  159.98    9.51
   4  -2   5  160.79   11.33
   4  -2   5  179.72   10.33
  -4  -2  -5  147.89    8.56
  -4  -2  -5  168.79    8.41
  -4  -2  -5  169.08   10.36
  -4   2  -5  163.55   10.38
  -4   2  -6  125.68    9.40
   4  -2   6  130.36   10.14
  -4   2  -6  132.14    9.64
  -4   2  -6  128.79    9.47
  -4  -2  -6  134.16    9.28
  -4   2  -7   78.02    7.71
  -4   2  -7   80.37    7.51
  -4   2  -7   69.46    7.51
  -4  -2  -7   70.23    8.01
   4  -2   7   69.96    8.19
   4  -2   8  100.25    9.85
  -4  -2  -8  122.77   10.38
  -4   2  -8  113.06    9.59
  -4   2  -8  117.02    9.61
  -4   2  -8  114.14    9.29
  -4   2  -9  267.38   16.85
  -4   2  -9  295.06   16.79
  -4   2  -9  284.45   16.93
   4  -2   9  285.96   17.12
  -4  -2  -9  275.74   17.55
  -4   2 -10  155.48   11.88
   4   2  10  138.11   12.82
   4  -2  10  141.59   11.57
  -4   2 -10  163.73   11.62
  -4   2 -11   38.65    8.14
  -4   2 -11   35.24    7.71
   4  -2  11   35.05    7.51
   4   2  11   27.68    8.60
   4   2  12    5.29    8.77
  -4   2 -12   20.57    7.79
   4  -2  12    4.55    6.28
  -4   2 -12   23.12    7.73
   4  -2  13   24.10    7.46
   4   2  13   25.38    9.79
  -4   2 -13   29.01    8.16
  -4   2 -13   48.09    8.81
   4   2  14    3.53   10.13
  -4   2 -14    8.04    8.61
   4  -2  14   23.88   10.59
  -4   2 -14   11.46    8.32
   4  -2  14   13.40    6.98
   4  -2  15   49.95    7.28
   4   2  15   45.33   12.71
  -4   2 -15   51.79   11.05
  -4   2 -15   54.49   10.97
   4  -2  15   63.32   13.27
   4  -2  15   45.40    8.67
   4   2  16    6.04   12.84
  -4   2 -16   13.20   11.10
   4  -2  16   20.89   13.03
  -4   2 -16    9.43    9.35
   4  -2  17   18.88   13.46
  -4  -3  19   -8.16   12.47
  -4  -3  18    8.47   10.45
  -4  -3  18   -2.93   10.91
  -4  -3  17   37.99   10.86
   4   3 -17   44.84   10.85
   4   3 -17   48.61   10.29
  -4  -3  17   40.39   10.50
   4  -3 -17   77.54   15.06
   4  -3 -16    8.89    5.94
   4   3 -16    9.82    9.83
   4   3 -16   15.32    8.85
   4  -3 -16   33.21   12.74
  -4   3  16   17.10    6.35
  -4  -3  16   14.44    9.27
  -4  -3  16    6.13    8.58
  -4  -3  15    6.63    7.80
   4  -3 -15    2.97    5.71
  -4  -3  15   -3.63    8.26
   4   3 -15   -1.31    8.10
   4  -3 -15   19.97   11.95
  -4   3  15    9.15    6.34
   4   3 -15    7.88    8.92
   4   3 -14    0.61    8.23
  -4  -3  14    2.35    7.68
  -4   3  14   -4.68    6.55
   4  -3 -14    3.79    6.09
  -4  -3  14   -1.76    8.74
   4  -3 -14    2.18    9.49
   4  -3 -13   10.00    6.80
   4   3 -13   -8.51    7.77
  -4   3  13   -2.83    7.01
  -4  -3  13    8.14    7.68
  -4  -3  13   -6.27    8.80
   4  -3 -13   -4.62    8.19
  -4  -3  12   -7.74    8.41
   4   3 -12   11.03    6.90
   4  -3 -12    2.13    6.32
  -4  -3  12    6.27    6.67
   4  -3 -12   -5.52    8.54
  -4   3  12   -0.95    6.45
   4  -3 -11  183.55   12.92
   4   3 -11  210.74   14.01
  -4  -3  11  216.14   14.52
   4  -3 -11  191.76   14.38
  -4   3  11  192.64   13.35
   4  -3 -11  182.00   14.29
   4  -3 -10  361.13   20.86
  -4  -3  10  391.07   22.39
   4  -3 -10  384.88   22.33
  -4   3  10  372.38   21.35
   4   3 -10  405.73   21.42
   4  -3 -10  347.37   22.10
   4  -3  -9   50.38    8.30
  -4   3   9   61.72    8.12
  -4  -3   9   73.06    8.22
   4  -3  -9   60.91    8.99
   4   3  -9   63.59    7.77
   4  -3  -8  139.36   11.23
   4  -3  -8  117.02   10.56
  -4   3   8   95.27    9.70
  -4  -3   8  113.37    9.79
   4   3  -8  111.54    9.27
   4  -3  -8  113.21   10.21
   4   3  -7   64.94    7.53
   4  -3  -7   58.57    8.34
  -4   3   7   52.34    7.75
   4  -3  -7   67.66    8.38
   4  -3  -7   81.34    9.02
  -4  -3   6   37.35    6.39
   4  -3  -6   21.33    7.38
   4  -3  -6   32.22    7.17
  -4   3   6   33.77    6.35
  -4  -3   5  254.33   14.59
   4  -3  -5  232.13   15.72
  -4  -3   5  249.61   12.37
   4  -3  -5  232.11   15.59
  -4   3   5  252.36   15.30
  -4  -3   4  559.26   29.26
  -4  -3   4  564.44   28.40
  -4   3   4  581.76   29.48
  -4  -3   4  541.93   27.93
   4  -3  -4  544.46   29.30
   4  -3  -4  571.46   29.78
  -4  -3   3  528.02   27.23
  -4  -3   3  516.80   28.30
   4  -3  -3  564.03   28.61
  -4  -3   3  568.99   27.73
  -4   3   3  551.24   28.72
   4  -3  -2  316.36   19.10
  -4   3   2  341.79   19.35
  -4  -3   2  355.26   18.31
  -4  -3   2  322.13   17.80
  -4  -3   2  340.02   18.84
  -4  -3   1  285.51   16.80
  -4   3   1  266.74   17.38
  -4  -3   1  311.97   16.25
  -4  -3   0    9.39    4.37
   4  -3   0   -0.33    4.63
   4  -3   1   61.72    6.55
   4  -3   1   60.56    6.54
   4  -3   1   62.60    7.97
  -4  -3  -1   61.85    6.67
   4  -3   2  205.20   13.68
   4  -3   2  237.37   12.70
   4  -3   2  202.76   12.43
  -4  -3  -2  196.96   12.29
  -4   3  -2  150.48   13.11
   4  -3   3  393.43   20.92
  -4  -3  -3  397.53   21.78
   4  -3   3  355.10   21.71
  -4  -3  -3  384.96   20.54
   4  -3   3  393.13   20.91
   4  -3   3  393.93   20.86
  -4   3  -3  393.79   22.18
  -4   3  -4   -4.96    5.80
   4  -3   4   -5.40    5.35
  -4  -3  -4    6.22    6.27
   4  -3   4   -9.24    7.25
   4  -3   4   -1.80    5.30
  -4  -3  -4    6.21    4.28
  -4  -3  -4    4.21    6.32
  -4   3  -5  219.63   14.27
  -4  -3  -5  228.77   14.55
   4  -3   5  200.33   13.17
  -4  -3  -5  188.65   13.75
   4  -3   5  210.75   14.53
  -4  -3  -5  205.21   12.20
  -4  -3  -5  214.62   13.92
  -4   3  -6  157.78   12.22
  -4  -3  -6  162.41   11.81
  -4  -3  -6  192.15   10.33
  -4  -3  -6  187.59   13.06
   4  -3   6  158.02   12.93
  -4   3  -6  158.03   11.78
   4  -3   6  175.75   11.74
  -4  -3  -6  177.83   12.12
   4  -3   7    1.76    7.11
  -4  -3  -7    0.87    2.64
  -4  -3  -7   -7.22    3.55
  -4  -3  -7    8.44    5.19
   4  -3   7    4.31    6.13
  -4   3  -7   -8.00    6.04
  -4  -3  -7   -9.84    7.57
  -4   3  -7    5.12    5.91
   4  -3   8   -9.67    7.60
  -4   3  -8    5.25    6.02
  -4   3  -8    4.22    6.46
  -4  -3  -8   -4.83    7.43
  -4   3  -9  106.07    9.27
   4  -3   9   89.60   10.45
  -4   3  -9   95.08    9.05
  -4  -3  -9   92.34    9.91
   4  -3  10   23.10    9.35
  -4  -3 -10   24.23    8.75
  -4   3 -10   29.19    6.93
  -4   3 -10   14.48    7.17
  -4   3 -11   36.81    8.27
   4  -3  11   48.75    9.82
  -4  -3 -11   41.57    9.79
  -4   3 -12   61.06    9.32
   4  -3  12   52.81   10.48
  -4   3 -12   52.34    9.18
  -4  -3 -12   40.44   10.86
  -4   3 -13    8.56    8.34
  -4   3 -13   13.33    9.00
   4  -3  13   -9.03    8.38
   4  -3  14    5.64    9.06
  -4   3 -14   13.48    9.42
  -4   3 -14   15.51    8.80
  -4   3 -15    2.03    9.95
  -4  -4  17   16.10   11.82
  -4  -4  16    7.12   11.98
  -4  -4  15   -5.84   11.30
   4  -4 -15   14.48   11.70
   4  -4 -15   14.77    7.44
   4   4 -15    5.95    9.87
  -4  -4  15   -4.85   10.85
   4  -4 -14   13.97    7.15
   4   4 -14   22.35    9.77
  -4   4  14   10.25    6.69
   4  -4 -14   31.63   11.72
  -4  -4  14   19.44   10.43
  -4  -4  13   25.18    9.89
   4  -4 -13    9.24    7.39
   4   4 -13    4.59    8.36
  -4   4  13   10.49    6.96
   4  -4 -13   13.60   10.80
  -4  -4  13   -2.65    8.76
  -4   4  12    6.16    6.47
   4  -4 -12    1.32    6.66
   4   4 -12   -3.69    7.62
   4  -4 -12   -1.46    9.85
  -4  -4  12    1.69    8.09
   4   4 -11   10.89    8.11
   4  -4 -11   15.67    9.02
   4  -4 -11   19.04    7.85
  -4   4  11   17.00    6.68
   4  -4 -11    4.30    9.09
  -4  -4  11    2.43    7.61
   4  -4 -10   24.98    7.33
   4  -4 -10   34.64    9.64
  -4   4  10   29.66    7.52
   4  -4 -10   26.72    9.48
  -4  -4  10   27.24    7.82
   4  -4  -9    8.24    8.32
   4  -4  -9   12.63    8.32
  -4   4   9   13.21    6.65
   4  -4  -9   19.00    8.04
   4  -4  -9   25.87    9.15
  -4  -4   9    7.49    7.64
   4  -4  -8   53.50    9.25
   4  -4  -8   55.99    9.73
   4  -4  -8   66.24    9.38
  -4   4   8   71.87    8.66
   4  -4  -7  111.03   11.21
   4  -4  -7  117.40   11.79
  -4  -4   7  116.56   10.28
  -4   4   7   90.64    9.89
   4  -4  -7  110.86   10.66
  -4  -4   6   75.84    9.74
  -4   4   6   98.39    9.69
  -4  -4   6   78.61    5.98
   4  -4  -6  107.41   11.33
  -4  -4   6   85.40    8.94
   4  -4  -6   73.34    9.66
   4  -4  -5   11.05    7.75
  -4  -4   5    7.19    6.17
  -4   4   5   15.68    7.17
  -4  -4   5   11.32    5.79
  -4  -4   5   15.09    6.33
   4  -4  -5   10.15    7.70
  -4  -4   5    9.84    3.86
   4  -4  -4   89.31    9.99
  -4  -4   4   63.04    8.87
  -4  -4   4   60.52    7.40
  -4  -4   4   74.32    8.26
  -4   4   4   69.23    8.65
   4  -4  -4   51.04   10.09
   4  -4  -3   58.23    9.20
  -4  -4   3   29.25    6.34
  -4  -4   3   39.88    7.62
  -4   4   3   36.23    7.58
  -4  -4   3   27.72    7.00
  -4  -4   2    5.93    6.30
  -4  -4   2    4.04    6.84
  -4  -4   2    7.15    6.65
   4  -4  -2    6.67    7.23
  -4   4   2   -3.83    6.12
   4  -4  -1  253.25   17.08
  -4  -4   1  244.45   16.23
   4  -4  -1  246.91   15.75
  -4   4   1  241.18   16.50
  -4  -4   1  265.47   15.72
  -4  -4   0  357.23   20.39
   4  -4   0  348.22   19.41
  -4   4   0  304.54   20.53
  -4  -4  -1    0.53    6.22
   4  -4   1    3.55    5.98
   4  -4   1    5.25    6.00
   4  -4   2  257.93   15.42
   4  -4   2  223.02   17.20
   4  -4   2  250.80   15.21
  -4  -4  -2  249.13   15.80
   4  -4   3  167.43   11.71
   4  -4   3  147.36   12.97
  -4   4  -3  137.81   12.37
  -4  -4  -3  129.42   11.75
  -4  -4  -3  151.40   11.37
   4  -4   3  155.83   10.92
   4  -4   3  142.97   11.28
   4  -4   4    3.08    6.13
  -4   4  -4   18.89    7.25
  -4  -4  -4    5.57    6.44
   4  -4   4    4.65    5.49
   4  -4   4    6.31    7.44
  -4  -4  -4    1.14    7.21
  -4  -4  -4    1.16    7.86
   4  -4   5   64.47    7.86
  -4  -4  -5   68.39    9.34
  -4   4  -5   88.61   10.04
  -4  -4  -5   65.10    8.24
  -4  -4  -5   86.98    9.92
   4  -4   5   72.84    8.72
   4  -4   5   57.42   10.20
  -4  -4  -6  226.31   16.15
  -4  -4  -6  219.69   15.58
   4  -4   6  211.11   14.52
  -4  -4  -6  209.66   13.69
   4  -4   6  215.25   16.53
  -4  -4  -6  238.04   15.56
  -4   4  -6  221.01   15.76
  -4  -4  -7   24.28    5.74
   4  -4   7   11.89    7.10
   4  -4   7    2.25    8.55
  -4  -4  -7   -1.95    7.25
  -4   4  -7   10.83    7.04
  -4  -4  -7   23.22    8.67
  -4  -4  -7   19.54    7.87
  -4  -4  -8   51.90    5.06
  -4   4  -8   63.19    9.81
   4  -4   8   60.65    8.12
  -4  -4  -8   84.80   11.04
   4  -4   8   60.70   10.56
  -4  -4  -8   53.40    9.83
  -4  -4  -8   45.51    6.02
  -4  -4  -8   64.44    8.47
   4  -4   9   96.89   12.81
  -4   4  -9   99.23   10.52
  -4  -4  -9   94.97   10.63
  -4  -4  -9   72.96    5.39
  -4  -4 -10    1.19    8.40
   4  -4  10   -6.45    9.56
  -4   4 -10   14.32    7.52
  -4  -4 -11   23.90    9.91
   4  -4  11    4.15   10.20
  -4   4 -11   16.66    8.99
  -4   4 -12   15.58    9.67
  -4  -4 -12   30.46   11.09
   4  -4  12   16.19   10.53
   4  -4  13   -6.11   11.08
  -4  -4 -13   21.97   13.91
   4  -4  14   10.72   12.28
   4  -5 -13   -2.06    9.02
   4  -5 -12   19.44   12.27
   4  -5 -12   43.29   10.47
  -4  -5  12   48.71   11.40
  -4   5  12   42.01    9.53
   4  -5 -11   14.71    9.60
  -4  -5  11   14.45    9.61
   4  -5 -11   14.06   11.66
  -4   5  11   24.19    8.29
   4  -5 -10   40.85    9.53
   4  -5 -10   28.21   12.56
  -4  -5  10   26.11   10.04
   4  -5 -10   49.98   11.30
  -4   5  10   17.52    8.29
   4  -5  -9   17.30   10.37
   4  -5  -9   15.14    9.63
   4  -5  -9   19.06    8.81
  -4   5   9   12.76    7.74
   4  -5  -8   21.39   10.84
  -4  -5   8   32.13    9.28
   4  -5  -8   16.17    9.68
   4  -5  -8   44.77   10.47
  -4   5   8   12.20    8.08
   4  -5  -7    4.01    9.44
  -4  -5   7    6.56    7.31
  -4   5   7    1.45    7.38
  -4  -5   7    5.99    8.17
   4  -5  -7    4.05    9.32
  -4  -5   6  147.87   12.18
   4  -5  -6  162.73   14.56
  -4  -5   6  134.14    8.95
  -4  -5   6  119.36   12.88
   4  -5  -6  130.07   13.93
  -4   5   6  114.71   11.75
  -4  -5   5   41.26    5.72
  -4  -5   5   46.84    8.80
  -4  -5   5   35.08    8.77
   4  -5  -5   40.34   10.81
  -4  -5   5   27.67    8.54
  -4   5   5   38.80    8.82
   4  -5  -5   19.99   10.10
   4  -5  -4   48.66   10.76
  -4   5   4   26.54    8.45
  -4  -5   4   42.89    9.26
   4  -5  -4   18.80   10.03
  -4  -5   4   48.36    8.18
  -4  -5   4   43.92    8.48
  -4   5   3   23.15    7.95
   4  -5  -3   35.12   10.03
  -4  -5   3   28.23    8.83
  -4  -5   3   21.62    8.72
  -4  -5   3   23.96    7.70
  -4   5   2    0.79    7.55
   4  -5  -2   21.52    9.22
  -4  -5   2    5.26    7.96
  -4  -5   2    2.69    7.51
  -4  -5   2    8.33    8.46
   4  -5  -2    6.07    7.30
  -4   5   1   90.47   10.88
  -4  -5   1   94.34   11.74
   4  -5  -1   82.47    9.81
  -4  -5   1   97.89   11.44
  -4  -5   1   85.46   10.49
   4  -5  -1   97.94   11.70
   4  -5   0   97.66   12.89
  -4  -5   0  127.86   11.78
  -4   5   0  132.88   12.46
   4  -5   0  126.47   11.75
  -4  -5   0  132.83   12.42
   4  -5   1    4.50    6.56
  -4   5  -1   16.55    7.68
   4  -5   1    5.67    6.88
  -4  -5  -1    9.63    7.18
  -4  -5  -1   10.39    8.15
   4  -5   2   27.12    7.30
  -4  -5  -2   21.98    8.25
   4  -5   2   30.87    7.40
   4  -5   3   45.27    8.08
   4  -5   3   35.76    9.96
  -4  -5  -3   37.46    8.98
   4  -5   3   57.74    8.60
   4  -5   3   48.58    8.83
  -4  -5  -3   30.26    8.36
  -4  -5  -4   -3.68    7.75
  -4   5  -4    7.67    8.25
   4  -5   4   -1.74    8.77
  -4  -5  -4   -1.37    7.63
   4  -5   4   15.38    6.77
   4  -5   4   -0.56    7.56
  -4  -5  -4   -0.72    8.87
  -4  -5  -5   28.25    9.71
   4  -5   5   48.12    7.92
  -4   5  -5   24.23    8.64
   4  -5   5   24.88   10.49
  -4  -5  -5   47.24   10.18
  -4  -5  -5   37.08    8.24
   4  -5   5   36.17    8.23
  -4  -5  -5   30.05    9.76
   4  -5   6   14.45    9.97
  -4  -5  -6    7.68    8.70
  -4  -5  -6   10.66    8.73
   4  -5   6   14.84    7.77
  -4  -5  -6   30.47    7.58
  -4  -5  -6   23.35    9.72
  -4  -5  -7   20.03    6.88
  -4  -5  -7   11.84    8.30
  -4  -5  -7   11.12    8.49
   4  -5   7   -9.18   11.40
   4  -5   7   -1.73    8.26
  -4   5  -7    7.08    8.55
  -4  -5  -7    4.86    9.49
  -4  -5  -8   11.51    8.41
  -4  -5  -8    5.40    9.43
  -4   5  -8   15.22    9.41
  -4  -5  -8   18.26    9.78
   4  -5   8   10.29   11.47
  -4  -5  -8   -2.39    7.41
  -4  -5  -9   24.83    8.06
   4  -5   9   11.47   12.07
  -4   5  -9    6.30    8.70
  -4  -5  -9    7.06   11.12
   4  -5  10    5.87   11.91
  -4  -5 -10    0.71   11.54
  -4  -5 -11   10.05   11.67
  -4   6  10   10.68    9.46
   4  -6 -10   12.17   12.34
  -4   6   9   22.64    9.89
   4  -6  -9   14.18   12.17
  -4   6   8   16.15    9.76
   4  -6  -8    2.37   11.18
   4  -6  -7    0.82   12.24
  -4   6   7    1.72    9.05
   4  -6  -7   14.60   12.72
  -4  -6   7   19.60   10.59
  -4   6   6    2.62    8.70
   4  -6  -6   -0.99   11.90
  -4  -6   6    8.20   10.26
   4  -6  -6   -3.41   12.87
  -4  -6   6    1.01   10.63
   4  -6  -5   50.08   13.58
  -4  -6   5   77.87   12.22
  -4  -6   5   73.92   12.02
   4  -6  -5   41.24   13.82
  -4   6   5   39.64   10.81
  -4  -6   4    3.92    5.63
  -4   6   4    1.79    9.67
   4  -6  -4   -6.16   11.75
  -4  -6   4   12.53   10.33
  -4  -6   4   12.16   11.11
  -4  -6   4   17.58   10.14
   4  -6  -4   -9.00   13.25
   4  -6  -3   23.32   12.68
  -4  -6   3   47.56   11.52
  -4  -6   3   68.79   11.26
  -4  -6   3   55.44   11.75
   4  -6  -3   77.89   13.32
   4  -6  -3   17.19   12.72
   4  -6  -2   11.28   11.45
  -4   6   2   10.11    9.54
  -4  -6   2   -2.32   10.17
  -4  -6   2   13.76   10.16
  -4  -6   2    3.47   10.13
   4  -6  -1   14.43   11.25
  -4  -6   1   40.57   11.32
  -4  -6   1   19.63   10.33
  -4  -6   1   45.45   11.47
  -4   6   1   36.50   10.61
   4  -6   0   13.78   11.07
  -4   6   0    0.95    8.96
  -4  -6   0    7.27   11.50
   4  -6   0   -0.72    8.92
  -4  -6   0   -0.87   11.26
   4  -6   0    6.14    8.44
  -4  -6   0   -0.74   10.53
  -4  -6  -1    9.93   10.75
   4  -6   1   15.84    9.02
  -4   6  -1   15.48   10.21
  -4  -6  -1   -4.22   10.36
   4  -6   1   16.06   11.74
   4  -6   1   23.86    9.91
  -4  -6  -2    0.81   10.64
   4  -6   2    6.55    8.34
  -4   6  -2    0.99    9.68
  -4  -6  -2    1.58   11.51
   4  -6   2    8.15   11.39
   4  -6   3   32.64    8.77
  -4  -6  -3   10.88   10.40
  -4  -6  -3    7.62    9.38
  -4   6  -3   23.05   10.62
   4  -6   3   28.81   10.49
  -4  -6  -3   32.21   12.01
   4  -6   3   32.59    9.23
  -4  -6  -3   24.88   10.25
  -4  -6  -4   -9.32   10.23
  -4  -6  -4    5.85    9.36
  -4  -6  -4   -0.83   12.14
   4  -6   4    0.58    8.50
  -4  -6  -5   56.82   11.11
  -4  -6  -5   43.78   10.51
  -4  -6  -5   40.31   13.75
   4  -6   5   49.39    9.91
  -4  -6  -5   29.77   12.21
  -4  -6  -6   10.40   10.43
  -4  -6  -6   -7.39   12.98
  -4  -6  -6    8.22   11.18
  -4  -6  -7   16.94   11.94
  -5   0  20   -4.31    9.42
  -5   0  20   -2.67   13.01
  -5   0  19   11.22    7.98
  -5   0  19   17.53   11.96
  -5   0  19   13.35    7.19
  -5   0  19   21.85    9.94
  -5   0  18    3.81    8.40
  -5   0  18    5.03    8.22
  -5   0  18   -3.65    6.46
  -5   0  18   -4.72   10.90
  -5   0  17   20.99    8.23
  -5   0  17   22.85    8.90
  -5   0  17    5.90    9.95
  -5   0  16   11.93    8.24
  -5   0  16   -0.69    8.85
  -5   0  16    1.72    7.30
  -5   0  15   18.40    7.39
  -5   0  15   -7.09    8.57
  -5   0  15    0.41    6.95
  -5   0  14    3.61    8.80
  -5   0  14    4.78    7.46
  -5   0  14    3.39    7.02
  -5   0  13  276.87   17.20
  -5   0  13  279.93   16.56
  -5   0  13  232.04   17.48
  -5   0  12    2.20    6.28
  -5   0  11  197.31   12.80
   5   0 -11  195.58   12.17
  -5   0  10    8.73    6.32
   5   0 -10   -4.79    5.15
  -5   0   9  212.32   12.73
   5   0  -9  192.31   11.90
  -5   0   8   -0.91    5.34
   5   0  -8   -1.41    4.05
  -5   0   8   -1.82    5.81
  -5   0   7 2795.63  129.45
   5   0  -7 2698.03  129.57
  -5   0   7 2788.37  130.00
  -5   0   7 2836.93  129.80
  -5   0   6   -4.34    5.06
   5   0  -6    0.76    4.29
  -5   0   6    4.21    4.41
  -5   0   6    5.30    3.66
  -5   0   5  235.27   13.12
  -5   0   5  221.42   11.95
  -5   0   5  237.19   13.01
  -5   0   4    0.51    2.31
  -5   0   4   -0.19    3.81
   5   0  -3  428.10   20.88
  -5   0   3  413.28   20.20
   5   0  -3  402.01   19.77
   5   0  -2   -1.63    2.50
  -5   0   2   -1.49    4.28
   5   0  -2    1.41    3.63
  -5   0   2    4.94    2.47
   5   0  -1 1981.67   93.23
  -5   0   1 1983.44   93.31
  -5   0   1 1969.73   92.83
  -5   0   1 2028.93   92.38
   5   0   0    2.71    3.28
  -5   0   0    3.70    2.63
  -5   0   0    0.45    1.25
  -5   0   0    4.47    3.67
  -5   0   0   -2.35    2.84
   5   0   1  185.00    9.64
  -5   0  -1  178.86    9.72
  -5   0  -1  159.08    9.65
  -5   0  -2   -7.64    3.55
   5   0   2   -1.66    3.16
   5   0   3 3815.48  173.72
  -5   0  -3 3689.86  173.17
  -5   0  -3 3874.96  174.02
   5   0   4    1.50    2.86
  -5   0  -4    1.57    1.86
   5   0   4    0.13    0.50
  -5   0  -5    8.55    2.38
   5   0   5   10.06    2.93
   5   0   5   14.06    3.43
  -5   0  -5    6.50    2.42
  -5   0  -6    0.62    2.23
   5   0   6    3.25    2.69
  -5   0  -6    1.59    2.76
   5   0   6    1.04    3.84
   5   0   7  145.93    7.86
  -5   0  -7  140.97    7.82
  -5   0  -7  140.01    8.37
   5   0   7  153.70    9.64
  -5   0  -8    3.23    3.76
   5   0   8    0.43    2.48
   5   0   8    1.42    5.38
  -5   0  -9  976.73   49.07
   5   0   9 1116.09   50.27
  -5   0 -10    8.82    4.54
   5   0  10   -5.51    6.31
  -5   0 -11   10.06    5.15
   5   0  11    6.13    7.07
  -5   0 -12   -0.63    4.87
   5   0  12   -5.43    7.78
   5   0  13   14.44    7.77
  -5   0 -13   28.25    5.80
   5   0  14    1.09    7.76
  -5   0 -14   -0.38    5.61
   5   0  15  135.66   14.35
  -5   0 -15  122.55   10.01
  -5   0 -16   -1.75    6.23
   5   0  16    8.67   11.56
   5   0  16   10.64    9.32
  -5   1  21    6.19   13.03
  -5  -1  20    2.34    7.79
  -5  -1  20    1.00    8.57
  -5   1  20    7.91   12.99
  -5  -1  19    4.52    8.43
  -5   1  19   30.52    9.24
   5   1 -19   12.73    9.50
  -5   1  19   -1.79    9.76
  -5   1  19   11.26   11.96
  -5   1  19    2.43   10.67
  -5  -1  18   17.27    8.72
  -5  -1  18   25.13    8.25
  -5   1  18   15.18   10.04
  -5   1  18   24.87   10.82
  -5  -1  18   17.96   10.25
  -5   1  18   30.78    8.73
  -5   1  18    9.79   11.25
  -5  -1  17   -3.31    7.56
  -5   1  17   15.55    9.68
  -5   1  17   -2.38    9.18
  -5  -1  17   11.61    7.43
  -5  -1  17   10.77   10.06
  -5   1  17    6.70    7.87
  -5   1  17   24.49   10.46
  -5  -1  16  176.71   14.11
  -5   1  16  190.73   14.40
  -5   1  16  244.53   16.99
  -5  -1  16  198.49   14.59
  -5  -1  16  192.22   15.99
  -5   1  16  206.19   16.19
  -5   1  16  209.79   16.21
  -5  -1  15   24.40    7.24
  -5  -1  15   36.81   10.10
  -5   1  15   25.90    7.88
  -5  -1  15   22.69    7.50
  -5   1  15   21.56    8.26
  -5   1  15   36.92    9.84
   5  -1 -14   47.96    7.28
  -5   1  14   68.03    9.44
  -5  -1  14   62.93    8.32
  -5   1  14   60.92    9.91
  -5  -1  14   66.64   10.74
  -5   1  14   85.29    9.69
  -5   1  14   71.90   10.14
  -5   1  13   18.01    9.26
  -5   1  13   -1.80    7.93
  -5  -1  13   16.87    6.40
  -5   1  13    7.74    7.92
  -5   1  13   16.60    8.99
   5  -1 -13    6.91    6.13
   5  -1 -12   80.35    8.02
  -5  -1  12   74.20    8.36
  -5   1  12   65.92    8.85
  -5   1  12   56.06    9.00
  -5   1  12   85.35   10.64
  -5   1  12   69.04    9.69
   5  -1 -11  152.59    9.70
  -5  -1  11  146.99   10.63
  -5   1  11  130.76   10.70
  -5   1  11  144.71   12.51
  -5   1  11  111.61   10.39
  -5  -1  10 1096.05   51.97
  -5   1  10 1038.44   52.23
  -5   1  10 1019.24   52.89
   5  -1 -10 1103.00   51.64
  -5   1  10 1083.65   52.87
  -5   1   9   19.92    5.91
   5  -1  -9   12.17    5.40
  -5   1   9   13.55    6.76
  -5   1   9   34.90    7.26
  -5  -1   9   19.60    5.66
   5  -1  -9   30.06    6.93
  -5  -1   8  344.46   18.51
   5  -1  -8  317.36   18.31
  -5   1   8  376.73   19.25
  -5   1   8  340.62   19.13
  -5   1   8  372.35   19.70
   5  -1  -8  339.63   19.04
   5  -1  -7   -5.14    4.09
  -5  -1   7   -1.40    4.67
  -5   1   7    0.39    5.20
  -5   1   7   14.23    5.62
   5  -1  -7    0.32    4.57
  -5   1   7    9.83    5.17
  -5  -1   6  411.59   22.51
   5  -1  -6  420.08   22.60
  -5   1   6  474.94   23.27
   5  -1  -6  471.58   22.88
  -5   1   6  456.85   23.34
   5  -1  -6  457.15   22.63
   5  -1  -5  750.67   36.64
   5  -1  -5  778.99   36.89
  -5   1   5  784.21   37.27
   5  -1  -5  676.79   36.76
   5   1  -5  791.58   36.50
  -5   1   5  780.81   37.41
   5  -1  -4 2269.21  102.31
   5   1  -4 2242.33  101.88
   5  -1  -4 2290.14  102.43
  -5   1   4 2196.21  102.74
   5   1  -4 2109.70  101.46
  -5   1   4 2103.63  102.89
  -5  -1   3  507.38   26.63
  -5   1   3  536.63   27.38
   5   1  -3  545.95   26.04
   5  -1  -3  556.65   26.70
  -5  -1   3  546.44   25.44
   5   1  -3  569.42   26.85
  -5  -1   2  232.27   12.06
   5  -1  -2  202.78   12.34
   5  -1  -2  235.48   12.25
   5   1  -2  216.84   11.07
   5  -1  -2  208.65   11.95
  -5   1   2  250.19   12.90
   5   1  -2  220.49   11.95
  -5  -1   1  469.09   23.81
   5  -1  -1  473.73   24.30
   5  -1  -1  502.13   24.17
   5  -1  -1  463.82   23.87
   5  -1  -1  501.41   23.45
   5   1  -1  502.42   23.81
  -5  -1   0 1713.65   80.30
  -5   1   0 1655.38   81.05
   5  -1   0 1755.35   80.06
  -5  -1   0 1681.15   79.69
   5  -1   0 1659.35   80.52
   5  -1   0 1690.46   80.92
   5  -1   0 1744.29   80.66
   5   1   0 1823.51   80.26
  -5  -1   0 1728.89   79.50
   5  -1   1  835.23   40.51
  -5   1  -1  847.21   40.74
   5  -1   1  901.48   40.25
  -5  -1  -1  821.05   39.03
  -5   1  -1  792.22   39.59
  -5  -1  -1  825.40   39.60
   5   1   1  863.62   39.46
  -5  -1  -2  160.99    8.45
  -5  -1  -2  152.21    7.86
   5  -1   2  151.03    8.24
  -5   1  -2  150.55    9.79
   5  -1   2  150.02    9.83
  -5   1  -2  149.87    8.76
  -5  -1  -3  269.86   13.53
  -5   1  -3  250.11   14.04
   5   1   3  294.88   14.40
   5  -1   3  273.45   15.06
   5  -1   3  261.73   13.61
  -5  -1  -3  286.40   13.52
  -5   1  -3  275.93   14.98
   5  -1   4   13.28    4.02
  -5   1  -4    5.31    3.64
  -5  -1  -4   15.27    3.38
  -5   1  -4   14.88    4.13
  -5   1  -4   13.24    4.12
  -5  -1  -4    9.20    2.06
   5   1   4    9.46    4.20
   5   1   5  171.29    9.76
  -5   1  -5  115.08    9.12
   5  -1   5  152.91    9.43
  -5   1  -5  135.74    9.04
  -5   1  -5  133.76    9.05
  -5   1  -6  839.78   41.14
   5   1   6  849.08   41.68
  -5   1  -6  847.66   41.48
   5  -1   6  902.11   41.25
   5   1   6  811.14   40.48
  -5   1  -7  114.02    9.32
  -5   1  -7  127.13    8.57
   5  -1   7  143.80    8.94
   5   1   7  129.48    9.69
   5   1   7  125.05    8.35
  -5   1  -8   71.02    7.48
  -5   1  -8   61.78    6.47
   5   1   8   51.78    6.25
   5  -1   8   80.20    6.94
  -5   1  -8   74.33    6.34
   5   1   8   64.47    8.75
   5  -1   9   17.84    5.33
   5   1   9   12.03    7.22
  -5   1  -9    5.30    6.26
  -5   1  -9    3.87    4.75
  -5   1  -9    7.99    4.01
   5   1   9    9.92    5.21
   5  -1  10  129.77    8.78
  -5   1 -10  108.08    9.99
   5  -1  10  134.44   11.42
  -5   1 -10   98.59    8.35
   5   1  10  114.08    9.23
   5   1  10  119.15   11.01
  -5   1 -11    0.65    4.93
   5   1  11    1.27    7.82
   5  -1  11    6.79    5.12
  -5   1 -11   -1.03    6.27
   5  -1  11    8.86    8.59
   5   1  11    8.91    6.38
   5   1  12  112.92   12.40
  -5   1 -12  132.32    9.77
  -5   1 -12  151.15   11.91
   5  -1  12  161.65   12.56
   5   1  12  136.52   10.56
   5  -1  12  111.65    9.70
   5  -1  13    1.39    3.71
  -5   1 -13   -1.14    5.46
   5   1  13    4.49    8.87
   5  -1  13   -0.54    7.42
  -5   1 -13   -2.37    7.64
   5   1  13    9.92    6.95
   5  -1  13   -8.46    5.97
   5  -1  14    6.17    8.50
  -5   1 -14    3.66    5.38
  -5   1 -14    5.69    8.14
   5   1  14   -0.80    9.12
   5  -1  14    1.85    5.17
   5   1  14    2.18    7.37
   5   1  15   -0.59    8.57
  -5   1 -15   19.51    9.55
  -5   1 -15    5.67    6.59
   5   1  15   12.89   11.08
   5  -1  15   13.04    9.36
  -5   1 -16    8.55   10.68
   5   1  16    3.67   11.71
  -5   1 -16    8.44    7.12
   5  -1  16    1.88   10.22
  -5  -2  20    3.75   10.82
  -5  -2  20   10.74   10.32
  -5  -2  19   10.49    9.34
  -5  -2  19    5.38    9.72
   5   2 -19    9.02    9.17
  -5  -2  19   21.27   13.80
  -5   2  19  -20.08   14.30
  -5   2  18   17.52    7.69
  -5  -2  18    3.38    8.92
  -5   2  18    3.64   12.52
   5   2 -18    6.43    9.21
  -5  -2  18   22.40   12.14
   5   2 -18   11.11    6.32
  -5   2  18    5.32   12.64
  -5   2  17   10.84    7.10
  -5   2  17   -5.20   10.73
  -5  -2  17   13.02    8.40
   5   2 -17    6.11    8.36
  -5  -2  17   10.65   11.04
  -5   2  17    3.03   12.07
   5   2 -17    8.49    5.84
  -5  -2  17   12.73    8.63
   5   2 -16   11.65    5.43
  -5   2  16   14.78    7.56
  -5  -2  16    7.49    7.41
  -5  -2  16   -1.05    7.52
  -5  -2  16   17.76   11.28
  -5   2  16   13.19    9.32
   5  -2 -16    2.77    5.89
  -5   2  16   22.86   11.06
  -5   2  15   34.57    8.11
   5   2 -15   14.58    5.13
  -5  -2  15   16.90    8.08
  -5   2  15    8.61    9.19
   5  -2 -15   14.52    6.39
   5  -2 -15   31.42   10.40
  -5  -2  15   25.06    8.28
  -5   2  15   14.35    9.65
  -5   2  14   12.48    7.12
   5  -2 -14    2.10    5.57
  -5  -2  14   -0.66    6.94
   5  -2 -14    6.97    9.63
   5   2 -14    7.51    4.76
  -5   2  14  -11.79    9.51
  -5   2  13   72.24    8.63
   5   2 -13   55.21    5.68
  -5   2  13   62.34   10.79
  -5  -2  13   56.03    8.12
   5  -2 -13   44.58   10.76
  -5  -2  13   50.83    8.44
  -5   2  13   46.36    9.80
   5  -2 -13   55.81    7.48
  -5   2  12    5.51    7.16
   5  -2 -12   14.24    6.43
  -5   2  12    3.30    8.38
   5   2 -12   11.70    6.91
   5   2 -12    7.49    3.78
  -5  -2  12   15.17    6.57
  -5  -2  12   11.53    7.03
  -5   2  12    1.46    9.27
  -5   2  11  -12.05    7.02
  -5  -2  11    0.88    7.60
   5  -2 -11    4.47    6.46
   5   2 -11   -0.15    3.12
  -5   2  11   -9.33    8.38
   5   2 -11    4.47    6.09
  -5  -2  11    6.57    5.88
  -5   2  10   15.08    6.86
   5   2 -10    8.95    5.77
   5   2 -10    8.96    2.40
  -5  -2  10    4.62    5.07
   5  -2 -10    9.61    6.48
  -5  -2  10    2.49    6.07
  -5   2  10   -1.17    8.39
  -5   2   9   98.90    8.98
   5  -2  -9  109.97    9.28
  -5  -2   9   85.82    8.83
   5  -2  -9  100.46    8.96
  -5  -2   9   86.94    8.14
  -5   2   9   94.41   10.06
   5   2  -9   83.33    8.19
   5   2  -9   91.64    7.95
  -5   2   8  147.99   10.61
   5   2  -8  139.59    9.35
  -5   2   8  134.58   11.28
   5  -2  -8  115.60    9.76
   5  -2  -8  105.21   10.29
   5   2  -8  130.83    9.06
   5  -2  -8  128.87   10.06
  -5  -2   8  121.28    9.52
   5   2  -7  428.10   21.25
   5  -2  -7  399.00   22.24
   5  -2  -7  399.86   21.88
   5   2  -7  411.86   21.52
   5  -2  -7  430.99   22.55
  -5   2   7  435.61   23.37
  -5   2   7  446.40   22.59
  -5  -2   7  373.15   21.78
   5  -2  -6  210.73   12.91
   5  -2  -6  209.94   12.97
  -5   2   6  212.14   13.24
   5   2  -6  208.35   11.97
   5  -2  -6  225.59   13.17
   5   2  -6  203.41   11.88
  -5   2   5   23.05    5.95
   5   2  -5   19.40    4.23
   5   2  -5   19.19    4.16
   5  -2  -5   19.15    5.60
   5  -2  -5   30.87    5.34
   5  -2  -4  835.17   42.46
  -5  -2   4  835.35   41.91
   5  -2  -4  858.46   42.62
  -5   2   4  888.24   42.88
  -5  -2   4  910.93   41.67
   5  -2  -4  855.50   42.54
  -5  -2   3  480.57   23.86
   5  -2  -3  483.76   25.42
  -5   2   3  468.57   25.65
   5  -2  -3  500.30   25.30
  -5  -2   3  504.91   24.25
  -5  -2   3  497.60   24.67
   5  -2  -2 2375.83  109.21
  -5  -2   2 2337.08  107.83
  -5  -2   2 2262.33  107.52
  -5  -2   2 2336.47  108.19
  -5  -2   1  909.50   44.10
   5  -2  -1  976.87   45.07
  -5  -2   1  941.32   43.44
   5  -2  -1  944.57   43.78
  -5  -2   1  915.39   43.69
  -5  -2   0  483.36   23.23
  -5  -2   0  478.01   23.60
   5  -2   0  441.63   24.42
   5  -2   0  458.10   23.38
   5  -2   1    9.26    5.14
  -5  -2  -1    2.57    3.89
  -5   2  -1   -0.42    4.77
  -5  -2  -1    5.00    3.31
   5  -2   1    2.72    3.74
  -5  -2  -1    2.64    3.13
  -5  -2  -2  133.78    8.29
   5  -2   2  152.86    9.18
  -5  -2  -2  130.79    8.94
   5  -2   2  153.07   10.23
  -5   2  -2  130.07    9.77
  -5  -2  -2  137.41    8.11
  -5  -2  -3  709.76   32.26
  -5  -2  -3  661.43   32.50
   5  -2   3  666.63   34.17
   5  -2   3  624.36   33.36
   5  -2   3  625.62   32.84
  -5  -2  -3  707.89   33.44
  -5   2  -3  696.99   34.37
  -5  -2  -3  676.89   32.96
  -5   2  -3  696.89   33.32
  -5  -2  -4 1093.49   49.85
   5  -2   4 1040.95   51.98
   5  -2   4 1028.38   50.63
  -5  -2  -4 1051.46   50.64
  -5   2  -4 1004.48   51.97
  -5   2  -4 1080.58   51.15
  -5  -2  -4 1078.16   50.11
  -5  -2  -5  208.24    9.98
  -5   2  -5  217.70   12.32
  -5  -2  -5  198.12   10.54
   5  -2   5  199.30   13.22
   5  -2   5  204.83   11.70
  -5  -2  -5  173.74    9.95
  -5  -2  -5  212.31   11.84
  -5   2  -5  182.06   12.57
  -5   2  -5  194.95   12.16
  -5   2  -6  118.17    9.27
   5  -2   6  131.68    9.82
  -5   2  -6  111.80    9.11
  -5   2  -6  110.50    9.29
  -5  -2  -6  111.64    8.78
  -5   2  -7    2.25    5.09
  -5   2  -7    2.23    5.86
   5  -2   7    4.44    6.28
  -5  -2  -7    6.42    6.78
  -5   2  -7    4.88    6.40
   5  -2   8    8.66    6.23
  -5   2  -8   15.30    6.85
  -5   2  -8   -0.46    4.92
  -5  -2  -8    5.25    6.84
  -5   2  -8    4.82    5.69
  -5   2  -9  187.17   12.93
  -5   2  -9  197.42   13.04
   5  -2   9  210.95   13.85
  -5   2  -9  195.02   13.60
   5  -2  10   46.43    7.73
   5   2  10   37.00    8.39
  -5   2 -10   27.59    7.29
  -5   2 -10   35.51    7.55
  -5   2 -10   25.13    6.05
   5  -2  11   47.94    7.32
  -5   2 -11   38.58    8.12
   5   2  11   36.43    9.36
  -5   2 -11   56.05    8.97
  -5   2 -12    2.88    7.37
   5   2  12    6.00    8.73
   5  -2  12    8.47    7.11
  -5   2 -12    9.98    7.64
   5  -2  13   10.02    7.42
   5   2  13    5.70    9.39
  -5   2 -13   13.52    8.74
  -5   2 -13   16.75    8.55
   5  -2  14   18.22   11.40
   5  -2  14   37.77    8.27
   5   2  14    2.63   10.91
  -5   2 -14   28.73    9.81
  -5   2 -14   30.12    9.30
   5  -2  15   28.90   11.72
   5   2  15   18.83   11.64
  -5   2 -15   27.37    9.67
  -5   2 -15   22.18   10.13
  -5  -3  19   -1.04   11.68
  -5  -3  18   34.62   11.14
   5   3 -18   16.15    9.87
  -5  -3  18   18.26   10.57
  -5  -3  17   14.99    9.90
  -5  -3  17   11.34    9.86
   5  -3 -17   -1.78    6.67
   5   3 -17    5.80    9.77
   5   3 -17    5.18    9.46
   5  -3 -17    9.05   14.00
  -5  -3  16    3.26    9.25
   5   3 -16    2.04    8.98
  -5   3  16    9.01    7.44
  -5  -3  16   -0.88    9.10
   5  -3 -16    1.86    6.34
   5  -3 -16   11.11   12.06
   5   3 -15   57.35    9.67
  -5  -3  15   52.31   10.95
  -5   3  15   54.16    9.27
   5  -3 -15   54.63   11.96
  -5  -3  15   49.28    9.98
   5  -3 -15   47.45    7.49
  -5  -3  14   23.52    8.46
  -5   3  14   19.84    7.33
   5  -3 -14   48.04   11.07
   5  -3 -14   28.75    7.26
  -5  -3  14   44.97   10.27
   5   3 -14   28.46    9.27
  -5  -3  13   31.31    9.42
   5   3 -13   25.58    7.83
   5  -3 -13   39.96    7.81
  -5  -3  13   31.78    8.20
   5   3 -13   50.08    8.76
   5  -3 -13   54.70    9.79
  -5   3  13   38.25    8.17
   5  -3 -12  185.05   12.94
   5   3 -12  205.28   13.88
  -5   3  12  172.48   13.56
   5   3 -12  200.97   13.82
   5  -3 -12  132.89   13.99
  -5  -3  12  215.90   15.06
  -5  -3  12  184.15   14.69
   5   3 -11  158.39   12.15
  -5  -3  11  158.13   12.79
  -5  -3  11  133.81   12.25
  -5   3  11  153.46   12.05
   5  -3 -11  146.24   11.60
   5   3 -11  161.70   11.96
   5  -3 -11  163.65   12.56
  -5   3  10   22.15    7.12
  -5  -3  10   29.38    8.23
  -5  -3  10   23.40    6.44
   5  -3 -10   34.92    7.29
   5  -3 -10   29.07    7.55
   5   3 -10   31.48    6.34
   5  -3  -9    7.24    6.99
  -5   3   9   -1.02    7.21
  -5  -3   9    9.06    6.27
   5  -3  -9    2.06    6.68
   5   3  -9    1.19    6.52
   5  -3  -8   21.66    7.51
   5  -3  -8   49.40    8.16
   5   3  -8   37.06    7.03
  -5   3   8   19.33    6.99
   5  -3  -8   51.26    8.85
   5  -3  -7    5.65    6.53
  -5   3   7   -2.03    6.93
   5  -3  -7   -2.16    7.04
   5  -3  -7    0.86    7.57
   5  -3  -7    2.60    7.13
  -5  -3   6  580.79   29.27
   5  -3  -6  543.32   29.89
   5  -3  -6  594.05   30.49
  -5   3   6  557.84   30.25
  -5  -3   5  535.29   28.42
  -5  -3   5  527.33   25.29
  -5  -3   5  569.02   27.55
  -5   3   5  546.40   28.88
   5  -3  -5  557.91   28.80
   5  -3  -5  511.86   28.45
  -5  -3   4   58.77    7.01
  -5  -3   4   66.51    6.65
  -5   3   4   85.34    8.54
  -5  -3   4   67.22    7.13
   5  -3  -4   72.91    9.03
   5  -3  -4   72.19    8.84
  -5  -3   3   21.22    5.49
  -5  -3   3   21.32    4.91
   5  -3  -3   11.93    6.76
  -5  -3   3   23.37    5.26
  -5   3   3   26.13    6.07
   5  -3  -3   12.98    7.44
  -5  -3   2   15.66    5.71
  -5   3   2   12.21    6.26
  -5  -3   2   18.51    5.23
  -5  -3   2   13.63    4.61
   5  -3  -2   14.80    7.38
   5  -3  -1   35.43    5.85
  -5  -3   1   44.23    6.19
  -5  -3   1   32.43    5.67
  -5  -3   1   35.11    5.87
  -5  -3   0  246.94   14.94
   5  -3   0  241.14   14.59
   5  -3   0  272.21   14.84
  -5  -3  -1 1000.75   49.47
   5  -3   1 1061.95   49.39
   5  -3   1  988.31   50.61
   5  -3   1  999.48   49.28
   5  -3   2  157.34   10.83
  -5  -3  -2  152.84   11.59
   5  -3   2  152.62   10.53
   5  -3   2  152.61   12.09
  -5   3  -2  158.56   12.05
  -5  -3  -2  175.66   10.77
  -5  -3  -3  152.23   10.66
   5  -3   3  152.15   11.56
  -5  -3  -3  138.13   10.42
   5  -3   3  125.50    9.71
  -5  -3  -3  125.46    9.10
  -5   3  -3  101.25   10.37
   5  -3   3  139.19    9.85
  -5  -3  -4   99.53    9.77
   5  -3   4  108.05    8.62
   5  -3   4   90.73    9.84
  -5  -3  -4  100.19    7.50
  -5  -3  -4   94.37    9.22
   5  -3   4  111.05    9.02
  -5   3  -4  101.60    9.46
  -5  -3  -4   96.56    7.02
  -5   3  -5    7.04    5.88
  -5  -3  -5    4.26    7.10
  -5  -3  -5   -2.76    3.92
  -5  -3  -5  -13.04    6.67
  -5  -3  -5    1.33    4.02
   5  -3   5    1.07    5.81
   5  -3   5   -1.13    7.33
  -5  -3  -5    7.03    6.39
  -5   3  -6   13.48    6.21
  -5  -3  -6   22.95    3.90
   5  -3   6   23.81    7.90
  -5  -3  -6   21.31    3.74
  -5  -3  -6   18.30    5.50
   5  -3   6   23.95    6.52
  -5   3  -6   11.24    5.64
  -5  -3  -6   20.29    6.59
   5  -3   7   54.65    8.54
  -5  -3  -7   77.87    6.45
  -5   3  -7   66.49    8.36
  -5  -3  -7   49.76    7.91
   5  -3   7   72.50    7.22
  -5  -3  -7   46.94    3.93
  -5   3  -7   58.24    7.59
   5  -3   8  137.55   11.33
  -5   3  -8  114.83   10.34
  -5   3  -8  123.97   10.53
  -5  -3  -8  115.79   10.51
   5  -3   9    3.75    7.56
  -5   3  -9   11.09    5.91
  -5  -3  -9    8.86    7.47
  -5   3  -9   -0.51    7.08
   5  -3  10   56.60    9.54
  -5   3 -10   58.98    8.47
  -5  -3 -10   67.66   10.21
  -5   3 -10   57.45    9.12
   5  -3  11   17.62    7.88
  -5  -3 -11   24.32    8.88
  -5   3 -11   -1.75    8.08
  -5   3 -12   -1.87    7.94
   5  -3  12   13.31    8.43
  -5   3 -13   18.66    9.46
  -5   3 -13    6.44    9.32
   5  -3  13    0.68    8.62
  -5   3 -14   26.20   10.26
   5  -3  14   24.17    9.64
  -5   3 -14   29.30   10.25
   5   4 -16   -6.91   11.29
  -5  -4  16   -3.08   10.97
  -5   4  15   14.22    7.69
   5   4 -15   11.57   10.77
   5  -4 -15   22.19   11.56
  -5  -4  15   12.88   11.66
   5  -4 -15   19.69    7.65
  -5  -4  15   -2.93   10.71
  -5  -4  14   -8.84   10.14
   5  -4 -14   11.00    8.29
   5   4 -14    2.04    9.51
  -5   4  14    3.63    6.88
   5  -4 -14   18.33   11.75
  -5  -4  14    1.86    9.47
  -5  -4  13    3.56    9.34
  -5  -4  13    2.16    9.28
   5  -4 -13    3.24    7.04
   5   4 -13   -1.28    8.71
   5  -4 -13   -2.29    9.92
  -5   4  13    1.83    6.95
  -5  -4  12   22.13    8.65
   5  -4 -12   20.83    9.38
  -5  -4  12   22.96   10.50
   5   4 -12   20.96    8.49
   5  -4 -12   19.65    8.56
  -5   4  12   20.27    7.36
   5  -4 -12   19.34    9.47
  -5  -4  11   89.75   11.22
   5  -4 -11   89.27   10.32
  -5   4  11   95.32    9.86
   5  -4 -11  100.44   11.55
   5   4 -11   98.29   10.33
   5  -4 -11   61.61   11.22
  -5  -4  10   15.71    7.88
  -5   4  10   13.52    7.00
   5  -4 -10   32.26    8.37
   5  -4  -9  170.78   13.58
   5  -4  -9  189.03   14.49
   5  -4  -9  173.97   14.94
  -5   4   9  187.49   13.90
   5  -4  -8   55.16    9.50
   5  -4  -8   75.98   10.41
  -5   4   8   77.89    9.48
   5  -4  -8   51.19    9.68
   5  -4  -7    0.70    7.92
  -5  -4   7   16.99    7.19
  -5   4   7   12.44    6.79
   5  -4  -7    9.73    8.34
   5  -4  -7    6.67    7.36
  -5  -4   6   17.71    6.93
  -5  -4   6   20.99    3.29
   5  -4  -6   20.27    8.86
  -5  -4   6   28.18    7.29
  -5   4   6   20.71    6.83
   5  -4  -6   20.68    8.07
   5  -4  -6   23.55    8.34
  -5  -4   5   78.35    9.18
  -5   4   5   79.37    9.48
  -5  -4   5   66.01    5.21
  -5  -4   5   76.54    8.74
   5  -4  -5   58.82   10.25
   5  -4  -5   69.42    9.84
  -5  -4   4   25.46    7.58
  -5  -4   4    8.43    6.15
  -5  -4   4   12.61    6.32
  -5   4   4   11.58    6.84
   5  -4  -4    2.69    7.94
   5  -4  -4   12.01    8.56
   5  -4  -3  114.71   11.55
  -5  -4   3   98.38    9.05
  -5  -4   3  134.95   10.32
  -5   4   3  118.92   10.76
  -5  -4   3  131.16   10.95
   5  -4  -2  206.88   14.46
  -5  -4   2  196.07   13.18
  -5   4   2  185.82   14.34
  -5  -4   2  178.54   13.62
  -5  -4   2  196.68   12.96
  -5  -4   1  113.03    9.29
   5  -4  -1  111.55    9.49
  -5   4   1  102.92   10.65
  -5  -4   1   96.66   10.28
  -5  -4   1   93.78    9.87
  -5  -4   0   43.33    7.70
   5  -4   0   36.53    7.45
   5  -4   1    4.07    6.03
   5  -4   1    3.92    6.34
  -5  -4  -1    1.58    5.95
   5  -4   2    8.78    6.55
   5  -4   2    7.28    6.24
  -5  -4  -2   10.02    6.01
   5  -4   2   14.93    8.24
  -5  -4  -3   -4.96    7.88
   5  -4   3    5.19    6.91
  -5   4  -3   11.62    6.68
   5  -4   3    2.66    6.16
   5  -4   3    2.23    6.53
   5  -4   3    6.90    8.20
  -5  -4  -3   -1.43    5.57
   5  -4   4  143.86   11.17
  -5  -4  -4  146.21   12.26
   5  -4   4  160.61   13.84
   5  -4   4  136.96   11.50
  -5   4  -4  160.99   13.19
  -5  -4  -4  170.21   11.25
  -5  -4  -4  144.18   12.45
  -5   4  -5  318.82   20.60
   5  -4   5  337.11   21.00
  -5  -4  -5  327.96   19.80
   5  -4   5  309.63   18.71
  -5  -4  -5  315.19   18.56
  -5  -4  -5  331.14   19.76
   5  -4   5  320.19   19.01
  -5  -4  -6   18.99    5.21
  -5  -4  -6   28.95    8.52
  -5  -4  -6   21.52    5.95
  -5  -4  -6   29.42    7.93
  -5   4  -6   24.39    7.71
   5  -4   6   24.21    7.57
  -5  -4  -6   27.59    8.34
   5  -4   6   30.03    9.70
  -5  -4  -7   50.48    5.73
  -5  -4  -7   87.30    9.13
  -5  -4  -7   64.25    9.43
  -5  -4  -7   70.20    8.50
   5  -4   7   62.35    8.27
   5  -4   7   43.71    9.92
  -5  -4  -7   70.84    6.97
  -5   4  -7   58.21    9.10
   5  -4   8   54.69   10.37
  -5  -4  -8   45.74    7.59
  -5   4  -8   49.24    8.94
  -5  -4  -8   36.73    8.59
  -5  -4  -8   37.96    4.70
   5  -4   9    0.78    9.46
  -5   4  -9    5.38    7.33
  -5  -4  -9    1.68    8.39
   5  -4  10   15.22   10.21
  -5  -4 -10   13.95    9.14
  -5   4 -10   11.63    8.14
  -5  -4 -11   36.33   10.78
   5  -4  11   40.16   11.08
  -5   4 -12   -2.15    9.34
  -5  -4 -12   26.76   11.67
   5  -4  12   -0.84   10.25
   5  -4  13   26.66   12.42
  -5  -5  13   18.05   11.87
   5  -5 -13    5.59    9.40
  -5   5  13    2.15    8.28
  -5  -5  12   30.78   11.68
   5  -5 -12   24.99   10.01
   5  -5 -12   16.92   12.96
  -5  -5  12    7.03   10.22
  -5   5  12   17.47    8.28
   5  -5 -12   37.68   11.37
   5  -5 -11   39.49   10.81
   5  -5 -11   37.27   11.09
   5  -5 -11   18.59   12.00
  -5   5  11   25.72    8.62
  -5  -5  11   43.69   11.01
   5  -5 -10   28.78   11.36
   5  -5 -10   -3.50    9.33
   5  -5 -10   12.44   10.32
   5  -5 -10   19.95   10.18
  -5   5  10    5.92    8.36
   5  -5  -9   38.83   11.00
   5  -5  -9   48.61   10.76
   5  -5  -9   61.39   11.60
  -5   5   9   33.55    9.16
   5  -5  -8    6.43    9.25
   5  -5  -8   21.22   10.31
   5  -5  -8   13.06    9.49
  -5   5   8   10.51    7.72
  -5  -5   8    1.78    8.51
   5  -5  -7   66.35   11.90
   5  -5  -7   74.25   12.12
  -5  -5   7   76.81   10.27
   5  -5  -7   76.87   11.96
  -5  -5   7   79.46   10.47
  -5   5   7   77.27   10.34
   5  -5  -6   75.43   12.13
  -5  -5   6   65.47    5.99
  -5  -5   6   71.24   10.34
  -5  -5   6   69.56   10.75
  -5   5   6   76.61   10.66
   5  -5  -6   79.35   11.92
   5  -5  -6   78.90   11.65
  -5  -5   5   47.29    5.70
   5  -5  -5   40.39   10.28
  -5  -5   5   72.43   10.02
  -5  -5   5   39.95    9.27
  -5   5   5   56.75   10.19
   5  -5  -5   57.96   11.08
   5  -5  -5   72.40   11.34
  -5  -5   4    3.60    7.26
  -5  -5   4    4.68    8.40
  -5  -5   4    1.58    7.45
  -5   5   4    7.12    8.69
   5  -5  -4    2.55    9.73
   5  -5  -4   -8.26   10.72
   5  -5  -3   22.07    9.72
   5  -5  -3   13.75    7.94
  -5  -5   3   12.89    8.03
  -5   5   3   17.69    8.43
  -5  -5   3   12.29    8.21
  -5  -5   3   13.90    7.03
   5  -5  -2   13.26    9.04
  -5  -5   2    8.57    7.48
  -5  -5   2    3.73    8.01
   5  -5  -2   -6.22   10.11
  -5  -5   2    8.85    7.79
   5  -5  -2   -1.21    8.18
  -5   5   2    4.91    8.21
  -5   5   1  141.47   13.45
   5  -5  -1  161.94   14.22
  -5  -5   1  164.90   13.53
  -5  -5   1  155.34   13.47
   5  -5  -1  153.43   12.80
  -5  -5   1  169.33   13.11
  -5   5   0    9.31    8.37
   5  -5   0   10.60    8.65
   5  -5   0    7.54    7.35
   5  -5   0    6.41    7.52
  -5  -5   0    6.42    7.74
  -5  -5   0    6.26    7.29
  -5   5  -1   15.51    8.57
   5  -5   1   20.77    7.00
  -5  -5  -1   20.26    8.65
  -5  -5  -1   12.10    7.23
   5  -5   1   17.11    7.96
  -5  -5  -2   20.68    7.46
   5  -5   2   24.07    8.08
   5  -5   2   13.65    7.72
  -5  -5  -3   19.02    8.80
   5  -5   3    7.02    7.48
   5  -5   3    2.62    6.67
  -5  -5  -3   -2.50    8.13
   5  -5   3   13.04    7.82
   5  -5   3   19.81   10.28
  -5  -5  -3   -0.70    9.08
   5  -5   4   14.55    7.61
  -5   5  -4   11.49    8.40
   5  -5   4   22.26    7.68
  -5  -5  -4    8.29    7.52
   5  -5   4   15.72    9.94
  -5  -5  -4   23.19    8.53
  -5  -5  -4   -2.08    9.06
   5  -5   5   71.78   12.07
  -5  -5  -5   64.07   10.13
   5  -5   5   70.57    9.50
  -5   5  -5   58.84   10.27
  -5  -5  -5   82.35    9.45
  -5  -5  -5   57.20   10.32
   5  -5   5   66.59    9.68
  -5  -5  -5   68.31   10.73
  -5  -5  -6   -1.31    7.77
  -5  -5  -6    9.26    8.78
  -5  -5  -6   12.91    6.91
   5  -5   6   -0.90    9.70
  -5   5  -6   -1.80    8.73
   5  -5   6    1.71    8.32
  -5  -5  -6   22.90    8.87
  -5  -5  -7   40.11    7.42
  -5  -5  -7    3.83    5.41
  -5  -5  -7    8.19    9.31
  -5  -5  -7    0.61    8.22
   5  -5   7   20.18   10.91
   5  -5   7    3.46    8.13
  -5   5  -7    2.74    9.31
  -5  -5  -7    9.97    9.68
   5  -5   8   45.77   12.33
   5  -5   8   27.68    8.78
  -5   5  -8   30.34   10.30
  -5  -5  -8   38.37    9.14
  -5  -5  -8   37.96   11.56
   5  -5   9   20.02   11.78
  -5  -5  -9   -0.68   11.28
  -5   5  -9    3.70    8.95
  -5  -5 -10   -5.44   12.50
  -5   5 -10    5.56    9.77
  -5   6  10    0.87   10.20
   5  -6 -10   19.43   12.40
  -5   6   9   12.34   10.19
   5  -6  -9    9.25   12.37
  -5   6   8    9.79    9.47
   5  -6  -8   18.46   13.30
  -5   6   7   -1.80    9.11
  -5  -6   7   12.98   11.10
   5  -6  -7   15.95   12.18
  -5   6   6   57.24   11.68
  -5  -6   6   79.69   12.22
   5  -6  -6   57.73   13.53
  -5  -6   6   68.36   12.47
   5  -6  -6   46.97   14.00
  -5   6   5   11.97   10.35
   5  -6  -5    3.01   10.99
  -5  -6   5    3.03    9.80
  -5  -6   5    7.86    9.79
   5  -6  -5    0.80    9.48
   5  -6  -5    5.37   12.23
   5  -6  -5   -3.07   12.30
  -5   6   4   18.64   10.22
  -5  -6   4   21.54    9.42
   5  -6  -4   26.75   10.54
   5  -6  -4   11.23   11.91
  -5  -6   4   26.45   11.31
  -5  -6   4   37.33   10.80
   5  -6  -4   -0.92   14.24
   5  -6  -4    6.14   12.70
  -5  -6   3    6.85   11.17
  -5  -6   3    1.86    9.68
   5  -6  -3   10.70   10.28
  -5   6   3    8.51    9.85
  -5  -6   3   12.89    9.99
   5  -6  -3    6.13   11.46
   5  -6  -3   -8.45   13.47
   5  -6  -2   31.39   12.29
  -5  -6   2    0.76   10.43
  -5   6   2    8.62    9.43
  -5  -6   2   14.44    9.49
  -5  -6   2    3.45    9.73
   5  -6  -2    9.70    9.25
   5  -6  -1   35.88   12.46
   5  -6  -1   15.39    9.78
  -5  -6   1    0.72    9.99
  -5   6   1   11.64    9.84
  -5  -6   1   -9.20   11.00
  -5  -6   1    6.13   10.10
   5  -6  -1    8.81   12.10
   5  -6  -1   13.16    9.12
   5  -6   0   75.24   13.95
  -5   6   0   84.62   12.12
  -5  -6   0   89.35   12.27
  -5  -6   0   75.38   11.63
  -5  -6   0   76.89   13.18
   5  -6   0   75.41   11.90
   5  -6   0   69.26   11.62
   5  -6   1   13.09   11.03
   5  -6   1    8.30    8.89
   5  -6   1    2.83    9.09
  -5  -6  -1   -9.04   11.34
  -5   6  -1   -6.00    9.48
  -5  -6  -1    0.76    9.96
  -5  -6  -1    7.16   11.11
  -5   6  -2   35.53   10.60
  -5  -6  -2   18.15   10.18
  -5  -6  -2   23.75   10.69
  -5  -6  -2   14.79    8.84
   5  -6   2   34.33   10.28
   5  -6   2   40.58    9.81
   5  -6   2   16.78    9.72
  -5  -6  -3    3.04    9.67
  -5  -6  -3  -12.91   11.01
   5  -6   3    6.78    9.11
  -5  -6  -3   -3.76   10.05
   5  -6   3   10.66   10.68
  -5  -6  -3   -0.81   10.10
   5  -6   4   19.53    8.82
  -5  -6  -4   11.31    9.45
  -5  -6  -4    9.08    9.63
  -5  -6  -4    6.41   10.61
  -5  -6  -5    9.25    9.69
   5  -6   5    8.65    8.75
  -5  -6  -5   -0.84   12.55
  -5  -6  -5   11.08   10.40
  -5  -6  -6   20.74   11.28
  -5  -6  -6   14.81   10.61
  -5  -6  -7    8.49   11.03
  -6   0  20    1.70   10.35
  -6   0  20    4.14    8.74
  -6   0  20    2.81    7.66
  -6   0  20  -11.58   13.27
  -6   0  19   15.92   10.00
  -6   0  19   -3.05    9.15
  -6   0  19   -5.85   11.52
  -6   0  19   -6.04    7.09
  -6   0  18   14.18    9.03
  -6   0  18    3.97    8.26
  -6   0  18   -3.94    9.86
  -6   0  17    3.49    7.97
  -6   0  17    2.41    7.70
  -6   0  17    7.42    9.07
  -6   0  16   18.24    8.11
  -6   0  16   13.05    8.47
  -6   0  16   13.87    9.71
  -6   0  15    5.44    7.96
  -6   0  15   11.27    8.25
  -6   0  14   75.35    9.43
  -6   0  14   92.64    9.80
  -6   0  13    5.07    6.56
  -6   0  13    1.25    7.88
   6   0 -12    0.72    6.54
  -6   0  12   17.57    6.52
  -6   0  12   12.85    7.84
   6   0 -11   -2.76    6.10
  -6   0  11    1.54    6.58
  -6   0  11    0.42    6.47
  -6   0  10   62.82    7.05
   6   0 -10   71.97    7.81
  -6   0  10   80.56    8.45
  -6   0  10   68.81    8.56
   6   0  -9   -1.96    5.31
  -6   0   9   -0.35    5.83
  -6   0   9    5.25    6.21
  -6   0   9    6.62    4.66
   6   0  -8 2291.56  109.46
  -6   0   8 2322.55  109.72
  -6   0   8 2297.54  109.32
  -6   0   8 2440.71  109.95
   6   0  -7   -0.90    4.33
  -6   0   7    0.73    3.32
  -6   0   7    0.32    5.39
  -6   0   7    1.29    4.72
  -6   0   6    4.31    5.18
  -6   0   6    5.64    4.63
  -6   0   6    3.23    3.36
  -6   0   5   -2.59    2.73
  -6   0   5   -1.45    4.15
   6   0  -4  746.91   33.49
  -6   0   4  719.94   34.04
   6   0  -3    1.00    2.56
   6   0  -3    5.01    4.47
  -6   0   3   -0.48    2.72
   6   0  -2 9774.16  457.56
  -6   0   2 9999.00  457.67
   6   0  -2 9909.62  457.02
  -6   0   2 9978.69  456.69
   6   0  -1    0.87    3.83
  -6   0   1    7.53    3.32
  -6   0   1   11.42    4.22
  -6   0   1    3.60    2.70
   6   0   0   75.17    5.66
  -6   0   0   68.59    4.74
  -6   0   0   69.74    5.17
  -6   0   0   68.13    5.97
  -6   0   0   66.66    3.84
  -6   0  -1   -1.70    3.13
  -6   0  -1    0.94    1.78
   6   0   1   -0.19    3.61
  -6   0  -1    3.17    3.87
   6   0   2  146.78    8.57
  -6   0  -2  134.39    8.83
  -6   0  -2  146.97    8.77
  -6   0  -3    2.84    3.44
   6   0   3    2.77    3.56
   6   0   4  869.29   40.63
  -6   0  -4  808.43   40.93
   6   0   4  871.15   40.12
   6   0   5   -1.42    3.50
  -6   0  -5    0.23    2.29
   6   0   5    0.72    1.74
  -6   0  -5    0.20    2.77
   6   0   6  100.78    4.99
  -6   0  -6   86.33    4.54
  -6   0  -6   91.66    4.76
  -6   0  -7    0.83    2.28
   6   0   7   -0.96    3.08
  -6   0  -7    0.50    3.02
   6   0   7   -3.35    4.47
   6   0   8  252.74   12.95
  -6   0  -8  251.81   12.85
  -6   0  -8  266.21   13.64
   6   0   8  266.50   14.51
  -6   0  -9    1.32    4.02
   6   0   9   -4.25    5.92
   6   0  10   68.55    7.91
  -6   0 -10   64.03    6.33
  -6   0 -11   10.99    4.75
   6   0  11   -2.71    6.62
  -6   0 -12   30.24    5.57
   6   0  12   28.12    7.61
  -6   0 -13    0.33    4.59
   6   0  13   11.32    6.88
  -6   0 -14  172.16   11.71
   6   0  14  166.22   15.64
   6   0  14  196.69   13.55
   6   0  15    4.16   12.24
  -6   0 -15    2.32    5.63
   6   0  16    5.34   10.77
  -6   1  21   31.99   12.70
  -6  -1  20   -0.82    9.11
  -6   1  20    6.15   10.72
  -6   1  20    3.73   10.36
  -6  -1  20    4.80    9.15
   6   1 -20   12.66    9.30
  -6   1  20   27.76   13.07
  -6  -1  19    9.46    8.22
  -6   1  19   27.16   11.18
  -6  -1  19   19.78    8.61
   6   1 -19   29.99   10.19
  -6  -1  19   17.35   11.32
  -6   1  19   15.99    9.57
  -6   1  19   26.37   12.34
  -6   1  19   28.73   11.12
  -6   1  18    2.48    9.59
  -6   1  18   21.00    9.99
  -6  -1  18   13.81    8.46
  -6  -1  18   21.70    8.68
  -6  -1  18    0.75    9.18
  -6   1  18   12.44    8.31
  -6   1  18    3.58   10.51
  -6   1  17   76.25   11.58
  -6  -1  17   80.38   10.34
  -6  -1  17   90.61   11.96
  -6  -1  17   65.95    9.48
  -6   1  17   86.80   10.35
  -6   1  17  125.70   12.60
  -6   1  17   93.24   12.38
  -6   1  16   53.97   10.39
  -6  -1  16   66.28    9.63
  -6   1  16   77.25   12.23
  -6  -1  16   60.85   11.29
  -6   1  16   78.77   10.10
  -6   1  16   77.81   11.35
   6  -1 -15   15.30    6.40
  -6   1  15   10.91    8.51
  -6   1  15   35.08   10.08
  -6  -1  15   19.67    7.13
  -6   1  15   23.70    8.55
  -6   1  15   25.08    9.05
   6  -1 -14   49.94    7.51
  -6  -1  14   61.07    8.75
  -6   1  14   75.41   11.82
  -6   1  14   52.65    9.13
  -6   1  14   55.27    9.42
   6  -1 -13   60.17    7.75
  -6   1  13   61.06    9.42
  -6  -1  13   65.35    8.70
  -6   1  13   86.72   11.14
  -6   1  13   67.13    9.88
   6  -1 -12    0.36    6.55
  -6  -1  12   10.54    7.02
  -6   1  12   27.52    9.15
  -6   1  12   21.80    8.76
  -6   1  12    4.33    6.82
   6  -1 -11  911.72   41.89
  -6  -1  11  883.94   42.15
  -6   1  11  761.08   42.36
  -6   1  11  871.43   43.03
  -6   1  11  768.76   42.99
   6  -1 -11  897.17   43.61
  -6  -1  11  830.91   42.95
   6  -1 -10   20.90    6.11
  -6   1  10   16.89    8.15
  -6  -1  10    5.08    5.77
  -6   1  10   20.67    8.14
   6  -1 -10    9.66    7.33
  -6  -1  10   15.82    7.44
  -6   1  10    1.39    6.03
   6  -1  -9   96.61    9.03
  -6  -1   9   82.85    8.23
   6  -1  -9   72.34    7.90
  -6   1   9  107.68    9.59
  -6   1   9   67.44    8.99
  -6   1   9   84.27    8.37
  -6   1   9   84.88    9.00
  -6  -1   8   78.70    7.38
  -6   1   8   69.80    8.14
   6  -1  -8   76.73    7.57
  -6   1   8   66.67    8.27
   6  -1  -8   83.89    7.81
  -6   1   8   81.67    7.93
  -6  -1   7  164.55   11.18
   6  -1  -7  174.80   11.47
  -6   1   7  191.25   12.09
   6  -1  -7  183.60   10.77
   6  -1  -7  190.29   11.58
  -6   1   7  184.24   11.90
   6  -1  -6   24.40    4.29
  -6   1   6   20.68    6.20
   6  -1  -6   26.84    5.00
   6  -1  -6   27.55    4.70
  -6   1   6   21.04    5.20
  -6   1   5 3123.37  141.00
   6   1  -5 3013.34  139.78
   6  -1  -5 2997.22  139.97
   6  -1  -5 3037.76  140.16
  -6   1   5 3068.93  140.60
   6   1  -5 2862.25  140.25
   6   1  -4    5.53    4.10
   6   1  -4    1.53    1.85
   6  -1  -4   -4.47    3.64
  -6   1   4   -1.34    4.65
   6   1  -4    3.18    2.83
  -6  -1   4    3.11    4.17
   6  -1  -4   -2.37    3.67
  -6   1   4    1.68    3.69
  -6  -1   3 1023.18   49.92
  -6   1   3 1091.01   50.53
   6   1  -3 1010.30   48.98
   6  -1  -3 1076.89   49.65
  -6  -1   3 1037.29   48.66
   6   1  -3 1092.47   50.02
   6   1  -2   -0.69    3.67
   6  -1  -2   -1.29    3.35
  -6  -1   2    1.66    3.71
  -6   1   2   -6.13    4.87
  -6  -1   2   -1.04    2.19
   6  -1  -2    3.83    4.45
   6  -1  -2   -0.20    2.92
  -6  -1   1  318.90   15.81
   6  -1  -1  313.27   16.12
  -6   1   1  325.23   16.63
   6  -1  -1  343.88   15.88
   6  -1  -1  317.24   15.43
   6  -1  -1  317.62   15.73
  -6  -1   1  264.17   13.98
   6  -1  -1  326.38   14.96
   6   1  -1  331.94   15.69
  -6  -1   0  928.18   46.05
   6  -1   0  914.50   46.51
   6  -1   0  944.87   46.29
   6  -1   0  990.68   45.66
   6  -1   0  982.31   46.22
  -6   1   0  995.46   47.01
   6   1   0 1010.76   46.08
  -6  -1  -1 1176.71   53.67
   6  -1   1 1167.29   54.42
   6  -1   1 1180.61   54.24
   6  -1   1 1199.46   53.95
  -6  -1  -1 1075.00   52.48
  -6   1  -1 1178.53   54.78
  -6  -1  -1 1130.73   52.60
   6   1   1 1259.25   53.62
  -6  -1  -2  421.18   20.53
   6  -1   2  422.35   20.94
   6  -1   2  416.05   21.60
   6  -1   2  437.06   20.16
  -6   1  -2  431.91   21.80
  -6  -1  -2  388.04   19.55
  -6   1  -2  425.62   20.62
   6   1   2  439.84   20.39
  -6   1  -3  350.83   17.85
  -6  -1  -3  331.55   17.34
   6  -1   3  363.63   18.10
   6  -1   3  364.95   18.64
  -6   1  -3  373.42   18.93
   6   1   3  347.64   17.88
   6  -1   3  341.46   17.14
  -6   1  -4  108.57    7.29
   6   1   4  121.86    7.48
  -6  -1  -4   95.27    6.10
  -6   1  -4   92.33    7.71
   6  -1   4   90.06    7.61
   6  -1   5  138.64    9.47
  -6  -1  -5  114.64    6.79
   6   1   5  164.88    9.61
  -6   1  -5  146.84    8.99
  -6   1  -5  135.21    9.03
   6  -1   6  299.59   17.27
  -6   1  -6  332.37   17.32
  -6   1  -6  302.34   17.53
   6   1   6  324.04   17.93
  -6   1  -6  311.30   17.14
  -6   1  -7   59.27    6.02
   6   1   7   66.87    7.84
  -6   1  -7   54.93    7.31
   6  -1   7   57.43    6.92
   6   1   7   47.28    5.28
  -6   1  -8  129.89    8.50
  -6   1  -8  119.42    9.90
   6   1   8  100.48    7.89
   6   1   8  104.81   10.21
   6  -1   8  111.75    8.98
  -6   1  -9   20.74    6.27
  -6   1  -9   13.58    4.15
   6  -1   9   34.94    8.05
   6   1   9   26.81    7.06
   6  -1   9   13.35    5.76
   6   1   9   11.45    4.90
   6   1  10   58.82    8.50
  -6   1 -10   58.98    8.45
   6  -1  10   54.25    8.73
   6  -1  10   50.32    6.81
   6   1  10   54.35    6.77
   6   1  11  109.69   11.72
   6  -1  11  158.94   11.91
   6   1  11  124.52    9.87
   6  -1  11  121.02    9.51
  -6   1 -11  129.34   11.43
   6   1  12   20.12    8.36
  -6   1 -12   46.74    8.98
   6  -1  12   44.73    9.04
   6  -1  12   40.36    6.37
   6   1  12   34.31    6.99
   6  -1  13    4.93    3.75
   6   1  13    4.51    8.65
  -6   1 -13    7.48    8.13
   6  -1  13   13.50    5.27
   6  -1  13   12.73    7.84
   6   1  13    5.61    6.52
  -6   1 -14    5.29    8.48
  -6  -1 -14    7.92    5.46
   6  -1  14    4.31    8.61
   6   1  14    3.24   10.31
   6   1  14   -6.16    7.60
  -6   1 -15    8.46    9.39
  -6  -1 -15   12.63    6.29
   6  -1  15   24.20   10.10
   6   1  15   18.26   11.14
   6   1  16    0.93   12.46
  -6   2  21   -5.43   15.36
  -6  -2  20   -0.96   11.01
  -6  -2  20   11.97   10.82
  -6  -2  19   24.57   10.82
  -6   2  19    7.99   12.43
  -6  -2  19   11.81    9.77
   6   2 -19   11.36   10.13
  -6  -2  19   29.24   12.29
  -6   2  18   14.78    8.45
  -6  -2  18    3.55    8.74
   6   2 -18    3.96    5.52
  -6   2  18   -3.82   11.21
  -6  -2  18   -5.15    8.62
  -6  -2  18   22.39   12.32
  -6   2  17   30.13    8.54
   6  -2 -17   26.56    6.77
  -6  -2  17   26.80    9.19
   6   2 -17   27.19    6.15
  -6  -2  17   20.02    9.41
  -6  -2  17   31.10   11.17
  -6   2  17   24.66   11.77
  -6   2  17   25.56   12.64
  -6   2  16   18.68    8.30
   6   2 -16   11.17    5.23
   6  -2 -16    0.79    5.93
  -6  -2  16   16.07    8.65
  -6   2  16   13.09   11.32
  -6  -2  16    8.44    7.69
  -6   2  16    0.97   10.69
  -6   2  15   -2.24    8.36
  -6  -2  15    2.17    7.06
   6   2 -15    2.65    4.57
   6  -2 -15   -1.97    6.57
  -6  -2  15   -0.54    8.18
   6  -2 -15    6.02    9.65
  -6   2  15    5.82   10.29
  -6   2  15   15.52   10.62
   6   2 -14    3.72    3.96
  -6   2  14  -10.26   10.73
   6  -2 -14   -0.39    6.19
  -6  -2  14    0.68    6.24
   6   2 -14   -1.15    7.02
  -6   2  14    1.71    9.31
  -6   2  14  -11.05    9.38
  -6   2  13   80.75   12.35
   6   2 -13   83.15    5.86
   6  -2 -13   93.54    9.07
   6   2 -13   84.29    9.50
  -6  -2  13   96.20   10.27
  -6  -2  13   72.56    9.30
  -6   2  13   76.26   10.38
  -6  -2  12   21.65    8.11
   6   2 -12   16.59    2.92
  -6   2  12   24.75    9.58
   6  -2 -12   25.95    7.10
   6   2 -12   15.29    6.61
  -6  -2  12   14.35    6.11
  -6   2  12    7.37    8.84
  -6   2  11  158.09   13.82
   6  -2 -11  139.61   10.57
  -6  -2  11  132.13   11.05
   6   2 -11  112.74    6.41
   6   2 -11  123.60   10.27
   6  -2 -11  118.12   11.70
  -6   2  11  125.68   11.71
  -6   2  10    8.81    8.24
   6  -2 -10    9.93    7.43
  -6  -2  10    8.77    6.83
   6   2 -10   12.76    6.18
   6  -2 -10    4.36    7.18
   6   2 -10    6.07    5.84
  -6   2  10   -3.95    8.23
  -6   2   9   19.56    8.13
  -6  -2   9   37.45    7.24
   6  -2  -9   43.82    7.24
   6   2  -9   48.43    6.26
  -6   2   9   34.00    8.82
   6  -2  -9   31.71    7.15
   6   2  -9   36.89    5.98
   6  -2  -9   39.84    7.90
   6  -2  -8  306.72   17.57
   6   2  -8  302.13   16.75
  -6   2   8  314.07   19.34
   6  -2  -8  291.92   17.68
  -6   2   8  349.61   18.55
   6  -2  -8  307.29   18.14
   6   2  -8  289.92   16.95
  -6  -2   8  317.36   17.76
   6   2  -7  370.48   18.73
   6  -2  -7  345.45   19.91
  -6   2   7  371.20   20.55
   6  -2  -7  351.58   20.02
   6   2  -7  378.25   19.35
   6  -2  -7  355.73   20.29
  -6   2   6   50.59    7.20
   6  -2  -6   51.73    6.86
   6   2  -6   54.03    5.82
   6  -2  -6   75.84    7.67
   6   2  -6   59.23    5.52
   6  -2  -6   65.50    7.29
  -6   2   5   28.31    6.32
  -6  -2   5   16.67    5.01
   6  -2  -5   22.63    5.76
   6   2  -5   17.22    4.24
   6  -2  -5   29.75    6.40
   6  -2  -5   30.04    5.65
   6  -2  -4  135.91    9.31
  -6   2   4  106.13    9.40
   6  -2  -4  129.25    9.04
  -6  -2   4  109.15    8.37
  -6  -2   3  673.35   32.22
  -6  -2   3  668.12   32.70
   6  -2  -3  663.97   33.84
   6  -2  -3  683.90   34.05
  -6  -2   3  690.16   33.29
  -6  -2   2  645.92   29.83
   6  -2  -2  581.84   31.25
  -6  -2   2  596.57   29.36
  -6  -2   2  632.19   30.52
  -6  -2   1   17.87    4.33
   6  -2  -1   17.27    4.16
  -6  -2   1   16.75    3.53
   6  -2  -1    1.90    5.30
   6  -2  -1   25.03    6.24
  -6  -2   0  161.95    9.82
   6  -2   0  152.60    9.75
  -6  -2   0  162.10    9.79
  -6   2   0  168.74   11.61
   6  -2   0  149.65   11.46
  -6  -2   0  179.49    9.32
   6  -2   0  162.63   11.54
  -6  -2  -1  443.92   21.69
   6  -2   1  399.12   23.37
  -6  -2  -1  435.24   21.86
  -6  -2  -1  418.96   21.80
  -6   2  -1  440.33   23.45
   6  -2   1  443.09   22.10
  -6  -2  -2  152.05    9.08
   6  -2   2  153.43   11.31
  -6  -2  -2  146.56    8.92
  -6  -2  -2  150.33    9.24
  -6   2  -2  144.05   10.73
  -6  -2  -2  157.55    9.66
  -6  -2  -3  971.89   44.20
   6  -2   3  958.24   46.13
  -6  -2  -3  908.63   44.24
   6  -2   3  909.73   44.57
  -6  -2  -3  914.69   44.37
  -6   2  -3  918.31   46.17
  -6  -2  -4  644.70   31.29
  -6  -2  -4  646.97   31.37
   6  -2   4  666.18   33.59
  -6  -2  -4  641.84   31.85
   6  -2   4  608.31   31.93
  -6  -2  -4  705.14   31.50
  -6   2  -4  644.35   33.60
  -6   2  -4  667.11   32.68
  -6  -2  -5  150.13    7.73
  -6  -2  -5  129.80    7.62
  -6   2  -5  162.09   10.61
  -6  -2  -5  155.33    9.56
   6  -2   5  143.52    9.50
   6  -2   5  161.31   11.17
  -6  -2  -5  139.55    7.69
  -6   2  -5  132.37   10.52
  -6   2  -5  153.20   10.11
  -6   2  -6   73.52    7.57
   6  -2   6   74.62    8.24
  -6  -2  -6   87.43    7.56
  -6   2  -6   88.02    8.18
  -6   2  -6   78.15    7.92
  -6   2  -7  197.59   13.09
  -6   2  -7  184.95   13.29
  -6   2  -7  215.24   13.78
  -6  -2  -7  211.34   13.21
   6  -2   7  224.82   13.98
  -6   2  -8  213.76   13.65
  -6   2  -8  201.66   13.63
   6  -2   8  217.37   14.16
  -6   2  -8  208.63   14.24
  -6   2  -9  229.53   14.90
  -6   2  -9  231.93   15.30
  -6   2  -9  245.82   15.16
   6  -2   9  222.31   14.88
   6  -2  10   97.06    9.67
  -6   2 -10   86.93    8.63
  -6   2 -10  103.54   10.71
  -6   2 -10  105.75    9.76
   6  -2  11   35.15    7.62
  -6   2 -11   16.65    8.26
  -6   2 -11   20.30    7.29
   6  -2  12    2.45    6.78
  -6   2 -12    1.84    8.57
  -6   2 -12    8.95    7.21
   6  -2  13  -10.73    7.98
  -6   2 -13   14.32    9.69
  -6   2 -13   13.80    8.23
   6  -2  13   15.06    9.54
  -6   2 -14   35.19   10.62
  -6   2 -14   31.44   10.05
   6  -2  14   32.22   11.67
  -6   2 -15   34.88   10.14
  -6  -3  19   12.66   11.54
  -6  -3  18    3.00   10.19
   6   3 -18    2.97   10.93
  -6  -3  18   10.57   11.50
   6  -3 -17   23.14    7.70
  -6  -3  17   34.81   10.14
   6   3 -17   21.75    9.53
   6  -3 -17   13.72   13.67
  -6  -3  17   23.58   11.95
   6   3 -16   51.41   10.30
  -6  -3  16   45.25   10.35
  -6   3  16   47.89    9.29
  -6  -3  16   52.33   11.41
   6  -3 -16   59.91    8.91
   6  -3 -16   54.46   13.70
   6   3 -15   25.43    8.42
  -6  -3  15   43.54   10.23
   6  -3 -15   39.36    7.71
  -6   3  15   26.64    8.54
  -6  -3  15   33.79   10.71
   6  -3 -15   50.64   12.29
   6   3 -15   36.97    9.08
  -6  -3  14   23.76    8.61
   6  -3 -14   27.69    7.93
   6   3 -14   16.84    7.81
   6   3 -14   18.37    7.82
  -6  -3  14   23.84    9.89
  -6   3  14   14.39    7.48
  -6  -3  13  118.92   12.44
  -6   3  13  115.00   11.06
  -6  -3  13  118.16   11.76
   6  -3 -13  111.31   10.58
   6   3 -13  118.83   10.85
   6   3 -13  105.15   10.70
  -6   3  12    6.39    7.31
   6   3 -12   15.28    7.45
   6   3 -12   10.41    7.80
  -6  -3  12    1.43    6.63
  -6  -3  12   19.50    8.31
   6  -3 -12   19.05    7.56
   6   3 -11  125.31   10.44
   6  -3 -11  148.05   12.09
  -6  -3  11  126.90   11.99
  -6  -3  11  124.92   11.29
   6   3 -11  144.02   11.58
   6  -3 -11  118.70   11.17
  -6   3  11  130.94   11.71
   6  -3 -10  196.27   13.32
   6  -3 -10  181.30   13.72
  -6  -3  10  165.76   13.16
  -6   3  10  198.62   14.08
   6  -3 -10  163.60   13.92
   6   3 -10  183.00   12.35
  -6  -3  10  184.91   13.79
  -6  -3   9  114.83   11.03
   6  -3  -9  113.43   10.30
  -6   3   9   76.35    9.80
   6   3  -9  110.74    9.64
   6  -3  -9  117.99   10.78
  -6  -3   9  112.75   10.26
   6  -3  -9  109.23   11.19
   6  -3  -8   54.33    8.63
  -6   3   8   58.62    9.17
   6  -3  -8   84.29    9.45
   6   3  -8   56.84    7.02
   6  -3  -8   61.34    8.53
   6  -3  -7  618.96   31.73
   6  -3  -7  593.34   32.00
  -6   3   7  597.67   32.14
   6  -3  -7  599.96   31.91
  -6  -3   6  184.82   13.13
   6  -3  -6  202.74   13.82
  -6   3   6  208.86   14.11
   6  -3  -6  198.76   13.76
  -6  -3   6  185.34   13.12
  -6  -3   5   84.14    8.80
  -6   3   5   77.94    9.25
  -6  -3   5   85.06    8.46
  -6  -3   5   93.00    8.14
   6  -3  -5   79.35    9.70
   6  -3  -5   87.86    9.61
  -6  -3   4   62.93    7.52
  -6  -3   4   69.75    7.25
   6  -3  -4   72.97    8.77
  -6   3   4   66.10    8.78
  -6  -3   4   76.29    7.29
  -6  -3   4   54.13    6.00
   6  -3  -4   64.95    8.97
   6  -3  -4   64.73    8.87
  -6  -3   3  146.41   10.08
   6  -3  -3  148.42   12.35
  -6  -3   3  153.56   11.13
  -6  -3   3  163.98   10.77
  -6   3   3  171.12   12.26
  -6  -3   3  179.36   11.17
  -6  -3   2   20.23    6.00
  -6  -3   2   19.32    5.13
   6  -3  -2    7.95    6.63
  -6  -3   2   18.58    5.49
  -6  -3   2   13.14    4.95
  -6  -3   1  695.68   34.81
   6  -3  -1  645.45   35.68
  -6  -3   1  686.67   33.93
   6  -3  -1  708.63   34.52
  -6  -3   1  689.88   33.96
  -6  -3   1  689.51   34.07
  -6  -3   0  695.92   35.42
   6  -3   0  746.27   36.60
   6  -3   0  660.40   35.28
  -6  -3   0  703.14   34.71
   6  -3   0  733.18   35.28
   6  -3   1   69.73    8.45
  -6  -3  -1   46.48    6.09
  -6  -3  -1   52.21    6.18
  -6  -3  -1   47.87    7.54
   6  -3   1   53.16    6.92
  -6   3  -1   60.10    8.17
   6  -3   1   57.11    6.65
  -6  -3  -2   72.07    7.28
   6  -3   2   87.44    9.63
  -6  -3  -2   71.49    6.98
  -6  -3  -2   93.93    8.79
   6  -3   2   85.00    8.26
   6  -3   2  106.56    8.53
  -6   3  -2   69.27    8.75
   6  -3   3    5.01    6.81
   6  -3   3    7.81    6.25
  -6  -3  -3   -0.48    4.99
   6  -3   3    2.68    5.38
  -6   3  -3   -1.81    6.50
  -6  -3  -3    2.49    6.32
  -6  -3  -3    7.00    4.75
  -6  -3  -3    3.47    6.11
   6  -3   4    9.11    7.06
   6  -3   4   -2.41    5.40
  -6  -3  -4   11.93    7.03
  -6  -3  -4    6.58    4.22
  -6  -3  -4    4.49    5.86
  -6   3  -4    6.73    6.94
  -6  -3  -4    9.35    4.59
  -6   3  -5  103.62   10.60
  -6  -3  -5  139.60    8.16
   6  -3   5  123.71   11.36
  -6  -3  -5  120.75    9.35
   6  -3   5  120.18    9.72
  -6  -3  -5  122.44    8.14
  -6  -3  -5  116.09    9.39
  -6  -3  -6  276.37   14.60
  -6   3  -6  306.61   18.40
   6  -3   6  285.34   18.22
  -6  -3  -6  290.86   14.87
   6  -3   6  287.99   16.74
  -6  -3  -6  304.81   15.81
  -6  -3  -6  287.46   17.17
  -6   3  -7    4.35    6.16
  -6   3  -7    3.32    6.55
   6  -3   7    6.05    7.61
  -6  -3  -7   -8.13    7.13
   6  -3   8  100.21   10.66
  -6  -3  -8   93.90    9.76
  -6   3  -8   86.49    9.44
  -6   3  -8   74.22    9.10
   6  -3   9   20.83    8.25
  -6   3  -9    8.99    7.33
  -6   3  -9    8.30    6.43
  -6  -3  -9   12.37    8.09
   6  -3  10   10.31    8.67
  -6   3 -10    6.48    6.78
  -6  -3 -10   18.26    9.11
  -6   3 -10   11.79    7.87
   6  -3  11    3.93    8.07
  -6   3 -11    4.55    7.00
  -6   3 -11    3.58    8.24
   6  -3  12   17.28    8.69
  -6   3 -12   19.67    8.47
   6  -3  13   15.41    9.10
  -6   3 -13   13.46    9.39
  -6  -4  16   -4.13   10.23
  -6  -4  16  -13.87   12.82
   6  -4 -16   11.91    8.14
   6   4 -16   10.45   10.33
  -6  -4  15    4.92   10.84
   6   4 -15   -3.52    9.04
   6  -4 -15    5.49    8.46
  -6   4  15   15.93    8.59
  -6  -4  15   -2.38   12.28
   6  -4 -15   19.79   12.62
  -6  -4  14   -0.94    9.11
   6  -4 -14    9.02    8.34
   6   4 -14    9.95    9.44
   6  -4 -14    8.85   10.64
  -6   4  14   -0.67    7.44
  -6  -4  14    3.05   10.37
  -6  -4  13   10.81    9.37
  -6  -4  13   13.27   10.65
   6   4 -13   19.93    8.66
   6  -4 -13    9.59    8.29
  -6   4  13   13.43    7.40
   6  -4 -13    3.85   10.73
   6  -4 -13   17.46    8.96
  -6  -4  12   15.66   10.41
  -6  -4  12   25.87    8.52
   6  -4 -12   40.20    9.81
   6  -4 -12   19.17    8.97
   6   4 -12   29.04    8.88
  -6   4  12   12.03    7.87
  -6  -4  11   12.43    7.70
  -6  -4  11   19.21    9.46
   6  -4 -11   24.63    9.26
  -6   4  11   24.64    7.85
   6  -4 -11   11.59    8.09
  -6  -4  10   37.95    9.75
  -6  -4  10   46.99    8.88
  -6   4  10   35.15    7.85
   6  -4 -10   33.81    8.91
   6  -4 -10   41.17    9.58
   6  -4  -9   36.13    9.72
   6  -4  -9   -2.14    8.49
   6  -4  -9   15.94    8.98
  -6   4   9   11.26    7.40
   6  -4  -9   20.14    8.44
   6  -4  -8    2.87    8.14
   6  -4  -8   23.17    8.44
   6  -4  -8   16.73    8.56
   6  -4  -8   16.30    8.29
  -6  -4   7   25.76    7.54
   6  -4  -7    3.31    8.33
   6  -4  -7   19.57    8.72
   6  -4  -7   27.16    8.40
  -6  -4   6  212.27   15.20
  -6  -4   6  196.64   10.44
  -6  -4   6  256.60   14.79
   6  -4  -6  189.89   15.46
  -6   4   6  238.10   15.82
   6  -4  -6  239.24   15.97
  -6  -4   5   -1.20    2.66
  -6  -4   5    3.34    6.93
  -6  -4   5    8.55    6.20
  -6   4   5   -0.67    6.42
   6  -4  -5   -0.61    8.65
   6  -4  -5    6.04    8.08
  -6  -4   4  152.62   12.04
  -6  -4   4  136.86   10.21
   6  -4  -4  115.99   12.60
  -6  -4   4  154.32   11.25
  -6   4   4  162.70   12.61
   6  -4  -4  126.61   12.95
   6  -4  -4  142.07   12.87
  -6  -4   3   56.36    8.14
   6  -4  -3   29.18    8.36
  -6  -4   3   50.18    7.04
  -6  -4   3   49.77    7.70
  -6   4   3   51.08    8.44
   6  -4  -3   37.50    9.68
   6  -4  -2  -13.51    9.53
  -6  -4   2    1.79    5.82
  -6  -4   2   -2.30    5.83
   6  -4  -2  -13.27    9.51
  -6  -4   2    1.72    6.64
  -6   4   2    0.70    6.60
   6  -4  -2   10.51    7.29
  -6  -4   1   88.14    9.11
  -6  -4   1   98.47    9.07
   6  -4  -1   84.04    8.98
  -6   4   1   79.94   10.00
  -6  -4   1   96.49    9.56
   6  -4   0  237.10   15.46
   6  -4   0  248.78   15.65
  -6  -4   0  275.64   15.72
  -6  -4   0  226.78   15.65
   6  -4   1    6.79    7.65
   6  -4   1   12.38    6.55
  -6  -4  -1    5.70    5.95
   6  -4   1   -0.47    6.09
   6  -4   2  141.15   12.47
  -6  -4  -2  122.21   10.88
   6  -4   2  128.44   10.68
   6  -4   2  136.49   10.94
  -6  -4  -2  107.79    9.92
  -6   4  -2  135.95   12.16
   6  -4   3  191.33   12.83
   6  -4   3  178.39   12.58
   6  -4   3  202.64   14.92
  -6  -4  -3  161.63   12.90
  -6  -4  -3  166.47   12.10
  -6  -4  -3  172.11   13.23
  -6  -4  -3  165.66   11.16
  -6   4  -3  158.02   13.80
  -6   4  -4   91.96   10.78
  -6  -4  -4   83.87    7.53
   6  -4   4   91.37   11.03
  -6  -4  -4   72.35    9.47
   6  -4   4  105.10   10.00
   6  -4   4  100.53    8.86
  -6  -4  -4   88.96    8.57
  -6  -4  -4   92.50    9.86
  -6  -4  -5   19.90    5.66
   6  -4   5   21.96    9.54
  -6  -4  -5   29.21    7.79
  -6  -4  -5   17.10    6.11
  -6  -4  -5   14.99    8.00
   6  -4   5   17.24    6.93
  -6   4  -5   23.92    7.90
  -6  -4  -5   29.56    7.64
  -6  -4  -6   16.48    7.37
   6  -4   6    2.24    8.21
  -6  -4  -6    1.34    5.35
  -6   4  -6    9.24    7.51
  -6  -4  -6   -6.29    6.88
   6  -4   6    4.66    6.67
  -6  -4  -6    4.43    5.11
  -6  -4  -6   21.90    7.29
  -6  -4  -7   10.23    4.34
   6  -4   7   18.99    9.72
  -6   4  -7    3.87    7.49
  -6  -4  -7    5.14    6.16
   6  -4   7   14.52    6.72
  -6  -4  -7   -4.68    7.62
  -6   4  -8   15.62    7.96
  -6  -4  -8   13.51    2.20
   6  -4   8   17.81    9.41
  -6  -4  -8   21.43    8.07
   6  -4   9   30.84   10.23
  -6   4  -9   32.46    9.10
  -6  -4  -9   47.40    9.90
   6  -4  10   71.83   12.05
  -6   4 -10   67.16   10.46
  -6  -4 -10   57.92   10.94
   6  -4  11   26.38   11.45
  -6  -4 -11   16.92   10.66
  -6   4 -11   13.64    8.34
   6  -4  12   13.44   11.72
   6  -5 -13   15.10   11.02
  -6  -5  12   66.75   13.44
   6  -5 -12   56.26   11.94
   6  -5 -12   52.59   11.58
  -6   5  12   42.67    9.96
   6  -5 -12   43.92   13.86
  -6  -5  12   69.18   12.26
   6  -5 -11   21.61   11.01
   6  -5 -11    5.70   10.81
  -6   5  11    4.67    8.58
  -6  -5  11    0.99   10.50
   6  -5 -10   54.68   11.20
   6  -5 -10   40.89   11.20
  -6   5  10   37.50   10.72
   6  -5  -9   28.30   10.83
   6  -5  -9   30.50   10.68
  -6   5   9   18.01    8.50
   6  -5  -9   12.20    9.61
  -6  -5   9    8.37    9.40
   6  -5  -8   12.17   10.30
   6  -5  -8    0.88    9.89
   6  -5  -8   20.54   10.53
  -6   5   8    7.08    8.11
   6  -5  -8   13.51   10.47
  -6  -5   8    7.23    9.02
   6  -5  -7   85.33   12.42
  -6  -5   7  104.01   10.80
  -6   5   7   77.76   11.15
   6  -5  -7   82.48   12.61
   6  -5  -7   74.42   11.97
  -6  -5   7   90.11   11.47
   6  -5  -6  131.43   13.50
  -6  -5   6  115.62    7.39
  -6  -5   6  126.23   11.68
  -6   5   6  107.21   12.48
   6  -5  -6  107.76   13.21
  -6  -5   6  120.58   12.99
   6  -5  -6  117.37   14.29
  -6  -5   5    0.20    3.99
  -6  -5   5    6.47    7.65
  -6   5   5    9.72    8.39
  -6  -5   5   -4.93    7.48
   6  -5  -5    3.76   10.55
   6  -5  -5    3.39    9.18
  -6  -5   4   65.79    8.33
  -6  -5   4   76.95    9.65
  -6  -5   4   48.58    9.45
  -6   5   4   54.31    9.96
   6  -5  -4   50.02   11.32
   6  -5  -4   42.48   11.17
  -6  -5   3   13.72    7.09
   6  -5  -3    2.56    9.45
  -6  -5   3   15.70    7.92
   6  -5  -3   25.06    8.39
  -6  -5   3   23.05    8.55
  -6   5   3    5.86    8.21
   6  -5  -3    5.50   11.01
   6  -5  -2   53.46   12.17
  -6  -5   2   69.02    9.32
   6  -5  -2   50.33   11.82
  -6  -5   2   48.15    9.20
   6  -5  -2   74.60   10.17
  -6  -5   2   45.86    9.05
  -6   5   2   66.52   10.21
   6  -5  -1   78.35   10.68
   6  -5  -1   69.31    9.10
   6  -5  -1   60.21   11.47
  -6  -5   1   81.60   10.36
  -6  -5   1   57.74    9.59
  -6  -5   1   49.21    9.38
  -6   5   1   51.15   10.06
   6  -5  -1   56.29    9.03
  -6   5   0   72.29   10.77
   6  -5   0   73.22    9.59
   6  -5   0   51.56    9.16
  -6  -5   0   58.68   10.19
  -6  -5   0   54.23    9.37
  -6  -5   0   60.84    9.26
   6  -5   1    2.89    7.86
   6  -5   1    3.95    7.51
  -6  -5  -1   -2.45    8.48
  -6  -5  -1    2.63    6.64
   6  -5   2   50.42   10.79
  -6  -5  -2   15.11    7.30
   6  -5   2   28.13    8.17
   6  -5   2   46.51    9.02
   6  -5   2   24.47    8.51
  -6  -5  -2   23.28    7.57
   6  -5   3    6.08   10.30
  -6   5  -3    3.66    7.94
   6  -5   3   10.62    7.96
  -6  -5  -3    4.81    6.17
   6  -5   3    4.47    7.53
  -6  -5  -3    2.55    7.22
  -6  -5  -3   -2.68    8.95
  -6  -5  -4   60.60    7.31
   6  -5   4   60.08   11.43
  -6  -5  -4   63.54    9.31
  -6   5  -4   72.48   11.04
  -6  -5  -4   64.26    9.48
   6  -5   4   56.76    9.14
  -6  -5  -4   57.51    9.93
  -6  -5  -5    9.00    5.81
   6  -5   5   17.97    9.74
  -6  -5  -5   15.05    8.87
  -6  -5  -5   14.17    7.00
  -6  -5  -5   -9.45    9.32
   6  -5   5    0.56    8.12
  -6  -5  -5    6.51    8.04
  -6   5  -5    6.46    8.56
   6  -5   6    5.47   11.29
  -6  -5  -6   11.42    8.62
  -6   5  -6   -0.93    8.29
  -6  -5  -6   -6.07    8.38
   6  -5   6    0.57    8.34
  -6  -5  -6    7.42    6.39
  -6  -5  -6   12.09    8.16
   6  -5   7   34.27   11.58
  -6  -5  -7    9.38    7.42
  -6   5  -7    7.49    8.89
   6  -5   7    4.64    8.59
  -6  -5  -7   19.90    8.39
  -6  -5  -7   21.40   10.14
   6  -5   8   23.56   12.95
  -6  -5  -8    3.21   10.04
  -6   5  -9   16.16   10.67
  -6  -5  -9    1.94   10.09
   6  -6 -11    2.25   12.49
  -6   6  10    2.75   10.57
   6  -6 -10   19.40   12.59
   6  -6  -9   35.75   13.28
  -6   6   8   -0.93   10.01
   6  -6  -8   10.68   13.41
  -6   6   7   15.91   10.46
  -6  -6   7   21.71   11.70
   6  -6  -7    2.57   11.64
  -6   6   6    9.45   10.30
  -6  -6   6    4.55   10.35
  -6  -6   6   15.17   10.85
   6  -6  -6   21.21   13.06
  -6   6   5   13.38    9.71
   6  -6  -5   -6.40   10.01
  -6  -6   5    3.73   10.14
  -6  -6   5    2.95    9.53
   6  -6  -5   12.76   13.14
  -6   6   4    7.75   10.05
  -6  -6   4   -0.67    9.16
   6  -6  -4    3.93   10.12
  -6  -6   4    5.72   10.33
   6  -6  -4   -5.61   13.03
  -6  -6   3    7.39    9.03
   6  -6  -3   16.04   10.39
  -6  -6   3   17.53   10.53
   6  -6  -3  -17.19   12.78
   6  -6  -3    6.17   11.61
  -6  -6   2   17.78   10.23
   6  -6  -2   -0.75    8.96
  -6   6   2    3.99    9.45
   6  -6  -2    2.81    9.71
   6  -6  -2  -13.87   12.20
  -6  -6   2   -3.74   10.15
  -6  -6   2    8.02    9.84
   6  -6  -2  -13.65   14.58
   6  -6  -1   42.46   13.80
   6  -6  -1   57.44   11.34
  -6   6   1   36.44   11.15
  -6  -6   1   49.97   11.47
  -6  -6   1   57.49   11.42
   6  -6  -1   20.78   13.17
  -6  -6   1   54.14   11.01
   6  -6  -1   48.93   10.32
   6  -6   0   36.97   12.85
  -6  -6   0    5.87   11.15
  -6   6   0   23.55   10.60
   6  -6   0   11.67    9.66
  -6  -6   0   -0.74   10.35
   6  -6   0   14.45   13.56
  -6  -6   0   25.61    9.49
   6  -6   0   25.20    9.89
  -6   6  -1   15.50   10.15
   6  -6   1    5.98    9.09
  -6  -6  -1    6.37    9.45
   6  -6   1    6.84   10.26
   6  -6   1   10.06   10.28
  -6  -6  -1    5.30   10.75
  -6  -6  -2    2.94    8.88
  -6  -6  -2   -3.78   10.49
  -6  -6  -2   -1.56   10.87
   6  -6   2    8.51    8.89
  -6  -6  -2  -10.89   10.89
  -6  -6  -2   -6.14   10.23
  -6  -6  -3   -6.24    7.77
  -6  -6  -3    7.34    8.77
   6  -6   3    7.15    9.43
  -6  -6  -3   -2.90   10.24
  -6  -6  -3    1.60   11.91
  -6  -6  -3   -1.55   10.06
   6  -6   4    9.09    9.17
  -6  -6  -4   -2.24    9.17
  -6  -6  -4   -0.76   11.71
  -6  -6  -5   59.41   11.22
  -6  -6  -5   42.33   11.90
  -7   0  20    3.33   10.36
  -7   0  20    8.39    9.68
  -7   0  20   -8.92   11.74
  -7   0  19    8.63    9.04
  -7   0  19   11.49    9.39
  -7   0  19   -4.21   11.16
  -7   0  18    0.53    8.63
  -7   0  18   10.99    7.87
  -7   0  18  -12.65   10.32
  -7   0  17  117.26   11.67
  -7   0  17   74.94   10.88
  -7   0  16    1.51    8.40
  -7   0  16    7.62    8.08
  -7   0  15   -0.98    7.91
  -7   0  15    4.12    6.97
  -7   0  14    4.35    6.92
  -7   0  14   -0.94    7.88
   7   0 -13   67.35    8.31
  -7   0  13   82.04    9.25
  -7   0  13   55.78   10.08
  -7   0  13   60.82    9.94
   7   0 -12   -7.42    6.84
  -7   0  12    8.13    6.93
  -7   0  12    0.44    7.37
  -7   0  12    6.85    7.89
  -7   0  11   74.63    9.62
  -7   0  11   85.15    8.21
  -7   0  11   85.92    9.50
   7   0 -11   66.42    8.21
  -7   0  10    9.79    5.54
   7   0 -10   -3.36    6.38
  -7   0  10   -0.81    7.21
  -7   0  10   -6.73    7.26
   7   0  -9  336.90   18.79
  -7   0   9  386.55   19.52
  -7   0   9  316.20   18.08
  -7   0   9  333.52   19.24
   7   0  -8    2.76    4.95
  -7   0   8   -9.01    6.26
  -7   0   8    0.83    4.06
  -7   0   8    0.37    5.62
  -7   0   7    7.23    5.96
  -7   0   7    5.64    3.85
  -7   0   7   -0.98    4.98
  -7   0   6   -1.58    3.11
  -7   0   6   -7.45    4.34
  -7   0   5   -0.74    4.54
   7   0  -4    0.16    2.98
  -7   0   4   -4.16    3.76
   7   0  -3 1700.65   81.32
  -7   0   3 1764.59   81.60
   7   0  -3 1672.01   80.48
  -7   0   3 1764.93   80.40
   7   0  -2   -0.54    4.45
  -7   0   2    2.33    4.91
  -7   0   2    2.54    2.35
   7   0  -1  970.01   46.35
  -7   0   1  974.21   46.66
  -7   0   1  951.41   45.92
  -7   0   1  973.11   45.98
   7   0   0   -6.42    4.39
  -7   0   0   -4.42    3.18
  -7   0   0   -1.24    2.69
  -7   0   0    2.44    4.74
   7   0   1  940.33   45.20
  -7   0  -1  957.94   44.17
  -7   0  -1  912.45   45.43
  -7   0  -1  947.00   45.28
  -7   0  -2   -6.03    4.53
   7   0   2   -1.29    4.17
  -7   0  -2   -0.27    3.69
   7   0   3 2456.69  112.82
  -7   0  -3 2442.50  113.51
  -7   0  -3 2364.02  113.17
  -7   0  -4   -4.80    4.07
   7   0   4   -1.76    4.05
   7   0   5    0.74    4.03
  -7   0  -5    1.66    3.21
   7   0   5   -4.00    2.62
   7   0   6    1.22    4.07
  -7   0  -6   -0.88    2.91
   7   0   6   -4.70    3.37
  -7   0  -7    2.77    2.63
   7   0   7    5.43    3.64
  -7   0  -7   -0.64    3.26
   7   0   7    0.98    0.59
   7   0   8   -0.97    2.90
  -7   0  -8    0.94    2.18
  -7   0  -8   -3.12    3.67
   7   0   8   -2.13    4.48
   7   0   9  505.08   25.10
  -7   0  -9  578.09   26.22
   7   0   9  544.34   26.86
  -7   0 -10    0.23    4.03
   7   0  10    2.53    5.39
  -7   0 -11    4.41    4.54
   7   0  11   14.98    6.25
  -7   0 -12    0.85    4.65
   7   0  12    7.50    6.13
  -7   0 -13   13.64    5.65
   7   0  13   29.42   10.26
   7   0  13   26.82    6.75
   7   0  14    9.48    9.78
  -7   0 -14   -1.00    5.45
   7   0  15   36.60   11.99
  -7   1  21    2.83   12.85
  -7  -1  20    7.30   10.10
  -7  -1  20    0.57   11.15
  -7  -1  20   -4.27    9.26
  -7   1  20   -2.77   10.66
  -7   1  20    6.35   12.70
  -7   1  20    6.96   11.37
  -7  -1  19    2.27    8.57
  -7   1  19   13.99   12.33
  -7  -1  19   10.51    9.71
  -7  -1  19   -1.63    8.03
  -7  -1  19    7.93   10.70
  -7   1  19    0.60    9.18
  -7   1  19    1.89    9.93
  -7   1  18   14.24   10.88
  -7  -1  18   -1.62    8.62
  -7   1  18    9.81    8.88
  -7   1  18    2.37    8.91
  -7  -1  18   -0.76    7.38
  -7   1  18    6.28   11.30
  -7   1  17   12.29    9.06
  -7  -1  17    2.12    8.15
  -7   1  17   16.20    9.04
  -7   1  17   15.34   10.06
  -7   1  17   12.02    9.78
  -7  -1  16  166.05   13.25
   7  -1 -16  136.00   11.43
  -7   1  16  173.80   13.87
  -7   1  16  183.29   15.68
  -7   1  16  145.43   13.99
   7  -1 -15   21.18    6.78
  -7   1  15   38.32    8.97
  -7  -1  15   37.59    8.15
  -7   1  15   40.95    9.32
   7  -1 -14   16.13    6.90
  -7   1  14   16.25    7.98
  -7  -1  14   36.16    8.32
  -7   1  14   50.32   10.45
  -7   1  14   47.67    9.64
  -7  -1  14   26.04    9.51
  -7  -1  13   44.79    8.34
  -7   1  13   45.21    9.23
  -7   1  13   37.98    9.46
  -7  -1  13   29.58    8.80
   7  -1 -13   31.81    7.45
  -7   1  13   20.44    7.97
   7  -1 -12  358.20   19.39
  -7  -1  12  325.31   19.42
  -7   1  12  317.31   20.11
  -7  -1  12  319.21   20.56
  -7   1  12  351.72   21.48
  -7   1  12  345.26   20.81
  -7   1  12  321.93   20.58
   7  -1 -11  219.96   14.33
  -7  -1  11  218.90   14.36
  -7   1  11  202.58   15.20
  -7   1  11  213.67   15.93
   7  -1 -11  241.77   16.08
  -7   1  11  231.91   15.56
  -7  -1  11  234.23   15.80
  -7   1  11  211.74   14.92
   7  -1 -10  452.08   23.43
  -7  -1  10  436.59   23.33
  -7   1  10  396.11   24.07
  -7   1  10  422.80   23.67
   7  -1 -10  396.09   24.40
  -7   1  10  410.64   24.66
  -7  -1  10  462.77   24.33
  -7   1  10  473.94   24.45
   7  -1  -9  123.22    9.64
  -7  -1   9  100.94    9.19
  -7  -1   9  122.73   10.39
   7  -1  -9  120.25   10.22
  -7   1   9  101.38   10.55
  -7   1   9  104.71    9.96
  -7  -1   8   73.78    7.99
   7  -1  -8   98.75    8.60
   7  -1  -8   96.78    9.19
  -7   1   8  101.94    9.71
  -7   1   8  115.29    9.56
   7  -1  -7    6.07    3.77
   7  -1  -7   -4.05    5.65
   7  -1  -7   -3.02    5.16
  -7   1   7    2.82    5.21
  -7   1   6 3167.10  141.45
   7  -1  -6 3186.38  140.09
  -7   1   6 2652.94  141.04
   7  -1  -6 3082.93  140.45
  -7   1   6 3156.80  141.00
   7   1  -6 2778.81  140.42
   7   1  -5  546.32   25.17
   7  -1  -5  519.70   26.11
  -7   1   5  550.69   27.61
  -7   1   5  491.70   26.94
   7  -1  -5  509.12   26.55
   7   1  -5  530.65   26.03
   7   1  -5  537.07   26.91
  -7  -1   4   69.88    6.61
  -7   1   4   69.61    7.08
   7   1  -4   64.67    4.80
   7   1  -4   58.76    6.37
   7  -1  -4   61.73    5.63
  -7  -1   3  129.05    8.76
   7  -1  -3  104.46    8.81
  -7  -1   3  125.67    6.91
  -7   1   3  128.05    9.31
   7   1  -3  118.20    6.95
   7  -1  -3  134.63    8.03
   7  -1  -3  137.62    8.10
   7   1  -3  135.73    8.86
  -7  -1   2  169.01   10.46
   7  -1  -2  161.43   10.48
   7  -1  -2  166.09    9.89
  -7   1   2  155.63   11.16
  -7  -1   2  159.12    8.94
  -7   1   2  166.67   10.90
   7  -1  -2  166.06    9.49
   7  -1  -2  164.04    8.99
   7   1  -2  178.16   10.25
  -7   1   1   43.74    5.81
   7   1  -1   33.37    4.83
   7  -1  -1   28.54    4.54
  -7  -1   1   27.61    5.87
   7  -1  -1   41.09    5.78
   7  -1  -1   41.27    3.74
   7  -1  -1   31.00    3.90
  -7  -1   0 3491.01  162.72
   7  -1   0 3348.65  163.12
  -7   1   0 3469.76  163.68
   7  -1   0 3504.22  162.66
   7  -1   0 3406.60  162.98
   7   1   0 3759.46  162.76
  -7  -1  -1  189.72   10.91
   7  -1   1  184.55   11.36
  -7   1  -1  179.29   10.72
   7  -1   1  180.70   10.59
  -7   1  -1  180.27   11.66
   7   1   1  181.59   10.51
  -7  -1  -2  277.14   14.86
   7  -1   2  255.01   15.58
   7  -1   2  283.91   14.03
  -7   1  -2  295.31   16.49
   7  -1   2  270.59   14.79
  -7   1  -2  292.41   14.83
   7   1   2  296.57   14.77
  -7   1  -3   46.39    6.33
  -7   1  -3   58.57    5.60
   7   1   3   48.25    4.63
   7   1   3   55.84    5.03
   7  -1   3   61.91    5.31
  -7  -1  -3   54.32    5.28
   7  -1   3   70.11    6.61
   7  -1   4   -5.18    3.73
  -7   1  -4    5.87    4.54
  -7   1  -4    4.70    4.26
   7   1   4   -1.04    4.41
   7  -1   4   12.87    5.95
  -7  -1  -4   -6.61    3.79
  -7   1  -5  108.16    8.05
   7   1   5  108.89    8.15
   7  -1   5  114.40    8.98
   7  -1   5  114.13    7.30
  -7  -1  -5   99.41    6.17
  -7   1  -5  101.11    8.27
   7   1   6  754.55   35.35
  -7   1  -6  730.41   34.88
   7  -1   6  660.49   34.85
   7  -1   6  708.08   33.98
  -7   1  -6  656.13   34.86
  -7   1  -7   41.32    5.78
   7   1   7   43.74    7.26
  -7   1  -7   61.71    6.73
  -7   1  -7   45.68    7.48
   7  -1   7   50.91    7.03
  -7   1  -8   66.56    8.35
  -7   1  -8   63.40    6.72
  -7   1  -8   84.56    8.37
   7  -1   8   81.93    7.92
   7   1   8   91.82    8.65
  -7   1  -9   54.33    8.32
  -7   1  -9   58.37    6.28
   7   1   9   55.43    8.45
   7  -1   9   67.66    8.88
   7  -1   9   52.54    6.94
   7   1  10   30.71    7.98
  -7   1 -10   16.79    7.15
   7  -1  10   38.11    8.07
   7  -1  10   21.00    5.99
  -7   1 -10   18.18    4.51
   7   1  11   27.39    7.93
  -7   1 -11   38.21    8.39
  -7  -1 -11   48.85    5.58
   7  -1  11   50.73    6.50
   7  -1  11   43.87    8.26
   7   1  11   30.19    6.05
   7   1  12   -8.33    8.15
  -7   1 -12   -1.23    7.75
  -7  -1 -12    5.42    4.72
   7  -1  12    9.27    5.30
   7  -1  12    0.91    7.53
   7   1  12    3.12    5.99
   7   1  13   18.87    9.61
  -7   1 -13   23.73    9.34
  -7  -1 -13   24.12    5.37
   7  -1  13   21.62    8.78
  -7   1 -14   -1.40    9.26
   7   1  14  -11.41   10.73
   7   1  15   12.27   12.46
  -7  -2  20   -0.97   10.52
  -7  -2  20   -3.31   12.17
  -7   2  20    5.41   14.82
  -7   2  19   -1.04   13.51
  -7  -2  19    1.85   10.17
  -7   2  19   11.36   13.71
  -7   2  18   17.38    8.89
   7  -2 -18   -4.34    7.16
  -7  -2  18   24.55   10.52
  -7   2  18   -4.00   11.98
  -7  -2  18   12.31    9.11
  -7   2  18   10.85   12.29
  -7   2  17   19.42    9.58
   7   2 -17   18.64    9.52
   7   2 -17   30.60    5.28
  -7   2  17   32.65   13.49
   7  -2 -17   20.83    7.22
  -7  -2  17   31.58    9.73
  -7   2  17   33.05   11.50
  -7  -2  17   36.40   10.18
  -7  -2  16    8.17    9.16
  -7   2  16   -1.84   11.64
   7   2 -16    0.86    4.05
   7  -2 -16    6.57    6.45
   7   2 -16    2.61    7.71
  -7  -2  16    3.92    7.10
  -7   2  16   -4.90   10.59
  -7   2  16  -12.86   10.95
   7  -2 -15   23.27    7.49
  -7  -2  15   21.41    8.53
   7   2 -15   31.39    4.21
   7   2 -15   19.72    8.27
  -7   2  15   27.25   11.26
  -7  -2  15   26.37   10.26
  -7  -2  15   25.79    7.55
  -7   2  15    2.54   10.58
   7  -2 -14   40.33    8.03
  -7  -2  14   34.77    8.69
   7   2 -14   35.78    3.82
  -7   2  14   25.95   11.23
   7   2 -14   34.66    7.80
  -7  -2  14   35.37    7.83
  -7   2  14   30.54   10.01
   7  -2 -13    1.70    7.00
   7   2 -13    2.71    2.18
  -7   2  13    8.74    9.49
   7   2 -13   -4.30    7.16
  -7  -2  13   -2.09    7.81
   7  -2 -13    6.64    9.00
  -7   2  13  -10.95    9.14
   7  -2 -12   82.25    9.46
  -7   2  12   88.11   12.19
  -7  -2  12   94.37    9.98
   7   2 -12  106.97   10.03
   7  -2 -12   86.20   10.66
  -7   2  12   79.35   10.75
   7   2 -11   84.86    8.52
  -7  -2  11  101.27   10.28
  -7   2  11   84.06   12.00
   7  -2 -11   77.30    9.62
   7   2 -11   80.83    8.98
   7  -2 -11   77.96   10.64
  -7   2  11   75.51   11.18
  -7   2  11   78.74   11.23
  -7  -2  10  209.64   14.32
   7  -2 -10  190.06   13.96
   7   2 -10  199.28   12.82
  -7   2  10  223.04   15.93
  -7   2  10  205.03   15.89
   7   2 -10  208.29   13.52
   7  -2 -10  191.38   14.10
   7  -2 -10  216.17   13.86
  -7   2  10  198.54   15.26
  -7  -2   9   30.46    7.37
   7  -2  -9   39.57    6.46
   7   2  -9   34.28    5.78
  -7   2   9   37.70    9.42
   7  -2  -9   30.85    7.19
   7   2  -9   34.95    6.34
   7  -2  -9   30.52    7.58
  -7   2   9   22.84    7.90
  -7   2   9   24.72    9.25
   7  -2  -8  560.71   29.60
   7   2  -8  554.22   28.28
   7  -2  -8  584.15   29.53
   7   2  -8  583.62   29.14
  -7   2   8  582.36   30.92
   7  -2  -8  570.57   29.81
  -7   2   7   63.25    8.15
   7  -2  -7   55.12    7.08
   7   2  -7   72.99    6.60
   7  -2  -7   60.85    7.95
   7  -2  -7   43.37    7.89
   7   2  -7   57.62    5.84
  -7  -2   6  267.02   16.73
   7  -2  -6  273.38   17.21
   7  -2  -6  281.30   16.65
   7   2  -6  289.10   15.94
  -7   2   6  334.21   18.14
   7  -2  -6  328.90   17.31
   7   2  -6  300.58   15.36
  -7   2   5    5.30    6.24
  -7  -2   5    2.42    4.84
   7  -2  -5   12.87    5.92
   7  -2  -5    6.75    5.01
  -7  -2   4   23.34    1.97
  -7  -2   4   33.25    5.90
   7  -2  -4   42.42    6.50
   7  -2  -4   35.15    6.21
  -7  -2   3  435.96   22.46
   7  -2  -3  454.80   23.25
   7  -2  -3  404.91   22.75
  -7  -2   2  392.10   19.48
  -7  -2   2  351.26   17.84
   7  -2  -2  372.36   20.30
  -7  -2   2  391.36   18.42
   7  -2  -2  380.17   20.16
   7  -2  -2  329.39   19.73
   7  -2  -2  352.11   19.37
   7  -2  -2  355.53   18.88
  -7  -2   1  264.07   14.93
   7  -2  -1  252.53   15.96
   7  -2  -1  272.40   15.88
   7  -2  -1  243.34   14.93
  -7   2   1  284.37   16.51
  -7  -2   1  300.47   13.90
  -7  -2   1  256.86   13.46
   7  -2  -1  252.77   14.34
  -7  -2   0  120.94    8.82
   7  -2   0  133.15    8.86
  -7  -2   0  138.47    8.25
   7  -2   0  122.14   10.00
  -7  -2   0  144.43    7.91
  -7   2   0  147.31   11.17
   7  -2   0  112.78   10.70
  -7  -2  -1    6.46    3.91
  -7  -2  -1    4.71    4.61
  -7   2  -1   -4.97    6.36
   7  -2   1   -3.12    6.28
  -7  -2  -1    2.84    3.09
   7  -2   1    6.51    4.76
   7  -2   1   -1.32    6.67
  -7  -2  -2  174.37    9.89
   7  -2   2  127.98   11.10
   7  -2   2  128.19    9.35
  -7   2  -2  148.76   11.31
  -7  -2  -2  170.46    9.09
  -7  -2  -2  147.56    9.15
   7  -2   2  145.22   12.02
  -7  -2  -3  353.70   17.68
   7  -2   3  331.84   20.08
  -7  -2  -3  323.34   17.36
   7  -2   3  317.31   17.70
  -7  -2  -3  378.49   17.41
  -7   2  -3  321.58   19.58
  -7  -2  -4   40.26    3.95
  -7  -2  -4   36.22    3.60
  -7  -2  -4   49.29    4.97
  -7   2  -4   43.31    6.22
  -7   2  -4   46.16    7.16
  -7  -2  -4   49.23    5.11
   7  -2   4   50.44    5.87
   7  -2   4   40.17    8.83
  -7  -2  -5  171.41    9.31
  -7   2  -5  192.70   12.22
  -7  -2  -5  217.23   10.95
  -7   2  -5  173.75   12.34
  -7   2  -5  190.76   11.69
  -7  -2  -5  162.40    9.30
   7  -2   5  170.17   13.02
  -7   2  -6  117.31    9.77
  -7  -2  -6  115.50    8.69
  -7   2  -6  106.41    9.06
  -7   2  -6  106.92    9.44
   7  -2   6  100.86   10.37
  -7   2  -7    4.57    5.50
  -7   2  -7    0.40    5.77
  -7   2  -7   -0.47    6.63
   7  -2   7   -8.57    7.68
  -7   2  -8  197.22   13.68
  -7   2  -8  220.61   13.90
  -7   2  -8  209.27   14.18
   7  -2   8  197.19   14.45
  -7   2  -9  114.25   10.65
  -7   2  -9  111.79    9.37
  -7   2  -9  105.95    9.43
   7  -2   9   94.13   10.41
  -7   2 -10   21.93    8.24
  -7   2 -10    8.63    5.50
  -7   2 -10    5.97    5.87
   7  -2  10    4.42    7.25
  -7   2 -11   43.62    9.44
  -7   2 -11   32.96    8.23
   7  -2  11   25.03    8.15
  -7   2 -12   44.80   10.08
   7  -2  12   42.29   10.71
  -7   2 -12   39.83    9.05
   7  -2  12   27.68    8.54
  -7   2 -13   33.72   10.89
   7  -2  13   23.78   10.92
  -7   2 -13   30.97    8.86
  -7   2 -14   60.81   10.10
  -7  -3  19    1.06   11.12
  -7  -3  19   21.81   13.04
   7   3 -18   15.05   10.48
   7  -3 -18   23.11    7.91
  -7  -3  18   14.03   11.04
   7   3 -17   34.47   10.85
   7  -3 -17   33.63    8.27
  -7  -3  17   40.38   11.19
  -7  -3  17   53.01   11.13
   7   3 -17   30.25   10.19
   7  -3 -17   45.22   14.10
  -7   3  17   22.53    8.93
  -7   3  16    2.05    9.22
   7   3 -16   20.75    9.20
  -7  -3  16   17.64   10.60
  -7  -3  16   23.31    9.85
   7  -3 -16   16.70    8.10
   7   3 -16   20.33    9.24
   7   3 -15    7.41    8.85
  -7  -3  15    7.56   10.19
  -7   3  15   -3.37    8.67
   7  -3 -15   -8.99    7.50
  -7  -3  15    2.55    8.63
   7   3 -15   12.50    7.40
  -7   3  14    8.61    8.91
   7  -3 -14   21.25    7.59
  -7  -3  14   16.20    8.60
  -7  -3  14    6.68    9.24
   7   3 -14   10.05    7.88
   7   3 -14    6.66    7.26
  -7  -3  13   -7.10    9.20
  -7   3  13    3.91    8.41
   7  -3 -13    1.44    7.85
  -7  -3  13    6.96    7.17
   7   3 -13    0.59    7.67
   7   3 -13    4.13    6.87
   7   3 -12  157.33   12.18
   7  -3 -12  199.09   14.21
  -7  -3  12  175.46   13.74
  -7   3  12  149.83   13.38
   7  -3 -12  145.26   12.70
   7   3 -12  162.25   13.02
  -7  -3  12  156.48   13.18
   7  -3 -12  150.92   13.79
  -7  -3  11  201.25   14.58
   7  -3 -11  191.22   14.24
  -7   3  11  211.17   15.14
   7   3 -11  215.63   14.23
   7  -3 -11  165.05   14.39
   7  -3 -11  197.11   15.35
   7   3 -11  207.48   13.74
  -7  -3  11  202.26   15.40
   7  -3 -10  205.70   14.24
   7  -3 -10  204.53   14.45
  -7   3  10  209.91   14.89
  -7  -3  10  150.61   13.52
   7  -3 -10  171.89   14.70
   7   3 -10  199.65   12.80
  -7  -3  10  201.46   14.46
   7  -3  -9   30.07    7.28
  -7   3   9   32.32    8.38
   7  -3  -9   30.80    9.01
   7   3  -9   27.09    6.62
   7  -3  -9   28.72    8.64
  -7   3   8  148.48   12.88
   7  -3  -8  154.99   12.22
   7  -3  -8  141.17   11.90
   7  -3  -8  115.98   11.42
  -7  -3   7    4.70    6.78
   7  -3  -7   -0.54    7.05
  -7   3   7    4.21    7.40
  -7  -3   7    2.98    5.76
   7  -3  -7    9.85    7.87
   7  -3  -7   20.12    7.20
   7  -3  -6  273.02   16.96
  -7  -3   6  247.06   16.33
   7  -3  -6  228.16   17.01
  -7   3   6  277.40   17.49
   7  -3  -6  260.49   16.90
  -7  -3   6  300.18   16.76
   7  -3  -5  635.61   34.00
   7  -3  -5  662.10   34.14
  -7  -3   5  631.10   33.74
  -7   3   5  618.03   34.31
   7  -3  -5  648.85   33.86
  -7  -3   5  672.60   33.18
  -7  -3   4  172.16   11.90
   7  -3  -4  172.40   12.79
  -7  -3   4  177.76   11.44
  -7   3   4  178.65   13.46
   7  -3  -4  162.66   12.46
   7  -3  -4  134.99   13.20
  -7  -3   4  167.06   11.80
  -7  -3   3  113.72    8.35
  -7  -3   3  133.26   10.21
   7  -3  -3  117.41   10.94
  -7   3   3   97.05   10.60
  -7  -3   3  133.69    9.15
   7  -3  -3  114.19   10.43
  -7  -3   3  123.78    9.40
  -7  -3   2  607.88   31.22
   7  -3  -2  563.20   31.68
  -7  -3   2  632.67   30.27
   7  -3  -2  613.12   30.65
  -7  -3   2  612.20   30.55
  -7  -3   2  573.46   29.61
   7  -3  -1  199.46   14.88
  -7  -3   1  181.66   12.23
   7  -3  -1  186.03   13.64
  -7  -3   1  195.22   11.66
  -7  -3   1  181.56   11.53
   7  -3  -1  190.00   12.23
  -7  -3   1  188.98   12.21
  -7  -3   0   62.80    7.23
  -7  -3   0   79.63    7.18
   7  -3   0   69.67    7.79
   7  -3   0   78.25    9.60
  -7  -3   0   77.56    7.13
  -7   3   0   66.31    8.71
   7  -3   0   41.68    8.96
   7  -3   1   24.80    9.20
  -7  -3  -1   44.12    5.77
   7  -3   1   35.74    6.69
  -7  -3  -1   44.33    6.68
  -7  -3  -1   32.27    6.75
   7  -3   1   34.48    6.19
  -7   3  -1   29.37    7.10
   7  -3   2   98.61   10.54
  -7  -3  -2   88.40    7.67
   7  -3   2   81.74    8.95
  -7  -3  -2  112.60    9.24
  -7  -3  -2   92.67    8.10
   7  -3   2  120.78    9.02
  -7   3  -2   94.53    9.95
  -7  -3  -2   92.22    8.78
   7  -3   3   37.36    8.99
  -7  -3  -3   26.05    7.02
  -7  -3  -3   22.01    5.48
   7  -3   3    4.03    5.83
   7  -3   3   18.38    5.43
  -7   3  -3   15.25    6.79
  -7  -3  -3    7.84    6.01
  -7  -3  -3   11.28    4.60
  -7  -3  -4  544.50   26.08
   7  -3   4  504.41   28.55
   7  -3   4  494.58   26.74
  -7  -3  -4  520.88   26.89
  -7  -3  -4  514.06   26.26
  -7   3  -4  550.69   29.06
  -7  -3  -5  160.97    9.43
   7  -3   5  178.06   13.24
  -7  -3  -5  147.08    9.95
   7  -3   5  146.42   10.70
  -7  -3  -5  148.88   11.08
  -7  -3  -5  152.08    9.35
  -7   3  -5  168.70   12.92
  -7   3  -6    7.82    6.33
   7  -3   6   14.52    7.62
  -7  -3  -6    0.49    2.73
  -7  -3  -6    7.81    3.87
  -7  -3  -6    4.94    2.86
   7  -3   6    6.74    5.61
  -7  -3  -6    4.92    6.43
   7  -3   7   32.05    8.36
  -7   3  -7   16.38    7.72
  -7   3  -7   14.16    6.86
  -7  -3  -7   22.94    7.14
   7  -3   8   16.93    8.31
  -7   3  -8    7.19    7.42
  -7   3  -8    3.62    6.24
  -7  -3  -8   17.17    7.43
   7  -3   9   46.54    9.11
  -7   3  -9   24.44    7.94
  -7   3  -9   24.08    8.05
  -7  -3  -9   44.19    8.97
   7  -3  10   50.95    9.60
  -7   3 -10   35.48    8.03
  -7   3 -10   35.18    8.57
   7  -3  11   73.31   10.75
  -7   3 -11   79.84   10.41
  -7   3 -11   92.21   10.47
   7  -3  12  -11.27   10.85
  -7   3 -12    3.88    9.26
  -7   3 -13    2.73    9.78
  -7  -4  16   -1.04   11.23
  -7  -4  16    5.07   12.16
   7  -4 -16    3.18    8.98
  -7   4  16    8.80    8.63
   7   4 -16   -3.61   10.85
  -7  -4  15   21.94    9.63
  -7  -4  15   18.12   12.29
   7  -4 -15   19.65   10.13
  -7   4  15   25.07    9.51
   7   4 -15   16.38   10.15
  -7  -4  14    3.20   10.38
  -7  -4  14   -8.58    8.84
   7  -4 -14   -2.71    9.81
  -7   4  14   10.32    8.53
   7   4 -14    5.14    8.87
  -7  -4  13   -9.15   10.31
   7  -4 -13    3.27    7.78
  -7   4  13   13.21    9.01
   7  -4 -13    3.95    9.74
  -7  -4  13   12.75    8.38
   7   4 -13    4.80    8.71
   7  -4 -12   10.02    9.70
  -7  -4  12    1.75    8.12
  -7   4  12    3.64    6.98
   7  -4 -12   11.12    8.60
  -7  -4  12   -5.85   10.03
  -7  -4  11   10.47    9.88
  -7  -4  11    4.20    7.85
  -7   4  11   -2.89    7.30
   7  -4 -11   10.12    9.04
   7  -4 -11    5.22    8.62
   7  -4 -11    1.48   10.11
   7  -4 -10   12.29    8.63
  -7   4  10   20.80    9.26
   7  -4 -10   19.93    8.65
   7  -4 -10   -2.17    9.48
  -7   4   9   20.64    8.28
   7  -4  -9   19.58    9.02
   7  -4  -9   12.14    9.02
   7  -4  -9   12.56    8.43
  -7  -4   8   51.04    9.33
   7  -4  -8   62.74   10.34
  -7  -4   8   73.13    9.57
   7  -4  -8   85.95   10.31
  -7   4   8   63.83    9.41
   7  -4  -8   57.95    9.88
   7  -4  -8   61.15    9.50
  -7  -4   7   35.13    8.27
  -7   4   7   39.04    8.20
  -7  -4   7   32.10    8.06
   7  -4  -7   25.71    9.71
   7  -4  -7   40.54    8.97
  -7  -4   6   -0.53    7.22
  -7  -4   6    2.11    6.53
  -7   4   6   10.68    7.55
  -7  -4   6    6.72    7.07
   7  -4  -6   10.45    9.44
   7  -4  -6   -0.67    7.76
  -7  -4   5   19.61    7.74
  -7  -4   5   27.19    7.69
   7  -4  -5   32.29    8.98
  -7   4   5   22.14    7.79
  -7  -4   5   34.65    7.21
   7  -4  -5   21.50    9.25
   7  -4  -5   21.37    8.09
  -7  -4   4   25.10    7.42
  -7  -4   4    9.18    6.96
   7  -4  -4   23.58    8.47
  -7  -4   4   26.95    6.21
  -7  -4   4   29.24    6.94
  -7   4   4   23.08    7.58
   7  -4  -4   20.03    8.90
   7  -4  -4   14.67    8.50
  -7  -4   3   25.17    7.04
  -7  -4   3   10.27    6.65
   7  -4  -3   14.85    7.35
   7  -4  -3   13.53    8.60
  -7  -4   3   29.41    7.26
  -7   4   3   13.87    7.36
   7  -4  -3    9.88    9.18
  -7  -4   3   13.68    5.82
   7  -4  -3   12.63    8.60
  -7  -4   2  134.25   10.19
  -7  -4   2  121.23   10.74
  -7  -4   2  129.98   11.31
   7  -4  -2  130.75   12.91
  -7  -4   2  149.51   10.94
   7  -4  -2  140.16   11.39
  -7   4   2  127.59   11.97
  -7  -4   1  381.57   22.66
   7  -4  -1  417.68   24.70
  -7  -4   1  447.13   22.32
   7  -4  -1  354.94   22.28
  -7  -4   1  412.62   21.87
   7  -4  -1  400.09   22.43
  -7  -4   1  388.39   21.75
   7  -4   0    2.75    9.49
  -7  -4   0   21.59    5.72
   7  -4   0   26.45    7.09
   7  -4   0   18.73    6.78
   7  -4   0   12.89    8.81
  -7  -4   0   15.62    6.69
  -7  -4   0   13.05    6.76
  -7  -4   0   18.52    6.45
   7  -4   1  146.57   13.03
  -7  -4  -1  119.57    9.59
  -7  -4  -1  113.99   10.45
   7  -4   1  115.90   10.56
   7  -4   1  124.04   10.71
  -7   4  -1  129.77   12.18
  -7  -4  -1  122.04   10.20
   7  -4   2   78.89   10.54
  -7  -4  -2   61.39    8.63
   7  -4   2   54.80    8.33
  -7  -4  -2   65.24    7.50
  -7  -4  -2   61.51    7.93
  -7   4  -2   68.97   10.22
   7  -4   2   66.48    8.43
   7  -4   3    9.33    8.93
  -7  -4  -3   -3.30    5.74
  -7  -4  -3   -0.53    6.59
   7  -4   3   -2.56    7.23
   7  -4   3    6.57    6.06
  -7  -4  -3    2.71    5.64
  -7  -4  -3   -8.68    7.14
  -7   4  -3    0.79    8.42
  -7   4  -4   54.30    9.56
   7  -4   4   41.56    9.46
  -7  -4  -4   62.95    8.75
  -7  -4  -4   64.76    7.10
   7  -4   4   55.15    8.26
   7  -4   4   56.17    7.87
  -7  -4  -4   56.11    7.01
  -7  -4  -4   38.75    8.13
  -7  -4  -5  145.76    9.48
   7  -4   5  157.13   13.68
  -7   4  -5  115.73   12.49
  -7  -4  -5  115.49   11.16
   7  -4   5  128.69   10.56
  -7  -4  -5  140.01   12.00
  -7  -4  -5  116.37    9.88
  -7  -4  -5  116.57   10.83
   7  -4   6   13.56    9.75
  -7   4  -6    6.42    7.46
  -7  -4  -6   10.46    5.24
  -7  -4  -6   14.57    5.14
   7  -4   6   19.49    7.38
  -7  -4  -6   26.37    7.30
  -7  -4  -6    6.01    6.39
  -7  -4  -7   10.46    3.82
   7  -4   7   40.60   10.64
  -7   4  -7   27.28    8.65
  -7  -4  -7   42.37    6.63
   7  -4   7   41.02    8.15
  -7  -4  -7    9.80    7.59
   7  -4   8   42.12   11.09
  -7   4  -8   35.49    9.22
  -7  -4  -8   46.25    8.58
   7  -4   9   22.21   10.64
  -7   4  -9    2.45    8.31
  -7  -4  -9    5.86    8.73
   7  -4  10   11.30   11.07
  -7   4 -10   12.34    8.26
  -7  -4 -10   21.78    9.83
   7  -4  11   36.94   11.63
  -7   4 -11   15.64    9.64
   7  -4  12   18.26   11.79
   7  -5 -14    5.62   10.76
   7  -5 -13   51.20   12.16
  -7   5  13   36.53   11.16
  -7  -5  12   34.96   12.68
   7  -5 -12   39.65   11.49
   7  -5 -12   21.57   11.23
  -7   5  12   24.02    9.99
  -7  -5  12   25.98   10.61
   7  -5 -11   36.03   10.53
   7  -5 -11   21.28   11.69
  -7   5  11   24.85    9.33
   7  -5 -10    2.66    9.67
   7  -5 -10   13.54   10.02
  -7   5  10   -0.83    8.67
   7  -5 -10   13.05   11.24
  -7  -5   9    5.19    9.51
   7  -5  -9    2.66    9.86
   7  -5  -9   18.06   10.61
   7  -5  -9    4.85   10.64
  -7   5   9    7.44    8.87
   7  -5  -9   17.82   10.40
  -7  -5   9    4.75    9.27
  -7  -5   8    6.32   10.20
   7  -5  -8   -7.10   11.13
   7  -5  -8   18.85    9.59
   7  -5  -8   20.43   10.65
  -7   5   8    0.83    8.33
   7  -5  -8   18.51    9.89
  -7  -5   8   10.14    8.96
  -7  -5   7  104.96   12.18
   7  -5  -7   95.42   13.58
   7  -5  -7  102.31   13.78
   7  -5  -7  112.90   13.62
  -7  -5   7  109.19   12.63
  -7  -5   6   12.56    8.59
  -7   5   6   15.12    9.35
   7  -5  -6   11.23   10.61
   7  -5  -6   29.39   10.91
  -7  -5   6   15.60    8.53
  -7  -5   5   27.91    3.98
  -7  -5   5   37.47    8.98
  -7   5   5   36.46    9.16
   7  -5  -5   26.95   10.75
  -7  -5   5   33.49    9.42
   7  -5  -5   23.58   10.12
   7  -5  -4   62.69   11.61
   7  -5  -4   73.91   10.66
  -7  -5   4   96.09   10.42
  -7   5   4   57.55   10.54
  -7  -5   4   80.07    9.23
   7  -5  -4   77.28   12.33
  -7  -5   4   65.22    9.99
   7  -5  -4   65.85   11.56
   7  -5  -3    5.08    9.92
   7  -5  -3   -0.63    8.19
  -7  -5   3    1.15    7.42
  -7   5   3    0.87    8.85
  -7  -5   3    4.49    7.01
  -7  -5   3   -0.77    7.59
   7  -5  -3   -7.24   10.61
   7  -5  -3   -2.54    9.91
   7  -5  -2   50.07   11.64
  -7  -5   2   61.80    9.64
  -7  -5   2   74.70   10.33
  -7  -5   2   69.58   10.03
   7  -5  -2   72.01   10.34
  -7   5   2   96.56   11.82
   7  -5  -2   64.75   12.55
  -7  -5   1  117.43   11.43
  -7  -5   1  118.96   10.75
   7  -5  -1  102.76   11.03
   7  -5  -1  122.06   11.38
   7  -5  -1  108.35   14.16
  -7  -5   1  117.13   11.31
  -7  -5   1  108.16   11.42
  -7   5   1  118.26   13.07
  -7  -5   0   -4.57    7.06
  -7  -5   0    5.08    8.21
   7  -5   0    3.63    8.28
   7  -5   0    1.80   11.54
   7  -5   0   12.39    8.26
  -7  -5   0   -0.57    8.15
  -7  -5   0   -0.67    6.85
   7  -5   1   40.00   10.42
  -7  -5  -1   32.31    7.29
  -7  -5  -1   22.42    7.80
   7  -5   1   23.64    7.86
  -7  -5  -1   26.54    9.30
  -7  -5  -1    6.89    8.22
   7  -5   1   34.82    9.01
  -7  -5  -1   14.77    7.48
   7  -5   2   43.97   10.37
  -7   5  -2   35.74    9.43
  -7  -5  -2   31.22    6.70
   7  -5   2   46.11    8.56
   7  -5   2   24.79    8.74
   7  -5   2   27.95    8.78
  -7  -5  -2   41.61    7.62
  -7  -5  -2   33.91    8.29
   7  -5   3   23.68   10.34
  -7  -5  -3   19.43    6.86
  -7   5  -3    9.51    8.11
  -7  -5  -3   23.89    7.94
   7  -5   3   34.31    8.90
  -7  -5  -3   22.04    6.45
   7  -5   3   22.32    8.00
  -7  -5  -3   10.84    8.15
   7  -5   4   62.21   11.52
  -7  -5  -4   47.63    7.23
  -7  -5  -4   61.50   10.06
  -7   5  -4   47.60   11.28
   7  -5   4   43.94    9.25
  -7  -5  -4   37.33    7.87
   7  -5   4   51.95    9.59
  -7  -5  -4   15.00    8.35
   7  -5   5   50.45   12.16
  -7   5  -5   33.34   10.52
  -7  -5  -5   13.43    7.32
  -7  -5  -5   20.00    8.72
   7  -5   5   22.51    8.25
  -7  -5  -5   29.31    8.78
  -7  -5  -5   14.66    7.13
  -7  -5  -5   28.24    9.30
   7  -5   6   12.80   11.24
  -7  -5  -6   16.90    9.02
  -7  -5  -6    6.07    7.96
  -7   5  -6    1.91    9.21
  -7  -5  -6   23.08    8.65
   7  -5   7   26.90   13.30
  -7   5  -7   12.52    9.98
   7  -5   7   16.33    8.36
  -7  -5  -7   -0.61    9.47
  -7   5  -8   -5.82    9.49
  -7   6   8   -1.94   10.93
   7  -6  -7   19.09   13.68
  -7   6   7    3.91   11.11
  -7  -6   6   10.91    9.73
  -7  -6   6   26.74   11.51
  -7   6   6    3.94   10.78
  -7  -6   5   -2.76   10.33
  -7  -6   5    5.23   10.32
  -7  -6   5    1.98   10.69
   7  -6  -5    9.23   13.35
  -7   6   5    3.98   10.18
  -7   6   4   23.14   10.67
  -7  -6   4   18.37    9.65
  -7  -6   4   16.26   10.49
   7  -6  -4   26.57   14.96
  -7   6   3    9.18   10.78
  -7  -6   3   -3.75    8.83
  -7  -6   3   -1.33    9.37
  -7  -6   3   10.30   10.36
  -7  -6   3    3.69    9.48
   7  -6  -3   -2.30   10.21
   7  -6  -2   15.85   10.67
  -7  -6   2   14.91    8.74
  -7   6   2   13.46   10.03
   7  -6  -2   30.89   10.71
  -7  -6   2   32.02   10.51
  -7  -6   2   12.38   10.08
  -7  -6   2   18.84   11.00
  -7  -6   1    3.42    8.41
  -7  -6   1   10.42   10.68
  -7  -6   1    9.31    9.13
  -7  -6   0   -4.38    8.54
  -7  -6   0    2.16   10.66
   7  -6   0    1.42   10.03
  -7  -6   0   -0.71   11.58
  -7  -6   0   12.17    9.92
  -7  -6  -1  -10.52    9.54
   7  -6   1    3.48    9.79
  -7  -6  -1   -3.58    9.74
  -7  -6  -1    4.64    8.97
  -7  -6  -1   -4.93    9.68
  -7  -6  -1    6.68   11.69
  -7  -6  -2    8.05    8.02
  -7  -6  -2   -6.67   11.24
  -7  -6  -2    8.54    9.12
  -7  -6  -2    4.84    9.68
  -7  -6  -2   18.35   13.05
  -7  -6  -2    1.50   10.53
  -7  -6  -3   -2.17   10.39
  -7  -6  -3    2.35   11.49
  -7  -6  -3   -4.86   10.23
  -7  -6  -3    0.74   10.62
  -7  -6  -4   26.05   10.62
  -7  -6  -4   30.00   11.86
  -7  -6  -4   25.56   11.29
  -8   0  20   24.58   10.29
  -8   0  20   11.98   10.50
  -8   0  20    6.27   11.52
  -8   0  19    7.67    8.91
  -8   0  19   -3.51   10.28
  -8   0  18   34.51    9.73
  -8   0  18   33.67    9.86
  -8   0  17   12.09    7.46
  -8   0  17    0.56    8.71
  -8   0  16    6.22    7.09
  -8   0  16    4.33    7.88
  -8   0  15    2.87    6.51
  -8   0  15    2.63    8.47
  -8   0  15   -5.29    8.71
  -8   0  14  163.77   12.66
  -8   0  14  179.28   13.92
  -8   0  14  154.32   14.15
   8   0 -14  178.34   12.00
   8   0 -13   -3.91    6.67
  -8   0  13    4.34    6.57
  -8   0  13   -5.40    7.89
  -8   0  13   -0.58    7.85
  -8   0  12  274.39   17.22
  -8   0  12  261.83   16.55
  -8   0  12  277.42   17.91
   8   0 -12  272.83   16.71
   8   0 -11   -1.25    6.64
  -8   0  11   -5.13    5.68
  -8   0  11    1.38    8.03
  -8   0  11   -4.95    7.40
  -8   0  10    3.51    5.09
   8   0 -10   -3.64    6.11
  -8   0  10   -0.45    7.34
  -8   0  10    8.63    6.90
  -8   0   9   -3.08    5.11
  -8   0   9   -2.15    6.72
  -8   0   9    0.83    7.07
   8   0  -9    0.78    5.80
  -8   0   8  824.98   42.66
  -8   0   8  865.05   41.42
  -8   0   8  868.10   42.36
  -8   0   7   -3.35    5.21
  -8   0   7   -5.43    3.86
  -8   0   6  511.29   26.09
   8   0  -5    2.94    2.94
   8   0  -5    8.80    5.22
  -8   0   5   -4.88    4.37
   8   0  -4  446.21   21.94
  -8   0   4  378.82   22.07
   8   0  -4  413.43   20.61
  -8   0   4  415.33   20.76
   8   0  -3    1.26    3.49
   8   0  -3    4.11    4.81
  -8   0   3   -8.36    5.54
  -8   0   3   -0.52    2.66
  -8   0   2   47.11    5.33
   8   0  -2   46.89    6.14
  -8   0   2   45.17    6.40
   8   0  -1    2.02    4.88
  -8   0   1    1.61    3.81
  -8   0   1    6.78    5.21
  -8   0   1    2.34    3.81
   8   0   0  298.98   16.10
  -8   0   0  295.53   16.36
  -8   0   0  287.81   15.70
  -8   0   0  298.82   15.37
   8   0   1   -2.61    5.01
  -8   0  -1  -10.65    4.55
  -8   0  -1    0.34    2.27
  -8   0  -1   -0.84    3.88
   8   0   2 1439.01   67.79
  -8   0  -2 1445.57   66.94
  -8   0  -2 1406.29   68.15
  -8   0  -2 1430.11   68.15
  -8   0  -3    6.86    4.65
  -8   0  -3   -2.35    5.07
   8   0   3   -1.19    5.26
  -8   0  -4    0.58    4.26
  -8   0  -4    0.74    5.48
   8   0   4    4.34    4.84
   8   0   5    3.05    4.81
  -8   0  -5   -0.80    5.38
  -8   0  -5    2.76    3.75
   8   0   6  282.55   14.16
   8   0   6  240.35   12.86
  -8   0  -6  279.63   14.17
   8   0   7    2.44    4.07
   8   0   7    7.18    2.86
  -8   0  -7   -1.14    3.25
   8   0   8  599.27   28.92
  -8   0  -8  604.72   29.00
   8   0   8  599.54   29.22
   8   0   9    0.40    2.14
   8   0   9    1.18    2.41
   8   0  10    0.28    2.71
   8   0  11    7.23    5.31
   8   0  12   52.64    9.86
   8   0  12   44.00    7.07
   8   0  13    8.22    9.14
   8   0  14   68.67   12.24
   8   0  15   11.17   10.70
  -8   1  21   -0.97   13.07
  -8  -1  21    1.85   10.74
  -8  -1  21    7.35   10.72
  -8  -1  20   12.02    9.56
  -8   1  20    4.70   13.08
  -8  -1  20   -1.80   10.90
  -8  -1  20    5.26    9.45
  -8   1  20   -7.32   10.96
  -8   1  20    8.67   10.12
  -8  -1  19    8.18    9.85
  -8   1  19    6.06    9.95
  -8   1  19    9.93   12.73
  -8  -1  19    5.28    9.98
  -8   1  19    5.22   10.71
  -8  -1  19    0.83    9.09
  -8   1  19   11.41   11.47
  -8  -1  18   -6.24    8.72
  -8   1  18   -2.45    9.95
  -8  -1  18   11.43   10.04
  -8   1  18   11.51   10.19
   8  -1 -17   87.25   10.08
  -8   1  17   87.28   12.17
  -8  -1  17   92.10   11.49
  -8   1  17  106.66   12.17
   8  -1 -16   -3.21    6.94
  -8   1  16    1.43    8.50
  -8   1  16    3.99   11.37
  -8  -1  16   -6.56    8.43
  -8   1  16    1.84    9.26
  -8  -1  16    8.81    8.32
   8  -1 -15   -8.63    7.26
  -8   1  15   -8.03    8.66
  -8   1  15   38.16   10.05
  -8  -1  15   16.44    8.60
  -8   1  15   19.82    9.50
  -8  -1  15   12.31    7.98
   8  -1 -14    0.45    6.61
  -8   1  14  -10.55    8.14
  -8   1  14   14.60    8.89
  -8  -1  14   -1.03    8.27
  -8   1  14   12.95    9.38
  -8  -1  14   12.28    8.13
  -8   1  14   10.81    8.68
  -8   1  13   37.29    8.57
   8  -1 -13   36.60    7.32
  -8  -1  13   26.75    8.68
  -8   1  13   38.26    9.32
  -8   1  13   45.38    9.40
  -8  -1  13   51.33    9.46
  -8   1  13   45.95    9.33
  -8   1  12   46.05    8.40
   8  -1 -12   46.55    8.42
  -8  -1  12   49.41    8.49
  -8   1  12   80.68   11.02
  -8   1  12   50.89   10.00
  -8  -1  12   59.31   10.00
  -8   1  12   56.75    9.13
   8  -1 -11  798.10   39.09
  -8  -1  11  735.40   39.32
  -8   1  11  705.36   39.90
  -8   1  11  742.87   40.55
   8  -1 -11  889.57   40.73
  -8  -1  11  786.72   39.86
  -8   1  11  774.32   40.31
   8  -1 -10    7.77    6.21
  -8  -1  10    6.53    6.68
   8  -1 -10    9.89    8.45
  -8  -1  10    5.20    7.76
  -8   1  10    8.41    8.48
  -8   1  10   -4.87    7.30
  -8  -1   9  132.46   10.70
   8  -1  -9  135.51   10.60
  -8   1   9  167.23   12.97
  -8  -1   9  134.52   11.38
   8  -1  -9  143.85   11.60
  -8   1   9  146.30   11.43
   8  -1  -8   65.09    7.98
  -8  -1   8   84.52    9.04
   8  -1  -8   72.88    8.55
  -8   1   8   61.72    9.31
  -8   1   8   69.18    8.73
  -8   1   7  494.70   28.54
   8  -1  -7  560.61   26.82
  -8  -1   7  545.67   27.68
   8  -1  -7  547.18   27.56
  -8   1   7  522.22   28.45
  -8   1   7  506.97   27.89
   8  -1  -6  725.06   34.38
  -8   1   6  602.39   35.86
   8   1  -6  728.27   33.38
  -8   1   6  721.72   36.16
  -8  -1   6  757.55   35.04
   8  -1  -6  675.53   34.77
  -8   1   6  683.41   35.56
   8   1  -6  682.41   35.24
  -8  -1   5  787.57   40.55
  -8   1   5  839.16   41.22
   8   1  -5  829.66   39.40
  -8  -1   5  890.49   40.15
   8  -1  -5  813.31   39.50
   8  -1  -5  822.58   39.92
  -8   1   5  802.15   40.46
   8   1  -5  799.95   40.53
  -8  -1   4  163.66   11.56
   8  -1  -4  185.84   11.95
   8  -1  -4  164.60   10.24
   8  -1  -4  183.16   10.80
  -8   1   4  196.63   12.22
   8   1  -4  179.43    9.91
  -8  -1   4  222.98   10.99
   8  -1  -4  185.65   11.00
   8   1  -4  178.13   11.57
  -8  -1   3  136.61    9.70
   8  -1  -3  124.09    9.56
  -8  -1   3  129.46    7.44
   8  -1  -3  126.86    8.49
  -8   1   3  124.96    9.91
   8   1  -3  128.82    7.20
  -8  -1   3  142.81    8.06
   8  -1  -3  129.23    8.18
  -8   1   3  117.06   10.06
   8   1  -3  117.21    9.19
   8  -1  -2   82.39    5.38
  -8  -1   2   79.43    5.60
  -8  -1   2   83.62    7.50
   8  -1  -2   93.28    7.95
  -8  -1   2   83.38    5.50
   8  -1  -2   83.23    5.99
   8   1  -2   76.25    7.42
   8  -1  -2   94.51    6.81
  -8   1   2   64.63    8.10
  -8  -1   1 1416.26   66.32
   8  -1  -1 1338.58   66.45
   8  -1  -1 1436.88   65.22
   8  -1  -1 1414.15   66.28
  -8  -1   1 1365.64   65.56
  -8   1   1 1421.30   67.14
  -8  -1   1 1388.69   64.58
   8  -1  -1 1393.86   65.44
   8   1  -1 1365.81   66.17
  -8  -1   0  433.50   22.29
   8  -1   0  402.17   22.62
  -8   1   0  467.35   23.31
   8  -1   0  422.63   21.20
   8   1   0  435.58   22.14
  -8   1  -1   68.57    5.77
   8   1   1   74.38    5.79
  -8   1  -1   80.33    6.83
  -8  -1  -1   74.32    6.16
   8  -1   1   87.67    6.86
   8  -1   2  258.20    9.34
  -8  -1  -2  263.86    8.07
  -8   1  -2  245.62    8.76
   8  -1   2  259.71    7.26
  -8  -1  -2  218.12    3.65
  -8   1  -2  240.36    9.98
  -8   1  -2  257.47    7.25
   8   1   2  253.07    7.43
   8   1   3    0.37    3.60
   8  -1   3    7.12    3.63
  -8   1  -3   -9.91    6.04
  -8   1  -3   -0.96    3.93
   8   1   3   -1.74    3.55
  -8  -1  -3   -0.45    4.47
   8   1   4   16.10    3.52
   8   1   4   15.86    4.38
  -8   1  -4   14.01    5.07
   8  -1   4   19.29    3.97
  -8   1  -4   28.26    5.87
   8  -1   4   21.77    6.29
  -8  -1  -4    6.03    4.40
   8  -1   5 1165.78   55.67
  -8   1  -5 1229.57   55.43
   8  -1   5 1175.45   54.49
  -8  -1  -5 1114.75   54.40
   8   1   5 1100.83   55.42
  -8   1  -5 1170.21   56.18
   8   1   6   46.52    6.70
  -8   1  -6   43.56    5.96
   8  -1   6   43.55    4.20
  -8  -1  -6   34.59    2.67
  -8  -1  -6   30.90    2.87
   8  -1   6   53.28    7.06
  -8   1  -6   51.78    6.38
   8  -1   7  114.64    8.64
   8   1   7  102.94    9.04
   8  -1   7   95.68    6.10
  -8  -1  -7   88.93    5.43
  -8   1  -7   92.47    8.03
  -8   1  -7  101.19    8.35
  -8   1  -8   13.26    5.08
   8   1   8   13.91    6.39
  -8   1  -8   17.24    6.62
  -8   1  -8   14.24    5.78
   8  -1   8    8.91    2.59
  -8  -1  -8    6.64    2.73
   8  -1   8    9.29    5.87
   8  -1   8   11.70    6.43
   8   1   9    1.04    6.21
  -8   1  -9   -1.63    6.27
   8  -1   9    1.96    1.99
  -8   1  -9   -1.78    4.48
  -8  -1  -9    4.37    3.26
   8  -1   9   13.25    5.72
   8  -1   9    8.18    7.12
  -8   1  -9    7.98    6.04
  -8   1 -10   30.58    7.06
   8   1  10   39.83    8.84
  -8   1 -10   34.14    7.77
  -8  -1 -10   31.39    4.33
   8  -1  10   47.97    6.70
  -8   1 -10   25.91    5.20
   8  -1  10   36.87    7.57
   8   1  11   90.83   10.92
  -8   1 -11   92.28   10.57
  -8  -1 -11   94.39    7.29
  -8   1 -11  121.24   10.20
   8  -1  11  107.02    8.64
   8  -1  11  104.75    9.55
   8   1  12   13.20    8.24
  -8   1 -12    6.53    8.41
  -8   1 -12    8.00    7.56
  -8  -1 -12    6.83    4.43
   8  -1  12    1.67    7.56
  -8   1 -13   23.58    9.56
  -8   1 -13   16.61    7.70
   8   1  13   11.32    9.25
  -8   1 -14    9.78    8.79
   8   1  14   -4.08   10.36
   8   1  15   -0.88   10.95
  -8  -2  20    9.03   12.38
  -8  -2  20    0.99   10.34
  -8   2  20  -11.17   13.92
  -8   2  19   20.82   10.11
   8  -2 -19   -2.85    7.09
  -8  -2  19   -4.10   10.78
  -8   2  19   -4.32   14.93
  -8  -2  19    3.79    9.63
   8   2 -19   12.22    9.86
  -8   2  19    2.28   12.74
  -8   2  18   -5.05   11.37
  -8  -2  18    3.99    9.75
   8  -2 -18    9.47    7.39
  -8   2  18   -1.04   13.79
   8   2 -18   21.83    9.76
  -8  -2  18    8.08    9.24
  -8  -2  18   28.08   12.92
  -8   2  18   -2.18   12.77
  -8   2  17   11.05   13.70
   8   2 -17    7.16    3.79
  -8  -2  17   18.68   10.24
   8   2 -17   13.84    8.58
  -8  -2  17   18.67    9.20
  -8  -2  17   18.18   11.37
   8  -2 -17   12.02    7.62
  -8   2  17   -3.61   10.61
   8  -2 -16   33.24    7.57
   8   2 -16   35.48    3.77
  -8  -2  16   32.78    9.75
  -8   2  16   24.13   12.90
   8   2 -16   29.51    8.78
  -8  -2  16   50.93   11.85
  -8  -2  16   23.18    8.03
  -8   2  16    5.01   11.36
   8  -2 -15   -0.93    6.96
   8   2 -15    0.45    2.18
  -8  -2  15    2.39    8.78
  -8   2  15   -4.62   11.47
   8   2 -15    0.61    7.42
   8  -2 -15   14.62   10.75
  -8  -2  15    5.94   10.53
  -8  -2  15    2.26    7.22
  -8   2  15   -4.23   11.43
   8  -2 -14   18.97    7.55
  -8  -2  14   17.13    8.32
   8   2 -14   13.24    7.02
  -8  -2  14   48.15   11.27
   8  -2 -14   32.51    9.84
  -8   2  14   14.12   10.52
  -8   2  14   10.57   10.40
  -8   2  14   11.06   10.31
  -8  -2  13   -0.55    8.86
   8  -2 -13   12.09    7.45
  -8   2  13    2.52    9.92
   8   2 -13   -5.40    7.56
   8  -2 -13    2.01    8.97
  -8   2  13  -12.83   10.39
  -8   2  13    0.83    8.87
  -8   2  12    4.79   10.28
   8  -2 -12   13.47    7.56
   8   2 -12   18.35    6.61
   8   2 -12   14.97    7.71
   8  -2 -12   37.35    9.71
  -8  -2  12   28.39    8.64
  -8   2  12   13.81    9.75
  -8   2  12   28.56    9.17
  -8  -2  11    0.50    7.72
   8  -2 -11    1.82    7.25
  -8   2  11   -3.79    9.33
   8   2 -11    1.38    6.56
   8   2 -11    4.31    5.63
   8  -2 -11    6.10    8.43
  -8   2  11  -12.15    9.44
  -8   2  11   -2.15    8.13
   8   2 -10  100.14    8.40
   8  -2 -10  106.03    9.58
  -8  -2  10   85.67    9.71
  -8   2  10   89.50   12.15
   8  -2 -10   93.12    9.81
   8   2 -10   91.65    9.04
   8  -2 -10   86.59    9.99
  -8   2  10   95.37   11.98
  -8   2  10   75.12   10.97
   8  -2  -9  224.80   15.21
   8   2  -9  234.64   13.16
  -8   2   9  215.14   16.88
   8  -2  -9  226.94   14.66
   8   2  -9  217.27   14.00
   8  -2  -9  228.31   15.27
  -8   2   8  169.30   13.71
   8   2  -8  153.70    9.63
   8  -2  -8  158.49   11.27
   8   2  -8  144.78   10.58
   8  -2  -8  144.28   12.08
   8  -2  -8  152.07   11.99
   8  -2  -7  257.48   16.75
   8  -2  -7  271.51   15.99
   8   2  -7  251.31   15.09
   8  -2  -7  259.42   16.39
  -8   2   7  294.45   17.77
   8   2  -7  283.11   14.41
  -8   2   6   24.42    7.36
   8  -2  -6   -1.91    5.33
  -8  -2   6   14.36    6.00
   8   2  -6    1.35    4.70
   8  -2  -6    3.87    7.04
   8  -2  -6   11.29    6.23
  -8  -2   5  212.38   13.51
  -8   2   5  205.67   14.19
   8  -2  -5  211.81   13.33
  -8  -2   4  159.09   10.82
  -8  -2   4  150.74    7.91
   8  -2  -4  168.43   11.59
   8  -2  -4  155.92   11.01
  -8  -2   3  807.07   38.98
   8  -2  -3  733.27   39.56
   8  -2  -3  808.98   38.94
   8  -2  -3  807.45   39.51
   8  -2  -3  779.41   39.08
  -8  -2   2  253.20   14.20
   8  -2  -2  250.39   15.35
  -8  -2   2  215.52   11.79
   8  -2  -2  231.19   13.92
   8  -2  -2  260.07   14.71
   8  -2  -2  223.04   14.29
  -8   2   2  258.18   15.60
   8  -2  -2  254.86   13.31
  -8  -2   1  416.82   21.65
   8  -2  -1  424.44   20.90
   8  -2  -1  408.98   22.70
  -8  -2   1  417.96   20.06
   8  -2  -1  405.36   21.66
   8  -2  -1  397.23   22.09
  -8   2   1  435.58   23.25
  -8  -2   1  384.87   19.70
   8  -2   0   12.69    4.77
   8  -2   0    5.91    5.54
  -8  -2   0    7.22    5.59
   8  -2   0    5.09    5.88
  -8  -2   0   10.29    2.97
  -8   2   0    2.67    7.07
   8  -2   0   16.18    7.45
  -8  -2  -1  249.06   14.92
   8  -2   1  245.89   15.41
  -8  -2  -1  271.32   13.10
  -8   2  -1  238.59   16.36
  -8  -2  -1  263.98   13.56
   8  -2   1  242.51   15.99
  -8  -2  -2  289.51   14.90
   8  -2   2  256.73   16.61
   8  -2   2  217.79   15.17
   8  -2   2  235.99   14.10
  -8  -2  -2  261.37   13.05
  -8   2  -2  268.86   16.54
  -8  -2  -2  271.48   13.38
  -8  -2  -3  272.96   14.72
   8  -2   3  244.83   15.88
  -8  -2  -3  274.75   14.37
   8  -2   3  261.13   14.58
  -8  -2  -3  276.22   13.77
   8  -2   3  253.50   16.78
  -8   2  -3  280.50   17.03
  -8  -2  -4   82.22    6.32
  -8  -2  -4   62.44    5.13
   8  -2   4   55.89    7.63
   8  -2   4   65.94    6.22
  -8  -2  -4   85.14    5.82
  -8   2  -4   72.75    8.42
   8  -2   4   68.49    9.69
  -8  -2  -5    3.50    1.95
  -8   2  -5    0.44    6.15
  -8   2  -5    4.08    5.64
   8  -2   5   -4.26    6.56
  -8   2  -5    0.53    5.47
  -8  -2  -5    0.72    2.85
   8  -2   5   -2.40    7.74
  -8   2  -6    7.98    6.02
  -8   2  -6   -1.57    5.68
   8  -2   6   -2.43    7.74
  -8   2  -6   -5.35    6.01
  -8   2  -7    2.69    5.99
  -8   2  -7    2.52    6.56
  -8   2  -7   -8.37    5.92
   8  -2   7  -11.75    7.98
  -8   2  -8   67.48    8.09
  -8   2  -8   89.82    8.57
  -8   2  -8   74.47    9.15
   8  -2   8   81.21   10.01
  -8   2  -9   29.29    6.92
  -8   2  -9   22.50    8.13
  -8   2  -9   22.21    6.10
   8  -2   9   28.08    7.70
  -8   2 -10   32.03    8.56
  -8   2 -10   25.21    7.37
  -8   2 -10   19.96    6.47
   8  -2  10   35.18    7.96
  -8   2 -11   16.34    9.33
  -8   2 -11   14.78    7.40
  -8   2 -11   17.65    6.12
   8  -2  11   27.36    9.11
  -8   2 -12    6.92    9.11
  -8   2 -12    4.67    8.37
   8  -2  12    6.69    9.21
  -8   2 -13   33.52    9.26
   8  -3 -18    7.51    8.42
  -8  -3  18   13.08   11.82
  -8  -3  18    7.08   11.28
   8   3 -18    1.38    9.98
  -8   3  17   -0.76    9.70
  -8  -3  17   17.30   12.20
  -8  -3  17   -0.96    9.31
   8  -3 -17   17.15    8.47
   8   3 -17   10.62    9.75
  -8  -3  17   20.69   14.11
   8   3 -17    5.85    8.44
  -8  -3  16   21.98   11.23
   8  -3 -16   10.15    7.88
   8   3 -16   16.51   10.00
   8   3 -16   15.91    8.90
  -8   3  16   16.57    9.77
  -8  -3  16   10.98    9.12
  -8  -3  15   24.93   10.97
   8  -3 -15   22.40    8.89
  -8  -3  15   26.22    8.81
   8   3 -15   18.94    8.80
   8   3 -15   33.29    8.95
  -8   3  15   14.94    9.63
   8  -3 -15   20.59   10.42
  -8  -3  14   -0.69   10.16
  -8   3  14    7.35    9.84
   8  -3 -14    3.16    8.18
   8   3 -14    8.57    7.34
   8   3 -14    9.52    8.26
  -8  -3  14    5.00    7.74
   8  -3 -14    8.31    9.50
   8   3 -13   84.89    9.92
  -8   3  13   85.95   11.31
  -8  -3  13   81.31   11.94
   8  -3 -13   78.39   10.36
   8   3 -13  107.36   10.99
  -8  -3  13   76.53   10.78
   8  -3 -13  118.21   11.95
   8  -3 -12   93.31   11.15
  -8   3  12   82.09   11.57
   8  -3 -12   75.54    9.98
  -8  -3  12   95.92   11.85
   8   3 -12   71.26    9.77
  -8  -3  12   79.52   10.15
   8  -3 -12   85.88   10.91
   8   3 -12   85.72    8.98
   8  -3 -11   55.54    8.55
  -8  -3  11   47.68    9.87
  -8   3  11   40.19    9.37
   8  -3 -11   27.05    7.59
   8   3 -11   26.12    8.25
  -8  -3  11   27.14    7.88
   8   3 -11   38.93    6.92
   8  -3 -11   30.41    9.43
   8  -3 -10   11.57    6.98
   8   3 -10   12.37    6.00
   8  -3 -10   19.57    8.70
   8  -3 -10   22.19    8.57
  -8   3  10   16.31    8.60
  -8   3   9   24.69    9.61
   8  -3  -9   22.62    8.87
   8  -3  -9   17.24    7.63
   8  -3  -9    6.38    8.29
  -8  -3   8   19.86    7.78
   8  -3  -8    9.87    6.54
  -8   3   8   21.11    8.72
   8  -3  -8   26.41    9.18
  -8  -3   8   13.70    6.62
   8  -3  -8   28.51    7.71
  -8  -3   7  404.57   22.46
   8  -3  -7  380.87   22.27
   8  -3  -7  369.63   22.28
  -8   3   7  384.77   23.29
  -8  -3   7  379.89   22.61
   8  -3  -7  409.67   22.71
   8  -3  -6  693.48   36.43
   8  -3  -6  692.47   36.62
  -8  -3   6  688.75   36.66
  -8   3   6  690.44   37.14
   8  -3  -6  680.56   36.24
  -8  -3   6  746.71   36.16
  -8  -3   5  168.11   12.32
   8  -3  -5  164.04   13.36
  -8   3   5  144.57   13.26
   8  -3  -5  181.62   13.42
  -8  -3   5  170.08   12.31
   8  -3  -5  159.52   12.33
  -8  -3   4  157.19   10.85
  -8   3   4  110.72   11.71
   8  -3  -4  122.00   11.40
  -8  -3   4  123.74   10.70
   8  -3  -4  113.09   10.55
  -8  -3   3   57.46    8.30
   8  -3  -3   62.87    9.17
  -8  -3   3   62.55    7.10
  -8  -3   3   66.49    7.94
  -8  -3   3   59.36    5.93
   8  -3  -3   52.14    8.18
  -8  -3   2   24.65    7.13
  -8  -3   2   24.72    4.81
   8  -3  -2   22.63    7.63
  -8  -3   2   29.59    5.94
  -8  -3   2   26.16    6.36
   8  -3  -2   17.90    6.70
   8  -3  -2   22.55    9.04
  -8  -3   1  265.70   16.11
   8  -3  -1  282.39   16.17
   8  -3  -1  262.28   17.98
   8  -3  -1  271.19   17.73
  -8  -3   1  296.79   15.61
  -8  -3   1  265.85   16.27
  -8   3   1  280.61   18.08
  -8  -3   1  282.35   15.26
  -8  -3   0  459.90   24.02
   8  -3   0  456.62   24.17
  -8  -3   0  468.69   24.00
   8  -3   0  457.10   25.68
  -8  -3   0  451.95   24.24
   8  -3   0  435.56   25.91
  -8  -3   0  463.29   23.52
  -8   3   0  453.36   25.93
  -8  -3  -1  167.33   11.25
   8  -3   1  174.11   11.66
  -8  -3  -1  165.69   11.45
   8  -3   1  152.40   13.05
  -8  -3  -1  172.36   10.68
  -8  -3  -1  161.33   10.89
  -8   3  -1  167.44   13.12
   8  -3   1  153.66   13.47
  -8  -3  -2  132.55    9.57
  -8  -3  -2  125.89    9.04
  -8  -3  -2  147.50    9.80
   8  -3   2  114.82   10.14
   8  -3   2  115.69   11.51
  -8  -3  -2  127.67    8.98
   8  -3   2  136.08    9.56
  -8   3  -2  118.54   11.36
   8  -3   2  109.07   12.37
  -8  -3  -2   97.25    9.18
  -8  -3  -3  147.88    9.99
  -8  -3  -3  142.03    9.58
   8  -3   3  142.76    9.97
  -8  -3  -3  144.10   10.07
  -8   3  -3  153.03   12.57
   8  -3   3  122.57   12.83
  -8  -3  -4   14.32    5.54
   8  -3   4   10.39    5.43
  -8  -3  -4   21.13    5.54
  -8   3  -4   12.18    7.15
  -8  -3  -4   11.73    4.11
   8  -3   4    0.61    9.83
  -8  -3  -5   13.01    4.06
  -8  -3  -5   13.94    4.69
   8  -3   5   18.81    6.34
  -8  -3  -5   10.05    3.49
  -8  -3  -5    4.70    6.21
  -8   3  -5    6.81    7.30
   8  -3   5   -3.10   10.12
  -8   3  -6   50.60    8.03
  -8  -3  -6   29.19    3.28
  -8  -3  -6   50.26    7.22
   8  -3   6   33.21    9.18
  -8   3  -7   96.04   10.03
  -8  -3  -7   97.59    9.24
   8  -3   7   75.56   10.83
  -8   3  -8   11.58    6.79
  -8   3  -8   -1.60    7.11
  -8  -3  -8    7.43    7.57
   8  -3   8   -3.23    9.87
  -8   3  -9   61.45    9.42
  -8   3  -9   59.58    9.30
   8  -3   9   52.16   10.35
  -8   3 -10   42.79    9.29
  -8   3 -10   54.54    8.62
   8  -3  10   39.53   10.00
  -8   3 -11    5.02    8.32
  -8   3 -11    4.80    7.45
   8  -3  11   -5.96   10.29
  -8   3 -12    9.90    9.67
   8   4 -17   27.20   11.50
   8  -4 -16   22.04   10.19
  -8   4  16   34.20   10.98
   8   4 -16   15.36    9.79
  -8  -4  15   22.21    9.57
  -8  -4  15   28.06   13.03
   8  -4 -15   -0.59    9.34
   8   4 -15    4.62    9.04
  -8   4  15  -14.69    9.96
  -8  -4  14   15.64   12.55
  -8  -4  14   -0.97    8.59
   8   4 -14    9.87    8.31
   8  -4 -14    2.92    9.32
  -8   4  14   -6.51   10.65
   8  -4 -14    4.10   11.31
   8  -4 -13   12.61   10.31
  -8  -4  13   -0.79   10.91
  -8  -4  13   -0.93    8.60
  -8   4  13  -10.49   10.07
   8  -4 -13    9.92    9.85
   8  -4 -13    5.50   10.14
  -8  -4  12    9.14   10.21
  -8  -4  12    4.48    7.87
   8  -4 -12   23.79    9.98
  -8   4  12    2.39   10.12
   8  -4 -12   22.44    9.82
   8  -4 -12    6.09    9.82
  -8   4  11   -0.79   10.18
   8  -4 -11    4.78    8.92
   8  -4 -11   14.82   10.06
   8  -4 -11   23.08    9.13
   8  -4 -10   73.12   11.35
  -8   4  10   47.61   10.78
   8  -4 -10   71.40   10.81
   8  -4 -10   68.23   11.38
  -8  -4   9   14.83    9.09
   8  -4  -9   16.44    8.34
  -8  -4   9   25.88    8.30
  -8   4   9   21.62    8.78
   8  -4  -9   29.72    9.35
   8  -4  -9   46.59    9.78
  -8  -4   8   -0.61    8.15
   8  -4  -8   -9.38    9.10
  -8   4   8   13.01    8.54
  -8  -4   8    2.35    7.09
   8  -4  -8   13.57    9.77
   8  -4  -8   15.65    8.70
  -8  -4   7    8.63    8.16
  -8  -4   7   11.33    6.86
  -8   4   7   19.02    8.60
   8  -4  -7   28.02    9.66
   8  -4  -7   20.17    9.26
  -8  -4   6   29.13    8.04
   8  -4  -6   14.35    7.97
  -8  -4   6   14.66    7.48
  -8   4   6   24.30    8.46
   8  -4  -6   23.42    9.40
   8  -4  -6   27.40    8.90
  -8  -4   5    0.51    7.72
   8  -4  -5   19.73    8.18
  -8   4   5   12.97    7.64
  -8  -4   5    3.72    7.31
  -8  -4   5    2.80    6.37
   8  -4  -5   13.65    9.23
   8  -4  -5    3.32    7.69
  -8  -4   4   40.68    6.72
  -8  -4   4   47.95    8.13
   8  -4  -4   36.16    8.91
  -8   4   4   35.95    8.57
  -8  -4   4   54.68    7.70
  -8  -4   4   44.87    7.89
   8  -4  -4   35.29    9.67
   8  -4  -4   29.85    8.36
  -8  -4   3   70.59    8.65
  -8  -4   3   64.35    7.20
   8  -4  -3   63.47   10.21
   8  -4  -3   58.68    8.52
  -8  -4   3   62.47    8.14
  -8   4   3   77.16    9.86
  -8  -4   3   62.28    8.57
   8  -4  -3   52.91    9.89
  -8  -4   2   84.63    9.15
  -8  -4   2   75.36    8.22
   8  -4  -2   83.71    9.49
  -8  -4   2   83.97    8.03
  -8  -4   2   94.51    8.61
   8  -4  -2   72.62   11.05
   8  -4  -2   73.82    8.91
  -8  -4   1    2.08    6.92
  -8  -4   1    5.22    6.19
   8  -4  -1   12.45    7.42
   8  -4  -1    0.53    6.44
   8  -4  -1  -10.41    8.72
  -8  -4   1    6.94    6.24
  -8  -4   1    3.38    6.06
   8  -4  -1    1.40    9.38
  -8  -4   0   32.78    6.69
  -8  -4   0   28.21    7.00
  -8  -4   0   25.44    7.21
   8  -4   0   30.46    7.19
  -8  -4   0   35.10    7.42
   8  -4   0   17.04    9.49
  -8  -4   0   27.65    6.74
  -8   4   0   31.12    8.23
   8  -4   0   46.38    8.02
   8  -4   0   34.19   10.32
   8  -4   1   -1.93    6.76
  -8  -4  -1   -2.31    6.24
  -8  -4  -1    2.39    6.14
   8  -4   1    1.06    6.62
   8  -4   1   -4.31    8.55
  -8  -4  -1    3.96    5.97
  -8   4  -1   -6.46    7.63
  -8  -4  -1   -8.23    5.91
   8  -4   1    0.72    9.58
  -8  -4  -2    9.87    6.56
  -8  -4  -2    0.73    5.62
   8  -4   2    2.69    6.88
  -8  -4  -2   -2.86    6.43
   8  -4   2    5.91    6.29
  -8  -4  -2    2.87    5.01
  -8   4  -2    3.27    8.48
  -8  -4  -2    0.49    6.81
   8  -4   2  -18.97   10.73
   8  -4   3   31.83   11.03
  -8  -4  -3   38.22    7.48
  -8  -4  -3   37.83    6.62
   8  -4   3   37.92    7.93
   8  -4   3   37.47    7.07
  -8  -4  -3   38.14    6.33
  -8   4  -3   44.66    9.12
  -8  -4  -3   11.92    6.65
  -8  -4  -4  136.60   10.04
   8  -4   4  127.83   13.66
  -8  -4  -4  158.02   11.80
   8  -4   4  120.25   10.81
  -8  -4  -4  139.61   11.02
  -8  -4  -4  123.05    9.98
  -8   4  -4  123.99   13.39
   8  -4   5   14.41   10.00
  -8   4  -5   20.06    9.12
  -8  -4  -5   32.86    6.56
  -8  -4  -5   13.99    6.88
  -8  -4  -5   22.15    5.83
   8  -4   5   20.09    6.36
  -8  -4  -5   32.53    7.35
   8  -4   6   25.24    9.61
  -8   4  -6   47.72    9.97
  -8  -4  -6   29.14    5.41
  -8  -4  -6   31.07    6.68
  -8  -4  -6   22.28    5.25
   8  -4   6   37.29    7.55
  -8  -4  -6   33.28    7.61
   8  -4   7   15.52    9.91
  -8  -4  -7   28.25    7.93
   8  -4   8    0.79   11.67
  -8   4  -8    6.66    8.17
  -8  -4  -8   13.49    8.68
   8  -4   9  -12.05   12.84
  -8   4  -9   16.82    9.07
   8  -4  10   62.94   14.14
  -8   4 -10   33.82    9.97
  -8   4 -11   -0.84    9.32
   8  -4  11  -19.06   14.67
   8  -5 -14    3.99   12.70
  -8   5  14    9.77   10.91
   8  -5 -13   18.99   11.67
  -8   5  13   18.67   10.60
   8  -5 -12   32.40   11.29
  -8   5  12   18.62   10.01
   8  -5 -11   16.24   11.10
   8  -5 -11   -4.17   11.63
  -8   5  11   18.56   11.61
   8  -5 -11    0.89   12.14
  -8  -5  10   40.24   11.06
  -8  -5  10   57.39   12.35
   8  -5 -10   53.40   12.76
   8  -5 -10   41.58   13.20
  -8   5  10   47.53   10.98
   8  -5 -10   65.18   12.51
  -8  -5   9   22.49   10.18
  -8  -5   9   29.77   10.19
   8  -5  -9   13.33   10.87
   8  -5  -9   35.88   10.99
   8  -5  -9   28.63   11.76
  -8   5   9   10.53    9.75
   8  -5  -9   29.59   11.06
  -8  -5   8   57.89   10.39
  -8  -5   8   53.56   11.19
   8  -5  -8   58.88   12.05
   8  -5  -8   57.42   11.77
   8  -5  -8   34.26   11.26
  -8  -5   7   28.50    9.36
  -8  -5   7   46.09   10.88
  -8   5   7   28.11    9.88
   8  -5  -7   49.10   12.26
   8  -5  -7   28.51   10.92
  -8  -5   6   48.01    9.89
   8  -5  -6   39.77   10.57
  -8   5   6   61.00   10.43
   8  -5  -6   65.53   12.18
   8  -5  -6   85.86   12.46
  -8  -5   6   45.35   10.06
  -8  -5   5   32.89    9.25
  -8  -5   5   19.81    3.17
   8  -5  -5   39.96   10.56
  -8  -5   5   41.32    8.55
  -8   5   5   14.27    8.82
   8  -5  -5   19.61   10.72
   8  -5  -5   15.87   10.36
  -8  -5   5   39.38    9.26
  -8  -5   4   43.67    8.96
   8  -5  -4   25.27   10.01
   8  -5  -4   44.47   10.11
  -8  -5   4   37.69    9.41
  -8  -5   4   39.47    8.39
  -8   5   4   54.94   10.82
   8  -5  -4   38.62   10.99
  -8  -5   4   36.15    9.29
   8  -5  -4   34.39   10.19
  -8  -5   3    2.69    7.77
   8  -5  -3   11.81   10.45
  -8  -5   3   -1.13    7.82
   8  -5  -3   -2.53    8.28
  -8  -5   3    8.28    7.65
  -8   5   3   -4.56    8.42
   8  -5  -3   -0.82   10.63
  -8  -5   3    3.14    7.63
   8  -5  -3    5.89    9.81
  -8  -5   2  119.73   12.00
   8  -5  -2  116.75   12.53
   8  -5  -2  162.00   15.30
  -8  -5   2  161.21   12.56
  -8  -5   2  159.93   12.65
  -8   5   2  179.68   15.12
  -8  -5   2  137.17   13.09
  -8  -5   1   14.67    7.21
  -8  -5   1   16.73    7.87
   8  -5  -1   17.35    8.39
   8  -5  -1    6.94   10.59
   8  -5  -1   20.04    8.81
  -8  -5   1   16.97    8.73
  -8  -5   1   19.10    8.05
  -8  -5   0   50.62    8.67
   8  -5   0   47.21    9.60
  -8  -5   0   31.46    7.55
   8  -5   0   20.11    7.92
   8  -5   0   35.61   11.88
  -8  -5   0   62.97    9.34
  -8  -5   0   46.82    8.55
  -8  -5   0   65.29    9.28
   8  -5   0   32.76   12.00
  -8  -5  -1   23.41    7.88
  -8  -5  -1   19.51    7.66
   8  -5   1   27.43    8.83
   8  -5   1   25.35    9.19
   8  -5   1   26.15   11.10
  -8  -5  -1   31.57    8.83
  -8  -5  -1   29.82    8.54
  -8  -5  -1   41.61    7.93
  -8   5  -1   33.80    9.72
   8  -5   1   25.34   11.47
  -8   5  -2    6.82    8.90
  -8  -5  -2   -3.50    7.03
   8  -5   2   -1.25    8.26
  -8  -5  -2    2.40    6.68
   8  -5   2   -2.74   11.00
   8  -5   2    3.97    8.07
  -8  -5  -2   -1.59    7.39
  -8  -5  -2    3.57    6.45
  -8  -5  -2    2.45    8.77
  -8  -5  -2   -0.61    7.70
   8  -5   2  -15.02   12.60
   8  -5   3   28.65   12.39
  -8   5  -3   51.19   11.44
  -8  -5  -3   38.60    8.13
  -8  -5  -3   40.86    7.59
  -8  -5  -3   38.54    8.72
   8  -5   3   34.55    8.58
  -8  -5  -3   34.18    7.44
  -8  -5  -3   25.32    8.33
   8  -5   4   67.69   13.44
  -8  -5  -4   86.05   11.37
  -8   5  -4   69.23   11.62
  -8  -5  -4   79.24    8.63
  -8  -5  -4   64.37    9.08
   8  -5   4   83.82   10.61
  -8  -5  -4   63.74    9.84
   8  -5   5   -4.57   13.48
  -8  -5  -5   28.68   10.58
  -8   5  -5    1.97    9.99
  -8  -5  -5   -5.60    8.07
   8  -5   5    2.25    7.78
  -8  -5  -5    7.47    7.49
   8  -5   6   -6.44   11.94
  -8   5  -6   15.79   10.43
   8  -5   6   11.87    7.93
   8  -5   7   16.43    8.62
  -8  -6   5    5.52   10.16
  -8  -6   5   40.27   11.18
  -8  -6   5   15.13   11.46
  -8  -6   4   -5.25    9.54
  -8  -6   4   -4.35   10.25
  -8  -6   4   -8.72    9.88
  -8  -6   3   -7.52    9.64
  -8  -6   3    5.73    9.53
  -8  -6   3   10.15   10.24
  -8  -6   2   -2.39    9.04
  -8  -6   2    2.82    9.84
  -8  -6   2   -0.66    9.63
  -8  -6   2    3.52    9.91
  -8  -6   1   14.92    9.17
  -8  -6   1   34.54   11.06
  -8  -6   1   23.42   11.06
  -8  -6   1   45.70   10.83
  -8  -6   0    6.07    9.59
  -8  -6   0   -6.98    9.46
  -8  -6   0   10.19   10.23
  -8  -6   0   -3.18    9.56
  -8  -6  -1   14.92    8.85
  -8  -6  -1    8.28    9.04
  -8  -6  -1   35.36    9.77
  -8  -6  -1   24.58   11.36
  -8  -6  -1   -1.45   10.86
  -8  -6  -1   33.03   11.91
  -8  -6  -2   -7.78   11.58
  -8  -6  -2   -8.86   11.44
  -9   0  20    0.81   10.26
  -9   0  19    6.79    8.85
  -9   0  19    6.88   10.04
  -9   0  18    4.93    8.17
  -9   0  18   11.57   10.57
  -9   0  18   -5.64   10.16
  -9   0  17   85.88   10.89
  -9   0  17  118.42   13.00
  -9   0  17  100.00   12.26
  -9   0  16    8.50    7.51
  -9   0  16    9.28    9.29
  -9   0  16   -0.71    8.81
  -9   0  15   73.34    9.07
  -9   0  15   56.80   10.52
   9   0 -14    1.44    7.07
  -9   0  14    1.03    6.78
  -9   0  14   -2.51    8.83
  -9   0  13  305.14   19.36
  -9   0  13  273.22   17.78
  -9   0  13  329.04   19.65
   9   0 -13  306.93   18.13
   9   0 -12   -4.10    7.32
  -9   0  12    3.39    5.80
  -9   0  12   -3.10    8.01
  -9   0  12   -1.09    7.79
  -9   0  11   25.62    6.38
   9   0 -11   36.90    7.69
  -9   0  11   20.54    8.77
  -9   0  11   28.63    8.29
  -9   0  10    4.86    8.10
  -9   0  10   -1.03    5.64
   9   0 -10   -6.11    7.08
  -9   0  10   -4.15    7.72
  -9   0   9  612.79   30.60
  -9   0   9  615.28   28.99
  -9   0   9  612.89   30.24
  -9   0   8   -0.27    4.18
  -9   0   8    9.17    8.04
  -9   0   8   -3.44    6.55
   9   0  -7  935.68   44.12
  -9   0   7  907.61   45.25
   9   0  -6    3.43    5.97
   9   0  -6    2.86    3.48
  -9   0   6   10.02    5.19
   9   0  -5   75.05    6.26
   9   0  -5   85.09    8.13
  -9   0   5   80.25    9.00
  -9   0   5   85.64    6.56
   9   0  -4    7.92    5.96
   9   0  -4    1.81    3.89
  -9   0   4    5.27    6.30
  -9   0   4   -1.11    3.77
   9   0  -3 1313.89   62.91
  -9   0   3 1293.23   63.24
  -9   0   3 1293.98   62.60
  -9   0   3 1329.42   61.63
   9   0  -2    2.35    6.05
  -9   0   2    3.44    4.59
  -9   0   2    6.06    6.28
   9   0  -1   49.10    6.72
  -9   0   1   40.79    5.30
  -9   0   1   58.16    5.68
  -9   0   1   59.87    7.37
  -9   0   0    0.58    4.58
   9   0   0    3.41    6.19
  -9   0   0   -6.67    4.30
  -9   0   0    2.93    6.47
  -9   0  -1    5.96    2.42
  -9   0  -1   12.27    4.75
  -9   0  -1    1.79    6.75
  -9   0  -2    5.17    4.94
  -9   0  -2    0.76    2.92
  -9   0  -2    0.34    4.97
   9   0   2   -2.01    5.52
   9   0   3  230.90   14.00
  -9   0  -3  244.45   12.82
  -9   0  -3  242.48   14.46
  -9   0  -3  238.60   14.11
  -9   0  -4    4.03    5.96
   9   0   4    2.39    5.48
  -9   0  -4   -5.65    4.94
  -9   0  -4    0.88    4.19
   9   0   5  182.87   11.38
  -9   0  -5  180.13   12.81
  -9   0  -5  192.16   11.50
  -9   0  -6   -4.21    6.36
   9   0   6    5.20    4.97
  -9   0  -6    2.32    3.96
   9   0   7  119.19    8.00
  -9   0  -7  103.26   10.21
  -9   0  -7  125.31    7.99
   9   0   8    0.33    3.39
  -9   0  -8   -5.89    6.91
  -9   0  -8    2.43    2.77
   9   0   8   -2.29    2.66
   9   0   9    2.75    2.25
   9   0  11   91.49   10.66
   9   0  11   52.89    6.39
   9   0  12    4.21    8.61
   9   0  13   89.63   12.83
   9   0  14   12.98   12.43
  -9  -1  21   -0.94   11.64
  -9   1  20  -13.45   11.87
  -9   1  20    8.71   13.13
  -9  -1  20   -3.18    9.62
  -9  -1  20    3.83   11.46
  -9   1  20   -0.71   11.12
  -9  -1  20   -1.79    9.82
  -9  -1  19    3.69    8.50
  -9  -1  19    8.69   10.22
  -9  -1  19  -13.63   11.45
  -9   1  19    7.73   10.72
  -9  -1  18   21.18    8.30
  -9   1  18   21.50    9.46
  -9  -1  18   10.91    9.97
  -9  -1  18   15.92   10.75
  -9   1  18   37.12   11.12
   9  -1 -17   23.65    7.88
  -9   1  17   18.67    8.66
  -9   1  17   36.15   11.90
  -9  -1  17   21.20    9.77
  -9  -1  17   34.07    8.16
  -9   1  17   62.10   11.04
  -9  -1  17   25.04   10.22
  -9   1  17   41.43   10.53
   9  -1 -16   42.91    8.09
  -9   1  16   40.55   10.10
  -9   1  16   62.02   11.18
  -9  -1  16   32.16    9.73
  -9   1  16   62.18   11.16
  -9  -1  16   38.61    9.99
  -9   1  16   53.13   10.98
  -9   1  15    2.61    7.60
  -9   1  15   26.19    9.79
  -9  -1  15    5.03    8.90
   9  -1 -15    9.83    7.27
  -9   1  15    4.53    9.08
  -9  -1  15   18.09    8.97
  -9   1  15   -0.77    8.42
   9  -1 -14    1.92    7.10
  -9   1  14   -6.67    7.51
  -9   1  14   -0.76    9.45
  -9  -1  14    1.63    8.71
  -9   1  14   17.75    9.32
  -9  -1  14   -0.61    8.61
  -9   1  14   12.37    8.78
   9  -1 -13    4.69    7.10
  -9   1  13   25.45    9.27
  -9   1  13   31.60   10.31
  -9  -1  13   12.09    8.44
  -9  -1  13    7.35    8.55
  -9   1  13   19.80    8.39
   9  -1 -12  721.86   37.99
  -9  -1  12  704.57   38.46
  -9   1  12  782.64   39.68
  -9   1  12  746.55   39.91
  -9  -1  12  786.88   39.06
  -9   1  12  746.59   39.42
   9  -1 -11   81.09    9.31
  -9  -1  11   57.65   10.11
   9  -1 -11   75.45   10.66
  -9  -1  11   84.49   10.57
  -9   1  11  106.40   11.99
  -9   1  11   87.57   10.00
   9  -1 -10   17.73    7.82
  -9  -1  10   21.60    8.03
   9  -1 -10   34.43    9.17
  -9  -1  10   26.28    8.41
  -9   1  10   39.40    9.63
  -9   1  10   16.07    7.40
   9   1 -10    9.60    2.21
   9   1  -9    4.98    1.87
   9  -1  -9    5.67    6.65
   9  -1  -9   16.85    8.24
  -9  -1   9   16.89    6.99
  -9   1   9   18.32    9.07
  -9   1   9   14.35    7.09
   9  -1  -8   69.30    8.96
  -9   1   8   96.25   10.07
  -9  -1   8   80.13    9.08
   9  -1  -8  100.20    9.57
  -9   1   8   66.31    9.69
  -9   1   8   62.85    8.88
   9   1  -7  119.51    9.08
   9  -1  -7   85.64    7.13
  -9   1   7   67.35    9.71
  -9  -1   7   92.88    8.77
   9  -1  -7   74.47    8.51
  -9   1   7   87.15   10.24
  -9   1   7   79.11    9.20
   9   1  -6 2019.25   94.14
  -9  -1   6 1980.73   96.41
   9  -1  -6 2113.79   95.29
  -9   1   6 2183.97   97.39
   9   1  -6 2160.98   95.32
  -9  -1   6 2082.92   95.79
   9  -1  -6 1940.35   95.83
  -9  -1   6 1989.22   94.34
  -9   1   6 1931.96   96.21
   9   1  -6 2030.48   96.44
   9   1  -5   -9.98    6.41
   9  -1  -5    0.88    3.58
  -9   1   5    0.46    6.48
   9  -1  -5    5.03    4.40
  -9  -1   5    0.39    6.02
   9  -1  -5    7.63    6.49
   9   1  -5    5.59    3.58
  -9  -1   5   16.64    4.91
   9  -1  -5    6.80    4.81
   9  -1  -4   77.87    5.99
   9  -1  -4   75.79    6.96
   9   1  -4   71.37    8.10
  -9   1   4   68.46    8.24
  -9  -1   4   83.70    8.34
   9   1  -4   70.59    5.44
   9  -1  -4   91.69    8.31
  -9  -1   4   97.97    6.60
   9  -1  -4   77.79    6.61
  -9   1   4   72.56    8.93
   9   1  -3    8.90    6.39
   9  -1  -3    4.49    4.58
  -9   1   3   -0.84    5.54
  -9  -1   3   10.01    6.41
   9   1  -3    3.54    2.64
   9  -1  -3    4.05    5.66
  -9  -1   3    4.93    3.41
   9  -1  -3    4.37    2.89
   9  -1  -3    4.14    4.12
  -9  -1   3    7.26    3.37
  -9   1   3   -7.17    7.40
  -9  -1   2  337.29   18.08
   9  -1  -2  297.44   17.83
   9  -1  -2  331.57   15.77
  -9   1   2  299.31   18.47
  -9  -1   2  314.69   16.24
   9  -1  -2  320.41   17.18
  -9  -1   2  320.16   15.34
   9  -1  -2  304.03   16.11
   9   1  -2  261.50   17.42
  -9  -1   1  207.50   13.89
   9  -1  -1  223.06   14.35
  -9  -1   1  235.47   12.91
   9  -1  -1  224.98   13.40
  -9   1   1  251.53   14.98
   9  -1  -1  244.33   12.15
   9   1  -1  196.73   13.47
   9  -1   0 1418.65   66.20
  -9  -1   0 1299.18   65.74
  -9   1   0 1425.81   66.89
   9  -1   0 1404.04   64.63
  -9  -1   0 1433.24   65.50
   9   1   0 1290.18   65.68
   9  -1   1  213.71   13.53
  -9  -1  -1  243.28   13.02
  -9   1  -1  222.86   12.66
  -9  -1  -1  225.64   10.92
  -9   1  -1  210.64   13.64
   9  -1   1  176.23   10.34
   9  -1   1  214.95   11.02
   9   1   1  210.47   12.54
   9  -1   2  155.54   11.01
  -9  -1  -2  169.44   10.18
  -9   1  -2  146.52   10.30
  -9  -1  -2  128.72    7.17
  -9   1  -2  153.64   11.25
   9   1   2  165.33    9.52
  -9  -1  -3  120.88    8.77
  -9   1  -3  124.73    9.47
  -9   1  -3  109.76   10.15
   9  -1   3  121.22   10.03
  -9   1  -3  113.99    8.44
   9   1   3  109.90    7.91
   9  -1   4  612.58   32.49
   9   1   4  652.38   31.71
  -9  -1  -4  648.47   31.53
  -9   1  -4  687.22   33.26
  -9   1  -4  592.95   32.81
  -9   1  -4  686.21   32.03
   9   1   4  629.86   31.12
  -9   1  -5  340.78   17.54
   9  -1   5  342.80   18.06
   9   1   5  297.72   17.32
  -9  -1  -5  303.35   16.39
  -9   1  -5  322.27   18.29
   9   1   6    6.40    5.35
  -9   1  -6    9.69    5.52
  -9  -1  -6    1.38    2.36
   9  -1   6    8.98    6.64
  -9   1  -6    4.68    5.68
   9   1   7   66.35    7.24
   9  -1   7   65.62    7.19
  -9   1  -7   65.90    6.66
  -9   1  -7   67.37    6.88
  -9   1  -8   -1.62    4.57
   9   1   8   -1.38    6.20
  -9   1  -8   -1.97    5.99
   9  -1   8    1.91    5.98
   9  -1   8   -0.28    1.07
   9   1   9   -3.09    6.74
  -9   1  -9   -1.15    7.09
  -9   1  -9    1.12    4.64
  -9  -1  -9    2.69    2.33
  -9   1  -9   -0.43    5.99
   9  -1   9   -1.53    5.92
   9  -1   9    0.30    5.10
   9  -1  10  175.10   10.54
  -9   1 -10  156.64   11.44
  -9   1 -10  134.97   12.76
  -9  -1 -10  130.17    7.95
   9   1  10  145.62   12.30
   9   1  11   22.10    8.67
  -9   1 -11   25.38    9.12
  -9  -1 -11   11.01    3.56
   9  -1  11   19.06    6.95
  -9   1 -11   31.04    7.80
   9   1  12   13.13    8.72
  -9   1 -12   17.91    9.43
  -9   1 -12   20.96    8.27
   9   1  13   -0.75   10.35
  -9   1 -13   11.51    8.30
   9   1  14    2.43   10.93
  -9   1 -14    0.61    8.64
  -9  -2  20    8.70   12.83
  -9  -2  20   -8.11   11.10
  -9   2  19   -7.13   12.44
   9  -2 -19   -5.15    8.84
  -9   2  19    1.12   14.01
  -9  -2  19    0.96    9.80
  -9  -2  19   10.73   12.62
   9  -2 -18   15.97    7.91
  -9  -2  18   17.52   10.68
  -9   2  18    5.42   13.17
   9   2 -18   20.34   10.52
  -9  -2  18   21.94    9.55
  -9  -2  18   29.70   12.79
  -9   2  18   11.94   13.64
   9   2 -17   49.05   11.12
   9  -2 -17   41.53    9.41
  -9  -2  17   56.41   11.56
  -9   2  17   50.26   14.26
  -9  -2  17   49.29   12.39
  -9  -2  17   48.40   10.48
   9  -2 -16    9.75    8.03
  -9  -2  16   20.42   10.63
  -9   2  16   12.10   12.78
   9   2 -16    3.27    8.44
  -9  -2  16    3.94   10.31
  -9   2  16    7.96   10.73
  -9   2  16   -4.71   11.89
   9  -2 -15   35.40    8.36
  -9  -2  15   33.49    9.48
  -9   2  15   32.92   12.74
   9   2 -15   28.82    8.51
   9  -2 -15   24.94   10.89
  -9  -2  15   31.33   11.40
  -9   2  15    4.63   11.24
  -9   2  15   35.81   11.79
   9  -2 -14   43.66    8.20
  -9  -2  14   48.52   10.43
  -9   2  14   46.37   12.47
   9   2 -14   41.70    9.54
  -9  -2  14   43.58   10.85
   9  -2 -14   46.79   11.48
  -9   2  14   21.22   11.39
  -9   2  14   51.58   11.52
  -9  -2  13    4.06    8.59
   9  -2 -13    7.09    7.65
  -9   2  13   -6.20    9.89
   9   2 -13   13.23    6.45
   9   2 -13    1.08    7.08
  -9  -2  13   32.42   10.25
   9  -2 -13   14.35   10.49
  -9   2  13   -0.74   10.14
  -9   2  13    5.02    9.96
  -9  -2  12  112.44   11.26
   9  -2 -12  114.46   10.88
  -9   2  12   94.41   13.13
   9   2 -12  106.94   10.42
   9   2 -12  108.36    8.96
   9  -2 -12  109.19   11.77
  -9   2  12  100.50   13.44
  -9   2  12  101.52   12.30
  -9  -2  11  123.84   11.08
   9  -2 -11  103.22   10.70
  -9   2  11   94.44   12.71
   9   2 -11   93.89    9.93
   9   2 -11  101.57    8.73
   9  -2 -11  134.75   11.94
  -9   2  11   91.39   13.24
  -9   2  11  112.93   12.35
   9  -2 -10   41.14    8.57
   9   2 -10   53.85    7.18
   9  -2 -10   61.62    7.87
   9  -2 -10   50.03    9.16
   9   2 -10   41.27    6.16
  -9   2  10   32.06   10.94
  -9   2  10   23.63    8.99
   9  -2  -9   45.51    7.37
   9   2  -9   28.78    5.49
   9  -2  -9   33.00    8.72
   9   2  -9   36.64    6.61
   9  -2  -9   40.59    8.34
  -9   2   9   17.18   10.17
   9  -2  -8   -0.40    5.83
  -9   2   8  -14.62    9.51
   9  -2  -8   11.70    7.73
   9   2  -8   -5.40    5.65
   9   2  -8    0.45    4.01
   9  -2  -8    4.05    7.60
  -9   2   8  -23.01    9.70
  -9   2   7   17.93    8.49
   9  -2  -7   20.89    5.84
  -9  -2   7   30.53    7.34
  -9   2   7    9.94    8.00
   9   2  -7   20.41    5.71
   9  -2  -7   24.73    8.02
   9  -2  -7   15.77    7.61
  -9   2   6   72.89    9.55
  -9  -2   6   59.12    8.02
   9   2  -6   47.70    6.14
   9  -2  -6   46.12    7.60
   9  -2  -6   52.67    7.00
  -9  -2   5   21.17    7.16
   9  -2  -5   30.23    6.58
  -9  -2   4  223.59   13.77
   9  -2  -4  212.37   14.68
   9  -2  -4  217.82   13.18
  -9  -2   4  203.89   10.78
   9  -2  -4  227.43   13.32
  -9  -2   3  106.53    6.45
  -9   2   3  106.20   10.81
   9  -2  -3  110.42    8.88
  -9  -2   3  118.04    7.02
  -9  -2   3  106.54    9.38
   9  -2  -3  116.49    9.18
   9  -2  -3  131.36   10.71
   9  -2  -3  103.81    7.97
   9  -2  -2  195.25   11.19
  -9  -2   2  196.73   12.71
   9  -2  -2  239.86   13.79
  -9  -2   2  174.14    9.62
   9  -2  -2  175.25   12.16
   9  -2  -2  198.49   12.70
  -9   2   2  199.36   13.67
   9  -2  -2  185.15   12.12
  -9   2   1   13.73    7.05
  -9  -2   1    5.93    2.21
   9  -2  -1   10.38    4.60
   9  -2  -1   10.49    5.36
  -9  -2   1   -9.87    6.71
   9  -2  -1   23.27    7.10
   9  -2  -1   23.09    7.36
   9  -2  -1    3.07    5.52
  -9  -2   0  370.59   20.17
   9  -2   0  373.49   21.25
   9  -2   0  347.56   20.42
   9  -2   0  373.32   20.76
  -9   2   0  385.92   22.00
   9  -2   1   82.05    8.55
   9  -2   1   86.73    8.63
  -9   2  -1   82.13    9.98
  -9  -2  -1   72.52    8.49
  -9  -2  -1   77.96    5.25
   9  -2   1  102.72    9.94
  -9  -2  -2  638.52   29.53
   9  -2   2  654.49   31.32
   9  -2   2  639.86   30.28
   9  -2   2  568.83   28.69
  -9  -2  -2  561.66   27.44
  -9   2  -2  647.38   31.72
  -9  -2  -2  566.23   27.61
   9  -2   3   85.29    8.15
   9  -2   3   79.76    6.27
  -9   2  -3   93.91    9.10
  -9  -2  -3   77.01    7.26
  -9  -2  -3   60.27    4.42
   9  -2   3  104.35    9.42
  -9  -2  -4   75.24    5.52
   9  -2   4   49.17    7.61
   9  -2   4   82.38    6.52
  -9   2  -4   73.77    8.77
  -9  -2  -4   72.70    6.45
   9  -2   4   98.25   10.12
  -9  -2  -5   12.81    2.50
  -9   2  -5   12.46    5.90
   9  -2   5   14.07    5.82
  -9   2  -5   13.60    6.30
   9  -2   5   15.19    7.56
  -9   2  -6   65.64    7.79
   9  -2   6   55.16    7.21
  -9   2  -6   53.14    7.44
   9  -2   6   58.60    9.54
  -9   2  -6   68.63    8.32
  -9   2  -7   44.99    8.01
   9  -2   7   24.15    6.63
  -9   2  -7   46.41    7.23
   9  -2   7   48.03    8.69
  -9   2  -7   34.69    7.94
  -9   2  -8   99.44    9.16
  -9   2  -8   77.96    9.46
   9  -2   8   87.80    7.91
   9  -2   8   73.40    9.42
  -9   2  -8   80.98    9.09
  -9   2  -9   32.81    8.94
   9  -2   9   21.95    6.22
  -9   2  -9   37.00    7.01
  -9   2  -9   31.64    7.74
  -9   2 -10   21.03    7.40
  -9   2 -10   16.80    8.88
  -9   2 -10   23.82    6.61
   9  -2  10   22.78    8.76
  -9   2 -11   17.37    8.37
  -9   2 -11   19.82    9.75
   9  -2  11   26.65    8.68
  -9   2 -11   21.03    6.77
  -9   2 -12   10.10    8.54
  -9   2 -13   12.64    8.74
  -9   3  18    9.21   11.96
  -9  -3  18    0.81   11.84
  -9  -3  18    3.08   10.98
   9  -3 -18    6.55    9.50
   9   3 -18    1.32    9.40
  -9   3  17   23.45   10.89
   9  -3 -17   15.88    8.34
  -9  -3  17   39.31   12.93
  -9  -3  17   17.67    9.76
   9   3 -17   10.63    9.80
   9   3 -17    7.52    9.48
  -9  -3  17   28.36   14.11
   9  -3 -17   13.21   14.40
  -9   3  16   36.70   11.73
  -9  -3  16   45.02   12.56
   9  -3 -16   36.41   10.07
   9   3 -16   25.96    8.95
  -9  -3  16   16.91    9.21
   9   3 -16   15.79   10.00
   9  -3 -16   25.06   12.08
   9   3 -15    6.09    7.84
  -9   3  15   19.01   10.28
  -9  -3  15    6.65   10.04
   9   3 -15    2.03    8.98
  -9  -3  15   -0.90    8.08
   9  -3 -15    7.89    8.97
   9  -3 -15   18.40   11.89
  -9  -3  14   58.48   11.45
   9  -3 -14   27.79    9.35
   9   3 -14   30.35    9.26
  -9  -3  14   29.28    8.47
   9   3 -14   51.39    8.37
   9  -3 -14   59.90   11.35
  -9   3  14   48.87   11.63
  -9   3  13   19.19   10.30
  -9  -3  13   18.54    9.47
   9  -3 -13   14.54    8.62
   9   3 -13    8.34    7.69
  -9  -3  13    6.62    7.23
   9  -3 -13   24.19    9.79
   9   3 -13   15.62    6.48
   9  -3 -12   34.22    8.48
  -9   3  12   32.87   10.77
  -9  -3  12   27.64    9.35
   9  -3 -12   21.42    9.40
   9   3 -12   25.74    8.56
  -9  -3  12   30.20    7.98
   9  -3 -12   25.10    9.65
   9   3 -12   26.53    6.86
   9  -3 -11  102.71   10.47
  -9   3  11  128.53   13.18
   9  -3 -11   97.25   11.43
   9   3 -11  101.20   10.35
   9   3 -11   97.41    9.07
   9  -3 -11  103.59   11.50
   9  -3 -10  126.15   11.69
  -9   3  10  137.36   13.52
   9  -3 -10  108.38   12.27
   9  -3 -10  112.87   12.35
   9   3 -10  128.91    9.84
   9  -3  -9   56.57    7.81
  -9  -3   9   37.56    8.50
  -9   3   9   40.20   10.27
   9  -3  -9   35.24    9.56
  -9  -3   9   27.13    7.72
   9  -3  -9   29.22    9.08
  -9  -3   8  292.27   17.82
   9  -3  -8  261.50   17.71
   9  -3  -8  238.11   16.69
  -9   3   8  303.24   19.49
  -9  -3   8  278.09   18.32
   9  -3  -8  287.06   18.19
  -9  -3   7  148.66   11.94
   9  -3  -7  127.68   11.39
  -9   3   7  125.43   12.71
   9  -3  -7  115.43   12.20
   9  -3  -7  157.20   12.08
  -9  -3   7  145.99   11.89
  -9  -3   6  273.46   17.33
   9  -3  -6  248.12   17.60
  -9   3   6  277.43   18.51
  -9  -3   6  287.42   17.84
   9  -3  -6  273.55   17.40
  -9  -3   5   10.58    7.18
  -9   3   5   -0.70    7.97
  -9  -3   5    5.56    5.70
   9  -3  -5    6.72    7.02
  -9  -3   4  104.78   10.63
   9  -3  -4  129.24   10.83
  -9  -3   4  109.10   10.03
   9  -3  -4  100.11   10.21
  -9  -3   3   13.31    7.35
   9  -3  -3   11.79    6.13
   9  -3  -3   21.48    7.57
   9  -3  -3    9.51    5.94
  -9  -3   3    5.59    5.09
   9  -3  -3    8.02    8.13
   9  -3  -3    8.50    7.30
  -9  -3   2  718.57   34.87
  -9  -3   2  688.60   33.23
   9  -3  -2  696.00   36.38
   9  -3  -2  613.25   34.88
   9  -3  -2  656.11   35.61
  -9  -3   2  687.82   35.43
  -9  -3   2  777.82   34.12
  -9   3   2  662.05   36.70
   9  -3  -2  657.97   35.47
   9  -3  -2  651.43   34.39
  -9  -3   1  384.29   21.69
   9  -3  -1  389.44   21.47
  -9  -3   1  397.48   20.94
   9  -3  -1  404.40   23.67
  -9  -3   1  396.99   22.17
   9  -3  -1  386.38   23.07
  -9  -3   1  399.09   20.69
  -9   3   1  386.96   23.66
  -9  -3   1  420.76   20.43
  -9  -3   0  117.17    8.79
  -9  -3   0  111.28    9.69
  -9  -3   0  118.58    9.02
  -9  -3   0   97.94    7.85
  -9   3   0  104.08   10.80
  -9  -3   0  113.48    8.20
   9  -3   0  103.92    9.21
   9  -3   0  109.38   11.96
   9  -3   0  103.31   10.67
  -9  -3  -1   12.05    5.30
  -9  -3  -1   13.88    4.99
   9  -3   1    4.84    7.62
  -9  -3  -1    3.85    4.40
  -9  -3  -1   16.75    6.81
  -9   3  -1    6.30    7.08
   9  -3   1   -9.13    8.92
  -9  -3  -1    3.26    5.32
  -9  -3  -2    1.11    4.31
  -9  -3  -2    3.78    6.42
   9  -3   2   -6.45    7.63
   9  -3   2   -0.67    5.04
  -9  -3  -2   -0.46    4.43
  -9   3  -2   -4.93    7.62
   9  -3   2   -6.17    8.60
  -9  -3  -2   -4.55    5.02
  -9  -3  -3   23.05    4.87
  -9  -3  -3   21.84    6.77
   9  -3   3    7.07    7.66
  -9  -3  -3   25.15    4.87
   9  -3   3   12.16    5.72
  -9   3  -3   21.92    7.45
  -9  -3  -3   31.16    5.42
   9  -3   3   13.10    9.45
   9  -3   4  100.13    9.98
  -9  -3  -4   86.81    7.13
  -9  -3  -4  102.47    8.04
   9  -3   4   89.50    8.49
  -9  -3  -4   91.70    7.85
  -9   3  -4   78.00   10.49
   9  -3   4   92.10   11.91
  -9  -3  -4   87.41    7.06
  -9  -3  -5  253.51   13.84
  -9  -3  -5  221.51   12.89
   9  -3   5  273.78   17.27
   9  -3   5  300.59   15.46
  -9  -3  -5  275.15   14.82
   9  -3   5  268.49   18.26
  -9  -3  -5  284.27   13.96
  -9   3  -5  297.62   18.40
  -9  -3  -6   37.58    3.14
   9  -3   6   45.27    7.99
  -9  -3  -6   82.05    7.71
   9  -3   6   43.16   10.19
  -9   3  -6   68.07    9.40
  -9   3  -7   30.88    7.98
   9  -3   7   20.81    9.01
  -9   3  -8   37.01    8.36
   9  -3   8   33.44   10.62
  -9   3  -9    5.67    7.56
   9  -3   9    4.62   10.62
  -9   3 -10   -1.83    8.07
  -9   3 -10    8.54    8.28
   9  -3  10    3.96   10.97
  -9   3 -11   12.85    9.96
  -9   3 -11   -5.61    7.91
   9   4 -17    9.23   10.75
   9  -4 -16   10.66   10.94
   9   4 -16   18.17   10.10
  -9   4  16    1.80   12.98
  -9  -4  15    6.99   13.07
  -9  -4  15   -4.11    9.87
   9   4 -15    3.16    8.87
   9  -4 -15   -3.80   10.88
  -9   4  15   11.70   11.10
  -9  -4  14   15.23   11.92
  -9  -4  14   10.90    9.89
  -9   4  14    2.68   11.14
   9  -4 -14   11.86   10.11
   9  -4 -14    4.14   10.22
  -9  -4  13  -11.40   11.44
  -9  -4  13    1.91    8.26
   9  -4 -13    4.35   10.19
   9  -4 -13    8.61    9.86
   9  -4 -13    1.58   10.54
   9  -4 -12   15.27    9.71
   9  -4 -12   12.51    9.85
   9  -4 -12   -3.06   10.58
   9  -4 -11   58.57   10.88
  -9   4  11   44.76   11.54
   9  -4 -11   58.20   11.77
   9  -4 -11   48.33   11.48
  -9  -4  10   -0.71    9.09
   9  -4 -10   12.99    8.62
  -9  -4  10    7.86    8.23
  -9   4  10   12.73    9.81
   9  -4 -10   15.18    9.94
   9  -4 -10    6.54    9.80
   9  -4  -9   -0.71    8.43
  -9  -4   9   11.37    8.95
  -9  -4   9    1.69    7.62
  -9   4   9   -8.38   10.65
   9  -4  -9    7.65    8.88
   9  -4  -9   16.97    8.79
  -9  -4   8   15.21    8.44
  -9  -4   8   17.23    8.00
  -9   4   8   22.36   10.11
   9  -4  -8   31.50    9.50
   9  -4  -8   10.08    9.06
   9  -4  -8   37.56    9.36
  -9  -4   7   80.95   10.17
   9  -4  -7   80.55   10.77
  -9   4   7   77.86   11.34
  -9  -4   7   65.93    9.98
   9  -4  -7   61.99   10.58
   9  -4  -7   65.68   10.54
  -9  -4   6   16.44    8.70
  -9  -4   6   27.48    8.62
   9  -4  -6   31.20    9.37
  -9   4   6   27.68    8.24
   9  -4  -6   27.60    9.38
   9  -4  -6   31.38    9.19
  -9  -4   5  126.73   10.43
  -9  -4   5  122.27   10.62
   9  -4  -5  140.59   11.71
  -9   4   5  150.94   11.99
   9  -4  -5  119.63   11.79
   9  -4  -5  151.74   12.34
  -9  -4   4   72.84    9.71
  -9  -4   4   73.40    9.25
   9  -4  -4   87.97   10.28
   9  -4  -4   74.97   10.22
  -9   4   4   63.54   10.03
  -9  -4   4   77.43    8.84
   9  -4  -4   70.33   10.11
  -9  -4   3   15.50    7.37
  -9  -4   3   14.57    6.86
   9  -4  -3   20.66    9.36
  -9  -4   3   21.06    6.71
  -9  -4   3   26.41    5.75
   9  -4  -3   25.63    7.43
   9  -4  -3   27.56    9.17
   9  -4  -2   -0.49    6.58
  -9  -4   2   -5.08    6.59
  -9  -4   2    5.64    6.21
   9  -4  -2    1.39    9.03
  -9  -4   2    3.21    6.23
  -9  -4   2    7.44    5.24
   9  -4  -2    4.97    9.01
   9  -4  -2   -3.93    9.26
  -9  -4   1   25.73    6.15
  -9  -4   1   27.43    7.37
  -9  -4   1   27.92    7.10
   9  -4  -1   19.56    7.21
   9  -4  -1   31.01    9.96
  -9  -4   1   27.24    7.09
  -9  -4   1   33.72    6.79
   9  -4  -1   28.07    7.23
  -9   4   1   29.82    8.94
   9  -4  -1   15.18    9.40
  -9  -4   0   22.13    6.20
  -9  -4   0    6.79    6.82
   9  -4   0   10.37    9.19
   9  -4   0   15.58    7.55
   9  -4   0   14.52    6.92
  -9  -4   0   11.79    6.22
  -9  -4   0    5.00    6.19
  -9  -4   0   10.70    6.69
  -9   4   0   20.05    8.59
   9  -4   0   20.51   10.16
  -9  -4  -1   -5.04    6.29
  -9  -4  -1    7.31    6.27
   9  -4   1    6.21    6.53
   9  -4   1   -6.30    8.81
  -9  -4  -1    0.37    5.69
   9  -4   1    3.47    6.57
  -9   4  -1   -0.84    8.16
   9  -4   1  -14.10   10.48
  -9  -4  -1   -3.08    5.49
  -9  -4  -2   24.28    7.06
   9  -4   2   21.13    8.05
  -9  -4  -2   29.55    7.03
   9  -4   2   27.62    9.30
   9  -4   2   29.10    6.71
  -9  -4  -2   21.66    6.16
  -9   4  -2    8.51    8.67
  -9  -4  -2   24.21    6.14
   9  -4   2   31.53   11.01
  -9  -4  -2   26.07    6.93
  -9  -4  -3   20.37    6.63
   9  -4   3   14.36    9.72
  -9  -4  -3    9.27    6.11
   9  -4   3   13.21    6.28
  -9  -4  -3   10.84    5.29
  -9  -4  -3    7.93    6.43
  -9   4  -3   19.77    8.92
   9  -4   3    7.60    9.79
  -9  -4  -4    4.81    6.63
   9  -4   4   -5.76    9.06
  -9  -4  -4    3.97    5.72
   9  -4   4    3.13    5.98
  -9  -4  -4    1.56    5.17
  -9  -4  -4    3.38    6.16
   9  -4   4   -7.69   10.79
  -9   4  -4    0.87    8.80
  -9   4  -5    6.08    8.46
  -9  -4  -5    0.34    6.10
   9  -4   5   -5.79    8.49
  -9  -4  -5    7.67    5.16
  -9  -4  -5   -2.94    7.25
   9  -4   5   -2.33   11.97
  -9   4  -6   -5.21    8.38
   9  -4   6    5.15    6.83
  -9  -4  -6   -0.41    7.07
   9  -4   6   -0.79   12.40
  -9   4  -7    1.73    8.72
   9  -4   7  -11.16   12.00
  -9   4  -8   20.67    9.32
   9  -4   8   14.51   11.51
  -9   4  -9   46.70   11.31
   9  -4   9   58.76   13.24
  -9   4 -10    1.74   10.09
   9  -4  10  -13.16   13.92
   9  -5 -14   -3.52   12.03
  -9   5  14   12.48   11.56
   9  -5 -13   22.78   12.31
  -9   5  13   14.36   11.28
   9  -5 -12    3.62   10.90
  -9   5  12    6.67   11.44
  -9  -5  11   22.19   12.78
   9  -5 -11   29.70   11.42
   9  -5 -11   20.32   12.27
  -9   5  11   19.88   10.80
  -9  -5  10   40.72   11.25
  -9  -5  10   51.53   12.07
   9  -5 -10   43.55   11.77
   9  -5 -10   35.25   13.58
  -9   5  10   55.49   11.92
   9  -5 -10   41.70   12.77
  -9  -5   9   -1.02    9.80
  -9  -5   9   -1.52   11.33
   9  -5  -9    5.33   10.99
  -9   5   9    3.74   10.03
   9  -5  -9   25.26   11.74
   9  -5  -9   15.25   10.92
  -9  -5   8   33.53   10.75
  -9  -5   8   38.67   11.00
   9  -5  -8   32.16   11.54
  -9   5   8   44.77   11.83
   9  -5  -8   37.00   12.23
   9  -5  -8   49.80   11.82
  -9  -5   7   87.79   12.43
  -9  -5   7   69.84   11.75
   9  -5  -7   91.03   12.79
  -9   5   7   70.86   11.81
   9  -5  -7   81.01   12.88
   9  -5  -7   54.57   11.83
  -9  -5   6   -2.76    8.41
  -9  -5   6    5.78    8.51
   9  -5  -6   33.46   10.19
  -9   5   6    7.47    9.26
   9  -5  -6   22.61   10.79
   9  -5  -6    4.14   10.48
  -9  -5   5   59.09   11.05
   9  -5  -5   52.94   11.13
  -9  -5   5   51.17   10.12
   9  -5  -5   73.64   12.47
  -9   5   5   43.19   11.10
   9  -5  -5   62.19   12.28
   9  -5  -5   61.09   11.59
  -9  -5   4   16.22    8.57
   9  -5  -4   23.50   10.87
   9  -5  -4   14.43   10.37
  -9   5   4   23.67    9.47
   9  -5  -4   40.94   12.26
   9  -5  -4   23.20   10.91
  -9  -5   4   26.13    9.02
  -9  -5   3   31.16    9.35
   9  -5  -3   30.19   10.03
   9  -5  -3   51.67   12.09
  -9  -5   3   38.20    7.78
  -9  -5   3   36.18    9.01
  -9   5   3   50.60   11.47
   9  -5  -3   24.24   11.49
   9  -5  -3   41.34    9.90
  -9  -5   3   40.02    9.25
   9  -5  -3   35.77   10.53
  -9  -5   2   58.43    9.78
  -9  -5   2   58.73    9.33
   9  -5  -2   67.07   10.38
   9  -5  -2   32.29   11.47
  -9  -5   2   80.92   10.11
  -9  -5   2   56.60   10.12
   9  -5  -2   70.41    9.99
   9  -5  -2   38.46   11.49
  -9  -5   1   48.78    8.76
  -9  -5   1   48.06    7.91
   9  -5  -1   53.64   10.06
  -9  -5   1   54.47    8.55
   9  -5  -1   66.67   12.78
  -9  -5   1   67.98    9.46
  -9  -5   1   52.54    9.29
   9  -5  -1   37.23   11.91
   9  -5  -1   47.01    9.84
  -9  -5   0    6.77    7.34
   9  -5   0   14.53    8.94
   9  -5   0   15.51   11.41
  -9  -5   0   18.89    7.80
   9  -5   0   17.10    8.14
  -9  -5   0    4.65    7.66
  -9   5   0    5.94    9.02
   9  -5   0   -7.90   11.75
  -9  -5   0    7.86    8.18
  -9  -5  -1   37.01    8.39
   9  -5   1   60.62   10.45
   9  -5   1   46.24    9.92
   9  -5   1   28.82   11.44
   9  -5   1   34.81    9.42
  -9  -5  -1   40.36    8.56
  -9  -5  -1   59.33    9.57
  -9  -5  -1   34.16    7.60
   9  -5   1   43.57   12.17
  -9   5  -1   64.17   10.94
  -9  -5  -1   25.32    8.15
  -9  -5  -2    8.22    7.91
  -9  -5  -2    6.33    7.17
  -9  -5  -2    2.94    8.86
   9  -5   2  -12.39   12.23
   9  -5   2    2.23    8.17
  -9  -5  -2   -2.91    7.77
  -9  -5  -2    1.16    5.85
   9  -5   2   -8.10   12.78
  -9  -5  -2   -6.38    7.74
   9  -5   2   15.14    9.68
  -9   5  -2    9.10   10.18
  -9   5  -3   51.91   11.48
  -9  -5  -3   58.39    9.75
  -9  -5  -3   56.12    8.51
   9  -5   3   48.95   10.49
   9  -5   3   48.34   13.97
  -9  -5  -3   39.25    7.90
   9  -5   3   53.91    9.07
  -9  -5  -3   69.67    8.10
  -9  -5  -3   37.83    8.86
   9  -5   3   45.49   12.96
  -9   5  -4   14.31   10.42
   9  -5   4   17.12   11.93
  -9  -5  -4   18.56    7.10
   9  -5   4   22.86    8.17
  -9  -5  -4   16.95    7.73
   9  -5   4   11.95   12.86
  -9   5  -5   18.36   10.76
   9  -5   5   -2.71   12.40
   9  -5   5   12.87    8.20
   9  -5   6   10.86   11.86
   9  -5   6   28.94    9.78
  -9  -6   4   -1.99   10.13
  -9  -6   4   15.76   10.90
  -9  -6   4    5.89   10.52
  -9  -6   3    4.15   11.09
  -9  -6   3   -0.93   10.32
  -9  -6   2    2.46   10.05
  -9  -6   2   34.78   11.10
  -9  -6   2   17.59    9.56
  -9  -6   1   -0.60    9.90
  -9  -6   1    4.61   11.14
  -9  -6   1    6.63   10.48
 -10   0  21    4.86   12.17
 -10   0  20   14.41   10.98
 -10   0  19    4.49    8.86
 -10   0  19    4.65   11.21
 -10   0  19    0.86   11.07
 -10   0  18   36.12    9.30
 -10   0  18   48.09   11.01
 -10   0  18   40.77   11.76
 -10   0  17    7.09    7.99
 -10   0  17   -1.90    9.43
 -10   0  17   -9.21   10.63
 -10   0  16  111.37   13.11
 -10   0  16  105.41   10.57
 -10   0  16  123.15   12.88
  10   0 -15   -4.19    7.56
 -10   0  15   -1.64    6.27
 -10   0  15    1.81    9.66
 -10   0  15   -6.10    9.02
  10   0 -14   82.59    9.91
 -10   0  14  116.38   12.14
 -10   0  14   88.68   11.33
 -10   0  14   89.91    9.25
  10   0 -13   -6.98    7.37
 -10   0  13    5.97    5.91
 -10   0  13   -2.29    8.89
 -10   0  13  -12.44    9.26
 -10   0  12  310.05   20.10
 -10   0  12  296.52   18.20
 -10   0  12  322.82   20.01
  10   0 -12  352.43   19.52
  10   0 -11    3.85    7.19
 -10   0  11   -6.52    8.68
 -10   0  11  -12.78    8.07
 -10   0  11   -3.82    5.72
  10   0 -10  358.99   20.05
 -10   0  10  344.05   21.35
 -10   0  10  311.90   18.65
 -10   0  10  370.87   20.59
 -10   0   9   -3.60    8.48
 -10   0   9   -5.60    7.82
  10   0  -8   59.45    5.55
 -10   0   8   43.33    7.63
  10   0  -7   -0.85    6.20
  10   0  -7    0.90    3.73
 -10   0   7   13.70    5.94
  10   0  -6  137.46   10.65
  10   0  -6  147.99    8.99
 -10   0   6  114.03   11.70
 -10   0   6  146.86    9.79
  10   0  -5    4.80    6.12
  10   0  -5   -4.88    4.43
 -10   0   5    2.32    7.33
 -10   0   5   -0.27    4.14
  10   0  -4 1540.22   75.76
 -10   0   4 1548.49   76.24
 -10   0   4 1566.58   75.83
 -10   0   4 1646.23   74.65
  10   0  -3   15.53    6.80
 -10   0   3    9.65    5.84
 -10   0   3   11.43    7.60
  10   0  -2  283.74   16.48
 -10   0   2  301.22   17.31
 -10   0   2  256.57   15.41
 -10   0   1    4.47    4.75
 -10   0   1   -7.79    5.10
  10   0  -1    5.71    6.76
 -10   0   1   -0.42    7.37
  10   0   0   58.09    7.50
 -10   0   0   46.25    6.48
 -10   0   0   41.98    8.47
 -10   0  -1    1.41    5.59
  10   0   1   -6.02    6.63
 -10   0  -1   -8.91    7.63
  10   0   2  456.31   25.86
 -10   0  -2  494.42   26.23
 -10   0  -2  505.70   26.42
 -10   0  -2  527.02   24.48
 -10   0  -3    0.76    5.59
 -10   0  -3   -1.23    5.96
 -10   0  -3   -0.77    3.48
  10   0   3    1.56    6.46
  10   0   4  232.82   14.37
 -10   0  -4  249.09   13.33
 -10   0  -4  250.54   15.15
 -10   0  -4  237.65   14.62
 -10   0  -5   -1.30    4.54
 -10   0  -5   -4.73    6.38
  10   0   5   11.31    5.70
 -10   0  -5    0.35    4.77
  10   0   6   28.03    5.63
 -10   0  -6   27.70    7.25
 -10   0  -6   34.08    5.31
 -10   0  -6   29.37    5.31
 -10   0  -7   -0.53    6.51
  10   0   7   -2.02    4.62
 -10   0  -7   -0.87    4.06
  10   0   8   32.94    4.52
 -10   0  -8   28.42    7.46
  10   0   9    7.54    7.49
 -10   0  -9    9.05    7.59
  10   0   9   -1.50    2.22
  10   0  10   18.38    8.05
 -10   0 -10   14.06    8.60
  10   0  11    4.56    8.61
  10   0  12   26.78    9.74
 -10  -1  21    6.95   11.41
 -10  -1  21   -3.84   10.27
 -10  -1  20   30.38   11.88
 -10   1  20   14.95   14.52
 -10  -1  20    5.41   10.16
 -10   1  20   15.25   12.57
 -10  -1  19   12.38    8.64
 -10   1  19    1.92   12.93
 -10  -1  19   -5.94   10.66
 -10  -1  19    5.67   11.11
 -10   1  19    6.01   12.00
 -10   1  19   16.37   11.34
  10  -1 -18    2.73    8.18
 -10   1  18   18.52   11.96
 -10  -1  18    1.92   10.18
 -10   1  18   14.70   11.39
 -10  -1  18   -8.42   10.19
 -10   1  18    8.25    9.52
  10  -1 -17   16.57    8.81
 -10  -1  17   16.77    8.26
 -10   1  17   28.56   11.81
 -10  -1  17   14.36    9.12
 -10   1  17   20.92   11.14
 -10  -1  17   10.83   10.19
 -10   1  17   20.03   10.38
 -10  -1  16   14.28    7.37
 -10   1  16   26.58   11.39
  10  -1 -16   -6.39    7.94
 -10  -1  16   -1.21    9.79
 -10   1  16    7.10   10.45
 -10  -1  16    3.39    8.97
 -10   1  16    8.25    8.84
 -10  -1  15   11.95    6.69
  10  -1 -15   10.52    8.46
 -10   1  15   12.37   10.67
 -10  -1  15   10.58    9.14
 -10   1  15   23.63   10.08
 -10  -1  15    1.92    8.86
 -10   1  15   16.39    9.14
 -10  -1  14    7.05    6.49
  10  -1 -14    0.52    7.23
 -10   1  14   -0.79    8.94
 -10  -1  14   -4.00    8.74
 -10   1  14   12.96   10.54
 -10  -1  14   -1.81    8.43
 -10   1  14    5.16    8.91
 -10  -1  13   35.06    6.82
  10  -1 -13   22.12    8.50
 -10   1  13   34.11    9.99
 -10  -1  13   32.14    8.67
 -10   1  13   43.94   10.22
 -10  -1  13   30.77    8.75
 -10   1  13   27.00    9.92
 -10  -1  12   83.50    8.10
  10  -1 -12   79.69   10.06
 -10  -1  12   86.20   10.14
 -10   1  12   87.43   11.97
 -10  -1  12   72.01   10.42
 -10   1  12   95.70   11.15
 -10  -1  11   59.10    6.79
  10   1 -11   49.44    3.65
  10  -1 -11   39.07    8.49
 -10  -1  11   57.36    9.51
 -10  -1  11   56.08    8.64
 -10   1  11   70.04   11.35
 -10   1  11   42.67    9.48
  10  -1 -10  288.56   16.88
 -10  -1  10  233.26   17.17
 -10   1  10  243.93   17.91
 -10  -1  10  247.09   14.60
  10   1 -10  251.73   12.83
 -10   1  10  276.77   18.19
  10  -1 -10  287.08   17.24
 -10  -1  10  310.17   17.25
 -10   1  10  282.11   18.00
  10  -1  -9    2.35    6.90
 -10   1   9   16.86    8.20
 -10  -1   9    9.93    4.20
  10  -1  -9   10.13    8.18
 -10  -1   9    6.29    6.69
 -10   1   9   18.16    9.28
 -10   1   9    3.14    6.97
  10   1  -8    3.19    6.81
 -10  -1   8   11.48    3.46
 -10   1   8   23.07    8.41
  10  -1  -8   24.19    7.63
 -10  -1   8    7.18    6.78
 -10   1   8    3.55    9.03
 -10   1   8   11.12    7.24
 -10  -1   7  921.69   47.31
  10   1  -7  935.65   44.56
 -10  -1   7  899.48   44.82
 -10   1   7 1019.18   48.46
  10   1  -7  914.24   45.85
  10  -1  -7 1042.88   46.98
 -10  -1   7 1006.36   46.53
 -10   1   7 1006.94   47.48
  10   1  -7 1035.99   47.50
  10   1  -6   70.46    8.49
  10  -1  -6   56.62    5.59
  10  -1  -6   52.39    6.12
 -10   1   6   57.44    9.09
  10  -1  -6   52.61    8.26
 -10  -1   6   62.04    8.54
  10   1  -6   62.32    5.90
  10  -1  -6   64.41    7.22
 -10  -1   6   62.45    6.88
  10   1  -5   17.06    6.89
  10  -1  -5   22.90    4.21
  10  -1  -5   27.79    5.55
 -10   1   5   33.17    8.32
  10  -1  -5   21.98    7.02
 -10  -1   5   31.59    7.55
  10   1  -5   21.10    3.92
  10  -1  -5   23.99    5.89
 -10  -1   5   24.57    5.25
 -10   1   5   19.38    8.61
  10   1  -4   27.90    6.99
  10  -1  -4   33.77    4.55
  10  -1  -4   54.43    6.38
 -10   1   4   37.09    7.52
  10  -1  -4   38.21    4.07
  10  -1  -4   42.85    7.17
 -10  -1   4   46.30    8.44
  10   1  -4   40.77    4.03
  10  -1  -4   46.68    5.74
 -10  -1   4   49.96    4.95
 -10   1   4   34.18    9.17
  10   1  -3   14.09    6.99
 -10  -1   3   16.77    4.07
  10  -1  -3   17.04    5.43
 -10   1   3   19.61    6.96
  10  -1  -3   19.82    6.75
 -10  -1   3   18.44    8.13
  10  -1  -3   15.39    3.22
  10  -1  -3    7.72    4.32
 -10  -1   3   16.22    3.39
 -10   1   3    2.64    8.35
  10   1  -2   70.73    8.79
  10  -1  -2  111.25    8.72
  10  -1  -2  109.42    9.46
 -10  -1   2  111.60   10.20
  10  -1  -2   96.10    6.80
 -10  -1   2   92.34    5.16
 -10  -1   2  102.01    7.48
 -10   1   2   81.93   10.00
  10  -1  -1 1961.36   92.57
 -10  -1   1 2010.22   92.61
 -10  -1   1 2016.74   91.79
 -10   1   1 2124.10   93.73
  10  -1  -1 1998.39   90.89
 -10   1   0   82.08    9.13
  10   1   0   64.34    7.77
 -10  -1   0   76.17    7.15
  10  -1   0   72.34    9.06
  10  -1   0   69.55    5.15
 -10  -1   0   87.12    8.41
  10   1   1   20.70    6.35
 -10   1  -1   34.37    7.50
 -10  -1  -1   30.31    6.34
 -10  -1  -1   19.73    2.10
 -10  -1  -1   30.79    3.58
  10  -1   1   21.02    7.21
  10  -1   1   20.66    2.74
 -10  -1  -1   39.56    7.35
  10  -1   1   28.14    3.19
  10   1   2    2.24    5.43
 -10   1  -2    4.80    5.40
 -10   1  -2    4.45    6.87
 -10  -1  -2    3.42    5.42
  10  -1   2   10.38    7.17
 -10  -1  -2    6.93    6.04
  10  -1   2    5.78    2.58
  10   1   3   13.04    5.00
 -10   1  -3   12.36    4.99
 -10   1  -3   17.59    6.10
 -10   1  -3    5.91    6.37
  10  -1   3   14.65    7.01
 -10  -1  -3    9.69    5.83
  10  -1   3   13.18    2.70
  10  -1   4  200.32   13.12
  10   1   4  193.32   11.44
 -10   1  -4  199.66   13.28
 -10  -1  -4  204.81   11.94
 -10   1  -4  204.53   13.51
 -10   1  -4  206.76   12.25
  10   1   4  187.22   11.22
  10  -1   5  625.66   32.00
  10   1   5  629.29   31.45
 -10   1  -5  621.72   32.82
 -10  -1  -5  605.83   30.89
 -10   1  -5  612.86   32.49
 -10   1  -5  686.51   31.78
 -10   1  -6   64.87    7.16
  10   1   6   64.98    7.08
  10  -1   6   57.79    8.20
  10  -1   6   55.46    5.36
 -10   1  -6   61.72    7.27
  10   1   7    4.01    6.27
 -10   1  -7    0.38    5.49
  10  -1   7   13.78    6.87
 -10   1  -7   -5.86    5.49
 -10   1  -8   64.11    7.44
  10   1   8   74.37    8.40
  10  -1   8   70.51    7.85
 -10   1  -8   73.80    7.88
  10  -1   8   62.43    6.04
  10   1   9   59.94    8.83
 -10   1  -9   82.93    7.60
  10  -1   9   72.44    7.91
 -10   1  -9   77.03    8.47
  10   1  10   18.06    7.66
  10  -1  10   37.98    6.78
 -10   1 -10   19.84    6.73
 -10   1 -11    3.03    7.58
  10   1  11   12.45    8.74
 -10   1 -11   26.12    9.88
 -10   1 -12   10.82    8.93
  10   1  12   19.23    9.14
 -10   1 -13    9.81    8.55
  10  -2 -19   11.63    8.81
 -10  -2  19   20.95   11.88
 -10   2  19  -11.59   14.33
 -10  -2  19   11.79   10.57
 -10   2  19   -6.90   13.59
  10  -2 -18   21.94    9.08
 -10  -2  18   30.07   12.84
 -10   2  18   15.74   14.53
  10   2 -18   28.17   10.42
 -10  -2  18   30.43   12.36
 -10  -2  18   26.11    9.96
 -10   2  18   -0.86   14.00
  10  -2 -17   10.59    8.76
 -10  -2  17   -5.73   10.33
 -10   2  17   10.87   12.83
  10   2 -17    8.93    9.00
 -10  -2  17   19.62   12.18
 -10   2  17    6.31   12.55
 -10   2  17   -5.15   13.67
  10  -2 -16   28.57    8.47
 -10  -2  16   35.41   10.83
 -10   2  16   35.70   13.34
  10   2 -16   44.94   10.26
 -10  -2  16   46.33   11.67
 -10   2  16   24.63   12.22
 -10   2  16   28.01   11.83
  10   2 -15   60.98    8.38
  10  -2 -15   66.91   10.28
 -10  -2  15   57.61   10.89
 -10   2  15   40.44   13.47
  10   2 -15   55.91    9.80
  10  -2 -15   71.13   12.65
 -10  -2  15   56.30   11.25
 -10   2  15   43.52   12.96
 -10   2  15   36.08   11.31
  10  -2 -14    8.69    7.76
 -10  -2  14   10.96    9.54
  10   2 -14    1.75    6.37
 -10   2  14   -3.88   10.54
  10   2 -14    8.64    7.47
  10  -2 -14   12.62   10.13
 -10  -2  14    6.38   10.47
 -10   2  14   -2.47   12.18
 -10   2  14   -3.58   10.64
  10  -2 -13   70.90    9.40
 -10  -2  13   76.07   10.52
  10   2 -13   65.34    7.88
 -10   2  13   67.74   12.74
  10   2 -13   47.84    8.49
 -10  -2  13   72.11   11.92
  10  -2 -13   68.61   11.59
 -10   2  13   50.84   12.74
 -10   2  13   64.10   11.97
 -10  -2  12   81.39   10.16
  10  -2 -12   85.66   10.66
  10   2 -12   56.22    9.03
  10   2 -12   83.46    7.83
 -10  -2  12   97.73   11.86
  10  -2 -12   83.86   11.80
 -10   2  12   63.73   12.89
 -10   2  12   77.44   11.41
 -10  -2  11   32.21    8.62
  10  -2 -11   22.89    8.13
  10   2 -11   22.38    6.71
  10  -2 -11   30.92    9.48
  10   2 -11   24.32    5.66
 -10   2  11   14.57   10.81
 -10   2  11    2.21    9.12
  10   2 -10  237.60   13.54
  10  -2 -10  223.02   16.05
  10  -2 -10  233.08   14.76
  10   2 -10  229.13   14.69
  10  -2 -10  261.31   16.33
 -10   2  10  204.11   18.27
  10  -2  -9  219.99   15.69
  10  -2  -9  242.16   14.82
 -10   2   9  213.02   17.96
 -10   2   9  270.31   18.42
  10   2  -9  248.77   14.63
  10  -2  -9  219.09   15.14
  10   2  -9  238.46   13.12
  10  -2  -8    8.42    5.73
 -10  -2   8   17.31    8.43
 -10   2   8   -2.22    9.74
  10  -2  -8   15.58    7.83
  10   2  -8    8.72    5.43
  10  -2  -8    5.90    6.89
 -10   2   8    0.70    9.78
 -10   2   7  116.45   12.49
  10  -2  -7  117.88    9.59
 -10  -2   7  127.96   11.26
 -10   2   7  119.27   13.23
  10   2  -7  128.49    9.02
  10  -2  -7  113.17   11.15
 -10  -2   6  422.98   23.97
  10  -2  -6  444.01   23.10
  10  -2  -6  422.27   23.44
  10  -2  -5   65.95    7.99
 -10  -2   5   68.53    8.86
  10  -2  -5   63.85    9.21
  10  -2  -5   69.63    8.26
 -10  -2   4  263.53   16.00
  10  -2  -4  282.13   16.73
 -10  -2   4  231.18   12.17
 -10  -2   4  273.69   12.94
  10  -2  -4  266.50   15.36
 -10   2   4  225.71   16.86
  10  -2  -4  264.52   15.33
  10  -2  -4  258.82   14.23
 -10   2   3   42.87    8.68
  10  -2  -3   43.82    6.66
 -10  -2   3   40.15    4.59
 -10  -2   3   38.30    8.40
  10  -2  -3   34.56    8.57
  10  -2  -3   46.05    6.58
  10  -2  -3   33.32    5.42
 -10   2   2   57.64    9.21
  10  -2  -2   37.26    6.81
 -10  -2   2   49.50    5.50
 -10  -2   2   40.88    8.80
  10  -2  -2   78.20    9.47
  10  -2  -2   45.13    5.89
  10  -2  -2   54.62    7.10
  10  -2  -1   38.97    5.75
 -10   2   1   31.98    8.28
  10  -2  -1   48.39    7.26
  10  -2  -1   62.44    7.77
 -10  -2   1   46.64    8.32
  10  -2  -1   60.39    9.28
  10  -2  -1   32.17    6.17
  10  -2   0   46.37    6.93
 -10   2   0   30.30    8.96
  10  -2   0   66.42    7.99
 -10  -2   0   65.08    8.08
  10  -2   0   68.45    9.17
 -10  -2   0   45.10    3.36
 -10  -2   0   41.68    3.65
  10  -2   0   40.31    6.11
  10  -2   1   86.10    8.40
 -10   2  -1   67.42    9.18
  10  -2   1   64.96    6.23
 -10  -2  -1   99.67    8.88
  10  -2   1   95.53   10.05
  10  -2   2   85.45    8.45
 -10   2  -2   79.07    8.87
  10  -2   2   68.44    6.19
 -10  -2  -2   86.41    8.51
  10  -2   2   93.38   10.44
  10  -2   3   26.97    6.38
 -10   2  -3   23.12    7.62
  10  -2   3   24.34    4.52
 -10  -2  -3   35.83    6.04
  10  -2   3   21.61    7.87
  10  -2   4   17.61    6.18
 -10  -2  -4   16.05    3.55
 -10   2  -4   31.43    7.25
  10  -2   4   14.76    7.99
 -10  -2  -4   20.06    5.14
 -10  -2  -5   32.48    4.33
 -10  -2  -5   28.20    3.35
  10  -2   5   41.11    6.47
  10  -2   5   54.40    8.94
 -10   2  -5   42.82    8.04
  10  -2   6   10.08    5.82
 -10   2  -6   14.71    6.36
  10  -2   6   16.26    7.68
 -10   2  -6    0.60    6.15
  10  -2   7  152.90   11.81
 -10   2  -7  145.86   11.92
  10  -2   7  130.01    9.79
 -10   2  -7  125.49   11.19
 -10   2  -7  156.70   12.39
 -10   2  -8   11.28    6.66
 -10   2  -8   12.09    7.32
  10  -2   8    5.70    5.57
 -10   2  -8   22.82    7.20
  10  -2   8   13.62    7.95
 -10   2  -9   55.83   10.35
 -10   2  -9   67.26    8.33
 -10   2  -9   72.19    9.46
  10  -2   9   66.93    9.52
 -10   2 -10   20.31    9.46
 -10   2 -10   25.02    7.40
  10  -2  10   17.28    8.25
 -10   2 -10   -3.25    7.86
 -10   2 -11   22.93    8.41
 -10   2 -12   -5.46    8.72
  10   3 -19    6.72   10.46
 -10   3  18   -0.92   12.20
  10  -3 -18    7.08    9.76
  10   3 -18   22.97    9.67
 -10   3  17   11.07   12.67
  10  -3 -17   11.81    9.33
 -10  -3  17    7.43   12.36
  10   3 -17   -3.61    8.04
  10   3 -17    3.78   10.39
 -10  -3  17    4.03   10.14
 -10  -3  17   17.25   14.89
 -10   3  16    0.92   11.40
  10   3 -16   17.02    8.68
 -10  -3  16    0.80   12.11
  10  -3 -16   -0.60   10.37
  10   3 -16    5.73    9.04
 -10  -3  16    6.77    9.23
 -10  -3  16    9.14   13.72
  10  -3 -16   19.06   12.45
  10   3 -15   13.69    7.81
 -10  -3  15    6.91   10.63
  10  -3 -15    7.28    9.25
 -10   3  15   -0.91   10.59
  10   3 -15   -9.46    9.01
 -10  -3  15   -1.85    9.31
  10  -3 -15    8.57   12.63
 -10   3  14    4.48   10.51
 -10  -3  14    3.70    9.91
  10  -3 -14    5.48    9.47
  10   3 -14   -7.58    8.41
 -10  -3  14   -6.24    8.04
  10  -3 -14    1.57   10.76
  10   3 -14    5.85    6.75
 -10   3  13   58.82   12.71
 -10  -3  13   56.73   10.27
  10  -3 -13   42.58   10.28
  10   3 -13   48.82    9.38
  10  -3 -13   57.21   11.61
 -10  -3  13   48.94    9.48
  10   3 -13   45.01    8.01
  10  -3 -12  144.52   12.21
 -10   3  12  200.11   16.02
 -10  -3  12  132.93   14.02
  10  -3 -12  149.73   13.47
  10   3 -12  128.81   12.32
  10  -3 -12  167.51   14.12
 -10  -3  12  135.97   13.43
  10   3 -12  144.33   10.76
  10  -3 -11   94.86   10.01
 -10   3  11   68.81   11.81
  10   3 -11   80.66    7.97
  10  -3 -11   87.51   11.52
  10  -3 -11   85.88   11.52
  10  -3 -10   12.02    6.65
 -10   3  10   22.08   10.11
  10  -3 -10   23.32    9.31
  10  -3 -10    9.75    9.12
  10  -3  -9    4.96    6.63
 -10   3   9    9.57    8.97
 -10  -3   9   10.54    8.48
  10  -3  -9    4.10    8.98
  10  -3  -9   -7.06    8.80
  10  -3  -8   18.91    6.81
 -10  -3   8   36.72    8.76
 -10   3   8   34.33   10.04
  10  -3  -8   21.59    8.43
  10  -3  -8   14.86    8.39
  10  -3  -7   28.64    7.44
 -10   3   7   29.84    9.38
 -10  -3   7   28.04    8.26
  10  -3  -7   39.17    9.50
  10  -3  -7   28.58    8.50
 -10  -3   6  187.95   14.39
 -10   3   6  205.22   15.90
  10  -3  -6  192.06   13.65
 -10  -3   5  358.85   20.90
  10  -3  -5  351.86   20.53
  10  -3  -4   38.18    7.47
 -10  -3   4   43.77    8.06
 -10  -3   4   38.96    3.65
  10  -3  -4   49.52    9.02
  10  -3  -4   51.35    7.38
  10  -3  -4   29.68    8.60
  10  -3  -4   40.97    7.70
  10  -3  -3   46.67    7.47
 -10  -3   3   52.75    8.43
 -10   3   3   47.89    9.48
  10  -3  -3   54.89    9.04
  10  -3  -3   48.06    9.12
 -10  -3   3   63.32    8.47
  10  -3  -3   46.30    6.79
  10  -3  -3   52.60    7.62
 -10  -3   2   57.51    5.26
 -10  -3   2   56.47    5.92
  10  -3  -2   60.68    8.04
 -10  -3   2   69.07    7.91
  10  -3  -2   45.74    7.20
  10  -3  -2   77.64    9.40
 -10   3   2   44.82    9.54
 -10  -3   2   77.41    8.38
  10  -3  -2   83.94   10.07
  10  -3  -2   69.78    8.64
 -10  -3   1   60.42    5.97
 -10  -3   1   62.20    5.44
  10  -3  -1   41.60    8.00
 -10  -3   1   62.75    8.38
  10  -3  -1   51.47    8.86
  10  -3  -1   62.48    7.23
 -10   3   1   55.64    9.29
 -10  -3   1   60.73    7.71
  10  -3  -1   78.29   10.52
  10  -3  -1   61.99    8.26
 -10  -3   0   43.55    7.77
  10  -3   0   47.66    6.84
  10  -3   0   40.64    8.71
 -10  -3   0   39.15    5.15
 -10   3   0   34.84    8.95
 -10  -3   0   44.91    6.55
  10  -3   0   39.92    9.73
 -10  -3  -1  191.06   13.32
  10  -3   1  177.77   14.74
 -10  -3  -1  169.92   12.15
  10  -3   1  181.58   13.98
 -10  -3  -1  207.20   10.85
 -10  -3  -1  186.00   11.64
 -10   3  -1  203.07   15.52
 -10  -3  -2    2.28    4.85
  10  -3   2    1.61    6.99
 -10  -3  -2   -0.72    6.74
  10  -3   2    3.31    5.28
 -10  -3  -2    2.85    3.85
 -10   3  -2    0.74    7.05
  10  -3   2   13.25    9.73
 -10  -3  -2    8.49    4.92
 -10  -3  -3  206.57   13.15
 -10  -3  -3  205.32   12.24
  10  -3   3  196.60   15.71
  10  -3   3  177.04   14.08
  10  -3   3  209.03   12.59
 -10  -3  -3  208.97   11.09
 -10  -3  -3  198.00   11.68
 -10   3  -3  215.19   15.94
 -10  -3  -4  244.18   13.29
  10  -3   4  250.18   17.09
 -10  -3  -4  186.43   11.32
  10  -3   4  222.52   14.92
 -10  -3  -4  224.29   11.67
  10  -3   4  222.56   13.35
 -10  -3  -4  220.92   12.22
 -10   3  -4  244.27   16.84
 -10  -3  -4  228.25   12.70
  10  -3   5   11.89    7.22
 -10  -3  -5   21.33    3.54
 -10  -3  -5   16.95    5.04
 -10  -3  -5   18.50    3.60
  10  -3   5    5.83    9.09
 -10   3  -5   25.38    8.48
  10  -3   6   20.42    7.26
  10  -3   6   24.79    9.96
 -10   3  -6   19.50    8.31
 -10   3  -7   13.50    8.01
  10  -3   7   -4.52    7.17
  10  -3   7    7.87    9.37
 -10   3  -8    2.96    7.78
  10  -3   8    1.97    6.72
  10  -3   8    0.66   10.38
 -10   3  -9   49.93   10.21
  10  -3   9   54.66   11.18
 -10   3 -10   27.79    8.50
  10  -4 -17    2.62   10.64
  10   4 -17   -7.47   10.56
  10   4 -16   26.33   10.43
  10  -4 -16   48.35   12.76
 -10   4  16   39.58   13.13
 -10   4  15   -7.85   14.11
  10  -4 -15   24.96   11.11
 -10  -4  14   -8.65   12.16
 -10  -4  14    3.07    9.72
 -10   4  14   -7.79   11.87
  10  -4 -14   19.25   11.35
  10  -4 -14    0.84   11.95
  10  -4 -13   27.20   10.32
  10  -4 -13   11.88   11.75
  10  -4 -13   16.77   11.44
  10  -4 -12   25.01    9.87
 -10   4  12    3.79   11.53
  10  -4 -12   11.88   10.02
  10  -4 -12   27.80   10.88
  10  -4 -11   51.55    9.79
 -10  -4  11   31.01   11.08
 -10   4  11   32.60   11.32
 -10  -4  11   55.64   10.55
  10  -4 -11   58.77   11.17
  10  -4 -11   50.82   11.64
  10  -4 -10   21.51    9.31
 -10  -4  10   15.83   10.02
 -10   4  10   27.59   10.05
 -10  -4  10   11.03    8.07
  10  -4 -10   11.35    9.22
  10  -4 -10   12.36   10.45
  10  -4  -9    4.25    7.58
 -10  -4   9   11.59    9.16
 -10   4   9    8.17   10.83
 -10  -4   9    3.58    8.02
  10  -4  -9   14.04   10.36
  10  -4  -9    0.71   10.27
 -10  -4   8    2.59    8.31
  10  -4  -8   20.81    8.99
 -10  -4   8   11.30    8.40
 -10   4   8    8.95   10.10
  10  -4  -8   -2.02    9.96
  10  -4  -8   36.73    9.68
 -10  -4   7   43.54    9.63
 -10  -4   7   43.72    9.57
 -10   4   7   29.16   10.78
  10  -4  -7   52.84   11.09
  10  -4  -7   59.50   10.08
 -10  -4   6  135.49   12.80
  10  -4  -6  146.44   13.55
 -10  -4   6  140.27   13.20
 -10   4   6  145.04   13.56
  10  -4  -6  136.13   13.53
  10  -4  -6  130.65   12.61
 -10  -4   5   15.49    7.63
  10  -4  -5   21.27    8.37
  10  -4  -5   29.43    9.39
 -10  -4   5   17.05    7.96
 -10   4   5   36.39    8.97
  10  -4  -5   18.67   10.13
  10  -4  -5   21.02    8.59
 -10  -4   4    1.05    7.90
 -10  -4   4   16.17    7.45
  10  -4  -4    0.70    8.81
  10  -4  -4    4.71    7.06
  10  -4  -4    7.80    8.04
 -10  -4   3   27.69    8.00
 -10  -4   3   29.14    7.54
  10  -4  -3   33.98   10.15
  10  -4  -3   27.28    8.05
  10  -4  -3   21.43    8.50
 -10  -4   2   70.61    8.03
 -10  -4   2   59.43    8.65
 -10  -4   2   66.84    8.77
  10  -4  -2   62.58    9.26
  10  -4  -2   65.00   10.62
 -10  -4   2   74.30    7.34
 -10  -4   2   85.43    8.19
 -10   4   2   52.97   10.79
  10  -4  -2   68.85   11.58
  10  -4  -2   69.40   10.31
 -10  -4   1    2.44    6.02
 -10  -4   1   -1.82    5.69
  10  -4  -1   -0.49    7.24
 -10  -4   1    6.05    7.17
 -10  -4   1   -2.32    5.59
  10  -4  -1   -1.39    8.30
 -10  -4   1    9.57    5.96
 -10   4   1   -5.23    7.86
  10  -4  -1    5.90   10.07
  10  -4  -1   -3.25    8.19
 -10  -4   0  105.40   10.03
 -10  -4   0  126.68   10.16
 -10  -4   0  138.02   10.88
  10  -4   0  123.78   11.96
  10  -4   0  111.01   12.34
 -10  -4   0  149.35   10.04
  10  -4   0  128.86   11.11
 -10   4   0  116.33   12.71
  10  -4   0  127.86   14.19
 -10  -4   0  146.80   10.24
 -10  -4  -1   62.09    7.89
 -10  -4  -1   92.02    8.75
 -10  -4  -1   85.15    9.03
  10  -4   1   85.02   10.33
 -10  -4  -1   91.40    8.64
  10  -4   1   78.44   10.85
 -10  -4  -1   84.20    8.04
 -10   4  -1   82.07   11.36
  10  -4   1   94.55   13.04
 -10  -4  -1   74.84    8.75
 -10  -4  -2   15.65    7.52
  10  -4   2    4.29    7.62
  10  -4   2   -0.69    8.95
  10  -4   2    9.67    6.24
 -10  -4  -2    5.80    5.28
 -10   4  -2    6.21    8.08
  10  -4   2   12.26   10.06
 -10  -4  -2   15.41    6.58
 -10  -4  -2   11.35    5.71
 -10  -4  -3    7.91    7.60
  10  -4   3    5.50    8.68
 -10  -4  -3   15.46    5.64
  10  -4   3    1.76    6.68
 -10  -4  -3    0.85    5.41
 -10  -4  -3    9.38    6.15
  10  -4   3    9.31   11.38
 -10   4  -3    9.82    9.63
  10  -4   4   22.10    8.81
 -10  -4  -4   16.48    6.42
  10  -4   4   27.15    7.06
 -10  -4  -4   27.29    5.64
 -10  -4  -4    0.76    7.04
  10  -4   4   18.80   10.23
 -10   4  -4   19.81    9.85
 -10   4  -5    7.21    9.18
  10  -4   5   -3.44    9.38
 -10  -4  -5   -4.85    5.17
  10  -4   5   10.32    6.56
  10  -4   5   14.25   11.46
 -10   4  -6    7.22    9.80
  10  -4   6    0.69    9.29
  10  -4   6    6.39   13.12
 -10   4  -7    7.14    8.94
  10  -4   7    5.49    9.07
  10  -4   7   13.71   12.02
 -10   4  -8    0.89    8.92
  10  -4   8   -5.69   11.86
 -10   4  -9    1.78   10.50
  10  -4   9    7.34   12.99
  10  -5 -13   14.97   12.39
 -10   5  13    1.03   12.00
  10  -5 -12   13.62   12.50
 -10   5  12    5.12   10.79
  10  -5 -11    7.16   11.31
  10  -5 -11    0.76   11.14
 -10   5  11   12.18   11.53
 -10  -5  10   -1.09   10.42
 -10  -5  10   23.74   12.59
  10  -5 -10   25.64   11.89
 -10   5  10   34.29   11.89
  10  -5 -10   -0.76   12.68
  10  -5 -10    8.72   12.72
 -10  -5   9    1.06   10.03
 -10  -5   9    4.66   11.77
  10  -5  -9   -0.89   11.12
 -10   5   9    6.00   10.80
  10  -5  -9   21.58   12.53
  10  -5  -9    9.35   10.40
 -10  -5   8   76.41   12.97
 -10  -5   8   61.78   11.35
  10  -5  -8   28.51   12.06
 -10   5   8   35.81   11.23
  10  -5  -8   79.33   14.09
  10  -5  -8   76.15   12.82
 -10  -5   7   24.94   10.36
 -10  -5   7    9.77   10.09
  10  -5  -7   16.07   10.98
 -10   5   7   21.81   10.69
  10  -5  -7   20.60   10.95
  10  -5  -7   20.46   10.19
 -10  -5   6   63.33   12.06
 -10  -5   6   33.78   10.00
  10  -5  -6   76.61   12.66
 -10   5   6   47.53   12.09
  10  -5  -6   59.18   12.71
  10  -5  -6   68.09   12.62
 -10  -5   5   31.15   10.80
 -10  -5   5   34.05   10.73
  10  -5  -5   43.83   11.56
  10  -5  -5   36.14   10.68
 -10   5   5   11.89    9.01
  10  -5  -5   44.79   11.29
  10  -5  -5   18.81   10.87
 -10  -5   4    5.22    9.24
 -10  -5   4   -1.20    8.95
  10  -5  -4    2.18    9.29
  10  -5  -4   15.99   11.44
 -10   5   4   -4.97    9.60
  10  -5  -4   10.75   12.05
  10  -5  -4   -6.58   10.11
  10  -5  -4    8.98   10.19
  10  -5  -3   43.17    9.64
 -10  -5   3   38.51   10.19
  10  -5  -3   52.94   10.46
  10  -5  -3   39.61   11.91
 -10  -5   3   40.51    8.88
 -10   5   3   39.12   11.54
  10  -5  -3   50.05   11.86
 -10  -5   3   24.61    8.91
 -10  -5   2   83.30   11.23
 -10  -5   2   67.67    9.25
  10  -5  -2   73.23   10.33
  10  -5  -2   69.51   13.64
  10  -5  -2   85.95   11.24
 -10  -5   2   73.25    9.01
 -10  -5   2   68.51   10.64
  10  -5  -2   53.64   12.85
 -10  -5   1    1.58    6.56
 -10  -5   1   10.61    8.66
  10  -5  -1    7.00    9.63
  10  -5  -1   14.51   10.92
  10  -5  -1    4.34    8.81
 -10  -5   1   12.26    7.68
 -10  -5   1   -2.33    7.01
 -10   5   1    4.08   10.98
  10  -5  -1    8.77   11.57
 -10  -5   1    0.71    7.29
  10  -5  -1   -9.96   10.06
 -10  -5   0   15.40    6.85
 -10  -5   0   24.65    7.76
 -10  -5   0   39.76    8.84
  10  -5   0   26.51    9.21
  10  -5   0   26.42   11.78
 -10  -5   0   38.70    8.34
 -10  -5   0   20.58    7.71
  10  -5   0   26.71   12.18
 -10   5   0   19.54   10.13
  10  -5   0   33.69    9.79
 -10  -5  -1   37.04    8.38
  10  -5   1   34.04   10.27
  10  -5   1   39.21   12.55
  10  -5   1   43.90    9.52
 -10  -5  -1   45.82    8.73
 -10  -5  -1   46.68    7.69
  10  -5   1   40.50   12.96
 -10   5  -1   40.59   11.72
 -10  -5  -1   27.86    8.05
 -10  -5  -2   19.00    8.00
  10  -5   2   21.04    9.61
  10  -5   2   13.67   12.92
 -10  -5  -2   23.02    8.75
 -10  -5  -2   22.95    7.24
 -10  -5  -2    6.78    6.63
  10  -5   2   22.80   12.61
 -10   5  -2    4.19   10.64
  10  -5   3    5.14   12.02
  10  -5   3   10.55    8.49
  10  -5   4    9.47   11.15
  10  -5   5    6.02   12.52
  10  -5   5   16.60    9.01
 -10  -6   3   -5.89    9.99
 -10  -6   2    5.03   10.64
 -10  -6   2    0.88    9.68
 -11   0  21   33.85   12.31
 -11   0  20    7.17    8.89
 -11   0  20   10.10   11.86
 -11   0  19   18.41    9.59
 -11   0  19   20.49   11.45
 -11   0  19   45.13   11.98
 -11   0  18    2.05    8.24
 -11   0  18   -2.07   11.31
 -11   0  18   -4.96   10.16
 -11   0  17   13.31    7.38
 -11   0  17    8.10   10.84
 -11   0  17   -4.68   11.52
  11   0 -16    7.93    8.27
 -11   0  16   -4.10    6.97
 -11   0  16   -3.29   10.31
 -11   0  16   -5.13   10.63
  11   0 -15   59.43    9.00
 -11   0  15   60.79    8.57
 -11   0  15   69.46   11.77
 -11   0  15   57.27   11.50
  11   0 -14    5.95    7.44
 -11   0  14   -5.47    6.56
 -11   0  14   -1.88    9.78
 -11   0  14   -9.01    8.54
  11   0 -13   85.61    9.98
 -11   0  13  106.54    9.47
 -11   0  13  108.44   12.22
 -11   0  13   87.84   10.89
  11   0 -12    1.58    7.11
 -11   0  12   -3.76    6.39
 -11   0  12    9.57    8.76
 -11   0  12   -9.00    9.00
  11   0 -11   11.79    7.57
 -11   0  11   20.40    9.73
 -11   0  11   10.42    7.70
 -11   0  10    1.14    9.23
 -11   0  10   -4.82    7.47
  11   0  -9  248.14   14.13
 -11   0   9  273.13   16.14
  11   0  -8   -0.47    7.17
  11   0  -8    0.98    4.60
 -11   0   8   15.09    5.91
  11   0  -7  314.83   18.51
 -11   0   7  273.99   19.24
  11   0  -7  322.68   16.59
 -11   0   7  308.14   17.53
  11   0  -6   -0.44    6.98
  11   0  -6   -2.63    4.70
 -11   0   6    4.51    5.47
  11   0  -5  509.49   25.61
 -11   0   5  484.72   26.37
 -11   0   5  468.88   25.29
 -11   0   5  446.61   24.03
  11   0  -4    7.54    7.24
 -11   0   4   11.75    6.66
 -11   0   4   21.02    7.89
  11   0  -3   45.36    8.02
 -11   0   3   44.86    7.39
 -11   0   3   40.03    8.56
  11   0  -2    9.97    6.82
 -11   0   2    0.35    5.89
 -11   0   2    7.68    7.91
 -11   0   1   16.63    5.01
  11   0  -1   24.08    7.71
 -11   0   1    8.74    5.76
 -11   0   1    9.03    8.22
 -11   0   0    2.89    5.59
  11   0   0    2.26    6.85
 -11   0   0   -7.91    7.87
  11   0   1 1038.50   49.60
  11   0   1  984.56   47.48
 -11   0  -1 1016.09   50.31
 -11   0  -1 1087.81   49.71
 -11   0  -2   -1.74    6.04
 -11   0  -2    4.19    6.30
  11   0   2   11.38    6.46
 -11   0  -3   30.84    7.11
 -11   0  -3   32.74    7.26
  11   0   3   39.49    6.89
 -11   0  -3   38.06    4.64
 -11   0  -4    0.24    4.42
 -11   0  -4   -3.84    6.32
 -11   0  -4   -2.48    5.88
  11   0   4    2.95    5.80
  11   0   5   31.44    6.79
 -11   0  -5   32.28    7.72
 -11   0  -5   28.56    5.77
 -11   0  -5   29.39    5.26
  11   0   6    5.28    5.86
  11   0   6    7.45    5.69
 -11   0  -6    7.08    7.35
 -11   0  -6   -0.30    4.89
 -11   0  -6    0.36    4.73
  11   0   7  374.54   19.69
  11   0   7  390.33   21.44
 -11   0  -7  391.60   20.51
 -11   0  -7  385.32   22.56
 -11   0  -7  371.44   20.08
  11   0   8    1.93    6.28
 -11   0  -8   -0.24    3.24
  11   0   8    0.91    3.73
 -11   0  -8    3.05    8.13
 -11   0  -8    7.42    5.72
  11   0   9   13.98    7.95
 -11   0  -9   23.19    7.88
 -11   0  -9   20.25    6.13
  11   0  10    8.26    8.51
 -11   0 -10   -2.72    8.17
 -11   0 -10   11.44    6.40
  11   0  11   13.49    8.60
 -11   0 -11   12.35    7.23
 -11  -1  20    2.16   12.13
 -11   1  20   -2.43   12.22
 -11  -1  19    7.13    9.88
 -11   1  19   31.75   13.23
 -11  -1  19    2.10   11.03
 -11  -1  19   -4.13   10.90
 -11   1  19    2.39   12.01
 -11   1  19   -2.92   10.80
  11  -1 -18   38.28    9.17
 -11  -1  18   51.96    9.54
 -11   1  18   19.15   12.21
 -11   1  18   42.35   13.16
 -11  -1  18   24.76   11.43
 -11   1  18   34.28   12.46
  11  -1 -17    1.14    8.67
 -11  -1  17    0.61    7.40
 -11   1  17   11.08   12.11
 -11   1  17   20.82   11.30
 -11  -1  17   -0.73   10.13
 -11   1  17    3.52    9.75
 -11  -1  16   14.43    7.32
  11  -1 -16    4.57    8.92
 -11   1  16   24.04   10.83
 -11  -1  16    7.71    9.73
 -11   1  16   15.89   11.27
 -11  -1  16    4.11    9.08
 -11   1  16    9.19   10.25
 -11  -1  15    1.52    6.14
  11  -1 -15   -0.56    8.29
 -11   1  15   14.55    9.60
 -11  -1  15    9.97    8.93
 -11   1  15    2.98   10.99
 -11  -1  15    6.42    8.84
 -11   1  15    0.79    8.57
 -11  -1  14   26.92    6.77
  11  -1 -14   26.96    8.85
 -11  -1  14   19.31    8.87
 -11   1  14   23.32   10.08
 -11  -1  14   14.43    9.10
 -11   1  14   30.64    9.45
 -11  -1  13   50.96    7.30
  11  -1 -13   48.37    9.36
  11   1 -13   38.81    3.57
 -11  -1  13   50.30    9.63
 -11   1  13   79.34   11.99
 -11  -1  13   54.56    9.44
 -11   1  13   56.52   10.54
  11  -1 -12  256.56   16.52
 -11  -1  12  261.08   17.44
 -11   1  12  304.74   19.64
 -11  -1  12  228.50   14.64
 -11  -1  12  247.78   16.73
 -11   1  12  258.26   18.27
 -11  -1  11    5.93    5.03
  11  -1 -11    7.76    7.62
  11   1 -11    3.02    2.10
 -11   1  11   14.50    8.84
 -11  -1  11    8.77    8.17
 -11  -1  11   10.65    6.82
 -11   1  11    3.43    9.76
 -11   1  11   11.75    7.74
 -11  -1  10   32.04    5.08
  11  -1 -10   33.34    8.43
 -11   1  10   46.36    9.59
 -11  -1  10   36.40    8.05
 -11   1  10   40.38   10.07
 -11   1  10   28.87    8.02
  11   1  -9    3.00    7.06
 -11  -1   9    5.93    3.82
 -11   1   9   15.12    8.55
  11  -1  -9   25.09    9.05
 -11  -1   9    5.24    7.00
 -11   1   9    9.88    9.56
 -11   1   9    1.61    7.42
 -11  -1   8  217.17   15.97
  11   1  -8  237.98   12.23
 -11  -1   8  241.53   12.66
 -11   1   8  227.35   17.26
  11   1  -8  247.07   14.27
  11  -1  -8  241.20   15.84
 -11  -1   8  251.54   14.94
 -11   1   8  243.37   15.81
  11   1  -8  275.13   16.16
  11  -1  -7  206.96   15.18
 -11  -1   7  192.62   14.87
  11  -1  -7  211.47   13.13
 -11   1   7  235.75   16.17
  11   1  -7  211.47   12.63
  11  -1  -7  239.49   14.40
 -11  -1   7  235.17   13.61
  11   1  -7  226.29   14.72
  11  -1  -6  353.10   21.48
 -11  -1   6  410.02   22.09
  11  -1  -6  374.05   19.10
  11  -1  -6  396.21   20.36
 -11   1   6  353.73   22.24
  11   1  -6  363.17   19.15
  11  -1  -6  403.55   20.70
 -11  -1   6  359.59   19.71
  11   1  -6  368.54   21.57
  11   1  -5   53.13    8.38
  11  -1  -5   60.78    5.20
  11  -1  -5   57.94    7.09
  11  -1  -5   45.34    4.61
 -11   1   5   59.62    9.10
  11  -1  -5   55.35    8.79
 -11  -1   5   56.18    9.02
  11   1  -5   52.08    5.02
  11  -1  -5   57.42    7.03
 -11  -1   5   50.73    5.75
 -11   1   5   45.75   10.26
  11   1  -4   13.93    7.44
  11  -1  -4   14.94    3.72
  11  -1  -4   17.39    6.04
  11  -1  -4    0.15    0.51
 -11   1   4    8.73    7.98
  11  -1  -4   14.88    7.25
  11   1  -4   13.66    3.08
 -11  -1   4   20.96    8.80
  11  -1  -4   22.17    5.45
 -11  -1   4    8.18    4.00
 -11   1   4   -3.57    8.87
  11   1  -3  142.03   11.68
  11  -1  -3  137.30   10.22
  11  -1  -3  128.89   11.41
 -11  -1   3  149.68   12.28
  11  -1  -3  138.24    8.80
 -11  -1   3  139.21    7.56
 -11   1   3  102.17   12.27
  11  -1  -2  713.38   35.71
 -11  -1   2  693.97   35.82
 -11   1   2  703.59   36.81
 -11  -1   2  718.64   34.31
  11  -1  -2  684.87   33.45
  11   1  -2  669.42   35.27
  11  -1  -1  230.37   15.14
 -11  -1   1  253.78   15.63
 -11  -1   1  264.83   13.98
 -11   1   1  259.98   16.51
  11  -1  -1  224.11   12.08
  11   1  -1  189.27   14.33
 -11   1   0    8.18    7.96
  11   1   0   -1.82    6.43
 -11  -1   0   -3.12    5.54
 -11  -1   0    7.77    4.23
  11  -1   0    6.52    7.55
  11  -1   0    1.04    2.09
 -11  -1   0    2.43    7.03
  11  -1   0    1.38    2.66
  11   1   1   11.86    6.27
 -11   1  -1   23.63    7.15
 -11  -1  -1   22.56    6.28
 -11  -1  -1    7.98    3.25
  11  -1   1   12.08    7.56
 -11  -1  -1   21.36    7.35
  11  -1   1   10.63    2.25
 -11  -1  -2   15.24    2.32
  11   1   2   13.22    5.94
 -11   1  -2   14.41    5.60
 -11   1  -2   18.87    7.28
 -11  -1  -2   16.97    5.65
  11  -1   2   18.35    7.27
 -11  -1  -2   13.57    6.48
  11   1   3    1.09    4.92
 -11   1  -3    6.04    6.50
 -11  -1  -3    1.35    6.57
 -11   1  -3   -0.54    7.30
  11  -1   3    5.51    6.87
 -11  -1  -3   -1.42    6.55
  11  -1   4  499.03   27.66
 -11   1  -4  522.80   28.40
 -11  -1  -4  551.19   28.70
 -11  -1  -4  492.10   26.93
 -11   1  -4  540.39   28.63
 -11   1  -4  565.99   27.14
  11   1   4  545.61   26.44
 -11   1  -5    4.76    6.71
 -11  -1  -5    0.29    4.84
 -11  -1  -5   -0.52    6.40
 -11   1  -5   -7.81    6.13
  11  -1   5   -2.67    6.30
 -11   1  -5   -2.03    5.52
  11   1   6   30.53    5.82
 -11   1  -6   35.26    7.50
  11  -1   6   29.16    7.27
 -11   1  -6   27.70    6.88
 -11   1  -6   23.43    5.97
  11   1   7    1.20    5.66
 -11   1  -7    1.77    6.82
  11  -1   7   -1.44    6.38
 -11  -1  -7    2.18    0.86
 -11   1  -7   -3.84    6.01
 -11   1  -7    1.19    5.58
 -11   1  -8    0.91    5.37
 -11   1  -8    0.85    5.64
  11   1   8    5.89    6.16
  11  -1   8   -0.34    6.60
  11   1   9    7.12    6.77
 -11   1  -9   11.01    6.69
 -11   1  -9    6.42    5.32
  11   1  10   67.83    9.70
 -11   1 -10   85.70    8.98
 -11   1 -11   14.05    7.78
  11  -2 -20    1.79   10.21
 -11  -2  20   13.40    9.82
  11   2 -20   28.40   10.32
  11  -2 -19    0.60    9.11
 -11  -2  19   -2.33   13.01
 -11  -2  19    6.02   10.10
 -11   2  19   -3.71   14.87
  11  -2 -18    4.81    9.49
 -11  -2  18   12.22   12.07
 -11   2  18    2.33   14.19
  11   2 -18   12.18    9.74
 -11   2  18   -5.53   12.62
 -11   2  18   -9.27   14.71
  11   2 -18   25.14    9.85
  11  -2 -17   30.41    9.23
 -11  -2  17   44.02   12.60
 -11   2  17   49.57   14.69
  11   2 -17   34.75   10.48
  11   2 -17   64.03    9.05
 -11  -2  17   59.92   12.28
 -11   2  17   35.02   14.62
 -11   2  17   25.34   13.52
  11  -2 -16   15.31    8.78
 -11  -2  16   30.57   10.62
 -11   2  16   -1.09   13.04
  11   2 -16   26.91    7.45
  11   2 -16   29.69    9.98
 -11  -2  16   35.90   11.45
 -11   2  16    6.39   12.72
 -11   2  16   20.08   12.08
  11  -2 -15   27.40    9.05
 -11  -2  15    8.45    9.89
 -11   2  15   33.63   13.10
  11   2 -15   10.97    8.35
  11   2 -15   27.88    7.03
 -11  -2  15   16.41   10.42
 -11   2  15    4.51   12.52
 -11   2  15   20.01   11.28
  11   2 -14    9.02    5.80
  11  -2 -14   11.06    9.18
 -11  -2  14   -4.08   10.07
 -11   2  14    9.09   11.10
  11   2 -14   15.46    8.29
  11  -2 -14   20.28   11.27
 -11  -2  14   10.64    9.70
 -11   2  14   -3.55   11.89
 -11   2  14   -0.90   10.98
  11  -2 -13   59.04    9.66
 -11  -2  13   59.45   10.28
  11   2 -13   66.88    7.60
  11   2 -13   54.44    8.59
  11  -2 -13   58.34   12.08
 -11  -2  13   72.12   11.86
 -11   2  13   44.37   13.02
 -11   2  13   47.53   11.65
 -11  -2  12    6.88    8.15
  11  -2 -12   18.62    8.58
  11   2 -12    9.39    7.41
 -11  -2  12   16.87   10.03
  11  -2 -12   35.51    9.61
  11   2 -12    5.23    5.02
 -11   2  12   -2.55   12.00
 -11   2  12    5.57   10.05
  11   2 -11  107.44    8.38
  11  -2 -11  111.10   11.85
  11   2 -11  105.11    9.88
 -11  -2  11  123.37   11.91
  11  -2 -11  128.15   12.52
 -11   2  11   77.97   13.87
  11  -2 -10   44.04    9.10
 -11   2  10   56.92   11.59
  11   2 -10   50.15    7.42
 -11  -2  10   75.37   10.76
  11  -2 -10   53.86    9.11
  11   2 -10   45.26    5.66
 -11   2  10   56.50   12.57
  11  -2  -9   49.60    7.05
 -11  -2   9   51.96    9.45
  11  -2  -9   54.97    9.34
 -11   2   9   58.26   11.51
  11   2  -9   39.87    6.86
 -11  -2   9   77.31    9.57
  11  -2  -9   59.56    9.20
 -11   2   9   55.67   12.25
 -11   2   8  189.99   16.70
 -11  -2   8  205.80   14.71
  11  -2  -8  201.32   13.14
 -11   2   8  196.60   16.59
  11   2  -8  202.15   12.61
  11  -2  -8  206.70   13.86
  11  -2  -7   29.90    6.28
 -11  -2   7   15.91    8.29
  11   2  -7   22.22    5.58
  11  -2  -7   18.06    7.19
  11  -2  -6  115.93    9.15
  11  -2  -6   98.37    9.02
 -11  -2   6   89.85   11.10
  11  -2  -6  121.81    9.93
 -11  -2   5  187.67   13.88
  11  -2  -5  201.57   14.51
  11  -2  -5  189.00   12.84
  11  -2  -5  193.44   12.97
 -11  -2   4  510.81   27.32
  11  -2  -4  488.07   27.28
 -11  -2   4  488.19   24.21
  11  -2  -4  508.87   26.37
 -11   2   4  466.07   28.06
  11  -2  -4  501.91   26.15
  11  -2  -4  507.62   25.20
 -11   2   3   95.51   10.82
 -11  -2   3   85.00    6.67
  11  -2  -3   76.97    8.50
 -11  -2   3   91.79   10.03
  11  -2  -3   81.56    7.13
  11  -2  -3   95.09   10.64
  11  -2  -3   87.77    8.00
 -11  -2   2  271.28   16.35
  11  -2  -2  247.05   16.73
  11  -2  -2  259.23   14.48
 -11  -2   2  259.47   14.47
  11  -2  -2  246.70   15.81
 -11   2   2  274.18   17.59
  11  -2  -2  255.42   14.95
 -11   2   1    9.27    7.75
 -11  -2   1   12.69    5.44
  11  -2  -1   16.12    6.78
 -11  -2   1   19.21    7.57
  11  -2  -1   24.03    9.10
 -11  -2   1   13.66    2.40
  11  -2  -1   15.23    5.45
 -11  -2   1   12.50    2.27
 -11  -2   0   12.06    5.78
 -11   2   0    1.33    8.00
 -11  -2   0   11.70    7.62
  11  -2   0   11.22    7.91
  11  -2   0    7.88    5.37
 -11   2  -1  100.02   10.64
  11  -2   1   94.19    7.15
 -11  -2  -1   95.86    9.50
  11  -2   1  120.59   10.99
  11  -2   1   86.53    7.80
 -11   2  -2   50.36    8.76
  11  -2   2   31.18    4.70
 -11  -2  -2   57.20    7.83
  11  -2   2   53.52    8.22
  11  -2   2   35.21    5.98
  11  -2   3   20.22    6.20
 -11   2  -3    9.72    6.82
  11  -2   3   15.83    7.41
 -11  -2  -3    8.60    5.87
  11  -2   4   21.95    6.04
 -11   2  -4   18.62    7.73
  11  -2   4   17.33    8.05
 -11  -2  -4   12.52    3.90
 -11  -2  -4   13.85    5.64
 -11  -2  -5    1.72    3.79
  11  -2   5   10.50    5.83
 -11  -2  -5    1.30    2.55
  11  -2   5    5.08    7.62
 -11   2  -5   -3.19    6.99
  11  -2   6   13.62    7.45
 -11   2  -6    8.90    7.02
  11  -2   7   17.03    8.26
 -11   2  -7   12.64    7.17
 -11   2  -8   -5.58    6.74
 -11   2  -8  -10.92    7.80
 -11   2  -8   -3.04    6.96
 -11   2  -9    1.35    8.96
 -11   2  -9    5.35    6.66
 -11   2  -9    6.39    7.52
  11  -2   9   11.08    8.31
 -11   2 -10   24.15    8.78
 -11   2 -11   11.79    9.34
 -11   3  18   -2.01   14.05
  11  -3 -18    2.53    9.80
  11   3 -18   -0.61    9.41
 -11   3  17   28.16   13.35
  11  -3 -17   -0.63    9.39
 -11  -3  17   31.26   12.44
  11   3 -17   17.26   10.40
 -11  -3  17   23.16   14.86
  11   3 -17   10.36    8.63
  11   3 -16    7.51    7.62
  11  -3 -16   18.51   10.24
 -11  -3  16   31.84   13.34
  11   3 -16    6.41    9.94
 -11  -3  16    3.99    9.90
 -11  -3  16   25.82   13.39
  11  -3 -16   26.65   13.10
 -11   3  15   11.86   12.17
 -11  -3  15    9.66   11.93
  11  -3 -15   14.27    9.90
  11   3 -15    4.01    8.31
 -11  -3  15    9.69   14.20
  11  -3 -15   25.26   11.64
 -11  -3  15    5.75    8.42
  11   3 -15    2.00    7.04
 -11   3  14   18.50   11.53
 -11  -3  14   22.36   11.35
  11  -3 -14   15.60    9.31
  11   3 -14   19.03    8.80
  11   3 -14   19.00    6.72
  11  -3 -14   45.02   11.97
 -11  -3  14   21.27    9.59
 -11   3  13   29.64   11.92
 -11  -3  13   16.93    9.97
  11  -3 -13   16.05   10.03
  11   3 -13   31.62    7.32
  11   3 -13    9.59    8.30
  11  -3 -13   15.56   10.93
 -11  -3  13    3.58    7.99
  11  -3 -12   40.46    8.70
 -11   3  12   28.99   10.88
  11   3 -12   15.11    6.20
  11  -3 -12   24.52   10.25
  11   3 -12   17.50    8.22
  11  -3 -12   35.76   11.00
  11  -3 -11    9.48    6.96
 -11   3  11   12.79   10.26
  11  -3 -11    8.71    9.81
  11  -3 -11    7.74    8.67
  11  -3 -10    1.70    6.19
 -11   3  10    9.80   11.17
 -11  -3  10   10.21    8.77
  11  -3 -10    9.28    8.77
  11  -3 -10   11.70    9.42
  11  -3  -9   33.84    7.44
 -11   3   9   28.62   10.82
 -11  -3   9   40.75    9.26
  11  -3  -9   14.27    9.06
  11  -3  -9   30.29    9.30
  11  -3  -8  137.70   11.46
 -11   3   8  139.77   14.42
 -11  -3   8  133.34   12.74
  11  -3  -8  143.71   13.56
  11  -3  -8  123.59   12.55
 -11  -3   7  166.71   13.21
  11  -3  -7  164.53   12.53
 -11   3   7  176.58   14.80
  11  -3  -7  131.93   13.95
  11  -3  -7  149.12   13.09
 -11  -3   6   45.21    8.97
  11  -3  -6   69.39    9.04
  11  -3  -5    2.05    6.43
 -11  -3   5   15.92    8.24
  11  -3  -5    2.06    6.26
  11  -3  -5    8.68    6.75
 -11  -3   4   37.43    4.82
  11  -3  -4   57.80    8.26
 -11  -3   4   43.36    4.12
 -11  -3   4   44.27    8.73
  11  -3  -4   50.11    9.54
  11  -3  -4   47.05    7.02
  11  -3  -4   46.44    7.79
 -11  -3   3    2.71    3.35
  11  -3  -3   -9.15    6.00
  11  -3  -3   -1.55    6.80
 -11  -3   3   -2.38    3.93
 -11  -3   3    8.76    7.16
  11  -3  -3   19.43    7.93
 -11   3   3   -2.40    9.03
  11  -3  -3   19.84    9.09
  11  -3  -3   10.85    6.63
  11  -3  -2   98.28    8.56
 -11  -3   2   88.89    6.28
  11  -3  -2   83.45    9.07
 -11  -3   2  104.01   10.14
  11  -3  -2  104.66   10.30
 -11   3   2   74.10   11.28
  11  -3  -2   98.85   11.82
 -11  -3   2  110.67   10.12
  11  -3  -2   94.38    9.51
 -11  -3   1  351.45   20.90
  11  -3  -1  382.08   22.51
 -11  -3   1  323.77   17.73
  11  -3  -1  376.43   19.93
  11  -3  -1  374.33   21.17
  11  -3  -1  365.02   21.50
 -11  -3   1  409.59   21.23
 -11   3   1  371.75   22.98
  11  -3  -1  374.82   20.72
  11  -3   0  142.25   11.93
 -11  -3   0  172.28   11.62
  11  -3   0  157.54   12.15
 -11  -3   0  144.97   12.02
 -11   3   0  140.20   13.26
 -11  -3   0  140.61    9.59
  11  -3   0  150.99   14.14
  11  -3   0  136.06   11.42
 -11  -3   0  148.62    8.79
 -11  -3  -1   47.93    5.55
  11  -3   1   56.29    8.82
 -11  -3  -1   50.15    8.61
  11  -3   1   35.29    6.62
 -11  -3  -1   52.07    7.04
 -11   3  -1   46.84    9.28
  11  -3   1   50.09   10.91
 -11  -3  -1   50.05    5.07
 -11  -3  -2  159.04   11.52
 -11  -3  -2  138.42    9.82
  11  -3   2  158.70   12.09
  11  -3   2  123.83    9.54
 -11  -3  -2  120.57    8.02
 -11   3  -2  142.83   13.27
  11  -3   2  165.59   14.03
 -11  -3  -3   41.11    5.58
  11  -3   3   43.42    8.40
  11  -3   3   42.17    6.42
 -11  -3  -3   40.04    7.64
 -11  -3  -3   34.10    3.73
 -11   3  -3   38.20    9.30
  11  -3   3   48.19   10.57
  11  -3   4   34.53    7.66
  11  -3   4   39.89    6.31
 -11  -3  -4   48.95    6.84
  11  -3   4   51.81   10.56
 -11   3  -4   30.39    9.74
 -11  -3  -4   39.12    5.13
  11  -3   5    2.99    6.49
 -11  -3  -5    5.70    3.12
  11  -3   5    7.80    9.32
 -11   3  -5  -10.16    8.87
  11  -3   6   51.46    8.10
  11  -3   6   61.97   11.58
 -11   3  -6   50.93    9.91
 -11   3  -7    7.02    9.17
  11  -3   7    8.92    7.55
  11  -3   7    2.60   10.09
 -11   3  -8   34.69    9.87
  11  -3   8   62.18   12.15
 -11   3  -9   25.76   10.13
  11  -4 -17   13.37   12.63
 -11   4  17   10.78   14.84
  11  -4 -16   34.30   12.12
 -11   4  15    2.14   13.41
  11  -4 -15    7.16   11.23
 -11  -4  14    3.55   12.07
 -11   4  14    2.12   13.32
  11  -4 -14   -0.71   11.22
  11  -4 -13   10.78   10.36
 -11   4  13   -4.18   13.09
  11  -4 -13    9.76   11.28
  11  -4 -13    4.83   11.95
  11  -4 -12   41.31   10.40
 -11  -4  12   59.91   12.64
 -11   4  12   77.01   14.46
 -11  -4  12   50.78   12.42
  11  -4 -12   57.02   12.19
  11  -4 -12   50.97   12.72
  11  -4 -11   76.62   10.85
 -11  -4  11   68.52   11.31
 -11  -4  11   44.82   10.90
  11  -4 -11   67.08   12.68
  11  -4 -11   67.51   12.23
  11  -4 -10   66.62   10.48
 -11  -4  10   48.34   10.72
 -11   4  10   60.61   13.39
 -11  -4  10   31.16    9.73
  11  -4 -10   43.58   11.28
  11  -4 -10   55.49   12.10
  11  -4  -9   -0.70    7.93
 -11  -4   9   -0.69    9.92
 -11   4   9    1.96   11.15
 -11  -4   9   -1.90    8.85
  11  -4  -9    7.72    9.70
  11  -4  -9    2.14    9.95
 -11  -4   8    5.94    9.44
  11  -4  -8   -1.42    8.17
 -11   4   8   -6.76   10.96
 -11  -4   8   -5.56    8.50
  11  -4  -8    4.93   10.22
  11  -4  -8   15.24    8.61
  11  -4  -7   -1.40    9.12
 -11  -4   7    7.53    8.68
 -11   4   7   -9.50   10.43
 -11  -4   7    8.10    9.59
  11  -4  -7   16.28    9.04
  11  -4  -7    6.05    9.11
  11  -4  -6   64.75    9.76
 -11  -4   6   47.82   10.02
 -11  -4   6   26.81    9.09
 -11   4   6   25.28   10.55
  11  -4  -6   59.77   10.86
  11  -4  -6   39.30   10.04
 -11  -4   5   13.72    7.81
  11  -4  -5   19.58    8.02
  11  -4  -5   24.25    9.17
 -11  -4   5   19.03    8.24
  11  -4  -5   13.11    7.50
 -11   4   5   13.89    9.27
  11  -4  -5   23.40    8.87
 -11  -4   4   23.58    7.98
  11  -4  -4   30.36    8.63
 -11  -4   4   19.36    3.17
  11  -4  -4   36.66    9.63
 -11  -4   4   26.64    8.13
  11  -4  -4   25.58    7.77
  11  -4  -4   31.57    8.56
 -11  -4   3   42.67    6.74
 -11  -4   3   38.55    8.64
  11  -4  -3   41.93    8.23
 -11  -4   3   32.93    8.51
  11  -4  -3   44.10   10.27
  11  -4  -3   67.85   11.52
  11  -4  -3   51.80    9.02
 -11  -4   2    6.05    5.22
 -11  -4   2   -4.28    5.73
 -11  -4   2    5.11    7.66
 -11  -4   2    2.72    6.82
  11  -4  -2    4.88    8.79
 -11   4   2   10.06    8.85
  11  -4  -2    8.88   10.14
  11  -4  -2   -1.28    7.49
  11  -4  -2    6.45    6.48
 -11  -4   1   24.07    5.64
 -11  -4   1   37.04    6.50
  11  -4  -1   29.95    7.74
 -11  -4   1   21.93    6.60
 -11  -4   1   22.95    8.58
  11  -4  -1   35.89    9.36
 -11   4   1   30.22    9.27
  11  -4  -1   21.68   10.22
  11  -4  -1   17.26    8.73
 -11  -4   0    5.40    5.83
 -11  -4   0   -2.30    5.48
 -11  -4   0    3.79    5.44
 -11  -4   0   20.10    7.95
  11  -4   0   23.33    9.15
 -11   4   0    3.67    8.98
  11  -4   0   21.97   10.63
  11  -4   0   -3.84    8.45
 -11  -4   0   -3.75    6.13
 -11  -4  -1    2.09    5.28
  11  -4   1   -6.38    7.75
 -11  -4  -1    9.97    7.54
  11  -4   1    1.37    8.35
  11  -4   1    4.95    6.96
 -11  -4  -1   10.63    5.23
 -11  -4  -1    7.94    5.75
 -11   4  -1    9.23    9.20
  11  -4   1   11.50   11.09
 -11  -4  -1   -2.75    6.07
 -11  -4  -2   15.79    6.86
 -11  -4  -2    9.77    7.62
  11  -4   2   -2.72    8.63
  11  -4   2    6.55    6.07
 -11   4  -2    4.63    8.87
  11  -4   2    6.18   10.94
 -11  -4  -2   12.60    6.15
 -11  -4  -2    5.66    5.39
  11  -4   3   58.98   10.78
 -11  -4  -3   85.04    9.19
  11  -4   3   68.75    8.12
 -11  -4  -3   57.49    7.32
  11  -4   3   90.98   13.74
 -11   4  -3   71.59   12.64
  11  -4   4    2.68    8.76
  11  -4   4    6.59    6.56
  11  -4   4   15.02   11.41
 -11   4  -4   -4.67   10.67
 -11   4  -5   24.28   10.65
  11  -4   5   32.37   10.54
  11  -4   5   42.47    8.12
  11  -4   5   43.00   12.93
  11  -4   6   -9.14    8.87
  11  -4   6    4.81   11.63
 -11   4  -7    7.40    9.80
  11  -4   7    4.84   13.46
  11  -5 -10   11.39   11.41
 -11   5  10    7.54   11.03
 -11  -5   9   31.28   11.21
  11  -5  -9   23.52   12.98
 -11  -5   9   20.39   12.46
 -11   5   9   19.25   11.33
  11  -5  -9   26.37   12.14
  11  -5  -9   38.15   11.76
 -11  -5   8   20.62   11.25
  11  -5  -8    0.88   11.95
 -11  -5   8   14.14   11.23
 -11   5   8    6.37   10.43
  11  -5  -8    7.25   12.29
  11  -5  -8   25.62   11.87
 -11  -5   7   11.55   11.23
 -11  -5   7   32.54   11.70
  11  -5  -7   12.39   10.52
 -11   5   7   34.82   11.96
  11  -5  -7   54.48   12.88
  11  -5  -7   34.85   12.84
 -11  -5   6   27.17   10.60
 -11  -5   6    8.76    9.83
  11  -5  -6   37.47   11.51
  11  -5  -6   13.44   10.41
 -11   5   6   20.99   11.05
  11  -5  -6   47.90   12.83
  11  -5  -6   34.65   12.02
 -11  -5   5   36.43   10.93
 -11  -5   5    7.73    9.30
  11  -5  -5   42.34   11.31
 -11   5   5   33.50   11.35
  11  -5  -5   29.12   11.68
  11  -5  -5   19.79   10.46
  11  -5  -5   26.69   11.94
 -11  -5   4    5.42    9.08
  11  -5  -4    6.63    9.75
 -11  -5   4    1.23    9.08
  11  -5  -4    7.61   11.36
 -11   5   4   18.84   10.37
  11  -5  -4    3.22   11.06
 -11  -5   3   59.19   10.82
 -11  -5   3   58.02    8.54
 -11  -5   3   49.09   10.41
  11  -5  -3   72.98   11.91
  11  -5  -3   99.02   13.54
  11  -5  -3   62.68   10.94
  11  -5  -3   58.84   12.25
 -11  -5   2   16.52    9.12
  11  -5  -2   22.19   10.16
  11  -5  -2   18.53   11.04
 -11  -5   2    9.73    6.69
  11  -5  -2   17.35   11.89
  11  -5  -2   18.63   11.59
 -11  -5   2    0.79    9.65
 -11  -5   1   41.30    9.83
  11  -5  -1   42.92   12.26
  11  -5  -1   36.73   10.10
 -11  -5   1   40.51    8.61
  11  -5  -1   27.42   12.03
 -11   5   1   28.68   10.63
 -11  -5   1   20.28    7.93
  11  -5  -1   29.32   10.88
 -11  -5   0   39.51    9.74
  11  -5   0   44.68   13.21
 -11  -5   0   19.29    8.40
  11  -5   0   22.12   11.25
  11  -5   1   10.12   11.74
  11  -5   1    2.81    8.34
  11  -5   2   19.40   11.85
  11  -5   2   18.87    8.41
  11  -5   3   35.93   11.97
  11  -5   3   45.29    9.82
  11  -5   4   -4.98   11.51
 -12   0  20    3.18    9.63
 -12   0  20   16.84   12.05
 -12   0  19    0.74    9.25
 -12   0  19    7.49   12.74
 -12   0  19    8.77   11.01
 -12   0  18   31.62    8.88
 -12   0  18   19.81   12.43
 -12   0  18   46.45   11.66
 -12   0  17   -3.18    7.89
 -12   0  17    3.59   10.23
 -12   0  17    7.07    9.22
  12   0 -16   75.44    9.69
 -12   0  16   62.06    9.45
 -12   0  16   56.91   12.52
 -12   0  16   82.14   11.29
  12   0 -15   -2.34    7.28
 -12   0  15   -2.68    6.72
 -12   0  15    7.54   10.38
 -12   0  15   23.68    9.95
  12   0 -14   71.23    9.59
 -12   0  14   54.02    8.16
 -12   0  14   42.91   10.92
 -12   0  14   67.92   10.20
  12   0 -13   -2.84    8.31
 -12   0  13    1.31    8.93
 -12   0  13   12.82    7.53
  12   0 -12   47.48    8.88
 -12   0  12   45.49   10.43
 -12   0  12   65.31    8.65
  12   0 -11    4.36    4.66
 -12   0  11   -4.39    8.77
  12   0 -10  531.82   26.05
 -12   0  10  491.43   27.76
  12   0  -9    1.54    6.97
  12   0  -9    0.26    4.62
 -12   0   9    3.98    6.58
  12   0  -8  454.41   24.88
  12   0  -8  448.31   22.80
 -12   0   8  428.21   23.92
  12   0  -7   14.54    7.66
  12   0  -7   -1.70    4.94
 -12   0   7    4.63    8.08
 -12   0   7   -0.37    5.82
  12   0  -6   24.05    7.79
 -12   0   6   59.53    8.50
 -12   0   6   46.76    9.36
 -12   0   6   24.67    6.13
  12   0  -5    3.21    7.42
 -12   0   5    1.40    7.53
 -12   0   5   18.53    9.22
  12   0  -4  432.04   22.65
 -12   0   4  393.06   23.55
 -12   0   4  379.77   22.26
  12   0  -3    4.39    6.91
 -12   0   3    3.30    6.53
  12   0  -3    0.60    1.75
 -12   0   3   12.99    8.17
  12   0  -2  144.29   10.99
 -12   0   2  112.88   10.04
 -12   0   2  124.02   12.69
  12   0  -1    0.84    7.00
 -12   0   1    2.12    8.25
 -12   0   0  119.78    9.32
  12   0   0   95.73    9.32
 -12   0   0   85.62   10.83
 -12   0  -1   15.85    6.79
  12   0   1    0.51    1.85
 -12   0  -1   -5.59    6.29
  12   0   1    7.94    6.79
 -12   0  -2   -1.45    6.43
  12   0   2    4.67    2.90
 -12   0  -2    7.39    7.12
  12   0   2    2.31    6.50
  12   0   3    4.28    3.65
 -12   0  -3   -2.34    6.29
 -12   0  -3   -0.49    6.60
  12   0   3    5.17    6.65
  12   0   4   39.00    5.22
 -12   0  -4   34.87    7.62
  12   0   4   26.30    6.87
 -12   0  -4   18.63    6.83
 -12   0  -4   32.23    5.09
 -12   0  -5    0.55    4.70
  12   0   5    6.96    5.26
  12   0   5    2.60    5.90
 -12   0  -5    6.06    7.08
 -12   0  -5    4.70    5.57
 -12   0  -6  123.32    8.58
  12   0   6   99.88    8.67
  12   0   6  106.01    8.85
 -12   0  -6  105.61   10.46
 -12   0  -6   92.11    8.64
  12   0   7    9.21    6.08
  12   0   7   -2.97    5.17
 -12   0  -7    4.93    8.12
 -12   0  -7    1.02    5.13
 -12   0  -7    0.34    5.10
  12   0   8   23.48    6.67
 -12   0  -8   16.26    8.75
 -12   0  -8   19.02    6.12
 -12   0  -9    9.33    5.92
 -12   0  -9    1.37    8.85
 -12   1  21   -7.01   14.48
 -12  -1  20    3.75    9.62
 -12  -1  20    1.52   12.57
 -12   1  20   -2.58   12.96
  12  -1 -19    0.62    9.00
 -12   1  19    1.02   12.62
 -12  -1  19   -0.74   11.80
 -12  -1  19   -6.70   11.79
 -12   1  19   15.23   14.68
 -12   1  19   14.73   12.23
  12  -1 -18    6.74    9.27
 -12  -1  18    5.13    7.95
 -12  -1  18   13.74   12.21
 -12   1  18    9.98   12.59
 -12  -1  18    3.94   10.12
 -12   1  18   14.07   10.84
  12  -1 -17   -3.65    9.79
 -12  -1  17    1.17    7.82
 -12  -1  17    7.03   11.01
 -12   1  17   12.28   12.33
 -12  -1  17    3.70   10.29
 -12   1  17    0.89   10.06
  12  -1 -16   12.14    9.11
 -12  -1  16   22.99    7.25
 -12   1  16   39.69   12.41
 -12  -1  16   25.88   10.84
 -12   1  16   22.58   11.69
 -12  -1  16   16.64    9.70
 -12   1  16   25.43   10.41
 -12  -1  15   12.57    6.00
  12  -1 -15   -2.39    8.50
 -12  -1  15   -1.32   10.27
 -12   1  15    3.97   11.59
 -12  -1  15    5.19    9.48
 -12   1  15    4.81   10.11
 -12  -1  14    2.17    5.63
  12  -1 -14   -5.27    8.95
 -12  -1  14    3.85    9.74
 -12   1  14    0.78   10.65
 -12  -1  14    6.06    8.36
 -12   1  14   -3.03    8.88
 -12  -1  13  159.25   11.04
  12  -1 -13  164.41   13.18
 -12   1  13  168.32   15.68
 -12  -1  13  119.16   13.27
 -12   1  13  194.10   16.39
 -12  -1  13  131.10   12.83
 -12   1  13  147.95   13.95
 -12  -1  12    5.73    5.26
  12  -1 -12    3.94    7.91
 -12   1  12    2.38   10.30
 -12  -1  12   -6.62    8.49
 -12  -1  12    6.78    7.58
 -12   1  12   14.31   10.00
 -12   1  12    7.38    8.91
 -12  -1  11    7.02    4.69
  12  -1 -11    2.21    7.54
 -12   1  11   25.09    9.18
 -12  -1  11   -0.48    7.43
 -12   1  11    8.12   10.05
 -12   1  11    1.89    8.60
  12   1 -10   -2.73    7.31
  12   1 -10   10.10    3.96
 -12  -1  10    5.50    4.15
 -12   1  10   15.96    8.78
 -12  -1  10   10.10    6.81
 -12   1  10   13.77   10.19
 -12   1  10   -0.59    7.71
  12   1  -9    4.77    6.88
  12  -1  -9   12.26    5.39
 -12   1   9   10.40    9.17
 -12  -1   9   12.15    8.02
  12   1  -9   10.47    5.58
  12   1  -9    9.30    2.73
 -12  -1   9   13.95    6.80
 -12   1   9   -1.66    7.84
  12   1  -8   27.36    7.97
  12  -1  -8   21.31    5.65
 -12   1   8   26.51    9.01
 -12  -1   8   10.25    8.73
  12   1  -8   24.40    5.65
  12  -1  -8   35.89    8.09
 -12  -1   8   10.03    6.39
 -12   1   8   12.27    7.74
  12  -1  -7  569.05   32.80
 -12  -1   7  614.37   33.03
  12  -1  -7  630.20   31.54
 -12   1   7  620.42   33.92
  12   1  -7  602.60   30.63
  12  -1  -7  631.36   31.97
 -12  -1   7  637.26   31.34
  12   1  -7  663.22   33.03
  12   1  -6   -6.39    7.94
  12  -1  -6    9.51    5.98
  12  -1  -6   -4.52    7.59
 -12   1   6   -0.60    8.78
 -12  -1   6    6.77    8.75
  12   1  -6    4.77    4.02
  12  -1  -6   15.25    6.98
 -12  -1   6   -1.94    5.47
 -12   1   6    2.03    8.96
  12  -1  -5    4.18    1.90
  12   1  -5   29.31    7.84
  12  -1  -5   16.03    3.57
  12  -1  -5    9.43    6.09
  12  -1  -5    8.30    8.10
 -12   1   5    2.88    8.31
  12   1  -5   17.46    3.55
 -12  -1   5   15.39    8.75
  12  -1  -5   15.93    6.12
 -12  -1   5   11.80    4.97
 -12   1   5   11.31    9.24
  12   1  -4    9.31    6.97
  12  -1  -4    4.10    3.22
  12  -1  -4   -0.78    5.76
  12  -1  -4    9.93    7.97
 -12   1   4  -17.27    9.12
 -12  -1   4    7.52    8.44
  12  -1  -4   16.27    5.48
 -12  -1   4   12.55    3.51
 -12   1   4    3.90    8.81
  12   1  -3   99.45    9.96
  12  -1  -3  108.72   10.72
 -12  -1   3  106.70   11.61
  12  -1  -3  112.24    7.88
 -12   1   3   98.20   12.60
  12  -1  -2  142.82   11.96
 -12  -1   2  190.33   13.15
 -12  -1   2  151.78   10.52
 -12   1   2  175.99   13.41
  12  -1  -2  157.10    9.32
  12   1  -2  156.12   11.98
  12  -1  -1  471.03   26.37
 -12  -1   1  492.54   26.47
 -12  -1   1  512.21   25.31
 -12   1   1  521.18   27.39
 -12  -1   1  481.95   24.66
  12  -1  -1  473.56   23.46
  12   1  -1  472.28   25.90
  12  -1   0  161.76   12.20
 -12  -1   0  182.64   12.74
 -12  -1   0  165.28   11.25
 -12   1   0  187.81   13.56
 -12  -1   0  146.59    9.55
  12   1   0  132.24   11.23
  12   1   1    1.46    6.28
 -12   1  -1    4.67    7.61
 -12  -1  -1    2.51    5.92
  12  -1   1    4.32    7.33
 -12  -1  -1    6.20    7.33
  12   1   2   66.24    7.34
 -12   1  -2   44.27    8.58
 -12  -1  -2   66.92    8.29
  12  -1   2   53.22    8.48
 -12  -1  -2   52.89    3.31
 -12  -1  -2   53.84    8.15
  12  -1   3  375.89   21.37
 -12  -1  -3  380.65   18.72
 -12   1  -3  379.07   21.71
 -12  -1  -3  379.02   20.97
 -12  -1  -3  400.07   21.90
 -12   1  -3  351.61   22.21
  12   1   3  396.29   20.37
 -12  -1  -4  102.77    6.80
 -12  -1  -4   91.92    8.62
 -12   1  -4  106.43   10.44
 -12  -1  -4   93.94   10.50
  12  -1   4   84.86    9.91
 -12   1  -4  101.45    9.65
 -12   1  -5   16.95    7.76
 -12  -1  -5    9.40    7.55
 -12  -1  -5    5.15    5.11
 -12  -1  -5   12.03    4.65
  12  -1   5   22.72    6.76
 -12   1  -5    5.99    6.52
 -12   1  -6   24.05    8.00
 -12  -1  -6   17.62    8.14
 -12   1  -6   14.56    6.07
  12  -1   6   18.22    7.20
 -12  -1  -6   19.66    4.01
 -12   1  -6   21.14    6.60
 -12   1  -7    7.61    8.26
 -12  -1  -7   -3.10    8.18
  12  -1   7    3.43    6.71
 -12   1  -7   -0.41    5.80
 -12  -1  -7    1.35    0.94
 -12   1  -7    4.57    5.78
 -12   1  -8   -2.36    5.76
 -12   1  -8   -1.34    7.94
 -12  -1  -8    1.96    8.56
 -12   1  -8    4.39    6.63
 -12   1  -9  166.55   14.35
 -12  -1  -9  174.85   14.74
 -12   1  -9  136.42   11.94
 -12   1 -10   14.46    7.33
  12  -2 -20    1.27   10.67
 -12  -2  20   -0.78   10.41
 -12   2  20   -2.96   17.18
  12   2 -19   13.67    9.63
 -12  -2  19   20.78   10.82
  12  -2 -19   -1.92   10.56
 -12  -2  18   50.75   10.23
  12  -2 -18   17.96   10.46
 -12  -2  18   26.95   12.47
 -12   2  18   18.00   14.06
  12   2 -18   20.58    9.94
 -12  -2  18   49.37   14.01
  12   2 -18   29.34    8.66
 -12   2  18   28.71   14.16
 -12   2  18   33.58   15.30
 -12  -2  17   12.11    8.04
  12  -2 -17   -2.54    9.22
 -12  -2  17   -0.77   12.40
 -12   2  17    1.16   14.18
  12   2 -17    6.96    7.21
  12   2 -17    2.70    9.21
 -12  -2  17    5.62   11.64
 -12   2  17  -11.80   14.77
 -12   2  17   -4.23   12.97
  12   2 -16   50.59    7.91
  12  -2 -16   26.36   10.24
 -12  -2  16   58.16   12.51
 -12   2  16   43.99   14.54
  12   2 -16   44.13    9.75
 -12  -2  16   36.92   11.44
 -12   2  16   18.50   14.07
 -12   2  16   18.11   12.25
  12  -2 -15    9.96    9.77
 -12  -2  15   -4.40   10.03
 -12   2  15   -7.63   11.81
  12   2 -15    6.64    9.00
  12   2 -15   16.39    6.16
 -12  -2  15   17.60   10.88
 -12   2  15    5.77   13.70
 -12   2  15  -15.29   12.13
  12   2 -14   -0.38    5.91
  12  -2 -14    0.62    9.15
 -12  -2  14   -4.26    9.47
  12   2 -14   11.34    8.48
  12  -2 -14    2.27   11.79
 -12  -2  14   13.92   10.50
 -12   2  14   -1.90   13.21
 -12   2  14    3.62   10.65
  12  -2 -13   53.68   10.32
 -12  -2  13   25.29    9.64
  12   2 -13   31.73    8.08
  12   2 -13   49.73    6.70
  12  -2 -13   50.55   11.70
 -12  -2  13   38.18   10.46
 -12   2  13   35.38   13.72
  12   2 -12  138.75    9.53
  12  -2 -12  136.34   13.02
 -12   2  12  124.97   14.75
  12   2 -12  126.02   10.87
  12  -2 -12  139.55   13.66
 -12  -2  12  127.82   12.92
 -12   2  12  125.88   16.47
  12  -2 -11    6.13    8.53
 -12   2  11   13.07   11.11
  12   2 -11   -2.26    6.15
 -12  -2  11   15.50    8.85
  12   2 -11    0.51    4.57
  12  -2 -11    7.43    9.86
 -12   2  11    1.78   12.40
 -12  -2  10   71.84   10.32
  12  -2 -10   65.85   10.05
 -12   2  10   66.44   12.78
  12   2 -10   67.24    7.94
 -12  -2  10   88.25   10.33
  12  -2 -10   88.56   10.89
 -12   2  10   50.32   13.16
  12  -2  -9    3.70    5.94
 -12  -2   9   -7.04    7.80
  12  -2  -9    5.25    8.35
 -12   2   9   -5.19   10.47
  12   2  -9   -2.21    5.51
 -12  -2   9   -3.37    7.70
  12  -2  -9   13.30    8.07
 -12   2   9   -0.84   11.77
 -12   2   8   19.61   10.82
 -12  -2   8   41.49    3.58
  12  -2  -8   48.95    6.86
 -12  -2   8   39.05    8.86
 -12   2   8   31.43   10.40
  12   2  -8   42.22    6.53
 -12  -2   8   54.92    8.85
  12  -2  -8   40.01    7.76
  12  -2  -7    4.08    5.47
  12  -2  -7    3.54    5.53
 -12  -2   7   16.38    9.02
 -12  -2   7   19.07    7.50
  12  -2  -7    9.04    6.49
  12  -2  -6  102.04    8.69
  12  -2  -6   97.48    9.48
 -12  -2   6  100.34   10.74
  12  -2  -6  100.34   10.89
 -12  -2   6   95.48    9.34
  12  -2  -6  104.86    9.74
 -12  -2   5  344.96   21.00
  12  -2  -5  352.07   21.43
  12  -2  -5  339.79   19.25
  12  -2  -5  327.93   19.82
 -12   2   5  356.32   22.58
 -12  -2   5  349.38   18.86
  12  -2  -5  346.34   19.57
  12  -2  -5  370.34   18.62
 -12   2   4   34.81    8.99
  12  -2  -4   26.97    7.51
  12  -2  -4   26.51    5.42
 -12  -2   4   38.17    9.10
  12  -2  -4   23.69    8.68
 -12  -2   4   45.92    5.63
  12  -2  -4   29.40    6.68
  12  -2  -3  125.73    8.63
 -12   2   3  116.05   12.65
 -12  -2   3  121.87    8.59
  12  -2  -3  127.20   10.51
 -12  -2   3  118.05   11.33
  12  -2  -3   97.70   11.55
 -12  -2   3  140.78    7.78
  12  -2  -3  101.24    9.38
 -12   2   2    4.29    8.23
 -12  -2   2   12.14    5.16
  12  -2  -2   24.57    7.26
 -12  -2   2    6.16    7.91
  12  -2  -2   10.83    8.74
  12  -2  -2   15.11    5.46
 -12   2   1   25.73    8.66
 -12  -2   1   34.93    6.28
 -12  -2   1   36.54    8.61
  12  -2  -1   29.03    9.52
  12  -2  -1   33.20    5.85
 -12  -2   0   59.83    7.44
 -12   2   0   56.85   10.25
  12  -2   0   53.07    5.76
 -12  -2   0   60.53    9.20
  12  -2   0   62.73   10.11
  12  -2   0   46.24    6.24
 -12  -2  -1  172.32   12.03
 -12  -2  -1  163.63   11.59
 -12   2  -1  149.55   13.73
  12  -2   1  145.90    9.28
  12  -2   1  159.31   13.06
  12  -2   1  156.99   10.25
 -12  -2  -2    7.94    6.94
 -12   2  -2    4.18    7.54
  12  -2   2   -1.00    2.90
  12  -2   2   -1.60    7.62
 -12  -2  -2    3.50    6.75
  12  -2   2    5.54    4.82
 -12   2  -3   91.51   10.20
  12  -2   3   80.54   10.67
 -12  -2  -3   95.30    9.13
  12  -2   3   83.74    7.16
  12  -2   4   -4.22    8.04
 -12   2  -4    4.76    7.15
 -12  -2  -4   -1.37    3.67
 -12  -2  -4   -0.93    6.17
  12  -2   4   -0.27    4.72
 -12  -2  -5   37.42    3.98
  12  -2   5   50.41    9.41
  12  -2   6   10.94    8.26
 -12   2  -6   14.07    6.92
  12  -2   7   29.78    9.01
 -12   2  -7   19.20    7.89
 -12   2  -8    9.67    7.45
  12  -2   8   -6.02    8.13
  12  -3 -18    2.70   10.69
 -12   3  17   -5.42   13.96
  12  -3 -17   12.16   10.54
  12   3 -17    5.44    8.75
 -12   3  16   11.87   14.32
  12  -3 -16    2.04   10.47
 -12  -3  16   28.09   13.65
  12   3 -16    7.74   10.46
  12  -3 -16   28.83   14.03
 -12  -3  16   10.28   10.03
  12   3 -16   15.27    7.68
 -12   3  15   38.44   14.89
  12  -3 -15   23.48   10.49
 -12  -3  15   28.72   12.53
  12   3 -15   18.77    9.91
  12   3 -15   15.12    7.18
 -12  -3  15   15.08   14.20
  12  -3 -15   27.35   12.71
 -12  -3  15    8.94   10.07
 -12   3  14    9.48   13.01
 -12  -3  14   -3.24   11.10
  12  -3 -14    3.46    9.58
  12   3 -14    1.74    6.04
  12   3 -14   -5.73    8.69
 -12  -3  14   20.98   13.97
  12  -3 -14   13.18   12.06
 -12  -3  14    3.85    8.86
 -12   3  13   -4.13   12.05
  12  -3 -13   -1.37    9.51
  12   3 -13   -3.62    7.98
  12  -3 -13   11.38   10.78
 -12   3  12   17.20   12.36
  12  -3 -12   18.12   10.84
  12  -3 -12   11.28    9.67
 -12   3  11   33.60   13.12
  12  -3 -11   62.42    8.44
 -12  -3  11   65.63   11.49
  12  -3 -11   58.09   10.45
  12  -3 -11   38.02   10.23
  12  -3 -10   -2.24    7.06
 -12   3  10   13.49   10.97
 -12  -3  10   13.48    9.72
  12  -3 -10    5.90    9.27
  12  -3 -10   11.17    9.50
  12  -3  -9  108.71   10.19
 -12   3   9  104.98   13.69
 -12  -3   9   97.26   12.56
  12  -3  -9  109.82   12.74
  12  -3  -9   91.06   11.62
  12  -3  -8   79.41    9.01
 -12   3   8   97.87   13.29
 -12  -3   8   82.57   11.18
  12  -3  -8   99.79   12.18
  12  -3  -8   64.26    9.93
  12  -3  -7   58.07    8.37
 -12   3   7   75.07   12.04
  12  -3  -7   78.87    9.26
 -12  -3   7   60.71   11.19
  12  -3  -7   53.53    9.69
  12  -3  -6   20.77    8.07
  12  -3  -6   13.75    6.56
 -12  -3   6    1.72    8.26
  12  -3  -6   -0.54    7.45
 -12  -3   5   38.63    3.61
  12  -3  -5   34.19    7.82
 -12  -3   5   44.51    9.18
  12  -3  -5   40.75   10.30
  12  -3  -5   38.08    6.76
  12  -3  -5   48.97    8.23
  12  -3  -4    6.61    5.83
 -12  -3   4    5.17    1.97
 -12  -3   4    8.80    3.55
  12  -3  -4    0.55    6.67
 -12   3   4   -5.15    9.26
 -12  -3   4    7.58    8.12
  12  -3  -4    9.07    9.97
  12  -3  -4   11.33    6.79
 -12  -3   3  171.86   13.82
  12  -3  -3  185.66   12.06
 -12  -3   3  179.36   10.69
  12  -3  -3  184.69   13.57
 -12   3   3  183.08   16.16
  12  -3  -3  188.91   15.41
  12  -3  -3  168.20   12.78
 -12  -3   2  302.72   18.78
  12  -3  -2  269.90   19.07
  12  -3  -2  294.57   16.93
  12  -3  -2  294.74   18.24
 -12  -3   2  297.77   16.17
 -12   3   2  291.84   20.63
  12  -3  -2  269.34   17.42
  12  -3  -1   85.89   10.14
 -12  -3   1  107.66    8.81
  12  -3  -1   96.85   10.66
 -12  -3   1  111.47   11.32
 -12   3   1   92.90   11.79
  12  -3  -1  112.54   12.44
 -12  -3   1  116.07   10.48
  12  -3  -1   93.30    9.41
  12  -3   0   27.45    8.24
  12  -3   0   42.92    8.93
 -12  -3   0   41.62    8.61
 -12   3   0   21.53    8.91
 -12  -3   0   37.66    6.77
  12  -3   0   43.86   11.10
 -12  -3   0   29.90    4.11
  12  -3   0   34.66    7.59
  12  -3   1    8.49    7.41
 -12  -3  -1   18.26    7.89
  12  -3   1    1.29    5.15
 -12  -3  -1   -1.92    5.29
 -12   3  -1   11.52    8.60
  12  -3   1   28.86    9.87
 -12  -3  -1    1.46    2.08
 -12  -3  -1    2.28    3.33
  12  -3   1    6.88    6.50
  12  -3   2   14.50    7.50
 -12  -3  -2    6.59    4.69
  12  -3   2    4.16    5.08
 -12  -3  -2    3.68    7.40
 -12   3  -2    9.02    7.99
  12  -3   2   26.97    9.82
  12  -3   2    4.11    6.37
 -12  -3  -3   31.35    5.54
  12  -3   3   45.96    8.16
  12  -3   3   39.43    6.09
 -12  -3  -3   39.43    7.47
  12  -3   3   63.30   11.51
 -12   3  -3   43.36    9.87
 -12  -3  -4   92.53    7.52
  12  -3   4  112.02   10.74
  12  -3   4  122.23   12.93
 -12  -3  -4  100.30    8.97
 -12   3  -4  124.82   12.73
  12  -3   5   71.70    8.94
  12  -3   5   84.64   12.50
 -12   3  -5   66.12   11.41
  12  -3   6   17.19   11.04
 -12   3  -6    6.53   10.01
 -12   3  -7   18.65    9.78
  12  -3   7   17.12   10.94
 -12   3  -8    6.38   10.20
 -12   4  15    8.09   14.76
 -12   4  14   -5.72   13.24
  12  -4 -14    6.71   11.46
  12  -4 -13   28.81   10.52
 -12   4  13    6.76   14.04
  12  -4 -13   12.50   12.07
  12  -4 -13   25.25   11.99
  12  -4 -12   64.60   10.26
 -12  -4  12   56.31   12.78
 -12   4  12   47.60   14.17
  12  -4 -12   60.02   12.74
 -12  -4  12   42.94   11.40
  12  -4 -12   38.13   12.74
  12  -4 -11   16.56    9.47
 -12  -4  11   10.24   11.56
 -12   4  11    3.27   13.22
  12  -4 -11   26.42   12.07
 -12  -4  11   21.09    9.77
  12  -4 -11   17.33   12.02
  12  -4 -10    3.50    7.83
 -12  -4  10   -1.04   10.26
  12  -4 -10   10.29   11.66
  12  -4 -10    2.92   11.55
  12  -4  -9    4.16    8.18
 -12  -4   9   26.36   10.37
 -12   4   9    3.15   11.42
 -12  -4   9    3.05    9.56
  12  -4  -9    3.69   10.37
  12  -4  -9    4.98   10.24
  12  -4  -8   15.32    9.37
 -12  -4   8   13.58   10.63
 -12   4   8    4.14   10.82
 -12  -4   8    5.96   11.12
  12  -4  -8   23.55   11.09
  12  -4  -8    9.08    9.47
  12  -4  -7    3.46    8.31
 -12  -4   7   14.91    9.35
 -12  -4   7   25.10    9.80
  12  -4  -7    5.92   10.94
  12  -4  -7   24.32    9.30
  12  -4  -6  111.01   12.38
 -12  -4   6  114.26   12.47
  12  -4  -6   96.63   10.79
 -12   4   6   76.16   12.98
 -12  -4   6  122.05   12.99
  12  -4  -6  107.03   11.15
  12  -4  -5   50.30    9.82
 -12  -4   5   35.90    9.81
 -12  -4   5   29.32    9.11
  12  -4  -5   30.81    8.28
  12  -4  -5   43.55    9.25
  12  -4  -4    1.57    6.87
 -12  -4   4    1.24    5.58
  12  -4  -4    0.66    8.34
 -12  -4   4   -3.32    2.82
 -12  -4   4    4.06    9.24
  12  -4  -4    7.88    8.97
 -12  -4   4   -7.53    8.24
  12  -4  -4   18.76   10.04
  12  -4  -4    0.64    8.36
 -12  -4   3    4.08    5.16
  12  -4  -3    3.27    8.21
 -12  -4   3    2.84    8.37
 -12  -4   3    2.05    4.42
  12  -4  -3   26.14    9.30
 -12  -4   3    1.56    7.83
 -12   4   3    9.71    9.07
  12  -4  -3   17.41   10.55
  12  -4  -3   -1.01    6.86
  12  -4  -3   17.02    8.24
 -12  -4   2    4.82    4.99
  12  -4  -2   -4.59    7.85
 -12  -4   2    5.00    7.04
 -12  -4   2    8.89    9.48
  12  -4  -2   11.86    8.35
 -12   4   2   10.62    9.22
  12  -4  -2   16.71   10.66
  12  -4  -2   -0.50    6.81
  12  -4  -2   -0.63    7.57
 -12  -4   1    9.11    6.51
 -12  -4   1   15.73    8.63
  12  -4  -1    8.98    8.54
 -12   4   1   29.84   11.19
  12  -4  -1   15.30   11.29
  12  -4  -1    7.49    8.78
 -12  -4   0   10.07    5.65
 -12  -4   0   17.25    9.58
  12  -4   0   12.32    8.68
 -12   4   0   16.32    9.69
  12  -4   0   23.90   10.77
 -12  -4   0   11.80    6.27
  12  -4   0    5.62    8.03
 -12  -4   0   20.47    5.39
 -12  -4  -1   17.49    6.36
  12  -4   1   26.44    9.37
 -12  -4  -1   28.97    9.50
  12  -4   1   12.70    6.33
  12  -4   1   10.08   12.70
  12  -4   1    8.75    8.02
  12  -4   2   34.75    9.71
 -12  -4  -2   20.25    8.51
  12  -4   2   13.00    6.86
  12  -4   2   24.25   12.72
 -12   4  -2   12.54   10.62
 -12  -4  -2   21.60    5.98
  12  -4   2    8.12    8.73
  12  -4   3   13.18    9.80
  12  -4   3   17.30   12.31
  12  -4   4    6.49    9.50
  12  -4   4   16.60   12.37
 -12   4  -5   -4.83    9.95
  12  -4   5   30.98   13.04
 -12   4  -6   -0.96   10.42
  12  -4   6   14.36   12.42
  12  -5  -9    6.02   10.88
  12  -5  -8   25.43   12.96
 -12  -5   8   22.63   11.42
  12  -5  -8   16.57   10.54
 -12  -5   7    2.22   11.77
  12  -5  -7    2.60   12.89
 -12  -5   7   -0.72   11.06
  12  -5  -7   12.15   11.14
 -12  -5   6   22.31   11.03
 -12  -5   6   39.19   12.07
  12  -5  -6   23.92   10.93
  12  -5  -6   44.48   11.99
  12  -5  -5   11.63   10.21
 -12  -5   5   19.15   10.80
 -12  -5   5   32.31   11.58
  12  -5  -5   41.08   11.52
  12  -5  -5   20.57   10.87
 -12  -5   4    7.55    9.37
 -12  -5   4   36.22   10.72
  12  -5  -4   40.73   12.34
  12  -5  -4   23.29    9.79
  12  -5  -4    7.13   10.56
 -12  -5   3    7.01    9.81
  12  -5  -3    9.70    9.23
 -12  -5   3   14.12   10.63
  12  -5  -3   25.30   11.53
  12  -5  -3   -0.79   10.46
  12  -5  -2   24.46    9.30
 -12  -5   2   20.36    9.71
  12  -5  -2   22.72   11.80
  12  -5  -2    8.69   10.20
 -12  -5   2   13.70    9.34
 -12  -5   1    8.20    9.73
  12  -5  -1   14.25   12.24
 -12  -5   1    4.42    8.15
  12  -5  -1    0.79   11.00
  12  -5   0   32.43   13.52
  12  -5   0   29.75    9.54
  12  -5   0   37.50   12.33
  12  -5   1   -5.78   11.31
  12  -5   1   -1.68    9.44
  12  -5   1  -12.81   12.02
 -13   0  20   -7.74   10.88
 -13   0  19   57.87   13.80
 -13   0  18    3.33    8.43
 -13   0  18   14.01   12.72
 -13   0  18   16.67   10.61
  13   0 -17   41.12    9.63
 -13   0  17   22.12   11.76
 -13   0  17   44.48   11.20
  13   0 -16   -6.32    8.14
 -13   0  16   -7.46   11.03
 -13   0  16   23.22    9.71
  13   0 -15   -3.70    8.89
 -13   0  15  -12.42   10.63
 -13   0  15    9.87    9.03
  13   0 -14  -15.16    8.26
 -13   0  14    5.01   10.83
 -13   0  14   20.49    8.94
  13   0 -13  116.43   11.76
  13   0 -13  122.13    8.79
 -13   0  13  117.02   13.80
 -13   0  13  137.00   12.20
  13   0 -12    1.18    8.19
  13   0 -12    7.47    5.09
 -13   0  12    7.55    9.54
 -13   0  12    3.99    6.88
  13   0 -11  283.46   15.67
 -13   0  11  283.52   17.78
  13   0 -10   -2.81    4.82
 -13   0  10    0.49    6.43
  13   0  -9   48.52    8.83
  13   0  -9   40.83    5.94
 -13   0   9   40.38    7.65
  13   0  -8   -4.24    7.61
  13   0  -8   -1.81    5.34
 -13   0   8    3.83    8.22
 -13   0   8   -2.96    5.92
  13   0  -7   29.37    8.35
 -13   0   7   28.94    8.53
 -13   0   7   27.23    9.26
 -13   0   7    7.32    6.21
  13   0  -6    1.00    7.30
 -13   0   6   12.71    8.28
 -13   0   6   -1.24    9.06
 -13   0   6   -0.34    5.46
  13   0  -5  955.58   46.43
 -13   0   5  908.78   47.42
 -13   0   5  896.21   46.25
  13   0  -4    6.68    7.71
 -13   0   4    4.77    7.56
 -13   0   4    4.85    9.16
  13   0  -3  265.37   16.79
 -13   0   3  275.09   18.23
 -13   0   3  261.87   16.50
  13   0  -2    2.29    6.55
 -13   0   2  -14.84    7.13
 -13   0   2    2.38    9.23
  13   0  -1    1.34    7.09
 -13   0   1  -14.02    8.99
 -13   0   0   -6.06    6.44
  13   0   0    7.85    7.41
 -13   0   0  -11.32    8.96
  13   0   1  222.38   15.03
 -13   0  -1  237.13   15.10
 -13   0  -1  249.49   16.02
 -13   0  -2    5.31    6.90
 -13   0  -2    3.51    6.81
  13   0   2    3.28    7.07
  13   0   3   45.56    4.53
 -13   0  -3   41.24    7.95
  13   0   3   47.27    7.74
 -13   0  -3   41.51    8.43
  13   0   4   -0.24    4.00
  13   0   4   -6.34    6.43
 -13   0  -4    6.22    8.31
 -13   0  -4   -0.50    6.99
  13   0   5    4.14    4.42
  13   0   5    6.22    6.31
 -13   0  -5   -5.36    7.40
 -13   0  -5    1.38    4.91
 -13   0  -5    9.21    6.01
  13   0   6    4.86    5.49
  13   0   6    5.54    6.02
 -13   0  -6    4.39    8.25
 -13   0  -6   -2.91    5.59
 -13   0  -6   -5.29    5.31
 -13   0  -7    7.89    8.37
 -13   0  -7   13.10    5.66
 -13   0  -8   -0.69    8.23
 -13  -1  20   -3.68   10.29
  13  -1 -19   -1.32   10.16
 -13  -1  19   -0.68    8.51
 -13  -1  19   14.94   12.79
 -13   1  19   20.65   13.36
  13  -1 -18    7.78    9.32
 -13  -1  18   -8.05    7.74
 -13   1  18   19.43   11.87
 -13  -1  18    9.18   11.76
 -13   1  18    1.77   13.21
 -13  -1  18    8.01   12.21
 -13   1  18   21.70   12.47
  13  -1 -17   -7.78    9.94
 -13  -1  17    7.34    7.29
 -13   1  17   14.84   10.99
 -13  -1  17   13.45   11.98
 -13   1  17    7.82   12.01
 -13  -1  17    3.01   10.25
 -13   1  17   10.78   11.10
  13  -1 -16    5.80    9.80
 -13  -1  16   -3.07    6.19
 -13  -1  16   11.59   10.88
 -13   1  16   11.99   11.54
 -13  -1  16   -4.92   10.40
 -13   1  16   -3.41    9.91
 -13  -1  15   13.40    6.17
  13  -1 -15   23.45    9.22
 -13  -1  15   21.03   10.01
 -13   1  15   22.81   12.76
 -13  -1  15   22.41    9.73
 -13   1  15   29.11   10.40
 -13  -1  14   33.04    6.66
  13  -1 -14   41.69    9.89
 -13   1  14   48.16   11.42
 -13  -1  14   33.41   10.71
 -13   1  14   39.93   12.78
 -13  -1  14   23.26    8.99
 -13   1  14   19.90    9.87
 -13  -1  13   12.14    5.72
  13  -1 -13   12.17    9.30
 -13   1  13    9.45   10.43
 -13  -1  13   17.23    9.57
 -13   1  13   12.28   10.97
 -13  -1  13   15.36    7.90
 -13   1  13    9.41    9.08
 -13  -1  12    4.23    5.06
  13  -1 -12   23.29    8.66
 -13   1  12   16.51   10.05
 -13  -1  12    8.94    7.49
 -13   1  12   18.51   11.72
 -13   1  12   -0.68    7.82
  13   1 -11   -2.94    7.66
  13   1 -11    2.00    3.69
  13  -1 -11    1.17    7.80
 -13   1  11    3.17   10.12
 -13  -1  11   -7.73    7.29
 -13   1  11    3.18    9.61
 -13   1  11   -3.87    8.17
  13   1 -10    2.30    7.33
  13  -1 -10    0.75    5.58
 -13   1  10    1.52    9.89
  13   1 -10    5.86    2.78
 -13  -1  10   -1.84    9.46
  13   1 -10    6.49    5.93
 -13  -1  10   -1.77    6.60
 -13   1  10   18.81   11.85
 -13   1  10   -4.25    8.24
  13   1  -9    7.26    7.53
  13  -1  -9    8.42    5.83
 -13   1   9    6.59    9.59
 -13  -1   9    5.38    8.56
  13   1  -9   13.88    6.19
 -13  -1   9   -2.82    6.83
 -13   1   9   -2.83    7.95
  13  -1  -8  319.05   18.96
 -13  -1   8  295.07   19.22
  13  -1  -8  300.79   17.10
 -13   1   8  286.19   19.66
  13   1  -8  304.51   16.34
 -13  -1   8  258.95   16.90
  13   1  -8  324.47   19.10
  13   1  -7   51.68    9.04
  13  -1  -7   45.93    6.95
  13  -1  -7   56.83    9.49
 -13   1   7   59.60   10.11
 -13  -1   7   39.93    9.72
  13   1  -7   36.71    5.54
 -13  -1   7   41.81    6.82
 -13   1   7   43.48   11.10
  13  -1  -6    0.89    2.77
  13   1  -6   -8.31    7.78
  13  -1  -6    0.40    5.63
  13  -1  -6    3.78    8.09
 -13   1   6   -6.41    8.15
  13   1  -6   -0.41    3.65
 -13  -1   6   -2.27    9.17
 -13  -1   6    7.82    4.62
 -13   1   6   -9.57    9.75
  13  -1  -5   23.16    3.28
  13   1  -5   21.24    8.01
  13  -1  -5   16.89    6.35
  13  -1  -5   18.42    8.24
 -13   1   5   17.49    8.94
 -13  -1   5   33.98    9.67
 -13  -1   5   23.39    4.46
 -13   1   5   15.15   10.53
  13   1  -4   -2.47    7.30
  13  -1  -4    3.66    2.61
  13  -1  -4   -5.12    7.91
 -13  -1   4   -7.14    8.79
 -13   1   4  -16.22   10.49
 -13   1   3   -2.05   10.19
  13   1  -3    5.75    7.70
  13  -1  -3    8.22    2.87
  13  -1  -3   17.47    8.25
 -13  -1   3   23.76    9.14
  13  -1  -2  675.59   36.32
 -13  -1   2  736.74   36.91
 -13  -1   2  677.17   34.98
 -13   1   2  784.45   38.06
 -13  -1   2  679.74   35.00
  13   1  -2  706.75   36.18
 -13   1   1    9.17    8.14
  13   1  -1    7.91    7.16
 -13  -1   1   11.20    5.89
 -13  -1   1   14.15    5.50
  13  -1  -1    5.73    6.65
 -13  -1   1   23.83    8.49
  13   1   0    8.76    6.87
 -13   1   0   25.75    8.39
 -13  -1   0   24.25    6.65
  13  -1   0   25.41    7.11
 -13  -1   0   11.21    4.66
 -13  -1   0   33.02    8.65
  13   1   1   17.49    6.38
 -13   1  -1   26.08    8.29
 -13  -1  -1   20.16    6.55
  13  -1   1   18.08    7.97
 -13  -1  -1   10.40    7.57
  13   1   2   22.84    6.66
 -13  -1  -2   19.76    6.84
 -13   1  -2    7.55    7.87
  13  -1   2   12.35    7.47
 -13  -1  -2    9.85    7.97
 -13  -1  -3   91.19    8.95
  13   1   3   77.13    8.00
 -13  -1  -3   78.90    9.73
 -13   1  -3   93.17   10.23
  13  -1   3   93.33    9.97
  13  -1   4  179.68   12.72
 -13   1  -4  155.33   13.15
 -13  -1  -4  161.19   13.10
 -13  -1  -4  162.38   11.63
 -13   1  -4  189.29   13.28
 -13  -1  -4  161.40    9.25
 -13   1  -5   13.82    8.17
 -13  -1  -5   20.29    8.32
 -13  -1  -5    2.82    5.90
  13  -1   5   12.20    7.31
 -13  -1  -5   16.86    4.43
 -13   1  -5   23.81    7.07
 -13  -1  -6    1.02    4.75
 -13   1  -6    6.98    8.41
 -13  -1  -6   -1.89    8.53
  13  -1   6    8.95    7.85
 -13  -1  -6    3.10    3.88
 -13   1  -6    1.68    6.45
 -13   1  -7   30.13    9.93
 -13   1  -7   10.96    6.67
 -13  -1  -7   16.54    9.45
 -13  -1  -8   43.07   11.17
 -13   1  -8   56.12    8.52
 -13   2  19   -2.09   15.01
  13  -2 -18   12.94   11.38
  13   2 -18    1.40   10.88
  13   2 -18   10.07    7.52
 -13   2  18  -11.51   15.95
 -13  -2  17   42.40    8.51
  13  -2 -17   10.81   10.31
 -13   2  17   40.81   14.78
 -13  -2  17   21.69   12.09
  13   2 -17   21.43    7.41
  13   2 -17   20.00   10.21
 -13  -2  17   37.27   12.86
 -13   2  17    7.28   16.60
 -13   2  17    7.39   13.20
 -13  -2  16   14.10    7.65
  13   2 -16   11.53    6.35
  13  -2 -16   24.70   10.84
 -13  -2  16   14.07   12.03
 -13   2  16    4.66   13.30
  13   2 -16   13.91    9.75
 -13  -2  16   21.85   12.07
 -13   2  16   12.40   15.67
 -13   2  16   -2.01   13.28
 -13  -2  15   12.15    6.57
  13  -2 -15   11.27    9.98
 -13  -2  15   27.23   11.44
  13   2 -15    5.97    8.44
 -13  -2  15    7.15    9.67
  13   2 -15   14.38    6.46
 -13   2  15  -12.26   15.34
 -13   2  15    7.65   11.30
 -13  -2  14   33.48    6.52
  13  -2 -14   19.18   10.17
  13   2 -14   21.77    6.13
 -13  -2  14   37.38   11.31
  13   2 -14   29.18    8.16
 -13  -2  14   49.30   10.82
 -13   2  14   25.19   14.32
 -13  -2  13   69.12    7.27
  13  -2 -13   54.82   10.46
 -13   2  13   73.46   14.03
  13   2 -13   61.92    9.27
  13  -2 -13   70.86   11.90
 -13  -2  13   65.30   10.98
 -13   2  13   42.62   14.11
  13   2 -13   57.39    6.82
 -13  -2  12    3.08    5.03
  13  -2 -12   23.08    9.55
 -13   2  12   -5.08   11.15
  13   2 -12   -2.92    6.70
  13   2 -12    3.67    4.62
  13  -2 -12    6.71    9.98
 -13  -2  12   10.09    9.76
 -13   2  12   -4.86   12.60
 -13  -2  11   67.95    6.42
  13  -2 -11   70.51   10.92
 -13  -2  11   84.76   11.87
 -13   2  11   60.80   13.17
  13   2 -11   78.33    8.49
  13  -2 -11   70.92   10.78
 -13  -2  11   69.92   10.59
 -13   2  11   63.78   13.69
  13  -2 -10  120.47   13.61
 -13  -2  10  161.69   13.48
 -13   2  10  144.75   15.51
  13   2 -10  134.61   10.60
 -13  -2  10  164.45   12.74
  13  -2 -10  147.82   12.79
 -13   2  10  117.90   15.26
  13  -2  -9    5.96    5.67
  13  -2  -9    7.05    6.55
 -13  -2   9   11.65    8.76
 -13   2   9  -12.70   11.60
  13   2  -9    1.44    5.40
 -13  -2   9   11.88    7.11
  13  -2  -9   12.11    8.16
  13  -2  -8  146.59   10.70
 -13  -2   8  146.88   13.91
 -13  -2   8  161.59   11.96
  13  -2  -8  160.72   12.55
  13  -2  -7   72.69    7.83
  13  -2  -7   92.38    9.53
 -13  -2   7   87.16   11.12
  13  -2  -7   63.59   10.08
 -13  -2   7   80.14    8.53
  13  -2  -7   91.28    9.49
 -13   2   6   43.16   10.16
  13  -2  -6   32.95    6.14
  13  -2  -6   18.64    7.18
 -13  -2   6   17.90    8.34
  13  -2  -6   37.80   10.21
  13  -2  -6   30.03    5.42
 -13  -2   6   34.14    6.37
  13  -2  -6   33.61    7.19
  13  -2  -5   96.93    7.69
 -13   2   5  108.84   12.67
  13  -2  -5  102.48    8.37
  13  -2  -5   99.09    9.61
 -13  -2   5   88.13   11.00
  13  -2  -5   91.83   11.14
 -13  -2   5   91.52    7.41
  13  -2  -5   88.90    9.38
 -13   2   4   12.76    9.28
  13  -2  -4   15.28    6.97
 -13  -2   4    3.77    7.63
  13  -2  -4    6.36    9.16
  13  -2  -4    3.34    4.74
 -13  -2   4    0.75    3.65
  13  -2  -4   -3.12    6.02
 -13   2   3   10.91   10.00
 -13  -2   3   -0.56    4.56
  13  -2  -3  -11.61    6.97
 -13  -2   3    5.29    8.30
  13  -2  -3    6.92    8.41
  13  -2  -3    1.62    6.25
 -13   2   2   -0.77    8.36
 -13  -2   2    6.94    5.66
  13  -2  -2   -2.29    9.07
 -13  -2   2    3.12    8.77
  13  -2  -2    4.53    5.78
 -13   2   1   53.49   10.53
 -13  -2   1   77.05    7.78
  13  -2  -1   62.55   10.15
 -13  -2   1   53.04    9.35
  13  -2  -1   48.38    6.58
 -13  -2   0   55.32    7.78
 -13   2   0   46.48   10.29
  13  -2   0   34.69    4.63
  13  -2   0   63.71    9.84
 -13  -2   0   70.28    9.11
  13  -2   0   69.59    6.16
 -13  -2  -1   59.60    8.02
 -13   2  -1   46.73    9.94
  13  -2   1   55.48    9.91
  13  -2   1   36.11    4.13
 -13  -2  -1   51.46    8.92
  13  -2   1   66.76    5.90
 -13  -2  -2   26.41    7.51
 -13   2  -2   28.81    8.43
  13  -2   2   33.41    9.69
 -13  -2  -2   27.99    7.86
  13  -2   2   33.74    4.79
 -13  -2  -3    8.59    7.71
  13  -2   3   -0.55    8.32
 -13   2  -3   11.65    7.63
 -13  -2  -3    0.60    1.76
  13  -2   3    1.49    3.73
 -13  -2  -3    5.16    7.00
 -13  -2  -4   39.00    6.73
 -13  -2  -4   56.10    9.08
  13  -2   4   31.92    9.08
 -13   2  -4   39.52    9.04
 -13  -2  -4   27.58    4.92
 -13  -2  -5   17.57    8.70
  13  -2   5   21.29   10.29
 -13   2  -5   19.20    8.88
 -13  -2  -6   75.30   10.86
  13  -2   6   78.18   11.36
 -13   2  -6   59.71    9.77
 -13  -2  -7   15.43    9.69
 -13   2  -7   -1.38    7.64
 -13   3  17   -1.16   13.31
 -13   3  16   17.33   14.78
  13  -3 -16   -3.61   10.87
  13   3 -16    9.14    9.72
 -13  -3  16   22.32   14.79
 -13   3  15   -3.43   12.78
  13  -3 -15   13.15   11.36
 -13  -3  15   11.43   13.10
  13   3 -15    0.67    9.69
  13  -3 -15   -3.57   13.83
 -13  -3  15   22.94   13.74
 -13  -3  15    7.22    9.50
  13  -3 -14   31.48   11.57
  13   3 -14   21.74   10.04
 -13  -3  14   11.72   12.89
  13  -3 -14   16.91   13.70
 -13   3  13   53.24   14.93
  13  -3 -13   33.40   11.50
 -13  -3  13   47.18   13.47
  13  -3 -13   65.64   12.53
 -13   3  12   14.12   13.27
 -13  -3  12   30.88   11.69
  13  -3 -12   15.73   11.15
 -13  -3  12   32.44   12.80
  13  -3 -12   32.61   11.43
  13  -3 -11    2.29    8.02
 -13   3  11   15.92   12.44
 -13  -3  11   21.43   10.81
  13  -3 -11    2.80   10.06
  13  -3 -11   12.06    9.74
  13  -3 -10   22.70    8.05
 -13   3  10   39.29   12.83
 -13  -3  10   42.44   11.21
  13  -3 -10   24.26    9.86
  13  -3 -10   37.63    9.57
  13  -3  -9   12.29    6.85
 -13   3   9    3.02   10.43
 -13  -3   9   33.90    9.96
  13  -3  -9   19.24   10.00
  13  -3  -9    3.58    8.29
  13  -3  -8   34.79    7.52
 -13   3   8   47.10   10.94
  13  -3  -8   47.95    9.41
 -13  -3   8   42.49   10.04
  13  -3  -8   37.07    9.01
  13  -3  -7   79.35    9.07
  13  -3  -7   86.21    8.96
  13  -3  -7   94.95   11.11
 -13  -3   7   98.57   12.29
  13  -3  -7   75.86   10.11
  13  -3  -6  104.90    9.84
  13  -3  -6  105.28   11.50
 -13  -3   6   74.59   12.11
  13  -3  -6  103.81   12.37
  13  -3  -6  111.92    9.33
  13  -3  -6   78.15   10.52
  13  -3  -5    8.34    5.83
  13  -3  -5   -0.58    7.94
 -13   3   5    0.93   10.52
 -13  -3   5   16.59    9.53
  13  -3  -5   19.71    9.76
  13  -3  -5    4.62    7.38
  13  -3  -4  125.10    9.29
 -13  -3   4  105.44    7.52
  13  -3  -4  118.48   11.42
 -13   3   4  116.84   14.11
 -13  -3   4  131.32   12.70
  13  -3  -4  131.02   13.29
  13  -3  -4  136.13   10.44
  13  -3  -3   55.72    7.24
 -13  -3   3   49.62    5.95
  13  -3  -3   55.01    9.15
 -13   3   3   30.05   10.80
 -13  -3   3   47.12    9.73
  13  -3  -3   43.89   11.08
  13  -3  -3   46.05    6.99
 -13  -3   2   25.13    5.70
  13  -3  -2   25.41    8.00
 -13   3   2   13.49   10.39
 -13  -3   2   19.38    9.01
  13  -3  -2   31.10   10.35
  13  -3  -2   15.96    6.69
 -13  -3   1    0.37    5.72
  13  -3  -1    7.91    7.52
 -13   3   1    7.09    9.70
 -13  -3   1    4.70    8.11
  13  -3  -1    2.70    9.85
 -13  -3   1   -1.31    5.85
  13  -3  -1    7.17    6.13
 -13  -3   1    4.46    2.77
 -13  -3   0   41.23    7.43
  13  -3   0   41.71    6.31
 -13  -3   0   51.55    9.47
 -13   3   0   55.02   10.01
  13  -3   0   61.37   11.62
 -13  -3   0   64.13    8.43
  13  -3   0   52.30    7.57
 -13  -3  -1    6.13    6.44
  13  -3   1   14.45    5.22
 -13  -3  -1   18.20    5.96
 -13  -3  -1    8.06    7.90
 -13   3  -1   19.06    8.91
  13  -3   1   24.28   10.96
  13  -3   1   18.13    7.22
 -13  -3  -2   44.87    6.66
 -13  -3  -2   73.08   10.08
 -13   3  -2   56.00   10.72
  13  -3   2   72.15   11.90
  13  -3   2   38.37    7.14
 -13  -3  -3   87.06    7.97
  13  -3   3  126.68   13.64
 -13   3  -3  106.27   12.82
 -13  -3  -3  123.20   10.00
  13  -3   3   87.77    9.41
  13  -3   4   38.39   11.77
 -13   3  -4    5.97    8.64
  13  -3   5   32.28   11.53
 -13   3  -5    7.66   10.51
  13  -3   6    8.71   11.07
 -13   3  -6  -11.88   10.74
  13  -4 -13   23.96   10.22
 -13   4  13   -2.43   14.95
  13  -4 -12   13.19    9.31
 -13   4  12   16.71   12.99
  13  -4 -12   26.19   12.29
  13  -4 -12   15.72   11.92
  13  -4 -11    6.37    8.86
 -13  -4  11   17.96   12.05
 -13   4  11    1.17   12.19
  13  -4 -11   23.77   12.60
 -13  -4  11    8.95   11.06
  13  -4 -11   21.12   11.33
  13  -4 -10   15.88    9.39
 -13  -4  10   17.11   11.18
 -13   4  10   13.80   13.17
  13  -4 -10    9.24   11.58
 -13  -4  10    8.84   10.78
  13  -4 -10   21.98   10.94
  13  -4  -9   26.51    9.14
 -13  -4   9   23.74   11.35
 -13   4   9   19.19   12.47
  13  -4  -9   25.49   12.40
 -13  -4   9   17.41   11.21
  13  -4  -9   23.44   10.93
  13  -4  -8   23.11    8.64
  13  -4  -8   28.23   10.05
 -13  -4   8   17.73   10.77
 -13   4   8   11.08   12.45
  13  -4  -8    8.49   12.35
 -13  -4   8   20.29   11.24
  13  -4  -8    6.21   10.31
  13  -4  -7   81.95   10.52
  13  -4  -7   56.15   10.53
 -13  -4   7   84.78   12.29
 -13   4   7   64.21   13.70
  13  -4  -7   75.01   10.62
 -13  -4   7   77.02   13.22
  13  -4  -7   61.02   11.68
  13  -4  -6   48.67   10.95
 -13  -4   6   61.85   11.44
 -13  -4   6   63.20   13.22
  13  -4  -6   56.16    8.92
  13  -4  -6   45.30   10.43
  13  -4  -5    3.22    8.09
  13  -4  -5    4.18    9.18
 -13  -4   5    6.39    9.13
 -13  -4   5   -2.87    9.74
  13  -4  -5   10.07   11.32
  13  -4  -5    7.61    8.89
  13  -4  -4    4.82    8.46
 -13  -4   4    8.10    9.32
 -13  -4   4    3.59    9.39
 -13   4   4    2.07    9.34
  13  -4  -4    4.66   11.83
  13  -4  -4    9.32    8.84
  13  -4  -3   39.29    9.13
 -13  -4   3   42.62   10.18
 -13  -4   3   50.58   10.32
 -13   4   3   36.92   11.27
  13  -4  -3   42.90   11.30
  13  -4  -3   25.92    8.08
  13  -4  -3   27.10    9.39
  13  -4  -2    7.61    8.43
 -13  -4   2   21.63    5.94
 -13  -4   2   18.08    7.58
  13  -4  -2   40.14    9.87
 -13  -4   2   23.04    9.68
  13  -4  -2   26.52    7.69
 -13   4   2   15.25    9.66
  13  -4  -2   35.29   11.93
  13  -4  -2   28.72    8.73
 -13  -4   1   59.70    8.89
  13  -4  -1   46.63   10.29
 -13  -4   1   56.97    7.45
  13  -4  -1   62.31   10.77
 -13   4   1   43.42   11.59
  13  -4  -1   69.56   12.30
  13  -4  -1   42.32    8.75
 -13  -4   0   13.94    6.34
  13  -4   0   36.74   10.89
 -13  -4   0   35.47   10.09
  13  -4   0   15.26    7.16
  13  -4   0   32.49   12.82
 -13   4   0    9.04    9.50
  13  -4   0   16.83    8.43
 -13  -4  -1    5.37    6.37
  13  -4   1    8.69   10.12
 -13  -4  -1    2.53    9.29
  13  -4   1   -2.58    6.47
  13  -4   1   32.64   12.97
  13  -4   1   -0.60    8.78
  13  -4   2   15.75    9.32
  13  -4   2   15.17   13.43
 -13   4  -2   -7.03   11.63
  13  -5  -8    5.99   11.38
  13  -5  -7   12.00   11.21
  13  -5  -7   14.48   10.81
  13  -5  -6    2.10   11.00
 -13  -5   6   15.79   12.52
 -13  -5   6   17.03   11.22
  13  -5  -6    9.43   10.71
 -13  -5   5    5.31   11.61
 -13  -5   5   -5.49   11.63
  13  -5  -5    9.31   11.51
 -13  -5   4   15.84   12.14
  13  -5  -4   22.38   10.85
 -13  -5   3   31.83   10.66
  13  -5  -3   26.31   11.22
  13  -5  -3   26.82   11.14
 -13  -5   2    8.28   11.43
  13  -5  -2    4.62   10.54
  13  -5  -2   19.13   12.39
  13  -5  -1   24.80    9.55
 -14   0  18   28.88   12.61
 -14   0  18   34.37   11.95
  14   0 -17   -4.05   10.13
 -14   0  17   24.22   11.26
 -14   0  17   19.06   11.05
  14   0 -16   63.12   11.23
 -14   0  16  101.39   13.63
 -14   0  16   75.61   11.70
  14   0 -15   -0.65    9.02
  14   0 -15    2.85    5.01
 -14   0  15   12.42   11.60
 -14   0  15   19.68    8.69
  14   0 -14   83.02   11.89
  14   0 -14  131.66    8.92
 -14   0  14  129.50   14.44
 -14   0  14  112.31   11.91
  14   0 -13   -4.42    8.79
  14   0 -13    3.46    4.98
 -14   0  13   16.43    9.81
 -14   0  13   14.87    8.02
  14   0 -12   71.31    6.87
 -14   0  12   81.35   12.36
 -14   0  12   80.20   10.07
  14   0 -11    4.15    5.45
 -14   0  11   18.02    7.24
  14   0 -10   51.48    8.76
  14   0 -10   33.04    5.87
 -14   0  10   31.70    7.75
  14   0  -9    6.34    7.76
  14   0  -9   -4.46    5.46
 -14   0   9   23.91   10.13
 -14   0   9    8.41    9.21
 -14   0   9    2.84    6.37
  14   0  -8   99.73   10.76
 -14   0   8  102.03   10.82
 -14   0   8  113.31   13.03
 -14   0   8   95.46    9.55
  14   0  -7    2.18    8.05
 -14   0   7   20.20    8.19
 -14   0   7    7.52    9.95
 -14   0   7   -1.97    6.10
  14   0  -6  269.41   17.25
 -14   0   6  241.78   18.44
 -14   0   6  269.71   17.42
  14   0  -5    2.60    7.91
 -14   0   5    4.34    7.32
 -14   0   5   12.10   10.06
  14   0  -4   53.33    8.84
 -14   0   4   56.20    9.18
  14   0  -4   43.28    3.07
 -14   0   4   58.54   11.18
  14   0  -3    6.96    8.21
 -14   0   3  -11.20    7.41
 -14   0   3   -7.33    9.74
  14   0  -2   -2.43    6.31
 -14   0   2  -11.14   10.26
  14   0  -1   -0.48    6.96
 -14   0   1  -21.75   10.24
  14   0   0  262.63   17.08
 -14   0   0  281.28   18.16
 -14   0  -1    5.96    7.34
 -14   0  -1   -3.03    6.79
  14   0   1    2.71    7.08
 -14   0  -2  113.35   11.63
  14   0   2  138.01   11.08
 -14   0  -2  145.12   11.88
  14   0   3    0.47    2.77
  14   0   3    3.78    7.18
 -14   0  -3    0.58    7.65
 -14   0  -3    2.79    7.22
  14   0   4   12.79    3.89
  14   0   4   20.18    7.52
 -14   0  -4   16.53    8.60
 -14   0  -4    7.51    6.71
  14   0   5    3.63    6.63
 -14   0  -5   -3.86    8.79
 -14   0  -5    8.85    6.73
 -14   0  -6   81.85   12.42
  14  -1 -18   -6.86   10.62
 -14  -1  18   -4.81    7.76
 -14  -1  18    1.62   12.19
  14   1 -18    4.57   10.12
 -14   1  18    5.62   13.30
 -14  -1  18   -0.81   12.37
 -14   1  18    2.85   11.59
  14  -1 -17   13.04   11.07
 -14  -1  17    8.18    7.11
 -14  -1  17   37.21   13.47
 -14   1  17   38.72   13.93
 -14  -1  17    7.63   11.57
 -14   1  17   17.20   11.25
  14  -1 -16    6.82   10.01
 -14  -1  16   -9.43    6.74
 -14  -1  16    8.46   11.44
 -14   1  16   -5.46   12.35
 -14  -1  16   -0.72    9.97
 -14   1  16    7.75   11.01
  14  -1 -15  -10.73    9.55
 -14  -1  15   -8.93    6.36
 -14   1  15    9.56   11.18
 -14  -1  15   -0.75   11.02
 -14   1  15    6.29   12.23
 -14  -1  15    1.33    9.23
 -14   1  15   -7.37   10.65
 -14  -1  14    8.27    6.28
  14  -1 -14   19.12    9.60
 -14   1  14   28.64   10.92
 -14  -1  14   22.49   10.32
 -14   1  14   24.80   12.02
 -14  -1  14    6.83    9.48
 -14   1  14   10.12    9.58
  14  -1 -13   24.49    8.49
 -14   1  13   52.62   12.11
 -14  -1  13   39.57   10.65
  14   1 -13   40.23    5.66
  14   1 -13   48.12    8.24
 -14   1  13   55.00   13.33
 -14  -1  13   36.30    8.95
 -14   1  13   32.47    9.45
  14  -1 -12   31.74    6.57
  14  -1 -12   12.65    8.49
 -14   1  12   12.06   10.26
  14   1 -12   24.32    4.53
  14   1 -12   22.50    6.92
 -14  -1  12    9.61    8.31
 -14   1  12   22.45   11.94
 -14   1  12   18.88    8.69
  14   1 -11   -4.93    8.51
  14   1 -11    3.94    2.73
  14  -1 -11    3.62    5.68
 -14   1  11   14.96   10.16
  14   1 -11    1.65    6.24
 -14  -1  11   -5.40    7.32
 -14   1  11   14.46   10.79
 -14   1  11   -6.60    8.59
  14   1 -10    2.41    7.94
  14  -1 -10   -3.25    5.91
 -14   1  10    6.42    9.92
 -14  -1  10    9.90    9.28
  14   1 -10    2.59    5.82
 -14  -1  10   -4.04    6.98
  14   1  -9   83.88   10.31
  14  -1  -9   80.51    8.27
  14  -1  -9   52.99    9.53
 -14   1   9   83.75   11.79
 -14  -1   9   94.30   11.46
  14   1  -9   82.29    7.63
 -14  -1   9   70.64    8.41
  14   1  -8   48.13    9.18
  14  -1  -8   46.75    7.35
  14  -1  -8   48.84    9.18
 -14   1   8   39.24   10.20
  14   1  -8   50.17    6.37
 -14  -1   8   52.60   10.50
 -14  -1   8   44.51    7.17
 -14   1   8   35.30   11.86
  14  -1  -7  133.78    7.55
  14   1  -7  133.95   12.16
  14  -1  -7  143.57   10.73
  14  -1  -7  127.54   12.40
 -14   1   7  113.24   12.47
  14   1  -7  113.17    8.46
 -14  -1   7  150.96   13.61
 -14  -1   7  147.72    9.92
 -14   1   7  125.43   14.63
  14   1  -6   32.80    9.16
  14  -1  -6   27.42    7.52
  14  -1  -6   29.84    8.53
 -14   1   6   31.19   10.24
  14   1  -6   26.92    4.15
 -14  -1   6   39.56   10.16
 -14  -1   6   36.18    5.38
 -14   1   6   31.80   12.05
  14   1  -5   -2.13    8.28
  14  -1  -5   -4.50    9.03
 -14   1   5   -5.37    9.51
 -14  -1   5   -4.28    9.34
 -14   1   5  -11.68   11.40
 -14  -1   5   -3.29    3.62
  14   1  -4   17.11    8.29
  14  -1  -4   13.21    7.98
 -14   1   4   -3.80   11.68
  14  -1  -3  403.82   22.14
 -14  -1   3  418.91   22.66
 -14   1   3  437.48   23.48
 -14  -1   3  431.41   20.72
  14   1  -3  433.28   21.77
 -14   1   2  138.06   12.53
  14  -1  -2   93.91    6.27
  14   1  -2  114.72   10.61
  14  -1  -2  129.55   11.49
 -14  -1   2  117.82    9.63
 -14  -1   2  123.55   12.00
 -14   1   1   12.09    8.63
  14   1  -1    0.93    7.22
 -14  -1   1    6.68    6.11
  14  -1  -1    8.30    7.93
 -14  -1   1    5.85    5.28
 -14  -1   1   13.84    9.56
  14   1   0    0.44    6.81
 -14   1   0   12.48    7.95
 -14  -1   0   16.72    7.14
  14  -1   0   -2.56    7.38
 -14  -1   0    0.57    8.23
  14   1   1    8.25    6.77
 -14   1  -1    1.37    8.55
 -14  -1  -1   13.07    7.11
  14  -1   1   17.65    8.36
 -14  -1  -1    2.73    8.55
  14   1   2    9.89    6.52
 -14  -1  -2    8.03    7.49
 -14   1  -2   12.24    8.40
  14  -1   2    9.95    8.14
  14  -1   3  321.61   20.36
 -14  -1  -3  356.60   20.96
 -14  -1  -3  354.00   20.13
 -14   1  -3  350.63   21.73
  14   1   3  332.03   18.81
 -14  -1  -4    6.51    6.26
 -14  -1  -4    0.60    7.82
  14  -1   4    6.26    8.05
 -14   1  -4    6.40    7.58
 -14   1  -5    9.63    8.91
 -14  -1  -5   12.11    9.04
  14  -1   5    9.42    7.51
 -14   1  -6   10.79    9.16
 -14  -1  -6   18.75    9.56
 -14   1  -6    1.76    7.33
  14  -2 -17   10.03   10.45
  14   2 -17   19.13   10.39
 -14  -2  17    5.53   11.90
 -14   2  17   -2.11   13.15
 -14  -2  16    4.34    6.44
  14  -2 -16   14.16   11.16
 -14  -2  16   11.40   12.90
  14   2 -16   24.40    9.32
 -14  -2  16   16.35   11.71
 -14   2  16   10.90   15.91
  14   2 -15    8.21    5.79
 -14  -2  15   -2.13    5.81
  14  -2 -15    4.21    9.94
 -14   2  15   -3.50   14.15
 -14  -2  15    5.51   11.73
  14   2 -15    5.33    8.35
 -14  -2  15    4.19   10.06
 -14   2  15   -7.55   16.60
 -14  -2  14   24.05    6.13
  14  -2 -14   29.32   10.35
 -14   2  14   43.07   14.13
  14   2 -14   24.44    8.98
 -14  -2  14   16.37    9.74
  14   2 -14   24.02    6.00
 -14  -2  13   -1.25    5.14
  14  -2 -13    8.36    9.92
 -14   2  13  -17.51   13.41
  14   2 -13    0.53    4.80
  14   2 -13    6.23    7.43
 -14  -2  13    7.91    8.62
 -14   2  13  -23.08   15.72
 -14  -2  12   62.31    6.41
  14  -2 -12   73.92   12.10
 -14  -2  12   69.54   12.15
 -14   2  12   71.17   14.42
  14   2 -12   71.36    8.86
  14  -2 -12   96.14   12.98
 -14  -2  12   96.71   10.62
 -14   2  12   67.92   15.25
  14  -2 -11   97.43   11.98
 -14  -2  11   65.15   11.74
 -14   2  11   98.77   14.53
  14   2 -11   79.97    8.95
  14  -2 -11   92.75   12.48
 -14  -2  11  114.06   10.91
 -14   2  11   86.88   15.52
 -14   2  10   20.71   13.40
  14  -2 -10   40.71    8.26
 -14  -2  10   47.13   10.88
 -14   2  10   17.83   10.95
  14   2 -10   20.84    6.13
  14  -2 -10   32.89   10.05
 -14  -2  10   22.60    8.15
  14  -2  -9  105.02   10.36
 -14  -2   9   94.19   12.09
  14   2  -9   93.60    8.74
  14  -2  -9  118.36   11.66
 -14  -2   9  115.98   10.08
  14  -2  -8   98.67    8.64
  14  -2  -8  110.29   10.25
  14  -2  -8   99.61   12.36
 -14  -2   8  104.25   12.38
  14  -2  -8   93.00   10.27
 -14  -2   8   83.32    8.84
 -14   2   7   25.53   11.14
  14  -2  -7   16.22    5.71
  14  -2  -7    7.06    7.01
  14  -2  -7   13.99    9.08
 -14  -2   7   28.88   10.52
  14  -2  -7   12.12    5.32
  14  -2  -7   21.09    7.63
 -14  -2   7   11.54    5.94
  14  -2  -6  154.91   10.30
 -14   2   6  190.45   16.28
  14  -2  -6  170.69   11.09
  14  -2  -6  157.71   12.71
  14  -2  -6  160.86   14.02
 -14  -2   6  179.03   14.60
  14  -2  -6  191.30   12.21
 -14  -2   6  152.61   10.63
 -14   2   5   72.45   11.44
  14  -2  -5   51.03    6.50
  14  -2  -5   67.47    8.78
  14  -2  -5   45.70    9.99
  14  -2  -5   54.91    5.91
 -14  -2   5   53.03   10.91
  14  -2  -5   61.98    7.94
 -14  -2   5   46.41    5.58
 -14   2   4   -2.56    9.55
  14  -2  -4   -5.01    5.53
  14  -2  -4    5.83    7.41
  14  -2  -4    3.66    9.55
 -14  -2   4    4.13    8.76
  14  -2  -4   -2.67    6.15
 -14   2   3   65.15   12.03
  14  -2  -3   85.79   11.52
 -14  -2   3   69.54   11.54
  14  -2  -3   75.49    7.44
 -14   2   2   35.46   10.21
 -14  -2   2   51.92    6.76
  14  -2  -2   46.15   10.74
 -14  -2   2   39.77   10.07
  14  -2  -2   46.24    6.35
 -14  -2   1    6.95    5.23
 -14   2   1    9.82   10.13
  14  -2  -1    0.20    0.68
  14  -2  -1    6.53    8.74
 -14  -2   1   22.58    8.50
  14  -2  -1    1.74    5.05
 -14  -2   0   57.02    7.58
 -14   2   0   42.28    9.72
  14  -2   0   46.05   10.02
  14  -2   0   42.22    4.52
 -14  -2   0   67.09    9.67
  14  -2   0   29.30    5.15
 -14  -2  -1   10.43    6.61
  14  -2   1   10.54    9.86
 -14  -2  -1   16.16    7.83
  14  -2   1    1.72    3.96
 -14  -2  -2   -1.61    7.00
 -14   2  -2    9.39    8.98
  14  -2   2    1.16    9.80
 -14  -2  -2    0.95    7.78
 -14  -2  -3   -1.72    8.05
  14  -2   3    4.04    9.81
 -14   2  -3    3.85    9.13
 -14  -2  -3   -9.82    8.24
 -14  -2  -4    1.21    8.73
  14  -2   4   17.16   10.30
 -14   2  -4    6.06    8.52
 -14  -2  -5   17.85    9.18
  14  -2   5   27.04   10.01
 -14   2  -5   41.76    9.63
 -14  -2  -6    5.36   10.03
 -14   2  -6    9.53    8.54
  14   3 -16    0.70   10.43
 -14  -3  16   17.14   15.28
  14   3 -15    0.67    9.73
  14  -3 -15   27.08   13.66
 -14   3  14   20.42   16.90
  14  -3 -14    8.49   11.43
  14  -3 -14   45.24   15.39
 -14  -3  14   46.88   13.70
 -14   3  13   31.89   14.42
  14  -3 -13   17.68   11.46
 -14  -3  13   24.23   11.72
 -14  -3  13   40.84   13.07
  14  -3 -13   14.53   13.14
 -14   3  12   16.20   13.75
 -14  -3  12  -15.21   11.02
  14  -3 -12   -7.58   10.18
 -14  -3  12    3.59   12.21
  14  -3 -12   15.59   10.85
  14  -3 -11   17.40    7.43
 -14   3  11   11.32   12.89
 -14  -3  11    4.61   10.49
  14  -3 -11   -3.72   11.09
 -14  -3  11   19.30   10.68
  14  -3 -11    1.38    9.95
  14  -3 -10    5.44    7.92
 -14   3  10   13.24   11.56
  14  -3 -10    4.87    8.19
 -14  -3  10    1.47   11.10
  14  -3 -10    2.92   10.13
 -14  -3  10   17.73    9.69
  14  -3 -10    8.95    9.60
  14  -3  -9   15.72    6.85
 -14   3   9   27.91   11.85
 -14  -3   9   13.46   10.79
 -14  -3   9   21.09   10.06
  14  -3  -9   23.95    9.13
  14  -3  -8   79.56    8.92
  14  -3  -8   81.89    9.12
  14  -3  -8   85.50   10.79
 -14  -3   8   81.85   12.87
 -14  -3   8   99.23   10.71
  14  -3  -8   67.45   10.51
  14  -3  -7   34.97    6.98
  14  -3  -7   47.10    9.83
 -14  -3   7   25.69   10.42
  14  -3  -7   46.56   10.92
  14  -3  -7   41.94    7.77
 -14  -3   7   54.80    8.59
  14  -3  -7   20.11    8.43
  14  -3  -6   20.59    5.98
  14  -3  -6   25.73    6.99
 -14   3   6   18.17   11.39
  14  -3  -6   16.96    8.89
 -14  -3   6   19.12    9.90
  14  -3  -6   15.03    9.88
 -14  -3   6   33.02    7.64
  14  -3  -6   16.65    7.91
  14  -3  -5   -6.08    8.14
 -14   3   5   -7.95   11.14
 -14  -3   5    6.19    9.67
  14  -3  -5    6.41   10.11
  14  -3  -5    7.30    5.52
 -14  -3   5    3.97    6.39
  14  -3  -5   -3.49    7.52
  14  -3  -4    0.38    5.50
  14  -3  -4   11.68    8.24
 -14   3   4    2.93   10.45
 -14  -3   4    4.23    9.74
  14  -3  -4   12.06   10.96
 -14  -3   4    8.04    5.74
  14  -3  -4   -9.11    7.12
 -14  -3   3   28.04    5.56
  14  -3  -3   11.75    8.35
 -14   3   3   18.34   10.98
 -14  -3   3   19.48    9.48
  14  -3  -3   20.45   10.67
 -14  -3   3   23.69    4.39
  14  -3  -3   22.57    7.45
 -14  -3   2   64.48    6.83
  14  -3  -2   67.89    9.91
 -14   3   2   61.00   12.79
 -14  -3   2   64.34   10.43
  14  -3  -2   68.12   11.91
  14  -3  -2   84.54    8.20
 -14  -3   1   93.94    8.95
 -14   3   1  109.32   13.17
  14  -3  -1   90.78    8.49
  14  -3  -1   92.36   13.18
 -14  -3   1   96.11   10.45
  14  -3  -1  101.78    9.22
 -14  -3   0    5.87    6.75
  14  -3   0   -0.62    5.03
 -14   3   0   -0.92    9.06
 -14  -3   0   -1.61    9.35
  14  -3   0    2.80   11.28
 -14  -3   0   14.29    6.82
  14  -3   0    4.05    5.96
 -14  -3  -1   66.64    9.20
 -14  -3  -1   61.07    8.08
  14  -3   1   52.70    6.50
 -14   3  -1   73.90   11.97
  14  -3   1   36.29   12.53
 -14  -3  -1   76.61   10.09
 -14  -3  -2   21.01    8.67
  14  -3   2   24.44   11.71
 -14   3  -2    9.93    9.76
 -14  -3  -2   34.64    8.58
 -14  -3  -3   -0.58    9.73
  14  -3   3    7.66   10.93
 -14   3  -3    2.69    9.05
 -14  -3  -4    2.45    9.14
  14  -3   4   -5.54   11.80
 -14  -3  -5   10.97    9.58
  14  -3   5   14.47   12.10
 -14   3  -5   21.29   10.73
  14  -4 -12   54.48   11.65
  14  -4 -11   27.19   11.10
  14  -4 -11   28.77   11.87
  14  -4 -10    3.40    9.38
 -14  -4  10   12.94   12.53
 -14   4  10   -3.69   13.86
 -14  -4  10   -2.36   11.59
  14  -4 -10    5.10   12.26
  14  -4  -9    7.33    9.69
  14  -4  -9   16.88   10.40
 -14  -4   9   24.78   11.96
  14  -4  -9    2.41   12.71
 -14  -4   9    7.02   12.01
  14  -4  -9   16.28   11.02
  14  -4  -8    0.66    7.66
  14  -4  -8   23.65   10.43
 -14  -4   8   24.59   11.36
 -14   4   8  -11.81   13.84
  14  -4  -8   15.12    9.06
  14  -4  -8    6.46   12.07
 -14  -4   8   16.12   10.85
  14  -4  -8   13.73   10.54
  14  -4  -7   28.22    9.20
  14  -4  -7   40.78   11.09
 -14  -4   7   56.86   12.11
 -14  -4   7   40.51   12.16
  14  -4  -7   37.05    9.23
  14  -4  -7   12.68   10.33
  14  -4  -6    9.32    8.17
  14  -4  -6    2.66    8.09
  14  -4  -6    4.36    9.99
 -14  -4   6   -0.70   11.06
 -14  -4   6   15.19   11.20
  14  -4  -6   14.47   12.10
  14  -4  -6   -3.27   10.52
 -14  -4   5   17.58   10.15
 -14   4   5   43.32   12.15
 -14  -4   5   26.83   11.24
  14  -4  -5   12.83   12.59
  14  -4  -5   20.98    7.72
  14  -4  -5   31.65    9.43
  14  -4  -4   24.60   10.45
 -14  -4   4   32.81   11.40
 -14  -4   4    7.72   10.11
 -14   4   4   21.84   10.78
  14  -4  -4   36.28   12.40
  14  -4  -4   29.75    8.11
  14  -4  -4   31.30    8.97
  14  -4  -3    1.45    9.35
 -14  -4   3    2.65    9.16
 -14   4   3   15.13   10.21
  14  -4  -3   22.60   12.43
  14  -4  -3   11.93    7.77
  14  -4  -3   10.73    9.36
 -14  -4   2   38.14    8.83
 -14  -4   2   47.57   11.50
  14  -4  -2   38.00   12.99
  14  -4  -2   40.44    8.98
 -14  -4   1   27.56    7.97
 -14  -4   1   31.83   10.07
  14  -4  -1   23.12    7.32
 -14   4   1    9.52   11.01
  14  -4  -1   37.20   13.56
 -14   4   0   -1.05   11.32
 -14  -5   4   21.82   12.74
 -15   0  18   12.76   11.41
  15   0 -17   31.17   11.25
 -15   0  17   75.87   12.44
 -15   0  17   60.09   14.72
 -15   0  17   43.38   12.68
  15   0 -16    4.88    9.53
 -15   0  16   12.47   11.60
 -15   0  16   19.38   12.99
  15   0 -15   22.49    9.77
  15   0 -15   31.53    6.12
 -15   0  15   34.34   11.80
 -15   0  15   35.56   12.91
 -15   0  15   20.03    9.01
  15   0 -14    2.68    9.35
 -15   0  14   21.47   11.48
 -15   0  14   14.62   11.50
 -15   0  14    5.39    8.32
  15   0 -13   39.96    6.22
 -15   0  13   54.27   11.82
 -15   0  13   43.91   10.06
 -15   0  12   17.59    9.57
 -15   0  12   12.00    8.25
  15   0 -11  311.40   19.69
  15   0 -11  303.56   16.79
 -15   0  11  290.59   20.52
 -15   0  11  290.09   18.61
  15   0 -10    3.12    8.01
 -15   0  10    5.66    9.16
 -15   0  10   13.04   10.26
 -15   0  10    2.63    7.26
  15   0  -9  243.82   16.34
 -15   0   9  223.38   17.45
 -15   0   9  229.95   16.93
 -15   0   9  192.05   14.50
  15   0  -8   11.24    8.15
 -15   0   8    3.96    7.62
 -15   0   8   12.71   11.58
 -15   0   8   -6.69    6.71
  15   0  -7  120.60   12.51
 -15   0   7  133.86   12.50
 -15   0   7  147.37   15.07
  15   0  -6    8.45    8.01
 -15   0   6    0.61    7.57
 -15   0   6    1.48   10.65
  15   0  -5   86.55   10.18
 -15   0   5   79.55    9.73
  15   0  -5   68.98    4.70
 -15   0   5   92.81   12.82
  15   0  -4   -1.62    7.31
 -15   0   4  -12.78    7.85
 -15   0   4    8.10   10.63
  15   0  -3   94.00   10.55
 -15   0   3   72.40   10.06
 -15   0   3   81.64   12.36
  15   0  -2    1.03    7.28
 -15   0   2   -5.72    9.61
 -15   0   1  101.68   12.58
  15   0  -1  106.37   10.54
 -15   0   0    9.36    9.20
  15   0   0    3.47    7.12
 -15   0  -1    7.80    8.39
  15   0   1   -6.26    7.71
 -15   0  -2    8.72    7.92
  15   0   2    2.32    7.59
 -15   0  -2    9.28    7.89
  15   0   3    2.66    7.08
 -15   0  -3    6.12    8.54
 -15   0  -3    9.67    8.02
 -15   0  -4   -6.51    8.83
 -15   0  -4  -13.64    8.00
 -15   0  -5   71.32   11.51
  15   1 -18   23.19    9.42
 -15  -1  18   -3.31   12.94
  15  -1 -17    2.89    9.96
  15   1 -17    5.50    9.35
 -15  -1  17    2.33   11.95
 -15   1  17    2.75   11.67
  15  -1 -16    1.44   10.04
 -15   1  16   -5.12   11.27
 -15  -1  16    5.69   12.82
  15   1 -16    5.79    8.39
 -15   1  16    0.97   14.00
 -15   1  16    3.49   10.98
  15  -1 -15   -4.25   10.09
 -15   1  15    7.93   12.24
 -15  -1  15   -3.17   11.02
  15   1 -15    4.91    7.90
 -15   1  15   -3.81   13.11
 -15  -1  15    7.44   10.40
 -15   1  15   -2.49   10.32
  15  -1 -14   50.08   10.92
  15  -1 -14   34.49    7.23
 -15   1  14   26.86   11.51
 -15  -1  14   25.47   11.16
  15   1 -14   28.62    8.28
 -15  -1  14   11.97    9.77
 -15   1  14   32.93   12.69
  15   1 -14   33.84    5.61
 -15   1  14   20.56    9.91
  15  -1 -13   -4.09    8.63
  15  -1 -13    6.71    5.79
  15   1 -13    3.81    6.91
  15   1 -13    4.26    3.95
 -15  -1  13   -8.21    9.38
 -15   1  13    0.94   12.43
 -15   1  13   -3.00    9.66
  15   1 -12   -3.95    8.55
  15  -1 -12    2.13    6.35
 -15   1  12    5.41   11.48
  15   1 -12    6.58    6.33
 -15  -1  12  -10.88    8.86
 -15   1  12    4.61   12.28
  15   1 -12    1.52    2.76
 -15   1  12   -4.98    9.71
  15   1 -11   -3.87    8.88
  15  -1 -11    2.97    5.83
 -15   1  11   17.46   10.85
 -15  -1  11   -1.44   10.31
  15   1 -11   -0.40    5.22
 -15  -1  11    6.97    6.78
  15   1 -10   -0.63    8.90
  15  -1 -10    3.86    8.51
  15  -1 -10   -1.71    6.01
 -15   1  10    0.84   10.65
  15   1 -10    6.86    5.70
 -15  -1  10    4.22    9.83
 -15  -1  10    2.73    6.12
  15   1  -9   -0.61    8.61
  15  -1  -9    7.15    3.73
  15  -1  -9    5.70    8.77
  15  -1  -9   -1.75    6.72
 -15   1   9    5.68    8.85
  15   1  -9    3.17    5.18
 -15  -1   9   14.53    9.62
 -15  -1   9   15.55    6.59
 -15   1   9  -15.17   11.94
  15   1  -8  151.68   13.21
  15  -1  -8  154.10   13.43
  15  -1  -8  139.25   11.27
 -15   1   8  137.31   14.12
  15   1  -8  141.51    9.50
 -15  -1   8  129.63   14.67
 -15  -1   8  148.15   10.50
 -15   1   8  123.39   15.38
  15   1  -7   -2.93    8.09
  15  -1  -7   25.91    8.94
  15  -1  -7    5.04    6.46
 -15   1   7    1.53    8.73
  15   1  -7    4.51    4.10
 -15  -1   7    3.39    9.59
 -15  -1   7    6.46    5.48
 -15   1   7    3.48   11.42
  15   1  -6   -1.72    8.01
  15  -1  -6   10.30    9.10
 -15   1   6   -7.45    9.87
 -15  -1   6    5.37    9.99
 -15   1   6    2.56   10.77
 -15  -1   6    0.77    4.40
  15   1  -5   13.98    8.42
  15  -1  -5   32.14    9.79
 -15  -1   5   23.38    7.32
 -15  -1   5   43.35   10.51
 -15   1   5   15.91   11.46
 -15   1   4   23.68   10.72
  15   1  -4   13.08    8.09
  15  -1  -4   21.69    9.44
 -15  -1   4   10.53    7.23
 -15  -1   4   34.44   10.68
 -15   1   3   89.18   11.62
  15   1  -3   48.15    9.05
  15  -1  -3   54.80    9.88
 -15  -1   3   73.79    8.61
 -15  -1   3   66.04   10.84
 -15   1   2  111.69   12.87
  15   1  -2   93.04   10.30
  15  -1  -2   89.64   10.90
 -15  -1   2  103.81    9.38
 -15  -1   2  123.22   13.14
  15   1  -1   28.40    8.43
 -15   1   1   38.34    9.86
  15  -1  -1   31.32    9.94
 -15  -1   1   34.71   10.16
  15   1   0    2.79    6.58
 -15   1   0    5.98    8.77
 -15  -1   0    2.98    6.85
  15  -1   0   13.23    8.87
 -15  -1   0   -0.62    9.21
  15   1   1   15.72    6.71
 -15  -1  -1   27.61    8.20
 -15   1  -1   20.01    9.93
  15  -1   1    7.07    9.12
 -15  -1  -1   12.45    9.32
 -15  -1  -2  168.61   13.27
 -15  -1  -2  166.32   12.86
  15  -1   2  139.79   13.12
 -15   1  -2  140.22   13.65
  15   1   2  148.47   11.51
 -15  -1  -3   33.20    7.98
 -15  -1  -3   35.08    9.50
  15  -1   3   45.74    9.63
 -15   1  -3   42.15    9.53
 -15  -1  -4   15.54    9.82
  15  -1   4    7.69    8.17
 -15   1  -4   11.47    7.62
 -15  -1  -5   19.02   10.10
  15   2 -17   35.89   10.66
 -15  -2  17   36.52   12.87
  15   2 -16   16.71    9.91
 -15   2  16   10.31   15.43
  15  -2 -15    8.16   10.67
 -15   2  15  -15.70   14.73
 -15  -2  15   22.25   13.35
  15   2 -15    4.68    8.48
 -15  -2  15   -3.45   10.22
 -15   2  15   -2.27   14.78
  15  -2 -14   29.43   11.79
 -15   2  14   17.68   13.76
  15   2 -14   46.62    9.97
 -15  -2  14   35.23   10.73
 -15   2  14   21.28   15.99
  15  -2 -13  106.70   12.87
 -15   2  13   94.15   17.05
  15   2 -13   91.66   10.30
 -15  -2  13   80.50   11.02
 -15   2  13  106.12   16.99
  15  -2 -12   23.45    7.50
  15  -2 -12   27.93   10.21
 -15   2  12   15.58   14.53
 -15  -2  12   30.59   11.05
  15   2 -12   27.23    7.10
 -15  -2  12   31.94    9.17
 -15   2  12    6.51   13.71
 -15   2  11   36.27   14.78
  15  -2 -11   61.47    9.40
 -15   2  11   36.46   13.17
 -15  -2  11   59.28   11.60
  15   2 -11   58.69    7.32
  15  -2 -11   84.68   11.65
 -15  -2  11   48.00    9.42
  15  -2 -10    4.27    7.70
 -15  -2  10   22.47    9.97
  15   2 -10    2.37    6.00
  15  -2 -10   14.69    8.95
 -15  -2  10    9.37    7.09
  15  -2  -9   30.06    8.05
  15  -2  -9    7.09   10.42
 -15  -2   9   31.55   10.99
  15  -2  -9   15.85    9.27
 -15  -2   9   21.15    6.66
 -15   2   8   24.82   11.98
  15  -2  -8   -5.83    7.20
  15  -2  -8   -2.08    9.23
 -15  -2   8  -10.09   10.08
  15  -2  -8   -3.18    5.22
  15  -2  -8   10.59    7.61
 -15  -2   8   -2.12    5.98
  15  -2  -7  139.07    8.88
 -15   2   7  146.65   15.82
  15  -2  -7  127.22    9.25
  15  -2  -7  117.54   11.59
  15  -2  -7  117.85   12.99
 -15  -2   7  111.13   12.91
  15  -2  -7  127.29   11.45
 -15  -2   7  118.22    9.37
 -15   2   6  129.34   14.91
  15  -2  -6  109.36    8.50
  15  -2  -6  125.42    7.98
  15  -2  -6   96.72   11.00
  15  -2  -6  105.61   13.09
 -15  -2   6   99.71   12.26
  15  -2  -6  109.09   10.16
 -15  -2   6   85.18    7.92
 -15   2   5   41.99   12.10
  15  -2  -5   26.08    5.51
  15  -2  -5   27.78    7.90
  15  -2  -5   25.43    9.47
 -15  -2   5   21.35    9.74
  15  -2  -5   31.33    7.02
 -15   2   4   70.21   12.14
  15  -2  -4   41.74    6.14
  15  -2  -4   69.47   11.72
 -15  -2   4   38.89   10.98
  15  -2  -4   57.96    7.74
 -15   2   3   32.17   10.99
  15  -2  -3   32.41   10.23
 -15  -2   3   58.01   11.02
  15  -2  -3   40.10    6.79
 -15  -2   2   16.25    6.12
 -15   2   2    8.83    9.70
  15  -2  -2   11.32    9.56
  15  -2  -2    3.33    3.95
 -15  -2   2   24.11    9.62
  15  -2  -2    5.92    5.32
 -15  -2   1   83.97    8.68
 -15   2   1   73.25   12.51
 -15  -2   1   86.08    8.01
  15  -2  -1   64.71   11.50
 -15  -2   1  103.24   12.36
  15  -2  -1   67.14    6.68
 -15  -2   0  128.90   10.65
 -15   2   0   98.69   13.59
  15  -2   0  118.05   13.20
 -15  -2   0  116.97   12.38
 -15  -2  -1    6.91    8.03
 -15   2  -1  -15.24   10.79
  15  -2   1   -0.61   10.53
 -15  -2  -1    7.26    8.82
 -15  -2  -2   44.62    9.70
  15  -2   2   55.25   12.19
 -15  -2  -2   32.47    8.67
 -15  -2  -3    9.77    9.29
  15  -2   3   17.40   10.37
 -15   2  -3    4.87    8.46
 -15  -2  -4    1.94    9.06
  15  -2   4   11.87   10.82
 -15   2  -4   -3.18    9.79
 -15  -2  -5    6.11   10.21
  15  -3 -14   16.35   14.64
 -15  -3  14   17.83   12.38
 -15   3  13    2.50   14.01
  15  -3 -13    5.70   12.26
 -15  -3  13   19.62   11.43
 -15   3  12   17.16   14.62
  15  -3 -12   14.42   12.46
  15  -3 -12   17.68   12.33
 -15  -3  12   26.42   12.11
 -15   3  11   16.78   13.34
  15  -3 -11   10.13    8.99
  15  -3 -11    0.79   11.77
 -15  -3  11   -6.29   12.59
 -15  -3  11    4.98    9.77
  15  -3 -11   10.66   11.11
  15  -3 -10   53.88    7.75
 -15   3  10   26.91   13.26
  15  -3 -10   15.93    9.65
 -15  -3  10   15.90   11.75
  15  -3 -10   12.37   11.80
 -15  -3  10   33.42    9.30
  15  -3 -10   28.31   11.32
  15  -3  -9    8.15    6.68
  15  -3  -9    3.22    9.54
  15  -3  -9    8.43    6.65
 -15  -3   9   10.93   11.55
  15  -3  -9   17.74    8.91
  15  -3  -8   12.84    7.04
  15  -3  -8   22.32    9.59
 -15  -3   8    9.89   11.34
  15  -3  -8   15.87   11.54
  15  -3  -8   19.97    6.78
 -15  -3   8   27.55    7.46
  15  -3  -8   18.18    8.45
  15  -3  -7    2.04    6.06
  15  -3  -7    4.82    6.18
 -15   3   7   -1.09   12.36
  15  -3  -7    5.08    8.35
 -15  -3   7    0.69   10.28
  15  -3  -7    8.24   11.61
 -15  -3   7   15.96    7.34
  15  -3  -7   -2.14    7.70
  15  -3  -6   17.82    6.16
 -15   3   6   19.36   11.39
  15  -3  -6   25.53    9.33
 -15  -3   6   39.52   10.73
  15  -3  -6   40.18   12.02
  15  -3  -6   24.20    6.24
 -15  -3   6   37.38    7.16
  15  -3  -6   16.20    8.80
  15  -3  -5   19.87    5.87
  15  -3  -5    8.23    6.64
 -15   3   5    6.34   12.46
  15  -3  -5   29.58    9.82
 -15  -3   5   15.78   10.55
  15  -3  -5    2.23   10.62
  15  -3  -5   11.07    7.59
  15  -3  -4   34.37    9.31
 -15   3   4   32.26   12.57
 -15  -3   4   52.49   12.24
  15  -3  -4   48.87   11.45
  15  -3  -4   47.27    8.22
  15  -3  -3   80.81   10.89
 -15   3   3   70.69   13.65
 -15  -3   3   79.85   12.40
  15  -3  -3  101.13   12.93
  15  -3  -3   72.94    9.16
 -15  -3   2   54.73    7.09
 -15   3   2   34.20   13.61
  15  -3  -2   54.23   12.97
 -15  -3   1   12.26    6.70
 -15   3   1    6.90   10.99
  15  -3  -1    0.73   10.89
 -15  -3   1   16.90   10.81
 -15  -3   1   -0.76    7.68
 -15  -3   0    3.33    7.05
 -15   3   0    6.79   10.31
  15  -3   0   16.73   12.67
 -15  -3   0   -2.63    7.38
 -15  -3  -1    8.94    8.73
  15  -3   1    6.53   11.56
 -15  -3  -2   24.45    8.93
  15  -3   2   20.93   12.52
 -15   3  -2    6.62   10.37
 -15  -3  -3   30.97   11.64
  15  -3   3   43.83   12.85
 -15   3  -3   30.02   10.95
 -15  -3  -4   36.48   10.38
  15  -3   4   52.10   12.88
 -15   3  -4   21.38   11.06
  15  -4 -10    9.98    9.42
  15  -4 -10    4.49    9.92
  15  -4 -10    0.73   11.19
  15  -4  -9    0.65    8.79
  15  -4  -9    5.53    9.26
  15  -4  -9    0.70   10.67
  15  -4  -8   25.10   10.74
 -15  -4   8   27.81   13.34
 -15  -4   8   23.62   14.20
  15  -4  -8   25.74   12.49
  15  -4  -8   27.30    9.70
  15  -4  -7   62.77    9.93
  15  -4  -7   43.80    9.81
 -15  -4   7   55.14   13.57
 -15  -4   7   62.01   15.29
  15  -4  -7   51.90   11.93
  15  -4  -6   18.20    8.69
 -15  -4   6   37.49   12.40
 -15  -4   6   25.80   12.31
  15  -4  -6   38.64    9.32
  15  -4  -6   18.49   10.81
 -15  -4   5    4.19   11.45
 -15  -4   5    8.90   12.06
  15  -4  -5   -2.06    8.25
  15  -4  -5   -9.93   10.38
  15  -4  -4    6.13    7.74
 -15  -4   4    6.08   11.98
 -15  -4   4    1.03   11.54
 -15  -4   3    1.88   10.46
 -15  -4   3    7.26   11.36
 -16   0  17    0.82   11.16
 -16   0  16   62.90   13.04
 -16   0  16   27.19   11.25
  16   0 -15    5.71    9.96
 -16   0  15   22.29   12.03
 -16   0  15   15.84   12.05
 -16   0  15    8.07    9.25
 -16   0  14   52.42   12.83
 -16   0  14   47.65   13.19
 -16   0  14   47.06    9.90
  16   0 -13    5.27    5.49
 -16   0  13    9.12   10.91
  16   0 -12  198.32   16.28
 -16   0  12  209.62   17.00
 -16   0  12  198.88   15.15
  16   0 -11    1.34    9.45
 -16   0  11    9.27    9.55
 -16   0  11    9.10   12.02
 -16   0  11   -2.32    7.34
  16   0 -10   30.76    9.84
 -16   0  10   29.96    9.78
 -16   0  10   41.80   12.03
 -16   0  10   22.22    7.37
  16   0  -9    1.92    8.79
 -16   0   9   13.80    9.17
 -16   0   9    7.32   11.42
  16   0  -8   23.06    9.19
 -16   0   8   18.24    8.88
 -16   0   8   33.29   12.04
  16   0  -7   -4.27    8.89
 -16   0   7    5.44    9.35
  16   0  -7    4.50    4.14
 -16   0   7   24.29   11.73
  16   0  -6  311.10   18.60
 -16   0   6  325.77   21.11
 -16   0   6  308.97   18.81
  16   0  -6  244.96   13.49
  16   0  -5   -3.50    9.32
 -16   0   5    8.17    8.56
 -16   0   5   -5.66   11.34
  16   0  -4  119.41   12.51
 -16   0   4  104.25   11.47
 -16   0   4  117.45   14.71
  16   0  -3    6.71    8.10
 -16   0   3  -10.29   12.08
  16   0  -2   52.10    9.37
 -16   0   2   27.04   11.97
 -16   0   1   18.62    9.87
  16   0  -1    5.92    8.74
 -16   0   0   87.72   11.83
  16   0   0   90.83   10.61
 -16   0  -1    9.08    8.97
  16   0   1   -2.55    8.12
  16   0   2   78.59   10.06
 -16   0  -2   72.74   10.83
 -16   0  -3   -1.29    8.76
 -16   0  -4   37.23   10.84
  16   1 -17   10.22    9.37
 -16   1  17   -0.93   12.54
  16   1 -16    4.55    8.33
 -16  -1  16   14.63   10.61
 -16   1  16   -9.72   10.94
  16  -1 -15    8.21   11.20
  16  -1 -15   17.36    7.10
 -16   1  15    9.28   13.09
  16   1 -15    6.96    8.51
 -16  -1  15    9.19   12.32
 -16  -1  15   30.70    9.80
 -16   1  15   25.41   14.97
 -16   1  15  -19.34   11.61
  16  -1 -14   19.80   10.54
  16  -1 -14   13.12    7.04
 -16   1  14    8.01   12.33
  16   1 -14   10.52    7.51
 -16  -1  14   23.46    9.25
 -16   1  14    8.04   13.49
 -16   1  14   -6.42   10.72
  16  -1 -13    5.03   10.52
  16  -1 -13   10.05    6.88
 -16   1  13   19.44   11.80
  16   1 -13   16.73    6.77
 -16  -1  13   22.40    8.94
 -16   1  13   12.90   13.31
 -16   1  13   -2.29    9.80
  16   1 -12   25.38   10.03
  16  -1 -12   37.41    7.11
 -16   1  12   20.80   12.79
  16   1 -12   23.91    7.01
 -16  -1  12   32.06   11.50
 -16  -1  12   35.19    8.95
  16   1 -11   -4.03    8.93
  16  -1 -11    6.21    9.87
  16  -1 -11    4.48    6.42
 -16   1  11    5.48   10.39
  16   1 -11    1.18    6.25
 -16  -1  11   11.50   10.33
 -16  -1  11    1.98    6.16
  16   1 -10   -2.63    8.78
  16  -1 -10   12.85    9.87
  16  -1 -10    2.28    6.22
 -16   1  10   -8.83   10.28
  16  -1 -10   -3.18    3.40
  16   1 -10    6.24    5.89
 -16  -1  10   10.58   11.66
 -16   1  10    1.93   12.88
 -16  -1  10   10.49    6.40
  16   1  -9   48.13    9.95
  16  -1  -9   39.90   10.66
  16  -1  -9   57.25    8.20
 -16   1   9   49.76   12.42
  16   1  -9   41.51    6.15
 -16  -1   9   43.27   12.13
 -16   1   9   44.83   13.56
 -16  -1   9   50.24    7.33
  16   1  -8    4.38    8.46
  16  -1  -8   18.33    9.51
 -16   1   8   -6.74   10.22
  16   1  -8    7.54    4.70
 -16  -1   8   19.96   10.48
 -16   1   8    0.94   13.27
 -16  -1   8   -1.11    6.16
  16   1  -7    4.89    9.18
  16  -1  -7   -5.15    9.18
 -16   1   7   -8.22    9.86
 -16  -1   7   12.47   10.62
 -16   1   7  -12.07   12.73
 -16  -1   7   -6.95    5.39
  16   1  -6    4.79    8.37
  16  -1  -6   -1.27    9.37
 -16  -1   6   19.97    8.38
 -16  -1   6   24.19   10.54
 -16   1   6  -13.70   13.07
 -16   1   5   -7.15   11.93
  16   1  -5    7.02    8.73
  16  -1  -5   26.34   10.07
 -16  -1   5   16.90    6.95
 -16  -1   5   36.30   10.51
 -16   1   4   27.87   11.23
  16   1  -4   15.96    8.76
  16  -1  -4   25.35    9.57
 -16  -1   4   16.42    7.79
 -16  -1   4   40.45   11.96
  16  -1  -3  184.19   15.06
 -16   1   3  197.94   16.74
  16   1  -3  176.13   14.50
 -16  -1   3  181.16   13.37
 -16  -1   3  193.31   16.43
  16   1  -2   -2.67    7.74
 -16   1   2    2.53    9.57
  16  -1  -2    7.21    9.56
 -16  -1   2   -9.79    7.43
 -16  -1   2   -0.72   10.38
  16   1  -1   -1.54    8.34
 -16   1   1   11.48   11.07
  16  -1  -1   15.98    9.78
 -16  -1   1   -1.41   10.25
  16   1   0    4.40    7.45
 -16   1   0    1.62   10.32
  16  -1   0   12.84   10.01
 -16  -1   0    4.07   10.65
  16   1   1    0.46    7.38
 -16  -1  -1   13.78    8.58
 -16   1  -1   -4.77    9.79
  16  -1   1    9.21    9.30
 -16  -1  -2   35.19    9.32
 -16  -1  -2   53.82   10.14
  16  -1   2   34.96    9.55
 -16  -1  -3   60.82   11.27
 -16   1  -3   71.05   11.23
 -16  -1  -4   34.98   11.28
  16   2 -16    1.83    8.63
  16   2 -15   16.70    9.45
 -16  -2  15   24.12   11.37
  16  -2 -14   20.58    9.50
 -16   2  14   22.03   15.43
  16   2 -14   23.15    8.20
 -16  -2  14   22.18   11.59
 -16   2  14    5.86   16.96
  16  -2 -13    2.19    8.75
  16  -2 -13   14.66   10.49
 -16   2  13   -7.14   14.82
 -16  -2  13    3.24   11.97
  16   2 -13    3.99    7.11
 -16  -2  13   16.90    9.70
 -16   2  13   -2.32   15.53
 -16   2  12  115.99   18.40
  16  -2 -12  111.64   11.56
  16  -2 -12  109.32   14.03
 -16   2  12   96.75   17.49
  16   2 -12  105.81    9.83
 -16  -2  12  103.79   11.09
  16  -2 -11   26.46    8.95
  16   2 -11   29.79    7.10
 -16  -2  11   16.12   10.87
  16  -2 -10   10.69    5.59
  16  -2 -10   13.25    7.95
  16  -2 -10    1.51   10.01
 -16  -2  10   18.04   12.37
 -16  -2  10    8.79    7.17
 -16   2   9   22.56   13.14
  16  -2  -9    5.00    8.00
  16  -2  -9    0.75    9.86
 -16  -2   9   15.43   10.87
  16  -2  -9   19.01    9.48
  16  -2  -9    5.12    5.38
 -16  -2   9    5.88    6.76
  16  -2  -8  138.68    9.30
 -16   2   8  155.79   16.19
  16  -2  -8  123.88   12.30
  16  -2  -8  150.72   14.74
 -16  -2   8  122.71   15.03
  16  -2  -8  144.76   12.44
  16  -2  -7   -0.24    0.92
 -16   2   7   22.73   12.44
  16  -2  -7   13.05    8.29
  16  -2  -7   10.11   10.58
 -16  -2   7    5.72   10.57
  16  -2  -7   22.40    8.40
 -16   2   6  125.68   15.49
  16  -2  -6  104.38    8.28
  16  -2  -6  116.54   11.56
  16  -2  -6  121.60   13.54
 -16  -2   6  122.04   14.20
  16  -2  -6  109.37   10.23
 -16   2   5   11.92   10.88
  16  -2  -5   -5.86    4.92
  16  -2  -5   10.40   10.64
 -16  -2   5   13.31   11.93
  16  -2  -5    1.50    6.70
 -16   2   4   29.11   11.85
  16  -2  -4   19.76    9.88
 -16  -2   4   18.73   10.90
  16  -2  -4   19.44    7.20
 -16   2   3   -7.65   12.12
 -16  -2   3    8.72    6.85
  16  -2  -3   20.17   11.52
 -16  -2   3   16.47   11.44
 -16   2   2   72.85   13.34
 -16  -2   2   81.53    9.09
  16  -2  -2   68.91   12.98
 -16  -2   2   88.77   12.18
 -16  -2   1   65.53    8.62
 -16   2   1   61.62   13.21
  16  -2  -1   66.85   12.52
 -16  -2   1   76.76   12.12
 -16  -2   0   20.96    8.09
 -16   2   0   -2.75   12.57
  16  -2   0   31.15   11.73
 -16  -2   0   14.09   10.09
 -16  -2  -1   37.99   10.17
  16  -2   1   40.50   11.75
 -16   2  -1   58.01   11.58
 -16  -2  -2   12.24    9.59
  16  -2   2   15.28   11.78
 -16   2  -2   13.09   10.27
 -16  -2  -3    5.17   10.34
  16  -2   3    3.15   10.85
 -16   2  -3   10.22   10.66
 -16  -2  -4    1.36    9.75
  16  -3 -13    3.93    9.33
  16  -3 -13   11.46   13.67
  16  -3 -12   15.88    9.52
  16  -3 -12    6.96   11.87
  16  -3 -11   -2.67    8.98
  16  -3 -11   13.87   12.70
 -16   3  10   18.48   15.26
  16  -3 -10    8.67    9.63
  16  -3 -10    9.43   11.52
  16  -3  -9   -3.97    9.68
 -16  -3   9   -2.28   12.05
  16  -3  -9   13.78   11.74
 -16   3   8    3.53   12.52
  16  -3  -8   19.89    9.55
  16  -3  -8    7.93   11.12
 -16  -3   8    4.44   11.61
  16  -3  -8   22.01    9.59
 -16   3   7   20.91   12.34
  16  -3  -7   20.68   10.33
  16  -3  -7   35.36   12.22
  16  -3  -7   36.38    9.96
 -16   3   6    4.57   13.22
  16  -3  -6    2.33   11.68
  16  -3  -6   14.42    8.51
  16  -3  -5   29.85   10.47
 -16   3   5   13.38   12.37
  16  -3  -5    7.72   12.04
 -16  -3   5   18.37   12.34
  16  -3  -4   18.66    9.76
 -16   3   4   10.98   11.86
  16  -3  -4   33.00   12.79
 -16   3   3    3.25   13.27
  16  -3  -3    0.76   11.62
 -16  -3   3   10.93   12.19
 -16   3   2   -7.41   13.27
  16  -3  -2    3.79   12.79
 -16  -3   2   -2.67   11.37
 -16   3   1   49.75   12.84
  16  -3  -1   38.57   13.97
 -16  -3   1   45.74   11.71
 -16  -3   1   26.59    9.27
  16  -3   0    5.26   11.79
 -16   3   0    8.15   11.10
 -16   3  -1   18.05   11.89
 -16  -4   5   22.50   13.08
 -16  -4   5   -2.40   12.71
 -16  -4   4   12.18   12.76
 -16  -4   4    4.97   12.76
 -17   0  17   13.32   11.13
 -17   0  15   27.86   13.31
 -17   0  15   14.12   10.28
 -17   0  14   -3.52   10.68
  17   0 -13   31.76   10.93
 -17   0  13   30.42   12.23
 -17   0  13   32.68    9.37
  17   0 -12    0.72   10.05
 -17   0  12   16.01   11.11
 -17   0  12   11.65   12.55
 -17   0  12   -3.79    8.67
  17   0 -11   54.70   10.50
 -17   0  11   61.17   12.90
 -17   0  11   37.88    9.16
  17   0 -10    0.69    9.75
 -17   0  10    7.92   10.47
 -17   0  10   15.87   11.48
  17   0  -9   25.47   10.33
 -17   0   9   23.09   10.35
 -17   0   9   21.18   12.47
  17   0  -8   -5.90    9.78
 -17   0   8    5.26    9.27
  17   0  -8    8.56    4.86
 -17   0   8    2.64   11.76
  17   0  -7  311.66   20.09
 -17   0   7  319.68   23.30
 -17   0   7  280.19   20.45
  17   0  -6   -1.26    9.57
 -17   0   6   -1.41    9.11
 -17   0   6   -6.19   13.41
  17   0  -5   -3.08    8.51
 -17   0   5  -11.02   10.44
 -17   0   5   -2.64   11.75
  17   0  -4   -1.81    8.88
 -17   0   4  -13.94   12.70
  17   0  -3    4.75    9.16
 -17   0   3    2.56   13.12
 -17   0   2   18.21   10.99
  17   0  -2    8.15    9.18
  17   0  -1  250.06   18.00
 -17   0   1  274.71   19.79
 -17   0   0    8.61    9.85
  17   0   0    5.56    8.74
  17   0   1   19.35    9.09
 -17   0  -1    0.75   10.64
  17   1 -17   10.05    9.74
 -17  -1  17    7.03   10.81
  17   1 -16   16.74    9.13
 -17  -1  16   25.41   11.64
 -17   1  16   -8.91   11.93
  17   1 -15    1.05    8.16
 -17  -1  15    8.13    9.43
 -17   1  15  -19.54   13.26
 -17   1  14    9.34   13.05
  17   1 -14    9.31    7.01
 -17  -1  14   11.96   10.18
  17  -1 -13    1.37    6.60
 -17   1  13   -4.04   12.51
  17   1 -13   -4.57    7.09
 -17  -1  13    5.10   11.16
 -17  -1  13    8.20    8.22
  17   1 -12   22.11   10.01
  17  -1 -12   29.61    7.57
 -17   1  12   20.61   12.14
  17   1 -12   35.24    7.16
 -17  -1  12   36.64   12.57
 -17  -1  12   45.24    8.52
  17   1 -11    7.69    9.45
  17  -1 -11    7.24    9.99
  17  -1 -11    5.64    7.37
 -17   1  11   -2.86   11.88
  17   1 -11    9.02    6.38
 -17   1  11   -8.28   13.40
 -17  -1  11   17.77    7.65
  17   1 -10    2.73    9.23
  17  -1 -10   17.75    9.79
  17  -1 -10   10.18    7.24
 -17   1  10   13.03   11.61
  17   1 -10   12.06    5.56
 -17  -1  10   29.15   12.17
 -17   1  10   -1.03   12.76
 -17  -1  10    0.46    6.94
  17   1  -9   15.40    9.78
  17  -1  -9    7.67   10.66
 -17  -1   9   37.70   10.64
 -17   1   9   13.77   11.65
 -17  -1   9   23.27   12.03
 -17   1   9    1.01   14.83
 -17  -1   9   12.48    7.10
  17   1  -8   -1.31    9.90
  17  -1  -8    4.80    9.15
 -17  -1   8   13.84    9.45
 -17   1   8  -16.21   12.20
 -17  -1   8   14.36   11.52
 -17   1   8  -18.07   14.96
  17   1  -7   18.55   10.02
  17  -1  -7   23.63   10.06
 -17  -1   7   39.99   10.17
 -17  -1   7   51.09   12.76
 -17   1   6   -8.74   14.47
  17   1  -6   -4.37    8.72
  17  -1  -6   19.23   10.89
 -17  -1   6   16.55    8.83
 -17  -1   6    7.14   11.14
 -17   1   5   40.83   12.22
  17   1  -5   14.65    9.32
  17  -1  -5    5.89    9.22
 -17  -1   5   14.59    8.41
 -17  -1   5   23.81   11.87
 -17   1   4   71.11   13.62
  17   1  -4   50.60    9.99
  17  -1  -4   69.29   12.07
 -17  -1   4   57.98    9.61
 -17  -1   4   90.14   14.55
  17   1  -3   -1.74    8.76
 -17   1   3   11.06   10.88
  17  -1  -3   -7.02    9.42
 -17  -1   3    9.11    8.07
 -17  -1   3   -7.97   12.00
  17   1  -2   10.09    8.91
 -17   1   2   17.14   11.27
  17  -1  -2   12.58   10.73
 -17  -1   2   -0.79   11.52
  17   1  -1   -6.46    8.71
 -17   1   1   -0.88   10.11
  17  -1  -1    8.68   10.39
 -17  -1   1   -7.63   12.22
  17   1   0   -2.03    8.87
 -17   1   0   -4.34   12.31
  17  -1   0   13.44   10.59
  17  -1   1    6.01   10.31
 -17   1  -1   -4.23   11.73
 -17  -1  -2   60.78   11.59
 -17   1  -2   21.24   11.25
  17  -2 -14    1.14    9.20
  17  -2 -13   36.39   10.20
  17  -2 -12   30.17    9.73
 -17  -2  12   48.43   12.47
 -17   2  10   32.27   14.89
  17  -2 -10   37.12    9.44
  17  -2 -10   27.63   11.93
 -17  -2  10   19.98   12.62
 -17   2   9   38.52   12.92
  17  -2  -9   15.87    8.25
  17  -2  -9   14.85   11.97
 -17  -2   9   11.77   12.30
 -17   2   8   13.36   13.02
  17  -2  -8    1.79    8.15
  17  -2  -8   19.29   11.53
 -17  -2   8    4.64   11.62
 -17   2   7   73.48   14.49
  17  -2  -7   66.34   10.82
  17  -2  -7   54.05   13.27
 -17  -2   7   72.78   13.11
 -17   2   6   59.21   14.13
  17  -2  -6   52.46   13.48
 -17  -2   6   72.37   14.62
 -17   2   5   38.89   13.68
  17  -2  -5   21.38   12.65
 -17  -2   5   52.91   12.58
  17  -2  -4    8.71   11.19
 -17  -2   4   46.10   13.13
 -17   2   3   33.62   13.16
  17  -2  -3   26.45   11.48
 -17   2   2    8.04   12.06
  17  -2  -2   12.71   11.86
 -17  -2   2   27.16   12.53
 -17   2   1   52.45   13.55
  17  -2  -1   52.42   11.87
 -17  -2   1   62.16   13.15
 -17  -2   0    7.14    8.70
  17  -2   0   -0.69   10.90
 -17   2   0   -3.87   11.94
  17  -2   1    9.58   12.39
 -17   2  -1   10.32   10.97
 -17   2  -2    0.91   10.98
  17  -3 -10   17.83    9.92
  17  -3  -9   20.01   10.54
  17  -3  -8   15.29   10.09
 -17  -3   8    6.29   12.11
 -17  -3   7    6.97   12.48
 -17  -3   6   22.21   11.83
 -17  -3   5    2.26   12.59
 -17  -3   4    1.49   13.16
 -18   0  13   12.74   11.79
 -18   0  12  114.14   14.88
  18   0 -11   -9.52   10.15
 -18   0  11    4.30   10.57
 -18   0  11   -7.65   13.52
  18   0 -10   15.05   10.36
 -18   0  10    5.05   10.29
 -18   0  10   39.11   14.31
  18   0  -9   -6.31    9.81
 -18   0   9    3.30   11.07
  18   0  -8   57.67   11.84
 -18   0   8   68.69   12.19
  18   0  -7   -1.34    9.80
 -18   0   7    5.45   11.74
 -18   0   7  -14.36   14.79
  18   0  -6   61.41   11.44
 -18   0   6   57.63   11.73
 -18   0   6   57.36   14.86
  18   0  -5   11.68    9.78
 -18   0   5  -14.24   13.92
  18   0  -4   26.11    9.94
 -18   0   3    2.73   12.18
  18   0  -3   -0.63    9.60
 -18   0   2  109.49   14.64
  18   0  -2   79.68   11.98
 -18   0   1   14.74   12.46
  18   0  -1   -5.99    9.68
 -18   0   0    0.83   11.13
 -18   1  13   23.14   13.86
 -18   1  12  -14.38   13.43
 -18  -1  11   20.19   10.79
 -18   1  11   -7.07   12.72
 -18  -1  11   21.96   12.16
  18   1 -10   -9.94   10.69
  18  -1 -10    6.70   10.86
 -18  -1  10   24.71   10.16
 -18   1  10   -1.00   11.77
 -18  -1  10   13.98   12.38
 -18   1  10   -3.26   15.42
  18   1  -9   18.76   10.78
  18  -1  -9   17.51   11.24
 -18  -1   9   14.47   11.01
 -18  -1   9   36.46   13.45
 -18   1   9   26.91   14.58
  18   1  -8   13.63   10.69
  18  -1  -8   14.33   11.32
 -18  -1   8   21.80    9.79
 -18   1   8   -5.33   14.72
 -18   1   7   -8.39   16.46
  18   1  -7   13.35   10.58
  18  -1  -7    9.85   10.13
 -18  -1   7   15.63    9.00
 -18  -1   7   14.66   12.99
 -18   1   6   26.73   13.90
  18   1  -6    7.19    9.93
  18  -1  -6   -0.69   10.55
 -18  -1   6   -1.97    9.66
 -18  -1   6   33.76   13.85
 -18   1   5   18.30   13.47
  18   1  -5    3.20    9.65
  18  -1  -5   19.10   10.62
 -18  -1   5   19.88    9.24
 -18  -1   5   12.19   12.55
  18   1  -4   21.83    9.53
 -18   1   4   32.08   13.62
  18  -1  -4   17.48   10.99
  18   1  -3    6.67   10.29
 -18   1   3   16.77   11.66
  18  -1  -3   17.30   10.24
 -18  -1   3   16.51   13.18
  18   1  -2   18.70    9.27
 -18   1   2   15.38   12.23
  18  -1  -2   17.71   11.38
 -18  -1   2   18.67   13.19
 -18  -1   1   -6.50   12.98
 -18   1   1    4.73   12.56
  18  -1  -1   -3.86   10.14
  18  -1   0   13.92   10.97
 -18   1   0  -16.66   15.25
  18  -2 -12   23.10    9.45
  18  -2 -11    4.20    9.63
  18  -2 -10    9.69    9.55
  18  -2  -9   19.83   10.39
 -18  -2   9   19.27   13.37
 -18  -2   8   74.70   14.62
 -18  -2   7   72.59   13.64
 -18  -2   6   51.07   13.53
 -18   2   5   41.18   15.11
 -18  -2   5   39.50   13.26
 -18   2   4    3.29   12.62
 -18  -2   4   37.45   14.18
 -18  -2   3   -1.62   13.67
 -18  -3   5   13.71   13.64
 -19   0  11   11.90   13.09
 -19   0  10    1.78   11.28
 -19   0   9   -2.62   13.06
 -19   0   8   -6.01   11.36
 -19   0   8   -7.22   14.22
  19   0  -7  171.19   16.06
 -19   0   7  169.55   17.10
 -19   0   7  157.70   19.88
  19   0  -6    6.92   12.27
 -19   0   6   -7.19   15.94
  19   0  -5    7.48   10.65
 -19   0   5   -6.10   14.53
 -19   0   4   16.90   12.81
  19   0  -4   -0.67   10.43
  19   0  -3   11.80   10.52
 -19   0   2   17.21   13.59
 -19  -1  11    0.82   11.16
 -19   1  11  -12.94   14.42
 -19  -1  10   48.38   12.00
 -19   1  10   -4.22   13.42
 -19  -1   9    3.86   13.27
 -19  -1   8   44.79   14.54
  19   1  -7   -2.08   10.63
 -19  -1   7   16.92   15.20
  19   1  -6    6.11   10.17
 -19  -1   6    9.50   14.58
  19   1  -5   13.94   11.05
 -19  -1   5    3.81   13.65
  19   1  -4    9.05   10.12
 -19  -1   4   19.01   14.29
 -19   1   3    1.05   12.29
 -19  -1   3  -20.56   15.51
 -19   1   1   -1.01   13.35
 -19  -2   5    0.89   14.20
   0   0   0    0.00    0.00



TITL ly-cry in P2(1)/n
REM P2(1)/n (#14 in standard setting)
CELL 0.71073  13.895518   4.859493  15.280204  90.0000 111.4402  90.0000
ZERR    4.00   0.002945   0.001058   0.004258   0.0000   0.0278   0.0000
LATT  1
SYMM -x+1/2, y+1/2,-z+1/2
SFAC C H N O
UNIT 44.00 40.00 4.00 4.00
TREF
HKLF 4
END
_computing_structure_solution     'SHELXT 2014/5 (Sheldrick, 2014)'
_computing_structure_solution     'SHELXT 2014/5 (Sheldrick, 2014)'
;
_shelx_hkl_checksum              8627
_olex2_submission_special_instructions 'No special instructions were received'
loop_
_space_group_symop_operation_xyz
'x, y, z'
'-x+1/2, y+1/2, -z+1/2'
'-x, -y, -z'
'x-1/2, -y-1/2, z-1/2'
loop_
_atom_site_label
_atom_site_type_symbol
_atom_site_fract_x
_atom_site_fract_y
_atom_site_fract_z
_atom_site_U_iso_or_equiv
_atom_site_adp_type
_atom_site_occupancy
_atom_site_site_symmetry_order
_atom_site_calc_flag
_atom_site_refinement_flags_posn
_atom_site_refinement_flags_adp
_atom_site_refinement_flags_occupancy
_atom_site_disorder_assembly
_atom_site_disorder_group
Ag1 Ag -0.21293(3) -0.03530(9) 0.33588(3) 0.04701(13) Uani 1 1 d . . . . .
Ag2 Ag 0.14719(3) 0.61817(11) 0.47723(4) 0.05544(16) Uani 1 1 d . . . . .
S1 S 0.26216(9) 0.5328(3) 0.64461(9) 0.0328(3) Uani 1 1 d . . . . .
O5 O -0.0208(3) -0.1193(8) 0.4020(3) 0.0466(9) Uani 1 1 d . . . . .
N2 N 0.0208(3) 0.1039(9) 0.4001(3) 0.0386(10) Uani 1 1 d . . . . .
O3 O 0.1172(3) 0.1169(10) 0.4314(3) 0.0594(12) Uani 1 1 d . . . . .
O2 O 0.7069(3) 0.2778(12) 0.5918(3) 0.0694(14) Uani 1 1 d . . . . .
O1 O 0.7522(3) 0.6372(12) 0.6799(4) 0.0721(14) Uani 1 1 d . . . . .
C1 C 0.3882(3) 0.5125(9) 0.6427(3) 0.0274(9) Uani 1 1 d . . . . .
N1 N 0.6891(4) 0.4624(13) 0.6379(4) 0.0532(13) Uani 1 1 d . . . . .
O4 O -0.0312(4) 0.3093(10) 0.3677(4) 0.0747(15) Uani 1 1 d . . . . .
C2 C 0.4646(3) 0.6926(10) 0.6953(3) 0.0335(10) Uani 1 1 d . . . . .
H2 H 0.4490 0.8277 0.7312 0.040 Uiso 1 1 calc R U . . .
C4 C 0.5847(4) 0.4767(12) 0.6416(4) 0.0376(12) Uani 1 1 d . . . . .
C3 C 0.5637(4) 0.6739(12) 0.6953(4) 0.0397(12) Uani 1 1 d . . . . .
H3 H 0.6151 0.7939 0.7312 0.048 Uiso 1 1 calc R U . . .
C6 C 0.4128(4) 0.3117(11) 0.5897(4) 0.0398(12) Uani 1 1 d . . . . .
H6 H 0.3625 0.1879 0.5545 0.048 Uiso 1 1 calc R U . . .
C5 C 0.5118(4) 0.2952(13) 0.5891(4) 0.0468(13) Uani 1 1 d . . . . .
H5 H 0.5284 0.1619 0.5532 0.056 Uiso 1 1 calc R U . . .
loop_
_atom_site_aniso_label
_atom_site_aniso_U_11
_atom_site_aniso_U_22
_atom_site_aniso_U_33
_atom_site_aniso_U_23
_atom_site_aniso_U_13
_atom_site_aniso_U_12
Ag1 0.0400(2) 0.0399(2) 0.0635(3) -0.0006(2) 0.0217(2) -0.00470(18)
Ag2 0.0389(2) 0.0595(3) 0.0580(3) 0.0089(2) 0.0059(2) 0.0019(2)
S1 0.0272(5) 0.0345(6) 0.0387(6) 0.0002(5) 0.0143(5) -0.0006(5)
O5 0.052(2) 0.037(2) 0.052(2) -0.0049(18) 0.0202(19) -0.0117(17)
N2 0.037(2) 0.039(3) 0.045(2) -0.005(2) 0.0203(19) 0.0010(18)
O3 0.037(2) 0.080(3) 0.066(3) -0.011(2) 0.025(2) -0.009(2)
O2 0.057(3) 0.094(4) 0.071(3) 0.010(3) 0.039(2) 0.027(3)
O1 0.037(2) 0.084(4) 0.101(4) 0.016(3) 0.032(2) -0.004(2)
C1 0.028(2) 0.026(2) 0.029(2) 0.0066(19) 0.0113(18) 0.0009(17)
N1 0.043(3) 0.067(4) 0.059(3) 0.025(3) 0.029(2) 0.020(3)
O4 0.083(3) 0.046(3) 0.108(4) 0.020(3) 0.050(3) 0.024(2)
C2 0.030(2) 0.036(3) 0.033(2) -0.006(2) 0.0093(19) -0.0015(19)
C4 0.030(2) 0.048(3) 0.038(3) 0.017(2) 0.016(2) 0.011(2)
C3 0.029(2) 0.050(3) 0.036(3) 0.002(2) 0.007(2) -0.005(2)
C6 0.039(3) 0.037(3) 0.045(3) -0.011(2) 0.018(2) -0.003(2)
C5 0.051(3) 0.048(3) 0.048(3) -0.002(3) 0.025(3) 0.013(3)
loop_
_atom_type_symbol
_atom_type_description
_atom_type_scat_dispersion_real
_atom_type_scat_dispersion_imag
_atom_type_scat_source
C C 0.0033 0.0016 'International Tables Vol C Tables 4.2.6.8 and 6.1.1.4'
H H 0.0000 0.0000 'International Tables Vol C Tables 4.2.6.8 and 6.1.1.4'
Ag Ag -0.8971 1.1015 'International Tables Vol C Tables 4.2.6.8 and 6.1.1.4'
N N 0.0061 0.0033 'International Tables Vol C Tables 4.2.6.8 and 6.1.1.4'
O O 0.0106 0.0060 'International Tables Vol C Tables 4.2.6.8 and 6.1.1.4'
S S 0.1246 0.1234 'International Tables Vol C Tables 4.2.6.8 and 6.1.1.4'
loop_
_geom_angle_atom_site_label_1
_geom_angle_atom_site_label_2
_geom_angle_atom_site_label_3
_geom_angle
_geom_angle_site_symmetry_1
_geom_angle_site_symmetry_3
_geom_angle_publ_flag
S1 Ag1 Ag2 47.91(3) 3_566 3_566 ?
S1 Ag1 Ag2 118.31(4) 3_556 3_566 ?
S1 Ag1 Ag2 140.84(3) 4_565 3_566 ?
S1 Ag1 S1 100.85(5) 3_556 4_565 ?
S1 Ag1 S1 141.85(5) 3_556 3_566 ?
S1 Ag1 S1 100.29(4) 3_566 4_565 ?
O5 Ag1 Ag2 80.62(9) . 3_566 ?
O5 Ag1 S1 97.31(10) . 4_565 ?
O5 Ag1 S1 113.18(9) . 3_566 ?
O5 Ag1 S1 95.13(9) . 3_556 ?
S1 Ag2 Ag1 49.89(4) . 3_566 ?
S1 Ag2 O5 133.12(10) . 1_565 ?
S1 Ag2 O3 95.89(11) . . ?
S1 Ag2 O3 115.02(11) . 1_565 ?
O5 Ag2 Ag1 90.06(9) 1_565 3_566 ?
O3 Ag2 Ag1 141.89(11) . 3_566 ?
O3 Ag2 Ag1 67.65(10) 1_565 3_566 ?
O3 Ag2 O5 50.04(12) 1_565 1_565 ?
O3 Ag2 O5 109.14(13) . 1_565 ?
O3 Ag2 O3 149.08(19) 1_565 . ?
Ag1 S1 Ag1 141.85(5) 3_556 3_566 ?
Ag1 S1 Ag1 79.24(4) 3_566 4_666 ?
Ag1 S1 Ag1 79.62(4) 3_556 4_666 ?
Ag2 S1 Ag1 82.20(4) . 3_566 ?
Ag2 S1 Ag1 148.18(5) . 4_666 ?
Ag2 S1 Ag1 100.22(5) . 3_556 ?
C1 S1 Ag1 111.18(16) . 3_566 ?
C1 S1 Ag1 104.95(16) . 3_556 ?
C1 S1 Ag1 105.73(15) . 4_666 ?
C1 S1 Ag2 105.00(15) . . ?
Ag1 O5 Ag2 158.15(17) . 1_545 ?
N2 O5 Ag1 106.5(3) . . ?
N2 O5 Ag2 95.2(3) . 1_545 ?
O5 N2 O3 118.8(5) . . ?
O4 N2 O5 120.9(5) . . ?
O4 N2 O3 120.3(5) . . ?
Ag2 O3 Ag2 149.08(19) 1_545 . ?
N2 O3 Ag2 101.5(3) . . ?
N2 O3 Ag2 95.9(3) . 1_545 ?
C2 C1 S1 120.7(4) . . ?
C2 C1 C6 118.9(4) . . ?
C6 C1 S1 120.4(4) . . ?
O2 N1 C4 117.8(6) . . ?
O1 N1 O2 123.8(5) . . ?
O1 N1 C4 118.4(5) . . ?
C1 C2 H2 119.6 . . ?
C3 C2 C1 120.8(5) . . ?
C3 C2 H2 119.6 . . ?
C3 C4 N1 119.2(5) . . ?
C3 C4 C5 122.3(5) . . ?
C5 C4 N1 118.5(5) . . ?
C2 C3 H3 120.6 . . ?
C4 C3 C2 118.7(5) . . ?
C4 C3 H3 120.6 . . ?
C1 C6 H6 119.9 . . ?
C5 C6 C1 120.2(5) . . ?
C5 C6 H6 119.9 . . ?
C4 C5 C6 119.1(5) . . ?
C4 C5 H5 120.4 . . ?
C6 C5 H5 120.4 . . ?
loop_
_geom_bond_atom_site_label_1
_geom_bond_atom_site_label_2
_geom_bond_distance
_geom_bond_site_symmetry_2
_geom_bond_publ_flag
Ag1 Ag2 3.3452(10) 3_566 ?
Ag1 S1 2.5595(14) 3_556 ?
Ag1 S1 2.8147(16) 4_565 ?
Ag1 S1 2.5823(15) 3_566 ?
Ag1 O5 2.519(4) . ?
Ag2 Ag1 3.3453(10) 3_566 ?
Ag2 S1 2.5057(16) . ?
Ag2 O5 2.537(4) 1_565 ?
Ag2 O3 2.527(5) . ?
Ag2 O3 2.515(5) 1_565 ?
S1 Ag1 2.8146(16) 4_666 ?
S1 Ag1 2.5823(15) 3_566 ?
S1 Ag1 2.5595(14) 3_556 ?
S1 C1 1.765(4) . ?
O5 Ag2 2.537(4) 1_545 ?
O5 N2 1.234(6) . ?
N2 O3 1.248(5) . ?
N2 O4 1.226(6) . ?
O3 Ag2 2.515(5) 1_545 ?
O2 N1 1.221(7) . ?
O1 N1 1.221(7) . ?
C1 C2 1.384(6) . ?
C1 C6 1.388(7) . ?
N1 C4 1.474(6) . ?
C2 H2 0.9300 . ?
C2 C3 1.381(7) . ?
C4 C3 1.360(8) . ?
C4 C5 1.362(8) . ?
C3 H3 0.9300 . ?
C6 H6 0.9300 . ?
C6 C5 1.382(7) . ?
C5 H5 0.9300 . ?
loop_
_geom_torsion_atom_site_label_1
_geom_torsion_atom_site_label_2
_geom_torsion_atom_site_label_3
_geom_torsion_atom_site_label_4
_geom_torsion
_geom_torsion_site_symmetry_1
_geom_torsion_site_symmetry_2
_geom_torsion_site_symmetry_3
_geom_torsion_site_symmetry_4
_geom_torsion_publ_flag
Ag1 S1 C1 C2 -134.2(4) 3_556 . . . ?
Ag1 S1 C1 C2 -51.0(4) 4_666 . . . ?
Ag1 S1 C1 C2 33.4(4) 3_566 . . . ?
Ag1 S1 C1 C6 44.6(4) 3_556 . . . ?
Ag1 S1 C1 C6 127.8(4) 4_666 . . . ?
Ag1 S1 C1 C6 -147.9(4) 3_566 . . . ?
Ag1 O5 N2 O3 178.6(4) . . . . ?
Ag1 O5 N2 O4 -1.8(6) . . . . ?
Ag2 S1 C1 C2 120.7(4) . . . . ?
Ag2 S1 C1 C6 -60.6(4) . . . . ?
Ag2 O5 N2 O3 0.2(5) 1_545 . . . ?
Ag2 O5 N2 O4 179.8(5) 1_545 . . . ?
S1 C1 C2 C3 178.9(4) . . . . ?
S1 C1 C6 C5 -179.5(4) . . . . ?
O5 N2 O3 Ag2 -0.2(5) . . . 1_545 ?
O5 N2 O3 Ag2 -154.5(4) . . . . ?
O2 N1 C4 C3 177.6(5) . . . . ?
O2 N1 C4 C5 -4.0(7) . . . . ?
O1 N1 C4 C3 -3.4(8) . . . . ?
O1 N1 C4 C5 175.0(5) . . . . ?
C1 C2 C3 C4 0.7(8) . . . . ?
C1 C6 C5 C4 0.5(9) . . . . ?
N1 C4 C3 C2 177.5(5) . . . . ?
N1 C4 C5 C6 -178.1(5) . . . . ?
O4 N2 O3 Ag2 25.8(6) . . . . ?
O4 N2 O3 Ag2 -179.8(4) . . . 1_545 ?
C2 C1 C6 C5 -0.7(8) . . . . ?
C3 C4 C5 C6 0.3(9) . . . . ?
C6 C1 C2 C3 0.1(7) . . . . ?
C5 C4 C3 C2 -0.9(8) . . . . ?
