#------------------------------------------------------------------------------
#$Date: 2021-03-24 07:15:48 +0200 (Wed, 24 Mar 2021) $
#$Revision: 263288 $
#$URL: file:///home/coder/svn-repositories/cod/cif/7/24/25/7242513.cif $
#------------------------------------------------------------------------------
#
# This file is available in the Crystallography Open Database (COD),
# http://www.crystallography.net/
#
# All data on this site have been placed in the public domain by the
# contributors.
#
data_7242513
loop_
_publ_author_name
'Surov, Artem Olegovich'
'Voronin, Alexander P.'
'Drozd, Ksenia V.'
'Gruzdev, Matvey Sergeevich'
'Prashanth, Jupally'
'Balasubramanian, Sridhar'
'Perlovich, German L.'
_publ_section_title
;
 Polymorphic forms of antiandrogenic drug nilutamide: structural and
 thermodynamic aspects
;
_journal_name_full               'Physical Chemistry Chemical Physics'
_journal_paper_doi               10.1039/D1CP00793A
_journal_year                    2021
_chemical_formula_moiety         'C12 H10 F3 N3 O4'
_chemical_formula_sum            'C12 H10 F3 N3 O4'
_chemical_formula_weight         317.23
_space_group_crystal_system      triclinic
_space_group_IT_number           2
_space_group_name_Hall           '-P 1'
_space_group_name_H-M_alt        'P -1'
_atom_sites_solution_hydrogens   mixed
_audit_creation_method           SHELXL-2018/3
_audit_update_record
;
2021-02-16 deposited with the CCDC.	2021-03-23 downloaded from the CCDC.
;
_cell_angle_alpha                100.721(3)
_cell_angle_beta                 99.964(3)
_cell_angle_gamma                91.329(4)
_cell_formula_units_Z            2
_cell_length_a                   7.5763(8)
_cell_length_b                   8.5961(9)
_cell_length_c                   10.7211(10)
_cell_measurement_reflns_used    9975
_cell_measurement_temperature    100(2)
_cell_measurement_theta_max      30.56
_cell_measurement_theta_min      2.73
_cell_volume                     674.59(12)
_computing_cell_refinement       '<i>SAINT</i> (Bruker, 2016)'
_computing_data_collection       '<i>APEX3</i> (Bruker, 2016)'
_computing_data_reduction        'Bruker SAINT'
_computing_molecular_graphics    'DIAMOND (Brandenburg & Putz, 2005)'
_computing_publication_material  'Bruker SHELXTL'
_computing_structure_refinement  '<i>SHELXL2014</i> (Sheldrick, 2015)'
_computing_structure_solution    '<i>SHELXT</i> (Sheldrick, 2015)'
_diffrn_ambient_temperature      100(2)
_diffrn_measured_fraction_theta_full 0.999
_diffrn_measured_fraction_theta_max 0.996
_diffrn_measurement_device_type  'Bruker D8 QUEST PHOTON-100'
_diffrn_measurement_method       '\w and \f'
_diffrn_radiation_type           MoK\a
_diffrn_radiation_wavelength     0.71073
_diffrn_reflns_av_R_equivalents  0.0561
_diffrn_reflns_av_unetI/netI     0.0519
_diffrn_reflns_Laue_measured_fraction_full 0.999
_diffrn_reflns_Laue_measured_fraction_max 0.996
_diffrn_reflns_limit_h_max       10
_diffrn_reflns_limit_h_min       -10
_diffrn_reflns_limit_k_max       12
_diffrn_reflns_limit_k_min       -12
_diffrn_reflns_limit_l_max       15
_diffrn_reflns_limit_l_min       -11
_diffrn_reflns_number            16594
_diffrn_reflns_point_group_measured_fraction_full 0.999
_diffrn_reflns_point_group_measured_fraction_max 0.996
_diffrn_reflns_theta_full        25.242
_diffrn_reflns_theta_max         30.566
_diffrn_reflns_theta_min         2.415
_exptl_absorpt_coefficient_mu    0.145
_exptl_absorpt_correction_T_max  0.7461
_exptl_absorpt_correction_T_min  0.5134
_exptl_absorpt_correction_type   multi-scan
_exptl_absorpt_process_details   'SADABS, Bruker, 2016'
_exptl_crystal_colour            colorless
_exptl_crystal_density_diffrn    1.562
_exptl_crystal_description       plate
_exptl_crystal_F_000             324
_exptl_crystal_size_max          0.240
_exptl_crystal_size_mid          0.200
_exptl_crystal_size_min          0.080
_refine_diff_density_max         0.405
_refine_diff_density_min         -0.462
_refine_diff_density_rms         0.082
_refine_ls_extinction_method     none
_refine_ls_goodness_of_fit_ref   1.068
_refine_ls_hydrogen_treatment    mixed
_refine_ls_matrix_type           full
_refine_ls_number_parameters     205
_refine_ls_number_reflns         4137
_refine_ls_number_restraints     0
_refine_ls_restrained_S_all      1.068
_refine_ls_R_factor_all          0.0520
_refine_ls_R_factor_gt           0.0425
_refine_ls_shift/su_max          0.000
_refine_ls_shift/su_mean         0.000
_refine_ls_structure_factor_coef Fsqd
_refine_ls_weighting_details
'w=1/[\s^2^(Fo^2^)+(0.0514P)^2^+0.2562P] where P=(Fo^2^+2Fc^2^)/3'
_refine_ls_weighting_scheme      calc
_refine_ls_wR_factor_gt          0.1098
_refine_ls_wR_factor_ref         0.1163
_reflns_Friedel_coverage         0.000
_reflns_number_gt                3505
_reflns_number_total             4137
_reflns_threshold_expression     'I > 2\s(I)'
_cod_data_source_file            d1cp00793a2.cif
_cod_data_source_block           KA1023_0m
_cod_database_code               7242513
_shelx_shelxl_version_number     2018/3
_shelx_space_group_comment
;
The symmetry employed for this shelxl refinement is uniquely defined
by the following loop, which should always be used as a source of
symmetry information in preference to the above space-group names.
They are only intended as comments.
;
_shelx_estimated_absorpt_t_min   0.966
_shelx_estimated_absorpt_t_max   0.989
_shelx_res_file
;

TITL KA1023_0m_a.res in P-1
    KA1023_0m.res
    created by SHELXL-2018/3 at 12:58:58 on 21-Sep-2020
CELL 0.71073  7.5763    8.5961   10.7211  100.7209   99.9635   91.3290
ZERR 2.00   0.0008    0.0009    0.0010    0.0031    0.0031    0.0035
LATT 1
SFAC C H N O F
UNIT 24 20 6 8 6
LIST 6 ! automatically inserted. Change 6 to 4 for CHECKCIF!!
TEMP -173
ACTA
L.S. 10
FMAP 2
PLAN -3 0 0.00
SIZE 0.24 0.20 0.08
EQIV $1 -x, -y+1, -z+2
EQIV $2 -x+1, -y+2, -z+2
HTAB N3 O3_$1
HTAB C12 O4_$2
BOND $H
CONF
WGHT    0.051400    0.256200
FVAR       0.98476
C1    1    0.241904    0.546773    0.657842    11.00000    0.00780    0.01269 =
         0.00964   -0.00039    0.00149   -0.00149
C2    1    0.254391    0.649581    0.573114    11.00000    0.01389    0.01218 =
         0.01188    0.00161    0.00188   -0.00070
AFIX  43
H2    2    0.257431    0.761094    0.602409    11.00000   -1.20000
AFIX   0
C3    1    0.262354    0.586823    0.445008    11.00000    0.01425    0.01388 =
         0.01114    0.00333    0.00144   -0.00125
AFIX  43
H3    2    0.273360    0.655659    0.386622    11.00000   -1.20000
AFIX   0
C4    1    0.254252    0.424159    0.402576    11.00000    0.00862    0.01554 =
         0.00852    0.00060    0.00085   -0.00035
C5    1    0.240658    0.319256    0.486511    11.00000    0.00908    0.01194 =
         0.01123   -0.00010    0.00187   -0.00125
C6    1    0.236473    0.382783    0.614907    11.00000    0.01088    0.01198 =
         0.01077    0.00126    0.00278   -0.00230
AFIX  43
H6    2    0.229857    0.314035    0.674028    11.00000   -1.20000
AFIX   0
C7    1    0.239137    0.140686    0.447941    11.00000    0.01939    0.01432 =
         0.01316    0.00018    0.00508   -0.00093
C8    1    0.143291    0.535576    0.867609    11.00000    0.00974    0.01220 =
         0.00992    0.00171    0.00288   -0.00064
C9    1    0.307983    0.756901    1.001149    11.00000    0.01112    0.01157 =
         0.00968    0.00009    0.00127   -0.00320
C10   1    0.336112    0.746068    0.862319    11.00000    0.01058    0.00995 =
         0.01107   -0.00037    0.00119   -0.00128
C11   1    0.487980    0.749337    1.090015    11.00000    0.01428    0.01923 =
         0.01565    0.00350   -0.00262   -0.00428
AFIX 137
H11A  2    0.467121    0.744830    1.177004    11.00000   -1.50000
H11B  2    0.564666    0.843951    1.093347    11.00000   -1.50000
H11C  2    0.547241    0.654394    1.056516    11.00000   -1.50000
AFIX   0
C12   1    0.213278    0.907463    1.043909    11.00000    0.01768    0.01601 =
         0.01774   -0.00428    0.00453    0.00074
AFIX 137
H12A  2    0.104472    0.912190    0.980573    11.00000   -1.50000
H12B  2    0.293849    1.000558    1.050248    11.00000   -1.50000
H12C  2    0.180792    0.906177    1.128322    11.00000   -1.50000
AFIX   0
F1    5    0.356684    0.094380    0.370537    11.00000    0.02554    0.01813 =
         0.01822   -0.00049    0.00982    0.00667
F2    5    0.077404    0.074916    0.387526    11.00000    0.02399    0.01888 =
         0.02898   -0.00553    0.00574   -0.01002
F3    5    0.284026    0.074288    0.552266    11.00000    0.04866    0.01423 =
         0.01763    0.00494    0.00894    0.00409
O1    4    0.349600    0.444869    0.213014    11.00000    0.02053    0.02545 =
         0.01363    0.00675    0.00715    0.00350
O2    4    0.151172    0.255423    0.207202    11.00000    0.02325    0.01851 =
         0.01348   -0.00309   -0.00299   -0.00058
O3    4    0.035404    0.421412    0.825763    11.00000    0.01335    0.01429 =
         0.01135   -0.00062    0.00271   -0.00571
O4    4    0.423587    0.837886    0.822003    11.00000    0.02034    0.01498 =
         0.01567    0.00107    0.00492   -0.00741
N1    3    0.252982    0.369440    0.263994    11.00000    0.01331    0.01659 =
         0.00987    0.00151    0.00057    0.00341
N2    3    0.241222    0.607718    0.789630    11.00000    0.01184    0.01090 =
         0.00855   -0.00050    0.00292   -0.00335
N3    3    0.190095    0.616203    0.988790    11.00000    0.01376    0.01459 =
         0.00813   -0.00020    0.00300   -0.00599
H3N   2    0.132077    0.600946    1.051728    11.00000    0.02148
HKLF 4 1 1 0 0 0 1 0 0 0 1




REM  KA1023_0m_a.res in P-1
REM wR2 = 0.1163, GooF = S = 1.068, Restrained GooF = 1.068 for all data
REM R1 = 0.0425 for 3505 Fo > 4sig(Fo) and 0.0520 for all 4137 data
REM 205 parameters refined using 0 restraints

END

WGHT      0.0514      0.2562

REM Highest difference peak  0.405,  deepest hole -0.462,  1-sigma level  0.082
Q1    1   0.3925  0.7490  1.0386  11.00000  0.05    0.41
Q2    1   0.2518  0.4020  0.3450  11.00000  0.05    0.33
Q3    1   0.3346  0.7611  0.9402  11.00000  0.05    0.30
;
_shelx_res_checksum              61170
_shelx_hkl_file
;
  -1   0   0   17.18    1.58
  -1   0   0   17.45    1.51
  -1   0   0   17.15    1.51
  -1   0   0   19.81    1.53
   1   0   0   18.64    1.53
   1   0   0   19.34    1.53
   1   0   0   17.56    1.51
   1   0   0   18.89    1.60
  -2   0   0 9999.00  773.80
  -3   0   0   65.62    5.38
  -3   0   0   64.67    5.28
  -3   0   0   58.42    5.18
   3   0   0   56.70    5.22
   3   0   0   63.38    5.43
   3   0   0   70.28    5.23
   3   0   0   67.19    5.23
  -4   0   0 1129.71   88.98
  -4   0   0 1124.68   88.78
  -4   0   0 1168.07   88.90
  -4   0   0 1191.63   88.79
   4   0   0 1106.58   88.84
   4   0   0 1034.69   89.63
   4   0   0 1200.67   88.86
   4   0   0 1233.72   88.88
  -5   0   0    5.15    0.91
  -5   0   0    5.31    1.15
  -5   0   0    3.69    1.12
  -5   0   0    5.45    1.26
   5   0   0    3.17    1.12
   5   0   0    5.06    1.56
   5   0   0    3.45    0.99
   5   0   0    5.35    1.00
  -6   0   0  287.44   24.55
  -6   0   0  342.83   24.36
  -6   0   0  308.58   24.38
  -6   0   0  310.90   24.70
   6   0   0  263.06   24.65
   6   0   0  298.33   24.76
   6   0   0  335.74   24.51
   6   0   0  330.43   24.50
  -7   0   0   81.31    6.47
  -7   0   0   82.13    7.25
  -7   0   0   71.21    6.67
   7   0   0   84.74    6.70
   7   0   0   63.03    7.10
   7   0   0   64.58    6.91
   7   0   0   79.99    6.75
  -8   0   0  255.25   18.23
  -8   0   0  197.75   18.25
  -8   0   0  233.76   18.92
   8   0   0  230.23   18.53
   8   0   0  250.08   18.53
   8   0   0  202.29   18.59
  -9   0   0   10.45    3.28
  -9   0   0    8.18    1.66
   9   0   0    7.14    2.55
   9   0   0    8.00    2.01
   9   0   0    9.47    2.37
 -10   0   0  297.59   23.74
  10   0   0  237.81   23.20
  10   0   0  283.39   22.56
  10   0   0  300.97   22.82
  10  -1   0  135.50   11.31
  10  -1   0  123.16   11.51
 -10   1   0  134.54   13.15
   9  -1   0   81.87    8.37
   9  -1   0   92.43    8.24
  -9   1   0   92.27    9.37
  -9   1   0   96.46    7.63
   8  -1   0  152.08   13.91
   8  -1   0  179.84   13.94
   8  -1   0  175.70   14.00
  -8   1   0  156.60   13.72
  -8   1   0  161.66   14.35
  -8   1   0  182.75   13.51
   7  -1   0  105.72    8.21
   7  -1   0   84.32    8.46
   7  -1   0   90.58    8.53
   7  -1   0   93.05    8.17
  -7   1   0  104.91    7.88
  -7   1   0   85.43    8.12
  -7   1   0  100.72    8.65
   6  -1   0  106.57    9.43
   6  -1   0  106.48    9.75
   6  -1   0  113.03    9.39
   6  -1   0  122.76    9.44
  -6   1   0  112.34    9.67
  -6   1   0  122.90    9.19
  -6   1   0  108.70    9.34
   5  -1   0   73.48    6.38
   5  -1   0   66.70    5.88
   5  -1   0   68.53    5.95
   5  -1   0   73.12    5.94
  -5   1   0   69.28    5.92
  -5   1   0   68.80    6.11
  -5   1   0   71.27    5.76
  -5   1   0   68.83    6.15
   4  -1   0  297.17   23.90
   4  -1   0  297.56   24.25
   4  -1   0  329.77   24.00
   4  -1   0  294.08   23.92
  -4   1   0  304.88   24.10
  -4   1   0  294.80   24.03
  -4   1   0  308.46   23.84
  -4   1   0  320.77   23.92
   3  -1   0   82.15    7.53
   3  -1   0   94.46    7.62
   3  -1   0   90.83    7.58
   3  -1   0   97.50    7.78
  -3   1   0   97.80    7.59
  -3   1   0   90.63    7.67
  -3   1   0   95.78    7.54
  -3   1   0  111.60    7.81
   2  -1   0 3432.70  290.27
  -2   1   0 4008.89  290.65
   1  -1   0  135.26   10.96
   1  -1   0  149.15   11.02
  -1   1   0  138.47   11.01
  -1   1   0  141.21   10.96
   0  -1   0 2059.12  160.03
  -1  -1   0  433.37   37.76
  -1  -1   0  476.37   37.78
  -1  -1   0  558.25   37.79
  -1  -1   0  437.14   37.70
   1   1   0  501.80   37.71
   1   1   0  518.98   37.81
   1   1   0  464.52   37.70
   1   1   0  565.18   37.80
   1   1   0  444.90   37.75
  -2  -1   0  382.22   27.04
  -2  -1   0  320.46   26.89
  -2  -1   0  324.21   26.88
   2   1   0  346.83   26.90
   2   1   0  360.67   26.98
   2   1   0  357.78   27.04
   2   1   0  339.96   26.89
  -3  -1   0   46.84    4.08
  -3  -1   0   51.24    4.25
  -3  -1   0   41.77    4.03
  -3  -1   0   53.31    4.13
   3   1   0   50.59    4.23
   3   1   0   47.67    4.04
   3   1   0   51.56    4.05
   3   1   0   47.69    4.35
  -4  -1   0 1404.21  107.21
  -4  -1   0 1316.06  107.05
  -4  -1   0 1364.33  106.99
  -4  -1   0 1468.35  107.06
   4   1   0 1396.25  107.13
   4   1   0 1365.07  107.24
   4   1   0 1387.20  107.04
   4   1   0 1386.85  107.04
  -5  -1   0   92.75    7.97
  -5  -1   0   89.26    8.05
  -5  -1   0  112.76    8.03
  -5  -1   0   97.64    8.22
   5   1   0   80.69    8.15
   5   1   0   94.65    7.98
   5   1   0   99.16    8.45
   5   1   0  112.57    8.05
  -6  -1   0   10.18    1.61
  -6  -1   0    6.54    1.71
  -6  -1   0    5.40    1.51
  -6  -1   0    6.36    1.44
   6   1   0    7.89    1.43
   6   1   0    8.29    1.68
   6   1   0    6.95    1.77
   6   1   0    7.61    1.45
   6   1   0    7.36    2.23
  -7  -1   0   19.26    3.00
  -7  -1   0   24.49    3.40
  -7  -1   0   25.52    2.66
   7   1   0   23.23    3.73
   7   1   0   24.36    2.70
   7   1   0   17.26    3.18
   7   1   0   21.30    2.88
  -8  -1   0  277.28   20.23
   8   1   0  267.97   19.79
   8   1   0  224.32   19.86
   8   1   0  210.08   20.41
  -9  -1   0   75.63    8.30
   9   1   0   60.47    7.54
   9   1   0   83.75    7.26
   9   1   0   75.66    6.97
 -10  -1   0  193.83   16.94
  10   1   0  201.39   15.51
  10   1   0  151.25   15.84
  10   1   0  190.89   15.29
  10  -2   0  151.89   13.36
  10  -2   0  156.60   13.00
 -10   2   0  152.06   14.79
   9  -2   0    1.38    2.17
   9  -2   0    3.11    1.99
   9  -2   0    1.56    1.59
  -9   2   0    1.96    3.11
  -9   2   0    1.69    0.88
   8  -2   0    5.99    1.93
   8  -2   0    6.64    1.74
   8  -2   0    4.85    2.46
  -8   2   0    7.78    1.09
  -8   2   0    5.91    2.66
  -8   2   0    4.15    1.75
   7  -2   0   49.62    4.99
   7  -2   0   55.21    5.00
  -7   2   0   58.92    5.66
  -7   2   0   52.38    4.51
  -7   2   0   48.76    5.07
   6  -2   0  160.06   13.78
   6  -2   0  185.57   13.89
   6  -2   0  170.59   14.18
  -6   2   0  171.37   13.51
  -6   2   0  168.49   13.75
  -6   2   0  168.43   14.09
   5  -2   0   18.43    2.02
   5  -2   0   14.20    2.37
   5  -2   0   16.70    1.96
  -5   2   0   17.24    1.81
  -5   2   0   14.28    2.47
  -5   2   0   18.21    2.19
  -5   2   0   17.87    2.37
   4  -2   0  152.61   11.77
   4  -2   0  149.22   11.56
   4  -2   0  163.26   11.66
  -4   2   0  146.51   11.72
  -4   2   0  136.71   11.70
  -4   2   0  132.21   11.52
  -4   2   0  132.56   11.69
   3  -2   0   47.38    3.73
   3  -2   0   42.48    3.76
   3  -2   0   44.34    3.91
  -3   2   0   41.13    3.87
  -3   2   0   42.67    3.66
  -3   2   0   39.32    3.83
  -3   2   0   48.63    3.77
   2  -2   0   16.59    1.81
   2  -2   0   21.70    2.02
   2  -2   0   18.91    1.79
  -2   2   0   24.29    1.99
  -2   2   0   21.29    1.86
  -2   2   0   17.06    1.92
   1  -2   0 2523.43  199.93
  -1   2   0 2579.43  199.92
   0  -2   0  225.28   19.07
   0  -2   0  259.86   19.04
   0   2   0  275.76   19.11
   0   2   0  246.26   19.05
   0   2   0  246.08   19.13
   0   2   0  221.79   19.09
  -1  -2   0    9.56    0.89
  -1  -2   0    6.21    0.93
  -1  -2   0    6.98    1.08
  -1  -2   0    9.08    1.05
  -1  -2   0    9.48    1.10
   1   2   0    8.71    1.17
   1   2   0    8.14    0.87
   1   2   0    7.82    1.16
  -2  -2   0  408.03   29.27
  -2  -2   0  321.57   29.36
  -2  -2   0  378.80   29.40
  -2  -2   0  421.81   29.39
  -2  -2   0  364.23   29.27
   2   2   0  374.45   29.24
   2   2   0  395.13   29.41
   2   2   0  388.49   29.37
   2   2   0  354.83   29.24
   2   2   0  369.13   29.44
  -3  -2   0  742.46   55.39
  -3  -2   0  736.43   55.55
  -3  -2   0  791.81   55.50
  -3  -2   0  678.27   55.37
   3   2   0  632.41   55.47
   3   2   0  768.38   55.57
   3   2   0  723.61   55.61
   3   2   0  629.64   55.34
   3   2   0  742.90   55.37
  -4  -2   0   73.03    6.33
  -4  -2   0   76.88    6.21
  -4  -2   0   85.63    6.26
  -4  -2   0   72.98    6.15
   4   2   0   69.22    6.59
   4   2   0   71.33    6.09
   4   2   0   68.58    6.28
   4   2   0   78.72    6.10
   4   2   0   68.90    6.53
  -5  -2   0   89.74    7.46
  -5  -2   0   83.00    7.32
  -5  -2   0   83.38    7.53
  -5  -2   0   94.48    7.39
   5   2   0   80.37    7.82
   5   2   0   96.63    7.31
   5   2   0   92.83    7.34
   5   2   0   81.75    7.62
  -6  -2   0   31.83    3.61
  -6  -2   0   31.56    3.05
  -6  -2   0   28.39    3.21
  -6  -2   0   31.85    3.28
   6   2   0   32.53    3.04
   6   2   0   22.65    3.67
   6   2   0   29.38    3.09
   6   2   0   26.51    4.12
   6   2   0   26.07    3.35
  -7  -2   0    2.94    1.28
  -7  -2   0    1.96    1.78
  -7  -2   0    2.97    1.45
   7   2   0    2.43    2.01
   7   2   0    3.68    1.20
   7   2   0    1.96    1.43
   7   2   0    2.98    1.33
  -8  -2   0   44.71    4.44
  -8  -2   0   36.67    5.33
   8   2   0   40.61    4.48
   8   2   0   34.14    4.65
   8   2   0   34.08    5.01
   8   2   0   43.74    4.19
  -9  -2   0    1.64    3.01
   9   2   0    1.49    1.45
   9   2   0    0.17    2.14
   9   2   0    0.15    1.77
 -10  -2   0    8.78    4.45
  10   2   0    3.51    1.64
  10   2   0    8.43    2.16
  10   2   0    2.95    2.50
  10  -3   0    0.28    1.56
  10  -3   0    0.80    2.20
 -10   3   0    2.98    4.52
   9  -3   0   -0.19    1.67
   9  -3   0   -1.94    2.02
   9  -3   0    2.57    2.69
  -9   3   0   -3.14    2.98
   8  -3   0    5.43    1.70
   8  -3   0    5.52    1.95
  -8   3   0    4.71    0.86
  -8   3   0    4.99    2.75
  -8   3   0    4.99    2.08
   7  -3   0   14.11    2.50
   7  -3   0   10.16    2.00
  -7   3   0   13.66    2.15
  -7   3   0   12.28    1.59
  -7   3   0    9.80    2.52
   6  -3   0   15.23    2.72
   6  -3   0   22.72    2.58
   6  -3   0   24.27    2.65
  -6   3   0   18.06    2.65
  -6   3   0   22.30    3.18
  -6   3   0   14.80    2.73
  -6   3   0   18.64    2.01
   5  -3   0    0.64    1.45
   5  -3   0   -0.14    0.63
   5  -3   0   -0.98    0.63
  -5   3   0    0.73    0.93
  -5   3   0   -0.30    0.57
  -5   3   0    0.20    1.08
  -5   3   0   -0.04    1.17
   4  -3   0 3621.20  285.27
  -4   3   0 3769.87  285.35
  -4   3   0 3707.90  285.13
   3  -3   0  120.78   10.82
   3  -3   0  138.24   10.80
  -3   3   0  143.32   10.83
  -3   3   0  141.16   10.96
   2  -3   0 5341.45  394.90
  -2   3   0 4753.95  393.72
   1  -3   0 1114.20   80.29
   1  -3   0  938.14   80.30
   1  -3   0 1073.71   80.31
  -1   3   0 1034.33   80.30
   0  -3   0   36.63    2.89
   0  -3   0   30.42    2.77
   0   3   0   30.99    2.86
   0   3   0   37.19    2.94
   0   3   0   31.62    2.79
   0   3   0   32.37    2.97
  -1  -3   0   33.91    3.18
  -1  -3   0   40.44    3.21
  -1  -3   0   33.18    3.04
   1   3   0   36.29    3.13
   1   3   0   39.16    3.27
   1   3   0   36.98    3.02
   1   3   0   32.81    3.34
  -2  -3   0  340.52   26.03
  -2  -3   0  300.79   26.04
  -2  -3   0  338.34   26.21
  -2  -3   0  333.49   26.24
  -2  -3   0  385.05   26.22
   2   3   0  330.29   26.14
   2   3   0  323.86   26.27
   2   3   0  324.16   26.01
   2   3   0  340.03   26.23
  -3  -3   0  493.37   39.31
  -3  -3   0  511.03   39.51
  -3  -3   0  558.25   39.49
   3   3   0  487.15   39.28
   3   3   0  500.98   39.44
   3   3   0  512.71   39.27
   3   3   0  488.71   39.58
   3   3   0  501.66   39.53
  -4  -3   0  547.09   44.85
  -4  -3   0  566.09   45.05
  -4  -3   0  661.05   45.04
  -4  -3   0  574.32   44.88
   4   3   0  552.77   44.79
   4   3   0  558.91   44.83
   4   3   0  565.20   45.18
   4   3   0  579.97   45.03
   4   3   0  594.43   45.13
  -5  -3   0   73.01    6.11
  -5  -3   0   68.28    6.28
  -5  -3   0   64.85    6.08
  -5  -3   0   79.34    6.19
   5   3   0   73.49    6.02
   5   3   0   61.84    6.15
   5   3   0   74.39    5.93
   5   3   0   72.33    6.49
   5   3   0   68.31    6.63
  -6  -3   0   72.89    6.86
  -6  -3   0   68.69    6.57
  -6  -3   0   79.53    6.65
  -6  -3   0   87.55    6.64
   6   3   0   62.50    7.13
   6   3   0   75.29    6.81
   6   3   0   81.68    6.54
   6   3   0   75.04    6.36
   6   3   0   62.93    6.91
  -7  -3   0  142.69   11.22
  -7  -3   0  130.04   11.53
  -7  -3   0  116.95   11.05
   7   3   0  139.85   11.11
   7   3   0  143.57   11.27
   7   3   0  130.76   11.49
   8   3   0  103.92    8.89
   8   3   0  102.92    9.49
   8   3   0  102.06    9.10
  -9  -3   0    6.91    3.48
   9   3   0   16.30    2.76
   9   3   0    7.66    2.09
   9   3   0   11.06    2.86
 -10  -3   0   -0.99    3.96
  10   3   0   -3.54    2.25
  10   3   0   -0.89    1.55
  10   3   0    3.31    2.06
  10  -4   0   16.42    3.01
  10  -4   0   11.32    3.41
  10  -4   0   11.93    2.35
 -10   4   0   17.12    4.93
   9  -4   0   14.38    2.98
   9  -4   0   13.45    2.61
  -9   4   0    6.75    3.72
   8  -4   0   31.01    4.35
   8  -4   0   33.70    4.00
   7  -4   0    0.16    1.43
  -7   4   0    0.66    1.96
  -7   4   0    0.12    0.62
  -7   4   0    1.30    1.40
   6  -4   0  308.52   23.59
   6  -4   0  301.57   23.52
   6  -4   0  315.97   23.73
  -6   4   0  283.04   23.43
  -6   4   0  295.04   23.77
  -6   4   0  274.23   23.07
   5  -4   0  130.22   10.82
   5  -4   0  132.95   10.55
   5  -4   0  125.17   10.59
  -5   4   0  134.41   10.59
  -5   4   0  125.37   10.77
  -5   4   0  125.49   10.30
   4  -4   0  660.48   50.37
   4  -4   0  676.09   50.49
   4  -4   0  605.32   50.41
  -4   4   0  665.86   50.36
  -4   4   0  691.81   50.58
  -4   4   0  591.32   50.21
   3  -4   0   12.86    1.55
   3  -4   0   15.01    1.89
   3  -4   0   12.35    1.61
  -3   4   0   14.47    1.82
  -3   4   0   11.23    1.85
   2  -4   0  812.65   63.46
   2  -4   0  865.69   63.49
  -2   4   0  755.14   63.57
  -2   4   0  845.11   63.53
   1  -4   0  426.75   34.89
   1  -4   0  444.01   34.83
   1  -4   0  440.57   34.91
  -1   4   0  498.69   35.00
  -1   4   0  434.89   34.88
   0  -4   0 1455.60  121.45
   0  -4   0 1593.82  121.45
   0  -4   0 1587.46  121.34
   0   4   0 1741.55  121.49
   0   4   0 1544.30  121.39
   0   4   0 1518.15  121.52
  -1  -4   0 1056.13   80.67
  -1  -4   0  989.02   80.94
   1   4   0 1116.29   80.87
   1   4   0  973.92   80.65
   1   4   0  982.06   81.04
   1   4   0 1149.18   80.85
  -2  -4   0  747.23   58.05
  -2  -4   0  807.61   57.85
  -2  -4   0  803.14   58.12
  -2  -4   0  666.53   57.84
   2   4   0  690.90   57.81
   2   4   0  733.06   58.13
   2   4   0  786.15   58.11
  -3  -4   0    9.04    1.51
  -3  -4   0   12.16    1.61
  -3  -4   0    9.81    1.48
  -3  -4   0    8.92    1.80
  -3  -4   0    9.76    1.39
   3   4   0    8.79    1.70
   3   4   0   11.78    2.03
   3   4   0   10.77    1.23
   3   4   0   11.39    1.41
  -4  -4   0  532.17   40.30
  -4  -4   0  587.56   40.49
  -4  -4   0  509.52   40.25
  -4  -4   0  502.42   40.46
   4   4   0  468.03   40.17
   4   4   0  474.40   40.60
   4   4   0  540.54   40.43
   4   4   0  522.57   40.59
  -5  -4   0  424.91   32.89
  -5  -4   0  392.14   32.62
  -5  -4   0  411.64   32.65
   5   4   0  435.10   33.05
   5   4   0  383.02   33.01
   5   4   0  457.89   32.88
   5   4   0  410.76   32.58
  -6  -4   0 1144.97   91.70
  -6  -4   0 1190.24   91.79
  -6  -4   0 1306.79   91.93
  -6  -4   0 1146.11   91.95
   6   4   0 1215.04   91.67
   6   4   0 1131.31   91.67
   6   4   0 1092.47   92.04
   6   4   0 1237.94   92.01
  -7  -4   0  192.29   16.62
   7   4   0  206.34   16.30
   7   4   0  201.59   16.68
  -8  -4   0   36.58    5.37
   8   4   0   45.87    5.09
   8   4   0   50.43    5.55
   8   4   0   44.88    4.76
  -9  -4   0   -6.09    3.41
   9   4   0    3.03    2.03
   9   4   0   -2.32    2.03
   9   4   0   -2.65    1.50
   9  -5   0   38.87    5.12
   9  -5   0   33.78    4.56
  -9   5   0   34.06    5.61
   8  -5   0   66.46    6.85
   8  -5   0   72.22    6.73
  -8   5   0   62.60    7.63
   7  -5   0   76.83    6.62
   7  -5   0   68.68    6.50
  -7   5   0   68.17    6.92
  -7   5   0   61.11    7.14
   6  -5   0   16.79    2.46
   6  -5   0   15.60    2.47
  -6   5   0   13.91    2.70
  -6   5   0   13.38    1.92
  -6   5   0   16.25    2.37
   5  -5   0    3.46    1.51
   5  -5   0    2.55    1.12
   5  -5   0    1.03    1.02
  -5   5   0    2.21    1.53
  -5   5   0    1.82    1.42
  -5   5   0    2.16    0.91
   4  -5   0  360.50   32.30
   4  -5   0  414.04   32.30
   4  -5   0  463.42   32.45
  -4   5   0  416.55   32.32
  -4   5   0  409.20   32.47
   3  -5   0  244.89   17.94
   3  -5   0  210.96   17.94
   3  -5   0  193.30   17.85
   3  -5   0  249.06   17.91
  -3   5   0  223.82   17.89
  -3   5   0  232.99   17.99
   2  -5   0    3.01    0.82
   2  -5   0    3.84    1.02
   2  -5   0    4.73    0.98
   2  -5   0    4.47    1.07
  -2   5   0    6.52    1.12
   1  -5   0   33.93    3.03
   1  -5   0   32.82    2.92
   1  -5   0   28.56    2.91
  -1   5   0   31.59    3.24
  -1   5   0   24.42    2.85
  -1   5   0   37.79    3.10
   0  -5   0    3.10    0.89
   0  -5   0    1.79    0.76
   0  -5   0    3.10    0.77
   0   5   0    2.54    0.72
   0   5   0    3.49    1.03
   0   5   0    2.39    1.21
   0   5   0    2.09    0.74
  -1  -5   0    2.30    0.86
  -1  -5   0    0.85    0.78
  -1  -5   0    0.85    0.72
   1   5   0    1.21    0.55
   1   5   0    1.83    1.35
   1   5   0    2.00    1.01
   1   5   0    1.31    0.69
  -2  -5   0   60.27    5.27
  -2  -5   0   61.15    5.32
  -2  -5   0   59.59    4.97
  -2  -5   0   55.55    5.06
   2   5   0   60.72    5.16
   2   5   0   60.27    5.41
   2   5   0   57.63    5.59
   2   5   0   60.58    4.97
  -3  -5   0  481.39   39.18
  -3  -5   0  493.74   38.88
  -3  -5   0  500.12   39.07
  -3  -5   0  507.61   38.81
   3   5   0  468.70   39.23
   3   5   0  539.94   39.03
   3   5   0  508.70   39.20
   3   5   0  490.59   38.79
  -4  -5   0  175.00   13.54
  -4  -5   0  171.62   13.82
  -4  -5   0  139.67   13.84
  -4  -5   0  159.39   13.58
   4   5   0  194.64   13.76
   4   5   0  160.63   14.05
   4   5   0  170.34   13.46
   4   5   0  177.17   14.02
  -5  -5   0   59.00    5.57
  -5  -5   0   63.65    5.70
  -5  -5   0   62.18    5.91
   5   5   0   66.07    5.67
   5   5   0   51.55    6.34
   5   5   0   55.90    6.01
   5   5   0   68.00    5.41
  -6  -5   0   78.37    7.35
  -6  -5   0   62.39    6.88
   6   5   0   93.33    7.30
  -7  -5   0    6.82    2.50
   7   5   0    8.49    2.10
   7   5   0    7.03    1.90
  -8  -5   0   19.85    4.02
   8   5   0   26.48    3.81
   8   5   0   24.54    4.27
  -9  -5   0   14.75    4.44
   9   5   0   11.39    2.89
   9   5   0   13.83    2.48
   9  -6   0   -0.48    1.85
   9  -6   0    2.00    2.25
  -9   6   0    3.99    4.47
   8  -6   0    7.57    2.43
   8  -6   0    5.63    2.22
  -8   6   0    2.95    3.36
   7  -6   0   16.76    2.75
   7  -6   0   15.31    2.91
  -7   6   0   12.49    3.31
   6  -6   0  195.02   18.62
   6  -6   0  239.09   17.71
  -6   6   0  197.25   16.99
  -6   6   0  230.08   17.88
   5  -6   0  187.00   14.78
   5  -6   0  181.40   14.84
  -5   6   0  168.83   14.50
  -5   6   0  182.48   14.78
  -5   6   0  189.99   15.07
   4  -6   0    4.17    1.38
   4  -6   0    1.75    1.07
   4  -6   0    3.00    1.27
   4  -6   0    3.05    1.17
  -4   6   0    1.87    1.56
  -4   6   0    4.32    1.49
   3  -6   0  114.93   10.37
   3  -6   0  145.31   10.43
   3  -6   0  121.34   10.50
   3  -6   0  133.05   10.40
  -3   6   0  118.45   10.45
   2  -6   0  332.51   28.16
   2  -6   0  393.18   28.15
   2  -6   0  382.27   28.30
  -2   6   0  325.31   28.19
  -2   6   0  360.29   28.29
   1  -6   0  160.58   12.70
   1  -6   0  149.22   12.66
   1  -6   0  148.14   12.52
  -1   6   0  149.20   12.80
  -1   6   0  180.56   12.74
  -1   6   0  155.43   12.66
   0  -6   0 1977.20  161.28
   0  -6   0 2264.71  161.52
   0  -6   0 2033.18  161.50
   0   6   0 2034.17  161.42
   0   6   0 2337.25  161.57
   0   6   0 2178.14  161.65
   0   6   0 1815.48  161.52
  -1  -6   0    8.31    1.30
  -1  -6   0    8.61    1.50
  -1  -6   0    6.08    1.30
   1   6   0   10.96    2.03
   1   6   0    8.15    1.66
   1   6   0    6.83    1.20
   1   6   0    8.09    1.50
  -2  -6   0   21.01    2.72
  -2  -6   0   19.26    2.12
  -2  -6   0   20.13    2.59
  -2  -6   0   19.85    2.38
   2   6   0   22.10    2.39
   2   6   0   14.18    2.74
   2   6   0   21.13    2.18
   2   6   0   19.27    2.83
  -3  -6   0  153.61   13.38
  -3  -6   0  150.66   13.06
  -3  -6   0  163.22   12.95
  -3  -6   0  164.16   13.30
   3   6   0  159.12   12.94
   3   6   0  160.59   13.43
   3   6   0  163.30   13.63
   3   6   0  181.27   13.26
  -4  -6   0    4.22    1.27
  -4  -6   0    6.78    1.71
  -4  -6   0    6.23    1.83
  -4  -6   0    4.91    1.48
   4   6   0    3.90    1.10
   4   6   0    5.82    1.36
   4   6   0    4.71    1.82
   4   6   0    3.93    2.04
  -5  -6   0   40.31    4.76
  -5  -6   0   36.20    4.39
  -5  -6   0   42.48    4.25
   5   6   0   52.62    4.61
   5   6   0   43.88    4.22
  -6  -6   0   11.88    2.97
   6   6   0   18.26    2.66
   6   6   0   16.45    2.78
  -7  -6   0  133.40   12.78
   7   6   0  155.39   12.35
   7   6   0  149.29   12.68
  -8  -6   0    6.71    3.40
   8   6   0    2.81    2.12
   8   6   0    5.09    2.03
   9  -7   0   24.00    3.70
   9  -7   0   21.74    3.37
  -9   7   0   21.91    5.06
   8  -7   0   30.12    4.59
   8  -7   0   21.38    3.48
  -8   7   0   15.29    4.48
   7  -7   0   63.30    6.36
   7  -7   0   60.00    6.54
  -7   7   0   64.22    7.41
   6  -7   0    8.70    2.16
   6  -7   0    7.25    2.07
  -6   7   0    7.31    1.38
  -6   7   0   11.03    1.75
  -6   7   0   11.51    2.95
   5  -7   0   41.39    4.92
   5  -7   0   47.36    4.84
  -5   7   0   45.20    5.29
   4  -7   0    7.07    1.70
   4  -7   0    8.27    1.87
  -4   7   0   12.75    2.35
  -4   7   0    9.34    2.12
  -4   7   0   12.59    1.79
   3  -7   0   65.60    6.63
   3  -7   0   78.90    6.83
   3  -7   0   80.96    6.64
   3  -7   0   73.39    6.64
  -3   7   0   74.07    6.85
  -3   7   0   85.78    7.05
   2  -7   0    8.94    1.65
   2  -7   0    5.83    1.51
   2  -7   0    9.36    1.56
   2  -7   0    9.35    1.67
  -2   7   0    8.73    1.79
  -2   7   0    9.88    1.65
  -2   7   0    7.04    1.87
   1  -7   0    0.94    1.03
   1  -7   0   -0.07    1.00
   1  -7   0    1.54    1.04
  -1   7   0    0.56    1.28
  -1   7   0    2.25    1.59
  -1   7   0    1.51    1.02
   0  -7   0   17.74    2.11
   0  -7   0   16.44    2.43
   0  -7   0   18.15    2.35
   0   7   0   13.34    2.16
   0   7   0   17.38    2.24
   0   7   0   13.45    2.27
   0   7   0   13.21    2.44
  -1  -7   0   14.28    2.29
  -1  -7   0   13.46    2.10
  -1  -7   0   15.90    2.41
   1   7   0   16.35    2.15
   1   7   0   14.87    2.43
   1   7   0   15.97    2.27
   1   7   0   18.18    2.75
  -2  -7   0  157.12   11.60
  -2  -7   0  138.65   11.97
  -2  -7   0  137.44   11.63
   2   7   0  134.29   12.20
   2   7   0  153.84   11.98
   2   7   0  142.26   11.67
   2   7   0  142.73   12.11
  -3  -7   0  124.44   10.05
  -3  -7   0  127.03   10.54
  -3  -7   0  130.13   11.00
  -3  -7   0  106.83   10.09
   3   7   0  123.72   10.35
   3   7   0  128.57   10.10
  -4  -7   0    1.68    1.08
  -4  -7   0    0.23    1.56
   4   7   0    3.11    1.21
  -5  -7   0   40.40    5.01
   5   7   0   44.81    4.57
   5   7   0   39.94    4.16
  -6  -7   0   -2.44    2.23
   6   7   0    0.02    1.45
   6   7   0    2.08    1.58
  -7  -7   0    4.19    3.15
   7   7   0    4.39    1.81
   7   7   0    1.19    2.05
  -8  -7   0  143.67   13.97
   8   7   0  152.12   12.88
   8   7   0  162.81   13.44
   8  -8   0    6.56    2.46
   8  -8   0    6.70    2.42
  -8   8   0   12.36    4.74
   7  -8   0    5.11    2.40
   7  -8   0   -0.35    2.11
  -7   8   0    1.56    3.37
   6  -8   0   33.92    4.60
   6  -8   0   35.88    4.83
  -6   8   0   37.01    5.66
   5  -8   0    9.85    2.35
   5  -8   0   13.48    2.83
  -5   8   0   12.27    1.86
  -5   8   0   16.47    3.11
   4  -8   0    5.11    1.74
   4  -8   0    5.32    1.81
  -4   8   0    6.98    3.52
  -4   8   0    7.22    1.75
   3  -8   0  210.49   17.31
   3  -8   0  174.49   16.90
  -3   8   0  211.89   17.20
  -3   8   0  241.84   16.96
   2  -8   0   31.54    3.51
   2  -8   0   22.91    3.24
  -2   8   0   39.43    4.57
  -2   8   0   31.01    3.80
  -2   8   0   30.33    3.71
   1  -8   0   49.65    4.84
  -1   8   0   41.49    4.74
  -1   8   0   51.56    5.23
  -1   8   0   47.35    4.85
   0  -8   0   11.08    1.98
   0   8   0   11.56    2.04
   0   8   0    8.77    1.93
   0   8   0   10.24    4.22
   0   8   0    7.29    1.97
  -1  -8   0    6.24    1.92
   1   8   0    4.04    1.61
   1   8   0    4.44    1.83
   1   8   0    5.85    1.52
  -2  -8   0  318.50   26.49
  -2  -8   0  338.84   26.11
   2   8   0  343.98   26.37
   2   8   0  329.19   26.57
  -3  -8   0    2.89    1.11
   3   8   0    1.99    1.30
   3   8   0    2.55    1.37
  -4  -8   0   13.57    2.88
  -4  -8   0    9.60    2.44
   4   8   0   15.41    2.79
   4   8   0   10.40    2.01
  -5  -8   0   -0.70    2.25
   5   8   0    1.51    1.51
   5   8   0    1.31    1.57
  -6  -8   0   63.85    7.62
   6   8   0   70.08    6.49
   6   8   0   70.47    6.94
  -7  -8   0    1.81    3.42
   7   8   0    3.61    1.56
   7   8   0    1.98    1.85
   7  -9   0   52.22    6.70
   7  -9   0   56.88    5.99
  -7   9   0   55.74    8.16
   6  -9   0   40.40    5.57
   6  -9   0   30.85    4.47
  -6   9   0   31.51    5.25
   5  -9   0    1.52    2.12
   5  -9   0   -2.06    2.03
  -5   9   0    2.07    2.76
   4  -9   0  175.54   14.80
  -4   9   0  159.55   15.04
  -4   9   0  192.85   14.47
   3  -9   0    1.59    1.75
   3  -9   0    0.31    1.64
  -3   9   0    0.34    2.19
  -3   9   0   -1.07    1.54
   2  -9   0   20.00    3.53
   2  -9   0   28.07    3.83
  -2   9   0   31.87    4.25
  -2   9   0   34.92    3.86
   1  -9   0  102.48    9.12
  -1   9   0  103.95    9.25
   0  -9   0    3.86    1.73
   0   9   0    5.74    1.95
  -1  -9   0   61.18    6.20
   1   9   0   68.31    6.02
   1   9   0   59.69    6.12
  -2  -9   0   31.95    3.43
  -2  -9   0   31.36    4.43
   2   9   0   40.13    4.05
   2   9   0   34.40    4.26
  -3  -9   0  127.31   11.43
   3   9   0  138.44   11.11
   3   9   0  127.94   11.37
  -4  -9   0   77.87    8.23
   4   9   0   90.05    7.74
   4   9   0   87.25    8.10
   5   9   0    0.06    1.53
   5   9   0    1.66    1.90
   6   9   0   11.16    2.36
   6   9   0   10.77    1.97
   6 -10   0    8.68    2.54
   6 -10   0    3.52    2.85
  -6  10   0    5.78    3.78
   5 -10   0   40.75    6.03
   5 -10   0   41.93    5.38
  -5  10   0   44.25    6.86
   4 -10   0   27.49    4.83
   4 -10   0   26.23    4.05
  -4  10   0   39.33    5.89
   3 -10   0    2.17    2.02
   3 -10   0    3.66    2.15
  -3  10   0   -0.91    2.71
   2 -10   0    3.22    2.26
   2 -10   0    4.99    2.23
  -2  10   0    7.48    2.73
   1 -10   0   24.32    3.56
   1 -10   0   19.61    3.28
  -1  10   0   32.96    4.24
   0 -10   0   67.35    6.97
   0  10   0   72.73    7.14
  -1 -10   0   11.95    2.87
   1  10   0    8.65    2.54
   1  10   0    6.09    2.10
  -2 -10   0    5.93    2.47
   2  10   0    5.18    2.18
   2  10   0    2.00    1.89
  -3 -10   0    0.39    2.51
   3  10   0    0.06    1.81
   3  10   0   -0.63    1.60
   4  10   0   95.08    9.09
   4  10   0  102.67    8.80
  -5 -10   0   16.56    3.47
   5  10   0   16.89    2.70
   5  10   0   22.86    3.33
   4 -11   0   30.99    5.03
   4 -11   0   41.62    4.87
  -4  11   0   40.91    5.66
   3 -11   0    1.29    2.83
   2 -11   0  136.07   12.35
  -2  11   0  149.29   12.99
   1 -11   0   22.51    3.62
  -1  11   0   22.40    4.00
   0 -11   0   43.35    5.50
   0  11   0   43.89    5.85
  -1 -11   0    3.58    2.44
   1  11   0    0.51    2.23
  -2 -11   0   70.95    7.05
   2  11   0   60.94    6.45
   2  11   0   60.20    6.51
  -3 -11   0    2.12    2.37
   3  11   0    2.45    1.77
   3  11   0    2.39    1.85
   1 -12   0   12.62    2.90
  -1  12   0   10.69    3.57
   0 -12   0   97.80    9.71
   0  12   0  113.50   10.23
   1  12  -1   88.36    8.80
   0  12  -1   -5.48    2.65
   0 -12   1    0.71    2.17
   0 -12   1    0.96    2.80
  -1  12  -1   -0.17    2.96
   1 -12   1    3.63    2.35
   1 -12   1   -2.34    2.81
  -2  12  -1    7.72    3.32
   2 -12   1    3.38    3.18
   2 -12   1    7.75    2.88
   4  11  -1    9.29    2.39
   4  11  -1    9.19    2.38
  -4 -11   1    9.64    2.87
   3  11  -1   13.56    2.77
   3  11  -1   17.79    2.63
  -3 -11   1   17.84    2.97
   2  11  -1   -1.42    2.08
   2  11  -1    0.89    1.95
  -2 -11   1    0.30    2.27
   1  11  -1    6.74    2.46
  -1 -11   1   -0.65    2.30
   0  11  -1   -3.60    2.54
   0 -11   1    2.87    2.32
  -1  11  -1   12.69    3.41
   1 -11   1   11.33    2.88
  -2  11  -1   38.82    6.10
   2 -11   1   30.46    5.35
  -3  11  -1   51.07    7.29
   3 -11   1   52.50    6.88
   3 -11   1   55.86    6.02
  -4  11  -1  100.25   10.26
   4 -11   1   96.88    8.83
   4 -11   1   85.47    9.58
  -5  11  -1   15.51    4.40
   5 -11   1   19.98    4.11
   5 -11   1   16.26    3.39
   5  10  -1   19.65    3.64
   5  10  -1   17.25    2.55
   4  10  -1   38.57    4.43
   4  10  -1   34.63    4.53
  -4 -10   1   32.00    5.15
   3  10  -1   43.19    4.67
   3  10  -1   34.32    4.84
  -3 -10   1   36.48    5.16
   2  10  -1  206.07   15.40
   2  10  -1  158.65   15.43
  -2 -10   1  193.18   15.58
   1  10  -1    6.34    2.14
   1  10  -1    8.54    2.36
  -1 -10   1    6.41    2.32
   0  10  -1  142.34   12.19
   0 -10   1  138.16   12.12
  -1  10  -1   51.12    6.11
   1 -10   1   52.28    5.70
  -2  10  -1    3.66    2.55
   2 -10   1   -0.94    2.04
   2 -10   1   -0.66    1.97
  -3  10  -1    5.95    2.93
   3 -10   1   10.08    2.70
   3 -10   1   14.87    2.82
  -4  10  -1   58.37    7.13
   4 -10   1   61.37    6.37
   4 -10   1   51.35    6.56
  -5  10  -1   20.47    4.57
   5 -10   1   17.56    3.63
   5 -10   1   25.42    3.83
  -6  10  -1   11.74    4.79
   6 -10   1   17.39    3.19
   6 -10   1   18.67    3.63
   6   9  -1    5.07    1.75
   6   9  -1    6.50    2.21
  -6  -9   1    6.38    3.12
   5   9  -1   28.98    4.01
   5   9  -1   26.95    3.80
  -5  -9   1   34.24    4.82
   4   9  -1    3.86    1.90
   4   9  -1    4.70    1.79
   3   9  -1   27.13    3.74
   3   9  -1   21.55    3.32
   2   9  -1  178.95   13.51
   2   9  -1  153.13   13.70
  -2  -9   1  156.95   13.66
   1   9  -1   72.06    6.13
   1   9  -1   53.28    6.10
  -1  -9   1   66.04    6.19
   0   9  -1   53.90    5.65
   0  -9   1   42.61    4.99
  -1   9  -1   23.87    3.58
   1  -9   1   14.86    2.64
  -2   9  -1   29.23    3.71
   2  -9   1   31.66    3.84
   2  -9   1   20.68    3.57
  -3   9  -1    6.55    2.35
  -3   9  -1    2.28    1.56
   3  -9   1    1.49    1.75
   3  -9   1    0.99    1.56
  -4   9  -1    0.91    2.40
  -4   9  -1    2.49    1.78
   4  -9   1    5.75    2.10
   4  -9   1    2.89    1.90
  -5   9  -1   -4.12    2.58
   5  -9   1   -1.00    2.07
   5  -9   1    2.28    2.16
  -6   9  -1    0.97    3.28
   6  -9   1    0.79    2.15
   6  -9   1    1.01    2.31
  -7   9  -1    1.90    3.93
   7  -9   1   -1.64    2.28
   7  -9   1   -1.37    2.23
   7   8  -1    0.82    1.67
   7   8  -1    2.35    2.06
  -7  -8   1    2.00    3.05
   6   8  -1   11.72    2.31
   6   8  -1   12.95    2.54
  -6  -8   1   13.21    3.25
   5   8  -1    4.64    1.74
  -5  -8   1    3.18    2.46
   4   8  -1   40.74    4.14
   4   8  -1   42.39    4.51
  -4  -8   1   36.69    4.96
   3   8  -1   62.56    6.82
   3   8  -1   57.28    5.40
  -3  -8   1   52.23    4.96
   2   8  -1   22.52    2.80
   2   8  -1   18.65    2.87
  -2  -8   1   21.78    2.50
   1   8  -1  116.54   10.41
   1   8  -1  112.92   10.03
   1   8  -1  108.20   10.06
   1   8  -1  131.94    9.90
  -1  -8   1  118.65   10.05
   0   8  -1  106.90    8.89
   0   8  -1  100.99    9.00
   0   8  -1   95.23    9.20
   0  -8   1  121.27   10.08
   0  -8   1   96.24    8.88
  -1   8  -1    3.08    1.90
  -1   8  -1    0.95    1.35
  -1   8  -1    0.06    1.50
   1  -8   1    4.47    1.36
  -2   8  -1  170.78   13.21
  -2   8  -1  156.30   13.31
  -2   8  -1  160.89   13.27
   2  -8   1  151.91   13.16
  -3   8  -1    1.37    1.55
  -3   8  -1    1.05    1.93
  -3   8  -1    1.22    1.48
   3  -8   1    0.69    1.40
   3  -8   1   -0.08    1.29
  -4   8  -1  206.31   18.82
  -4   8  -1  269.54   18.48
   4  -8   1  241.50   18.77
   4  -8   1  204.28   18.77
  -5   8  -1  142.13   11.30
   5  -8   1  123.04   11.63
   5  -8   1  143.79   11.67
  -6   8  -1    2.41    2.85
   6  -8   1    6.86    2.21
   6  -8   1    3.84    2.26
  -7   8  -1   23.15    4.75
   7  -8   1   28.35    4.90
   7  -8   1   36.59    4.75
  -8   8  -1   85.73   10.78
   8  -8   1   98.58    8.98
   8  -8   1   94.44    8.80
   8   7  -1   21.89    3.15
   8   7  -1   13.69    2.99
  -8  -7   1   13.89    3.92
   7   7  -1   26.75    3.85
   7   7  -1   32.67    4.36
  -7  -7   1   29.53    4.55
   6   7  -1  116.16   10.04
   6   7  -1  124.46   10.39
  -6  -7   1  115.06   10.80
   5   7  -1   43.42    4.29
   5   7  -1   44.64    4.65
  -5  -7   1   44.86    5.23
   4   7  -1   26.37    2.98
   4   7  -1   29.49    3.35
  -4  -7   1   25.48    2.93
  -4  -7   1   29.11    3.70
   3   7  -1   -0.86    1.48
   3   7  -1    0.82    1.06
   3   7  -1   -0.47    1.94
   3   7  -1    0.37    0.82
  -3  -7   1    0.42    1.18
  -3  -7   1   -0.21    1.27
  -3  -7   1   -0.17    0.95
  -3  -7   1   -0.63    1.34
   2   7  -1  250.23   19.64
   2   7  -1  239.66   19.85
   2   7  -1  226.93   20.10
   2   7  -1  239.10   20.01
  -2  -7   1  265.88   19.94
  -2  -7   1  256.08   19.63
  -2  -7   1  254.69   19.99
   1   7  -1  202.73   17.07
   1   7  -1  203.35   16.80
   1   7  -1  200.36   17.01
   1   7  -1  205.48   17.25
  -1  -7   1  214.59   16.73
  -1  -7   1  237.32   17.01
   0   7  -1   78.27    7.14
   0   7  -1   64.87    6.71
   0   7  -1   72.82    6.64
   0   7  -1   79.88    6.89
   0  -7   1   92.17    6.83
   0  -7   1   80.45    6.52
   0  -7   1   77.00    6.75
  -1   7  -1  108.86    9.46
  -1   7  -1  120.19    9.58
  -1   7  -1  108.17    9.77
   1  -7   1  112.56    9.53
   1  -7   1  118.43    9.32
   1  -7   1  115.19    9.53
  -2   7  -1   59.18    5.81
  -2   7  -1   60.88    6.11
  -2   7  -1   70.57    5.82
   2  -7   1   64.01    5.82
   2  -7   1   68.86    5.75
   2  -7   1   65.46    5.84
  -3   7  -1   94.63    7.05
  -3   7  -1   84.50    7.42
  -3   7  -1   79.27    7.25
   3  -7   1   77.04    7.02
   3  -7   1   78.53    7.19
   3  -7   1   78.24    7.07
  -4   7  -1    8.87    1.48
  -4   7  -1   10.41    2.16
  -4   7  -1    9.03    2.14
   4  -7   1    6.79    1.66
   4  -7   1    5.52    1.70
  -5   7  -1    1.09    0.92
  -5   7  -1    0.42    1.84
  -5   7  -1   -0.25    0.93
  -5   7  -1    2.15    1.94
   5  -7   1    2.42    1.53
  -6   7  -1   43.71    5.65
  -6   7  -1   48.53    3.86
   6  -7   1   43.59    5.31
   6  -7   1   46.88    5.12
  -7   7  -1   46.77    6.36
   7  -7   1   46.54    5.47
   7  -7   1   42.37    5.56
  -8   7  -1   62.59    8.72
   8  -7   1   67.24    6.96
   8  -7   1   71.44    7.30
   9   6  -1   74.74    7.18
   9   6  -1   65.19    6.67
  -9  -6   1   68.35    8.29
   8   6  -1    6.83    2.10
   8   6  -1    8.79    2.36
  -8  -6   1    7.48    3.34
   7   6  -1  141.53   11.77
   7   6  -1  151.00   12.10
  -7  -6   1  124.98   12.36
   6   6  -1   57.64    5.11
   6   6  -1   52.94    5.65
  -6  -6   1   50.81    5.81
   5   6  -1    0.36    1.00
   5   6  -1    1.45    1.15
  -5  -6   1    0.82    1.73
  -5  -6   1   -0.08    1.12
   4   6  -1   78.21    7.64
   4   6  -1   73.10    7.45
   4   6  -1   92.24    6.74
   4   6  -1   84.00    6.94
  -4  -6   1   78.00    7.14
  -4  -6   1   86.92    6.84
  -4  -6   1   72.08    6.79
  -4  -6   1   66.89    7.10
   3   6  -1   44.21    4.24
   3   6  -1   50.20    5.04
   3   6  -1   54.11    4.56
   3   6  -1   51.63    5.38
  -3  -6   1   50.64    4.40
  -3  -6   1   50.64    4.81
  -3  -6   1   45.70    4.53
  -3  -6   1   46.34    4.82
   2   6  -1   55.49    6.14
   2   6  -1   65.54    5.42
   2   6  -1   62.65    5.93
   2   6  -1   62.90    5.61
  -2  -6   1   72.69    5.81
  -2  -6   1   69.31    5.81
  -2  -6   1   57.67    5.45
   1   6  -1   15.14    2.00
   1   6  -1   18.23    2.67
   1   6  -1   15.14    2.42
   1   6  -1   15.74    1.84
  -1  -6   1   17.90    2.18
  -1  -6   1   16.16    2.23
  -1  -6   1   15.07    1.86
   0   6  -1   70.24    5.92
   0   6  -1   70.25    6.29
   0   6  -1   72.07    6.15
   0  -6   1   73.61    6.02
   0  -6   1   68.36    5.81
   0  -6   1   64.26    5.98
  -1   6  -1   99.00    8.62
  -1   6  -1  108.82    8.44
  -1   6  -1  106.69    8.43
   1  -6   1   97.38    8.30
   1  -6   1  109.34    8.53
   1  -6   1   89.80    8.39
  -2   6  -1    0.39    1.10
  -2   6  -1    0.02    0.88
  -2   6  -1    0.19    0.78
   2  -6   1   -0.40    0.88
   2  -6   1    0.11    0.85
   2  -6   1    0.43    0.70
   2  -6   1   -0.04    0.65
  -3   6  -1  288.66   22.88
  -3   6  -1  328.29   22.97
   3  -6   1  296.71   22.82
   3  -6   1  254.15   22.87
   3  -6   1  277.34   22.77
  -4   6  -1   13.58    2.23
  -4   6  -1   17.86    1.91
   4  -6   1   14.27    2.18
   4  -6   1   12.99    2.04
   4  -6   1   10.25    2.08
   4  -6   1   12.08    2.29
  -5   6  -1  110.34    9.68
  -5   6  -1  104.16    9.17
  -5   6  -1  121.99    9.93
   5  -6   1  114.82   10.90
   5  -6   1  115.17    9.81
   5  -6   1  122.99    9.66
  -6   6  -1  269.09   21.34
  -6   6  -1  264.89   21.66
  -7   6  -1   -3.18    2.36
   7  -6   1    0.31    1.62
   7  -6   1    2.06    1.95
  -8   6  -1   -3.39    3.04
   8  -6   1    0.28    2.14
   8  -6   1   -0.09    1.90
  -9   6  -1    9.41    4.11
   9  -6   1    8.08    2.67
   9   5  -1    1.54    1.74
   9   5  -1    0.52    2.20
  -9  -5   1   -1.62    3.56
   8   5  -1    1.16    1.70
   8   5  -1    2.55    1.93
  -8  -5   1   -5.19    2.64
   7   5  -1   18.29    2.94
   7   5  -1   20.29    3.21
  -7  -5   1   14.03    3.31
  -7  -5   1   17.19    2.89
   6   5  -1   61.59    6.01
   6   5  -1   71.30    6.05
  -6  -5   1   60.09    6.52
  -6  -5   1   63.25    6.18
   5   5  -1  147.03   14.52
   5   5  -1  167.64   14.55
   5   5  -1  186.00   14.03
  -5  -5   1  185.55   14.51
  -5  -5   1  202.53   14.43
  -5  -5   1  176.55   14.11
  -5  -5   1  156.88   14.10
   4   5  -1   53.22    5.70
   4   5  -1   61.17    4.88
   4   5  -1   58.95    5.79
  -4  -5   1   56.09    5.02
  -4  -5   1   60.10    5.37
  -4  -5   1   47.52    5.00
  -4  -5   1   50.79    5.32
  -4  -5   1   65.17    5.27
   3   5  -1    8.17    1.90
   3   5  -1   11.53    2.19
   3   5  -1    9.09    1.31
   3   5  -1   10.12    1.46
  -3  -5   1    9.28    1.89
  -3  -5   1   11.32    1.61
  -3  -5   1   11.00    1.81
  -3  -5   1    9.80    1.44
  -3  -5   1    8.35    1.59
   2   5  -1  254.44   18.43
   2   5  -1  228.14   18.54
   2   5  -1  217.83   18.61
   2   5  -1  226.20   18.20
  -2  -5   1  261.24   18.50
  -2  -5   1  212.24   18.41
  -2  -5   1  248.80   18.45
  -2  -5   1  205.17   18.20
   1   5  -1   21.18    2.68
   1   5  -1   22.80    2.31
   1   5  -1   21.80    2.15
   1   5  -1   20.34    2.87
  -1  -5   1   27.00    2.41
  -1  -5   1   21.98    2.44
  -1  -5   1   19.51    2.18
   0   5  -1  728.52   56.93
   0   5  -1  734.83   56.75
   0   5  -1  706.57   56.98
   0  -5   1  692.99   56.65
   0  -5   1  798.36   56.84
  -1   5  -1  132.81    9.22
  -1   5  -1  116.43    9.34
  -1   5  -1   96.95    9.12
   1  -5   1  112.01    9.21
   1  -5   1  113.54    9.11
   1  -5   1  110.21    9.23
  -2   5  -1    1.00    0.98
  -2   5  -1    1.26    0.66
  -2   5  -1    1.76    0.80
   2  -5   1   -0.27    0.54
   2  -5   1   -0.28    0.81
   2  -5   1    0.08    0.58
   2  -5   1    0.02    0.75
  -3   5  -1  198.55   15.40
   3  -5   1  198.69   15.31
   3  -5   1  205.27   15.38
   3  -5   1  167.21   15.36
  -4   5  -1 1096.42   81.87
  -4   5  -1 1070.92   81.68
   4  -5   1  965.13   81.81
   4  -5   1 1074.31   81.78
   4  -5   1 1066.68   81.72
  -5   5  -1    8.76    1.52
  -5   5  -1    7.27    1.83
  -5   5  -1   10.20    1.96
  -5   5  -1   13.37    1.29
   5  -5   1   10.43    1.87
   5  -5   1    8.00    1.94
   5  -5   1   12.42    1.96
  -6   5  -1  854.22   68.09
  -6   5  -1  845.85   67.82
   6  -5   1  885.65   68.09
   6  -5   1  906.06   67.98
  -7   5  -1   81.08    7.89
  -7   5  -1   67.70    7.09
   7  -5   1   86.83    7.53
   7  -5   1   86.81    7.39
  -8   5  -1   45.07    6.76
   8  -5   1   42.45    5.10
   8  -5   1   37.27    4.84
  -9   5  -1   19.91    4.60
   9  -5   1   25.41    3.87
   9  -5   1   22.96    3.92
  10   4  -1   -0.47    2.27
   9   4  -1   17.29    3.00
   9   4  -1   11.17    2.64
   9   4  -1   10.96    2.92
  -9  -4   1   13.28    4.18
   8   4  -1   22.77    3.17
   8   4  -1   19.19    3.19
   8   4  -1   24.98    3.85
  -8  -4   1   17.28    3.82
  -8  -4   1   18.29    3.06
   7   4  -1    8.99    2.05
   7   4  -1    6.87    1.71
  -7  -4   1    5.72    1.92
  -7  -4   1    8.28    2.39
   6   4  -1   30.67    4.37
   6   4  -1   37.39    3.73
   6   4  -1   33.37    3.46
  -6  -4   1   27.01    3.57
  -6  -4   1   32.73    4.22
  -6  -4   1   33.06    3.57
  -6  -4   1   36.69    3.79
   5   4  -1   61.25    5.16
   5   4  -1   50.06    5.84
   5   4  -1   61.69    5.03
   5   4  -1   47.05    5.66
  -5  -4   1   68.05    5.41
  -5  -4   1   52.02    5.36
  -5  -4   1   54.11    5.10
  -5  -4   1   57.37    5.21
   4   4  -1   80.11    7.49
   4   4  -1   72.03    7.42
   4   4  -1   94.19    7.08
   4   4  -1   79.86    6.87
  -4  -4   1   76.99    7.02
  -4  -4   1   93.46    7.06
  -4  -4   1   76.37    7.22
  -4  -4   1   93.63    7.20
   3   4  -1  497.14   39.10
   3   4  -1  493.50   39.14
   3   4  -1  544.59   38.92
   3   4  -1  463.58   38.72
  -3  -4   1  470.43   39.01
  -3  -4   1  512.77   38.80
  -3  -4   1  468.61   38.99
  -3  -4   1  540.12   39.00
  -3  -4   1  501.67   38.83
   2   4  -1   91.30    7.74
   2   4  -1   92.26    7.84
   2   4  -1  101.28    7.56
   2   4  -1   85.12    7.36
  -2  -4   1   90.99    7.65
  -2  -4   1   88.28    7.41
  -2  -4   1   94.89    7.59
  -2  -4   1   93.35    7.45
   1   4  -1  721.85   65.47
   1   4  -1  830.00   65.74
   1   4  -1  832.48   65.63
   1   4  -1  853.59   65.69
  -1  -4   1  812.93   65.67
  -1  -4   1  903.86   65.63
  -1  -4   1  889.42   65.50
  -1  -4   1  938.16   65.67
   0   4  -1  532.47   41.41
   0   4  -1  550.36   41.34
   0   4  -1  477.83   41.23
   0  -4   1  568.57   41.41
   0  -4   1  538.60   41.21
   0  -4   1  527.34   41.31
  -1   4  -1  175.15   13.86
  -1   4  -1  191.51   13.77
  -1   4  -1  162.76   13.76
   1  -4   1  165.40   13.79
   1  -4   1  177.90   13.75
  -2   4  -1   15.51    1.52
  -2   4  -1   12.68    1.65
   2  -4   1   13.91    1.57
  -3   4  -1  233.75   18.47
   3  -4   1  204.35   18.44
   3  -4   1  239.88   18.46
   3  -4   1  255.60   18.40
  -4   4  -1    2.36    0.68
  -4   4  -1    2.44    1.25
  -4   4  -1    4.15    1.16
  -4   4  -1    3.66    1.12
   4  -4   1    3.35    0.91
   4  -4   1    1.75    0.80
   4  -4   1    3.33    1.34
  -5   4  -1  611.11   49.13
  -5   4  -1  650.32   49.76
  -5   4  -1  641.94   49.52
   5  -4   1  629.66   49.71
   5  -4   1  645.19   49.59
   5  -4   1  643.91   49.73
  -6   4  -1    4.43    1.55
  -6   4  -1    4.83    1.61
  -6   4  -1    4.74    1.68
   6  -4   1    4.58    1.41
   6  -4   1    8.08    1.92
   6  -4   1    4.32    1.33
  -7   4  -1   15.76    2.50
  -7   4  -1   20.16    3.11
   7  -4   1   15.41    2.63
   7  -4   1   18.18    2.68
  -8   4  -1   28.34    4.00
  -8   4  -1   17.73    2.90
   8  -4   1   31.81    3.91
   8  -4   1   26.30    3.67
  -9   4  -1   16.99    4.10
   9  -4   1   15.21    2.77
   9  -4   1    9.83    2.99
 -10   4  -1   11.95    3.90
  10  -4   1   11.85    3.00
  10  -4   1   12.60    3.21
  10  -4   1   12.66    2.56
  10   3  -1    1.71    1.85
  10   3  -1   -1.74    1.51
  10   3  -1    2.18    2.72
 -10  -3   1    9.57    4.25
   9   3  -1    9.26    2.88
   9   3  -1   11.71    2.42
   9   3  -1    9.30    2.24
  -9  -3   1   10.46    2.72
  -9  -3   1   12.48    3.89
   8   3  -1   61.71    6.45
   8   3  -1   66.95    6.05
   8   3  -1   62.89    6.07
  -8  -3   1   62.45    7.02
  -8  -3   1   64.82    6.34
   7   3  -1  344.43   31.26
   7   3  -1  413.27   31.28
   7   3  -1  389.89   30.98
   7   3  -1  431.72   30.98
  -7  -3   1  335.26   30.85
  -7  -3   1  398.02   31.38
  -7  -3   1  434.49   31.13
   6   3  -1    6.06    1.89
   6   3  -1    5.08    1.07
   6   3  -1    3.28    1.96
   6   3  -1    2.84    1.14
   6   3  -1    5.25    1.40
  -6  -3   1    2.08    1.23
  -6  -3   1    3.98    1.73
  -6  -3   1    3.07    1.44
  -6  -3   1    5.09    1.46
   5   3  -1    8.09    2.13
   5   3  -1    7.71    1.34
   5   3  -1    8.96    1.92
   5   3  -1    8.57    1.28
   5   3  -1    7.98    1.42
  -5  -3   1    4.79    1.50
  -5  -3   1    6.82    1.76
  -5  -3   1   11.55    1.81
  -5  -3   1    8.20    1.49
  -5  -3   1    6.82    1.53
   4   3  -1  307.08   22.85
   4   3  -1  273.73   22.67
   4   3  -1  286.53   23.02
   4   3  -1  295.47   22.68
   4   3  -1  275.85   23.06
  -4  -3   1  306.55   22.89
  -4  -3   1  273.89   22.95
  -4  -3   1  293.65   22.76
  -4  -3   1  294.32   22.76
   3   3  -1   66.21    5.74
   3   3  -1   74.97    6.18
   3   3  -1   79.71    6.31
  -3  -3   1   66.06    5.99
  -3  -3   1   62.49    5.82
  -3  -3   1   80.33    6.02
  -3  -3   1   70.84    6.04
   2   3  -1  286.73   23.08
   2   3  -1  278.08   23.10
   2   3  -1  297.17   22.85
   2   3  -1  322.20   22.97
  -2  -3   1  284.85   22.89
  -2  -3   1  267.73   23.02
  -2  -3   1  306.19   23.04
  -2  -3   1  289.77   23.01
  -2  -3   1  310.61   22.90
   1   3  -1  243.48   19.99
   1   3  -1  257.00   19.97
   1   3  -1  265.33   19.91
   1   3  -1  251.50   19.80
  -1  -3   1  272.43   19.91
  -1  -3   1  244.87   19.96
  -1  -3   1  261.56   19.93
  -1  -3   1  241.02   19.80
   0   3  -1   28.32    2.51
   0   3  -1   27.83    2.36
   0   3  -1   22.73    2.22
   0  -3   1   22.96    2.19
   0  -3   1   27.20    2.40
   0  -3   1   29.31    2.31
   0  -3   1   24.25    2.27
  -1   3  -1 2413.36  199.24
   1  -3   1 2652.79  199.85
  -2   3  -1  748.00   58.91
  -2   3  -1  761.46   58.99
   2  -3   1  776.42   58.97
   2  -3   1  762.25   58.92
  -3   3  -1    3.06    0.91
  -3   3  -1    2.57    0.97
  -3   3  -1    3.57    0.87
  -3   3  -1    3.30    0.56
   3  -3   1    3.27    0.81
   3  -3   1    3.51    0.74
   3  -3   1    3.79    1.04
  -4   3  -1  131.71   10.37
  -4   3  -1  137.77   10.85
  -4   3  -1  126.71   10.79
   4  -3   1  140.22   10.90
   4  -3   1  125.86   10.76
   4  -3   1  136.40   10.68
  -5   3  -1   27.97    2.30
  -5   3  -1   27.80    2.81
  -5   3  -1   28.86    3.09
  -5   3  -1   22.44    3.12
   5  -3   1   29.62    3.42
   5  -3   1   27.74    2.76
   5  -3   1   25.21    2.87
  -6   3  -1    9.83    1.72
  -6   3  -1   10.87    2.07
  -6   3  -1   11.84    1.32
  -6   3  -1    8.40    1.95
   6  -3   1   12.32    2.30
   6  -3   1   13.96    2.03
   6  -3   1   12.95    2.02
  -7   3  -1   38.14    4.40
  -7   3  -1   30.68    3.82
   7  -3   1   34.50    3.78
   7  -3   1   34.05    3.80
  -8   3  -1    6.64    2.61
   8  -3   1    7.65    1.89
   8  -3   1    5.33    2.15
   9  -3   1    6.46    2.50
   9  -3   1    4.94    1.99
   9  -3   1    3.56    2.81
 -10   3  -1   -4.41    3.36
  10  -3   1   -1.13    2.58
  10  -3   1    0.14    1.54
  10  -3   1   -2.55    2.21
  10   2  -1    1.20    1.94
  10   2  -1   -0.32    2.64
  10   2  -1   -0.01    1.57
 -10  -2   1    3.44    4.62
   9   2  -1   15.86    2.62
   9   2  -1   17.78    3.04
   9   2  -1   14.33    3.07
  -9  -2   1   14.31    4.07
   8   2  -1  214.49   16.26
   8   2  -1  178.35   16.17
  -8  -2   1  203.50   16.24
   7   2  -1   14.29    2.14
   7   2  -1    8.71    1.99
   7   2  -1   13.76    2.17
   7   2  -1   10.53    2.61
  -7  -2   1    9.26    2.42
  -7  -2   1   12.67    1.99
  -7  -2   1   11.95    1.96
   6   2  -1   19.91    2.72
   6   2  -1   25.33    3.72
   6   2  -1   23.25    2.55
   6   2  -1   25.01    2.47
   6   2  -1   17.86    2.90
  -6  -2   1   21.07    2.87
  -6  -2   1   21.14    2.81
  -6  -2   1   25.23    2.78
  -6  -2   1   22.24    3.04
   5   2  -1  455.61   40.59
   5   2  -1  555.88   40.52
   5   2  -1  545.59   40.48
   5   2  -1  500.57   40.70
   5   2  -1  491.10   40.78
  -5  -2   1  570.91   40.62
  -5  -2   1  521.32   40.53
  -5  -2   1  520.09   40.48
  -5  -2   1  516.89   40.75
   4   2  -1  197.79   15.88
   4   2  -1  193.63   15.94
   4   2  -1  214.10   15.64
   4   2  -1  173.22   15.68
   4   2  -1  197.45   15.59
  -4  -2   1  205.61   15.74
  -4  -2   1  201.91   15.66
  -4  -2   1  196.79   15.63
  -4  -2   1  202.20   15.87
   3   2  -1  171.12   12.95
   3   2  -1  140.99   12.68
   3   2  -1  168.81   12.88
   3   2  -1  161.15   12.63
   3   2  -1  166.24   12.65
  -3  -2   1  166.02   12.88
  -3  -2   1  147.87   12.64
  -3  -2   1  165.36   12.67
   2   2  -1   20.28    2.30
   2   2  -1   23.78    2.29
   2   2  -1   24.53    2.06
   2   2  -1   20.83    1.97
  -2  -2   1   23.03    2.25
  -2  -2   1   20.57    2.11
  -2  -2   1   25.19    2.06
  -2  -2   1   22.66    2.06
  -2  -2   1   22.85    2.16
  -1  -2   1 2384.57  186.87
   0   2  -1 1150.18   87.87
   0  -2   1 1117.05   87.86
   0  -2   1 1149.83   87.82
  -1   2  -1   11.55    1.30
  -1   2  -1   12.35    1.27
  -1   2  -1   13.10    1.11
   1  -2   1   10.89    1.24
   1  -2   1   10.06    1.23
   2  -2   1 6382.61  498.02
  -3   2  -1  226.58   17.48
  -3   2  -1  223.52   17.31
  -3   2  -1  224.47   17.63
   3  -2   1  223.37   17.51
   3  -2   1  218.13   17.62
   3  -2   1  226.35   17.65
  -4   2  -1 1814.53  144.91
  -4   2  -1 1965.13  145.14
   4  -2   1 1785.58  145.07
   4  -2   1 1825.53  145.12
   4  -2   1 2004.28  145.01
  -5   2  -1  187.88   13.72
  -5   2  -1  182.26   13.96
  -5   2  -1  149.95   14.18
  -5   2  -1  176.70   14.19
   5  -2   1  173.19   14.29
   5  -2   1  176.06   14.00
   5  -2   1  180.32   14.11
  -6   2  -1   12.30    2.28
  -6   2  -1   21.15    2.69
  -6   2  -1   13.23    2.02
  -6   2  -1   16.78    1.67
   6  -2   1   15.69    2.14
   6  -2   1   19.55    2.85
   6  -2   1   15.87    2.15
  -7   2  -1    4.85    1.84
  -7   2  -1    1.46    1.48
  -7   2  -1    2.49    0.73
   7  -2   1    2.86    2.42
   7  -2   1    1.48    1.21
   7  -2   1    2.44    1.27
  -8   2  -1    2.71    1.39
  -8   2  -1   -1.72    2.09
   8  -2   1    1.75    1.58
   8  -2   1    0.28    1.25
   8  -2   1   -1.69    1.79
  -9   2  -1   31.39    4.61
   9  -2   1   22.58    3.79
   9  -2   1   27.79    4.35
 -10   2  -1   10.34    3.85
  10  -2   1    4.75    2.65
  10  -2   1    7.61    3.09
  10  -2   1   12.33    2.27
  10   1  -1   12.95    2.68
  10   1  -1   13.73    2.50
  10   1  -1   11.46    3.43
 -10  -1   1   15.41    2.74
 -10  -1   1   19.26    4.84
   9   1  -1   61.38    6.60
   9   1  -1   58.51    7.03
   9   1  -1   77.17    6.43
   9   1  -1   51.28    7.32
  -9  -1   1   76.43    6.41
  -9  -1   1   67.53    7.81
   8   1  -1    0.65    2.13
   8   1  -1   -0.71    1.14
   8   1  -1   -3.26    1.36
   8   1  -1    0.41    1.62
  -8  -1   1    0.65    2.26
  -8  -1   1   -0.23    1.24
   7   1  -1   24.04    3.09
   7   1  -1   21.88    3.25
   7   1  -1   25.76    3.79
   7   1  -1   26.09    2.87
  -7  -1   1   25.20    3.11
  -7  -1   1   29.04    3.94
  -7  -1   1   27.66    3.00
   6   1  -1   25.48    3.16
   6   1  -1   28.95    4.03
   6   1  -1   30.48    3.08
   6   1  -1   32.35    2.98
   6   1  -1   31.74    3.71
  -6  -1   1   26.53    3.15
  -6  -1   1   25.82    3.58
  -6  -1   1   25.15    3.14
  -6  -1   1   35.09    3.08
   5   1  -1  351.03   29.76
   5   1  -1  376.26   29.95
   5   1  -1  405.20   29.64
   5   1  -1  404.35   29.67
  -5  -1   1  355.69   29.58
  -5  -1   1  377.86   29.89
  -5  -1   1  399.40   29.69
  -5  -1   1  360.14   29.65
   4   1  -1  168.02   12.27
   4   1  -1  144.31   12.41
   4   1  -1  153.56   12.58
   4   1  -1  166.52   12.30
  -4  -1   1  159.06   12.35
  -4  -1   1  146.46   12.29
  -4  -1   1  160.09   12.52
  -4  -1   1  136.89   12.36
   3   1  -1  263.40   20.92
   3   1  -1  266.03   21.07
   3   1  -1  257.40   21.12
   3   1  -1  268.95   20.94
  -3  -1   1  272.54   20.95
  -3  -1   1  265.26   21.12
  -3  -1   1  286.70   21.06
  -3  -1   1  268.09   20.95
   2   1  -1  612.86   47.28
   2   1  -1  577.60   47.14
   2   1  -1  620.51   47.30
   2   1  -1  613.18   47.16
  -2  -1   1  580.81   47.26
  -2  -1   1  609.73   47.30
  -2  -1   1  626.29   47.17
  -2  -1   1  642.85   47.17
   1   1  -1 2452.71  207.57
  -1  -1   1 2880.58  207.89
   0  -1   1 1537.36  119.55
  -1   1  -1 6500.49  497.32
   1  -1   1 6374.17  497.48
  -3   1  -1   -0.09    0.59
  -3   1  -1    0.13    0.48
  -3   1  -1    0.52    0.30
  -3   1  -1    0.03    0.57
   3  -1   1   -0.17    0.42
   3  -1   1    0.04    0.76
   3  -1   1    0.06    0.39
   3  -1   1    0.07    0.40
  -4   1  -1   27.56    3.13
  -4   1  -1   34.64    2.83
  -4   1  -1   31.38    2.94
  -4   1  -1   31.89    3.14
   4  -1   1   32.33    3.00
   4  -1   1   37.34    2.94
   4  -1   1   31.85    2.94
  -5   1  -1    7.24    1.44
  -5   1  -1    5.13    1.41
  -5   1  -1    9.04    1.12
  -5   1  -1    5.43    1.35
   5  -1   1    7.99    1.30
   5  -1   1    7.70    1.24
   5  -1   1    6.31    1.77
   5  -1   1    7.21    1.22
  -6   1  -1  852.54   58.46
  -6   1  -1  748.22   58.07
  -6   1  -1  659.71   58.31
   6  -1   1  757.60   58.22
   6  -1   1  712.84   58.08
   6  -1   1  735.25   58.48
   6  -1   1  777.31   58.29
  -7   1  -1    5.63    1.86
  -7   1  -1    5.60    1.01
  -7   1  -1    5.09    1.51
   7  -1   1    6.28    1.55
   7  -1   1    4.48    1.40
   7  -1   1    5.63    1.59
   7  -1   1    4.04    1.75
   7  -1   1    7.33    2.15
  -8   1  -1  311.14   27.86
  -8   1  -1  377.12   28.46
   8  -1   1  338.95   28.00
   8  -1   1  376.50   28.24
   8  -1   1  374.21   28.40
  -9   1  -1    9.88    3.34
   9  -1   1    9.27    2.53
   9  -1   1    3.54    2.61
   9  -1   1    6.03    1.97
 -10   1  -1  248.70   21.79
  10  -1   1  263.19   21.37
  10  -1   1  266.10   21.18
  10   0  -1    2.61    2.25
  10   0  -1    0.84    2.79
  10   0  -1   -0.26    1.65
 -10   0   1    1.00    1.54
 -10   0   1    7.14    4.52
   9   0  -1    1.62    1.65
   9   0  -1    5.30    2.48
   9   0  -1   -0.07    2.03
   9   0  -1    3.52    1.98
  -9   0   1    5.27    2.12
  -9   0   1    3.90    3.30
   8   0  -1  523.23   38.74
   8   0  -1  492.71   38.76
   8   0  -1  438.08   38.82
  -8   0   1  513.98   38.55
  -8   0   1  491.53   39.16
   7   0  -1    6.43    1.63
   7   0  -1    4.45    1.98
   7   0  -1    8.04    2.09
   7   0  -1    6.79    1.40
   7   0  -1    5.44    1.56
  -7   0   1    6.97    1.38
  -7   0   1    7.20    1.67
  -7   0   1    4.34    1.91
  -7   0   1    5.90    1.74
   6   0  -1  864.81   73.67
   6   0  -1  995.77   73.66
   6   0  -1  996.38   73.64
   6   0  -1  957.46   73.94
  -6   0   1  954.99   73.56
  -6   0   1  962.82   73.92
  -6   0   1  972.96   73.58
  -6   0   1  887.61   73.67
   5   0  -1  125.87    9.32
   5   0  -1  106.26    9.43
   5   0  -1  113.11    9.69
   5   0  -1  113.60    9.31
  -5   0   1  125.72    9.34
  -5   0   1  104.52    9.26
  -5   0   1  119.36    9.60
  -5   0   1  106.01    9.37
   4   0  -1  302.79   23.89
   4   0  -1  314.52   23.65
   4   0  -1  289.99   23.72
   4   0  -1  322.26   23.67
  -4   0   1  310.48   23.86
  -4   0   1  310.34   23.69
  -4   0   1  265.46   23.72
  -4   0   1  301.72   23.67
   3   0  -1  296.74   22.04
   3   0  -1  285.34   22.19
   3   0  -1  298.11   22.05
   3   0  -1  263.24   22.09
  -3   0   1  270.17   22.07
  -3   0   1  287.53   22.05
  -3   0   1  293.77   22.04
  -3   0   1  265.13   22.16
  -2   0   1 2569.59  192.85
  -2   0   1 2315.27  192.37
   1   0  -1    0.75    0.36
   1   0  -1    0.68    0.24
   1   0  -1    0.47    0.17
  -1   0   1    0.58    0.36
  -1   0   1    0.31    0.24
  -1   0   1    0.41    0.36
  -1   0   1    0.51    0.19
  -1   0  -1  166.07   12.01
  -1   0  -1  155.73   11.98
  -1   0  -1  135.44   12.03
   1   0   1  165.57   12.00
   1   0   1  163.60   12.03
   1   0   1  142.86   12.04
   2   0   1 1297.35  100.21
  -3   0  -1  731.41   62.28
  -3   0  -1  808.19   62.37
  -3   0  -1  810.64   62.42
  -3   0  -1  746.26   62.40
   3   0   1  798.97   62.46
   3   0   1  861.80   62.36
   3   0   1  822.24   62.33
   3   0   1  873.84   62.42
  -4   0  -1 1211.70   84.12
  -4   0  -1 1041.34   84.27
  -4   0  -1 1075.27   84.12
  -4   0  -1 1063.63   84.28
   4   0   1 1022.46   84.15
   4   0   1 1105.67   84.24
   4   0   1 1103.90   84.20
  -5   0  -1  567.63   49.36
  -5   0  -1  630.53   49.41
  -5   0  -1  608.19   49.21
   5   0   1  706.43   49.35
   5   0   1  614.84   49.27
   5   0   1  667.72   49.36
   5   0   1  646.46   49.55
  -6   0  -1  836.52   71.50
  -6   0  -1 1002.32   71.61
   6   0   1  841.76   71.38
   6   0   1  953.33   71.74
   6   0   1  925.66   71.42
   6   0   1  964.80   71.47
  -7   0  -1   15.03    1.90
  -7   0  -1   14.23    2.09
  -7   0  -1   10.03    2.24
   7   0   1   12.81    2.19
   7   0   1   10.65    2.21
   7   0   1   13.87    2.67
   7   0   1   16.03    2.37
   7   0   1    8.62    2.23
  -8   0  -1   92.32    8.49
  -8   0  -1  119.04    9.33
   8   0   1   87.02    8.85
   8   0   1  113.38    8.86
   8   0   1   84.00    9.28
   8   0   1  111.73    8.77
  -9   0  -1    0.80    3.05
   9   0   1    0.87    2.40
   9   0   1    1.42    1.59
   9   0   1   -1.77    2.05
 -10   0  -1  427.94   34.26
  10   0   1  426.17   33.99
  10   0   1  423.41   33.86
  10  -1  -1   29.48    4.04
  10  -1  -1   32.63    5.84
  10  -1  -1   36.31    4.84
 -10   1   1   32.42    5.73
   9  -1  -1   41.47    4.18
   9  -1  -1   34.08    4.53
   9  -1  -1   27.45    4.98
  -9   1   1   36.47    3.68
  -9   1   1   34.57    5.07
   8  -1  -1   99.55    8.19
   8  -1  -1   82.60    8.53
   8  -1  -1   96.15    8.25
  -8   1   1   95.61    9.04
  -8   1   1   93.31    7.87
   7  -1  -1    0.47    1.20
   7  -1  -1    2.67    1.83
   7  -1  -1    1.31    1.11
   7  -1  -1   -0.23    1.60
   7  -1  -1    0.25    0.93
  -7   1   1   -1.41    1.73
  -7   1   1    0.64    0.89
  -7   1   1    2.33    1.48
  -7   1   1    0.04    1.47
   6  -1  -1    5.93    1.30
   6  -1  -1    7.40    1.29
   6  -1  -1   12.93    2.13
   6  -1  -1    8.17    2.10
  -6   1   1    4.65    1.59
  -6   1   1    7.18    1.53
  -6   1   1    5.87    1.54
  -6   1   1    6.27    1.17
   5  -1  -1   39.86    3.46
   5  -1  -1   36.85    3.45
   5  -1  -1   35.80    3.68
   5  -1  -1   40.41    4.06
  -5   1   1   36.87    3.77
  -5   1   1   38.64    3.48
  -5   1   1   36.61    3.51
  -5   1   1   37.19    3.72
   4  -1  -1 1287.94   97.97
   4  -1  -1 1163.43   97.80
   4  -1  -1 1272.78   97.81
   4  -1  -1 1345.86   97.84
  -4   1   1 1249.64   97.80
  -4   1   1 1337.85   98.03
  -4   1   1 1204.18   97.84
   3  -1  -1    3.17    0.67
   3  -1  -1    3.50    0.66
   3  -1  -1    2.66    0.77
   3  -1  -1    2.69    0.95
  -3   1   1    3.52    0.78
  -3   1   1    3.32    0.90
  -3   1   1    2.03    0.75
  -3   1   1    2.35    0.69
  -2   1   1 1954.89  150.75
   1  -1  -1 1835.14  153.49
  -1   1   1 2084.94  153.78
   0  -1  -1 4724.26  349.66
   0   1   1 4311.67  349.52
  -1  -1  -1  682.30   57.62
   1   1   1  850.34   57.73
   1   1   1  710.95   57.73
  -2  -1  -1  803.63   60.70
  -2  -1  -1  736.50   60.65
   2   1   1  746.38   60.70
   2   1   1  816.77   60.69
   2   1   1  827.47   60.80
  -3  -1  -1  535.37   44.87
  -3  -1  -1  566.88   45.00
  -3  -1  -1  587.87   44.97
   3   1   1  643.15   45.02
   3   1   1  574.01   45.08
   3   1   1  566.78   44.93
   3   1   1  587.93   44.93
  -4  -1  -1  784.81   61.99
  -4  -1  -1  825.16   62.05
  -4  -1  -1  713.69   61.83
   4   1   1  825.06   62.01
   4   1   1  836.94   61.95
   4   1   1  790.59   62.13
   4   1   1  823.72   61.95
  -5  -1  -1    0.18    0.56
  -5  -1  -1    0.13    0.93
  -5  -1  -1   -0.49    0.90
  -5  -1  -1   -0.34    0.86
   5   1   1    0.58    0.63
   5   1   1    0.19    1.46
   5   1   1    0.25    0.56
   5   1   1    0.45    0.75
  -6  -1  -1  166.46   14.74
  -6  -1  -1  177.55   14.51
  -6  -1  -1  192.68   14.80
   6   1   1  203.07   14.67
   6   1   1  169.18   15.01
   6   1   1  168.31   14.97
   6   1   1  175.49   14.76
   6   1   1  200.19   14.66
  -7  -1  -1    2.88    1.78
  -7  -1  -1    3.52    1.49
   7   1   1    3.75    1.16
   7   1   1    3.61    1.32
   7   1   1    1.39    1.81
   7   1   1    2.30    1.56
  -8  -1  -1   -0.11    1.53
  -8  -1  -1    4.12    2.40
   8   1   1    3.45    1.98
   8   1   1    4.65    2.10
   8   1   1    2.85    1.69
   8   1   1    4.72    1.52
   9   1   1   33.90    4.48
   9   1   1   30.66    3.96
   9   1   1   26.18    4.45
 -10  -1  -1   22.14    4.35
  10   1   1   21.98    3.30
  10   1   1   14.73    3.56
  10   1   1   17.26    3.00
  10  -2  -1   38.55    4.63
  10  -2  -1   54.64    5.53
 -10   2   1   40.81    6.32
   9  -2  -1    7.48    1.95
   9  -2  -1    8.41    2.52
   9  -2  -1    5.86    2.62
  -9   2   1    8.69    3.51
  -9   2   1    6.79    1.31
   8  -2  -1    1.18    1.83
   8  -2  -1    5.77    1.65
   8  -2  -1    3.54    1.76
  -8   2   1    4.85    1.12
  -8   2   1    8.98    2.88
   7  -2  -1   11.57    1.90
   7  -2  -1   11.03    2.02
  -7   2   1   11.45    2.03
  -7   2   1   12.48    2.71
  -7   2   1    8.75    1.45
   6  -2  -1    2.63    1.79
   6  -2  -1    1.76    1.02
   6  -2  -1    0.80    0.85
  -6   2   1    0.67    0.81
  -6   2   1    0.75    1.23
  -6   2   1    1.41    1.30
  -6   2   1    1.30    1.44
   5  -2  -1    3.54    0.86
   5  -2  -1    1.58    0.76
   5  -2  -1    1.57    1.39
  -5   2   1    2.67    1.14
  -5   2   1    1.90    1.05
  -5   2   1    0.70    0.75
  -5   2   1    1.16    1.09
   4  -2  -1   39.28    3.66
   4  -2  -1   35.11    3.28
   4  -2  -1   39.43    3.31
  -4   2   1   38.13    3.58
  -4   2   1   32.99    3.31
  -4   2   1   34.84    3.54
  -4   2   1   38.09    3.43
   3  -2  -1  357.30   28.01
   3  -2  -1  369.01   27.91
   3  -2  -1  364.99   27.92
  -3   2   1  371.10   27.91
  -3   2   1  325.33   27.94
  -3   2   1  376.05   28.08
  -3   2   1  345.69   27.92
  -2   2   1 2648.83  209.01
   1  -2  -1   87.26    7.89
   1  -2  -1  108.50    7.92
   1  -2  -1  101.17    7.91
  -1   2   1  103.04    7.92
  -1   2   1  101.29    7.94
   0  -2  -1  895.18   72.29
  -1  -2  -1 1745.93  131.63
   1   2   1 1668.14  131.64
  -2  -2  -1  462.16   37.52
  -2  -2  -1  524.09   37.66
  -2  -2  -1  490.07   37.52
   2   2   1  451.81   37.65
   2   2   1  478.97   37.49
   2   2   1  515.13   37.72
   2   2   1  473.64   37.51
  -3  -2  -1  337.38   26.94
  -3  -2  -1  350.01   27.09
  -3  -2  -1  359.45   26.99
   3   2   1  290.66   27.09
   3   2   1  329.56   27.17
   3   2   1  337.76   26.93
   3   2   1  383.28   27.16
   3   2   1  385.87   26.99
  -4  -2  -1  343.16   25.52
  -4  -2  -1  302.96   25.38
  -4  -2  -1  280.12   25.43
   4   2   1  311.97   25.62
   4   2   1  347.21   25.56
   4   2   1  337.65   25.38
   4   2   1  348.48   25.36
  -5  -2  -1  412.71   34.50
  -5  -2  -1  501.01   34.54
  -5  -2  -1  423.15   34.38
  -5  -2  -1  434.40   34.59
   5   2   1  413.61   34.76
   5   2   1  435.84   34.63
   5   2   1  376.32   34.68
   5   2   1  504.27   34.53
   5   2   1  471.14   34.47
  -6  -2  -1   55.95    5.31
  -6  -2  -1   49.14    5.24
  -6  -2  -1   52.77    5.03
   6   2   1   57.38    4.97
   6   2   1   66.75    5.13
   6   2   1   51.89    5.37
   6   2   1   59.28    5.76
   6   2   1   52.96    5.57
  -7  -2  -1    0.03    1.65
  -7  -2  -1    0.89    1.51
   7   2   1    0.14    0.95
   7   2   1    0.11    1.99
   7   2   1    0.81    1.53
   7   2   1    0.27    1.31
  -8  -2  -1  313.53   24.72
   8   2   1  340.81   24.52
   8   2   1  295.07   24.96
   8   2   1  323.60   24.54
   8   2   1  256.36   24.55
  -9  -2  -1   72.73    8.29
   9   2   1   81.38    7.29
   9   2   1   73.74    8.11
   9   2   1   78.54    7.53
 -10  -2  -1   28.92    4.67
  10   2   1   32.21    3.95
  10   2   1   24.99    4.62
  10   2   1   35.07    4.39
  10  -3  -1   88.98    7.85
  10  -3  -1   79.09    7.99
 -10   3   1   82.73   10.44
   9  -3  -1    1.39    2.42
   9  -3  -1    2.10    1.67
   9  -3  -1   -1.09    2.03
  -9   3   1   -1.66    3.19
  -9   3   1    0.00    0.89
   8  -3  -1   14.03    2.37
   8  -3  -1   10.25    2.04
  -8   3   1    7.88    1.26
   7  -3  -1  117.71    9.95
   7  -3  -1  122.65    9.93
  -7   3   1  116.13    9.80
  -7   3   1  115.68   10.38
  -7   3   1  112.84    9.52
   6  -3  -1   15.58    2.50
   6  -3  -1   13.04    2.11
   6  -3  -1   17.34    2.18
  -6   3   1   12.68    2.40
  -6   3   1   12.33    1.93
  -6   3   1    8.47    2.04
  -6   3   1   17.25    2.33
   5  -3  -1  101.52    8.38
   5  -3  -1  101.76    8.39
   5  -3  -1  107.86    8.72
  -5   3   1  110.92    8.49
  -5   3   1   86.04    8.50
  -5   3   1  105.57    8.69
  -5   3   1   97.85    8.29
   4  -3  -1   11.99    1.58
   4  -3  -1   12.29    1.94
   4  -3  -1   14.24    1.63
  -4   3   1   11.05    1.67
  -4   3   1   15.67    1.94
  -4   3   1   12.63    1.85
  -4   3   1   10.86    1.86
   3  -3  -1   57.06    4.68
   3  -3  -1   52.29    4.48
   3  -3  -1   58.39    4.52
  -3   3   1   54.59    4.66
  -3   3   1   43.99    4.52
   2  -3  -1    0.70    0.58
   2  -3  -1    0.61    0.50
   2  -3  -1    1.88    0.76
   2  -3  -1    0.97    0.48
  -2   3   1    2.36    0.72
  -2   3   1    1.14    0.62
   1  -3  -1   82.70    6.58
   1  -3  -1   83.95    6.63
   1  -3  -1   83.26    6.62
  -1   3   1   81.29    6.64
  -1   3   1   79.06    6.61
   0  -3  -1 1356.43   92.81
   0  -3  -1 1170.45   92.77
   0  -3  -1 1135.97   92.67
   0   3   1 1310.15   92.85
   0   3   1 1061.69   92.69
   0   3   1 1176.99   92.80
   1   3   1 2320.23  178.95
  -2  -3  -1  810.73   65.60
  -2  -3  -1  715.84   65.82
  -2  -3  -1  887.52   65.80
  -2  -3  -1  896.58   65.67
   2   3   1  831.83   65.86
   2   3   1  927.95   65.82
   2   3   1  770.06   65.60
   2   3   1  958.39   65.86
  -3  -3  -1  248.55   23.14
  -3  -3  -1  298.13   22.94
  -3  -3  -1  305.92   23.08
  -3  -3  -1  306.81   22.92
   3   3   1  299.31   23.22
   3   3   1  337.39   23.20
   3   3   1  296.86   22.85
   3   3   1  303.27   23.10
   3   3   1  247.71   22.84
  -4  -3  -1   23.43    2.54
  -4  -3  -1   24.36    2.45
  -4  -3  -1   19.95    2.42
   4   3   1   23.27    3.16
   4   3   1   22.41    2.24
   4   3   1   23.37    2.14
   4   3   1   21.06    2.41
   4   3   1   22.04    2.79
  -5  -3  -1    1.52    1.11
  -5  -3  -1    2.46    1.45
  -5  -3  -1    3.29    1.19
  -5  -3  -1    3.88    1.21
   5   3   1    2.33    0.66
   5   3   1    2.05    0.99
   5   3   1    3.35    1.51
   5   3   1    1.58    1.64
   5   3   1    3.04    0.91
  -6  -3  -1  551.24   49.86
  -6  -3  -1  599.01   50.03
  -6  -3  -1  669.92   50.18
   6   3   1  608.54   50.25
   6   3   1  745.68   50.10
   6   3   1  603.15   50.38
   6   3   1  709.95   50.00
   6   3   1  643.85   50.37
  -7  -3  -1    1.11    1.43
  -7  -3  -1   -2.08    1.69
   7   3   1   -1.67    1.96
   7   3   1    0.46    0.97
   7   3   1    2.48    1.54
  -8  -3  -1  299.53   26.15
   8   3   1  322.12   26.50
   8   3   1  348.49   26.06
   8   3   1  329.52   25.90
  -9  -3  -1    0.57    3.32
   9   3   1    6.07    1.98
   9   3   1    3.53    2.26
   9   3   1    6.51    2.59
  10  -4  -1   32.11    3.75
  10  -4  -1   26.89    3.78
  10  -4  -1   22.30    4.75
 -10   4   1   27.00    5.67
   9  -4  -1    0.92    2.10
   9  -4  -1    3.02    1.88
  -9   4   1   -0.22    3.46
   8  -4  -1  358.00   26.43
   8  -4  -1  335.31   26.44
  -8   4   1  296.21   25.72
  -8   4   1  332.20   26.88
   7  -4  -1   26.22    3.45
  -7   4   1   29.53    3.45
  -7   4   1   26.48    2.81
  -7   4   1   26.81    3.96
   6  -4  -1   99.91    8.02
   6  -4  -1   82.44    8.18
   6  -4  -1  101.35    8.02
  -6   4   1   77.37    8.13
  -6   4   1   91.73    7.74
  -6   4   1   96.16    8.01
  -6   4   1  103.73    8.53
   5  -4  -1  158.21   12.84
   5  -4  -1  150.17   12.58
   5  -4  -1  154.39   12.60
  -5   4   1  164.04   12.95
  -5   4   1  161.16   12.64
  -5   4   1  147.26   12.50
   4  -4  -1  324.74   23.55
   4  -4  -1  296.91   23.39
   4  -4  -1  273.95   23.36
  -4   4   1  294.75   23.59
  -4   4   1  287.77   23.38
  -4   4   1  307.10   23.43
   3  -4  -1  170.47   15.08
   3  -4  -1  172.76   15.16
   3  -4  -1  208.19   15.22
   3  -4  -1  192.37   15.11
  -3   4   1  198.28   15.27
  -3   4   1  204.75   15.19
   2  -4  -1  475.72   41.45
   2  -4  -1  515.68   41.43
   2  -4  -1  569.92   41.46
  -2   4   1  552.10   41.48
  -2   4   1  555.49   41.53
  -1   4   1 1975.74  138.04
  -1   4   1 1602.40  138.01
   0  -4  -1 1494.88  113.19
   0  -4  -1 1531.11  113.52
   0  -4  -1 1426.49  113.32
   0   4   1 1463.79  113.38
   0   4   1 1461.23  113.57
   0   4   1 1427.73  113.25
  -1  -4  -1  131.89    9.77
  -1  -4  -1  108.59    9.51
   1   4   1  108.42    9.77
   1   4   1  123.56    9.73
   1   4   1  116.10    9.51
   1   4   1  129.82    9.72
  -2  -4  -1 1384.57  112.69
  -2  -4  -1 1387.74  112.76
  -2  -4  -1 1432.09  113.03
  -2  -4  -1 1541.96  112.96
   2   4   1 1473.62  113.05
   2   4   1 1557.34  112.94
   2   4   1 1357.38  112.72
   2   4   1 1556.00  113.00
  -3  -4  -1    0.07    0.70
  -3  -4  -1    0.73    1.05
  -3  -4  -1   -0.57    0.69
  -3  -4  -1   -0.03    0.80
   3   4   1    0.26    0.55
   3   4   1    0.15    1.35
   3   4   1    1.18    0.50
   3   4   1    0.95    1.04
  -4  -4  -1  781.72   67.39
  -4  -4  -1  869.21   67.41
  -4  -4  -1  910.16   67.63
   4   4   1  882.33   67.63
   4   4   1  892.28   67.40
   4   4   1  833.89   67.78
   4   4   1  921.96   67.77
  -5  -4  -1   71.72    6.46
  -5  -4  -1   67.50    6.42
  -5  -4  -1   70.12    6.58
   5   4   1   76.47    6.21
   5   4   1   80.99    6.66
   5   4   1   77.54    6.34
   5   4   1   72.05    7.09
   5   4   1   74.18    6.89
  -6  -4  -1    7.23    1.57
  -6  -4  -1    5.32    1.78
  -6  -4  -1    7.85    1.88
   6   4   1    6.07    1.82
   6   4   1    7.00    1.33
   6   4   1    8.69    2.20
   6   4   1    6.44    1.53
  -7  -4  -1    3.86    1.72
  -7  -4  -1    1.47    1.95
   7   4   1    3.80    1.64
   7   4   1    2.18    1.76
  -8  -4  -1   14.90    3.16
   8   4   1   19.87    3.08
   8   4   1   18.28    2.73
   8   4   1   16.28    3.18
  -9  -4  -1    6.30    3.78
   9   4   1   11.52    2.38
   9   4   1    9.04    2.83
   9   4   1    9.29    2.48
  10  -5  -1   23.16    3.55
   9  -5  -1    7.75    2.16
   9  -5  -1    1.59    2.36
  -9   5   1    7.06    4.15
   8  -5  -1    2.91    1.94
   8  -5  -1    1.83    2.09
  -8   5   1    2.15    0.93
  -8   5   1    0.59    2.73
   7  -5  -1   21.80    3.19
   7  -5  -1   22.10    3.39
  -7   5   1   20.19    5.25
  -7   5   1   21.20    2.40
   6  -5  -1   39.36    4.11
   6  -5  -1   43.22    4.08
  -6   5   1   30.98    4.08
  -6   5   1   40.24    4.73
  -6   5   1   36.71    3.70
  -6   5   1   38.49    4.11
   5  -5  -1   15.72    2.21
   5  -5  -1   14.82    2.29
   5  -5  -1   13.09    2.15
  -5   5   1   10.56    2.28
  -5   5   1   16.20    2.20
  -5   5   1   18.91    2.69
  -5   5   1   16.94    2.58
   4  -5  -1    4.41    0.99
   4  -5  -1    0.77    1.29
  -4   5   1    1.30    1.15
   3  -5  -1    5.82    1.18
   3  -5  -1    4.90    1.24
   3  -5  -1    4.10    1.14
   3  -5  -1    4.67    0.99
  -3   5   1    4.79    1.18
  -3   5   1    5.32    1.45
   2  -5  -1  204.93   15.90
   2  -5  -1  206.20   15.86
   2  -5  -1  203.07   15.94
  -2   5   1  193.59   15.92
  -2   5   1  192.41   15.94
   1  -5  -1  423.05   34.32
   1  -5  -1  462.38   34.35
   1  -5  -1  425.46   34.20
  -1   5   1  475.53   34.47
  -1   5   1  414.41   34.30
   0  -5  -1   88.44    7.82
   0  -5  -1   94.61    7.83
   0  -5  -1   98.02    7.70
   0   5   1   97.98    7.76
   0   5   1  108.24    7.94
   0   5   1   96.60    8.02
   0   5   1   84.81    7.85
  -1  -5  -1   61.89    5.55
  -1  -5  -1   60.16    5.67
  -1  -5  -1   71.82    5.85
   1   5   1   72.36    5.58
   1   5   1   70.61    5.87
   1   5   1   64.52    6.01
   1   5   1   67.77    5.75
  -2  -5  -1   66.91    5.63
  -2  -5  -1   58.08    5.71
  -2  -5  -1   61.52    5.25
   2   5   1   62.27    5.29
   2   5   1   59.15    5.83
   2   5   1   64.62    5.70
   2   5   1   72.60    5.59
  -3  -5  -1  336.23   26.01
  -3  -5  -1  358.36   26.33
  -3  -5  -1  295.35   26.41
  -3  -5  -1  310.03   26.09
   3   5   1  327.53   26.02
   3   5   1  367.47   26.30
   3   5   1  334.59   26.54
   3   5   1  334.91   26.41
  -4  -5  -1  612.68   47.27
  -4  -5  -1  603.22   47.50
   4   5   1  578.94   47.75
   4   5   1  598.88   47.66
   4   5   1  597.86   47.24
   4   5   1  653.47   47.54
  -5  -5  -1    9.38    1.90
  -5  -5  -1   14.00    2.20
  -5  -5  -1    9.73    1.76
   5   5   1   13.36    2.27
   5   5   1   10.34    1.65
   5   5   1    6.09    2.03
  -6  -5  -1   42.28    4.56
  -6  -5  -1   36.45    4.25
  -6  -5  -1   35.43    4.43
   6   5   1   46.96    4.54
   6   5   1   30.08    4.11
   7   5   1   41.14    4.60
   7   5   1   42.50    5.10
  -8  -5  -1   63.14    7.50
   8   5   1   62.31    6.53
   8   5   1   71.67    7.03
  -9  -5  -1   20.22    4.39
   9   5   1   21.81    4.33
   9   5   1   32.28    3.95
   9  -6  -1   -0.17    2.17
   9  -6  -1    3.55    2.04
  -9   6   1    9.97    4.35
   8  -6  -1   12.12    2.64
   8  -6  -1   12.48    2.73
  -8   6   1    6.91    3.65
   7  -6  -1    5.28    1.93
   7  -6  -1    5.83    1.98
  -7   6   1    6.23    2.83
  -7   6   1    5.32    1.14
   6  -6  -1    1.98    1.36
   6  -6  -1   -0.06    1.41
  -6   6   1    0.31    1.06
  -6   6   1    1.31    2.14
   5  -6  -1    4.46    1.44
   5  -6  -1    5.36    1.51
   5  -6  -1    6.37    1.73
  -5   6   1    5.24    2.02
  -5   6   1    5.46    1.34
  -5   6   1    7.20    1.77
   4  -6  -1   59.95    6.14
   4  -6  -1   75.12    6.15
   4  -6  -1   67.83    6.10
   4  -6  -1   71.72    6.11
  -4   6   1   75.85    6.32
  -4   6   1   66.93    6.40
   3  -6  -1    2.04    0.82
   3  -6  -1    1.63    1.16
   3  -6  -1    1.36    1.12
   3  -6  -1    2.48    1.10
  -3   6   1    0.64    1.11
  -3   6   1    1.25    1.41
   2  -6  -1    1.32    0.97
   2  -6  -1    0.24    0.95
   2  -6  -1    0.88    0.67
   2  -6  -1    1.54    0.86
  -2   6   1    1.36    1.38
  -2   6   1    1.59    0.92
   1  -6  -1  240.79   21.18
   1  -6  -1  298.13   21.29
   1  -6  -1  241.10   21.04
  -1   6   1  262.43   21.35
  -1   6   1  301.33   21.29
  -1   6   1  266.37   21.23
   0  -6  -1   40.61    3.55
   0  -6  -1   31.88    3.22
   0  -6  -1   33.72    3.45
   0   6   1   37.58    3.80
   0   6   1   40.76    3.77
   0   6   1   32.22    3.45
   0   6   1   33.63    3.31
  -1  -6  -1   17.11    2.34
  -1  -6  -1   17.44    2.06
  -1  -6  -1   15.34    2.08
   1   6   1   15.25    2.56
   1   6   1   15.73    2.49
   1   6   1   14.29    1.89
   1   6   1   19.17    2.17
  -2  -6  -1    1.45    0.70
  -2  -6  -1    0.19    1.09
  -2  -6  -1    1.13    1.09
   2   6   1   -0.17    1.27
   2   6   1    2.12    0.81
   2   6   1    2.40    1.80
   2   6   1    1.19    0.91
  -3  -6  -1  278.22   24.25
  -3  -6  -1  306.35   23.78
  -3  -6  -1  330.68   24.21
  -3  -6  -1  269.94   23.87
   3   6   1  307.77   24.42
   3   6   1  320.76   23.85
   3   6   1  312.43   24.28
  -4  -6  -1  330.23   26.63
  -4  -6  -1  347.24   26.98
  -4  -6  -1  316.11   26.72
   4   6   1  369.23   26.97
   4   6   1  333.17   26.63
  -5  -6  -1   33.69    4.01
  -5  -6  -1   39.69    4.27
  -5  -6  -1   35.38    3.77
   5   6   1   35.91    5.02
   6   6   1   50.77    5.26
   6   6   1   50.78    4.99
  -7  -6  -1   29.77    4.34
   7   6   1   24.71    3.87
   7   6   1   31.62    4.36
  -8  -6  -1   -0.98    3.35
   8   6   1    3.15    1.91
   8   6   1    2.58    2.03
   9  -7  -1    7.15    3.37
   9  -7  -1    5.63    2.23
  -9   7   1    4.28    4.03
   8  -7  -1   90.03    9.12
   8  -7  -1   96.71    9.10
  -8   7   1  105.86   10.52
   7  -7  -1    2.98    2.27
   7  -7  -1    3.51    1.97
  -7   7   1    2.29    3.02
  -7   7   1    1.23    1.23
   6  -7  -1   23.48    3.36
   6  -7  -1   21.78    3.61
  -6   7   1   26.44    3.88
  -6   7   1   16.77    2.67
   5  -7  -1  127.13   10.64
   5  -7  -1  118.02   10.53
  -5   7   1  131.05   11.36
   4  -7  -1   45.12    4.56
   4  -7  -1   48.39    4.73
  -4   7   1   45.89    5.06
   3  -7  -1    5.57    1.50
   3  -7  -1    5.40    1.37
   3  -7  -1    8.55    1.73
   3  -7  -1    9.01    1.68
  -3   7   1    4.98    1.66
  -3   7   1    7.69    2.03
   2  -7  -1   89.55    7.38
   2  -7  -1   77.84    7.26
   2  -7  -1   88.52    7.17
  -2   7   1   93.04    7.41
  -2   7   1   79.68    7.53
  -2   7   1   77.54    7.34
   1  -7  -1  260.36   19.57
   1  -7  -1  247.89   19.35
   1  -7  -1  224.31   19.49
  -1   7   1  262.27   19.60
  -1   7   1  240.97   19.72
  -1   7   1  231.48   19.53
   0  -7  -1   71.73    6.51
   0  -7  -1   74.00    6.26
   0  -7  -1   79.63    6.52
   0   7   1   60.84    6.46
   0   7   1   76.31    6.85
   0   7   1   75.05    6.40
   0   7   1   81.41    6.66
  -1  -7  -1   74.84    5.91
  -1  -7  -1   73.08    6.13
  -1  -7  -1   60.43    6.10
   1   7   1   70.71    5.94
   1   7   1   66.56    6.43
   1   7   1   61.22    6.26
   1   7   1   68.29    6.18
  -2  -7  -1   66.01    5.45
  -2  -7  -1   60.09    5.82
  -2  -7  -1   61.43    5.26
  -2  -7  -1   57.91    5.68
   2   7   1   54.22    6.11
   2   7   1   71.32    5.80
   2   7   1   60.38    5.85
   2   7   1   58.30    5.36
  -3  -7  -1  554.06   45.50
  -3  -7  -1  553.71   45.36
   3   7   1  577.64   45.49
   3   7   1  649.81   45.84
  -4  -7  -1   52.82    5.18
   4   7   1   65.98    5.73
   4   7   1   56.99    5.23
  -5  -7  -1    2.20    1.49
  -5  -7  -1   -0.83    1.80
   5   7   1   -1.03    1.37
   5   7   1    2.40    1.29
  -6  -7  -1    4.89    2.60
   6   7   1    3.55    1.74
   6   7   1    3.92    1.86
  -7  -7  -1   14.14    3.83
   7   7   1    9.00    2.76
   7   7   1   16.82    2.66
  -8  -7  -1   26.03    4.53
   8   7   1   23.68    4.28
   8  -8  -1   75.51    7.18
   8  -8  -1   65.99    7.39
  -8   8   1   70.43    8.94
   7  -8  -1    7.09    2.51
   7  -8  -1   -0.25    2.29
  -7   8   1   -0.84    3.39
   6  -8  -1    1.31    2.10
   6  -8  -1   -2.18    1.76
  -6   8   1   -0.81    1.39
  -6   8   1    3.99    2.84
   5  -8  -1   99.99    9.17
   5  -8  -1   95.46    9.17
  -5   8   1  102.08    9.67
  -5   8   1  115.41    8.80
   4  -8  -1    3.39    1.73
   4  -8  -1    4.09    1.50
  -4   8   1    3.11    1.58
  -4   8   1    3.09    2.26
   3  -8  -1   69.31    6.75
   3  -8  -1   77.57    8.27
  -3   8   1   85.26    7.74
   2  -8  -1    1.44    1.41
   2  -8  -1   -0.59    1.03
  -2   8   1   -1.20    1.39
  -2   8   1    1.82    1.70
   1  -8  -1   51.39    5.18
  -1   8   1   49.55    5.15
  -1   8   1   54.27    5.18
   0  -8  -1  400.29   30.91
   0   8   1  386.07   30.90
   0   8   1  384.77   30.83
  -1  -8  -1    0.72    1.47
   1   8   1    0.93    1.13
   1   8   1    1.22    1.21
  -2  -8  -1  126.07    9.42
   2   8   1   89.23    9.60
  -3  -8  -1   -1.34    1.82
  -3  -8  -1   -0.94    0.91
   3   8   1    0.97    1.28
   3   8   1    0.94    1.16
  -4  -8  -1   -0.17    1.79
  -4  -8  -1    1.39    1.20
   4   8   1    0.10    1.37
   4   8   1   -0.08    1.28
   5   8   1   45.26    4.93
   5   8   1   42.27    4.60
   6   8   1   57.42    5.79
   6   8   1   59.78    6.30
   7   8   1   96.90    8.74
   7   8   1   91.40    8.34
   7  -9  -1   74.89    7.38
  -7   9   1   71.00    8.96
   6  -9  -1   44.43    5.62
   6  -9  -1   43.20    5.21
  -6   9   1   32.69    5.11
  -6   9   1   27.96    5.04
   5  -9  -1   13.18    2.79
   5  -9  -1    7.23    2.42
  -5   9   1   11.10    3.32
   4  -9  -1   12.86    2.63
   4  -9  -1    8.96    2.24
  -4   9   1   12.13    2.91
  -4   9   1    8.31    2.02
   3  -9  -1    0.39    1.44
   3  -9  -1   -1.28    1.80
  -3   9   1    0.26    1.74
  -3   9   1    1.98    2.24
   2  -9  -1   -0.87    1.64
   2  -9  -1    1.03    1.35
  -2   9   1    5.10    2.17
   1  -9  -1   32.42    3.96
   1  -9  -1   23.20    3.27
  -1   9   1   32.28    4.16
   0  -9  -1  134.06   10.69
   0   9   1  107.14   10.63
   0   9   1  132.74   10.68
  -1  -9  -1   79.59    7.01
  -1  -9  -1   71.17    6.06
   1   9   1   75.87    6.76
   1   9   1   63.64    6.75
  -2  -9  -1  152.30   12.85
  -2  -9  -1  165.87   13.58
   2   9   1  158.60   13.62
   2   9   1  168.40   13.38
  -3  -9  -1   12.50    2.39
  -3  -9  -1   17.71    2.95
   3   9   1   18.42    3.16
   3   9   1   17.19    2.69
  -4  -9  -1   -1.22    2.28
   4   9   1   -0.59    1.53
   4   9   1    1.45    1.60
  -5  -9  -1   95.65   10.10
   5   9   1  116.06    9.51
   5   9   1  109.57    9.75
  -6  -9  -1   30.29    4.41
   6   9   1   22.67    3.24
   6   9   1   24.46    3.75
   6 -10  -1   36.77    4.94
   6 -10  -1   35.78    6.06
  -6  10   1   33.28    5.26
   5 -10  -1   15.45    3.03
   5 -10  -1   11.80    3.37
  -5  10   1   13.98    3.78
   4 -10  -1   34.82    5.46
   4 -10  -1   38.60    4.99
  -4  10   1   44.65    6.24
   3 -10  -1   -0.33    2.37
   3 -10  -1    2.33    2.32
  -3  10   1   -1.89    2.72
   2 -10  -1    2.53    2.22
   2 -10  -1    4.44    2.03
  -2  10   1    6.02    2.74
   1 -10  -1  239.99   19.86
  -1  10   1  243.42   20.05
   0 -10  -1   19.56    3.30
   0  10   1   12.66    2.96
  -1 -10  -1    5.38    2.57
   1  10   1    3.79    2.12
   1  10   1    4.95    2.17
  -2 -10  -1    3.80    2.47
   2  10   1    0.90    1.90
   2  10   1    2.55    2.08
  -3 -10  -1   77.37    7.19
   3  10   1   61.27    6.69
   3  10   1   60.53    6.41
  -4 -10  -1    3.18    2.81
   4  10   1    3.41    1.82
   4  10   1    8.34    2.00
  -5 -10  -1   32.82    5.41
   5  10   1   31.91    4.88
   5  10   1   37.88    4.55
   4 -11  -1   55.82    6.10
   4 -11  -1   56.77    6.92
  -4  11   1   65.77    7.29
   3 -11  -1   -1.25    2.38
   3 -11  -1   -3.53    2.02
  -3  11   1   -5.48    2.89
   2 -11  -1  131.58   12.33
   2 -11  -1  152.24   12.54
  -2  11   1  147.03   12.99
   1 -11  -1    2.49    2.62
  -1  11   1    2.45    2.74
   0 -11  -1   20.21    3.76
   0 -11  -1   36.21    4.98
   0  11   1   32.88    4.87
  -1 -11  -1    2.85    2.54
   1  11   1   -0.27    1.71
   1  11   1   -0.66    1.93
  -2 -11  -1   -1.10    2.52
   2  11   1   -2.86    1.86
   2  11   1    4.59    1.77
  -3 -11  -1   83.77    8.42
   3  11   1   96.66    8.08
   3  11   1   80.28    8.30
   1  12  -2   -1.32    2.50
  -1 -12   2    0.53    2.39
   0  12  -2    0.61    3.10
   0 -12   2   -0.12    2.35
  -1  12  -2   19.77    3.82
   1 -12   2   13.84    2.94
   1 -12   2   11.10    3.58
  -2  12  -2   50.13    7.13
   2 -12   2   43.12    5.67
   4  11  -2    3.46    1.90
   4  11  -2    1.06    1.69
  -4 -11   2   -1.66    2.54
   3  11  -2  208.63   15.89
   3  11  -2  157.79   15.89
  -3 -11   2  205.90   16.04
   2  11  -2   33.53    4.54
  -2 -11   2   35.57    5.03
   1  11  -2  166.93   14.02
  -1 -11   2  157.14   13.97
   0  11  -2   -0.71    2.88
   0 -11   2   -3.83    2.05
  -1  11  -2    8.18    3.18
   1 -11   2    1.58    2.43
   1 -11   2    6.57    2.54
  -2  11  -2   23.35    4.22
   2 -11   2   12.52    3.50
   2 -11   2   16.12    3.02
  -3  11  -2   11.60    4.02
   3 -11   2   12.06    3.33
   3 -11   2   14.71    3.07
  -4  11  -2   76.98    8.92
   4 -11   2   61.08    7.90
   4 -11   2   73.83    7.19
  -5  11  -2   77.97    9.29
   5 -11   2   69.68    7.89
   5 -11   2   82.05    7.86
   5  10  -2    6.48    1.99
   5  10  -2    2.77    2.02
  -5 -10   2   -1.61    2.72
   4  10  -2   18.42    3.61
   4  10  -2   18.07    2.83
   3  10  -2   30.48    4.26
   3  10  -2   29.86    3.93
  -3 -10   2   28.30    4.70
   2  10  -2    1.55    2.03
   2  10  -2   -0.25    1.74
  -2 -10   2   -2.33    2.09
   1  10  -2   15.49    2.97
  -1 -10   2   15.16    3.03
   0  10  -2   22.26    3.41
   0 -10   2   23.58    3.57
  -1  10  -2   38.20    4.93
   1 -10   2   28.13    4.24
  -2  10  -2   33.26    5.06
  -2  10  -2   32.81    4.56
   2 -10   2   33.34    4.44
   2 -10   2   25.22    4.49
  -3  10  -2   63.74    7.32
   3 -10   2   71.86    6.71
   3 -10   2   60.54    6.91
   4 -10   2  156.84   12.43
   4 -10   2  125.62   12.52
   5 -10   2   33.69    5.08
   5 -10   2   30.09    4.61
  -6  10  -2   38.32    5.79
   6 -10   2   28.04    4.66
   6 -10   2   28.44    5.14
   7   9  -2    4.13    1.98
   7   9  -2    5.48    2.66
  -7  -9   2   -3.32    2.76
   6   9  -2   66.42    6.58
   6   9  -2   57.55    6.02
  -6  -9   2   62.80    7.41
   5   9  -2   26.11    3.58
   5   9  -2   26.76    3.85
  -5  -9   2   26.63    4.36
   4   9  -2   25.02    3.77
   4   9  -2   25.31    3.42
  -4  -9   2   32.20    4.85
   3   9  -2    1.44    1.45
   3   9  -2   -0.40    1.45
  -3  -9   2   -2.71    2.00
   2   9  -2    0.99    1.50
   2   9  -2    1.94    1.51
   1   9  -2  143.31   13.51
  -1  -9   2  184.68   13.67
   0   9  -2  123.68   10.25
   0   9  -2  114.55   10.30
   0  -9   2  118.50   10.22
  -1   9  -2   11.50    2.24
  -1   9  -2   11.45    2.33
   1  -9   2   13.17    2.32
  -2   9  -2    7.44    2.18
  -2   9  -2    6.36    1.96
   2  -9   2    5.97    1.96
   2  -9   2    9.35    2.07
  -3   9  -2   27.64    4.00
  -3   9  -2   31.44    3.66
   3  -9   2   29.15    4.02
  -4   9  -2   40.37    5.93
   4  -9   2   43.43    4.85
   4  -9   2   34.65    4.90
  -5   9  -2    2.39    2.57
   5  -9   2   -0.06    2.14
   5  -9   2    3.81    2.19
  -6   9  -2    7.13    3.70
   6  -9   2   13.60    3.00
   6  -9   2   11.23    2.99
  -7   9  -2    2.96    3.88
   7  -9   2    4.30    2.35
   7  -9   2    7.75    2.48
   7   8  -2   26.56    4.00
   7   8  -2   27.79    3.65
  -7  -8   2   23.09    4.46
   6   8  -2    1.74    1.77
   6   8  -2   -0.61    1.48
  -6  -8   2    4.71    2.66
   5   8  -2   69.23    6.57
   5   8  -2   76.42    6.85
  -5  -8   2   74.80    7.51
   4   8  -2   -0.60    1.22
   4   8  -2    0.78    1.21
  -4  -8   2   -1.94    1.84
   3   8  -2  142.35   11.36
   3   8  -2  112.61   11.48
  -3  -8   2  142.90   11.02
   2   8  -2  233.17   18.58
   2   8  -2  211.38   18.75
  -2  -8   2  255.65   19.02
   1   8  -2  144.23   12.90
   1   8  -2  138.59   12.71
   1   8  -2  166.22   12.54
  -1  -8   2  157.39   12.54
   0   8  -2   81.01    8.35
   0   8  -2  106.06    8.20
   0   8  -2   90.21    8.41
   0  -8   2   88.89    8.15
   0  -8   2   95.08    8.06
   0  -8   2   99.40    8.14
  -1   8  -2   23.58    3.77
  -1   8  -2   30.03    3.42
  -1   8  -2   26.48    3.67
   1  -8   2   26.04    3.27
  -2   8  -2  114.71    9.74
  -2   8  -2  102.50    9.50
  -2   8  -2  114.29    9.53
   2  -8   2  115.00    9.50
  -3   8  -2    3.52    1.95
  -3   8  -2    1.80    1.55
  -3   8  -2    2.66    1.66
   3  -8   2    1.71    1.52
   3  -8   2    5.09    1.63
  -4   8  -2   21.96    2.93
  -4   8  -2   15.91    2.78
  -4   8  -2   13.35    2.65
   4  -8   2   16.42    2.86
   4  -8   2   11.78    3.84
  -5   8  -2    1.67    0.92
  -5   8  -2   -0.05    2.17
  -5   8  -2    3.38    2.24
  -5   8  -2   -0.77    0.92
   5  -8   2    2.66    1.86
   5  -8   2    0.24    1.83
   6  -8   2   15.00    3.22
   6  -8   2   17.16    3.17
  -7   8  -2   93.71   10.20
   7  -8   2   94.40    9.63
   7  -8   2  109.67    9.44
  -8   8  -2   97.14   10.12
   8  -8   2  102.46    9.57
   8  -8   2  103.65    9.58
   8   7  -2   29.57    3.58
   8   7  -2   28.69    4.69
  -8  -7   2   26.02    4.82
   7   7  -2   -1.38    1.74
   7   7  -2    0.13    1.56
  -7  -7   2   -1.01    2.63
   6   7  -2   12.13    2.09
   6   7  -2   10.49    2.16
  -6  -7   2   13.62    2.69
  -6  -7   2    9.83    2.91
   5   7  -2  216.51   17.26
   5   7  -2  199.42   16.97
  -5  -7   2  213.58   17.65
  -5  -7   2  222.10   17.55
   4   7  -2   24.80    2.92
   4   7  -2   23.60    2.75
  -4  -7   2   22.67    2.80
  -4  -7   2   22.92    3.43
  -4  -7   2   28.26    3.43
  -4  -7   2   21.01    3.35
   3   7  -2   77.35    8.02
   3   7  -2   89.88    7.37
   3   7  -2   90.60    8.27
   3   7  -2   92.09    7.66
  -3  -7   2   88.83    7.88
  -3  -7   2   80.11    7.42
  -3  -7   2   89.38    7.35
  -3  -7   2   90.74    7.77
   2   7  -2   72.78    7.49
   2   7  -2   80.15    7.55
   2   7  -2   80.27    6.92
   2   7  -2   78.02    7.13
  -2  -7   2   87.90    7.31
  -2  -7   2   80.94    6.91
  -2  -7   2   90.93    7.23
   1   7  -2  616.34   51.18
   1   7  -2  627.65   51.29
   1   7  -2  664.76   50.98
  -1  -7   2  717.22   51.26
  -1  -7   2  580.94   50.81
  -1  -7   2  723.21   51.12
   0   7  -2   62.89    6.14
   0   7  -2   60.09    5.57
   0   7  -2   62.96    5.94
   0  -7   2   62.18    5.45
   0  -7   2   60.68    5.67
   0  -7   2   71.77    5.74
  -1   7  -2  266.36   21.57
  -1   7  -2  252.82   21.33
  -1   7  -2  256.49   21.37
   1  -7   2  293.66   21.51
   1  -7   2  252.23   21.38
   1  -7   2  292.82   21.26
  -2   7  -2  211.88   17.46
  -2   7  -2  195.86   17.26
  -2   7  -2  230.77   17.27
   2  -7   2  242.13   17.25
   2  -7   2  201.50   17.36
   2  -7   2  213.84   17.32
  -3   7  -2  360.77   27.51
  -3   7  -2  368.37   27.20
  -3   7  -2  325.59   27.40
   3  -7   2  317.16   27.48
   3  -7   2  351.73   27.41
   3  -7   2  357.65   27.33
  -4   7  -2  111.32   10.72
  -4   7  -2  141.57   10.98
  -4   7  -2  137.78   10.31
   4  -7   2  114.71   10.81
   4  -7   2  133.74   10.67
  -5   7  -2  146.92   12.54
  -5   7  -2  134.57   11.70
  -5   7  -2  170.28   12.56
  -5   7  -2  140.68   11.65
   5  -7   2  160.47   12.50
  -6   7  -2    7.93    2.00
  -6   7  -2    2.81    2.34
   6  -7   2    4.58    2.08
   6  -7   2    6.22    2.09
  -7   7  -2    7.50    3.14
   7  -7   2    0.50    2.12
   7  -7   2   -1.58    2.16
  -8   7  -2  104.31   10.99
   8  -7   2  125.11   10.62
   8  -7   2  108.50   10.51
   9   6  -2   69.07    7.16
   9   6  -2   66.42    6.47
  -9  -6   2   64.08    7.96
   8   6  -2  100.57    9.41
   8   6  -2  122.41   10.08
  -8  -6   2   93.89   10.53
  -8  -6   2  113.77   10.29
   7   6  -2  153.14   12.23
   7   6  -2  139.50   11.87
  -7  -6   2  134.76   12.69
  -7  -6   2  142.41   12.47
   6   6  -2    2.65    1.34
   6   6  -2    4.16    1.48
  -6  -6   2    1.86    1.71
  -6  -6   2    1.78    2.05
   5   6  -2  327.45   26.50
   5   6  -2  357.04   26.73
  -5  -6   2  312.10   26.57
  -5  -6   2  322.12   26.98
  -5  -6   2  367.84   26.97
   4   6  -2  470.55   41.27
   4   6  -2  558.36   40.79
   4   6  -2  526.14   41.40
   4   6  -2  577.63   41.02
  -4  -6   2  544.20   40.88
  -4  -6   2  530.39   41.21
  -4  -6   2  451.18   41.09
  -4  -6   2  526.54   40.90
   3   6  -2   28.46    3.86
   3   6  -2   24.41    2.62
   3   6  -2   29.33    2.89
   3   6  -2   21.29    3.53
  -3  -6   2   26.64    2.79
  -3  -6   2   23.94    2.90
  -3  -6   2   31.34    3.18
  -3  -6   2   26.44    3.22
  -3  -6   2   25.40    3.15
   2   6  -2    3.40    0.99
   2   6  -2    3.02    0.82
   2   6  -2    2.99    1.54
   2   6  -2    3.29    1.82
  -2  -6   2    6.71    1.39
  -2  -6   2    3.25    1.12
  -2  -6   2    4.23    1.04
  -2  -6   2    3.65    1.10
   1   6  -2  330.23   26.86
   1   6  -2  330.28   26.78
   1   6  -2  366.67   26.57
   1   6  -2  300.54   26.63
  -1  -6   2  310.24   26.43
  -1  -6   2  376.20   26.67
  -1  -6   2  358.70   26.78
   0   6  -2    2.37    0.78
   0   6  -2    2.68    1.18
   0   6  -2    1.72    1.42
   0  -6   2    3.97    1.08
   0  -6   2    3.40    0.90
  -1   6  -2   27.38    3.28
  -1   6  -2   25.31    2.73
   1  -6   2   28.11    2.81
   1  -6   2   28.56    2.97
   1  -6   2   27.90    2.71
  -2   6  -2  107.40    8.94
  -2   6  -2  113.13    8.72
  -2   6  -2  101.54    8.75
   2  -6   2  109.27    8.82
   2  -6   2  118.34    8.80
   2  -6   2   91.28    8.84
  -3   6  -2   36.32    3.67
  -3   6  -2   42.21    4.02
  -3   6  -2   43.10    3.45
   3  -6   2   38.91    3.78
   3  -6   2   38.41    3.61
   3  -6   2   32.02    3.76
   3  -6   2   31.44    3.74
  -4   6  -2   10.07    1.38
  -4   6  -2    6.91    1.62
  -4   6  -2    8.16    1.84
   4  -6   2    7.00    1.51
   4  -6   2    5.43    1.54
   4  -6   2    6.93    1.64
  -5   6  -2    2.78    1.82
  -5   6  -2    2.56    1.68
   5  -6   2    5.84    1.60
   5  -6   2    4.79    1.62
   5  -6   2    3.28    1.35
  -6   6  -2  117.66   10.26
   6  -6   2  114.64   10.21
   6  -6   2  119.49   10.06
  -7   6  -2    5.28    2.50
   7  -6   2    7.66    2.39
   7  -6   2    8.00    2.26
  -8   6  -2   75.02    8.21
   8  -6   2   71.65    7.37
   8  -6   2   78.24    7.70
  -9   6  -2    2.72    3.72
   9  -6   2    1.67    2.42
   9  -6   2   -0.11    1.95
   9   5  -2    6.67    2.62
   9   5  -2   10.58    2.28
  -9  -5   2    6.58    2.80
  -9  -5   2    6.02    3.68
   8   5  -2   96.87    9.05
   8   5  -2  113.11    9.42
  -8  -5   2   93.91   10.08
  -8  -5   2  103.56    9.44
   7   5  -2  154.37   13.72
   7   5  -2  184.33   14.33
  -7  -5   2  149.15   14.36
  -7  -5   2  181.31   14.23
   6   5  -2  420.81   36.50
   6   5  -2  514.75   36.79
  -6  -5   2  443.03   37.04
  -6  -5   2  487.74   36.93
   5   5  -2  419.59   30.34
   5   5  -2  372.22   30.87
   5   5  -2  427.45   30.51
   5   5  -2  373.44   30.90
  -5  -5   2  363.31   30.73
  -5  -5   2  321.89   30.33
  -5  -5   2  388.91   30.43
  -5  -5   2  427.17   30.71
   4   5  -2  223.33   19.20
   4   5  -2  264.04   19.41
   4   5  -2  239.52   19.83
   4   5  -2  234.67   19.85
  -4  -5   2  234.28   19.61
  -4  -5   2  214.30   19.55
  -4  -5   2  265.91   19.40
  -4  -5   2  277.84   19.65
   3   5  -2  423.10   33.31
   3   5  -2  483.11   33.53
   3   5  -2  409.88   33.79
   3   5  -2  398.38   33.74
  -3  -5   2  476.26   33.67
  -3  -5   2  406.59   33.63
  -3  -5   2  442.40   33.40
  -3  -5   2  379.33   33.36
  -3  -5   2  431.45   33.61
   2   5  -2  410.00   31.36
   2   5  -2  384.97   31.52
   2   5  -2  383.10   31.55
   2   5  -2  391.11   31.19
  -2  -5   2  363.81   31.19
  -2  -5   2  445.05   31.43
  -2  -5   2  383.17   31.44
  -2  -5   2  444.76   31.45
   1   5  -2   28.04    2.49
   1   5  -2   25.49    2.57
   1   5  -2   23.19    2.96
   1   5  -2   25.52    3.16
  -1  -5   2   26.63    2.61
  -1  -5   2   25.29    2.72
  -1  -5   2   30.55    2.66
  -1  -5   2   27.08    2.52
   0   5  -2  430.04   32.47
   0   5  -2  372.34   32.77
   0   5  -2  408.00   32.56
   0  -5   2  432.12   32.54
   0  -5   2  480.03   32.55
   0  -5   2  377.65   32.36
   0  -5   2  416.95   32.60
  -1   5  -2   44.64    5.57
  -1   5  -2   54.84    4.52
  -1   5  -2   54.29    4.58
   1  -5   2   55.98    4.52
   1  -5   2   53.28    4.56
   1  -5   2   49.66    4.64
  -2   5  -2   19.42    1.89
   2  -5   2   17.13    1.96
   2  -5   2   14.74    2.06
   2  -5   2   10.90    1.77
   2  -5   2   15.32    1.75
  -3   5  -2  519.46   41.35
  -3   5  -2  474.75   41.61
  -3   5  -2  567.82   41.65
   3  -5   2  515.65   41.59
   3  -5   2  596.08   41.70
  -4   5  -2  433.38   32.90
  -4   5  -2  383.72   32.91
  -4   5  -2  441.11   33.46
   4  -5   2  387.57   33.51
   4  -5   2  448.00   33.37
   4  -5   2  466.66   33.49
  -5   5  -2  137.67   11.49
  -5   5  -2  138.46   11.66
   5  -5   2  140.67   11.79
   5  -5   2  146.68   11.78
   5  -5   2  141.79   11.53
  -6   5  -2  144.29   12.59
  -6   5  -2  142.37   12.36
   6  -5   2  156.44   12.74
   6  -5   2  160.62   12.51
  -7   5  -2   10.02    1.99
  -7   5  -2   13.31    2.60
   7  -5   2   12.34    2.45
   7  -5   2   11.80    2.48
  -8   5  -2    7.20    2.91
   8  -5   2   11.15    2.55
   8  -5   2   12.11    2.80
   9  -5   2   10.54    2.39
   9  -5   2    7.14    2.81
  10   4  -2   -3.49    2.28
  10   4  -2   -0.97    2.35
 -10  -4   2    8.14    3.70
 -10  -4   2   -0.79    2.80
   9   4  -2   -2.16    1.89
   9   4  -2    0.25    2.10
  -9  -4   2   -1.74    2.35
  -9  -4   2   -0.95    3.26
   8   4  -2    3.62    1.78
   8   4  -2    4.14    1.73
  -8  -4   2    3.67    2.71
  -8  -4   2    4.00    2.14
   7   4  -2    0.16    1.16
   7   4  -2    0.21    1.21
  -7  -4   2   -0.19    1.52
   6   4  -2    1.36    1.01
   6   4  -2    1.38    1.77
   6   4  -2    2.01    1.09
   6   4  -2   -2.97    2.22
  -6  -4   2    1.86    1.29
  -6  -4   2    2.16    1.77
  -6  -4   2   -2.49    1.25
  -6  -4   2    0.09    1.37
  -6  -4   2    2.29    1.38
   5   4  -2   10.86    1.56
   5   4  -2   12.51    2.65
   5   4  -2   11.52    1.70
   5   4  -2    9.68    2.19
  -5  -4   2    8.07    1.81
  -5  -4   2   10.32    1.81
  -5  -4   2   10.10    1.73
  -5  -4   2    9.85    2.09
  -5  -4   2   10.85    1.92
   4   4  -2   43.46    3.66
   4   4  -2   38.64    4.37
   4   4  -2   37.16    4.38
   4   4  -2   46.57    3.77
  -4  -4   2   36.76    3.85
  -4  -4   2   42.20    3.86
  -4  -4   2   41.78    4.01
  -4  -4   2   38.74    4.08
   3   4  -2  666.01   56.39
   3   4  -2  728.75   56.80
   3   4  -2  722.52   56.80
   3   4  -2  819.86   56.58
  -3  -4   2  780.20   56.52
  -3  -4   2  730.84   56.50
  -3  -4   2  756.05   56.68
  -3  -4   2  713.58   56.72
  -3  -4   2  642.81   56.59
   2   4  -2   66.23    6.62
   2   4  -2   82.41    6.22
   2   4  -2   70.51    6.44
   2   4  -2   74.16    6.07
  -2  -4   2   76.19    6.29
  -2  -4   2   73.62    6.35
  -2  -4   2   78.31    6.14
   1   4  -2   30.40    2.96
   1   4  -2   31.53    2.87
   1   4  -2   32.01    3.35
   1   4  -2   35.78    3.26
  -1  -4   2   31.07    3.09
  -1  -4   2   35.02    2.90
  -1  -4   2   37.31    3.04
  -1  -4   2   35.44    3.08
   0   4  -2  780.14   58.55
   0   4  -2  654.70   58.35
   0   4  -2  761.05   58.49
   0  -4   2  716.47   58.44
   0  -4   2  845.94   58.47
   0  -4   2  736.07   58.34
   0  -4   2  793.26   58.53
  -1   4  -2   46.30    3.81
  -1   4  -2   40.65    3.59
  -1   4  -2   43.11    3.61
   1  -4   2   43.12    3.61
   1  -4   2   37.61    3.60
  -2   4  -2   20.35    1.98
  -2   4  -2   16.38    1.61
  -2   4  -2   15.27    1.79
   2  -4   2   11.93    1.77
   2  -4   2   16.63    1.72
   2  -4   2   19.31    1.94
  -3   4  -2   43.79    3.84
  -3   4  -2   45.85    3.41
   3  -4   2   35.73    3.82
   3  -4   2   40.30    3.69
   3  -4   2   45.23    3.94
  -4   4  -2 1307.17  101.66
   4  -4   2 1354.68  101.58
   4  -4   2 1224.38  101.73
   4  -4   2 1368.52  101.69
  -5   4  -2  183.79   14.90
  -5   4  -2  178.43   15.08
   5  -4   2  198.70   15.27
   5  -4   2  187.56   14.98
   5  -4   2  187.32   15.18
  -6   4  -2   22.68    3.18
  -6   4  -2   25.21    3.38
   6  -4   2   29.95    3.18
   6  -4   2   25.51    3.30
   6  -4   2   31.00    3.73
  -7   4  -2  105.04    9.77
  -7   4  -2  106.04    9.44
   7  -4   2  117.37    9.70
   7  -4   2  121.80    9.86
  -8   4  -2    0.19    2.26
   8  -4   2    1.80    1.96
   8  -4   2    2.75    1.69
  -9   4  -2    3.57    2.93
   9  -4   2    7.60    2.19
   9  -4   2    7.59    2.82
  10   3  -2   33.46    5.65
  10   3  -2   38.34    4.49
  10   3  -2   35.76    4.35
 -10  -3   2   36.95    5.86
 -10  -3   2   38.11    5.96
   9   3  -2   -0.87    1.43
   9   3  -2   -0.07    2.12
   9   3  -2    0.28    1.74
  -9  -3   2   -0.80    2.11
  -9  -3   2    4.95    3.42
   8   3  -2    6.97    1.71
   8   3  -2    5.46    2.22
   8   3  -2    2.51    1.70
  -8  -3   2   10.33    3.09
  -8  -3   2    3.72    2.01
   7   3  -2   83.01    7.26
   7   3  -2   80.70    6.96
   7   3  -2   68.17    7.49
   7   3  -2   84.55    7.15
  -7  -3   2   82.96    7.89
  -7  -3   2   81.83    7.33
   6   3  -2  170.16   12.88
   6   3  -2  138.14   13.23
   6   3  -2  144.70   13.33
   6   3  -2  168.19   12.82
   6   3  -2  165.99   12.98
  -6  -3   2  163.80   13.09
  -6  -3   2  168.96   12.97
  -6  -3   2  166.26   13.38
  -6  -3   2  136.83   12.83
   5   3  -2    6.02    1.84
   5   3  -2    6.13    1.06
   5   3  -2    5.22    1.85
   5   3  -2    5.72    1.06
   5   3  -2    5.71    1.11
  -5  -3   2    5.66    1.28
  -5  -3   2    3.61    1.31
  -5  -3   2    4.85    1.29
  -5  -3   2    6.57    1.53
  -5  -3   2    7.31    1.40
   4   3  -2   11.57    1.43
   4   3  -2   11.63    1.96
   4   3  -2   11.88    1.45
   4   3  -2   14.78    2.28
  -4  -3   2   11.61    1.66
  -4  -3   2   11.69    1.61
  -4  -3   2    8.99    1.68
  -4  -3   2   13.70    1.87
  -4  -3   2   14.31    1.83
   3   3  -2   44.56    3.30
   3   3  -2   36.81    3.16
   3   3  -2   35.09    3.68
   3   3  -2   36.33    3.72
  -3  -3   2   32.83    3.37
  -3  -3   2   35.37    3.28
  -3  -3   2   36.55    3.49
  -3  -3   2   36.96    3.43
   2   3  -2   66.27    5.70
   2   3  -2   64.50    5.70
   2   3  -2   60.51    5.34
  -2  -3   2   64.54    5.57
  -2  -3   2   63.76    5.61
  -2  -3   2   72.72    5.46
  -2  -3   2   62.50    5.42
  -2  -3   2   76.28    5.53
   1   3  -2  442.22   31.55
   1   3  -2  405.47   31.72
   1   3  -2  389.96   31.59
   1   3  -2  378.79   31.69
  -1  -3   2  395.70   31.69
  -1  -3   2  405.48   31.67
  -1  -3   2  428.79   31.60
  -1  -3   2  410.31   31.53
   0   3  -2  116.97    8.71
   0   3  -2   99.27    8.63
   0   3  -2   97.68    8.53
   0  -3   2  117.23    8.54
   0  -3   2  112.92    8.67
   0  -3   2  101.61    8.60
   0  -3   2  114.48    8.62
  -1   3  -2 1342.11   91.70
  -1   3  -2 1095.85   91.59
  -1   3  -2 1141.73   91.63
   1  -3   2 1172.12   91.63
  -2   3  -2    1.09    0.35
  -2   3  -2   -0.16    0.60
  -2   3  -2    1.39    0.62
   2  -3   2    0.38    0.48
   2  -3   2    0.65    0.65
   2  -3   2    2.57    0.55
  -3   3  -2  539.85   38.16
  -3   3  -2  480.36   37.99
   3  -3   2  514.57   38.16
   3  -3   2  422.19   38.17
   3  -3   2  494.61   38.04
  -4   3  -2  210.87   16.20
  -4   3  -2  203.76   16.36
   4  -3   2  220.69   16.49
   4  -3   2  185.57   16.39
   4  -3   2  209.39   16.27
  -5   3  -2    9.17    1.53
  -5   3  -2    7.25    1.71
   5  -3   2    9.84    1.95
   5  -3   2    9.04    1.67
   5  -3   2   10.33    1.50
  -6   3  -2   56.09    5.09
  -6   3  -2   59.02    5.33
  -6   3  -2   45.83    5.35
   6  -3   2   55.06    5.70
   6  -3   2   64.93    5.40
   6  -3   2   59.49    5.17
  -7   3  -2   50.67    5.15
  -7   3  -2   50.29    4.85
   7  -3   2   42.61    6.13
   7  -3   2   52.77    4.91
  -8   3  -2    1.56    2.04
  -8   3  -2    1.88    1.44
   8  -3   2   -0.05    1.70
   8  -3   2    1.62    1.58
  -9   3  -2   19.51    3.61
   9  -3   2   24.67    3.72
   9  -3   2   25.60    4.03
  10  -3   2   19.47    3.20
  10  -3   2   10.28    2.24
  10  -3   2    6.89    3.03
  10   2  -2   87.84    8.50
  10   2  -2   91.10    9.42
  10   2  -2   92.79    8.30
 -10  -2   2  100.97    9.14
 -10  -2   2   92.98   10.67
   9   2  -2  112.22    9.36
   9   2  -2  102.66    9.50
   9   2  -2   97.46    9.77
  -9  -2   2  108.69   10.62
  -9  -2   2  113.66    9.85
   8   2  -2  261.30   19.50
   8   2  -2  225.57   19.71
   8   2  -2  239.13   19.50
  -8  -2   2  240.96   20.11
  -8  -2   2  241.70   19.57
   7   2  -2  250.77   22.05
   7   2  -2  309.89   22.00
   7   2  -2  303.73   21.94
   7   2  -2  239.93   22.24
  -7  -2   2  293.65   22.04
  -7  -2   2  281.20   22.41
  -7  -2   2  247.03   21.84
   6   2  -2    4.24    1.89
   6   2  -2    3.16    1.92
   6   2  -2    3.64    0.95
   6   2  -2    3.93    1.16
   6   2  -2    4.93    1.23
  -6  -2   2    2.10    1.62
  -6  -2   2    2.98    1.20
  -6  -2   2    2.30    1.21
  -6  -2   2    4.16    1.43
   5   2  -2    6.54    1.10
   5   2  -2    6.28    1.05
   5   2  -2    4.78    1.58
   5   2  -2    4.82    1.82
   5   2  -2    5.90    1.13
  -5  -2   2    6.56    1.61
  -5  -2   2    4.80    1.23
  -5  -2   2    4.17    1.15
  -5  -2   2    5.38    1.21
   4   2  -2    3.36    0.76
   4   2  -2    3.54    1.51
   4   2  -2    3.38    0.67
   4   2  -2    3.36    0.76
   4   2  -2    2.01    1.23
  -4  -2   2    2.55    0.91
  -4  -2   2    2.71    0.91
  -4  -2   2    3.73    0.93
  -4  -2   2    2.62    0.85
  -4  -2   2    3.34    1.10
   3   2  -2  742.35   61.90
   3   2  -2  824.04   61.91
   3   2  -2  775.75   62.12
   3   2  -2  774.96   61.89
   3   2  -2  823.11   62.15
  -3  -2   2  781.93   61.92
  -3  -2   2  829.74   61.95
  -3  -2   2  826.24   62.11
  -3  -2   2  829.98   62.16
   2   2  -2   53.87    4.73
   2   2  -2   54.03    4.73
   2   2  -2   55.66    4.45
  -2  -2   2   50.98    4.50
  -2  -2   2   60.72    4.53
  -2  -2   2   54.75    4.69
  -2  -2   2   55.30    4.66
  -2  -2   2   55.24    4.50
   1   2  -2  713.66   53.79
   1   2  -2  727.32   53.75
  -1  -2   2  686.99   53.61
  -1  -2   2  651.44   53.75
   0   2  -2  487.30   38.13
   0   2  -2  450.54   38.23
   0   2  -2  525.46   38.22
   0  -2   2  506.83   38.22
   0  -2   2  478.84   38.22
   0  -2   2  515.42   38.14
  -1   2  -2 1163.64   99.60
   1  -2   2 1363.20  100.35
  -2   2  -2  799.15   57.50
   2  -2   2  807.77   57.53
   2  -2   2  625.25   57.57
  -3   2  -2    0.31    0.49
  -3   2  -2    0.00    0.58
  -3   2  -2    0.78    0.86
   3  -2   2    0.06    0.49
   3  -2   2    0.56    0.47
   3  -2   2    0.15    0.81
  -4   2  -2  136.33   11.15
  -4   2  -2  148.19   11.35
   4  -2   2  135.04   11.39
   4  -2   2  137.11   11.65
   4  -2   2  149.08   11.26
  -5   2  -2   31.39    3.27
  -5   2  -2   26.78    3.58
  -5   2  -2   35.06    3.11
   5  -2   2   37.94    3.76
   5  -2   2   33.56    3.13
   5  -2   2   33.97    3.29
  -6   2  -2   76.17    6.71
  -6   2  -2   82.06    6.97
   6  -2   2   76.52    6.80
   6  -2   2   82.73    7.38
   6  -2   2   83.16    7.00
  -7   2  -2  405.15   31.52
  -7   2  -2  379.12   31.21
   7  -2   2  431.48   31.53
   7  -2   2  388.78   31.54
   7  -2   2  391.15   32.20
  -8   2  -2   49.96    4.97
  -8   2  -2   57.11    5.87
   8  -2   2   53.79    5.57
   8  -2   2   58.43    5.58
  -9   2  -2   -3.37    2.38
   9  -2   2    2.11    1.72
   9  -2   2    2.40    2.19
   9  -2   2    0.55    2.40
  10  -2   2   39.47    6.02
  10  -2   2   37.02    4.64
  10   1  -2   50.14    5.05
  10   1  -2   42.60    5.15
  10   1  -2   35.27    6.05
 -10  -1   2   47.50    5.64
 -10  -1   2   50.83    7.98
   9   1  -2   74.08    6.57
   9   1  -2   74.83    6.91
   9   1  -2   58.86    6.99
  -9  -1   2   70.54    6.75
  -9  -1   2   70.81    8.09
   8   1  -2  182.19   14.46
   8   1  -2  149.01   14.70
   8   1  -2  150.43   14.58
   8   1  -2  206.78   14.49
  -8  -1   2  187.91   14.47
   7   1  -2  365.11   28.43
   7   1  -2  363.80   26.23
   7   1  -2  348.30   26.25
   7   1  -2  298.74   26.47
   7   1  -2  277.90   26.30
  -7  -1   2  299.06   26.10
  -7  -1   2  344.77   26.71
  -7  -1   2  364.53   26.32
   6   1  -2   44.31    4.04
   6   1  -2   45.37    3.94
   6   1  -2   34.25    4.03
   6   1  -2   42.85    4.58
   6   1  -2   44.35    4.85
  -6  -1   2   42.97    4.47
  -6  -1   2   39.36    4.09
  -6  -1   2   47.09    4.19
  -6  -1   2   44.11    4.21
   5   1  -2   80.76    7.29
   5   1  -2   80.10    6.91
   5   1  -2   96.48    6.93
   5   1  -2   84.46    7.34
   5   1  -2   68.35    6.93
  -5  -1   2   74.70    6.91
  -5  -1   2   88.74    7.08
  -5  -1   2   88.72    7.00
  -5  -1   2   88.20    7.31
   4   1  -2   30.62    2.52
   4   1  -2   27.85    3.15
   4   1  -2   23.46    2.56
   4   1  -2   26.75    2.96
   4   1  -2   28.22    2.56
  -4  -1   2   25.75    2.66
  -4  -1   2   30.11    2.68
  -4  -1   2   26.81    2.69
  -4  -1   2   25.85    2.82
   3   1  -2    5.64    1.16
   3   1  -2    4.99    0.87
   3   1  -2    4.81    1.20
   3   1  -2    7.46    0.85
   3   1  -2    5.25    0.87
  -3  -1   2    4.91    1.00
  -3  -1   2    7.13    0.98
  -3  -1   2    6.46    1.03
  -3  -1   2    5.29    1.08
   2   1  -2   18.15    1.91
   2   1  -2   16.82    1.53
   2   1  -2   17.27    1.91
   2   1  -2   14.99    1.49
   2   1  -2   17.47    1.52
  -2  -1   2   17.52    1.80
  -2  -1   2   17.67    1.81
  -2  -1   2   16.69    1.55
  -2  -1   2   17.28    1.57
   1   1  -2  215.55   16.33
   1   1  -2  226.49   16.20
   1   1  -2  218.07   16.23
   1   1  -2  202.12   16.41
  -1  -1   2  193.04   16.39
  -1  -1   2  201.39   16.23
  -1  -1   2  208.92   16.34
   0   1  -2  611.71   47.61
   0  -1   2  665.36   47.50
   0  -1   2  571.10   47.59
   1  -1   2  193.81   14.42
   1  -1   2  178.51   14.44
  -2   1  -2 1869.36  144.18
  -3   1  -2  889.14   78.15
  -3   1  -2  962.98   78.15
  -3   1  -2 1004.87   77.95
   3  -1   2 1133.90   78.05
   3  -1   2 1021.31   78.16
   3  -1   2 1029.04   77.92
   3  -1   2 1032.69   78.15
  -4   1  -2   29.91    3.35
  -4   1  -2   33.84    3.12
  -4   1  -2   35.33    2.99
   4  -1   2   30.89    2.92
   4  -1   2   34.70    3.48
   4  -1   2   35.88    3.04
   4  -1   2   36.54    3.15
  -5   1  -2   55.57    4.66
  -5   1  -2   52.98    4.47
  -5   1  -2   45.15    4.87
   5  -1   2   51.53    5.05
   5  -1   2   57.98    4.69
   5  -1   2   51.54    4.52
   5  -1   2   49.38    4.45
  -6   1  -2  116.66    9.86
  -6   1  -2  103.38   10.17
  -6   1  -2  128.50   10.10
   6  -1   2  115.82    9.87
   6  -1   2  126.28   10.48
   6  -1   2  138.88   10.17
   6  -1   2  124.29   10.00
  -7   1  -2   66.20    6.28
  -7   1  -2   78.53    6.60
   7  -1   2   65.84    6.32
   7  -1   2   82.05    6.52
   7  -1   2   76.49    6.48
   7  -1   2   62.00    6.81
  -8   1  -2  234.77   18.95
  -8   1  -2  225.35   18.52
   8  -1   2  203.29   18.59
   8  -1   2  251.78   19.04
   8  -1   2  254.93   19.01
  -9   1  -2   23.21    3.60
   9  -1   2   28.06    4.19
   9  -1   2   21.45    3.63
   9  -1   2   18.83    4.08
  10  -1   2    3.31    2.32
  10  -1   2   -2.75    2.48
  10  -1   2   -0.42    1.63
  10   0  -2   51.35    4.95
  10   0  -2   40.56    5.41
  10   0  -2   37.64    6.34
 -10   0   2   61.20    7.97
 -10   0   2   43.50    5.16
   9   0  -2    5.50    2.27
   9   0  -2    8.76    2.00
   9   0  -2    2.71    2.67
   9   0  -2    7.42    2.21
  -9   0   2    6.28    1.97
  -9   0   2    5.21    3.08
   8   0  -2   28.53    3.76
   8   0  -2   33.71    4.84
   8   0  -2   26.02    4.00
   8   0  -2   34.35    3.56
  -8   0   2   36.31    3.70
  -8   0   2   34.35    5.51
   7   0  -2    8.63    1.84
   7   0  -2   13.18    2.56
   7   0  -2   11.08    1.90
   7   0  -2    9.48    2.33
  -7   0   2    8.64    2.32
  -7   0   2   11.59    2.01
  -7   0   2   11.52    1.97
   6   0  -2  127.39   11.06
   6   0  -2  115.05   11.08
   6   0  -2  145.25   10.78
   6   0  -2  138.97   10.82
  -6   0   2  134.26   11.17
  -6   0   2  125.87   10.85
  -6   0   2  138.51   10.85
  -6   0   2  125.90   10.76
   5   0  -2   95.07    7.60
   5   0  -2   85.37    7.60
   5   0  -2   96.37    8.06
  -5   0   2   89.05    7.64
  -5   0   2  101.34    7.77
  -5   0   2   94.70    7.76
  -5   0   2   85.42    7.90
   4   0  -2   62.44    5.79
   4   0  -2   72.28    5.58
   4   0  -2   70.49    5.54
   4   0  -2   71.27    5.93
  -4   0   2   61.68    5.56
  -4   0   2   63.15    5.68
  -4   0   2   64.09    5.58
  -4   0   2   69.70    5.85
   3   0  -2 1640.26  135.55
   3   0  -2 1834.16  135.59
   3   0  -2 1778.78  135.44
  -3   0   2 1769.28  135.43
  -3   0   2 1737.14  135.41
  -3   0   2 1769.90  135.60
  -3   0   2 1762.74  135.56
   2   0  -2  787.37   63.74
   2   0  -2  848.68   63.70
   2   0  -2  827.26   63.61
  -2   0   2  782.07   63.73
  -2   0   2  838.87   63.59
  -2   0   2  853.58   63.62
  -2   0   2  829.25   63.72
   1   0  -2  353.54   27.03
   1   0  -2  328.96   26.99
   1   0  -2  380.65   26.99
   1   0  -2  334.44   27.15
  -1   0   2  346.30   27.01
  -1   0   2  364.57   26.99
  -1   0   2  354.57   27.06
  -1   0   2  331.30   27.15
   0   0  -2  207.44   17.40
   0   0   2  242.05   17.42
   1   0   2  249.60   18.18
   1   0   2  218.37   18.28
  -2   0  -2 1060.82   78.62
   2   0   2  975.13   78.77
  -3   0  -2  617.42   48.86
  -3   0  -2  635.30   49.02
  -3   0  -2  561.44   49.02
   3   0   2  655.30   49.03
   3   0   2  639.71   49.06
   3   0   2  660.69   48.94
   3   0   2  658.64   48.95
  -4   0  -2 1112.88   89.17
  -4   0  -2 1191.10   89.31
   4   0   2 1107.91   89.61
   4   0   2 1267.14   89.32
   4   0   2 1152.80   89.36
   4   0   2 1100.90   89.24
  -5   0  -2   39.78    3.57
  -5   0  -2   34.84    3.74
  -5   0  -2   35.92    3.42
   5   0   2   40.71    3.52
   5   0   2   36.23    3.44
   5   0   2   39.80    4.14
   5   0   2   38.62    3.61
  -6   0  -2    0.60    1.07
  -6   0  -2    0.38    1.04
  -6   0  -2    1.20    1.35
   6   0   2   -0.50    1.03
   6   0   2    0.01    1.19
   6   0   2    0.49    0.74
   6   0   2   -0.10    0.80
   6   0   2    2.31    1.91
  -7   0  -2    1.98    1.41
  -7   0  -2    0.32    1.46
   7   0   2   -3.63    1.87
   7   0   2    1.61    1.64
   7   0   2    1.60    1.66
   7   0   2    1.06    1.03
   7   0   2   -0.28    1.22
  -8   0  -2    0.10    1.34
  -8   0  -2   -1.39    1.91
   8   0   2    1.78    1.98
   8   0   2    0.56    1.59
   8   0   2    0.23    1.37
   8   0   2    3.49    1.74
  -9   0  -2    2.50    2.41
   9   0   2    0.92    2.36
   9   0   2    0.61    2.23
   9   0   2   -0.68    1.52
  10   0   2   63.49    7.85
  10   0   2   75.95    6.91
  10   0   2   77.29    7.38
  10  -1  -2    2.41    1.71
  10  -1  -2    2.63    2.94
  10  -1  -2    2.52    2.13
 -10   1   2    2.29    1.59
 -10   1   2    8.89    4.28
   9  -1  -2    6.96    2.43
   9  -1  -2    4.33    1.78
   9  -1  -2    7.42    2.30
  -9   1   2    6.03    3.29
  -9   1   2    4.66    1.67
   8  -1  -2  295.13   22.92
   8  -1  -2  291.45   22.99
   8  -1  -2  271.46   23.15
  -8   1   2  290.58   24.06
  -8   1   2  284.01   22.76
   7  -1  -2  304.53   24.63
   7  -1  -2  275.47   24.00
   7  -1  -2  328.83   23.95
   7  -1  -2  328.47   23.88
  -7   1   2  262.94   23.91
  -7   1   2  302.03   24.32
  -7   1   2  307.66   23.82
  -7   1   2  294.49   23.78
   6  -1  -2  124.30   10.60
   6  -1  -2  117.29   10.09
   6  -1  -2  134.86   10.12
   6  -1  -2  116.63   10.34
  -6   1   2  120.04   10.49
  -6   1   2  127.20   10.14
  -6   1   2  122.16   10.16
  -6   1   2  119.98   10.25
   5  -1  -2   88.11    6.81
   5  -1  -2   79.60    6.80
   5  -1  -2   75.34    7.02
   5  -1  -2   87.36    7.19
  -5   1   2   77.87    6.89
  -5   1   2   81.09    6.88
  -5   1   2   78.27    7.11
  -5   1   2   84.28    6.91
   4  -1  -2  163.87   14.06
   4  -1  -2  173.91   14.14
   4  -1  -2  179.06   13.92
   4  -1  -2  186.56   13.98
  -4   1   2  179.22   14.18
  -4   1   2  166.49   14.02
  -4   1   2  175.99   14.01
  -4   1   2  181.12   13.96
   3  -1  -2    1.21    0.58
   3  -1  -2    0.36    0.84
   3  -1  -2    0.87    0.45
  -3   1   2    1.26    0.68
  -3   1   2    1.24    0.73
  -3   1   2    0.41    0.68
  -3   1   2    1.52    0.62
   2  -1  -2    7.50    1.13
   2  -1  -2    7.65    1.01
  -2   1   2    8.41    1.23
  -2   1   2    7.27    1.11
  -2   1   2    9.16    0.98
  -2   1   2    7.18    1.20
   1  -1  -2  134.21   10.20
   1  -1  -2  126.63   10.24
   1  -1  -2  132.53   10.17
   1  -1  -2  125.99   10.24
  -1   1   2  135.51   10.26
  -1   1   2  135.23   10.29
  -1   1   2  127.41   10.18
   0  -1  -2 1618.19  134.61
   0   1   2 1826.68  134.95
  -1  -1  -2  738.56   54.11
   1   1   2  661.36   54.25
   1   1   2  704.95   54.10
  -2  -1  -2    4.27    0.64
  -2  -1  -2    2.71    0.65
  -2  -1  -2    2.53    0.74
  -2  -1  -2    3.92    0.65
   2   1   2    4.14    0.75
   2   1   2    1.93    0.61
   2   1   2    3.53    0.60
   2   1   2    2.87    0.74
  -3  -1  -2  844.10   70.37
  -3  -1  -2  842.26   70.25
  -3  -1  -2  983.93   70.37
   3   1   2  938.05   70.36
   3   1   2  898.51   70.46
   3   1   2  962.25   70.34
   3   1   2  791.23   70.57
   3   1   2 1022.75   70.43
  -4  -1  -2  504.56   42.72
  -4  -1  -2  557.53   42.87
  -4  -1  -2  528.79   42.92
   4   1   2  524.65   43.01
   4   1   2  610.14   42.91
   4   1   2  575.58   42.85
   4   1   2  561.12   42.90
  -5  -1  -2  350.90   29.22
  -5  -1  -2  405.88   29.19
  -5  -1  -2  392.43   29.11
   5   1   2  402.88   29.17
   5   1   2  374.30   29.36
   5   1   2  317.10   29.43
   5   1   2  357.61   29.10
   5   1   2  375.30   29.41
  -6  -1  -2    0.88    1.30
  -6  -1  -2   -0.06    1.03
  -6  -1  -2    0.59    1.08
   6   1   2   -0.55    0.80
   6   1   2    0.08    1.38
   6   1   2   -0.22    1.13
   6   1   2    0.43    0.77
   6   1   2   -2.59    1.75
  -7  -1  -2   57.45    5.64
  -7  -1  -2   65.50    5.88
   7   1   2   60.52    5.73
   7   1   2   61.38    6.20
   7   1   2   57.56    6.24
   7   1   2   71.43    5.80
  -8  -1  -2    2.43    1.41
  -8  -1  -2   -0.42    1.83
   8   1   2    1.77    1.41
   8   1   2    5.93    1.89
   8   1   2    1.26    2.02
   8   1   2   -1.28    1.93
  -9  -1  -2   25.86    3.74
   9   1   2   24.66    3.74
   9   1   2   32.56    4.28
   9   1   2   17.76    3.90
  10   1   2   44.12    5.27
  10   1   2   41.20    4.74
  10  -2  -2   -0.20    1.51
  10  -2  -2   -0.35    2.72
  10  -2  -2   -4.82    1.90
 -10   2   2    5.26    4.19
   9  -2  -2   10.39    2.55
   9  -2  -2   13.92    2.51
   9  -2  -2    8.43    2.66
  -9   2   2   11.50    1.86
  -9   2   2    9.35    3.50
   8  -2  -2    1.21    1.20
   8  -2  -2    0.58    1.59
   8  -2  -2   -0.58    1.57
  -8   2   2    1.57    1.14
   7  -2  -2   21.01    2.64
   7  -2  -2   21.88    2.83
  -7   2   2   18.49    3.21
  -7   2   2   20.76    2.78
  -7   2   2   20.28    3.48
  -7   2   2   24.53    2.75
   6  -2  -2    7.19    1.56
   6  -2  -2   11.84    2.29
   6  -2  -2   10.07    1.75
  -6   2   2   11.05    1.93
  -6   2   2    7.49    1.46
  -6   2   2    8.42    1.77
  -6   2   2    8.75    2.00
   5  -2  -2   19.49    2.89
   5  -2  -2   20.81    2.21
   5  -2  -2   20.62    2.15
  -5   2   2   16.78    2.42
  -5   2   2   21.69    2.76
  -5   2   2   21.84    2.56
  -5   2   2   20.34    2.36
   4  -2  -2  266.32   19.81
   4  -2  -2  256.94   19.60
   4  -2  -2  246.67   19.62
  -4   2   2  261.88   19.66
  -4   2   2  254.18   19.86
  -4   2   2  225.24   19.64
  -4   2   2  235.58   19.69
   3  -2  -2  889.19   62.45
   3  -2  -2  773.39   62.31
   3  -2  -2  820.20   62.30
  -3   2   2  832.86   62.35
  -3   2   2  781.15   62.44
  -3   2   2  805.36   62.48
  -3   2   2  737.16   62.32
   2  -2  -2 1949.42  160.56
   2  -2  -2 2121.37  160.62
  -2   2   2 2055.40  160.58
  -2   2   2 2206.50  160.69
   1  -2  -2 1386.04   99.67
   1  -2  -2 1239.28   99.67
  -1   2   2 1310.54   99.70
  -1   2   2 1234.10   99.70
   0  -2  -2  223.39   19.98
   0  -2  -2  255.44   19.88
   0   2   2  300.30   20.03
   0   2   2  241.91   19.95
   0   2   2  261.12   19.91
  -1  -2  -2   81.61    6.58
  -1  -2  -2   77.05    6.63
  -1  -2  -2   79.22    6.69
  -1  -2  -2   77.76    6.83
   1   2   2   97.41    6.65
   1   2   2   82.84    6.77
   1   2   2   93.57    6.81
  -2  -2  -2  307.39   24.35
  -2  -2  -2  320.95   24.37
  -2  -2  -2  352.18   24.48
   2   2   2  328.52   24.56
   2   2   2  314.00   24.36
   2   2   2  304.36   24.32
   2   2   2  271.57   24.52
  -3  -2  -2   19.69    2.04
  -3  -2  -2   22.11    2.17
  -3  -2  -2   22.21    2.14
   3   2   2   25.05    2.39
   3   2   2   18.06    2.49
   3   2   2   21.49    2.01
   3   2   2   22.64    1.97
   3   2   2   19.67    2.22
  -4  -2  -2  450.32   37.55
  -4  -2  -2  493.32   37.71
  -4  -2  -2  522.37   37.73
   4   2   2  525.79   37.84
   4   2   2  432.42   37.91
   4   2   2  458.97   37.62
   4   2   2  488.95   37.91
   4   2   2  501.56   37.63
  -5  -2  -2   -0.32    0.99
  -5  -2  -2    2.24    1.06
  -5  -2  -2    1.21    0.98
   5   2   2    2.95    1.72
   5   2   2    1.25    0.99
   5   2   2   -0.38    1.18
   5   2   2    1.89    0.67
   5   2   2    1.35    0.71
  -6  -2  -2    1.03    1.18
  -6  -2  -2   -0.68    1.12
  -6  -2  -2    0.00    1.29
   6   2   2    0.33    1.17
   6   2   2    1.09    1.59
   6   2   2   -0.88    0.88
   6   2   2    0.47    0.77
   6   2   2    6.34    2.00
  -7  -2  -2   58.89    5.46
  -7  -2  -2   54.91    5.64
   7   2   2   52.18    6.36
   7   2   2   61.65    5.63
   7   2   2   66.27    5.50
   7   2   2   54.54    6.13
  -8  -2  -2    2.73    1.54
  -8  -2  -2   -1.63    1.96
   8   2   2    3.20    2.17
   8   2   2    3.76    1.83
   8   2   2    1.74    1.45
   8   2   2    1.24    2.27
  -9  -2  -2   23.81    3.86
   9   2   2   33.03    4.83
   9   2   2   27.99    3.82
   9   2   2   29.51    4.56
  10   2   2    6.40    2.99
  10   2   2    3.11    1.70
  10  -3  -2    7.32    1.97
  10  -3  -2    5.70    2.36
  10  -3  -2    5.10    3.22
 -10   3   2   10.12    4.55
   9  -3  -2   15.32    2.55
   9  -3  -2   13.80    2.71
   9  -3  -2    8.18    2.98
  -9   3   2   17.40    3.89
  -9   3   2   13.22    1.91
   8  -3  -2   13.05    2.30
   8  -3  -2   12.39    2.34
  -8   3   2   10.39    3.19
  -8   3   2   14.50    2.33
   7  -3  -2  160.98   13.64
   7  -3  -2  181.92   13.68
  -7   3   2  159.83   13.62
  -7   3   2  166.32   14.18
  -7   3   2  161.62   13.46
   6  -3  -2  275.42   21.85
   6  -3  -2  308.13   21.88
   6  -3  -2  275.27   22.03
  -6   3   2  277.51   21.83
  -6   3   2  270.99   21.78
  -6   3   2  229.12   21.89
  -6   3   2  288.79   22.28
   5  -3  -2  106.46    8.33
   5  -3  -2  103.93    8.39
   5  -3  -2   97.23    8.57
  -5   3   2  100.87    8.41
  -5   3   2  101.54    8.67
  -5   3   2  102.17    8.46
  -5   3   2   92.44    8.53
   4  -3  -2  354.17   26.93
   4  -3  -2  340.65   26.79
   4  -3  -2  343.12   26.76
  -4   3   2  305.89   26.83
  -4   3   2  348.17   27.02
  -4   3   2  378.31   26.86
  -4   3   2  325.53   26.87
   3  -3  -2  238.67   19.18
   3  -3  -2  235.56   19.13
   3  -3  -2  247.72   19.27
  -3   3   2  246.97   19.36
  -3   3   2  253.13   19.23
   2  -3  -2   10.59    1.27
   2  -3  -2   12.26    1.32
   2  -3  -2    9.75    1.19
   2  -3  -2   11.75    1.44
  -2   3   2    7.70    1.28
  -2   3   2   12.36    1.55
  -2   3   2   11.24    1.46
   1  -3  -2  693.80   56.99
   1  -3  -2  817.95   57.08
   1  -3  -2  742.73   57.05
  -1   3   2  750.31   57.09
  -1   3   2  683.47   57.07
   0  -3  -2 1700.67  125.02
   0  -3  -2 1542.96  125.09
  -1  -3  -2    4.88    0.87
  -1  -3  -2    6.22    1.19
  -1  -3  -2    6.03    0.70
  -1  -3  -2    5.84    0.85
   1   3   2    6.34    0.93
   1   3   2    5.29    1.09
   1   3   2    4.18    0.69
  -2  -3  -2   69.89    5.84
  -2  -3  -2   81.77    6.08
  -2  -3  -2   63.29    6.19
  -2  -3  -2   72.92    5.92
   2   3   2   69.18    5.85
   2   3   2   72.14    6.22
   2   3   2   74.45    6.06
   2   3   2   81.15    6.22
  -3  -3  -2  202.84   17.76
  -3  -3  -2  212.67   17.77
  -3  -3  -2  244.39   17.93
   3   3   2  258.39   18.10
   3   3   2  227.39   17.77
   3   3   2  227.47   18.11
   3   3   2  222.93   17.71
   3   3   2  222.11   18.01
  -4  -3  -2   67.86    5.99
  -4  -3  -2   75.28    6.08
  -4  -3  -2   62.09    5.91
   4   3   2   74.60    6.30
   4   3   2   68.49    6.46
   4   3   2   70.50    6.21
   4   3   2   78.78    5.94
   4   3   2   70.67    5.83
  -5  -3  -2   20.98    2.53
  -5  -3  -2   21.17    2.50
  -5  -3  -2   13.76    2.90
  -5  -3  -2   16.66    2.45
   5   3   2   15.73    2.93
   5   3   2   19.13    3.07
   5   3   2   21.83    2.11
   5   3   2   23.20    2.71
   5   3   2   19.03    2.25
  -6  -3  -2  136.90   11.98
  -6  -3  -2  145.94   11.96
  -6  -3  -2  134.52   11.80
   6   3   2  142.55   12.31
   6   3   2  167.47   11.95
   6   3   2  136.06   12.38
   6   3   2  141.26   12.28
   6   3   2  153.65   11.80
  -7  -3  -2    5.39    1.89
  -7  -3  -2    6.27    1.62
   7   3   2    4.92    2.41
   7   3   2    6.10    2.04
   7   3   2    4.16    1.29
  -8  -3  -2  118.59   10.51
   8   3   2  121.65   10.18
   8   3   2  118.41   10.92
   8   3   2  116.56   10.37
  -9  -3  -2    3.44    4.25
   9   3   2    1.49    2.23
   9   3   2    3.18    1.82
   9   3   2    2.67    2.41
  10  -4  -2   15.23    2.59
  10  -4  -2   11.35    3.76
  10  -4  -2   18.13    3.06
 -10   4   2   22.87    4.70
   9  -4  -2   26.28    3.88
   9  -4  -2   28.91    3.89
  -9   4   2   24.81    2.99
  -9   4   2   30.98    5.28
   8  -4  -2    1.68    1.90
   8  -4  -2    0.97    1.38
  -8   4   2    7.59    2.99
  -8   4   2   -0.54    0.99
   7  -4  -2    0.05    1.19
   7  -4  -2   -1.34    1.45
  -7   4   2    0.30    2.23
  -7   4   2   -0.49    1.06
   6  -4  -2    1.64    1.05
   6  -4  -2   -1.22    1.52
   6  -4  -2   -0.90    1.09
  -6   4   2   -2.78    1.63
  -6   4   2    0.02    1.22
  -6   4   2    0.80    1.07
  -6   4   2    0.12    1.41
   5  -4  -2   10.11    1.63
   5  -4  -2    9.05    1.63
   5  -4  -2   16.51    2.44
  -5   4   2    6.88    1.52
  -5   4   2    9.07    1.81
  -5   4   2   10.24    1.92
  -5   4   2   10.39    2.02
   4  -4  -2   -0.43    0.53
   4  -4  -2    0.12    1.14
  -4   4   2   -0.18    1.08
  -4   4   2   -0.40    0.78
  -4   4   2    0.47    0.97
  -4   4   2   -0.57    0.94
   3  -4  -2  344.57   26.53
   3  -4  -2  330.32   26.46
   3  -4  -2  330.91   26.56
  -3   4   2  329.82   26.66
  -3   4   2  358.76   26.59
   2  -4  -2   44.53    3.83
   2  -4  -2   44.22    3.78
   2  -4  -2   43.91    3.80
   2  -4  -2   38.23    3.64
  -2   4   2   43.53    3.94
  -2   4   2   45.21    3.89
   1  -4  -2    1.92    0.79
   1  -4  -2    1.86    0.66
   1  -4  -2    1.13    0.46
  -1   4   2    2.27    0.68
  -1   4   2    0.42    0.87
  -1   4   2    1.32    0.59
   0  -4  -2   28.11    2.50
   0  -4  -2   21.99    2.35
   0  -4  -2   24.61    2.27
   0   4   2   24.71    2.71
   0   4   2   25.94    2.45
   0   4   2   24.44    2.31
  -1  -4  -2 1055.59   77.64
  -1  -4  -2  905.54   77.72
  -1  -4  -2  965.19   77.84
   1   4   2  981.21   77.74
   1   4   2  995.65   77.96
   1   4   2 1136.25   77.99
  -2  -4  -2  503.34   38.75
  -2  -4  -2  465.70   38.28
  -2  -4  -2  499.20   38.49
   2   4   2  469.08   38.34
   2   4   2  467.71   38.64
   2   4   2  500.22   38.56
   2   4   2  557.90   38.67
  -3  -4  -2    6.16    1.20
  -3  -4  -2    4.21    1.39
  -3  -4  -2    5.34    1.02
  -3  -4  -2    4.07    1.08
   3   4   2    5.38    1.41
   3   4   2    5.67    1.65
   3   4   2    3.93    0.99
   3   4   2    4.44    0.82
  -4  -4  -2  448.12   36.75
  -4  -4  -2  507.18   36.94
  -4  -4  -2  436.54   36.73
   4   4   2  444.06   37.15
   4   4   2  489.29   36.75
   4   4   2  505.84   37.13
  -5  -4  -2  112.32    9.61
  -5  -4  -2  108.23    9.56
  -5  -4  -2  112.03    9.66
   5   4   2  121.42    9.42
   5   4   2  114.24   10.18
   5   4   2  131.39    9.98
   5   4   2  116.65    9.51
   5   4   2  107.21   10.00
  -6  -4  -2   27.23    3.54
  -6  -4  -2   22.93    3.39
  -6  -4  -2   29.11    3.66
   6   4   2   33.21    3.34
   6   4   2   27.09    3.86
   6   4   2   30.88    3.04
  -7  -4  -2   18.13    3.09
  -7  -4  -2   23.60    3.68
   7   4   2   23.64    3.68
   7   4   2   22.20    3.37
  -8  -4  -2   16.33    3.49
   8   4   2   29.11    4.04
   8   4   2   20.55    4.07
   8   4   2   20.87    3.32
  -9  -4  -2   -0.64    2.66
   9   4   2    6.31    1.95
   9   4   2    1.76    2.10
   9   4   2    1.69    2.18
   9  -5  -2   14.19    2.91
   9  -5  -2   13.57    2.71
  -9   5   2   16.22    4.53
   8  -5  -2  103.83    8.30
   8  -5  -2  101.49    8.52
  -8   5   2   80.41    9.26
  -8   5   2   74.27    7.47
   7  -5  -2   59.12    5.52
  -7   5   2   61.50    6.42
  -7   5   2   49.39    5.13
   6  -5  -2   -0.90    0.98
   6  -5  -2   -0.49    1.28
  -6   5   2    0.97    1.11
  -6   5   2    0.24    1.78
  -6   5   2    1.18    1.49
   5  -5  -2   10.75    2.00
   5  -5  -2   14.83    2.03
   5  -5  -2   12.33    2.21
   5  -5  -2   14.35    2.09
  -5   5   2   12.98    2.05
  -5   5   2   13.07    2.43
  -5   5   2   11.90    2.01
  -5   5   2    7.97    2.07
   4  -5  -2   26.72    3.17
   4  -5  -2   22.93    2.97
   4  -5  -2   28.95    2.86
   4  -5  -2   26.41    2.69
  -4   5   2   28.73    3.16
  -4   5   2   23.01    3.16
   3  -5  -2   31.05    3.00
   3  -5  -2   30.62    3.10
   3  -5  -2   27.13    2.89
   3  -5  -2   27.47    2.74
  -3   5   2   24.68    3.05
  -3   5   2   30.30    3.23
   2  -5  -2  470.89   38.23
   2  -5  -2  480.96   38.18
   2  -5  -2  536.26   38.30
  -2   5   2  484.15   38.30
  -2   5   2  479.85   38.32
   1  -5  -2   63.75    5.24
   1  -5  -2   64.24    5.10
   1  -5  -2   54.19    5.15
  -1   5   2   59.73    5.18
   0  -5  -2  108.39    8.29
   0  -5  -2  105.56    8.22
   0  -5  -2   91.88    8.03
   0   5   2   99.48    8.29
   0   5   2  100.83    8.43
   0   5   2   94.21    8.11
  -1  -5  -2   58.30    5.40
  -1  -5  -2   54.34    5.22
  -1  -5  -2   69.39    5.20
  -1  -5  -2   59.46    4.97
   1   5   2   58.36    5.59
   1   5   2   68.48    5.55
   1   5   2   69.29    5.40
   1   5   2   54.21    5.08
  -2  -5  -2  280.17   22.39
  -2  -5  -2  249.29   22.58
  -2  -5  -2  276.37   22.88
  -2  -5  -2  323.11   22.59
   2   5   2  273.17   22.47
   2   5   2  304.44   22.83
   2   5   2  277.97   22.87
   2   5   2  314.66   22.77
  -3  -5  -2   60.74    5.32
  -3  -5  -2   54.75    5.88
  -3  -5  -2   64.15    5.51
   3   5   2   57.53    5.27
   3   5   2   68.98    5.88
   3   5   2   72.84    5.65
   3   5   2   65.03    6.09
  -4  -5  -2   28.48    3.26
  -4  -5  -2   28.43    3.03
  -4  -5  -2   26.67    3.23
  -4  -5  -2   24.48    3.52
   4   5   2   28.11    3.97
   4   5   2   32.78    3.67
   4   5   2   32.67    3.21
   4   5   2   26.93    2.80
  -5  -5  -2   35.69    4.22
  -5  -5  -2   31.96    4.04
  -5  -5  -2   39.91    4.22
   5   5   2   47.68    4.37
   5   5   2   43.97    3.84
  -6  -5  -2    5.75    1.95
  -6  -5  -2    7.22    1.70
  -6  -5  -2    4.29    1.62
   6   5   2    9.57    2.12
   6   5   2    8.12    1.70
  -7  -5  -2    4.63    2.26
   7   5   2    0.31    1.81
   7   5   2    1.90    1.67
  -8  -5  -2   -1.82    2.84
   8   5   2   -0.81    1.93
   8   5   2    2.41    2.17
   9  -6  -2    6.82    2.28
   9  -6  -2    8.43    2.41
  -9   6   2   11.50    4.35
   8  -6  -2    5.17    2.37
   8  -6  -2    1.37    1.99
  -8   6   2    2.12    1.23
  -8   6   2   -3.03    3.07
   7  -6  -2   24.50    3.74
   7  -6  -2   22.89    3.42
  -7   6   2   15.68    2.80
   6  -6  -2  225.41   17.59
   6  -6  -2  243.47   17.57
  -6   6   2  193.28   18.28
  -6   6   2  195.78   17.39
   5  -6  -2   28.74    3.45
   5  -6  -2   31.74    3.64
   5  -6  -2   33.32    3.40
  -5   6   2   27.99    3.61
  -5   6   2   30.13    4.11
   4  -6  -2   38.67    3.86
   4  -6  -2   33.89    3.87
   4  -6  -2   39.12    3.71
   4  -6  -2   39.49    3.95
  -4   6   2   42.70    4.37
  -4   6   2   35.88    3.94
   3  -6  -2   67.99    5.67
   3  -6  -2   53.90    5.32
   3  -6  -2   61.20    5.51
   3  -6  -2   64.61    5.49
  -3   6   2   62.43    5.76
  -3   6   2   63.58    5.75
   2  -6  -2   57.63    4.79
   2  -6  -2   48.96    4.62
   2  -6  -2   51.65    4.74
  -2   6   2   49.36    4.82
   1  -6  -2   99.81    7.94
   1  -6  -2   95.96    7.76
   1  -6  -2   90.43    7.90
  -1   6   2   93.24    8.17
  -1   6   2   92.18    7.92
   0  -6  -2   79.21    6.98
   0  -6  -2   92.35    7.13
   0  -6  -2   80.23    6.82
   0   6   2   88.25    7.38
   0   6   2   78.20    6.92
   0   6   2   78.93    7.09
  -1  -6  -2  135.66   11.09
  -1  -6  -2  132.34   11.43
  -1  -6  -2  149.81   11.31
  -1  -6  -2  136.00   11.58
   1   6   2  144.98   11.56
   1   6   2  138.29   11.32
   1   6   2  140.53   11.80
   1   6   2  147.57   11.63
  -2  -6  -2  206.50   16.81
  -2  -6  -2  217.25   16.49
  -2  -6  -2  181.49   17.03
  -2  -6  -2  199.74   16.64
   2   6   2  226.46   16.66
   2   6   2  234.48   17.08
   2   6   2  203.27   17.11
  -3  -6  -2  153.25   12.18
  -3  -6  -2  132.27   12.43
  -3  -6  -2  141.77   12.06
  -3  -6  -2  152.24   11.88
   3   6   2  147.57   12.51
   3   6   2  152.26   12.40
   3   6   2  158.82   11.96
  -4  -6  -2 1061.69   82.44
  -4  -6  -2  936.55   82.48
   4   6   2 1044.97   82.47
   4   6   2 1215.28   82.89
  -5  -6  -2    7.06    1.63
  -5  -6  -2    4.53    1.71
  -5  -6  -2   10.66    2.37
   5   6   2    8.13    1.97
   5   6   2    8.53    1.65
  -6  -6  -2   -0.82    2.07
   6   6   2    2.99    1.58
   6   6   2   -0.11    1.58
  -7  -6  -2   -0.61    2.63
   7   6   2   -1.59    1.84
   7   6   2    0.92    1.82
  -8  -6  -2   24.94    4.40
   8   6   2   25.63    3.87
   8   6   2   30.84    4.18
   8  -7  -2   12.32    2.84
   8  -7  -2   16.81    3.11
  -8   7   2   13.41    4.22
   7  -7  -2   25.62    3.67
   7  -7  -2   25.71    3.83
  -7   7   2   20.61    3.34
  -7   7   2   27.45    4.58
   6  -7  -2   98.64    9.17
   6  -7  -2   97.38    8.67
  -6   7   2   92.70    8.51
  -6   7   2   94.72    9.23
   5  -7  -2   90.30    7.83
   5  -7  -2   90.16    7.73
  -5   7   2   79.84    8.29
   4  -7  -2   68.44    6.25
   4  -7  -2   68.31    6.03
  -4   7   2   63.00    6.56
   3  -7  -2   31.20    3.53
   3  -7  -2   38.72    3.69
   3  -7  -2   32.49    3.74
   3  -7  -2   32.55    3.38
  -3   7   2   34.26    3.98
   2  -7  -2   24.71    3.03
   2  -7  -2   27.29    2.86
   2  -7  -2   24.72    2.65
   2  -7  -2   18.79    2.58
  -2   7   2   24.58    3.13
  -2   7   2   31.07    3.62
   1  -7  -2   71.08    6.12
   1  -7  -2   63.08    6.14
   1  -7  -2   63.66    5.83
  -1   7   2   74.99    6.38
  -1   7   2   69.92    6.13
  -1   7   2   72.69    6.46
   0  -7  -2  213.84   16.95
   0  -7  -2  223.29   16.97
   0  -7  -2  195.61   16.64
   0   7   2  199.85   17.03
   0   7   2  211.18   17.17
   0   7   2  194.37   16.83
   0   7   2  236.21   17.07
  -1  -7  -2    1.13    0.77
  -1  -7  -2    2.29    1.10
  -1  -7  -2    1.74    1.40
  -1  -7  -2    2.69    1.26
   1   7   2    2.60    1.10
   1   7   2    2.75    1.71
   1   7   2    2.15    1.38
   1   7   2    5.80    1.39
  -2  -7  -2  432.48   33.47
  -2  -7  -2  385.20   33.19
  -2  -7  -2  391.84   33.03
   2   7   2  475.99   33.63
   2   7   2  440.22   33.30
  -3  -7  -2   91.39    7.99
  -3  -7  -2   96.75    8.19
  -3  -7  -2   92.05    8.40
   3   7   2   96.62    8.11
   3   7   2  110.05    9.63
  -4  -7  -2  121.30   11.12
  -4  -7  -2  134.02   11.54
   4   7   2  159.12   11.74
   4   7   2  135.86   11.27
  -5  -7  -2   38.88    4.52
   5   7   2   45.36    4.61
   5   7   2   53.66    5.15
   6   7   2   72.42    7.05
   6   7   2   67.00    6.54
   7   7   2   46.07    5.09
   7   7   2   38.34    4.80
   8  -8  -2   59.82    6.35
   8  -8  -2   63.64    6.83
  -8   8   2   52.61    7.75
   7  -8  -2    3.00    2.52
   7  -8  -2    2.02    2.26
  -7   8   2    1.42    3.29
   6  -8  -2  197.19   14.72
   6  -8  -2  177.16   14.80
  -6   8   2  166.07   15.28
  -6   8   2  155.52   14.57
   5  -8  -2   40.25    4.94
   5  -8  -2   45.76    4.83
  -5   8   2   36.91    5.49
   4  -8  -2   91.09    7.62
   4  -8  -2   81.97    7.30
  -4   8   2   69.80    7.79
   3  -8  -2   13.20    2.37
   3  -8  -2    8.32    1.71
  -3   8   2   11.44    2.47
   2  -8  -2  226.20   18.58
   1  -8  -2   26.04    3.04
   1  -8  -2   34.20    3.79
  -1   8   2   31.52    3.60
   0  -8  -2  110.70    8.91
   0   8   2   89.67    8.84
   0   8   2  107.56    8.86
  -1  -8  -2    1.11    0.87
  -1  -8  -2    3.12    1.63
  -2  -8  -2   30.62    3.78
  -2  -8  -2   27.48    2.93
   2   8   2   31.46    3.64
   2   8   2   26.14    3.30
  -3  -8  -2    1.83    2.07
  -3  -8  -2    5.32    1.17
   3   8   2    5.40    1.61
   3   8   2    5.66    1.67
  -4  -8  -2   -0.23    1.15
  -4  -8  -2    0.88    1.97
   4   8   2    1.51    1.48
   4   8   2    0.73    1.44
  -5  -8  -2   67.80    7.80
   5   8   2   72.47    7.22
   5   8   2   94.84    7.73
  -6  -8  -2  163.28   15.85
   6   8   2  203.42   15.84
   6   8   2  189.82   15.41
   7  -9  -2   13.24    2.80
   7  -9  -2   16.91    3.55
  -7   9   2    9.22    3.75
  -6   9   2   13.59    2.97
  -6   9   2   11.26    3.70
   5  -9  -2    4.84    2.22
   5  -9  -2    5.06    2.25
  -5   9   2   -3.03    2.90
   4  -9  -2  117.77   10.31
   4  -9  -2  118.42   10.59
  -4   9   2  118.83   11.08
   3  -9  -2    1.24    1.90
   3  -9  -2   -0.07    1.44
  -3   9   2    2.07    2.36
   2  -9  -2   27.38    3.99
   2  -9  -2   22.21    3.22
  -2   9   2   33.35    4.45
   1  -9  -2  147.41   12.31
  -1   9   2  142.22   12.31
   0  -9  -2   40.12    4.83
   0   9   2   46.46    4.80
   0   9   2   38.15    4.61
  -1  -9  -2    9.34    2.30
  -1  -9  -2    6.76    1.23
   1   9   2   13.41    2.27
   1   9   2   10.53    2.20
  -2  -9  -2   20.12    3.09
  -2  -9  -2   14.97    2.61
   2   9   2   22.14    3.20
   2   9   2   17.66    3.12
  -3  -9  -2   70.79    7.41
   3   9   2   78.27    7.32
   3   9   2   76.88    7.09
  -4  -9  -2  232.16   20.15
   4   9   2  267.02   20.24
   4   9   2  234.43   19.79
  -5  -9  -2   32.98    4.99
   5   9   2   46.24    4.68
   5   9   2   40.32    4.65
   6 -10  -2   -5.85    2.67
   6 -10  -2    0.40    2.56
   5 -10  -2   13.93    2.77
   5 -10  -2   16.01    3.35
  -5  10   2   12.66    3.66
   4 -10  -2   47.31    5.61
   4 -10  -2   50.49    5.72
  -4  10   2   41.40    5.87
   3 -10  -2   30.11    4.47
   3 -10  -2   28.95    4.84
  -3  10   2   35.19    4.96
   2 -10  -2   -0.69    1.53
  -2  10   2    0.97    2.78
   1 -10  -2    0.49    2.16
   1 -10  -2    0.56    1.45
  -1  10   2    4.65    2.46
   0 -10  -2   79.24    7.33
   0  10   2   86.35    8.04
  -1 -10  -2    6.52    2.70
   1  10   2    3.11    2.22
   1  10   2    6.81    2.11
  -2 -10  -2   97.86    8.19
   2  10   2   66.38    7.44
   2  10   2   79.07    7.66
  -3 -10  -2    8.11    3.06
   3  10   2    7.45    2.07
   3  10   2    6.39    2.00
  -4 -10  -2   49.35    6.31
   4  10   2   52.15    5.17
   4  10   2   38.69    4.86
   4 -11  -2   61.91    6.79
   4 -11  -2   60.40    6.82
  -4  11   2   61.92    7.56
   3 -11  -2   23.77    3.61
  -3  11   2   32.98    5.00
   2 -11  -2   43.85    5.88
   2 -11  -2   66.60    6.47
  -2  11   2   61.54    6.63
   1 -11  -2    2.12    2.18
   1 -11  -2    4.33    2.43
  -1  11   2    3.62    2.42
   0 -11  -2  106.11    9.58
   0  11   2   98.58    9.46
  -1 -11  -2   97.62    8.19
   1  11   2   65.88    7.67
   1  11   2   82.93    7.58
  -2 -11  -2   21.07    3.51
   2  11   2   16.22    3.25
   2  11   2   10.26    2.54
   2  12  -3   -0.36    2.40
   1  12  -3    7.74    2.95
  -1 -12   3    1.39    2.23
   0  12  -3   13.27    4.08
   0 -12   3   19.53    3.04
  -1  12  -3   33.22    4.86
   1 -12   3   31.03    4.02
   1 -12   3   20.25    4.38
  -2  12  -3   22.96    5.04
   2 -12   3   19.04    4.08
   2 -12   3   20.52    3.51
   4  11  -3    2.87    1.99
   4  11  -3   -2.15    1.87
   3  11  -3   79.93    8.16
  -3 -11   3   91.47    8.31
   2  11  -3    2.19    2.31
  -2 -11   3    0.03    2.22
   1  11  -3  197.32   15.96
  -1 -11   3  176.85   15.75
   0  11  -3   20.65    4.01
   0 -11   3   19.36    3.52
  -1  11  -3  162.33   13.59
   1 -11   3  139.75   12.96
  -2  11  -3    3.19    3.28
   2 -11   3    0.75    2.60
   2 -11   3    3.62    2.26
  -3  11  -3  198.67   15.64
   3 -11   3  184.06   14.78
   3 -11   3  141.75   15.05
  -4  11  -3   29.75    5.13
   4 -11   3   17.56    3.87
   4 -11   3   27.68    4.06
   6  10  -3    6.37    2.16
   6  10  -3    8.75    2.32
  -6 -10   3    1.29    2.99
   5  10  -3   69.49    6.92
   5  10  -3   71.83    7.29
  -5 -10   3   83.52    8.01
   4  10  -3   36.56    4.63
   4  10  -3   38.52    5.03
  -4 -10   3   46.47    5.87
   3  10  -3    4.98    2.08
   3  10  -3    2.93    2.08
   2  10  -3   90.47    8.26
  -2 -10   3   87.81    8.48
   1  10  -3  120.45    9.89
  -1 -10   3  100.24    9.84
   0  10  -3  181.32   14.32
   0 -10   3  155.77   14.12
  -1  10  -3  360.93   28.11
   1 -10   3  338.32   28.01
  -2  10  -3   25.88    3.79
  -2  10  -3   23.19    3.98
   2 -10   3   22.58    4.06
   2 -10   3   28.87    4.23
  -3  10  -3    1.21    2.56
   3 -10   3    0.53    2.02
   3 -10   3    3.71    2.26
  -4  10  -3    6.01    2.98
   4 -10   3    5.83    2.59
   4 -10   3    7.06    2.57
  -5  10  -3    6.28    3.81
   5 -10   3    4.70    2.82
   5 -10   3    5.60    2.74
  -6  10  -3   11.11    3.46
   6 -10   3    7.48    2.62
   6 -10   3    0.73    2.40
   7   9  -3   28.53    4.44
   7   9  -3   27.80    3.84
  -7  -9   3   31.60    4.65
   6   9  -3   36.13    4.23
   6   9  -3   37.28    4.93
  -6  -9   3   36.68    5.66
   5   9  -3   -1.38    1.58
   5   9  -3    3.64    1.84
  -5  -9   3    2.50    2.57
   4   9  -3    6.85    2.08
   4   9  -3    7.77    1.90
  -4  -9   3    8.66    2.65
   3   9  -3    0.09    1.38
   3   9  -3   -1.16    1.42
  -3  -9   3   -2.66    1.83
   2   9  -3  114.42    9.99
  -2  -9   3  122.12   10.51
   1   9  -3   15.97    2.52
  -1  -9   3    9.72    2.34
   0   9  -3    3.77    2.17
   0   9  -3    3.10    1.83
   0  -9   3    8.35    1.89
  -1   9  -3   69.26    6.49
  -1   9  -3   77.34    6.96
  -1   9  -3   57.81    6.40
   1  -9   3   64.79    6.39
  -2   9  -3   68.02    6.55
  -2   9  -3   62.13    6.80
  -2   9  -3   64.91    6.48
   2  -9   3   75.80    6.60
  -3   9  -3   71.18    7.33
  -3   9  -3   71.11    6.68
  -3   9  -3   82.87    7.30
   3  -9   3   64.71    7.15
   3  -9   3   85.61    7.17
  -4   9  -3   13.33    2.83
  -4   9  -3   16.75    3.06
   4  -9   3   14.68    2.66
   4  -9   3   10.92    2.65
  -5   9  -3   -1.27    4.23
   5  -9   3    3.49    2.45
   5  -9   3    2.19    2.22
  -6   9  -3    7.88    3.41
   6  -9   3    1.54    2.50
   6  -9   3    9.24    2.93
   7  -9   3   40.09    5.06
   7  -9   3   33.74    5.40
   8   8  -3   20.75    3.98
  -8  -8   3   21.80    3.98
   7   8  -3  113.99    9.47
   7   8  -3  112.58    9.95
  -7  -8   3   94.55   10.37
   6   8  -3   41.75    4.46
   6   8  -3   44.46    4.82
  -6  -8   3   38.67    5.16
  -6  -8   3   33.06    5.15
   5   8  -3   50.11    5.28
   5   8  -3   55.02    5.13
  -5  -8   3   52.00    6.24
  -5  -8   3   59.34    6.06
   4   8  -3   76.26    6.64
   4   8  -3   70.52    6.96
  -4  -8   3   69.13    7.38
  -4  -8   3   84.55    7.19
   3   8  -3  169.86   15.49
   3   8  -3  211.19   15.37
   2   8  -3    2.85    2.39
   2   8  -3    6.86    1.57
   2   8  -3    6.57    2.42
   2   8  -3    5.97    1.63
  -2  -8   3    6.11    2.05
  -2  -8   3    5.61    1.52
   1   8  -3  137.62   12.38
   1   8  -3  146.91   11.94
   1   8  -3  128.00   12.16
  -1  -8   3  150.79   12.22
  -1  -8   3  158.78   12.05
   0   8  -3   -0.75    1.06
   0   8  -3    0.87    1.82
   0   8  -3    1.40    1.96
   0  -8   3    0.47    1.08
   0  -8   3    1.19    1.07
   0  -8   3    1.18    1.14
  -1   8  -3   56.66    5.51
  -1   8  -3   54.19    6.05
  -1   8  -3   59.46    5.79
   1  -8   3   56.68    5.51
   1  -8   3   65.43    5.51
   1  -8   3   58.84    5.76
  -2   8  -3    9.89    2.56
  -2   8  -3    8.41    1.99
  -2   8  -3    9.97    1.95
   2  -8   3    7.22    1.77
   2  -8   3    5.20    1.72
  -3   8  -3   28.89    3.48
  -3   8  -3   35.83    4.28
  -3   8  -3   21.84    3.44
   3  -8   3   30.89    3.55
   3  -8   3   22.15    3.55
  -4   8  -3    5.22    1.18
  -4   8  -3    5.95    1.93
  -4   8  -3    4.32    2.04
   4  -8   3    0.91    1.76
  -5   8  -3  163.16   14.64
  -5   8  -3  185.94   14.57
   5  -8   3  199.25   14.77
   5  -8   3  157.19   14.82
  -6   8  -3    1.12    2.60
   6  -8   3   -0.79    2.05
   6  -8   3    4.93    2.31
  -7   8  -3   62.54    7.48
   7  -8   3   78.65    7.43
   7  -8   3   68.39    7.41
   8  -8   3   43.45    5.51
   8  -8   3   41.07    5.67
   8   7  -3   48.93    5.80
   8   7  -3   44.15    4.87
  -8  -7   3   51.51    6.74
  -8  -7   3   42.71    5.86
   7   7  -3  199.48   15.97
   7   7  -3  199.00   16.20
  -7  -7   3  177.68   16.83
  -7  -7   3  202.61   16.58
   6   7  -3   14.84    2.32
   6   7  -3   17.39    2.94
  -6  -7   3   16.89    3.03
  -6  -7   3   21.17    3.58
   5   7  -3  217.69   17.22
   5   7  -3  212.70   17.42
  -5  -7   3  227.86   17.75
  -5  -7   3  202.40   17.84
   4   7  -3  415.00   32.14
   4   7  -3  433.17   32.40
  -4  -7   3  453.73   32.61
  -4  -7   3  392.94   32.63
  -4  -7   3  358.06   32.43
   3   7  -3 2097.65  159.23
   3   7  -3 2045.98  159.77
   3   7  -3 1900.02  159.69
   3   7  -3 1889.89  159.39
  -3  -7   3 1995.69  159.26
  -3  -7   3 2352.72  159.63
  -3  -7   3 2079.76  159.63
  -3  -7   3 2150.31  159.54
  -3  -7   3 2048.74  159.25
   2   7  -3  646.93   48.84
   2   7  -3  542.30   48.95
   2   7  -3  600.27   49.26
   2   7  -3  596.92   49.23
  -2  -7   3  722.84   49.13
  -2  -7   3  689.39   49.05
  -2  -7   3  619.55   49.12
  -2  -7   3  602.86   48.78
   1   7  -3  322.22   25.35
   1   7  -3  296.41   25.60
   1   7  -3  314.05   25.74
  -1  -7   3  312.94   25.23
  -1  -7   3  362.25   25.51
  -1  -7   3  319.03   25.57
  -1  -7   3  326.28   25.44
   0   7  -3   50.45    4.80
   0   7  -3   49.38    5.23
   0   7  -3   51.81    5.51
   0  -7   3   59.46    4.77
   0  -7   3   55.85    4.96
  -1   7  -3  184.51   15.51
  -1   7  -3  197.07   15.74
  -1   7  -3  174.58   15.39
   1  -7   3  195.54   15.57
   1  -7   3  182.40   15.49
   1  -7   3  221.59   15.39
  -2   7  -3    1.22    1.05
  -2   7  -3    2.19    1.58
   2  -7   3   -0.13    1.07
   2  -7   3    1.30    1.09
  -3   7  -3  114.72    9.89
  -3   7  -3  117.44    9.69
  -3   7  -3  134.17   10.19
   3  -7   3   97.40   10.04
   3  -7   3  132.41    9.96
   3  -7   3  139.60    9.93
   3  -7   3  101.72    9.99
  -4   7  -3   68.71    5.76
  -4   7  -3   54.26    4.71
  -4   7  -3   53.80    5.35
   4  -7   3   47.38    5.60
   4  -7   3   58.00    5.28
  -5   7  -3  528.75   43.93
  -5   7  -3  608.33   43.96
   5  -7   3  590.34   44.03
   5  -7   3  515.96   44.21
  -6   7  -3   38.69    4.66
  -6   7  -3   39.66    5.12
   6  -7   3   43.84    5.15
   6  -7   3   49.22    4.99
  -7   7  -3  441.88   37.17
   7  -7   3  494.13   37.65
   7  -7   3  475.86   37.39
   8  -7   3  124.45   11.07
   8  -7   3  124.53   11.45
   9   6  -3  240.89   20.20
   9   6  -3  279.56   20.81
  -9  -6   3  222.95   21.04
  -9  -6   3  250.85   20.74
   8   6  -3    7.48    2.05
   8   6  -3    8.44    2.40
  -8  -6   3    9.10    3.47
  -8  -6   3    5.77    2.60
   7   6  -3  239.64   20.07
   7   6  -3  262.58   20.26
  -7  -6   3  268.78   20.65
  -7  -6   3  228.23   20.78
   6   6  -3   61.58    6.22
   6   6  -3   80.15    6.50
  -6  -6   3   60.89    7.01
  -6  -6   3   78.11    6.93
   5   6  -3  724.21   62.18
   5   6  -3  860.31   62.44
  -5  -6   3  763.44   62.74
  -5  -6   3  858.92   62.70
   4   6  -3  151.80   11.27
   4   6  -3  130.08   11.81
   4   6  -3  127.59   11.74
   4   6  -3  138.78   11.03
  -4  -6   3  147.40   11.18
  -4  -6   3  128.77   11.56
  -4  -6   3  128.80   11.13
  -4  -6   3  157.56   11.56
  -4  -6   3  117.13   11.33
   3   6  -3  203.78   18.30
   3   6  -3  225.85   17.75
   3   6  -3  207.79   18.37
   3   6  -3  236.14   17.96
  -3  -6   3  210.75   17.83
  -3  -6   3  245.09   18.14
  -3  -6   3  239.92   17.88
  -3  -6   3  221.60   18.17
  -3  -6   3  228.78   18.05
   2   6  -3  155.31   12.41
   2   6  -3  154.90   12.97
   2   6  -3  147.88   12.57
   2   6  -3  130.40   12.78
  -2  -6   3  156.47   12.45
  -2  -6   3  173.88   12.66
  -2  -6   3  149.94   12.72
  -2  -6   3  173.28   12.70
   1   6  -3    6.85    1.40
   1   6  -3    7.98    2.01
   1   6  -3    7.64    1.72
   1   6  -3   10.01    1.38
  -1  -6   3   12.37    1.52
  -1  -6   3    7.25    1.41
  -1  -6   3   10.21    1.69
  -1  -6   3   10.28    1.50
   0   6  -3  248.00   20.72
   0   6  -3  276.26   21.05
   0   6  -3  235.27   20.88
   0  -6   3  277.82   20.95
   0  -6   3  254.73   20.66
   0  -6   3  290.73   20.90
  -1   6  -3  299.67   22.47
  -1   6  -3  259.85   22.28
  -1   6  -3  277.88   22.24
   1  -6   3  300.48   22.44
   1  -6   3  277.47   22.32
  -2   6  -3  314.99   24.06
  -2   6  -3  333.21   24.29
  -2   6  -3  315.27   24.15
   2  -6   3  264.78   24.23
   2  -6   3  308.61   24.18
  -3   6  -3   17.45    2.11
  -3   6  -3   22.82    2.86
  -3   6  -3   19.85    2.40
   3  -6   3   19.89    2.57
   3  -6   3   21.14    2.32
   3  -6   3   16.83    2.54
  -4   6  -3   29.69    3.28
   4  -6   3   29.28    3.41
   4  -6   3   29.42    3.57
   4  -6   3   30.87    3.18
  -5   6  -3  281.24   22.78
  -5   6  -3  310.11   22.79
   5  -6   3  266.24   23.05
   5  -6   3  284.84   22.78
   5  -6   3  288.60   22.84
  -6   6  -3  407.65   33.98
  -6   6  -3  460.65   33.91
   6  -6   3  422.43   34.34
   6  -6   3  434.00   34.07
  -7   6  -3  142.64   12.57
   7  -6   3  158.68   12.78
   7  -6   3  144.95   12.87
  -8   6  -3  122.31   11.22
   8  -6   3  137.17   11.78
   8  -6   3  134.85   11.81
   9  -6   3   33.52    4.89
   9  -6   3   50.60    5.77
   9   5  -3   24.12    3.74
   9   5  -3   28.19    4.61
  -9  -5   3   21.65    4.65
  -9  -5   3   19.96    3.82
   8   5  -3   98.50    8.62
   8   5  -3   88.77    8.35
  -8  -5   3   93.85    9.49
  -8  -5   3   93.62    8.94
   7   5  -3    7.34    1.80
   7   5  -3    9.47    1.94
  -7  -5   3   10.92    2.46
  -7  -5   3    7.52    2.73
   6   5  -3  181.39   15.68
   6   5  -3  225.42   15.91
  -6  -5   3  182.90   16.34
  -6  -5   3  189.33   16.12
   5   5  -3   68.89    5.87
   5   5  -3   63.78    6.64
   5   5  -3   60.59    6.75
  -5  -5   3   74.85    6.05
  -5  -5   3   75.12    6.48
  -5  -5   3   64.31    6.05
  -5  -5   3   69.08    6.61
   4   5  -3    1.45    1.92
   4   5  -3   -0.59    1.68
   4   5  -3   -0.29    0.60
   4   5  -3    0.88    0.70
  -4  -5   3   -0.63    0.82
  -4  -5   3    1.26    1.17
  -4  -5   3    1.19    1.14
  -4  -5   3    2.07    1.12
  -4  -5   3    0.15    0.97
   3   5  -3  229.07   19.87
   3   5  -3  240.31   19.39
   3   5  -3  232.11   19.88
   3   5  -3  260.57   19.55
  -3  -5   3  259.45   19.67
  -3  -5   3  238.64   19.75
  -3  -5   3  271.76   19.54
  -3  -5   3  260.48   19.74
  -3  -5   3  229.36   19.47
   2   5  -3  335.84   29.51
   2   5  -3  388.46   29.20
   2   5  -3  381.33   29.33
   2   5  -3  358.26   29.53
  -2  -5   3  396.80   29.44
  -2  -5   3  343.39   29.18
  -2  -5   3  429.23   29.39
  -2  -5   3  362.03   29.45
   1   5  -3  331.95   26.59
   1   5  -3  357.69   26.31
   1   5  -3  314.45   26.53
  -1  -5   3  339.47   26.43
  -1  -5   3  375.77   26.41
  -1  -5   3  323.39   26.24
  -1  -5   3  314.56   26.45
   0   5  -3  162.20   13.00
   0   5  -3  154.42   12.92
   0   5  -3  154.06   12.73
   0  -5   3  166.15   12.71
   0  -5   3  172.75   12.82
   0  -5   3  162.93   12.91
   0  -5   3  154.76   12.84
  -1   5  -3    3.75    1.17
  -1   5  -3    4.76    0.90
  -1   5  -3    3.81    1.03
   1  -5   3    3.39    0.99
   1  -5   3    5.46    1.02
  -2   5  -3    1.88    0.74
  -2   5  -3    1.37    0.72
  -2   5  -3    3.22    1.10
   2  -5   3    2.09    0.91
   2  -5   3    2.39    0.73
   2  -5   3    2.23    0.95
  -3   5  -3    2.38    0.60
  -3   5  -3    1.99    0.86
  -3   5  -3    2.31    1.11
   3  -5   3    1.01    0.92
   3  -5   3    3.60    1.16
   3  -5   3    1.42    0.75
  -4   5  -3    5.63    1.20
   4  -5   3    3.83    1.20
   4  -5   3    2.90    0.92
   4  -5   3    5.01    1.43
  -5   5  -3   69.73    5.82
  -5   5  -3   61.84    5.72
   5  -5   3   60.02    5.89
   5  -5   3   65.28    5.64
   5  -5   3   60.10    5.93
  -6   5  -3   20.32    2.93
   6  -5   3   18.64    2.74
  -7   5  -3   23.10    3.60
   7  -5   3   24.85    3.58
   7  -5   3   20.11    3.46
  -8   5  -3  134.80   11.85
   8  -5   3  146.76   12.37
   8  -5   3  144.42   12.43
   9  -5   3    1.35    2.85
   9  -5   3    1.32    1.96
  10   4  -3    4.16    2.19
  10   4  -3    3.07    2.64
 -10  -4   3    1.10    2.84
 -10  -4   3    0.59    3.68
   9   4  -3    1.01    1.88
   9   4  -3    3.70    2.15
  -9  -4   3    0.89    3.35
  -9  -4   3   -0.11    2.67
   8   4  -3   16.32    2.75
  -8  -4   3   24.32    3.87
  -8  -4   3   20.48    4.10
   7   4  -3   67.56    6.64
   7   4  -3   82.83    6.78
  -7  -4   3   77.81    7.09
  -7  -4   3   65.11    7.83
   6   4  -3  697.92   62.72
   6   4  -3  737.83   62.80
   6   4  -3  888.52   62.38
  -6  -4   3  894.95   62.73
  -6  -4   3  819.06   62.48
  -6  -4   3  863.01   62.90
  -6  -4   3  713.55   62.34
   5   4  -3   67.05    7.17
   5   4  -3   83.78    6.44
   5   4  -3   69.64    6.32
   5   4  -3   70.93    7.08
  -5  -4   3   84.22    6.58
  -5  -4   3   81.54    6.82
  -5  -4   3   67.55    6.46
  -5  -4   3   74.40    6.94
   4   4  -3  141.27   10.68
   4   4  -3  126.74   11.20
   4   4  -3  119.29   11.18
  -4  -4   3  141.38   10.83
  -4  -4   3  129.95   11.09
  -4  -4   3  118.77   10.74
  -4  -4   3  154.61   11.11
   3   4  -3    3.99    1.45
   3   4  -3    1.81    0.56
   3   4  -3    3.42    0.70
   3   4  -3    1.85    1.30
  -3  -4   3    4.09    0.87
  -3  -4   3    3.00    0.88
  -3  -4   3    3.11    0.97
  -3  -4   3    3.33    1.07
  -3  -4   3    1.27    0.87
   2   4  -3   65.54    5.40
   2   4  -3   66.98    5.31
   2   4  -3   57.65    5.73
   2   4  -3   59.47    6.01
  -2  -4   3   66.99    5.38
  -2  -4   3   65.60    5.61
  -2  -4   3   70.90    5.61
   1   4  -3  317.27   27.13
   1   4  -3  348.94   27.15
   1   4  -3  359.71   26.93
  -1  -4   3  346.22   27.09
  -1  -4   3  369.99   27.00
  -1  -4   3  348.03   26.90
  -1  -4   3  333.10   27.10
   0   4  -3    1.90    0.95
   0   4  -3    2.66    0.58
   0   4  -3    1.86    0.83
   0  -4   3    4.00    0.83
   0  -4   3    4.22    0.68
   0  -4   3    2.82    0.74
   0  -4   3    2.41    0.66
  -1   4  -3    0.04    0.74
  -1   4  -3    1.25    0.53
  -1   4  -3    0.23    0.61
   1  -4   3    0.59    0.58
   1  -4   3    0.63    0.42
  -2   4  -3  175.38   15.13
  -2   4  -3  191.84   15.27
  -2   4  -3  209.88   15.30
   2  -4   3  201.32   15.29
   2  -4   3  192.38   15.30
  -3   4  -3 1249.62   90.65
  -3   4  -3 1135.03   90.69
   3  -4   3 1143.53   90.67
   3  -4   3 1164.85   90.74
  -4   4  -3  330.30   27.18
  -4   4  -3  390.14   27.15
   4  -4   3  347.72   27.18
   4  -4   3  294.83   27.36
   4  -4   3  373.26   27.36
  -5   4  -3  288.70   22.13
   5  -4   3  273.81   22.10
   5  -4   3  290.31   22.36
   5  -4   3  267.28   22.35
  -6   4  -3    0.02    1.23
  -6   4  -3    0.03    1.28
   6  -4   3    0.38    1.16
   6  -4   3   -2.73    1.61
   6  -4   3    0.32    1.23
  -7   4  -3   38.49    3.86
  -7   4  -3   27.97    3.42
   7  -4   3   35.44    4.00
   7  -4   3   27.36    3.91
   8  -4   3   16.88    3.06
   8  -4   3   13.10    2.74
   9  -4   3   10.54    2.30
   9  -4   3    8.10    3.06
   9  -4   3    4.98    3.06
  10   3  -3   31.91    3.84
  10   3  -3   20.74    3.34
  10   3  -3   27.07    5.29
 -10  -3   3   25.39    4.22
   9   3  -3  101.13    8.79
   9   3  -3  105.98    9.23
   9   3  -3   91.63    8.95
  -9  -3   3  105.40    9.50
  -9  -3   3   89.48   10.28
   8   3  -3   65.88    6.09
   8   3  -3   66.62    6.32
   8   3  -3   61.61    6.19
  -8  -3   3   64.38    7.34
   7   3  -3  301.57   23.79
   7   3  -3  303.16   23.85
   7   3  -3  306.94   23.91
  -7  -3   3  302.75   24.04
  -7  -3   3  281.51   24.30
   6   3  -3  258.51   18.92
   6   3  -3  238.26   18.81
   6   3  -3  218.68   19.29
   6   3  -3  209.51   19.23
   6   3  -3  273.44   18.88
  -6  -3   3  240.49   19.30
  -6  -3   3  243.48   19.11
  -6  -3   3  203.48   18.80
  -6  -3   3  237.10   18.91
   5   3  -3   25.75    3.77
   5   3  -3   35.08    3.05
   5   3  -3   32.22    2.98
   5   3  -3   29.06    4.05
  -5  -3   3   32.78    3.21
  -5  -3   3   29.70    3.37
  -5  -3   3   28.90    3.15
  -5  -3   3   32.78    3.58
   4   3  -3  384.54   33.19
   4   3  -3  390.51   33.16
   4   3  -3  478.83   32.90
   4   3  -3  413.49   32.82
  -4  -3   3  432.87   33.23
  -4  -3   3  385.24   32.87
  -4  -3   3  470.56   32.98
  -4  -3   3  414.83   33.11
   3   3  -3   51.06    5.43
   3   3  -3   52.10    5.30
   3   3  -3   62.58    4.83
  -3  -3   3   70.01    5.01
  -3  -3   3   52.15    4.93
  -3  -3   3   51.70    4.90
  -3  -3   3   64.78    5.24
  -3  -3   3   63.94    5.19
   2   3  -3 1621.18  122.83
   2   3  -3 1625.01  122.75
  -2  -3   3 1492.73  122.53
  -2  -3   3 1590.35  122.77
  -2  -3   3 1616.69  122.77
   1   3  -3  173.82   12.15
   1   3  -3  151.26   12.31
   1   3  -3  141.33   12.37
  -1  -3   3  168.87   12.20
  -1  -3   3  142.99   12.29
  -1  -3   3  148.51   12.33
  -1  -3   3  156.47   12.13
   0   3  -3  157.58   11.69
   0   3  -3  140.85   11.74
   0  -3   3  154.02   11.56
   0  -3   3  125.77   11.64
   0  -3   3  151.97   11.70
   0  -3   3  158.90   11.71
  -1   3  -3  683.49   51.40
  -1   3  -3  667.11   51.38
  -1   3  -3  603.29   51.41
   1  -3   3  653.71   51.39
   1  -3   3  659.15   51.38
   1  -3   3  724.19   51.47
  -2   3  -3 1478.11  108.01
  -2   3  -3 1421.66  108.04
  -2   3  -3 1252.12  107.90
   2  -3   3 1371.85  108.04
   2  -3   3 1480.62  108.10
  -3   3  -3  885.00   65.10
  -3   3  -3  916.27   65.04
   3  -3   3  745.73   65.30
   3  -3   3  814.67   65.18
   3  -3   3  846.53   65.10
  -4   3  -3  611.72   44.78
   4  -3   3  577.44   44.77
   4  -3   3  546.30   45.00
   4  -3   3  570.62   44.92
  -5   3  -3   59.81    5.44
  -5   3  -3   61.26    5.31
   5  -3   3   66.82    5.73
   5  -3   3   66.76    5.94
   5  -3   3   62.98    5.42
  -6   3  -3    2.55    1.65
  -6   3  -3    5.15    1.28
  -6   3  -3    6.51    1.37
   6  -3   3    4.62    1.99
  -7   3  -3  108.94    8.98
  -7   3  -3  104.64    8.78
   7  -3   3  100.71    9.21
   7  -3   3  111.67    9.18
  -8   3  -3   -2.37    1.43
   8  -3   3   -0.09    2.43
   8  -3   3    2.56    1.94
   8  -3   3    0.05    1.58
   9  -3   3    5.41    2.56
   9  -3   3    3.67    2.06
   9  -3   3    1.86    2.65
  10   2  -3   74.82    6.83
  10   2  -3   64.65    7.87
  10   2  -3   71.75    6.91
 -10  -2   3   76.06    9.00
 -10  -2   3   69.46    7.92
   9   2  -3   84.91    7.46
   9   2  -3   79.83    7.69
  -9  -2   3   81.58    9.06
  -9  -2   3   79.75    7.94
   8   2  -3   60.21    6.42
   8   2  -3   74.85    6.24
   8   2  -3   64.51    6.33
  -8  -2   3   69.49    7.47
  -8  -2   3   69.61    6.58
   7   2  -3  761.31   63.38
   7   2  -3  816.29   63.32
   7   2  -3  901.07   63.35
  -7  -2   3  765.02   63.73
  -7  -2   3  822.02   63.50
   6   2  -3  368.97   33.81
   6   2  -3  421.43   33.59
   6   2  -3  454.95   33.57
   6   2  -3  469.58   33.54
   6   2  -3  408.17   33.88
  -6  -2   3  448.90   33.64
  -6  -2   3  392.40   33.51
  -6  -2   3  437.72   33.98
  -6  -2   3  447.25   33.78
   5   2  -3  159.67   13.36
   5   2  -3  174.76   13.38
   5   2  -3  181.73   13.37
   5   2  -3  150.89   13.76
   5   2  -3  161.40   13.79
  -5  -2   3  169.68   13.44
  -5  -2   3  177.17   13.66
  -5  -2   3  160.00   13.40
  -5  -2   3  168.32   13.75
   4   2  -3    3.55    0.68
   4   2  -3    2.96    1.39
   4   2  -3    3.38    0.71
   4   2  -3    2.88    0.73
   4   2  -3    5.28    1.59
  -4  -2   3    2.73    0.91
  -4  -2   3    4.45    0.93
  -4  -2   3    5.91    1.24
  -4  -2   3    1.92    0.82
  -4  -2   3    4.31    1.05
   3   2  -3 1392.06  109.94
   3   2  -3 1450.32  109.89
   3   2  -3 1369.84  109.63
  -3  -2   3 1318.31  109.66
  -3  -2   3 1544.28  109.75
  -3  -2   3 1417.39  109.92
  -3  -2   3 1456.75  109.93
   2   2  -3   99.08    8.13
   2   2  -3  101.44    7.90
   2   2  -3   93.79    8.25
  -2  -2   3   93.46    7.93
  -2  -2   3  100.54    8.15
  -2  -2   3  105.11    7.93
  -2  -2   3   92.25    8.16
  -2  -2   3  113.46    8.01
   1   2  -3   11.36    1.65
   1   2  -3   13.35    1.21
   1   2  -3   12.20    1.48
  -1  -2   3   10.90    1.50
  -1  -2   3   13.14    1.22
  -1  -2   3   14.68    1.22
   0   2  -3 1050.27   80.79
   0   2  -3 1118.85   80.59
   0  -2   3 1026.22   80.66
   0  -2   3  987.26   80.77
  -1   2  -3  112.17    9.56
   1  -2   3  109.49    9.53
   1  -2   3  136.40    9.52
   1  -2   3  127.73    9.51
   2  -2   3  603.72   41.82
   2  -2   3  564.97   41.73
   2  -2   3  527.75   41.64
   2  -2   3  463.13   41.92
  -3   2  -3  547.26   41.41
   3  -2   3  593.97   41.64
   3  -2   3  513.43   41.46
   3  -2   3  488.43   41.68
  -4   2  -3   16.70    2.50
  -4   2  -3   21.28    2.17
  -4   2  -3   23.21    2.05
   4  -2   3   25.57    2.39
   4  -2   3   22.04    2.14
  -5   2  -3   16.07    1.96
  -5   2  -3   11.66    2.19
  -5   2  -3   14.90    1.76
   5  -2   3   16.12    1.85
   5  -2   3   18.03    2.12
   5  -2   3   13.88    2.28
  -6   2  -3    7.55    1.75
  -6   2  -3    5.59    1.37
  -6   2  -3    8.04    1.34
   6  -2   3    8.16    2.25
   6  -2   3    9.66    1.56
   6  -2   3    5.44    1.36
  -7   2  -3    4.92    2.00
  -7   2  -3    6.96    1.53
   7  -2   3    7.21    2.67
   7  -2   3    3.52    1.49
   7  -2   3    4.50    2.25
  -8   2  -3   46.66    4.79
   8  -2   3   49.09    5.31
   8  -2   3   51.58    5.26
  -9   2  -3   10.37    2.75
   9  -2   3    9.04    3.11
   9  -2   3   11.31    2.88
   9  -2   3    6.75    2.17
  10  -2   3   50.02    5.68
  10  -2   3   48.71    6.98
  10  -2   3   57.85    6.29
  10   1  -3   28.39    4.00
  10   1  -3   22.83    3.32
  10   1  -3   14.36    3.61
 -10  -1   3   16.01    4.52
 -10  -1   3   18.66    3.55
   9   1  -3    0.44    2.40
   9   1  -3   -1.43    1.84
   9   1  -3    3.91    1.72
  -9  -1   3    4.67    2.11
  -9  -1   3   -2.56    2.89
   8   1  -3   28.66    4.33
   8   1  -3   25.91    3.09
   8   1  -3   21.73    3.48
   8   1  -3   26.10    3.43
  -8  -1   3   28.74    3.72
  -8  -1   3   21.14    3.90
   7   1  -3   10.55    2.04
   7   1  -3   16.20    2.12
   7   1  -3   13.86    2.88
   7   1  -3   13.38    2.31
  -7  -1   3   15.81    2.75
  -7  -1   3   12.21    2.17
  -7  -1   3   15.32    2.33
   6   1  -3  271.33   20.61
   6   1  -3  226.09   20.57
   6   1  -3  270.00   21.02
   6   1  -3  245.65   20.89
  -6  -1   3  249.87   20.56
  -6  -1   3  274.28   21.04
  -6  -1   3  280.04   20.81
  -6  -1   3  262.78   20.64
   5   1  -3  145.80   12.77
   5   1  -3  168.91   12.45
   5   1  -3  164.05   12.48
   5   1  -3  130.40   12.42
   5   1  -3  157.61   12.87
  -5  -1   3  165.38   12.73
  -5  -1   3  147.66   12.48
  -5  -1   3  158.16   12.52
  -5  -1   3  164.45   12.86
   4   1  -3  422.02   33.46
   4   1  -3  462.60   33.47
   4   1  -3  432.82   33.73
   4   1  -3  376.59   33.71
  -4  -1   3  433.52   33.72
  -4  -1   3  453.95   33.51
  -4  -1   3  403.27   33.48
  -4  -1   3  455.33   33.79
   3   1  -3 1042.98   80.31
   3   1  -3 1094.48   80.24
   3   1  -3 1114.57   80.04
   3   1  -3  886.54   79.95
   3   1  -3  964.11   80.01
  -3  -1   3 1023.17   80.05
  -3  -1   3 1038.89   80.26
  -3  -1   3 1035.85   80.28
  -3  -1   3 1128.65   80.06
   2   1  -3 1770.80  137.05
   2   1  -3 1830.92  136.91
  -2  -1   3 1822.83  136.95
  -2  -1   3 1679.07  136.78
  -2  -1   3 1771.05  137.02
   1   1  -3 2778.20  214.18
   0   1  -3    4.16    0.82
   0  -1   3    4.32    0.85
   1  -1   3   28.76    2.54
   2  -1   3   73.66    5.48
   2  -1   3   71.09    5.38
   2  -1   3   59.23    5.56
  -3   1  -3  864.20   63.39
  -3   1  -3  782.42   63.35
   3  -1   3  883.86   63.44
   3  -1   3  782.88   63.67
   3  -1   3  820.75   63.50
   3  -1   3  797.54   63.60
  -4   1  -3  315.71   23.30
  -4   1  -3  290.59   23.17
   4  -1   3  313.88   23.53
   4  -1   3  283.24   23.21
   4  -1   3  285.14   23.51
   4  -1   3  304.35   23.35
  -5   1  -3   32.07    3.95
  -5   1  -3   36.47    3.32
  -5   1  -3   41.23    3.52
   5  -1   3   40.05    3.44
   5  -1   3   38.22    4.08
   5  -1   3   38.98    3.52
   5  -1   3   41.02    3.70
  -6   1  -3   17.90    2.91
  -6   1  -3   17.07    2.20
  -6   1  -3   21.54    2.42
   6  -1   3   23.10    2.49
   6  -1   3   18.10    2.36
   6  -1   3   23.31    3.51
   6  -1   3   15.19    2.26
  -7   1  -3  120.71   10.71
  -7   1  -3  128.87   10.20
   7  -1   3  136.07   10.47
   7  -1   3  116.18   10.76
   7  -1   3  121.03   10.33
   7  -1   3  117.07   10.11
  -8   1  -3    6.67    1.57
   8  -1   3    8.83    1.98
   8  -1   3    5.81    1.60
   8  -1   3    2.42    2.50
   8  -1   3    7.58    2.02
  -9   1  -3    1.38    1.69
   9  -1   3    3.88    2.56
   9  -1   3    7.55    2.55
   9  -1   3    1.71    1.88
  10  -1   3   29.63    5.70
  10  -1   3   37.96    5.18
  10  -1   3   34.70    4.48
  10   0  -3   56.17    5.36
  10   0  -3   39.26    6.42
  10   0  -3   47.34    5.41
 -10   0   3   48.14    5.77
 -10   0   3   55.08    7.70
   9   0  -3    1.41    1.48
   9   0  -3    1.32    1.87
  -9   0   3    1.71    1.90
  -9   0   3    3.57    3.00
   8   0  -3   95.17   10.37
   8   0  -3  116.19    9.99
   8   0  -3  128.18    9.96
  -8   0   3  122.23   11.00
  -8   0   3  122.12   10.10
   7   0  -3  245.04   21.23
   7   0  -3  252.08   21.76
   7   0  -3  281.93   20.98
   7   0  -3  293.21   20.92
  -7   0   3  251.46   20.83
  -7   0   3  226.34   20.91
  -7   0   3  260.75   21.40
  -7   0   3  282.72   21.07
   6   0  -3   69.10    6.80
   6   0  -3   73.06    6.93
   6   0  -3   80.57    6.28
   6   0  -3   71.90    6.31
  -6   0   3   73.64    6.85
  -6   0   3   68.20    6.40
  -6   0   3   72.90    6.39
  -6   0   3   74.45    6.53
   5   0  -3  200.26   16.71
   5   0  -3  208.71   16.42
   5   0  -3  205.03   16.70
   5   0  -3  228.50   16.40
  -5   0   3  195.66   16.41
  -5   0   3  203.64   16.72
  -5   0   3  209.14   16.62
  -5   0   3  202.07   16.44
   4   0  -3   -0.14    0.48
   4   0  -3    2.66    1.21
   4   0  -3    0.30    1.10
   4   0  -3   -0.19    0.35
   4   0  -3   -0.30    0.56
  -4   0   3   -0.41    0.71
  -4   0   3   -0.07    0.81
  -4   0   3   -0.15    0.71
  -4   0   3   -0.05    0.58
   3   0  -3   31.72    2.63
   3   0  -3   29.49    3.10
   3   0  -3   35.37    3.07
   3   0  -3   28.67    2.68
  -3   0   3   30.08    2.94
  -3   0   3   31.01    2.68
  -3   0   3   28.16    2.75
  -3   0   3   29.21    2.95
   2   0  -3   50.43    4.29
   2   0  -3   56.88    4.13
   2   0  -3   49.03    4.46
   2   0  -3   48.10    4.14
  -2   0   3   46.83    4.40
  -2   0   3   52.32    4.21
  -2   0   3   53.15    4.13
  -2   0   3   49.79    4.31
   1   0  -3   16.02    1.39
   1   0  -3   13.34    1.33
  -1   0   3   17.27    1.36
  -1   0   3   14.33    1.74
  -1   0   3   15.69    1.42
  -1   0   3   15.15    1.51
  -1   0   3   16.84    1.26
   0   0   3  521.43   40.30
   1   0   3   87.54    7.34
   1   0   3   94.44    7.23
   2   0   3  241.26   19.55
   2   0   3  259.88   19.49
  -3   0  -3  117.80    9.66
   3   0   3  114.15    9.93
   3   0   3  135.55    9.84
   3   0   3  129.50    9.94
  -4   0  -3    2.38    0.60
  -4   0  -3    3.33    0.70
  -4   0  -3    2.27    0.98
   4   0   3    2.24    0.65
   4   0   3    1.70    0.91
   4   0   3    2.78    0.71
   4   0   3    2.38    0.80
   4   0   3    2.01    1.25
  -5   0  -3  201.83   15.99
  -5   0  -3  225.68   16.14
  -5   0  -3  178.83   16.37
   5   0   3  171.35   16.60
   5   0   3  208.39   16.18
   5   0   3  223.79   16.23
   5   0   3  221.00   16.32
   5   0   3  201.24   16.49
  -6   0  -3   66.49    5.44
  -6   0  -3   53.71    5.91
  -6   0  -3   69.94    5.56
   6   0   3   62.47    6.38
   6   0   3   51.35    6.13
   6   0   3   65.99    5.63
   6   0   3   65.51    5.75
   6   0   3   73.29    5.74
  -7   0  -3   39.69    3.78
  -7   0  -3   39.10    3.78
   7   0   3   44.52    4.02
   7   0   3   32.52    4.22
   7   0   3   28.57    4.91
   7   0   3   26.87    4.76
   7   0   3   41.00    3.95
  -8   0  -3   -0.60    1.31
   8   0   3    0.40    1.67
   8   0   3    2.51    1.65
   8   0   3   -0.73    2.11
   8   0   3   -1.03    1.40
  -9   0  -3    2.29    1.91
   9   0   3    3.13    2.66
   9   0   3    8.13    2.66
   9   0   3    4.22    1.96
  10   0   3  117.96    9.80
  10   0   3   92.50   10.35
  10  -1  -3    3.86    2.22
  10  -1  -3    2.54    2.78
  10  -1  -3    3.09    1.86
 -10   1   3    2.85    3.55
 -10   1   3   -1.38    1.84
   9  -1  -3    0.15    1.44
   9  -1  -3    0.16    3.16
   9  -1  -3   -0.32    1.86
  -9   1   3   -0.22    1.75
  -9   1   3   -1.16    2.97
   8  -1  -3   40.27    4.74
   8  -1  -3   49.43    4.62
  -8   1   3   41.66    4.69
  -8   1   3   49.59    5.99
   7  -1  -3   62.24    5.61
   7  -1  -3   69.52    5.48
   7  -1  -3   58.54    6.26
  -7   1   3   54.59    5.58
  -7   1   3   56.12    6.26
  -7   1   3   54.03    5.52
  -7   1   3   62.47    5.65
   6  -1  -3  383.97   28.03
   6  -1  -3  347.59   28.30
   6  -1  -3  376.60   28.10
   6  -1  -3  348.71   28.32
  -6   1   3  354.78   28.17
  -6   1   3  339.90   28.08
  -6   1   3  368.87   28.47
  -6   1   3  330.65   28.01
   5  -1  -3  131.65    9.75
   5  -1  -3  116.99   10.09
   5  -1  -3  117.04   10.06
   5  -1  -3  123.65    9.81
  -5   1   3  113.71    9.93
  -5   1   3  115.85    9.81
  -5   1   3  116.29   10.07
  -5   1   3  124.03    9.86
   4  -1  -3   37.62    3.29
   4  -1  -3   39.05    3.20
   4  -1  -3   36.47    3.68
  -4   1   3   38.21    3.58
  -4   1   3   34.45    3.41
  -4   1   3   34.83    3.47
  -4   1   3   32.64    3.46
   3  -1  -3 1101.87   83.46
   3  -1  -3 1054.76   83.52
   3  -1  -3 1150.27   83.64
  -3   1   3 1127.74   83.56
  -3   1   3 1045.63   83.67
  -3   1   3 1062.04   83.49
  -3   1   3 1024.85   83.70
   2  -1  -3   58.67    4.75
   2  -1  -3   62.20    4.84
  -2   1   3   57.73    4.80
  -2   1   3   53.50    4.99
  -2   1   3   57.95    4.88
  -2   1   3   59.01    4.70
   1  -1  -3  190.50   14.32
   1  -1  -3  176.74   14.40
   1  -1  -3  187.29   14.38
  -1   1   3  187.85   14.39
  -1   1   3  188.48   14.34
  -1   1   3  187.42   14.44
  -1   1   3  177.09   14.46
   0  -1  -3 1134.96   96.48
   0   1   3 1312.80   97.01
  -1  -1  -3    3.20    0.61
  -1  -1  -3    4.37    0.42
  -1  -1  -3    2.98    0.72
   1   1   3    4.44    0.57
   1   1   3    4.51    0.55
   1   1   3    4.45    0.74
  -2  -1  -3  564.74   48.59
  -2  -1  -3  654.99   48.46
  -2  -1  -3  656.53   48.45
   2   1   3  608.15   48.57
   2   1   3  657.22   48.86
  -3  -1  -3  589.80   46.44
  -3  -1  -3  556.65   46.64
   3   1   3  610.18   46.61
   3   1   3  627.21   46.57
   3   1   3  624.02   46.71
  -4  -1  -3    3.38    1.10
  -4  -1  -3    5.07    0.90
  -4  -1  -3    4.17    0.81
   4   1   3    4.16    1.44
   4   1   3    4.10    0.79
   4   1   3    5.72    1.17
   4   1   3    3.36    1.02
   4   1   3    5.72    0.92
  -5  -1  -3   -0.49    1.06
  -5  -1  -3    0.15    0.76
  -5  -1  -3    0.61    0.77
   5   1   3    0.09    1.45
   5   1   3   -0.87    1.09
   5   1   3   -0.29    0.65
   5   1   3    0.63    0.94
   5   1   3   -0.14    0.54
  -6  -1  -3    3.14    1.51
  -6  -1  -3    2.52    1.40
  -6  -1  -3    2.71    1.03
   6   1   3    2.71    1.14
   6   1   3    3.08    1.45
   6   1   3    5.33    2.24
   6   1   3    4.12    1.58
   6   1   3    1.89    0.96
  -7  -1  -3    8.04    1.59
  -7  -1  -3    7.82    1.62
   7   1   3    4.02    2.03
   7   1   3    9.42    1.90
   7   1   3   10.64    1.79
   7   1   3    7.22    2.22
  -8  -1  -3  194.16   16.00
   8   1   3  209.56   16.36
   8   1   3  203.99   16.39
   8   1   3  188.83   17.02
   9   1   3   13.95    3.57
   9   1   3   22.04    3.60
   9   1   3   26.90    3.76
  10  -2  -3    1.01    1.67
  10  -2  -3   -3.15    1.92
  10  -2  -3    1.18    2.91
 -10   2   3    0.74    1.68
 -10   2   3   -0.26    3.83
   9  -2  -3    0.51    1.58
   9  -2  -3    1.61    1.97
   9  -2  -3    1.94    1.93
  -9   2   3    0.40    1.63
  -9   2   3    0.41    3.40
   8  -2  -3    3.57    1.82
   8  -2  -3    5.25    1.58
   8  -2  -3    4.91    1.80
  -8   2   3    5.59    1.65
  -8   2   3    1.32    2.82
   7  -2  -3  112.25    8.58
   7  -2  -3  102.88    8.66
  -7   2   3  103.97    9.31
  -7   2   3   86.08    8.67
  -7   2   3   96.92    8.61
   6  -2  -3  159.62   12.92
   6  -2  -3  155.93   12.57
   6  -2  -3  164.54   12.49
  -6   2   3  158.94   13.04
  -6   2   3  140.29   12.63
  -6   2   3  147.73   12.62
  -6   2   3  152.08   12.58
   5  -2  -3    6.55    1.10
   5  -2  -3    4.49    1.61
   5  -2  -3    5.18    1.20
  -5   2   3    6.21    1.35
  -5   2   3    8.41    1.65
  -5   2   3    6.88    1.41
  -5   2   3    7.27    1.45
   4  -2  -3   29.99    2.98
   4  -2  -3   24.37    2.47
   4  -2  -3   25.55    2.34
  -4   2   3   25.44    2.78
  -4   2   3   22.81    2.68
  -4   2   3   27.22    2.70
  -4   2   3   20.67    2.68
   3  -2  -3  119.30    9.33
   3  -2  -3  112.37    9.16
   3  -2  -3  120.07    9.09
  -3   2   3  114.66    9.25
  -3   2   3  109.95    9.16
  -3   2   3  119.57    9.38
  -3   2   3  103.98    9.35
   2  -2  -3   14.54    1.82
   2  -2  -3   15.77    1.59
   2  -2  -3   15.26    1.51
   2  -2  -3   15.97    1.73
  -2   2   3   15.73    1.70
  -2   2   3   15.05    1.53
  -2   2   3   17.63    1.74
   1  -2  -3   67.20    5.11
   1  -2  -3   59.03    5.24
   1  -2  -3   61.36    5.21
  -1   2   3   68.82    5.29
  -1   2   3   67.51    5.32
  -1   2   3   67.43    5.31
   0  -2  -3   49.58    4.47
   0  -2  -3   61.22    4.42
   0   2   3   54.76    4.52
   0   2   3   54.80    4.43
  -1  -2  -3  298.87   22.92
  -1  -2  -3  249.38   23.13
  -1  -2  -3  287.01   22.89
   1   2   3  340.96   23.10
   1   2   3  283.81   22.85
   1   2   3  301.86   22.93
   1   2   3  310.82   23.13
  -2  -2  -3   30.82    2.61
  -2  -2  -3   26.50    2.55
  -2  -2  -3   29.38    2.64
   2   2   3   34.06    2.95
   2   2   3   31.00    2.58
   2   2   3   30.66    2.82
   2   2   3   30.88    2.53
  -3  -2  -3 1800.49  147.00
  -3  -2  -3 1773.31  147.11
   3   2   3 1893.94  147.30
   3   2   3 2170.78  147.31
   3   2   3 1804.48  147.40
   3   2   3 2002.85  147.10
  -4  -2  -3    8.66    1.36
  -4  -2  -3    6.10    1.31
  -4  -2  -3    7.22    1.14
   4   2   3    9.20    1.61
   4   2   3    8.10    1.22
   4   2   3    9.93    1.15
   4   2   3    9.15    1.62
   4   2   3    8.35    1.86
  -5  -2  -3   96.33    7.51
  -5  -2  -3   85.57    7.74
  -5  -2  -3   82.93    7.39
   5   2   3   93.80    7.54
   5   2   3   82.79    7.94
   5   2   3   93.01    7.83
   5   2   3  102.14    7.53
   5   2   3   87.66    8.10
  -6  -2  -3  123.72    9.69
  -6  -2  -3  115.96    9.59
  -6  -2  -3  108.13    9.88
   6   2   3  131.09    9.84
   6   2   3  120.76   10.12
   6   2   3  129.73    9.78
   6   2   3  105.96   10.27
   6   2   3  104.19   10.23
  -7  -2  -3   12.17    1.84
  -7  -2  -3   11.65    1.88
   7   2   3    9.73    2.51
   7   2   3   15.19    2.35
   7   2   3    9.82    2.04
   7   2   3    9.48    2.49
  -8  -2  -3    6.94    1.81
   8   2   3    1.61    2.72
   8   2   3    6.84    1.77
   8   2   3    8.18    2.25
   8   2   3    8.07    2.66
   9   2   3   22.10    3.85
   9   2   3   22.61    4.63
   9   2   3   28.11    4.00
  10  -3  -3   -0.39    1.65
  10  -3  -3    2.38    3.12
  10  -3  -3    3.80    2.14
 -10   3   3    7.05    4.02
   9  -3  -3   19.41    3.23
   9  -3  -3   15.47    2.94
  -9   3   3   17.87    3.03
  -9   3   3   20.62    4.53
   8  -3  -3   11.18    2.36
   8  -3  -3    8.23    1.89
  -8   3   3    9.11    3.22
  -8   3   3    8.51    1.93
   7  -3  -3    5.81    1.44
   7  -3  -3    3.57    1.61
  -7   3   3    8.06    2.58
  -7   3   3    5.61    1.58
   6  -3  -3  172.84   13.17
   6  -3  -3  158.20   12.89
   6  -3  -3  172.64   12.83
  -6   3   3  157.07   12.98
  -6   3   3  130.47   12.91
  -6   3   3  155.95   12.86
  -6   3   3  160.00   13.33
   5  -3  -3   55.23    5.42
   5  -3  -3   63.05    5.03
   5  -3  -3   60.08    5.15
  -5   3   3   53.15    5.26
  -5   3   3   53.84    5.26
  -5   3   3   57.69    5.54
  -5   3   3   58.54    5.29
   4  -3  -3   60.84    5.02
   4  -3  -3   60.79    5.14
   4  -3  -3   66.06    5.41
  -4   3   3   60.17    5.39
  -4   3   3   53.64    5.18
  -4   3   3   64.09    5.26
  -4   3   3   51.78    5.32
   3  -3  -3  507.21   38.21
   3  -3  -3  506.40   38.07
   3  -3  -3  472.25   38.14
   3  -3  -3  443.49   38.09
  -3   3   3  488.75   38.32
  -3   3   3  526.52   38.23
   2  -3  -3  251.01   17.43
   2  -3  -3  208.11   17.41
   2  -3  -3  223.97   17.43
   2  -3  -3  214.73   17.30
  -2   3   3  218.45   17.59
  -2   3   3  214.80   17.52
   1  -3  -3  409.32   32.49
   1  -3  -3  402.90   32.54
   1  -3  -3  358.36   32.38
   1  -3  -3  482.20   32.62
  -1   3   3  404.73   32.61
  -1   3   3  433.64   32.62
  -1   3   3  445.85   32.61
   0  -3  -3  127.27    9.64
   0  -3  -3  140.36   10.03
   0  -3  -3  122.04    9.85
   0  -3  -3  123.48    9.79
   0   3   3  110.64    9.91
   0   3   3  121.99    9.83
  -1  -3  -3   57.84    4.93
  -1  -3  -3   54.25    4.88
  -1  -3  -3   59.91    4.76
   1   3   3   62.05    5.05
   1   3   3   63.58    4.88
   1   3   3   63.79    5.16
  -2  -3  -3  415.97   32.03
  -2  -3  -3  413.50   32.11
  -2  -3  -3  425.50   32.07
   2   3   3  407.66   32.29
   2   3   3  403.44   32.05
  -3  -3  -3   31.17    3.80
  -3  -3  -3   38.50    3.40
  -3  -3  -3   41.91    3.46
   3   3   3   40.16    3.26
   3   3   3   43.89    4.00
   3   3   3   36.31    3.31
   3   3   3   39.10    3.65
  -4  -3  -3    0.59    0.90
  -4  -3  -3    0.22    0.77
  -4  -3  -3    0.43    1.18
  -4  -3  -3    0.61    0.78
   4   3   3    2.11    1.51
   4   3   3    1.59    1.29
   4   3   3   -0.02    0.39
   4   3   3    1.27    0.64
   4   3   3    0.63    0.79
  -5  -3  -3  398.58   29.58
  -5  -3  -3  346.83   29.42
  -5  -3  -3  341.39   29.62
   5   3   3  384.70   29.84
   5   3   3  359.70   29.98
   5   3   3  386.54   30.04
   5   3   3  399.00   29.52
   5   3   3  400.24   29.60
  -6  -3  -3   50.67    4.84
  -6  -3  -3   54.28    4.79
  -6  -3  -3   45.12    5.00
   6   3   3   39.82    5.35
   6   3   3   63.11    4.93
   6   3   3   55.27    6.63
   6   3   3   53.60    4.70
   6   3   3   49.70    6.03
  -7  -3  -3   54.55    5.47
  -7  -3  -3   62.20    5.76
   7   3   3   69.65    6.77
   7   3   3   62.08    5.68
   7   3   3   62.79    6.12
  -8  -3  -3   37.36    4.76
   8   3   3   53.80    5.30
   8   3   3   46.29    6.00
   8   3   3   49.39    4.99
   9   3   3   33.48    4.63
   9   3   3   31.94    4.95
   9   3   3   38.71    5.13
  10  -4  -3   -0.04    1.62
  10  -4  -3    2.82    2.19
  10  -4  -3   -1.52    3.16
 -10   4   3   -3.18    3.64
   9  -4  -3    2.92    2.14
   9  -4  -3   -0.08    1.60
  -9   4   3    0.69    3.52
  -9   4   3    2.16    1.50
   8  -4  -3   12.73    2.21
   8  -4  -3    7.27    2.22
  -8   4   3    7.84    1.94
  -8   4   3   15.02    3.72
   7  -4  -3  341.54   27.18
   7  -4  -3  367.97   27.13
  -7   4   3  332.72   28.39
  -7   4   3  321.89   27.10
   6  -4  -3   18.57    2.34
   6  -4  -3   20.03    2.79
  -6   4   3   18.20    2.75
  -6   4   3   16.72    3.06
  -6   4   3   19.86    2.83
  -6   4   3   16.73    3.07
   5  -4  -3    3.63    1.64
   5  -4  -3    4.88    1.31
   5  -4  -3    6.59    1.15
  -5   4   3    4.32    1.48
  -5   4   3    6.41    1.54
  -5   4   3    5.27    1.36
  -5   4   3    5.06    1.63
   4  -4  -3 1252.12  101.37
   4  -4  -3 1437.13  101.50
   4  -4  -3 1125.93  101.32
   4  -4  -3 1352.74  101.31
  -4   4   3 1323.74  101.64
  -4   4   3 1374.81  101.46
   3  -4  -3   20.37    2.02
   3  -4  -3   19.60    2.21
   3  -4  -3   22.49    2.24
   3  -4  -3   26.46    2.50
  -3   4   3   20.96    2.37
  -3   4   3   19.49    2.50
  -3   4   3   16.42    2.26
   2  -4  -3   96.83    7.45
   2  -4  -3   86.92    7.43
   2  -4  -3   79.34    7.25
   2  -4  -3  101.10    7.45
  -2   4   3   92.95    7.55
  -2   4   3   90.60    7.57
   1  -4  -3  251.40   20.71
   1  -4  -3  301.84   20.69
  -1   4   3  252.33   20.79
  -1   4   3  264.62   20.76
  -1   4   3  251.82   20.80
   0  -4  -3  246.00   18.30
   0  -4  -3  205.27   18.34
   0  -4  -3  236.88   18.50
   0   4   3  242.83   18.51
   0   4   3  230.05   18.35
   0   4   3  243.74   18.56
  -1  -4  -3  100.73    8.67
  -1  -4  -3  101.66    8.45
  -1  -4  -3  105.39    8.62
  -1  -4  -3  115.24    8.99
   1   4   3  112.50    8.63
   1   4   3  102.93    8.90
   1   4   3  116.44    8.83
  -2  -4  -3    1.03    0.70
  -2  -4  -3    2.35    0.61
  -2  -4  -3    2.21    1.13
   2   4   3    2.17    0.72
   2   4   3    3.52    1.31
   2   4   3    2.44    0.59
   2   4   3    2.33    1.18
  -3  -4  -3    0.61    0.73
  -3  -4  -3    3.08    0.99
  -3  -4  -3    1.06    1.21
  -3  -4  -3    1.31    0.78
   3   4   3    0.92    0.56
   3   4   3    0.72    1.44
   3   4   3    0.81    0.71
   3   4   3    1.87    1.28
  -4  -4  -3   56.74    5.33
  -4  -4  -3   63.84    5.40
   4   4   3   59.74    5.24
   4   4   3   66.89    5.66
   4   4   3   62.75    5.81
   4   4   3   56.91    6.08
  -5  -4  -3   26.92    3.48
  -5  -4  -3   31.12    3.35
  -5  -4  -3   29.36    3.39
   5   4   3   35.20    3.77
   5   4   3   31.77    2.96
   5   4   3   28.92    4.18
   5   4   3   25.67    3.74
   5   4   3   35.63    3.25
  -6  -4  -3  176.77   14.18
  -6  -4  -3  160.46   14.04
  -6  -4  -3  144.81   14.16
   6   4   3  192.94   14.26
   6   4   3  188.25   14.79
   6   4   3  185.28   14.08
  -7  -4  -3   29.13    4.70
   7   4   3   39.51    4.14
   7   4   3   28.38    4.45
  -8  -4  -3    9.73    2.37
   8   4   3   10.61    2.50
   8   4   3    8.84    2.96
   8   4   3   10.27    2.24
   9   4   3    2.44    1.94
   9   4   3   -0.79    2.48
   9   4   3    1.45    2.00
   9  -5  -3   -0.41    2.27
   9  -5  -3    0.91    1.89
  -9   5   3    5.05    3.65
   8  -5  -3   21.44    3.24
   8  -5  -3   18.91    3.19
  -8   5   3   18.30    3.08
  -8   5   3   22.48    4.32
   7  -5  -3    9.20    2.08
   7  -5  -3    8.49    2.18
  -7   5   3    8.91    3.01
  -7   5   3    5.41    1.85
   6  -5  -3    1.20    1.24
   6  -5  -3    3.22    1.20
   6  -5  -3    1.17    1.69
  -6   5   3    1.32    2.15
  -6   5   3    1.22    1.52
  -6   5   3    1.58    1.40
   5  -5  -3   37.06    3.86
   5  -5  -3   39.27    3.55
   5  -5  -3   34.64    3.88
   5  -5  -3   35.82    3.75
  -5   5   3   33.15    3.95
  -5   5   3   33.91    3.82
  -5   5   3   34.75    4.10
   4  -5  -3   45.95    4.44
   4  -5  -3   49.33    4.18
   4  -5  -3   43.63    4.48
   4  -5  -3   44.58    4.32
  -4   5   3   47.75    4.60
  -4   5   3   48.45    4.75
   3  -5  -3  326.72   26.54
   3  -5  -3  383.40   26.77
   3  -5  -3  317.57   26.66
   3  -5  -3  339.98   26.67
  -3   5   3  322.17   26.83
  -3   5   3  347.31   26.79
   2  -5  -3   84.74    7.23
   2  -5  -3   86.08    7.17
   2  -5  -3   74.47    7.00
   2  -5  -3  101.89    7.32
  -2   5   3   85.72    7.41
  -2   5   3   90.19    7.37
   1  -5  -3  309.30   22.18
   1  -5  -3  285.15   22.28
  -1   5   3  257.24   22.35
  -1   5   3  282.23   22.32
   0  -5  -3    7.87    1.23
   0  -5  -3    6.83    1.12
   0  -5  -3    8.16    1.55
   0   5   3    8.32    1.32
   0   5   3    7.76    1.70
   0   5   3    6.11    1.07
  -1  -5  -3   13.65    1.40
  -1  -5  -3   11.37    2.11
  -1  -5  -3   14.00    1.78
  -1  -5  -3   15.26    1.79
   1   5   3   16.44    2.54
   1   5   3   11.82    1.56
   1   5   3   17.34    1.91
  -2  -5  -3  341.39   31.69
  -2  -5  -3  389.07   31.20
  -2  -5  -3  391.19   31.44
  -2  -5  -3  412.11   31.38
   2   5   3  407.30   31.66
   2   5   3  435.80   31.37
   2   5   3  438.78   31.63
   2   5   3  401.25   31.75
  -3  -5  -3   34.25    4.06
  -3  -5  -3   36.43    3.62
  -3  -5  -3   35.68    3.66
  -3  -5  -3   36.56    3.63
   3   5   3   32.24    4.38
   3   5   3   38.81    4.04
   3   5   3   42.65    3.83
   3   5   3   38.98    3.42
  -4  -5  -3   27.93    3.27
  -4  -5  -3   25.87    3.00
  -4  -5  -3   25.48    3.01
   4   5   3   28.91    3.53
   4   5   3   29.40    2.82
   4   5   3   21.45    3.40
   4   5   3   30.50    3.31
  -5  -5  -3    1.33    1.58
  -5  -5  -3    0.06    1.34
   5   5   3    1.37    1.12
   5   5   3    0.42    1.23
  -6  -5  -3  159.45   13.76
  -6  -5  -3  140.97   13.85
   6   5   3  200.13   14.57
   6   5   3  183.53   13.96
   7   5   3   21.27    3.11
   7   5   3   18.68    3.35
   8   5   3    0.97    1.82
   8   5   3    3.59    2.08
   9  -6  -3    5.74    2.17
   9  -6  -3   -0.70    1.88
  -9   6   3   -4.15    3.63
   8  -6  -3   37.63    4.79
   8  -6  -3   36.39    4.63
  -8   6   3   28.29    4.16
  -8   6   3   41.33    5.80
   7  -6  -3    5.44    2.18
   7  -6  -3    3.20    1.84
  -7   6   3    1.91    2.71
  -7   6   3    4.73    1.91
   6  -6  -3    4.77    1.43
   6  -6  -3    4.04    1.66
  -6   6   3    6.86    2.47
  -6   6   3   -0.15    1.59
   5  -6  -3    1.69    1.03
   5  -6  -3    1.20    1.37
   5  -6  -3    0.19    1.38
  -5   6   3    2.13    1.64
  -5   6   3    2.01    1.86
   4  -6  -3  137.84   11.61
   4  -6  -3  158.98   11.90
   4  -6  -3  141.79   11.82
   4  -6  -3  148.49   11.77
  -4   6   3  135.84   11.87
  -4   6   3  135.71   12.05
   3  -6  -3   42.62    3.95
   3  -6  -3   45.26    4.29
   3  -6  -3   47.17    4.26
   3  -6  -3   44.44    4.19
  -3   6   3   36.25    4.30
  -3   6   3   48.72    4.49
   2  -6  -3  111.88   10.24
   2  -6  -3  133.20   10.56
   2  -6  -3  148.14   10.46
  -2   6   3  123.71   10.59
  -2   6   3  125.64   10.67
   1  -6  -3   67.30    5.40
   1  -6  -3   63.31    5.54
   1  -6  -3   67.43    5.64
  -1   6   3   67.70    5.98
  -1   6   3   51.35    5.53
  -1   6   3   63.46    5.58
   0  -6  -3   22.88    2.52
   0  -6  -3   21.12    2.62
   0  -6  -3   18.38    2.30
   0   6   3   21.65    2.99
   0   6   3   22.91    2.40
   0   6   3   22.61    2.55
  -1  -6  -3   32.09    3.37
  -1  -6  -3   30.64    2.85
  -1  -6  -3   30.86    3.19
   1   6   3   34.58    3.64
   1   6   3   33.14    3.20
   1   6   3   38.94    3.45
   1   6   3   27.47    3.93
  -2  -6  -3   12.32    1.89
  -2  -6  -3    9.40    1.58
  -2  -6  -3   14.04    2.03
   2   6   3   12.04    1.69
   2   6   3   15.09    2.44
   2   6   3   11.52    2.07
   2   6   3   14.25    2.01
  -3  -6  -3   79.88    7.41
  -3  -6  -3   85.07    7.18
  -3  -6  -3   83.07    7.46
   3   6   3   79.52    7.94
   3   6   3   99.39    7.65
   3   6   3   90.77    7.28
  -4  -6  -3   80.78    7.60
  -4  -6  -3   88.54    7.48
  -4  -6  -3   88.99    7.62
   4   6   3   82.23    8.07
   4   6   3   98.34    7.50
  -5  -6  -3    1.94    1.54
  -5  -6  -3    9.95    1.92
  -5  -6  -3    5.52    1.39
   5   6   3    5.03    1.48
   5   6   3    6.77    1.84
  -6  -6  -3    0.24    1.95
   6   6   3    0.16    1.43
   6   6   3   -0.23    1.58
  -7  -6  -3   30.09    4.69
   7   6   3   40.55    4.65
   7   6   3   39.30    4.92
   8   6   3  137.13   11.86
   8   6   3  122.72   11.17
   8  -7  -3   81.97    8.33
   8  -7  -3   97.06    8.65
  -8   7   3   85.04    9.58
   7  -7  -3    3.52    1.99
   7  -7  -3    4.98    2.29
  -7   7   3   -0.32    3.11
  -7   7   3    2.04    2.00
   6  -7  -3   36.08    3.99
   6  -7  -3   29.63    4.30
  -6   7   3   28.79    4.55
  -6   7   3   25.94    4.30
   5  -7  -3   21.69    3.18
   5  -7  -3   21.42    2.89
  -5   7   3   16.36    3.31
   4  -7  -3  287.90   22.82
   3  -7  -3   -0.65    1.08
   3  -7  -3    1.36    1.33
   3  -7  -3    0.30    0.80
  -3   7   3    2.75    1.72
   2  -7  -3  146.04   11.92
   2  -7  -3  146.59   11.75
   2  -7  -3  137.10   11.94
  -2   7   3  150.49   12.13
   1  -7  -3    0.82    1.22
   1  -7  -3    1.86    1.11
   1  -7  -3    1.07    0.93
   1  -7  -3    1.06    0.72
  -1   7   3    0.66    1.01
  -1   7   3    1.19    1.63
  -1   7   3    0.53    1.06
   0  -7  -3  636.03   50.87
   0  -7  -3  643.16   50.80
   0  -7  -3  685.49   50.59
   0   7   3  595.78   50.92
   0   7   3  685.88   50.83
   0   7   3  701.62   50.98
   0   7   3  610.71   51.02
  -1  -7  -3  193.14   16.16
  -1  -7  -3  208.79   15.97
  -1  -7  -3  199.25   15.78
   1   7   3  199.52   16.08
   1   7   3  200.28   16.31
  -2  -7  -3    0.40    1.24
  -2  -7  -3    0.29    1.21
  -2  -7  -3    1.35    0.86
   2   7   3    0.95    1.14
   2   7   3    1.40    1.14
  -3  -7  -3  227.07   19.58
  -3  -7  -3  248.87   19.80
  -3  -7  -3  252.48   19.99
   3   7   3  269.18   20.17
  -4  -7  -3    0.89    1.74
  -4  -7  -3    1.50    1.13
  -4  -7  -3    3.96    1.62
   4   7   3    3.36    1.51
   4   7   3    3.08    1.32
  -5  -7  -3   46.24    6.20
   5   7   3   60.50    5.48
   5   7   3   57.83    5.84
  -6  -7  -3  132.80   13.03
   6   7   3  160.92   12.91
   6   7   3  164.63   13.32
  -7  -7  -3    0.64    2.34
   7   7   3    1.71    1.76
   7   7   3    2.05    1.89
   8  -8  -3    6.95    2.63
   8  -8  -3    1.12    2.43
  -8   8   3    7.30    3.32
   7  -8  -3    0.49    2.44
   7  -8  -3    1.89    2.25
  -7   8   3   -4.76    2.19
  -7   8   3   -2.32    3.12
   6  -8  -3   12.40    2.46
   6  -8  -3    9.26    2.64
  -6   8   3    7.78    3.56
  -6   8   3   12.81    3.16
   5  -8  -3   23.79    3.36
   5  -8  -3   16.45    2.65
  -5   8   3   18.30    3.78
   4  -8  -3    6.23    1.62
   4  -8  -3    3.99    1.97
  -4   8   3    2.57    2.31
   3  -8  -3   10.73    2.29
   3  -8  -3    8.93    1.57
  -3   8   3    5.86    2.44
   2  -8  -3  146.37   12.46
  -2   8   3  164.44   13.04
   1  -8  -3    2.71    1.67
   1  -8  -3    1.05    0.89
  -1   8   3    0.71    1.97
  -1   8   3    0.42    1.50
   0  -8  -3   79.58    6.74
   0   8   3   80.68    8.96
  -1  -8  -3    3.28    1.83
   1   8   3    1.43    1.31
   1   8   3    2.69    1.40
  -2  -8  -3   79.88    6.99
  -2  -8  -3   90.26    7.82
   2   8   3   89.11    7.80
   2   8   3   84.98    7.50
  -3  -8  -3   73.27    6.62
  -3  -8  -3   66.10    7.73
   3   8   3   88.14    7.39
   3   8   3   85.76    7.14
  -4  -8  -3   35.06    4.80
   4   8   3   39.79    4.63
   4   8   3   35.70    4.20
  -5  -8  -3    7.55    2.88
   5   8   3    4.12    2.15
   5   8   3    8.29    1.99
  -6  -8  -3   -2.73    2.77
   6   8   3   -0.62    1.74
   6   8   3   -0.37    1.71
   7  -9  -3   -1.30    2.48
   7  -9  -3    1.95    2.57
  -7   9   3   -0.72    3.28
   6  -9  -3   -1.40    2.13
   6  -9  -3    0.57    2.35
  -6   9   3    2.96    2.98
  -6   9   3   -4.49    3.02
   5  -9  -3    0.79    2.58
   5  -9  -3   -0.35    2.02
  -5   9   3    1.67    2.74
   4  -9  -3   10.42    2.16
   4  -9  -3    7.69    2.62
  -4   9   3   11.59    3.26
   3  -9  -3    4.85    2.24
   3  -9  -3    3.02    1.36
  -3   9   3    1.85    2.32
   2  -9  -3   40.63    4.29
   2  -9  -3   56.94    5.47
  -2   9   3   46.21    5.58
   1  -9  -3   11.83    2.14
   1  -9  -3   19.31    3.02
  -1   9   3   16.54    2.88
   0  -9  -3   10.88    2.45
   0  -9  -3    9.02    1.46
   0   9   3   12.47    2.34
   0   9   3    9.35    2.23
  -1  -9  -3   26.91    4.12
   1   9   3   28.04    3.87
   1   9   3   26.35    3.72
  -2  -9  -3   42.54    5.22
   2   9   3   47.44    5.03
   2   9   3   40.05    4.87
  -3  -9  -3    8.67    2.81
   3   9   3    7.25    2.09
   3   9   3    9.04    2.19
  -4  -9  -3    1.31    2.75
   4   9   3    0.02    1.72
   4   9   3   -0.54    1.70
  -5  -9  -3   13.06    3.53
   5   9   3   17.42    2.47
   5   9   3   11.41    2.61
   5 -10  -3    8.47    2.40
   5 -10  -3    7.39    2.40
  -5  10   3    5.96    3.08
   4 -10  -3  331.56   26.77
   4 -10  -3  334.33   26.41
  -4  10   3  325.19   27.15
   3 -10  -3   52.20    5.40
   3 -10  -3   58.95    6.24
  -3  10   3   58.44    6.60
   2 -10  -3   69.32    6.83
   2 -10  -3   86.71    7.97
  -2  10   3   83.57    8.10
   1 -10  -3   19.80    2.86
   1 -10  -3   20.96    3.58
  -1  10   3   31.43    4.69
   0 -10  -3    0.12    1.20
   0 -10  -3   -1.26    2.23
   0  10   3    1.14    1.79
   0  10   3   -3.71    1.98
  -1 -10  -3   33.92    4.89
  -1 -10  -3   20.82    3.89
   1  10   3   29.98    4.06
   1  10   3   27.51    3.98
  -2 -10  -3   73.66    7.85
   2  10   3   78.52    7.59
   2  10   3   75.13    7.44
  -3 -10  -3   26.42    4.26
   3  10   3   27.76    3.69
   3  10   3   25.60    3.93
  -4 -10  -3  198.16   18.03
   4  10   3  207.14   17.80
   4  10   3  248.20   20.35
   3 -11  -3   43.90    5.83
  -3  11   3   61.68    6.73
   2 -11  -3   76.05    7.42
  -2  11   3   70.47    7.55
   1 -11  -3   -3.13    2.30
  -1  11   3   -2.79    2.32
   0 -11  -3   87.37    8.68
   0  11   3   91.09    8.46
  -1 -11  -3  101.14    8.89
   1  11   3   78.52    8.48
   1  11   3   98.33    8.78
   2  12  -4   36.24    5.23
  -2 -12   4   26.72    6.14
   1  12  -4   10.99    3.57
  -1 -12   4    1.87    2.47
   0  12  -4   10.16    4.04
   0 -12   4   10.09    2.70
  -1  12  -4    9.42    4.05
   1 -12   4   10.72    2.74
   1 -12   4    1.96    2.97
  -2  12  -4   13.04    4.25
   2 -12   4    7.45    3.10
   2 -12   4    8.79    2.66
   4  11  -4   62.77    7.14
   4  11  -4   77.64    6.87
   3  11  -4  208.60   17.37
   2  11  -4    2.83    2.58
  -2 -11   4    1.89    2.44
   1  11  -4   46.63    6.01
  -1 -11   4   36.62    5.31
   0  11  -4   -0.23    2.92
   0 -11   4    1.57    2.25
  -1  11  -4  172.72   13.90
   1 -11   4  126.68   13.73
   1 -11   4  167.90   13.49
  -2  11  -4   41.34    6.63
   2 -11   4   46.53    5.33
   2 -11   4   32.02    5.46
  -3  11  -4   21.28    4.43
   3 -11   4   21.19    4.13
  -4  11  -4   12.08    3.67
   4 -11   4   11.12    2.85
   4 -11   4    9.62    2.88
   6  10  -4    4.73    2.17
   6  10  -4    3.71    1.85
  -6 -10   4    1.42    3.12
   5  10  -4   -2.83    1.81
   5  10  -4    1.30    2.09
  -5 -10   4   -1.82    2.46
   4  10  -4    3.32    2.20
   4  10  -4    5.44    2.10
  -4 -10   4    6.99    2.87
   3  10  -4   86.61    7.52
   3  10  -4   66.83    7.40
  -3 -10   4   88.77    8.19
   2  10  -4   65.91    6.61
   1  10  -4   35.17    4.79
  -1 -10   4   37.68    4.68
   0  10  -4    3.35    2.39
   0 -10   4    5.53    2.19
  -1  10  -4    0.35    2.42
  -1  10  -4    4.34    2.70
   1 -10   4    1.29    1.79
   2 -10   4   17.95    3.37
   3 -10   4   21.91    3.60
   3 -10   4   18.13    3.59
   4 -10   4    1.49    2.60
   4 -10   4    0.97    2.29
  -5  10  -4   21.27    4.04
   5 -10   4   28.88    4.05
   5 -10   4   16.18    3.60
   6 -10   4    7.48    2.94
   6 -10   4   11.16    2.70
   7   9  -4    0.51    2.10
   7   9  -4   -1.63    1.56
  -7  -9   4   -4.22    2.88
   6   9  -4   18.53    3.17
   6   9  -4   13.73    2.57
  -6  -9   4   18.36    3.71
   5   9  -4   22.78    3.25
   5   9  -4   14.56    2.83
  -5  -9   4   16.37    3.48
  -5  -9   4   17.78    3.31
   4   9  -4   27.28    3.33
   4   9  -4   23.58    3.50
  -4  -9   4   19.78    3.60
   3   9  -4    1.00    1.42
   3   9  -4    1.04    1.54
  -3  -9   4    0.65    2.00
  -2  -9   4   73.69    7.24
   1   9  -4  307.96   24.57
   0   9  -4  206.03   17.06
   0   9  -4  195.92   16.84
   0   9  -4  228.96   16.73
   0  -9   4  184.57   16.89
  -1   9  -4  217.65   17.66
  -1   9  -4  199.50   17.49
  -1   9  -4  222.66   17.44
   1  -9   4  217.66   17.84
  -2   9  -4   -0.53    1.61
  -2   9  -4   -0.19    1.76
  -2   9  -4    0.49    2.21
   2  -9   4   -2.13    1.45
   2  -9   4   -0.60    1.87
  -3   9  -4   -0.48    1.44
  -3   9  -4    0.04    2.14
  -3   9  -4   -1.41    1.68
   3  -9   4   -1.92    1.69
   3  -9   4    1.57    1.74
  -4   9  -4    3.28    2.24
   4  -9   4    6.37    2.22
   4  -9   4    6.51    2.42
  -5   9  -4   10.82    2.75
   5  -9   4   22.75    3.40
   5  -9   4   13.94    3.08
  -6   9  -4    1.18    2.47
   6  -9   4    5.26    2.74
   6  -9   4    7.63    2.73
   7  -9   4  106.59    9.95
   8   8  -4   51.23    5.49
   8   8  -4   49.65    6.06
   7   8  -4   83.38    7.94
   7   8  -4   76.04    7.39
  -7  -8   4   88.78    8.39
  -7  -8   4   74.23    8.59
   6   8  -4   -1.22    1.54
   6   8  -4   -0.47    1.44
  -6  -8   4    2.62    2.52
  -6  -8   4   -1.38    2.11
   5   8  -4   54.56    5.52
   5   8  -4   49.66    5.17
  -5  -8   4   52.25    6.22
  -5  -8   4   64.53    6.21
   4   8  -4    1.57    1.29
   4   8  -4    1.42    1.27
  -4  -8   4    4.02    2.09
  -4  -8   4    2.95    1.80
   3   8  -4  211.93   19.77
   3   8  -4  247.26   19.65
  -3  -8   4  284.90   20.10
   2   8  -4    0.42    2.00
   2   8  -4    1.51    2.12
   2   8  -4    1.53    1.19
   2   8  -4    0.10    1.09
  -2  -8   4    0.60    1.22
  -2  -8   4    1.30    1.25
  -2  -8   4    0.52    1.54
   1   8  -4  502.87   43.67
   1   8  -4  514.53   43.71
   1   8  -4  575.33   43.41
  -1  -8   4  620.78   43.55
  -1  -8   4  557.86   43.65
   0   8  -4   15.35    2.99
   0   8  -4   17.46    2.66
   0   8  -4   16.91    3.26
   0  -8   4   20.56    2.37
   0  -8   4   20.90    2.72
  -1   8  -4   42.21    4.27
  -1   8  -4   34.71    4.73
  -1   8  -4   42.06    5.19
   1  -8   4   44.73    5.51
   1  -8   4   46.62    4.12
   1  -8   4   43.48    4.38
  -2   8  -4    5.69    1.87
  -2   8  -4    7.22    1.74
  -2   8  -4   10.24    2.53
   2  -8   4    4.27    1.86
   2  -8   4    7.06    1.65
  -3   8  -4  101.74    9.25
  -3   8  -4  118.12    9.85
  -3   8  -4  104.62    9.41
   3  -8   4  124.75    9.64
  -4   8  -4   17.38    2.58
  -4   8  -4   16.60    2.60
  -4   8  -4   14.61    1.87
   4  -8   4   13.00    2.77
  -5   8  -4   68.78    6.27
   5  -8   4   64.58    8.36
   5  -8   4   56.12    6.52
  -6   8  -4    0.69    1.81
   6  -8   4   -2.17    2.19
   6  -8   4   -3.47    2.03
   7  -8   4  121.84   11.55
   7  -8   4  137.44   11.73
   8   7  -4   52.76    6.03
   8   7  -4   53.42    5.21
  -8  -7   4   43.64    6.90
  -8  -7   4   50.50    6.14
   7   7  -4   23.89    3.51
   7   7  -4   20.74    3.33
  -7  -7   4   22.93    4.17
  -7  -7   4   20.99    3.70
   6   7  -4    0.63    1.31
   6   7  -4    0.01    1.44
  -6  -7   4   -0.47    1.86
  -6  -7   4    1.27    2.36
   5   7  -4  136.13   11.59
   5   7  -4  152.31   11.85
  -5  -7   4  160.44   12.34
  -5  -7   4  118.81   11.96
  -5  -7   4  147.76   12.36
   4   7  -4   14.37    2.31
   4   7  -4   11.67    3.18
   4   7  -4   13.86    2.10
  -4  -7   4   11.37    2.57
  -4  -7   4   18.21    2.90
  -4  -7   4   14.58    2.63
   3   7  -4  450.96   39.38
   3   7  -4  507.65   39.86
   3   7  -4  444.52   39.75
   3   7  -4  547.74   39.29
  -3  -7   4  500.93   39.67
  -3  -7   4  456.69   39.26
  -3  -7   4  493.34   39.29
  -3  -7   4  544.95   39.55
  -3  -7   4  582.86   39.71
   2   7  -4   33.04    3.22
   2   7  -4   27.17    4.30
   2   7  -4   36.76    4.44
   2   7  -4   24.46    3.24
  -2  -7   4   35.77    3.47
  -2  -7   4   32.89    3.63
  -2  -7   4   34.29    3.37
  -2  -7   4   30.79    3.11
   1   7  -4 1022.50   88.77
   1   7  -4 1098.13   88.50
   1   7  -4 1105.33   88.82
  -1  -7   4 1130.42   88.43
  -1  -7   4 1309.70   88.70
  -1  -7   4 1086.40   88.72
  -1  -7   4 1247.60   88.69
   0   7  -4   -1.33    1.75
   0   7  -4    0.34    0.79
   0   7  -4   -0.86    1.49
   0  -7   4    1.31    0.94
   0  -7   4    0.94    0.69
   0  -7   4    0.07    1.09
   0  -7   4    1.11    1.09
  -1   7  -4 1697.43  124.88
  -1   7  -4 1487.65  124.63
  -1   7  -4 1545.48  124.76
   1  -7   4 1533.31  124.77
   1  -7   4 1652.17  124.89
   1  -7   4 1763.10  124.64
  -2   7  -4    1.89    1.24
  -2   7  -4    1.05    1.70
  -2   7  -4   -0.91    0.94
   2  -7   4    0.46    1.24
   2  -7   4   -0.40    0.93
   2  -7   4   -0.06    1.10
   2  -7   4    2.32    1.06
  -3   7  -4  874.24   74.15
  -3   7  -4 1025.75   74.30
  -3   7  -4  851.99   73.96
   3  -7   4  975.01   74.31
   3  -7   4 1059.37   74.27
  -4   7  -4   28.80    3.44
  -4   7  -4   33.65    4.12
   4  -7   4   34.62    3.91
   4  -7   4   25.43    4.51
   4  -7   4   33.83    3.53
  -5   7  -4   26.21    3.54
  -5   7  -4   32.29    3.68
   5  -7   4   28.64    3.93
   5  -7   4   25.57    3.63
  -6   7  -4   35.82    3.96
   6  -7   4   30.72    4.72
   6  -7   4   39.83    4.56
  -7   7  -4  295.89   24.94
   7  -7   4  320.36   25.72
   7  -7   4  328.76   25.51
   8  -7   4    5.49    2.99
   8  -7   4    0.30    1.94
   9   6  -4    2.23    1.72
   9   6  -4    0.95    2.44
  -9  -6   4    3.73    2.33
  -9  -6   4   -1.95    3.00
   8   6  -4   28.63    4.15
   8   6  -4   26.93    3.74
  -8  -6   4   27.03    4.81
  -8  -6   4   24.75    4.15
   7   6  -4  324.80   23.90
   7   6  -4  273.34   23.61
  -7  -6   4  319.47   24.37
  -7  -6   4  270.18   24.46
   6   6  -4   24.00    3.13
   6   6  -4   26.86    3.07
  -6  -6   4   26.80    3.74
  -6  -6   4   28.29    4.04
   5   6  -4   21.81    2.79
   5   6  -4   31.19    3.01
  -5  -6   4   20.10    3.48
  -5  -6   4   28.26    3.85
  -5  -6   4   27.98    3.58
   4   6  -4  123.75   11.91
   4   6  -4  162.49   11.43
   4   6  -4  147.39   11.22
   4   6  -4  131.16   12.01
  -4  -6   4  126.42   11.50
  -4  -6   4  123.89   11.28
  -4  -6   4  139.23   11.81
  -4  -6   4  141.52   11.33
  -4  -6   4  148.78   11.69
   3   6  -4  110.49    8.89
   3   6  -4  108.22    8.71
   3   6  -4   96.81    9.44
   3   6  -4   95.32    9.38
  -3  -6   4  104.09    8.99
  -3  -6   4  114.93    9.12
  -3  -6   4  102.50    9.17
  -3  -6   4  102.40    8.82
  -3  -6   4  121.98    8.88
   2   6  -4   51.15    5.38
   2   6  -4   43.30    4.60
   2   6  -4   57.99    4.60
   2   6  -4   43.24    5.32
  -2  -6   4   62.72    4.79
  -2  -6   4   56.76    4.87
  -2  -6   4   54.47    4.97
  -2  -6   4   50.74    4.62
   1   6  -4  115.13    9.32
   1   6  -4  113.52    9.75
   1   6  -4  106.48    9.75
  -1  -6   4  126.19    9.49
  -1  -6   4  115.37    9.28
  -1  -6   4  120.01    9.49
  -1  -6   4  107.65    9.52
   0   6  -4  331.03   26.38
   0   6  -4  303.07   26.09
   0   6  -4  289.37   26.28
   0  -6   4  367.14   26.32
   0  -6   4  333.30   26.07
   0  -6   4  341.30   26.33
   0  -6   4  372.51   26.24
  -1   6  -4  234.27   20.04
  -1   6  -4  241.98   19.91
   1  -6   4  239.28   20.13
   1  -6   4  298.58   19.98
  -2   6  -4   65.78    5.27
  -2   6  -4   57.77    4.98
  -2   6  -4   58.28    4.91
   2  -6   4   48.52    5.16
   2  -6   4   44.86    5.24
   2  -6   4   62.67    5.02
   2  -6   4   60.28    4.99
  -3   6  -4   14.35    1.99
  -3   6  -4   10.81    1.71
  -3   6  -4   13.21    2.08
   3  -6   4   15.10    1.90
   3  -6   4   14.33    2.07
  -4   6  -4   78.10    6.47
  -4   6  -4   73.34    6.22
   4  -6   4   75.96    6.27
   4  -6   4   68.38    6.44
   4  -6   4   63.31    6.64
  -5   6  -4   13.08    2.01
   5  -6   4   15.47    2.27
   5  -6   4   11.33    2.30
  -6   6  -4    8.61    1.54
   6  -6   4    7.98    2.02
   6  -6   4    6.91    2.15
  -7   6  -4   13.96    2.16
   7  -6   4   14.75    3.02
   7  -6   4   20.12    3.28
   8  -6   4   11.52    3.00
   8  -6   4   10.38    2.51
   9   5  -4    5.00    1.99
   9   5  -4    4.25    2.47
  -9  -5   4    3.63    3.52
  -9  -5   4    8.68    2.81
   8   5  -4    0.19    1.88
   8   5  -4   -0.35    1.70
  -8  -5   4    1.71    2.44
  -8  -5   4    3.86    3.26
   7   5  -4    8.37    1.76
   7   5  -4    9.10    1.95
  -7  -5   4    9.72    2.87
  -7  -5   4   10.04    2.50
   6   5  -4   37.25    4.21
   6   5  -4   49.68    4.32
  -6  -5   4   48.82    5.03
  -6  -5   4   41.46    5.41
   5   5  -4  501.55   36.90
   5   5  -4  413.08   37.44
   5   5  -4  454.20   37.45
  -5  -5   4  398.88   36.94
  -5  -5   4  516.54   37.39
  -5  -5   4  520.95   37.11
  -5  -5   4  504.06   37.53
   4   5  -4  123.41   11.63
   4   5  -4  160.85   11.13
   4   5  -4  141.88   10.97
   4   5  -4  131.00   11.65
  -4  -5   4  143.87   11.43
  -4  -5   4  132.89   11.12
  -4  -5   4  131.70   11.48
  -4  -5   4  123.13   11.20
   3   5  -4  284.42   22.17
   3   5  -4  295.26   22.30
   3   5  -4  248.14   22.64
   3   5  -4  288.54   22.68
  -3  -5   4  275.35   22.57
  -3  -5   4  298.89   22.33
  -3  -5   4  304.97   22.40
  -3  -5   4  290.71   22.55
  -3  -5   4  260.41   22.23
   2   5  -4    4.01    0.86
   2   5  -4    1.86    1.46
   2   5  -4    6.45    1.71
  -2  -5   4    4.00    0.97
  -2  -5   4    3.62    0.95
  -2  -5   4    5.31    1.05
  -2  -5   4    3.71    1.04
   1   5  -4   57.78    5.38
   1   5  -4   58.86    4.93
   1   5  -4   57.79    5.46
  -1  -5   4   63.11    4.95
  -1  -5   4   62.85    5.08
  -1  -5   4   58.22    5.15
  -1  -5   4   55.71    5.14
   0   5  -4  468.95   38.10
   0   5  -4  472.80   38.04
   0   5  -4  480.27   37.87
   0  -5   4  485.91   38.03
   0  -5   4  514.69   38.01
   0  -5   4  509.11   37.86
   0  -5   4  484.59   38.06
  -1   5  -4    5.58    1.00
  -1   5  -4    6.59    1.35
  -1   5  -4    6.23    1.23
   1  -5   4    8.33    1.29
   1  -5   4    5.86    1.24
   1  -5   4    8.30    1.30
  -2   5  -4   95.01    8.09
  -2   5  -4   89.56    8.07
  -2   5  -4  108.23    8.22
   2  -5   4  104.70    8.19
   2  -5   4  104.83    8.20
  -3   5  -4   19.58    2.15
  -3   5  -4   20.95    2.32
   3  -5   4   19.24    2.06
   3  -5   4   21.10    2.44
   3  -5   4   13.50    2.43
  -4   5  -4    2.94    1.03
  -4   5  -4    4.75    1.23
   4  -5   4    1.74    1.18
   4  -5   4    3.34    1.44
   4  -5   4    3.32    0.93
  -5   5  -4  199.45   16.21
  -5   5  -4  222.76   16.23
   5  -5   4  204.00   16.39
   5  -5   4  189.36   16.73
   5  -5   4  205.09   16.59
  -6   5  -4  130.98   10.61
  -6   5  -4  127.92   10.62
   6  -5   4  138.99   10.99
   6  -5   4  126.67   11.24
  -7   5  -4   43.18    4.20
   7  -5   4   47.60    5.17
   8  -5   4   10.56    2.97
   8  -5   4    9.50    2.54
   9  -5   4    1.42    2.03
   9  -5   4   -1.95    2.85
  10   4  -4   13.19    2.97
  10   4  -4   10.88    2.34
 -10  -4   4    3.86    3.64
 -10  -4   4   13.18    3.18
   9   4  -4    8.64    2.34
   9   4  -4   10.27    2.56
  -9  -4   4   10.86    3.07
  -9  -4   4   10.38    3.98
   8   4  -4  135.34   11.71
   8   4  -4  150.92   11.83
  -8  -4   4  128.50   12.65
  -8  -4   4  139.51   12.22
   7   4  -4  117.69   10.74
   7   4  -4  143.27   10.83
  -7  -4   4  124.15   11.61
   6   4  -4    2.19    0.87
   6   4  -4    1.25    1.83
   6   4  -4    2.69    1.13
   6   4  -4    3.73    2.36
  -6  -4   4    2.92    1.59
  -6  -4   4    1.64    1.80
  -6  -4   4   -0.43    1.30
   5   4  -4  414.23   32.48
   5   4  -4  382.34   33.02
   5   4  -4  398.71   33.01
  -5  -4   4  462.70   32.71
  -5  -4   4  420.17   33.02
  -5  -4   4  377.09   32.56
  -5  -4   4  455.76   32.98
   4   4  -4  105.38    9.98
   4   4  -4  117.56   10.02
   4   4  -4  118.68    9.35
  -4  -4   4  111.06    9.80
  -4  -4   4  122.52    9.84
  -4  -4   4  131.35    9.57
  -4  -4   4  106.05    9.46
   3   4  -4 1606.07  123.76
   3   4  -4 1549.58  123.40
   3   4  -4 1511.32  123.83
  -3  -4   4 1633.90  123.80
  -3  -4   4 1738.28  123.57
  -3  -4   4 1625.74  123.78
  -3  -4   4 1547.70  123.52
  -3  -4   4 1583.84  123.49
   2   4  -4    2.32    1.24
   2   4  -4    1.36    1.12
   2   4  -4    1.48    0.53
   2   4  -4    1.51    0.52
  -2  -4   4    1.73    0.75
  -2  -4   4    2.32    0.68
  -2  -4   4    1.62    0.75
  -2  -4   4    2.40    0.91
   1   4  -4 1237.53  100.46
   1   4  -4 1280.17  100.35
   1   4  -4 1317.10  100.17
  -1  -4   4 1299.66  100.39
  -1  -4   4 1257.33  100.16
  -1  -4   4 1246.78  100.39
  -1  -4   4 1449.05  100.28
   0   4  -4    1.64    0.87
   0   4  -4    2.10    0.51
   0   4  -4    2.03    0.81
   0  -4   4    0.35    0.57
   0  -4   4    1.78    0.59
   0  -4   4    1.35    0.57
   0  -4   4    0.82    0.50
  -1   4  -4   46.02    4.41
  -1   4  -4   50.79    4.29
   1  -4   4   55.42    4.37
   1  -4   4   52.87    4.28
   1  -4   4   50.73    4.26
  -2   4  -4   26.66    2.74
  -2   4  -4   31.75    2.77
  -2   4  -4   27.33    3.37
   2  -4   4   27.66    2.76
   2  -4   4   34.10    2.93
   2  -4   4   35.92    2.63
  -3   4  -4   13.30    1.48
   3  -4   4   10.05    1.77
   3  -4   4    9.03    1.64
   3  -4   4   11.60    1.39
  -4   4  -4  555.78   41.11
  -4   4  -4  523.64   41.13
   4  -4   4  537.34   41.43
   4  -4   4  493.17   41.60
   4  -4   4  542.31   41.29
  -5   4  -4   79.04    6.79
  -5   4  -4   84.78    6.79
   5  -4   4   90.20    7.47
   5  -4   4   85.31    6.99
   5  -4   4   75.30    7.27
  -6   4  -4    2.46    1.16
  -6   4  -4    2.49    1.04
   6  -4   4    2.74    1.81
   6  -4   4    2.53    1.35
   6  -4   4    0.30    1.50
  -7   4  -4   -2.59    1.04
  -7   4  -4   -2.35    1.00
   7  -4   4   -2.01    1.38
   7  -4   4   -0.96    1.48
   8  -4   4    1.89    2.38
   8  -4   4    2.43    1.96
   9  -4   4   12.62    3.38
   9  -4   4   15.65    2.82
   9  -4   4   22.79    3.90
  10   3  -4   48.25    6.20
  10   3  -4   43.69    5.10
 -10  -3   4   40.04    6.74
 -10  -3   4   59.09    7.40
   9   3  -4    1.51    1.88
   9   3  -4    6.32    2.27
   9   3  -4    6.16    1.76
  -9  -3   4    5.86    3.62
  -9  -3   4    4.85    2.66
   8   3  -4   66.13    6.54
   8   3  -4   74.71    6.71
   8   3  -4   79.24    6.57
  -8  -3   4   62.07    7.80
  -8  -3   4   70.92    7.18
   7   3  -4   15.85    2.41
   7   3  -4   17.64    2.62
   7   3  -4   17.83    2.39
  -7  -3   4   13.29    3.07
  -7  -3   4   15.70    2.73
   6   3  -4  284.85   22.78
   6   3  -4  270.71   23.35
   6   3  -4  313.43   22.81
   6   3  -4  268.74   23.22
  -6  -3   4  317.51   22.99
  -6  -3   4  309.77   23.24
  -6  -3   4  290.07   23.32
  -6  -3   4  249.42   22.78
   5   3  -4   53.45    5.75
   5   3  -4   66.36    5.10
   5   3  -4   56.95    5.10
   5   3  -4   57.25    5.87
  -5  -3   4   51.91    5.21
  -5  -3   4   62.94    5.58
  -5  -3   4   59.24    5.73
  -5  -3   4   64.86    5.34
   4   3  -4  490.25   33.58
   4   3  -4  392.71   34.01
   4   3  -4  407.35   33.54
   4   3  -4  418.43   33.92
  -4  -3   4  427.75   33.98
  -4  -3   4  433.18   33.95
  -4  -3   4  470.37   33.72
  -4  -3   4  407.52   33.64
   3   3  -4  395.77   32.35
   3   3  -4  437.85   31.93
  -3  -3   4  407.75   31.99
  -3  -3   4  365.98   31.94
  -3  -3   4  431.09   32.30
  -3  -3   4  430.51   32.32
   2   3  -4    1.02    0.40
   2   3  -4    0.32    0.93
   2   3  -4    2.02    0.48
  -2  -3   4    2.33    0.68
   1   3  -4 1605.84  134.57
   1   3  -4 1775.78  134.41
  -1  -3   4 1822.15  134.49
  -1  -3   4 1765.94  134.57
   0   3  -4 1272.82   98.61
   0   3  -4 1266.68   98.36
   0  -3   4 1299.61   98.50
   0  -3   4 1264.39   98.55
  -1   3  -4  640.16   52.77
   1  -3   4  723.06   52.68
   2  -3   4  276.42   19.89
   2  -3   4  248.32   19.81
   2  -3   4  239.32   19.71
   3  -3   4   33.25    3.04
   3  -3   4   31.07    2.73
   3  -3   4   28.50    3.00
  -4   3  -4    9.56    1.11
  -4   3  -4   11.98    1.23
   4  -3   4    8.61    1.30
   4  -3   4    9.61    1.66
   4  -3   4    8.71    1.71
  -5   3  -4   95.12    7.09
   5  -3   4   92.26    7.36
   5  -3   4   78.12    7.72
   5  -3   4   85.05    7.63
  -6   3  -4   67.08    5.71
   6  -3   4   75.36    6.09
   6  -3   4   63.78    6.29
  -7   3  -4  184.53   15.09
   7  -3   4  193.49   15.64
   7  -3   4  197.67   15.84
   8  -3   4  195.72   15.39
   8  -3   4  172.54   15.41
   9  -3   4  214.55   18.34
   9  -3   4  228.09   18.53
  10   2  -4   -0.04    2.60
  10   2  -4    1.03    1.51
  10   2  -4    3.31    1.93
 -10  -2   4    4.96    3.82
 -10  -2   4    3.84    3.23
   9   2  -4   13.42    2.68
   9   2  -4   12.93    2.73
   9   2  -4   16.75    2.66
  -9  -2   4   18.71    4.43
  -9  -2   4   15.93    3.22
   8   2  -4   18.39    2.92
   8   2  -4   22.96    2.79
   8   2  -4   15.53    2.75
  -8  -2   4   20.75    3.68
   7   2  -4    6.37    1.76
   7   2  -4   12.95    1.92
   7   2  -4    7.45    2.22
   7   2  -4    8.63    1.64
  -7  -2   4   10.34    2.11
  -7  -2   4   12.41    2.64
   6   2  -4  133.63   12.25
   6   2  -4  130.81   12.32
   6   2  -4  147.18   11.70
   6   2  -4  162.51   11.76
   6   2  -4  140.76   11.71
  -6  -2   4  153.48   11.86
  -6  -2   4  151.06   12.12
  -6  -2   4  145.21   12.27
  -6  -2   4  129.69   11.75
   5   2  -4  435.80   33.67
   5   2  -4  479.79   33.76
   5   2  -4  432.82   34.09
   5   2  -4  464.00   33.74
   5   2  -4  392.45   34.10
  -5  -2   4  422.04   34.11
  -5  -2   4  442.00   33.80
  -5  -2   4  391.96   33.74
  -5  -2   4  424.49   34.04
   4   2  -4  127.11   11.18
   4   2  -4  138.93   10.85
   4   2  -4  148.33   10.79
   4   2  -4  121.24   11.28
  -4  -2   4  134.12   11.23
  -4  -2   4  133.64   11.21
  -4  -2   4  129.37   10.90
  -4  -2   4  150.95   10.97
   3   2  -4  505.48   42.64
   3   2  -4  552.38   42.52
   3   2  -4  516.34   42.25
  -3  -2   4  546.93   42.58
  -3  -2   4  550.74   42.64
  -3  -2   4  602.79   42.40
   2   2  -4    0.50    0.27
   2   2  -4    0.52    0.73
   2   2  -4    0.30    0.33
   2   2  -4    1.24    1.02
  -2  -2   4   -0.46    0.59
  -2  -2   4    0.27    0.64
  -2  -2   4    0.36    0.45
  -2  -2   4    0.69    0.49
   1   2  -4  328.46   26.84
   1   2  -4  376.11   26.47
   1   2  -4  357.64   26.56
  -1  -2   4  339.36   26.50
  -1  -2   4  333.70   26.80
  -1  -2   4  311.89   26.78
  -1  -2   4  348.08   26.51
   0   2  -4  684.26   55.18
   0  -2   4  730.01   54.90
   0  -2   4  722.15   54.98
   0  -2   4  711.67   55.17
   1  -2   4 1233.36   95.21
   2  -2   4  172.68   15.38
   2  -2   4  194.61   15.17
   2  -2   4  202.70   15.18
   2  -2   4  205.81   15.11
   3  -2   4   -0.13    0.28
   3  -2   4    0.01    0.50
   3  -2   4   -0.17    0.39
   3  -2   4    0.69    0.81
   3  -2   4    0.25    0.34
   4  -2   4  142.74   11.90
   4  -2   4  150.41   11.91
   4  -2   4  146.69   11.64
  -5   2  -4    0.98    1.29
  -5   2  -4    0.02    0.62
   5  -2   4    1.27    0.72
   5  -2   4    0.26    1.43
   5  -2   4    0.34    0.89
   6  -2   4  117.94    9.04
   6  -2   4  109.47    9.22
   6  -2   4   94.89    9.51
  -7   2  -4   29.16    2.77
   7  -2   4   28.71    3.69
   7  -2   4   22.60    4.28
   7  -2   4   32.76    3.54
  -8   2  -4    1.57    1.17
   8  -2   4    0.32    1.94
   8  -2   4    0.02    1.61
   8  -2   4    0.79    2.58
   9  -2   4    2.17    2.76
   9  -2   4   -1.72    2.58
   9  -2   4    4.06    2.01
  10   1  -4    5.41    1.92
  10   1  -4    6.71    2.04
  10   1  -4    4.12    2.81
 -10  -1   4    2.92    2.88
 -10  -1   4    3.09    3.81
   9   1  -4  160.66   12.66
   9   1  -4  145.83   12.73
   9   1  -4  133.58   12.77
  -9  -1   4  153.32   13.04
  -9  -1   4  164.12   13.99
   8   1  -4    3.74    1.63
   8   1  -4    1.68    1.31
   8   1  -4    3.45    4.13
   8   1  -4    0.94    1.17
  -8  -1   4    3.44    2.58
  -8  -1   4   -0.52    1.69
   7   1  -4  148.88   14.12
   7   1  -4  172.69   14.23
   7   1  -4  197.30   14.23
  -7  -1   4  173.52   14.51
  -7  -1   4  184.66   14.88
   6   1  -4    9.30    1.48
   6   1  -4    8.48    1.55
   6   1  -4    8.43    1.57
   6   1  -4    7.67    2.24
   6   1  -4    7.55    2.09
  -6  -1   4    7.52    1.66
  -6  -1   4   10.34    2.12
  -6  -1   4    8.30    1.60
  -6  -1   4    7.19    1.70
   5   1  -4   88.27    6.89
   5   1  -4   87.17    7.47
   5   1  -4   73.86    7.41
   5   1  -4   82.79    6.93
   5   1  -4   75.56    6.83
  -5  -1   4   85.88    7.26
  -5  -1   4   88.37    7.37
  -5  -1   4   79.99    7.02
  -5  -1   4   88.72    7.03
   4   1  -4  328.29   25.74
   4   1  -4  289.01   25.36
   4   1  -4  312.68   25.85
   4   1  -4  325.60   25.47
   4   1  -4  364.07   25.50
  -4  -1   4  315.70   25.79
  -4  -1   4  319.21   25.53
  -4  -1   4  335.21   25.81
  -4  -1   4  346.53   25.52
   3   1  -4    4.22    1.56
   3   1  -4    3.69    0.68
   3   1  -4    4.28    1.16
   3   1  -4    4.71    0.63
  -3  -1   4    4.78    0.79
  -3  -1   4    4.14    0.87
  -3  -1   4    2.77    0.95
  -3  -1   4    3.42    0.93
   2   1  -4  369.08   27.29
   2   1  -4  340.81   27.52
   2   1  -4  337.54   27.13
  -2  -1   4  390.33   27.23
  -2  -1   4  351.30   27.35
  -2  -1   4  336.85   27.19
  -2  -1   4  326.42   27.47
   1   1  -4 1543.21  119.16
  -1  -1   4 1565.24  118.91
  -1  -1   4 1518.44  119.14
   0  -1   4 2113.96  163.08
   1  -1   4    7.09    1.02
   2  -1   4  341.35   25.75
   2  -1   4  319.22   25.98
   2  -1   4  336.89   25.70
   3  -1   4  138.83   10.32
   3  -1   4  133.04   10.45
   3  -1   4  120.48   10.52
   4  -1   4  108.83    8.27
   4  -1   4   98.92    8.32
   4  -1   4  106.97    8.54
   4  -1   4   99.06    8.58
  -5   1  -4    0.23    1.28
  -5   1  -4    0.18    0.53
   5  -1   4    0.31    0.70
   5  -1   4    0.23    1.06
   5  -1   4    0.36    0.76
   5  -1   4    0.79    1.52
   5  -1   4    1.05    0.72
  -6   1  -4    0.83    1.42
  -6   1  -4   -0.40    0.59
   6  -1   4    0.23    1.38
   6  -1   4    1.88    1.03
   6  -1   4    0.86    0.97
   6  -1   4   -1.83    1.90
   6  -1   4    0.34    0.91
  -7   1  -4   69.29    5.14
  -7   1  -4   59.56    5.02
   7  -1   4   55.48    6.81
   7  -1   4   61.32    5.34
   7  -1   4   53.85    6.47
  -8   1  -4    5.89    1.08
   8  -1   4    4.22    1.77
   8  -1   4    2.99    2.54
   8  -1   4    1.97    2.04
   9  -1   4   54.00    5.32
   9  -1   4   39.56    6.42
   9  -1   4   45.45    6.00
  10   0  -4   94.13   10.30
  10   0  -4  109.55    9.74
  10   0  -4  117.80    9.65
 -10   0   4  111.81   11.41
 -10   0   4  110.65   10.22
   9   0  -4    3.43    2.08
   9   0  -4    5.37    2.05
   9   0  -4    3.30    1.69
  -9   0   4    5.51    2.31
  -9   0   4    8.15    3.33
   8   0  -4   -0.82    0.96
   8   0  -4    0.76    1.28
   8   0  -4    1.78    2.17
   8   0  -4    0.07    1.48
  -8   0   4   -1.15    1.63
  -8   0   4   -1.12    2.33
   7   0  -4   99.47    9.57
   7   0  -4  118.53    8.93
   7   0  -4   99.95    8.93
  -7   0   4  108.48    9.32
  -7   0   4   97.32    9.25
  -7   0   4  109.85    9.65
   6   0  -4    2.02    0.78
   6   0  -4    1.82    0.84
   6   0  -4    0.25    1.65
   6   0  -4   -0.53    1.77
   6   0  -4    1.23    0.99
  -6   0   4    1.65    1.25
  -6   0   4    0.15    1.02
  -6   0   4    2.33    1.52
  -6   0   4    2.70    1.30
   5   0  -4  412.56   34.86
   5   0  -4  486.70   34.53
   5   0  -4  438.85   34.79
   5   0  -4  453.78   34.57
  -5   0   4  437.80   34.83
  -5   0   4  435.76   34.89
  -5   0   4  438.91   34.56
  -5   0   4  433.45   34.58
   4   0  -4  243.80   18.45
   4   0  -4  250.89   18.17
   4   0  -4  232.96   18.20
   4   0  -4  215.78   18.55
  -4   0   4  223.30   18.49
  -4   0   4  234.55   18.20
  -4   0   4  229.59   18.26
  -4   0   4  216.92   18.44
   3   0  -4   63.21    5.35
   3   0  -4   60.20    5.13
   3   0  -4   62.02    5.65
   3   0  -4   67.89    5.11
  -3   0   4   57.73    5.45
  -3   0   4   62.57    5.37
  -3   0   4   61.76    5.23
  -3   0   4   63.83    5.14
   2   0  -4 1584.84  116.44
   2   0  -4 1432.32  116.35
  -2   0   4 1545.54  116.53
  -2   0   4 1534.34  116.43
  -2   0   4 1450.41  116.70
   1   0  -4   27.49    2.29
   1   0  -4   28.46    2.29
  -1   0   4   32.63    2.38
  -1   0   4   27.25    2.48
  -1   0   4   28.69    2.42
  -1   0   4   26.53    2.80
   0   0   4  154.59   13.29
   0   0   4  178.71   13.11
   0   0   4  175.97   13.13
   1   0   4    5.62    0.97
   2   0   4  187.37   13.84
   2   0   4  149.48   14.18
   2   0   4  197.54   13.90
   2   0   4  176.06   14.00
   3   0   4   76.26    6.32
   3   0   4   73.58    6.33
   3   0   4   80.59    6.20
  -4   0  -4   39.78    4.57
   4   0   4   58.97    4.46
   4   0   4   50.36    4.31
   4   0   4   56.27    4.48
   4   0   4   48.18    4.66
  -5   0  -4   38.00    3.13
  -5   0  -4   33.26    3.94
   5   0   4   37.13    4.17
   5   0   4   47.80    3.62
   5   0   4   42.61    3.64
   5   0   4   35.86    3.67
   5   0   4   31.58    4.09
  -6   0  -4    3.77    1.44
  -6   0  -4    0.43    0.73
  -6   0  -4    0.35    0.68
   6   0   4    0.06    0.84
   6   0   4    0.91    0.95
   6   0   4   -0.75    2.04
   6   0   4   -0.56    1.36
  -7   0  -4    1.36    0.82
  -7   0  -4    0.28    0.75
   7   0   4   -0.19    1.51
   7   0   4    3.15    2.04
   7   0   4    0.95    1.34
   7   0   4    1.83    1.40
  -8   0  -4   39.40    3.42
   8   0   4   39.12    4.70
   8   0   4   41.37    4.32
   8   0   4   27.94    5.21
   9   0   4    4.79    1.97
   9   0   4    2.91    2.55
   9   0   4    1.48    2.65
  10  -1  -4   13.43    3.47
  10  -1  -4   16.02    3.03
 -10   1   4   22.81    4.68
 -10   1   4   18.33    3.23
   9  -1  -4   55.34    5.86
   9  -1  -4   56.54    5.46
  -9   1   4   49.26    7.43
  -9   1   4   54.07    6.08
   8  -1  -4   39.11    4.60
   8  -1  -4   45.91    4.39
  -8   1   4   41.99    5.80
  -8   1   4   44.35    5.02
   7  -1  -4   13.55    2.43
   7  -1  -4   20.59    2.40
   7  -1  -4   21.22    2.70
  -7   1   4   19.94    3.05
  -7   1   4   22.43    3.46
  -7   1   4   17.02    2.59
   6  -1  -4  267.72   19.30
   6  -1  -4  237.59   19.33
   6  -1  -4  248.40   19.70
  -6   1   4  232.28   19.56
  -6   1   4  244.69   19.42
  -6   1   4  231.35   19.34
  -6   1   4  236.97   19.77
   5  -1  -4    1.53    0.67
   5  -1  -4    2.71    0.90
   5  -1  -4    3.37    1.63
  -5   1   4    2.29    1.16
  -5   1   4    0.54    1.13
  -5   1   4    1.01    0.86
  -5   1   4    2.68    1.10
   4  -1  -4   21.90    2.76
   4  -1  -4   22.03    2.31
   4  -1  -4   26.47    2.21
  -4   1   4   19.88    2.61
  -4   1   4   23.19    2.59
  -4   1   4   22.98    2.46
  -4   1   4   20.85    2.54
   3  -1  -4 1747.93  127.21
   3  -1  -4 1619.41  127.10
  -3   1   4 1524.42  127.38
  -3   1   4 1638.63  127.07
  -3   1   4 1706.21  127.32
   2  -1  -4 1228.75   94.07
   2  -1  -4 1201.30   94.05
  -2   1   4 1194.78   94.18
  -2   1   4 1266.50   94.12
  -2   1   4 1203.77   94.42
   1  -1  -4  292.51   24.10
   1  -1  -4  312.48   24.15
   1  -1  -4  300.56   24.07
  -1   1   4  314.29   24.17
  -1   1   4  303.04   24.24
  -1   1   4  355.57   24.15
  -1   1   4  300.48   24.04
   0   1   4  257.90   23.70
   0   1   4  311.27   23.75
   0   1   4  320.81   23.79
   0   1   4  339.56   23.90
   1   1   4  436.58   36.88
   1   1   4  484.90   36.65
   1   1   4  491.07   36.70
   1   1   4  486.09   36.69
   2   1   4  117.60   10.62
   2   1   4  144.86   10.39
   3   1   4   96.89    7.40
   3   1   4   77.66    7.68
   3   1   4   95.18    7.34
   3   1   4   96.12    7.57
  -4  -1  -4  260.66   20.94
  -4  -1  -4  254.80   20.92
   4   1   4  271.61   21.43
   4   1   4  236.75   21.63
   4   1   4  290.77   21.27
   4   1   4  309.39   21.38
  -5  -1  -4   38.82    3.36
  -5  -1  -4   31.46    3.99
   5   1   4   44.36    3.69
   5   1   4   35.82    4.19
   5   1   4   41.83    4.02
   5   1   4   38.21    4.40
   5   1   4   45.69    3.71
  -6  -1  -4   18.99    2.06
  -6  -1  -4   12.52    2.35
  -6  -1  -4   19.39    2.06
   6   1   4   18.22    3.19
   6   1   4   18.24    2.41
   6   1   4   20.55    3.09
   6   1   4   13.22    2.72
   6   1   4   24.26    2.50
  -7  -1  -4  107.87    8.44
  -7  -1  -4   95.67    8.36
   7   1   4  100.25    9.69
   7   1   4  119.78    9.06
   7   1   4   99.61    9.18
  -8  -1  -4   81.58    6.76
   8   1   4   64.92    8.22
   8   1   4   87.43    7.45
   8   1   4   93.67    7.81
   9   1   4    1.98    2.61
   9   1   4    1.47    2.35
   9   1   4    2.78    1.93
  10  -2  -4   71.80    6.57
  10  -2  -4   54.45    7.71
  10  -2  -4   74.35    6.56
 -10   2   4   70.04    8.71
 -10   2   4   59.40    9.19
   9  -2  -4    0.72    1.99
   9  -2  -4    2.68    1.79
  -9   2   4    3.69    2.17
  -9   2   4    1.04    3.59
   8  -2  -4   11.10    2.41
   8  -2  -4   13.57    2.38
  -8   2   4   13.39    2.52
  -8   2   4   13.86    3.36
   7  -2  -4    1.78    1.06
   7  -2  -4    3.69    1.51
  -7   2   4    1.49    1.45
  -7   2   4    2.28    1.46
  -7   2   4    1.11    2.14
   6  -2  -4    1.80    0.79
   6  -2  -4    0.17    1.08
   6  -2  -4    0.54    1.57
  -6   2   4    1.89    1.25
  -6   2   4    2.87    1.41
  -6   2   4   -0.61    1.21
  -6   2   4    0.31    1.64
   5  -2  -4  309.73   24.25
   5  -2  -4  286.75   24.05
   5  -2  -4  330.23   24.00
  -5   2   4  317.46   24.16
  -5   2   4  305.49   24.42
  -5   2   4  293.22   24.31
  -5   2   4  295.00   24.08
   4  -2  -4  108.31    8.87
   4  -2  -4  113.31    9.06
   4  -2  -4  116.55    8.77
  -4   2   4   93.41    9.08
  -4   2   4  107.80    9.14
  -4   2   4  112.57    8.97
   3  -2  -4  338.41   24.80
   3  -2  -4  316.00   24.90
   3  -2  -4  293.73   24.77
  -3   2   4  319.32   24.87
  -3   2   4  325.84   25.10
  -3   2   4  302.77   25.22
  -3   2   4  335.37   24.98
   2  -2  -4 2076.09  165.44
   2  -2  -4 2053.02  165.46
  -2   2   4 2273.67  165.62
  -2   2   4 2183.34  165.52
   1  -2  -4  250.10   20.44
   1  -2  -4  245.49   20.49
   1  -2  -4  281.98   20.58
  -1   2   4  291.01   20.57
  -1   2   4  267.95   20.57
  -1   2   4  244.20   20.54
   0  -2  -4   91.33    6.89
   0   2   4   96.53    7.08
   0   2   4   78.37    7.00
   0   2   4   83.63    6.93
  -1  -2  -4   12.73    1.27
  -1  -2  -4   13.50    1.22
  -1  -2  -4   10.51    1.18
  -1  -2  -4   10.60    1.70
   1   2   4   13.41    1.10
   1   2   4   15.50    1.50
   1   2   4   15.01    1.26
  -2  -2  -4    0.63    0.44
  -2  -2  -4    0.69    0.49
  -2  -2  -4    0.36    0.83
  -2  -2  -4    0.34    0.34
   2   2   4    0.32    0.79
   2   2   4    0.26    0.27
   2   2   4   -0.02    0.43
   2   2   4   -0.06    0.30
  -3  -2  -4   94.22    7.65
  -3  -2  -4   85.95    7.86
   3   2   4   81.39    8.08
   3   2   4  114.56    8.15
   3   2   4  101.48    7.79
   3   2   4  107.38    7.80
  -4  -2  -4  246.88   19.60
  -4  -2  -4  242.38   19.62
  -4  -2  -4  226.98   19.88
   4   2   4  266.46   20.15
   4   2   4  230.65   20.22
   4   2   4  256.94   19.80
   4   2   4  264.63   19.80
   4   2   4  283.39   20.06
  -5  -2  -4   61.35    5.31
  -5  -2  -4   58.54    5.80
   5   2   4   72.91    5.55
   5   2   4   62.34    6.27
   5   2   4   63.14    6.11
   5   2   4   62.70    5.52
   5   2   4   67.28    6.02
  -6  -2  -4    3.00    1.46
  -6  -2  -4    0.61    1.02
   6   2   4    2.46    1.92
   6   2   4    1.39    1.04
   6   2   4    0.91    0.84
   6   2   4   -1.13    1.79
  -7  -2  -4  109.66    9.58
   7   2   4  121.13   10.89
   7   2   4  130.61   10.12
   7   2   4  118.52   10.18
   7   2   4  117.43   10.37
   8   2   4  199.06   15.93
   8   2   4  205.86   16.15
   8   2   4  175.90   16.64
   9   2   4   27.36    4.10
   9   2   4   27.93    4.21
   9   2   4   23.60    4.25
  10  -3  -4    0.17    1.95
  10  -3  -4    3.27    3.21
  10  -3  -4    4.17    1.80
 -10   3   4   13.29    3.78
   9  -3  -4  102.13    8.78
   9  -3  -4   96.44    8.95
  -9   3   4  101.07   10.34
  -9   3   4   91.41    8.96
   8  -3  -4   64.44    6.42
   8  -3  -4   69.27    6.17
  -8   3   4   58.48    6.44
  -8   3   4   70.52    7.69
   7  -3  -4  143.08   10.63
  -7   3   4  112.32   11.67
  -7   3   4  120.94   10.87
   6  -3  -4  359.82   27.39
   6  -3  -4  328.11   27.48
   6  -3  -4  381.05   27.27
  -6   3   4  362.23   27.84
  -6   3   4  310.99   27.39
  -6   3   4  328.86   27.52
  -6   3   4  351.37   27.39
   5  -3  -4  152.93   11.48
   5  -3  -4  144.64   11.83
   5  -3  -4  144.09   11.60
  -5   3   4  138.03   11.93
  -5   3   4  140.86   11.90
  -5   3   4  144.09   11.67
  -5   3   4  130.92   11.64
   4  -3  -4   11.12    1.93
   4  -3  -4   15.43    1.64
   4  -3  -4   15.48    1.88
   4  -3  -4   18.31    2.43
  -4   3   4   13.50    2.06
  -4   3   4   17.66    2.34
  -4   3   4   14.08    2.15
  -4   3   4   15.55    2.31
   3  -3  -4 1190.39   95.53
   3  -3  -4 1278.83   95.58
   3  -3  -4 1242.89   95.40
   3  -3  -4 1191.64   95.46
  -3   3   4 1246.98   95.74
  -3   3   4 1266.78   95.61
   2  -3  -4  329.77   27.49
   2  -3  -4  361.73   27.48
   2  -3  -4  380.99   27.49
   2  -3  -4  330.12   27.34
  -2   3   4  355.25   27.58
  -2   3   4  360.13   27.64
   1  -3  -4  140.61   10.55
   1  -3  -4  141.53   10.72
   1  -3  -4  127.39   10.77
  -1   3   4  138.12   10.87
  -1   3   4  132.92   10.84
   0  -3  -4   -0.01    0.42
   0  -3  -4   -0.06    0.44
   0  -3  -4    0.36    0.71
   0   3   4    1.45    0.80
   0   3   4   -0.41    0.33
   0   3   4    0.23    0.42
  -1  -3  -4   26.31    2.22
  -1  -3  -4   22.03    2.62
  -1  -3  -4   21.99    2.01
  -1  -3  -4   21.84    2.17
   1   3   4   26.64    2.38
   1   3   4   30.44    2.68
   1   3   4   24.15    2.14
  -2  -3  -4    9.27    1.24
  -2  -3  -4    9.85    1.20
  -2  -3  -4    7.42    1.54
  -2  -3  -4   10.81    1.29
   2   3   4    9.88    1.62
   2   3   4   10.82    1.13
   2   3   4   11.13    1.39
  -3  -3  -4  189.42   16.52
  -3  -3  -4  212.08   16.57
  -3  -3  -4  208.15   16.66
   3   3   4  208.38   16.53
   3   3   4  228.42   17.03
   3   3   4  223.37   17.02
   3   3   4  213.38   16.61
  -4  -3  -4   65.33    5.50
  -4  -3  -4   56.66    5.72
  -4  -3  -4   54.88    5.47
   4   3   4   75.94    6.19
   4   3   4   74.02    6.16
   4   3   4   68.21    6.27
   4   3   4   72.75    5.51
   4   3   4   67.02    5.58
  -5  -3  -4   37.14    4.55
  -5  -3  -4   44.89    4.16
  -5  -3  -4   44.00    4.05
   5   3   4   55.83    4.33
   5   3   4   48.37    4.80
   5   3   4   47.84    4.13
   5   3   4   49.87    4.88
   5   3   4   43.00    5.24
  -6  -3  -4   -0.46    1.41
   6   3   4    0.16    0.83
   6   3   4   -0.43    1.69
   6   3   4    2.05    1.51
   6   3   4   -0.06    1.12
   7   3   4    6.65    2.51
   7   3   4    7.02    1.98
   7   3   4    7.56    2.56
   8   3   4   -4.24    2.10
   8   3   4    0.32    1.74
   8   3   4    2.79    2.23
   9   3   4    0.96    2.34
   9   3   4   -0.21    1.88
   9   3   4    1.92    2.63
  10  -4  -4    1.78    3.26
  10  -4  -4   -1.76    2.05
  10  -4  -4    1.78    1.69
 -10   4   4    1.21    3.65
   9  -4  -4    9.27    2.60
   9  -4  -4    8.74    2.31
  -9   4   4    6.25    3.86
   8  -4  -4   -1.15    1.76
   8  -4  -4    1.29    1.56
  -8   4   4   -2.15    1.93
  -8   4   4    3.44    3.01
   7  -4  -4    6.36    1.89
   7  -4  -4    4.39    1.47
  -7   4   4    3.44    2.61
  -7   4   4    1.91    1.77
   6  -4  -4   36.24    4.07
   6  -4  -4   43.86    3.79
   6  -4  -4   34.11    4.00
  -6   4   4   33.41    4.28
  -6   4   4   39.57    4.92
  -6   4   4   39.60    4.40
   5  -4  -4   89.48    7.91
   5  -4  -4  100.04    7.61
   5  -4  -4   95.39    7.77
   5  -4  -4   88.73    7.74
  -5   4   4   80.33    7.83
  -5   4   4   89.50    8.14
  -5   4   4   96.60    7.94
  -5   4   4   88.88    8.08
   4  -4  -4    1.90    0.93
   4  -4  -4    3.03    1.35
   4  -4  -4    2.92    0.73
   4  -4  -4    4.54    1.15
  -4   4   4    2.24    1.31
  -4   4   4    2.25    1.18
  -4   4   4    1.39    1.21
   3  -4  -4  109.55    8.49
   3  -4  -4  106.47    8.33
   3  -4  -4  104.43    8.55
   3  -4  -4   94.75    8.48
  -3   4   4   99.69    8.70
  -3   4   4  107.76    8.67
   2  -4  -4   98.79    8.56
   2  -4  -4  103.97    8.54
   2  -4  -4  120.04    8.63
   2  -4  -4  105.99    8.37
  -2   4   4   99.01    8.68
  -2   4   4  105.21    8.73
   1  -4  -4   -0.37    0.60
   1  -4  -4    1.28    0.71
   1  -4  -4   -0.16    0.54
   1  -4  -4    0.64    0.31
  -1   4   4    0.59    0.48
  -1   4   4    1.08    0.92
  -1   4   4    1.06    0.55
   0  -4  -4   33.19    2.57
   0  -4  -4   34.16    3.22
   0  -4  -4   33.20    2.93
   0  -4  -4   32.26    2.87
   0   4   4   29.23    2.88
  -1  -4  -4  843.05   65.71
  -1  -4  -4  843.80   65.66
  -1  -4  -4  825.91   65.49
  -1  -4  -4  740.05   65.97
   1   4   4  987.88   66.02
   1   4   4  859.46   65.70
  -2  -4  -4  155.26   12.74
  -2  -4  -4  158.02   12.85
  -2  -4  -4  161.85   12.84
   2   4   4  164.64   12.83
   2   4   4  173.80   13.28
  -3  -4  -4  399.03   33.95
  -3  -4  -4  423.54   33.98
  -3  -4  -4  408.69   33.95
   3   4   4  466.62   34.37
   3   4   4  485.22   34.39
   3   4   4  431.02   34.41
   3   4   4  445.65   33.99
  -4  -4  -4   -0.92    0.75
  -4  -4  -4   -0.69    1.70
  -4  -4  -4    0.63    1.37
  -4  -4  -4    0.41    1.08
   4   4   4    0.14    0.92
   4   4   4   -2.50    1.36
   4   4   4   -2.01    1.77
   4   4   4   -0.33    0.69
  -5  -4  -4   29.46    3.08
  -5  -4  -4   26.22    3.65
  -5  -4  -4   29.18    3.41
   5   4   4   35.37    4.44
   5   4   4   33.18    3.23
   5   4   4   29.75    3.80
   5   4   4   33.67    3.00
  -6  -4  -4    2.20    1.56
  -6  -4  -4    1.96    1.15
  -6  -4  -4    1.11    1.08
   6   4   4   -1.43    1.40
   6   4   4    0.71    0.95
   6   4   4    1.70    1.59
  -7  -4  -4    1.96    1.15
   7   4   4    3.42    1.86
   7   4   4    2.40    1.95
   7   4   4    1.40    2.15
   8   4   4   -1.44    2.07
   8   4   4    1.68    2.23
   8   4   4    1.44    1.93
   9  -5  -4    8.76    2.41
   9  -5  -4    8.90    2.46
  -9   5   4    7.50    3.97
  -9   5   4    9.69    2.39
   8  -5  -4   19.52    3.46
   8  -5  -4   21.92    3.45
  -8   5   4   27.19    4.79
  -8   5   4   19.92    3.31
   7  -5  -4   10.66    2.47
   7  -5  -4   18.23    2.74
  -7   5   4   11.20    2.57
  -7   5   4   10.88    3.17
   6  -5  -4  585.48   41.05
   6  -5  -4  532.76   42.38
   6  -5  -4  479.82   41.05
  -6   5   4  520.93   42.01
  -6   5   4  501.55   41.37
   5  -5  -4  189.89   14.88
   5  -5  -4  180.24   14.79
   5  -5  -4  192.04   14.63
   5  -5  -4  180.12   14.83
  -5   5   4  167.99   15.08
  -5   5   4  182.32   15.23
   4  -5  -4 1086.51   82.02
   4  -5  -4 1045.79   82.03
   4  -5  -4 1019.29   82.00
   4  -5  -4 1079.10   81.86
  -4   5   4 1049.54   82.30
  -4   5   4 1065.93   82.13
   3  -5  -4   55.65    4.60
   3  -5  -4   52.80    4.60
   3  -5  -4   49.00    4.27
   3  -5  -4   50.88    4.57
  -3   5   4   44.34    4.69
  -3   5   4   48.63    4.86
   2  -5  -4  103.94    8.47
   2  -5  -4  116.10    8.69
   2  -5  -4  105.10    8.74
  -2   5   4   99.11    8.88
  -2   5   4  108.12    8.87
   1  -5  -4    0.04    0.53
   1  -5  -4    1.09    0.85
   1  -5  -4    1.13    0.78
   1  -5  -4    0.68    0.70
  -1   5   4   -0.41    1.11
  -1   5   4    1.04    0.76
  -1   5   4    0.00    0.59
   0  -5  -4   15.93    1.93
   0  -5  -4   17.63    1.52
   0  -5  -4   17.04    2.00
   0  -5  -4   17.89    2.44
   0   5   4   23.66    2.78
   0   5   4   17.94    2.12
   0   5   4   16.08    1.89
  -1  -5  -4    5.73    1.16
  -1  -5  -4    6.65    0.94
  -1  -5  -4    5.99    1.58
  -1  -5  -4    6.93    1.22
   1   5   4   10.41    1.59
   1   5   4    7.93    1.17
   1   5   4    5.54    1.70
  -2  -5  -4   -0.53    0.75
  -2  -5  -4    0.07    0.60
  -2  -5  -4   -0.50    0.98
  -2  -5  -4   -0.43    1.36
   2   5   4    1.34    0.84
   2   5   4    1.87    1.61
   2   5   4    0.14    0.56
   2   5   4    0.45    1.29
  -3  -5  -4  116.14   10.34
  -3  -5  -4  117.20   10.35
  -3  -5  -4  124.18   10.27
   3   5   4  123.20   10.97
   3   5   4  137.63   10.69
   3   5   4  133.78   10.77
   3   5   4  142.92   10.37
  -4  -5  -4  163.56   14.32
  -4  -5  -4  171.53   14.31
  -4  -5  -4  176.17   14.34
   4   5   4  191.54   14.35
   4   5   4  206.89   14.87
   4   5   4  162.00   14.86
  -5  -5  -4    1.03    1.26
  -5  -5  -4   -0.80    1.09
   5   5   4   -0.83    1.30
   5   5   4   -0.36    1.11
  -6  -5  -4  166.78   15.38
   6   5   4  209.74   16.37
   6   5   4  204.20   15.87
   7   5   4  110.07   10.67
   7   5   4  121.85   10.18
   8   5   4    4.89    2.36
   8   5   4   12.25    2.50
   9  -6  -4    0.15    2.13
   9  -6  -4   -0.99    2.09
  -9   6   4    0.98    3.60
   8  -6  -4  146.22   12.86
   8  -6  -4  161.89   12.75
  -8   6   4  130.21   12.82
  -8   6   4  158.79   14.03
   7  -6  -4  198.38   16.86
   7  -6  -4  222.15   16.70
  -7   6   4  207.57   17.67
  -7   6   4  184.37   17.00
   6  -6  -4  166.51   13.02
   6  -6  -4  155.64   13.23
  -6   6   4  147.77   13.53
  -6   6   4  162.08   13.86
   5  -6  -4   18.71    2.86
   5  -6  -4   22.18    2.60
  -5   6   4   17.55    3.06
  -5   6   4   20.18    3.75
   4  -6  -4   10.01    1.58
   4  -6  -4   11.54    1.96
   4  -6  -4    9.36    1.75
   4  -6  -4    6.30    1.69
  -4   6   4    6.73    2.15
   3  -6  -4  239.05   16.71
   3  -6  -4  193.81   16.62
   3  -6  -4  218.27   16.57
   3  -6  -4  195.16   16.35
  -3   6   4  196.68   16.77
  -3   6   4  199.13   16.87
   2  -6  -4    1.36    0.99
   2  -6  -4    0.55    1.04
   2  -6  -4    1.09    0.63
   2  -6  -4    0.92    1.07
  -2   6   4    1.99    1.19
  -2   6   4   -1.64    1.16
   1  -6  -4   50.36    4.64
   1  -6  -4   56.91    5.10
   1  -6  -4   58.71    4.92
  -1   6   4   59.29    5.17
  -1   6   4   62.40    5.64
   0  -6  -4    7.16    1.33
   0  -6  -4    8.27    1.65
   0  -6  -4    8.34    1.01
   0  -6  -4    7.52    1.48
   0   6   4    8.96    1.78
   0   6   4    7.20    1.89
   0   6   4    8.37    1.43
  -1  -6  -4  136.65   12.17
  -1  -6  -4  143.11   11.80
  -1  -6  -4  160.54   12.13
  -1  -6  -4  143.36   12.50
   1   6   4  171.14   12.57
   1   6   4  153.16   12.61
   1   6   4  142.12   12.14
   1   6   4  159.26   12.41
  -2  -6  -4  205.87   16.85
  -2  -6  -4  213.91   16.55
  -2  -6  -4  215.40   16.81
  -2  -6  -4  175.52   17.49
   2   6   4  221.31   17.35
   2   6   4  227.15   17.12
   2   6   4  218.19   16.81
  -3  -6  -4    0.95    1.39
  -3  -6  -4    4.11    1.32
  -3  -6  -4    1.97    1.08
   3   6   4    3.34    1.41
   3   6   4    1.86    0.98
  -4  -6  -4   14.26    2.49
  -4  -6  -4   20.32    2.76
  -4  -6  -4   18.92    2.77
   4   6   4   19.45    2.87
   4   6   4   20.35    2.76
  -5  -6  -4    1.18    1.51
  -5  -6  -4    0.04    1.44
  -5  -6  -4   -0.69    1.28
   5   6   4    1.85    1.48
   5   6   4    1.26    1.44
  -6  -6  -4    0.86    1.69
   6   6   4    5.63    1.94
   6   6   4    5.49    2.24
   7   6   4   15.66    2.66
   7   6   4    9.37    2.52
   8  -7  -4    5.29    2.64
   8  -7  -4    4.11    2.13
  -8   7   4    0.14    3.42
  -8   7   4   -0.38    3.15
   7  -7  -4   11.27    2.44
   7  -7  -4   10.79    2.76
  -7   7   4    7.90    3.20
  -7   7   4   16.22    3.67
   6  -7  -4   43.06    5.47
   6  -7  -4   55.48    4.98
  -6   7   4   36.71    5.97
  -6   7   4   41.59    6.33
   5  -7  -4    8.72    1.67
   5  -7  -4    7.48    2.12
  -5   7   4   10.00    2.82
   4  -7  -4  160.96   12.83
   4  -7  -4  166.57   13.30
  -4   7   4  148.40   13.52
   3  -7  -4  446.97   34.61
   3  -7  -4  440.02   34.93
   2  -7  -4  136.50   10.81
   2  -7  -4  135.43   10.60
   2  -7  -4  118.39   10.38
   2  -7  -4  127.14   10.83
  -2   7   4  134.01   11.01
   1  -7  -4    0.00    1.07
   1  -7  -4    1.98    0.71
   1  -7  -4    0.78    1.01
   1  -7  -4    1.22    1.26
  -1   7   4   -0.74    0.97
  -1   7   4    2.72    1.34
   0  -7  -4    1.63    1.14
   0  -7  -4    1.43    0.59
   0  -7  -4    0.91    0.67
   0  -7  -4   -0.75    1.13
   0   7   4    1.36    1.15
   0   7   4    0.50    1.11
  -1  -7  -4    2.99    1.23
  -1  -7  -4    2.68    1.39
  -1  -7  -4    3.03    0.77
   1   7   4    3.42    1.33
   1   7   4    3.21    1.28
  -2  -7  -4    9.96    1.66
  -2  -7  -4   13.13    2.11
  -2  -7  -4   13.04    1.91
   2   7   4   12.05    2.23
   2   7   4    9.92    1.84
  -3  -7  -4    6.88    1.50
  -3  -7  -4    6.00    1.82
  -3  -7  -4    6.44    1.20
   3   7   4    7.10    1.53
   3   7   4    7.10    1.78
  -4  -7  -4   24.13    3.49
  -4  -7  -4   32.11    3.91
   4   7   4   30.53    3.98
   4   7   4   29.63    3.51
  -5  -7  -4    2.19    2.13
   5   7   4    0.36    1.68
   5   7   4   -0.80    1.57
   6   7   4   98.34    8.80
   6   7   4   97.31    9.04
   7  -8  -4   32.43    4.39
   7  -8  -4   25.01    3.85
  -7   8   4   26.00    4.82
   6  -8  -4    3.62    2.30
  -6   8   4    2.91    3.08
  -6   8   4    4.02    3.60
   5  -8  -4   10.21    1.97
   5  -8  -4    7.47    2.50
  -5   8   4    8.78    3.15
   4  -8  -4   32.19    4.20
   4  -8  -4   28.54    3.19
  -4   8   4   21.89    3.78
   3  -8  -4   -0.52    0.80
   3  -8  -4    1.30    1.86
  -3   8   4    1.35    1.97
   2  -8  -4  163.14   13.00
   2  -8  -4  150.92   12.39
  -2   8   4  152.58   13.09
   1  -8  -4   -0.13    0.63
   1  -8  -4   -1.59    1.84
  -1   8   4    0.46    1.29
  -1   8   4    0.14    1.59
   0  -8  -4   43.42    4.41
   0  -8  -4   40.63    3.27
   0  -8  -4   32.02    3.38
   0   8   4   49.51    4.48
   0   8   4   32.95    4.31
  -1  -8  -4   11.93    1.48
  -1  -8  -4   12.30    2.37
   1   8   4   14.63    2.34
   1   8   4    8.91    2.10
  -2  -8  -4   24.74    3.42
   2   8   4   23.18    3.39
   2   8   4   29.00    3.52
   3   8   4   54.85    5.54
   3   8   4   47.08    5.09
  -4  -8  -4   39.75    5.39
   4   8   4   45.95    4.88
   4   8   4   46.81    5.08
  -5  -8  -4   -0.38    2.40
   5   8   4    1.12    1.76
   5   8   4   -2.46    1.79
   6   8   4   43.26    4.83
   6  -9  -4   13.40    2.52
   6  -9  -4   10.44    2.46
  -6   9   4    6.61    3.95
  -6   9   4   12.94    3.47
   5  -9  -4   84.83    7.17
   5  -9  -4   70.70    7.65
  -5   9   4   69.57    8.49
   4  -9  -4   12.59    2.81
   4  -9  -4    8.92    1.74
  -4   9   4   11.90    3.23
   3  -9  -4   87.90    8.10
   3  -9  -4   77.88    7.07
  -3   9   4   89.65    8.52
   2  -9  -4   94.40    8.36
   2  -9  -4   81.43    7.32
  -2   9   4   95.70    8.76
   1  -9  -4    5.87    1.10
   1  -9  -4    8.04    2.44
  -1   9   4    5.13    2.40
   0  -9  -4   47.32    5.31
   0  -9  -4   42.31    4.02
   0   9   4   48.92    5.14
  -1  -9  -4   19.64    2.43
  -1  -9  -4   26.23    3.55
   1   9   4   27.09    3.92
   1   9   4   24.91    3.95
  -2  -9  -4   14.49    3.03
   2   9   4   16.66    2.95
   2   9   4   20.27    3.09
  -3  -9  -4    0.24    2.56
   3   9   4   -0.36    1.75
   3   9   4    0.78    1.81
  -4  -9  -4    2.08    2.88
   4   9   4    2.52    1.62
   4   9   4   -2.43    1.84
   5 -10  -4   -3.10    2.33
  -5  10   4    3.50    3.20
   4 -10  -4   14.79    3.05
  -4  10   4    6.28    2.95
   3 -10  -4   52.21    6.16
  -3  10   4   48.97    6.20
   2 -10  -4    5.03    2.81
  -2  10   4    5.53    2.76
   1 -10  -4    9.64    3.15
  -1  10   4   10.11    2.98
   0 -10  -4    4.05    2.72
   0  10   4    1.09    1.94
   0  10   4   -2.79    2.30
  -1 -10  -4   38.46    5.48
   1  10   4   35.80    4.90
   1  10   4   39.49    5.02
  -2 -10  -4  193.82   16.09
   2  10   4  187.66   15.81
   2  10   4  182.21   15.65
  -3 -10  -4    4.10    3.09
   3  10   4    5.16    2.02
   3  10   4    6.05    2.02
   2 -11  -4   13.72    2.88
   1 -11  -4   28.28    3.98
  -1  11   4   26.69    4.75
   1  12  -5    9.86    4.04
  -1 -12   5   21.42    3.33
   0  12  -5   23.22    4.60
   0 -12   5   15.81    2.93
  -1  12  -5  110.84   10.48
   1 -12   5   83.16    9.58
   1 -12   5  105.70    9.20
   4  11  -5   11.99    2.94
  -4 -11   5   14.55    3.19
   3  11  -5    0.20    2.68
   2  11  -5    9.16    2.94
  -2 -11   5    6.46    2.66
   1  11  -5    9.41    3.28
  -1 -11   5    7.54    2.68
   0  11  -5   42.17    6.37
   0 -11   5   40.39    5.39
  -1  11  -5   47.87    6.41
   1 -11   5   39.10    6.02
  -2  11  -5   90.91    8.92
   2 -11   5   97.44    8.55
   2 -11   5   67.31    8.71
  -3  11  -5    3.67    2.76
   3 -11   5   -0.87    2.53
   3 -11   5    4.66    2.54
   4 -11   5    7.36    2.72
   4 -11   5    9.24    2.70
   6  10  -5    5.86    1.90
   6  10  -5    0.75    2.43
  -6 -10   5   10.59    5.48
   5  10  -5    5.43    2.59
   5  10  -5    4.84    2.05
  -5 -10   5    5.00    2.77
   4  10  -5   34.47    5.18
   4  10  -5   45.45    5.09
  -4 -10   5   51.66    5.95
   3  10  -5    7.97    2.44
  -3 -10   5    7.76    2.92
   2  10  -5   46.26    5.83
  -2 -10   5   66.36    6.64
   1  10  -5   10.01    2.54
   0  10  -5   70.94    7.63
   0 -10   5   71.96    7.10
  -1  10  -5   34.38    4.81
  -1  10  -5   36.80    5.70
   1 -10   5   32.25    4.64
  -2  10  -5   16.57    3.04
   2 -10   5   15.15    2.89
   2 -10   5   11.16    3.27
  -3  10  -5    1.42    2.28
   3 -10   5    6.16    2.49
   3 -10   5    2.23    2.63
  -4  10  -5    1.07    2.09
   4 -10   5   -0.69    2.43
   5 -10   5    1.16    2.60
   5 -10   5   -0.44    2.34
   7   9  -5    2.97    2.41
   7   9  -5    1.22    1.65
  -7  -9   5    9.06    3.15
   6   9  -5    2.25    2.18
   6   9  -5    1.84    1.80
  -6  -9   5    2.43    2.48
  -6  -9   5    2.70    2.63
   5   9  -5    1.04    1.68
   5   9  -5    0.52    1.90
  -5  -9   5   -2.39    1.97
  -5  -9   5    1.07    2.67
   4   9  -5   94.40    9.42
   4   9  -5  110.85    9.31
  -4  -9   5  125.44   10.31
   3   9  -5   66.29    6.07
  -3  -9   5   58.31    6.59
  -3  -9   5   65.82    6.57
   2   9  -5   58.18    5.58
  -2  -9   5   51.91    5.89
  -2  -9   5   59.05    6.36
   1   9  -5   -0.17    2.51
   1   9  -5   -1.76    1.45
  -1  -9   5    1.70    1.71
   0   9  -5    3.51    2.35
   0   9  -5    3.68    2.20
   0   9  -5    2.00    1.70
   0  -9   5    2.06    1.79
  -1   9  -5   80.59    7.81
  -1   9  -5   85.61    7.53
  -1   9  -5   88.65    8.11
  -2   9  -5   82.02    6.99
  -2   9  -5   72.85    6.62
  -2   9  -5   71.77    6.68
   2  -9   5   58.55    7.09
   2  -9   5   73.93    6.85
  -3   9  -5  123.65   10.77
  -3   9  -5  133.21   11.35
   3  -9   5  108.40   11.45
   3  -9   5  148.72   11.40
  -4   9  -5   16.31    2.35
   4  -9   5   15.35    2.96
   4  -9   5   12.50    3.24
  -5   9  -5   67.89    6.34
   5  -9   5   64.56    7.24
   5  -9   5   69.16    7.20
   6  -9   5   18.16    3.39
   6  -9   5   17.02    3.57
   8   8  -5    6.36    2.14
   8   8  -5    7.41    2.37
  -8  -8   5    3.89    4.22
  -8  -8   5    9.84    3.59
   7   8  -5    3.02    2.18
   7   8  -5    2.78    1.84
  -7  -8   5    5.00    2.45
  -7  -8   5    4.38    2.91
   6   8  -5    0.47    1.59
   6   8  -5   -0.11    1.60
  -6  -8   5   -0.03    2.27
  -6  -8   5    1.19    2.58
   5   8  -5    8.19    1.81
   5   8  -5    7.49    2.06
  -5  -8   5    6.06    2.17
  -5  -8   5    2.37    2.57
   4   8  -5   13.82    2.29
   4   8  -5   11.39    2.13
  -4  -8   5    7.65    2.42
  -4  -8   5   11.14    2.53
   3   8  -5   15.34    3.14
   3   8  -5    7.25    1.79
   3   8  -5   10.58    1.82
  -3  -8   5   12.19    2.54
  -3  -8   5    7.37    3.66
  -3  -8   5   10.20    1.96
   2   8  -5  438.96   38.43
   2   8  -5  439.63   38.96
   2   8  -5  500.70   38.05
  -2  -8   5  471.04   38.37
  -2  -8   5  546.86   38.36
  -2  -8   5  510.83   38.19
   1   8  -5  224.54   19.92
   1   8  -5  231.24   19.40
  -1  -8   5  259.42   19.58
  -1  -8   5  235.43   19.70
  -1  -8   5  265.11   19.59
   0   8  -5  120.04    9.72
   0   8  -5  107.38   10.27
   0   8  -5  105.69   10.22
   0  -8   5  128.30    9.90
   0  -8   5  117.15    9.69
  -1   8  -5    3.43    1.27
  -1   8  -5    1.60    1.92
  -1   8  -5    3.08    2.31
   1  -8   5    3.42    1.34
   1  -8   5    5.30    1.51
  -2   8  -5   96.99    8.42
  -2   8  -5   93.93    8.73
  -2   8  -5  104.69    8.99
   2  -8   5  108.30    8.74
  -3   8  -5   83.43    7.74
  -3   8  -5   88.51    7.88
  -3   8  -5  105.72    8.31
   3  -8   5   80.43    8.52
   3  -8   5  111.45    8.29
  -4   8  -5    1.90    1.75
  -4   8  -5    0.62    1.14
   4  -8   5   -1.47    1.70
   4  -8   5    3.59    2.06
  -5   8  -5   96.75    8.69
   5  -8   5  125.18    9.51
   5  -8   5   95.03    9.85
   6  -8   5   12.94    2.95
   6  -8   5   13.79    3.02
   7  -8   5    0.71    2.23
   7  -8   5    3.79    2.73
   8   7  -5    9.62    2.66
   8   7  -5   10.50    2.20
  -8  -7   5    8.28    3.33
  -8  -7   5    8.01    2.89
   7   7  -5   31.09    3.98
   7   7  -5   31.67    4.11
  -7  -7   5   39.33    5.31
  -7  -7   5   27.25    4.72
   6   7  -5   41.72    4.53
   6   7  -5   46.46    4.71
  -6  -7   5   48.06    5.66
  -6  -7   5   45.23    5.88
   5   7  -5  115.76   10.52
   5   7  -5  129.07   10.57
  -5  -7   5  127.93   11.31
  -5  -7   5  132.81   11.07
   4   7  -5   13.71    2.87
   4   7  -5    9.49    1.55
   4   7  -5    9.86    1.94
  -4  -7   5   11.42    2.22
  -4  -7   5    7.62    1.90
  -4  -7   5    6.34    2.33
   3   7  -5  214.74   18.84
   3   7  -5  234.44   18.20
   3   7  -5  199.76   18.77
  -3  -7   5  220.32   18.67
  -3  -7   5  251.30   18.48
  -3  -7   5  249.14   18.64
   2   7  -5   19.91    2.39
   2   7  -5   18.61    3.17
   2   7  -5   18.07    3.09
  -2  -7   5   18.10    2.73
  -2  -7   5   23.33    2.70
  -2  -7   5   23.02    2.76
  -2  -7   5   20.11    2.40
   1   7  -5   44.68    5.09
   1   7  -5   35.59    5.02
   1   7  -5   43.35    4.13
  -1  -7   5   43.66    4.42
  -1  -7   5   51.06    4.32
  -1  -7   5   47.41    4.30
   0   7  -5    0.56    1.59
   0   7  -5    3.09    1.84
   0   7  -5    0.06    0.80
   0  -7   5    1.12    0.93
   0  -7   5    2.13    0.84
   0  -7   5    0.13    1.04
   0  -7   5    0.75    1.03
  -1   7  -5  507.31   42.54
  -1   7  -5  583.62   42.82
  -1   7  -5  487.17   42.73
   1  -7   5  578.55   42.89
   1  -7   5  552.15   42.76
   1  -7   5  574.39   42.59
  -2   7  -5   32.40    3.09
  -2   7  -5   28.55    3.48
   2  -7   5   25.95    3.78
   2  -7   5   33.56    3.29
   2  -7   5   29.88    3.43
  -3   7  -5   66.81    5.78
  -3   7  -5   52.96    5.31
  -3   7  -5   58.65    5.38
   3  -7   5   69.51    5.67
   3  -7   5   54.07    6.01
   3  -7   5   73.78    5.67
  -4   7  -5   26.37    3.08
  -4   7  -5   22.23    2.67
   4  -7   5   21.79    3.07
   4  -7   5   26.68    3.03
   4  -7   5   17.02    3.12
  -5   7  -5   53.11    4.80
  -5   7  -5   53.92    4.97
   5  -7   5   50.94    5.84
   5  -7   5   61.67    5.54
   6  -7   5   19.68    2.95
   6  -7   5   13.94    3.07
   7  -7   5    1.27    2.25
   7  -7   5   -0.83    2.52
   8  -7   5   -0.25    2.64
   8  -7   5   -0.19    3.01
   9   6  -5   -1.28    2.08
   9   6  -5    1.86    1.64
  -9  -6   5   -1.37    3.02
   8   6  -5   21.45    3.41
   8   6  -5   20.84    3.67
  -8  -6   5   21.68    4.32
  -8  -6   5   15.35    3.42
   7   6  -5    2.46    1.55
   7   6  -5    4.67    1.59
  -7  -6   5    6.99    3.03
  -7  -6   5    1.18    2.29
   6   6  -5    2.25    1.19
   6   6  -5    4.04    1.31
  -6  -6   5    3.23    1.96
  -6  -6   5    2.28    1.63
  -6  -6   5    6.05    2.51
   5   6  -5   -0.99    2.31
   5   6  -5    1.69    0.98
   5   6  -5    0.99    0.98
  -5  -6   5    1.67    1.91
  -5  -6   5    0.35    1.59
  -5  -6   5    1.07    1.48
   4   6  -5    0.23    0.76
   4   6  -5   -0.02    1.90
   4   6  -5    0.27    0.82
   4   6  -5    0.70    2.16
  -4  -6   5   -1.75    1.34
  -4  -6   5   -0.87    1.06
  -4  -6   5   -0.25    0.91
  -4  -6   5   -0.85    1.23
  -4  -6   5   -0.63    1.18
   3   6  -5  135.03   12.61
   3   6  -5  125.56   11.89
   3   6  -5  143.86   12.52
   3   6  -5  157.48   11.87
  -3  -6   5  163.53   12.35
  -3  -6   5  160.56   12.02
  -3  -6   5  132.88   11.91
  -3  -6   5  145.79   12.30
  -3  -6   5  166.30   12.11
   2   6  -5    2.91    0.86
   2   6  -5    4.73    1.84
   2   6  -5    3.23    1.80
  -2  -6   5    3.52    1.27
  -2  -6   5    3.10    1.02
  -2  -6   5    2.60    0.98
  -2  -6   5    3.87    1.17
   1   6  -5   11.98    2.41
   1   6  -5   16.19    1.96
   1   6  -5   15.12    2.55
  -1  -6   5   19.22    2.28
  -1  -6   5   19.23    2.07
  -1  -6   5   19.26    2.15
  -1  -6   5   20.38    2.25
   0   6  -5  204.14   17.95
   0   6  -5  214.73   17.86
   0   6  -5  218.65   17.62
   0  -6   5  233.59   17.87
   0  -6   5  222.43   17.86
   0  -6   5  243.12   17.81
   0  -6   5  230.77   17.63
  -1   6  -5  773.94   59.64
  -1   6  -5  720.26   59.71
  -1   6  -5  703.90   59.49
   1  -6   5  722.75   59.77
   1  -6   5  802.22   59.56
   1  -6   5  889.93   59.63
  -2   6  -5  115.97    9.85
  -2   6  -5  132.09   10.02
  -2   6  -5  113.66    9.97
   2  -6   5  121.67   10.01
   2  -6   5  131.95   10.00
  -3   6  -5   66.97    5.59
  -3   6  -5   60.06    5.30
  -3   6  -5   64.01    5.47
   3  -6   5   71.78    5.68
   3  -6   5   73.83    5.84
   3  -6   5   54.28    6.05
  -4   6  -5    6.87    1.26
  -4   6  -5    7.20    1.40
   4  -6   5    7.92    1.88
   4  -6   5    9.36    1.53
   4  -6   5    5.33    1.75
  -5   6  -5   44.40    4.75
  -5   6  -5   55.43    4.39
   5  -6   5   49.85    5.49
   5  -6   5   45.65    5.18
   5  -6   5   57.07    4.96
   6  -6   5    0.22    1.59
   6  -6   5    0.70    1.82
   7  -6   5    6.90    2.52
   7  -6   5    5.63    2.30
   8  -6   5    3.15    2.81
   8  -6   5    0.64    1.96
   9   5  -5   18.27    2.80
   9   5  -5   17.95    3.03
  -9  -5   5   16.05    4.09
  -9  -5   5   16.13    3.41
   8   5  -5    1.73    1.57
   8   5  -5    1.45    1.89
  -8  -5   5    1.07    2.66
  -8  -5   5    2.09    3.27
   7   5  -5   36.18    3.69
   7   5  -5   34.71    3.81
  -7  -5   5   27.96    4.54
  -7  -5   5   33.14    4.88
   6   5  -5    4.02    1.25
   6   5  -5    3.22    1.08
  -6  -5   5    2.59    1.55
   5   5  -5  188.28   14.53
   5   5  -5  164.38   15.14
  -5  -5   5  190.72   14.79
  -5  -5   5  178.92   15.16
  -5  -5   5  165.33   14.67
  -5  -5   5  204.97   15.22
   4   5  -5  259.97   19.68
   4   5  -5  230.09   20.33
   4   5  -5  276.86   19.78
   4   5  -5  250.07   20.27
  -4  -5   5  219.63   19.82
  -4  -5   5  263.43   20.22
  -4  -5   5  248.20   20.20
  -4  -5   5  219.58   19.77
  -4  -5   5  282.22   19.93
   3   5  -5   61.91    4.77
   3   5  -5   49.40    4.76
   3   5  -5   47.18    5.56
   3   5  -5   53.79    5.51
  -3  -5   5   56.28    4.92
  -3  -5   5   58.66    4.97
  -3  -5   5   58.53    5.28
  -3  -5   5   51.97    4.88
  -3  -5   5   69.28    5.37
   2   5  -5    0.75    0.52
   2   5  -5    0.29    1.34
   2   5  -5    0.30    1.39
  -2  -5   5    0.94    0.74
  -2  -5   5    1.10    0.84
  -2  -5   5   -0.14    0.75
   1   5  -5  195.34   17.82
   1   5  -5  227.83   17.45
   1   5  -5  217.54   17.68
  -1  -5   5  247.69   17.62
  -1  -5   5  226.62   17.46
  -1  -5   5  227.65   17.74
  -1  -5   5  213.42   17.69
   0   5  -5  111.56    9.04
   0   5  -5   98.54    8.82
   0  -5   5  119.01    8.89
   0  -5   5  117.13    9.08
   0  -5   5  114.45    9.08
   0  -5   5  108.00    9.08
  -1   5  -5  233.55   18.07
  -1   5  -5  211.95   17.98
  -1   5  -5  210.48   18.25
   1  -5   5  247.10   18.13
   1  -5   5  255.42   18.27
   1  -5   5  226.21   18.07
  -2   5  -5  567.90   47.52
  -2   5  -5  613.11   47.54
  -2   5  -5  641.50   47.40
   2  -5   5  597.41   47.56
   2  -5   5  645.25   47.63
  -3   5  -5    0.56    0.59
   3  -5   5   -0.06    0.96
   3  -5   5   -0.48    1.07
   3  -5   5    0.68    0.64
   4  -5   5  182.11   14.36
   4  -5   5  171.96   14.13
   5  -5   5   78.83    6.39
   5  -5   5   69.27    6.75
   5  -5   5   70.04    6.84
   6  -5   5   26.56    3.29
   6  -5   5   23.28    3.68
   7  -5   5    2.06    2.14
   8  -5   5   67.57    6.96
   8  -5   5   57.01    7.11
  10   4  -5   -1.38    1.97
 -10  -4   5    0.63    2.77
 -10  -4   5    2.90    3.60
   9   4  -5  116.35   10.05
   9   4  -5  112.85    9.97
  -9  -4   5  120.07   10.92
  -9  -4   5  101.68   11.29
   8   4  -5   -0.76    1.20
   8   4  -5    1.39    1.57
  -8  -4   5    1.85    2.80
  -8  -4   5   -1.06    2.07
   7   4  -5  387.86   32.04
   7   4  -5  461.59   32.09
  -7  -4   5  394.80   32.56
  -7  -4   5  380.50   32.69
   6   4  -5   -0.64    0.95
   6   4  -5   -0.66    2.17
   6   4  -5    0.82    0.75
  -6  -4   5    0.52    2.02
  -6  -4   5    0.16    1.49
   5   4  -5  242.31   21.62
   5   4  -5  279.80   21.01
   5   4  -5  250.86   21.58
  -5  -4   5  295.96   21.24
  -5  -4   5  284.91   21.57
  -5  -4   5  272.89   21.63
  -5  -4   5  238.69   21.09
   4   4  -5    1.22    1.73
   4   4  -5    1.42    0.61
   4   4  -5    1.26    0.57
   4   4  -5    0.24    1.68
  -4  -4   5    0.49    0.94
  -4  -4   5    1.33    0.87
  -4  -4   5    0.23    0.82
  -4  -4   5   -0.19    1.12
  -4  -4   5   -0.13    1.07
   3   4  -5  391.66   28.07
   3   4  -5  329.50   28.57
   3   4  -5  338.61   28.38
   3   4  -5  332.48   28.05
  -3  -4   5  353.93   28.15
  -3  -4   5  361.29   28.14
  -3  -4   5  409.92   28.26
  -3  -4   5  375.45   28.52
  -3  -4   5  349.75   28.44
   2   4  -5   14.99    2.08
   2   4  -5   16.47    1.56
   2   4  -5   12.68    2.23
  -2  -4   5   16.85    1.70
  -2  -4   5   15.49    2.00
  -2  -4   5   14.30    1.72
  -2  -4   5   14.88    1.96
   1   4  -5  169.85   13.12
   1   4  -5  166.90   13.31
   1   4  -5  156.10   13.59
  -1  -4   5  182.18   13.53
  -1  -4   5  181.71   13.26
  -1  -4   5  161.78   13.37
  -1  -4   5  154.94   13.14
   0   4  -5  925.35   75.34
   0   4  -5  973.68   75.03
   0   4  -5  877.10   74.96
   0  -4   5  990.56   75.28
   0  -4   5 1030.85   75.23
   0  -4   5 1036.39   75.04
  -1   4  -5   91.75    7.94
   1  -4   5  104.67    7.82
   1  -4   5   91.82    7.78
   1  -4   5   97.76    7.71
   2  -4   5   30.62    2.62
   2  -4   5   28.86    2.63
   2  -4   5   27.69    2.74
   3  -4   5   13.30    1.53
   4  -4   5  180.60   13.62
   4  -4   5  150.65   13.95
   4  -4   5  180.99   13.85
   5  -4   5   36.30    3.43
   5  -4   5   33.19    3.89
   5  -4   5   37.06    4.26
   6  -4   5    3.72    1.97
   6  -4   5    2.21    1.54
   6  -4   5    3.51    1.36
   7  -4   5  122.90   10.98
   7  -4   5  124.66   10.68
   8  -4   5    0.87    2.23
   8  -4   5   -0.19    2.59
   8  -4   5    0.91    2.42
   9  -4   5  100.85    9.16
   9  -4   5   67.54    9.14
   9  -4   5   93.58    8.19
  10   3  -5   25.02    4.20
  10   3  -5   33.29    3.86
 -10  -3   5   24.32    4.34
 -10  -3   5   17.77    4.19
   9   3  -5    4.18    2.06
   9   3  -5    4.61    1.93
  -9  -3   5    2.27    2.73
  -9  -3   5    9.37    3.81
   8   3  -5   -1.76    1.48
   8   3  -5   -0.43    1.12
  -8  -3   5   -2.45    2.71
  -8  -3   5    1.23    2.03
   7   3  -5    0.96    1.43
   7   3  -5    1.24    0.85
  -7  -3   5    1.54    1.86
  -7  -3   5    0.80    2.93
   6   3  -5    6.63    1.23
   6   3  -5    3.69    1.14
   6   3  -5    3.81    1.94
   6   3  -5    5.13    2.16
  -6  -3   5    4.88    2.02
  -6  -3   5    5.03    1.26
  -6  -3   5    0.95    1.26
  -6  -3   5    5.59    1.83
   5   3  -5   19.38    3.10
   5   3  -5   19.02    2.33
   5   3  -5   23.32    3.61
   5   3  -5   27.16    2.27
  -5  -3   5   18.88    2.67
  -5  -3   5   25.49    3.13
  -5  -3   5   25.09    2.78
  -5  -3   5   21.80    3.15
   4   3  -5  106.75    9.73
   4   3  -5  115.69    9.55
   4   3  -5  107.03    9.01
  -4  -3   5  110.38    9.52
  -4  -3   5  127.59    9.25
  -4  -3   5  119.78    9.56
  -4  -3   5  101.62    9.15
   3   3  -5  328.62   24.08
   3   3  -5  289.54   24.60
   3   3  -5  303.12   24.02
   3   3  -5  306.08   24.37
  -3  -3   5  308.33   24.53
  -3  -3   5  285.46   24.15
  -3  -3   5  299.99   24.44
  -3  -3   5  350.98   24.26
   2   3  -5  335.38   25.62
   2   3  -5  287.93   25.85
   2   3  -5  365.07   25.43
  -2  -3   5  316.73   25.82
  -2  -3   5  334.61   25.74
  -2  -3   5  322.75   25.47
   1   3  -5   75.00    5.97
   1   3  -5   71.66    6.52
   1   3  -5   76.60    6.09
  -1  -3   5   73.08    6.24
  -1  -3   5   80.54    6.45
  -1  -3   5   75.99    6.08
  -1  -3   5   76.76    6.03
   0   3  -5  199.46   16.90
   0  -3   5  225.72   16.54
   0  -3   5  212.17   16.84
  -1   3  -5 1069.63   86.97
   1  -3   5 1172.98   86.77
   1  -3   5 1156.05   86.82
   1  -3   5 1100.91   86.93
   2  -3   5   10.40    1.37
   2  -3   5   11.78    1.38
   2  -3   5    7.51    1.40
   3  -3   5    1.30    0.86
   3  -3   5    1.44    0.78
   3  -3   5    1.04    0.31
   3  -3   5    0.91    0.51
   4  -3   5  390.33   27.87
   4  -3   5  339.40   28.20
   4  -3   5  339.62   28.00
   5  -3   5   74.54    5.88
   5  -3   5   64.15    6.20
   5  -3   5   66.06    6.37
   6  -3   5   53.12    5.92
   6  -3   5   52.59    5.50
   6  -3   5   64.91    5.28
   7  -3   5   25.14    5.13
   7  -3   5   33.96    3.97
   7  -3   5   34.21    4.27
   8  -3   5   -0.99    2.77
   8  -3   5   -2.86    1.68
   8  -3   5   -1.65    2.14
   9  -3   5    8.34    3.13
   9  -3   5    2.74    2.77
   9  -3   5    3.78    2.05
  10   2  -5   31.05    4.02
  10   2  -5   26.02    3.42
  10   2  -5   28.55    4.53
 -10  -2   5   29.14    4.99
 -10  -2   5   19.29    4.22
   9   2  -5   41.63    4.53
   9   2  -5   39.80    4.79
   9   2  -5   41.01    4.76
  -9  -2   5   40.01    5.99
  -9  -2   5   38.69    5.45
   8   2  -5  211.07   17.45
   8   2  -5  215.63   17.38
   8   2  -5  232.32   17.48
  -8  -2   5  192.38   18.10
  -8  -2   5  221.49   18.32
   7   2  -5   81.04    6.60
   7   2  -5   64.04    7.86
   7   2  -5   73.39    6.79
   7   2  -5   83.87    6.75
  -7  -2   5   73.29    7.62
  -7  -2   5   75.97    7.27
   6   2  -5   -0.13    0.81
   6   2  -5   -1.14    0.83
   6   2  -5   -0.11    1.80
   6   2  -5    0.26    0.60
   6   2  -5   -2.50    1.73
  -6  -2   5    2.11    1.44
  -6  -2   5    0.72    0.93
  -6  -2   5   -1.47    1.09
  -6  -2   5    0.05    1.46
   5   2  -5   16.36    2.58
   5   2  -5   13.62    2.64
   5   2  -5   16.68    1.95
   5   2  -5   17.79    1.74
  -5  -2   5   17.25    2.33
  -5  -2   5   19.40    2.62
  -5  -2   5   12.76    2.34
  -5  -2   5   19.02    2.25
   4   2  -5    3.94    1.66
   4   2  -5    6.51    0.87
   4   2  -5    5.30    0.92
   4   2  -5    4.88    1.53
  -4  -2   5    5.25    1.09
  -4  -2   5    5.88    1.31
  -4  -2   5    5.36    1.29
  -4  -2   5    4.41    1.09
   3   2  -5   36.96    4.27
   3   2  -5   43.10    3.57
   3   2  -5   41.47    3.99
   3   2  -5   44.02    3.44
  -3  -2   5   47.84    3.78
  -3  -2   5   39.99    4.04
  -3  -2   5   43.61    4.00
  -3  -2   5   40.97    3.72
   2   2  -5  275.16   18.99
   2   2  -5  244.60   19.13
  -2  -2   5  245.10   18.92
  -2  -2   5  222.30   19.39
  -2  -2   5  237.39   19.05
  -2  -2   5  239.71   19.26
   1   2  -5  241.76   19.07
  -1  -2   5  255.50   19.02
  -1  -2   5  257.04   18.60
  -1  -2   5  206.67   18.57
   0   2  -5  676.98   52.71
   0  -2   5  724.15   52.40
   0  -2   5  633.85   52.67
   1  -2   5  186.03   14.31
   1  -2   5  181.38   14.64
   1  -2   5  187.07   14.31
   2  -2   5  162.23   12.15
   2  -2   5  168.33   12.08
   2  -2   5  133.16   12.42
   3  -2   5   57.72    4.85
   3  -2   5   51.46    4.96
   3  -2   5   61.23    4.63
   3  -2   5   55.63    4.75
   4  -2   5   63.12    5.10
   4  -2   5   63.43    5.67
   4  -2   5   60.23    5.59
   4  -2   5   72.49    5.33
   4  -2   5   60.23    5.16
   5  -2   5   44.29    3.98
   5  -2   5   48.93    4.70
   5  -2   5   41.39    4.31
   6  -2   5    0.36    1.81
   6  -2   5   -0.04    1.06
   6  -2   5    1.34    2.13
   6  -2   5    2.70    1.28
   7  -2   5   74.41    6.33
   7  -2   5   72.01    6.48
   7  -2   5   56.49    7.16
   8  -2   5   -1.21    2.03
   8  -2   5   -2.89    2.31
   8  -2   5    0.96    1.96
   9  -2   5   15.01    3.42
   9  -2   5   21.01    3.71
  10   1  -5   23.03    3.13
  10   1  -5   15.07    3.17
  10   1  -5   24.35    3.64
 -10  -1   5   14.22    4.01
 -10  -1   5   13.06    3.96
   9   1  -5  353.03   26.19
   9   1  -5  321.31   26.20
   9   1  -5  300.71   26.13
  -9  -1   5  342.26   26.63
  -9  -1   5  318.38   27.08
   8   1  -5    1.92    1.65
   8   1  -5    0.03    1.06
   8   1  -5    1.57    1.21
  -8  -1   5    2.29    2.65
  -8  -1   5   -0.28    1.88
   7   1  -5    2.31    1.98
   7   1  -5    0.85    0.99
   7   1  -5   -0.30    0.78
   7   1  -5   -0.49    1.17
  -7  -1   5    0.62    1.96
  -7  -1   5    0.03    1.53
   6   1  -5   82.78    7.07
   6   1  -5   78.10    6.88
   6   1  -5   95.26    7.04
   6   1  -5   68.69    7.68
   6   1  -5   83.03    7.73
  -6  -1   5   76.42    7.10
  -6  -1   5   85.24    7.62
  -6  -1   5   86.57    7.56
  -6  -1   5   87.22    7.18
   5   1  -5   82.44    7.53
   5   1  -5   82.68    7.32
   5   1  -5   77.31    6.67
   5   1  -5   74.68    6.78
   5   1  -5   93.76    6.85
  -5  -1   5   83.33    6.91
  -5  -1   5   87.13    7.36
  -5  -1   5   81.94    7.01
  -5  -1   5   77.59    7.25
   4   1  -5  757.30   60.70
   4   1  -5  745.14   60.05
   4   1  -5  772.06   60.21
   4   1  -5  827.43   60.49
  -4  -1   5  802.40   60.28
  -4  -1   5  768.51   60.64
  -4  -1   5  749.27   60.29
  -4  -1   5  802.37   60.59
   3   1  -5  652.61   53.84
   3   1  -5  720.94   53.57
   3   1  -5  656.32   53.36
  -3  -1   5  663.33   53.81
  -3  -1   5  715.09   53.70
  -3  -1   5  732.85   53.46
   2   1  -5    4.80    0.72
   2   1  -5    3.88    1.52
   2   1  -5    6.77    0.93
  -2  -1   5    5.84    0.89
  -2  -1   5    5.22    0.94
  -2  -1   5    4.87    1.19
  -2  -1   5    6.72    1.00
  -1  -1   5   32.38    3.03
  -1  -1   5   41.83    3.25
  -1  -1   5   34.59    3.53
  -1  -1   5   43.11    3.09
   0  -1   5  190.11   15.16
   1  -1   5  893.35   65.31
   1  -1   5  793.24   65.36
   2  -1   5  158.23   11.65
   2  -1   5  151.87   11.60
   2  -1   5  138.04   11.94
   3  -1   5   10.24    1.50
   3  -1   5    7.97    1.66
   3  -1   5   10.65    1.42
   4  -1   5  319.73   25.03
   4  -1   5  311.98   24.95
   4  -1   5  320.79   24.78
   5  -1   5  101.71    7.86
   5  -1   5  107.17    7.97
   5  -1   5  103.49    8.19
   5  -1   5   90.13    8.36
   5  -1   5   77.11    8.54
   6  -1   5   49.94    5.84
   6  -1   5   56.65    4.88
   6  -1   5   42.15    5.88
   6  -1   5   61.79    5.04
   6  -1   5   59.45    5.18
   7  -1   5   12.58    2.10
   7  -1   5   10.91    2.22
   7  -1   5    9.57    1.55
   7  -1   5    9.53    2.77
   8  -1   5    9.48    3.18
   8  -1   5   12.99    2.49
   8  -1   5   13.38    2.78
   9  -1   5  134.51   11.54
   9  -1   5  113.11   12.12
   9  -1   5  152.30   12.09
  10   0  -5   31.45    3.99
  10   0  -5   28.13    3.87
  10   0  -5   19.32    3.61
 -10   0   5   25.34    4.53
 -10   0   5   25.68    4.80
   9   0  -5  116.25    9.00
   9   0  -5   85.87    9.00
   9   0  -5  100.33    9.20
  -9   0   5  104.34   10.53
  -9   0   5  103.20    9.54
   8   0  -5   18.46    2.61
   8   0  -5   19.73    2.96
   8   0  -5   14.10    2.62
  -8   0   5   20.26    3.85
  -8   0   5   19.23    3.15
   7   0  -5   43.56    4.78
   7   0  -5   59.74    4.92
   7   0  -5   49.83    5.61
   7   0  -5   58.77    5.10
  -7   0   5   53.62    6.04
  -7   0   5   57.34    5.66
   6   0  -5    2.37    0.82
   6   0  -5    2.53    2.06
   6   0  -5    4.29    1.04
   6   0  -5    4.86    2.06
   6   0  -5    4.17    1.27
  -6   0   5    2.24    1.64
  -6   0   5    3.50    1.51
  -6   0   5    1.51    1.34
  -6   0   5    2.96    1.18
   5   0  -5  345.87   26.56
   5   0  -5  346.66   26.30
   5   0  -5  303.56   26.68
   5   0  -5  358.32   26.25
  -5   0   5  329.68   26.36
  -5   0   5  325.52   26.65
  -5   0   5  333.63   26.29
  -5   0   5  334.45   26.67
   4   0  -5  199.46   16.28
   4   0  -5  229.22   16.28
   4   0  -5  204.88   16.50
   4   0  -5  200.72   16.80
  -4   0   5  215.59   16.43
  -4   0   5  199.63   16.59
  -4   0   5  210.47   16.30
  -4   0   5  188.93   16.66
   3   0  -5   11.57    1.00
   3   0  -5   13.68    1.82
   3   0  -5    9.67    1.29
  -3   0   5   12.31    1.38
  -3   0   5   12.73    1.88
  -3   0   5   13.45    1.73
   2   0  -5  161.44   12.60
   2   0  -5  153.20   12.55
  -2   0   5  158.13   12.77
  -2   0   5  170.87   12.60
  -2   0   5  151.69   13.04
  -2   0   5  169.08   12.70
  -1   0   5 1123.63   89.71
  -1   0   5 1140.12   89.32
  -1   0   5 1209.04   89.30
   0   0  -5 4273.91  349.44
   0   0   5 4756.92  349.48
   1   0   5  129.28   10.67
   1   0   5  140.88   10.87
   2   0   5  574.66   39.06
   2   0   5  541.92   39.01
   2   0   5  470.21   39.19
   2   0   5  431.56   39.41
   3   0   5  342.51   24.80
   3   0   5  272.92   25.14
   3   0   5  333.13   24.69
   3   0   5  320.22   24.86
  -4   0  -5   14.28    2.46
   4   0   5   22.82    2.37
   4   0   5   21.04    2.14
   4   0   5   16.19    2.65
   4   0   5   22.00    2.01
   4   0   5   20.22    2.82
   5   0   5   29.52    2.90
   5   0   5   30.32    2.77
   5   0   5   22.97    3.45
   5   0   5   24.55    3.66
   6   0   5   66.49    5.88
   6   0   5   63.46    6.00
   6   0   5   69.98    5.83
   6   0   5   61.89    6.64
   7   0   5    7.00    2.72
   7   0   5    9.87    1.93
   7   0   5   10.74    2.02
   7   0   5   13.32    2.21
   8   0   5   13.54    2.72
   8   0   5    5.08    2.85
   8   0   5    6.20    2.00
   9   0   5   59.98    7.71
   9   0   5   72.27    7.78
   9   0   5   77.99    7.08
  10  -1  -5   25.41    3.70
  10  -1  -5   24.89    3.41
  10  -1  -5   14.71    3.45
 -10   1   5   24.15    4.18
 -10   1   5   18.51    4.50
   9  -1  -5    6.32    2.16
   9  -1  -5    6.68    2.26
   9  -1  -5    9.64    2.09
  -9   1   5    9.10    3.73
   8  -1  -5  218.08   16.27
   8  -1  -5  204.28   16.34
  -8   1   5  181.96   17.09
  -8   1   5  188.99   16.62
   7  -1  -5   70.81    6.71
   7  -1  -5   83.17    6.59
  -7   1   5   71.34    7.15
  -7   1   5   71.01    6.72
  -7   1   5   74.95    7.47
   6  -1  -5   62.59    5.50
   6  -1  -5   51.89    5.93
   6  -1  -5   69.41    5.36
  -6   1   5   58.66    5.60
  -6   1   5   65.21    6.15
  -6   1   5   55.53    5.52
  -6   1   5   59.90    5.85
   5  -1  -5  628.64   48.69
   5  -1  -5  670.33   48.43
   5  -1  -5  617.74   48.50
  -5   1   5  603.38   48.48
  -5   1   5  651.46   48.91
  -5   1   5  630.62   48.58
  -5   1   5  560.85   48.79
   4  -1  -5 1459.53  110.51
   4  -1  -5 1387.66  110.38
   4  -1  -5 1495.83  110.31
  -4   1   5 1424.16  110.38
  -4   1   5 1462.06  110.48
  -4   1   5 1429.19  110.68
  -4   1   5 1342.56  110.75
   3  -1  -5  572.04   44.31
   3  -1  -5  607.14   44.42
   3  -1  -5  578.28   44.55
   3  -1  -5  558.54   44.48
  -3   1   5  558.82   44.70
  -3   1   5  538.13   44.89
  -3   1   5  602.16   44.60
   2  -1  -5 1155.69   93.96
   2  -1  -5 1163.51   93.97
  -2   1   5 1206.47   94.16
  -2   1   5 1239.93   94.52
  -2   1   5 1308.35   94.10
  -2   1   5 1236.99   93.95
  -1   1   5 2114.74  162.99
   0   1   5   15.32    1.41
   0   1   5   16.43    1.36
   0   1   5   11.51    1.26
   0   1   5   15.34    1.45
   1   1   5  256.12   19.48
   1   1   5  234.28   19.69
   1   1   5  251.19   19.41
   1   1   5  260.81   19.48
   2   1   5   76.38    6.27
   2   1   5   68.99    6.59
   2   1   5   89.09    6.34
   3   1   5  132.71   10.72
   3   1   5  134.60   10.50
   3   1   5  141.67   10.60
   3   1   5  121.25   10.96
   4   1   5  153.31   14.91
   4   1   5  193.01   14.64
   4   1   5  192.58   14.45
   4   1   5  178.61   14.72
   4   1   5  193.41   14.52
  -5  -1  -5    2.58    1.48
   5   1   5    3.19    1.78
   5   1   5    3.42    0.99
   5   1   5    3.06    1.50
   5   1   5    4.45    1.50
   5   1   5    3.54    0.94
  -6  -1  -5    3.96    1.62
   6   1   5    2.75    1.06
   6   1   5    4.39    1.94
   6   1   5    4.05    2.22
   6   1   5    4.12    1.28
   6   1   5    5.47    1.86
   7   1   5   20.34    4.01
   7   1   5   26.73    3.36
   7   1   5   17.98    2.86
   8   1   5   10.80    2.73
   8   1   5    8.80    3.12
   8   1   5    7.63    2.09
   9   1   5    6.97    2.29
   9   1   5    7.87    2.72
   9   1   5    9.69    3.00
  10  -2  -5   71.70    6.47
  10  -2  -5   47.62    6.99
  10  -2  -5   69.76    6.22
 -10   2   5   67.67    8.20
 -10   2   5   57.68    7.25
   9  -2  -5   30.47    4.34
   9  -2  -5   30.74    3.90
  -9   2   5   25.53    4.91
   8  -2  -5    8.07    1.75
   8  -2  -5    6.95    2.18
  -8   2   5    7.06    3.04
  -8   2   5    7.71    2.47
   7  -2  -5  724.83   49.85
   7  -2  -5  631.44   49.89
  -7   2   5  617.05   50.17
  -7   2   5  577.85   49.94
   6  -2  -5    1.95    0.89
   6  -2  -5    4.18    1.78
   6  -2  -5    2.47    1.23
  -6   2   5    2.94    1.39
  -6   2   5    3.06    1.56
  -6   2   5    1.19    1.35
  -6   2   5    1.51    1.61
   5  -2  -5   80.19    6.16
   5  -2  -5   70.63    6.29
   5  -2  -5   74.45    6.62
  -5   2   5   73.67    6.38
  -5   2   5   70.54    6.51
  -5   2   5   73.55    6.79
  -5   2   5   69.22    6.73
   4  -2  -5   93.94    8.01
   4  -2  -5   83.48    7.82
   4  -2  -5  105.91    7.90
   4  -2  -5  107.37    8.26
  -4   2   5  105.37    8.25
  -4   2   5   93.76    8.49
  -4   2   5   98.42    8.34
   3  -2  -5   92.33    6.90
   3  -2  -5   82.38    7.01
   3  -2  -5   90.69    6.88
  -3   2   5   90.38    7.20
  -3   2   5   82.07    7.23
  -3   2   5   83.16    6.98
  -3   2   5   78.35    7.46
   2  -2  -5  186.94   14.25
   2  -2  -5  199.01   14.14
   2  -2  -5  173.00   14.27
  -2   2   5  175.91   14.42
  -2   2   5  172.85   14.18
   1  -2  -5    5.10    0.75
   1  -2  -5    4.34    0.84
   1  -2  -5    6.00    0.77
  -1   2   5    6.45    0.86
  -1   2   5    4.71    0.92
  -1   2   5    5.21    0.84
   0  -2  -5 1560.93  138.53
   0   2   5 2030.24  138.47
   1   2   5  190.95   15.54
   1   2   5  202.28   15.66
   1   2   5  210.63   15.93
   2   2   5  379.00   29.50
   2   2   5  404.57   29.75
   2   2   5  368.27   29.88
   2   2   5  372.54   29.53
   3   2   5  722.32   56.27
   3   2   5  751.30   56.27
   3   2   5  745.23   56.56
   3   2   5  689.77   56.70
   4   2   5  188.90   16.69
   4   2   5  220.68   16.67
   4   2   5  205.15   16.95
   4   2   5  206.53   16.36
   4   2   5  214.38   16.38
  -5  -2  -5    1.64    1.51
   5   2   5    5.57    1.14
   5   2   5    5.24    1.76
   5   2   5    4.94    1.03
   5   2   5    3.98    1.71
   5   2   5    5.03    2.13
   6   2   5   95.42    8.95
   6   2   5  102.72    8.12
   6   2   5   83.39    8.68
   6   2   5   85.59    8.34
   6   2   5   99.40    7.99
   7   2   5   80.98    8.89
   7   2   5  103.68    9.50
   7   2   5  113.10    9.63
   8   2   5   16.65    3.11
   8   2   5   16.42    3.41
   8   2   5   13.81    2.59
   9   2   5    0.45    2.38
   9   2   5    0.89    1.97
  10  -3  -5   -2.22    2.11
  10  -3  -5    1.55    1.80
  10  -3  -5   -0.75    2.60
 -10   3   5    4.51    2.71
 -10   3   5   -2.73    3.73
   9  -3  -5    5.99    2.41
   9  -3  -5    8.06    2.05
  -9   3   5    1.35    3.55
  -9   3   5    4.44    3.41
   8  -3  -5    2.01    1.87
   8  -3  -5    1.43    1.40
  -8   3   5    2.80    3.10
  -8   3   5    1.38    2.23
   7  -3  -5    5.09    1.90
   7  -3  -5    7.98    1.58
  -7   3   5    7.07    2.18
  -7   3   5    5.81    2.13
  -7   3   5    7.29    2.60
   6  -3  -5   10.14    1.82
   6  -3  -5    4.42    1.88
   6  -3  -5    9.16    1.60
   6  -3  -5    7.23    1.56
  -6   3   5    5.58    1.94
  -6   3   5    6.08    1.83
  -6   3   5    9.46    2.39
   5  -3  -5   21.42    2.56
   5  -3  -5   21.91    3.10
   5  -3  -5   16.61    2.35
   5  -3  -5   24.66    2.16
  -5   3   5   19.61    2.74
  -5   3   5   20.34    3.09
  -5   3   5   13.70    2.60
  -5   3   5   18.08    2.77
   4  -3  -5  672.76   49.43
   4  -3  -5  633.16   49.62
   4  -3  -5  608.58   49.56
  -4   3   5  637.98   49.67
  -4   3   5  608.16   50.01
  -4   3   5  664.12   49.91
   3  -3  -5    7.39    0.94
   3  -3  -5    8.10    1.28
   3  -3  -5    8.49    1.37
   3  -3  -5    8.49    1.24
  -3   3   5    6.49    1.39
  -3   3   5    5.67    1.09
  -3   3   5    6.38    1.31
   2  -3  -5  684.61   55.57
   2  -3  -5  722.27   55.36
   2  -3  -5  693.97   55.51
   2  -3  -5  789.83   55.61
  -2   3   5  739.56   55.69
  -2   3   5  675.09   55.71
   1  -3  -5   38.50    3.50
   1  -3  -5   45.58    3.74
   1  -3  -5   42.33    3.44
  -1   3   5   42.30    3.60
  -1   3   5   41.85    3.76
  -1   3   5   36.24    3.55
   0  -3  -5   75.13    5.70
   0  -3  -5   69.18    6.08
   0  -3  -5   63.01    5.70
   0   3   5   81.57    5.96
   0   3   5   66.70    6.14
   0   3   5   69.23    5.77
  -1  -3  -5  101.65    8.40
  -1  -3  -5  105.73    8.40
   1   3   5  118.92    8.92
   1   3   5  102.51    8.45
  -2  -3  -5   23.14    2.13
  -2  -3  -5   17.44    2.93
  -2  -3  -5   22.30    2.14
   2   3   5   28.29    2.92
   2   3   5   28.46    2.61
   2   3   5   25.68    2.20
  -3  -3  -5  191.93   16.31
  -3  -3  -5  194.58   16.41
   3   3   5  216.29   16.92
   3   3   5  213.38   16.94
   3   3   5  216.60   16.50
   3   3   5  234.02   16.91
   3   3   5  206.73   16.39
  -4  -3  -5  439.41   38.97
  -4  -3  -5  479.85   39.03
   4   3   5  492.17   39.66
   4   3   5  542.31   39.85
   4   3   5  495.93   39.16
   4   3   5  546.05   39.60
   4   3   5  539.44   39.27
  -5  -3  -5   15.38    3.06
  -5  -3  -5   19.17    2.03
  -5  -3  -5   19.12    2.06
   5   3   5   19.62    3.34
   5   3   5   24.49    2.34
   5   3   5   19.75    3.24
   5   3   5   25.39    2.55
   5   3   5   27.18    3.77
  -6  -3  -5   32.07    2.96
  -6  -3  -5   26.36    3.94
   6   3   5   39.77    3.86
   6   3   5   39.67    3.58
   6   3   5   42.17    4.66
   6   3   5   29.80    4.47
   7   3   5    2.32    2.36
   7   3   5    4.95    1.99
   8   3   5   15.87    3.10
   8   3   5    8.69    2.54
   8   3   5   10.18    2.35
  10  -4  -5    4.46    3.72
  10  -4  -5    0.39    1.66
  10  -4  -5    0.76    2.86
 -10   4   5   -0.94    3.79
   9  -4  -5   84.31    8.44
   9  -4  -5   97.70    8.31
  -9   4   5   78.65    9.88
   8  -4  -5  121.44   11.14
   8  -4  -5  138.34   10.92
  -8   4   5  134.76   12.40
  -8   4   5  116.98   11.52
   7  -4  -5   70.52    7.12
   7  -4  -5   89.98    7.24
   7  -4  -5   86.86    7.52
  -7   4   5   75.96    7.95
  -7   4   5   92.57    8.56
   6  -4  -5   67.67    5.24
   6  -4  -5   58.16    5.53
   6  -4  -5   58.21    5.39
  -6   4   5   46.15    5.62
  -6   4   5   61.56    6.55
  -6   4   5   52.55    6.02
   5  -4  -5  612.01   43.79
   5  -4  -5  599.28   43.88
   5  -4  -5  537.61   43.93
   5  -4  -5  559.82   43.99
  -5   4   5  542.89   44.37
  -5   4   5  474.03   43.88
  -5   4   5  607.04   44.43
  -5   4   5  568.04   44.05
   4  -4  -5   42.77    4.20
   4  -4  -5   39.09    3.90
   4  -4  -5   43.60    3.66
   4  -4  -5   43.55    3.85
  -4   4   5   39.56    4.34
  -4   4   5   39.82    4.12
  -4   4   5   41.16    4.55
   3  -4  -5 1040.87   87.86
   3  -4  -5 1120.47   87.66
   3  -4  -5 1147.50   87.85
   3  -4  -5 1269.54   87.87
  -3   4   5 1118.20   87.99
  -3   4   5 1116.45   88.11
   2  -4  -5    0.62    0.40
   2  -4  -5    0.80    0.73
   2  -4  -5    0.33    0.66
  -2   4   5   -0.20    0.45
  -2   4   5   -0.16    1.06
  -2   4   5   -0.92    0.72
   1  -4  -5   14.42    1.69
   1  -4  -5   17.07    2.06
  -1   4   5   13.65    1.74
  -1   4   5   16.26    1.79
  -1   4   5   13.85    2.22
   0  -4  -5   94.73    7.73
   0  -4  -5   90.96    7.76
   0  -4  -5   93.72    8.13
   0   4   5  109.18    8.02
   0   4   5   97.66    7.84
   0   4   5   92.42    8.04
  -1  -4  -5   43.99    4.52
  -1  -4  -5   42.06    3.82
  -1  -4  -5   44.64    3.87
   1   4   5   44.07    3.85
   1   4   5   53.65    4.48
  -2  -4  -5   43.00    3.55
  -2  -4  -5   37.42    3.44
  -2  -4  -5   41.12    3.58
  -2  -4  -5   32.27    4.30
   2   4   5   48.82    4.36
   2   4   5   45.19    3.58
  -3  -4  -5   12.71    1.93
  -3  -4  -5   16.49    1.77
  -3  -4  -5   12.94    1.99
  -3  -4  -5   13.69    2.78
   3   4   5   17.79    2.67
   3   4   5   16.15    1.80
   3   4   5   20.32    2.34
   3   4   5   19.53    2.83
  -4  -4  -5  166.55   14.79
  -4  -4  -5  179.08   14.56
  -4  -4  -5  185.24   14.60
   4   4   5  202.47   15.33
   4   4   5  199.43   14.78
   4   4   5  165.86   15.33
   4   4   5  196.81   15.24
  -5  -4  -5   60.44    6.59
  -5  -4  -5   69.81    6.08
  -5  -4  -5   65.85    6.13
   5   4   5   83.42    6.31
   5   4   5   83.26    6.52
   5   4   5   90.17    7.26
  -6  -4  -5  166.63   15.74
   6   4   5  224.00   16.19
   6   4   5  194.35   16.79
   6   4   5  224.60   17.13
   7   4   5   29.03    4.31
   7   4   5   30.21    3.86
   7   4   5   32.29    5.03
   8   4   5   36.33    5.07
   8   4   5   35.70    4.57
   8   4   5   31.27    4.72
   9  -5  -5  207.04   17.87
   9  -5  -5  246.23   18.02
  -9   5   5  187.58   18.10
  -9   5   5  227.40   19.01
   8  -5  -5  245.72   18.34
   8  -5  -5  221.91   18.52
  -8   5   5  203.04   18.79
  -8   5   5  222.54   19.34
   7  -5  -5   21.81    2.95
   7  -5  -5   16.66    2.85
  -7   5   5   19.22    3.83
  -7   5   5   15.51    3.26
   6  -5  -5  143.61   10.95
   6  -5  -5  139.55   11.29
   6  -5  -5  129.18   11.02
  -6   5   5  135.21   11.86
  -6   5   5  114.27   11.60
   5  -5  -5   41.53    4.49
   5  -5  -5   46.31    4.93
   5  -5  -5   49.84    4.43
   5  -5  -5   48.47    4.05
  -5   5   5   40.58    5.02
  -5   5   5   34.38    4.59
  -5   5   5   42.83    5.11
   4  -5  -5 1100.16   90.09
   4  -5  -5 1229.80   90.08
   4  -5  -5 1167.19   89.87
   4  -5  -5 1218.83   90.10
  -4   5   5 1155.11   90.43
  -4   5   5 1103.70   90.21
   3  -5  -5    9.87    1.63
   3  -5  -5    7.17    1.48
   3  -5  -5   12.08    1.34
   3  -5  -5   11.09    1.71
  -3   5   5   10.20    1.88
  -3   5   5    8.67    1.86
   2  -5  -5 1535.69  113.93
   2  -5  -5 1394.85  113.86
   2  -5  -5 1570.58  113.77
  -2   5   5 1431.47  114.04
  -2   5   5 1431.95  114.02
   1  -5  -5  885.14   64.27
   1  -5  -5  779.01   64.37
   1  -5  -5  949.83   64.62
  -1   5   5  793.25   64.54
  -1   5   5  785.68   64.48
  -1   5   5  789.99   64.54
   0  -5  -5  969.47   77.68
   0  -5  -5  960.87   78.05
   0  -5  -5  926.24   77.76
   0   5   5 1111.18   78.08
   0   5   5  950.19   77.84
   0   5   5 1116.91   78.17
  -1  -5  -5  530.35   44.26
  -1  -5  -5  544.59   44.73
  -1  -5  -5  530.56   44.22
   1   5   5  628.14   44.61
   1   5   5  574.04   44.34
   1   5   5  615.86   44.72
  -2  -5  -5  710.93   57.38
  -2  -5  -5  723.93   57.37
  -2  -5  -5  698.93   57.20
   2   5   5  859.80   57.92
   2   5   5  750.33   57.86
   2   5   5  705.37   57.42
  -3  -5  -5  115.05    9.81
  -3  -5  -5  120.67    9.90
  -3  -5  -5  117.26    9.82
   3   5   5  124.49    9.90
   3   5   5  136.00   10.65
  -4  -5  -5  233.66   18.53
  -4  -5  -5  221.20   18.64
  -4  -5  -5  219.61   18.54
   4   5   5  268.14   18.75
  -5  -5  -5   27.16    3.35
  -5  -5  -5   16.08    2.84
  -5  -5  -5   24.49    2.40
   6   5   5  108.96    9.45
   6   5   5  109.11   10.03
   7   5   5    0.27    2.14
   7   5   5    0.12    2.05
   9  -6  -5   32.28    5.13
   9  -6  -5   42.13    5.04
  -9   6   5   26.07    5.21
   8  -6  -5   45.13    5.70
   8  -6  -5   44.67    5.35
  -8   6   5   47.78    6.90
   7  -6  -5    4.68    2.18
  -7   6   5    2.37    2.94
  -7   6   5    2.32    2.83
   6  -6  -5   -2.46    1.62
   6  -6  -5    0.35    1.20
  -6   6   5   -2.11    2.43
  -6   6   5   -0.77    2.42
   5  -6  -5    1.43    1.33
   5  -6  -5    0.14    0.88
   5  -6  -5    1.61    1.58
  -5   6   5    0.23    1.95
  -5   6   5   -3.87    1.94
   4  -6  -5    6.70    1.13
   4  -6  -5    4.59    1.40
   4  -6  -5    4.39    1.58
  -4   6   5    2.32    1.98
   3  -6  -5   29.07    3.28
   3  -6  -5   33.78    2.93
   3  -6  -5   32.36    3.50
   3  -6  -5   33.73    3.47
  -3   6   5   29.90    3.85
   2  -6  -5  220.23   16.46
   2  -6  -5  226.44   16.96
   2  -6  -5  208.16   16.69
   2  -6  -5  211.47   16.88
  -2   6   5  193.79   17.00
  -2   6   5  200.89   17.01
   1  -6  -5  419.98   33.94
   1  -6  -5  434.78   33.66
   1  -6  -5  495.78   34.37
   1  -6  -5  418.88   33.63
   1  -6  -5  431.32   34.12
  -1   6   5  382.37   34.24
  -1   6   5  471.83   34.31
   0  -6  -5  814.12   64.25
   0  -6  -5  778.69   63.96
   0  -6  -5  873.28   63.86
   0   6   5  738.58   64.01
   0   6   5  864.60   64.26
   0   6   5  877.95   64.37
  -1  -6  -5    5.31    1.65
  -1  -6  -5    7.28    0.93
  -1  -6  -5    7.73    1.52
  -1  -6  -5    6.78    1.40
   1   6   5    9.75    1.72
   1   6   5    7.88    1.48
   1   6   5    9.51    2.05
  -2  -6  -5  365.18   30.30
  -2  -6  -5  374.47   30.58
  -2  -6  -5  368.89   30.54
   2   6   5  404.80   30.66
   2   6   5  442.76   31.02
  -3  -6  -5   38.22    3.98
  -3  -6  -5   39.67    3.81
  -3  -6  -5   42.28    4.11
   3   6   5   47.13    4.56
   3   6   5   44.10    4.08
  -4  -6  -5    6.24    1.49
  -4  -6  -5    4.74    1.27
  -4  -6  -5    8.46    1.50
   4   6   5    7.29    1.59
   4   6   5    6.14    1.79
  -5  -6  -5   13.46    2.30
   5   6   5   14.98    2.41
   5   6   5   19.08    3.09
   6   6   5   61.91    6.53
   6   6   5   59.66    6.18
   7   6   5   29.47    4.53
   7   6   5   37.24    4.63
   8  -7  -5   32.53    4.62
   8  -7  -5   21.03    3.51
  -8   7   5   29.69    4.59
  -8   7   5   22.05    4.18
   7  -7  -5  120.79    9.71
   7  -7  -5  111.05    9.98
  -7   7   5  100.94   10.72
  -7   7   5   94.48   10.87
   6  -7  -5   21.33    3.12
   6  -7  -5   19.53    3.28
  -6   7   5   21.55    4.25
  -6   7   5   12.26    3.97
   5  -7  -5   60.09    5.26
   5  -7  -5   57.42    5.93
  -5   7   5   53.23    6.40
   4  -7  -5  136.36   10.55
   4  -7  -5  132.54   11.08
  -4   7   5  119.25   11.39
   3  -7  -5  170.73   13.18
   3  -7  -5  162.30   13.68
  -3   7   5  164.94   13.97
   2  -7  -5    0.54    0.56
   2  -7  -5    0.09    1.24
   2  -7  -5    2.32    1.16
   1  -7  -5  220.63   16.58
   1  -7  -5  212.43   16.20
   1  -7  -5  213.18   16.84
  -1   7   5  212.98   16.97
  -1   7   5  185.40   16.95
   0  -7  -5    3.43    1.16
   0  -7  -5    0.64    0.37
   0  -7  -5    0.99    1.35
   0   7   5    1.12    1.21
   0   7   5    0.54    1.28
  -1  -7  -5   78.15    6.89
  -1  -7  -5   71.04    6.64
  -1  -7  -5   82.49    6.21
   1   7   5   79.76    7.18
  -2  -7  -5   16.06    2.49
  -2  -7  -5   17.71    1.88
  -2  -7  -5   17.47    2.78
   2   7   5   20.28    3.00
   2   7   5   19.09    2.71
  -3  -7  -5    2.86    1.35
  -3  -7  -5    1.15    1.54
   3   7   5    1.99    1.49
   3   7   5    2.93    1.44
  -4  -7  -5   10.58    2.10
   4   7   5   13.70    2.57
   4   7   5   11.82    2.23
  -5  -7  -5    6.64    1.72
   5   7   5    8.53    2.34
   5   7   5    7.14    2.09
   6   7   5   25.82    3.93
   6   7   5   19.95    3.96
   7  -8  -5   45.05    5.19
   7  -8  -5   43.66    5.00
  -7   8   5   35.09    5.61
  -7   8   5   38.17    6.24
   6  -8  -5   57.14    6.31
   6  -8  -5   56.45    5.52
  -6   8   5   57.24    7.26
  -6   8   5   45.60    8.00
   5  -8  -5   32.92    4.73
   5  -8  -5   29.04    3.28
  -5   8   5   26.21    4.38
   4  -8  -5   62.69    6.54
   4  -8  -5   65.03    5.50
  -4   8   5   62.42    7.16
   3  -8  -5  194.96   15.56
   3  -8  -5  204.35   16.26
  -3   8   5  191.86   16.53
   2  -8  -5   55.38    5.71
   2  -8  -5   57.12    4.71
  -2   8   5   55.75    6.08
   1  -8  -5    0.20    0.49
  -1   8   5    0.54    1.69
  -1   8   5   -1.40    1.34
   0  -8  -5   40.38    4.59
   0  -8  -5   39.84    3.45
   0   8   5   35.80    4.45
   0   8   5   38.60    4.47
  -1  -8  -5   13.35    2.44
   1   8   5   13.76    2.44
   1   8   5   16.67    3.09
  -2  -8  -5   63.71    6.28
   2   8   5   62.25    6.18
   2   8   5   68.16    6.53
  -3  -8  -5    7.46    2.36
   3   8   5    8.77    2.23
   3   8   5    9.10    2.26
   4   8   5   15.61    2.75
   4   8   5   17.12    3.31
   5   8   5    1.63    1.94
   5   8   5   -0.70    1.80
   6  -9  -5  125.81   11.36
  -6   9   5  119.71   12.92
  -6   9   5  139.28   12.09
   5  -9  -5   49.22    5.78
  -5   9   5   37.75    5.86
   4  -9  -5  298.31   23.60
  -4   9   5  280.00   23.90
   3  -9  -5   11.01    2.91
  -3   9   5    8.20    2.94
   2  -9  -5  428.72   33.27
  -2   9   5  406.55   33.48
   1  -9  -5    3.71    2.33
  -1   9   5    4.57    2.26
   0  -9  -5  162.42   13.49
   0   9   5  138.90   13.46
   0   9   5  176.86   13.65
  -1  -9  -5   -0.69    2.47
   1   9   5    6.95    2.14
   1   9   5    5.82    2.31
  -2  -9  -5   34.74    4.50
   2   9   5   36.25    4.48
   2   9   5   31.35    4.48
  -3  -9  -5  128.64   11.37
   3   9   5  135.11   11.45
   3   9   5  123.40   11.20
   4   9   5    1.83    1.89
   4   9   5   -1.53    1.84
   4 -10  -5   -0.84    2.35
  -4  10   5   -0.95    2.91
   3 -10  -5   51.13    6.26
  -3  10   5   45.33    5.80
   2 -10  -5   -0.68    2.63
  -2  10   5    2.33    2.46
   1 -10  -5   44.82    5.97
  -1  10   5   39.97    5.46
   0 -10  -5   23.16    4.15
   0  10   5   29.13    4.00
   0  10   5   25.99    4.01
  -1 -10  -5   13.30    3.53
   1  10   5   12.83    2.49
  -2 -10  -5    9.22    3.08
   2  10   5    7.79    2.23
   0  12  -6    3.27    3.41
   4  11  -6    2.14    2.60
  -4 -11   6    6.17    2.75
   3  11  -6   11.21    3.41
  -3 -11   6   16.59    3.34
   2  11  -6   25.42    4.19
   1  11  -6   39.98    6.30
  -1 -11   6   40.32    5.48
   0  11  -6   47.26    6.40
   0 -11   6   43.89    5.92
  -1  11  -6  105.43   11.85
   1 -11   6  116.95    9.80
   1 -11   6   86.95   10.03
  -2  11  -6   10.33    2.77
   2 -11   6   11.97    3.24
   3 -11   6   13.45    3.03
   3 -11   6    6.98    2.97
   5  10  -6    5.18    2.65
   5  10  -6    6.27    2.36
  -5 -10   6    2.86    2.73
  -5 -10   6    3.55    2.45
   4  10  -6   10.63    2.61
  -4 -10   6    5.64    3.05
  -4 -10   6    3.68    2.63
   3  10  -6    7.69    2.58
  -3 -10   6    9.72    2.91
  -3 -10   6   11.72    3.23
   2  10  -6   26.63    4.12
  -2 -10   6   21.35    3.74
   1  10  -6  151.48   13.23
   0  10  -6   10.39    2.52
   0 -10   6    7.45    2.61
  -1  10  -6  138.39   12.57
   1 -10   6  163.84   13.04
  -2  10  -6   15.07    2.36
   2 -10   6   10.20    3.39
   2 -10   6   15.41    3.05
  -3  10  -6   41.42    4.48
   3 -10   6   54.78    5.73
   3 -10   6   32.13    5.65
   4 -10   6   13.50    3.22
   4 -10   6   11.40    3.26
   5 -10   6    5.14    2.53
   5 -10   6    6.78    3.09
   7   9  -6    4.04    2.31
   7   9  -6    3.90    1.92
   6   9  -6   81.04    8.73
   6   9  -6   95.08    8.31
  -6  -9   6   96.28    8.89
  -6  -9   6  100.52    9.38
   5   9  -6   17.77    3.00
  -5  -9   6   24.23    3.80
  -5  -9   6   26.57    4.06
   4   9  -6    0.39    1.62
   4   9  -6    0.05    1.64
  -4  -9   6    0.88    2.06
  -4  -9   6   -2.59    2.43
   3   9  -6   73.76    9.41
  -3  -9   6   94.05    9.08
  -3  -9   6  115.57    8.96
   2   9  -6    6.50    2.78
   2   9  -6    4.12    1.78
  -2  -9   6    3.21    2.15
  -2  -9   6    7.57    2.08
   1   9  -6  419.60   32.55
   1   9  -6  357.97   32.77
  -1  -9   6  416.77   32.91
  -1  -9   6  457.25   32.77
   0   9  -6  125.11   10.43
   0   9  -6  119.60    9.99
   0   9  -6  111.15   10.48
  -1   9  -6   80.66    8.31
  -1   9  -6  104.91    8.42
  -1   9  -6   97.70    7.99
   1  -9   6   81.66    9.64
  -2   9  -6   76.46    6.50
  -2   9  -6   69.01    6.91
   2  -9   6   90.10    7.23
   2  -9   6   63.08    7.50
  -3   9  -6    0.14    1.18
   3  -9   6    1.24    2.02
   3  -9   6   -0.78    2.14
   4  -9   6    1.75    2.49
   4  -9   6    6.51    2.40
   5  -9   6    6.36    2.91
   6  -9   6   14.99    3.00
   6  -9   6   14.65    3.44
   7   8  -6   87.67    8.32
   7   8  -6   87.48    8.74
  -7  -8   6  106.78    9.60
  -7  -8   6  100.22    9.25
   6   8  -6    0.44    1.73
   6   8  -6    0.10    1.52
  -6  -8   6   -1.30    2.82
  -6  -8   6    2.28    2.28
   5   8  -6   36.74    4.02
   5   8  -6   34.01    4.20
  -5  -8   6   36.36    4.92
  -5  -8   6   42.86    5.58
   4   8  -6  175.10   15.64
  -4  -8   6  191.67   16.14
  -4  -8   6  206.62   16.08
   3   8  -6   -0.39    2.40
   3   8  -6    0.59    1.25
  -3  -8   6   -2.36    1.23
  -3  -8   6   -1.71    1.84
   2   8  -6  114.32    9.75
   2   8  -6  102.54   10.47
  -2  -8   6  122.32   10.07
  -2  -8   6  127.33    9.92
  -2  -8   6  115.44   10.17
   1   8  -6   22.11    3.59
   1   8  -6   25.86    4.01
   1   8  -6   19.81    2.81
  -1  -8   6   25.93    3.04
  -1  -8   6   27.63    3.19
  -1  -8   6   23.08    3.36
   0   8  -6    3.28    2.30
   0   8  -6    1.91    1.12
   0   8  -6    3.18    2.29
   0  -8   6    4.74    2.04
   0  -8   6    2.32    1.55
   0  -8   6    3.31    1.47
   0  -8   6    4.27    1.23
  -1   8  -6   82.47    7.63
  -1   8  -6  102.54    8.33
  -1   8  -6   83.79    8.32
   1  -8   6   99.27    7.87
   1  -8   6   93.43    8.04
  -2   8  -6   14.14    2.32
  -2   8  -6   21.79    3.31
  -2   8  -6   12.94    1.80
   2  -8   6   15.20    2.38
   2  -8   6    8.75    2.47
  -3   8  -6   79.81    7.65
  -3   8  -6   91.06    7.60
  -3   8  -6  100.15    7.81
   3  -8   6   87.92    8.71
   3  -8   6  108.87    8.31
  -4   8  -6    6.60    2.01
   4  -8   6    1.27    2.20
   4  -8   6    5.32    2.15
   5  -8   6   15.03    3.22
   5  -8   6   18.32    3.06
   6  -8   6   13.67    3.11
   6  -8   6   10.61    2.94
   7  -8   6   29.90    4.21
   7  -8   6   16.39    3.49
   8   7  -6   11.37    2.35
   8   7  -6   10.12    2.18
  -8  -7   6    8.74    2.65
  -8  -7   6   12.83    3.11
   7   7  -6    3.92    1.81
   7   7  -6    0.48    2.58
  -7  -7   6    5.51    3.23
  -7  -7   6    4.66    2.41
   6   7  -6   54.50    5.40
   6   7  -6   54.56    5.30
  -6  -7   6   64.65    6.93
   5   7  -6    8.43    1.64
  -5  -7   6    7.22    1.95
  -5  -7   6    6.75    2.54
  -5  -7   6   11.44    2.48
   4   7  -6    0.74    2.36
   4   7  -6    2.63    1.07
   4   7  -6    3.53    1.26
  -4  -7   6    2.85    2.22
  -4  -7   6    3.21    1.48
   3   7  -6  450.49   32.19
   3   7  -6  375.86   32.65
  -3  -7   6  413.82   32.33
  -3  -7   6  422.16   32.61
  -3  -7   6  388.57   32.60
   2   7  -6    8.62    2.48
   2   7  -6   10.63    2.59
   2   7  -6   12.85    1.92
  -2  -7   6   10.68    2.07
  -2  -7   6   14.81    2.24
  -2  -7   6   12.88    1.94
  -2  -7   6   11.65    1.95
   1   7  -6  237.38   20.28
   1   7  -6  240.79   19.91
  -1  -7   6  266.04   20.23
  -1  -7   6  246.76   20.26
  -1  -7   6  240.62   19.92
  -1  -7   6  284.46   20.19
   0   7  -6    4.72    2.09
   0   7  -6    7.29    1.22
   0  -7   6    6.92    1.26
   0  -7   6    5.69    1.51
   0  -7   6    6.52    1.47
   0  -7   6    5.23    1.19
  -1   7  -6  132.37   10.71
  -1   7  -6  116.50   10.90
  -1   7  -6  124.36   10.43
   1  -7   6  132.55   10.87
   1  -7   6  145.34   10.60
  -2   7  -6   29.07    3.70
  -2   7  -6   33.63    3.40
  -2   7  -6   32.34    3.04
   2  -7   6   36.23    3.46
   2  -7   6   36.34    3.44
   2  -7   6   23.11    3.85
  -3   7  -6    0.42    0.86
   3  -7   6    0.34    1.81
   3  -7   6    0.62    1.27
   3  -7   6   -0.22    1.04
   4  -7   6  127.51   10.99
   4  -7   6  114.50   11.37
   4  -7   6  145.91   10.89
   5  -7   6   51.78    4.90
   5  -7   6   35.71    5.13
   6  -7   6   18.48    3.67
   6  -7   6   23.76    3.52
   7  -7   6   19.81    3.79
   7  -7   6   17.37    3.05
   9   6  -6   12.10    2.06
   9   6  -6    8.47    2.22
  -9  -6   6   13.18    3.16
  -9  -6   6    4.91    3.55
   8   6  -6   50.86    5.24
  -8  -6   6   53.31    6.71
  -8  -6   6   41.38    6.91
   7   6  -6   28.32    3.50
   7   6  -6   32.34    3.58
  -7  -6   6   24.56    4.65
  -7  -6   6   25.47    4.13
   6   6  -6   94.01    7.77
   6   6  -6   90.96    7.72
  -6  -6   6   86.77    8.89
  -6  -6   6   89.20    8.66
   5   6  -6   15.46    3.24
   5   6  -6   13.02    1.93
   5   6  -6   12.70    1.97
  -5  -6   6    8.86    2.06
  -5  -6   6   10.66    2.93
   4   6  -6    1.47    0.89
   4   6  -6    2.63    2.39
   4   6  -6    0.21    0.71
  -4  -6   6    1.15    1.18
  -4  -6   6   -0.36    1.12
  -4  -6   6   -0.13    1.32
  -4  -6   6   -2.63    1.43
   3   6  -6  473.52   38.62
   3   6  -6  432.66   38.76
   3   6  -6  517.49   38.20
  -3  -6   6  490.63   38.67
  -3  -6   6  522.82   38.71
  -3  -6   6  457.26   38.26
  -3  -6   6  536.39   38.37
   2   6  -6   57.12    5.98
   2   6  -6   64.32    5.27
   2   6  -6   56.97    6.36
  -2  -6   6   58.38    5.68
  -2  -6   6   58.78    5.37
  -2  -6   6   72.90    5.50
  -2  -6   6   61.98    5.75
   1   6  -6  204.53   17.32
   1   6  -6  213.08   17.61
   1   6  -6  205.81   17.89
  -1  -6   6  215.79   17.38
  -1  -6   6  256.44   17.60
  -1  -6   6  233.66   17.71
  -1  -6   6  214.24   17.66
   0   6  -6   18.67    3.19
   0   6  -6   19.70    2.14
   0   6  -6   24.86    2.67
   0  -6   6   22.77    2.29
   0  -6   6   22.40    2.63
   0  -6   6   19.44    2.45
   0  -6   6   24.77    2.45
  -1   6  -6  159.67   14.27
  -1   6  -6  173.56   14.19
   1  -6   6  189.39   14.30
   1  -6   6  204.54   14.56
   1  -6   6  155.00   14.52
   1  -6   6  202.42   14.37
  -2   6  -6   50.89    5.58
   2  -6   6   66.41    5.54
   2  -6   6   62.35    5.48
   2  -6   6   72.77    5.28
   3  -6   6   82.43    6.87
   3  -6   6   76.79    6.72
   4  -6   6   70.56    6.47
   4  -6   6   70.92    6.16
   5  -6   6   59.00    6.69
   5  -6   6   69.16    6.10
   5  -6   6   71.38    6.44
   6  -6   6   33.46    5.19
   6  -6   6   39.84    4.53
   7  -6   6    1.39    2.29
   7  -6   6    4.66    2.62
   8  -6   6   -2.26    2.10
   8  -6   6   -3.70    2.95
   9   5  -6   27.60    3.91
   9   5  -6   22.79    3.59
  -9  -5   6   19.67    3.98
   8   5  -6   13.59    2.47
   8   5  -6   13.11    2.19
  -8  -5   6   15.72    3.95
  -8  -5   6   12.31    3.16
   7   5  -6   34.59    3.92
   7   5  -6   35.03    3.68
  -7  -5   6   38.26    5.51
  -7  -5   6   38.71    5.21
   6   5  -6   96.12    8.24
   6   5  -6  105.89    8.25
  -6  -5   6   99.38    9.07
  -6  -5   6   90.60    9.26
   5   5  -6  103.05    8.00
   5   5  -6   96.79    7.98
   5   5  -6   85.80    8.82
  -5  -5   6   99.67    8.74
  -5  -5   6   94.19    8.72
   4   5  -6  135.82   10.07
   4   5  -6  124.55   10.83
   4   5  -6  117.45   10.87
   4   5  -6  124.21   10.07
  -4  -5   6  141.92   10.32
  -4  -5   6  124.48   10.65
  -4  -5   6  107.78   10.18
  -4  -5   6  125.80   10.68
  -4  -5   6  122.17   10.23
   3   5  -6    1.50    0.62
   3   5  -6    3.12    0.77
   3   5  -6    3.52    2.01
   3   5  -6    1.23    1.69
  -3  -5   6    2.50    1.40
  -3  -5   6    2.13    1.15
  -3  -5   6    2.89    1.02
  -3  -5   6    3.56    1.32
  -3  -5   6    3.69    1.04
   2   5  -6   25.58    2.18
   2   5  -6   19.96    2.93
   2   5  -6   22.44    3.34
  -2  -5   6   22.32    2.66
  -2  -5   6   19.88    2.48
  -2  -5   6   21.55    2.33
   1   5  -6  127.27   10.64
   1   5  -6  126.27   10.42
   1   5  -6  114.42   11.03
  -1  -5   6  132.20   10.76
  -1  -5   6  129.72   10.82
  -1  -5   6  152.10   10.69
  -1  -5   6  139.33   10.51
   0   5  -6  424.28   38.52
   0   5  -6  460.23   38.95
   0   5  -6  517.53   38.53
   0  -5   6  489.52   38.79
   0  -5   6  533.39   38.83
   0  -5   6  533.53   38.87
   0  -5   6  526.13   38.59
  -1   5  -6  381.15   34.16
   1  -5   6  428.77   34.05
   1  -5   6  475.90   33.98
   1  -5   6  462.06   34.13
   2  -5   6    4.11    1.05
   2  -5   6    2.90    0.82
   2  -5   6    2.05    1.17
   3  -5   6   46.61    4.35
   3  -5   6   48.81    4.08
   3  -5   6   41.74    4.60
   4  -5   6   13.48    1.80
   4  -5   6   10.74    2.19
   4  -5   6   13.92    2.19
   5  -5   6   10.29    2.23
   5  -5   6   12.08    1.81
   5  -5   6   12.87    2.31
   6  -5   6   38.03    3.99
   6  -5   6   29.60    4.41
   7  -5   6    1.72    2.14
   8  -5   6    4.05    2.16
   8  -5   6    1.49    2.91
   9   4  -6    4.86    1.67
   9   4  -6    4.77    2.10
  -9  -4   6    7.18    3.04
  -9  -4   6    3.70    3.43
   8   4  -6   46.65    4.36
   8   4  -6   41.26    4.76
  -8  -4   6   45.79    5.74
  -8  -4   6   36.60    5.82
   7   4  -6  107.08    9.03
  -7  -4   6  106.23    9.78
  -7  -4   6  107.04   10.12
   6   4  -6   27.14    2.53
   6   4  -6   17.16    3.41
   6   4  -6   23.33    2.72
  -6  -4   6   21.56    3.65
  -6  -4   6   26.22    3.86
   5   4  -6  205.63   18.55
   5   4  -6  222.71   17.74
   5   4  -6  213.30   18.33
  -5  -4   6  235.85   18.46
  -5  -4   6  244.51   18.53
  -5  -4   6  256.90   18.06
  -5  -4   6  195.56   17.86
   4   4  -6   15.53    1.62
   4   4  -6   14.22    1.54
   4   4  -6   18.32    2.68
   4   4  -6    9.29    2.48
  -4  -4   6   11.55    1.85
  -4  -4   6   10.78    1.81
  -4  -4   6   14.14    2.34
  -4  -4   6   13.20    2.26
  -4  -4   6   18.19    2.13
   3   4  -6  105.40   10.49
   3   4  -6  108.52   10.03
   3   4  -6  126.65    9.29
  -3  -4   6  111.09    9.40
  -3  -4   6  121.14    9.35
  -3  -4   6  117.40    9.76
  -3  -4   6  125.09    9.51
  -3  -4   6  108.86    9.79
   2   4  -6   10.35    2.17
   2   4  -6   14.31    2.08
   2   4  -6   13.12    1.40
  -2  -4   6   13.39    2.02
  -2  -4   6   14.09    1.69
  -2  -4   6    9.91    1.78
  -2  -4   6   16.80    1.57
   1   4  -6  299.70   25.29
   1   4  -6  321.16   24.79
  -1  -4   6  313.37   25.03
  -1  -4   6  309.45   25.18
  -1  -4   6  336.59   24.90
  -1  -4   6  331.31   24.81
   0   4  -6   97.17    8.25
   0  -4   6   82.60    7.86
   0  -4   6   98.78    8.05
   0  -4   6  106.45    7.70
   0  -4   6  100.44    7.88
  -1   4  -6   20.96    2.79
   1  -4   6   24.14    2.44
   1  -4   6   25.40    2.27
   1  -4   6   26.38    2.36
   2  -4   6  629.13   46.17
   2  -4   6  570.52   46.12
   2  -4   6  587.39   46.15
   3  -4   6   51.75    5.04
   3  -4   6   51.77    4.54
   3  -4   6   56.70    4.28
   4  -4   6   22.48    3.09
   4  -4   6   25.40    2.38
   4  -4   6   19.11    2.89
   5  -4   6   77.95    6.25
   5  -4   6   75.99    6.89
   5  -4   6   63.86    6.72
   6  -4   6    2.15    2.03
   6  -4   6    3.87    1.46
   6  -4   6    3.10    1.79
   7  -4   6    0.94    1.93
   7  -4   6   -1.91    1.87
   8  -4   6    1.89    3.14
   8  -4   6    9.47    2.64
   8  -4   6    3.22    2.88
  10   3  -6   37.32    4.29
 -10  -3   6   30.63    4.90
 -10  -3   6   25.62    4.59
   9   3  -6    7.08    2.25
   9   3  -6    2.67    1.44
  -9  -3   6    2.08    3.21
  -9  -3   6    0.42    2.91
   8   3  -6   26.16    2.94
   8   3  -6   24.31    3.47
  -8  -3   6   24.89    4.22
  -8  -3   6   22.11    3.74
   7   3  -6  438.59   35.54
  -7  -3   6  460.78   36.03
   6   3  -6    2.30    0.67
   6   3  -6    2.46    2.19
   6   3  -6   -0.15    0.97
   6   3  -6    2.89    1.92
  -6  -3   6    1.57    1.68
  -6  -3   6    1.01    1.71
   5   3  -6   13.84    1.39
   5   3  -6    9.44    2.40
   5   3  -6   11.02    2.28
   5   3  -6   10.12    1.59
  -5  -3   6    9.41    2.04
  -5  -3   6   11.36    2.30
  -5  -3   6    9.88    1.73
  -5  -3   6    9.47    1.66
   4   3  -6  221.59   18.36
   4   3  -6  241.20   17.89
   4   3  -6  247.31   18.01
   4   3  -6  200.73   18.63
  -4  -3   6  227.76   18.50
  -4  -3   6  256.95   18.23
  -4  -3   6  219.58   18.57
  -4  -3   6  213.29   18.13
   3   3  -6  358.92   25.32
   3   3  -6  334.61   25.58
   3   3  -6  285.17   25.89
  -3  -3   6  309.35   25.83
  -3  -3   6  297.23   25.40
  -3  -3   6  368.98   25.53
  -3  -3   6  319.23   25.72
   2   3  -6   41.79    3.81
   2   3  -6   40.57    4.54
   2   3  -6   48.95    3.57
  -2  -3   6   44.05    3.96
  -2  -3   6   43.13    3.72
  -2  -3   6   39.09    4.13
   1   3  -6    7.67    1.71
  -1  -3   6    9.64    1.34
  -1  -3   6    8.68    1.02
  -1  -3   6    7.82    1.07
  -1  -3   6    8.47    1.44
   0   3  -6  154.12   13.16
   0  -3   6  162.82   13.07
   0  -3   6  145.64   13.17
   0  -3   6  183.31   12.67
   1  -3   6  173.05   13.09
   1  -3   6  174.94   13.03
   1  -3   6  151.97   13.29
   2  -3   6  228.96   17.32
   2  -3   6  213.96   17.41
   3  -3   6  684.03   53.31
   3  -3   6  725.16   53.35
   3  -3   6  626.36   53.77
   3  -3   6  721.70   53.46
   4  -3   6   16.11    2.49
   4  -3   6   15.19    2.31
   4  -3   6   15.82    1.77
   5  -3   6  207.44   17.26
   5  -3   6  205.17   17.35
   5  -3   6  227.09   16.98
   6  -3   6   21.72    4.09
   6  -3   6   30.53    3.62
   6  -3   6   26.89    4.08
   7  -3   6   10.85    2.42
   7  -3   6   11.81    2.34
   7  -3   6    8.13    3.17
   8  -3   6    1.98    2.06
   8  -3   6   -1.87    2.63
   8  -3   6   -2.61    2.34
   9  -3   6    3.71    2.11
  10   2  -6    3.54    1.78
 -10  -2   6   -4.42    2.92
 -10  -2   6    1.34    3.28
   9   2  -6   26.93    3.96
   9   2  -6   26.18    3.29
  -9  -2   6   22.13    3.99
  -9  -2   6   18.90    4.30
   8   2  -6   33.90    4.29
   8   2  -6   40.82    3.82
  -8  -2   6   40.81    5.91
  -8  -2   6   38.55    5.10
   7   2  -6   12.22    1.71
   7   2  -6   12.06    2.10
  -7  -2   6    8.96    2.51
   6   2  -6    3.28    1.87
   6   2  -6    1.29    1.02
   6   2  -6    1.45    0.62
   6   2  -6    4.94    2.10
  -6  -2   6    0.71    0.99
  -6  -2   6   -1.02    1.63
  -6  -2   6    0.65    1.48
  -6  -2   6    1.37    1.29
   5   2  -6   53.73    4.55
   5   2  -6   53.43    5.27
   5   2  -6   44.60    5.51
  -5  -2   6   52.86    5.26
  -5  -2   6   48.64    4.80
  -5  -2   6   56.92    4.77
  -5  -2   6   54.10    5.20
   4   2  -6   69.34    6.20
   4   2  -6   67.27    5.68
   4   2  -6   74.74    5.48
   4   2  -6   62.73    6.50
  -4  -2   6   62.17    6.25
  -4  -2   6   67.49    6.15
  -4  -2   6   66.06    5.90
  -4  -2   6   77.98    5.93
   3   2  -6  257.85   22.14
   3   2  -6  292.69   21.75
   3   2  -6  285.04   21.51
  -3  -2   6  263.41   21.63
  -3  -2   6  303.41   21.69
  -3  -2   6  243.87   21.99
  -3  -2   6  285.23   21.92
   2   2  -6  136.50   10.13
   2   2  -6  122.83   10.79
  -2  -2   6  116.08   10.56
  -2  -2   6  127.70    9.95
  -2  -2   6  136.19   10.41
  -2  -2   6  129.44   10.17
  -1  -2   6  189.45   15.77
  -1  -2   6  203.15   15.31
   0  -2   6   38.14    3.13
   0  -2   6   39.84    3.00
   0  -2   6   33.74    3.54
   1  -2   6   10.08    1.60
   2  -2   6  708.12   52.75
   2  -2   6  703.60   52.71
   2  -2   6  713.40   53.08
   2  -2   6  607.52   53.13
   3  -2   6  162.81   12.37
   3  -2   6  160.24   12.44
   3  -2   6  144.20   12.62
   4  -2   6  143.29   11.33
   4  -2   6  130.27   11.54
   4  -2   6  140.00   11.73
   4  -2   6  154.48   11.23
   5  -2   6  107.00    9.20
   5  -2   6  103.25    8.41
   5  -2   6  112.51    8.74
   5  -2   6  102.76    8.46
   5  -2   6  108.92    9.14
   6  -2   6    2.67    2.19
   6  -2   6    7.11    2.32
   6  -2   6    6.03    1.65
   6  -2   6    8.97    1.52
   7  -2   6    1.81    1.67
   7  -2   6    3.46    1.64
   7  -2   6   -0.51    2.27
   8  -2   6    0.46    2.57
   8  -2   6    6.34    2.55
   8  -2   6    3.34    2.18
   9  -2   6   13.01    4.44
   9  -2   6   14.19    3.30
   9  -2   6    6.73    2.38
  10   1  -6   -2.24    1.43
  10   1  -6   -3.21    1.89
 -10  -1   6    0.79    3.25
 -10  -1   6   -1.41    3.17
   9   1  -6  179.26   15.41
   9   1  -6  179.63   15.67
   9   1  -6  202.95   15.64
  -9  -1   6  190.38   16.85
  -9  -1   6  196.54   16.42
   8   1  -6    0.43    1.29
   8   1  -6   -2.77    1.52
   8   1  -6    1.16    0.97
  -8  -1   6   -2.41    2.41
  -8  -1   6   -1.30    2.16
   7   1  -6   13.42    2.11
   7   1  -6   12.23    1.76
   7   1  -6   14.53    2.22
  -7  -1   6   11.82    3.21
  -7  -1   6   11.35    2.58
   6   1  -6    2.88    1.12
   6   1  -6    0.72    0.84
   6   1  -6    1.33    0.62
   6   1  -6    0.87    1.93
   6   1  -6    0.59    1.85
  -6  -1   6    1.60    1.55
  -6  -1   6    2.96    1.48
  -6  -1   6    2.67    1.74
  -6  -1   6    0.82    1.05
   5   1  -6   93.41    7.53
   5   1  -6   81.97    8.28
   5   1  -6   97.31    8.04
  -5  -1   6   87.47    8.10
  -5  -1   6   88.24    7.69
  -5  -1   6   99.08    7.68
  -5  -1   6   88.72    8.05
   4   1  -6   41.49    3.57
   4   1  -6   37.41    4.49
   4   1  -6   41.16    4.08
  -4  -1   6   45.24    4.09
  -4  -1   6   42.13    3.72
  -4  -1   6   38.73    4.19
  -4  -1   6   40.88    3.86
   3   1  -6  150.83   11.76
   3   1  -6  136.64   12.40
   3   1  -6  165.22   11.97
  -3  -1   6  146.08   11.92
  -3  -1   6  159.44   11.97
  -3  -1   6  136.79   12.28
  -3  -1   6  149.42   12.12
   2   1  -6   94.18    6.84
   2   1  -6   83.40    6.86
  -2  -1   6   77.32    7.42
  -2  -1   6   84.38    7.01
  -2  -1   6   94.05    7.01
  -2  -1   6   86.73    7.16
  -1  -1   6  399.85   28.80
  -1  -1   6  390.80   28.69
  -1  -1   6  376.25   29.22
  -1  -1   6  317.28   28.65
   0  -1   6   69.56    5.20
   0  -1   6   58.50    5.75
   0  -1   6   69.27    5.18
   1  -1   6 1683.59  131.73
   1  -1   6 1725.37  131.63
   2  -1   6    6.14    0.63
   2  -1   6    6.91    0.75
   3  -1   6  105.25    7.89
   3  -1   6   83.52    8.39
   3  -1   6  104.69    7.93
   3  -1   6   97.99    8.12
   4  -1   6  142.38   12.43
   4  -1   6  156.47   12.54
   4  -1   6  163.46   12.25
   5  -1   6  203.05   17.79
   5  -1   6  225.76   17.45
   5  -1   6  214.55   17.77
   5  -1   6  240.41   17.56
   6  -1   6   18.42    2.48
   6  -1   6   17.46    3.12
   6  -1   6   14.15    3.13
   6  -1   6   21.22    2.73
   6  -1   6   20.81    2.48
   7  -1   6   72.47    8.56
   7  -1   6   77.12    6.60
   7  -1   6   61.56    7.79
   8  -1   6   30.19    5.54
   8  -1   6   38.03    5.01
   8  -1   6   38.04    4.76
   9  -1   6    1.43    2.01
   9  -1   6    6.61    2.88
   9  -1   6    3.46    3.30
  10   0  -6    1.79    2.01
  10   0  -6   -0.35    1.67
 -10   0   6   -1.69    3.45
 -10   0   6   -0.72    3.27
   9   0  -6   13.46    2.37
   9   0  -6    7.89    2.00
   9   0  -6   15.12    2.62
  -9   0   6   10.30    3.70
  -9   0   6   10.87    3.34
   8   0  -6  188.11   15.67
   8   0  -6  217.90   15.67
   8   0  -6  165.09   15.38
  -8   0   6  197.84   16.58
   7   0  -6  154.77   14.64
   7   0  -6  205.78   14.91
   7   0  -6  186.40   14.96
  -7   0   6  183.04   15.43
  -7   0   6  195.00   16.19
   6   0  -6   42.30    4.54
   6   0  -6   44.17    3.72
   6   0  -6   31.98    3.44
   6   0  -6   42.02    3.84
  -6   0   6   42.09    4.66
  -6   0   6   39.92    3.98
  -6   0   6   35.36    4.54
  -6   0   6   35.34    4.07
   5   0  -6  310.83   24.87
   5   0  -6  344.41   24.86
   5   0  -6  320.05   25.14
  -5   0   6  297.04   25.35
  -5   0   6  317.40   24.91
  -5   0   6  306.70   25.31
  -5   0   6  318.97   25.04
   4   0  -6   46.99    3.80
   4   0  -6   42.74    3.45
   4   0  -6   46.05    4.21
   4   0  -6   36.97    3.48
  -4   0   6   41.31    4.38
  -4   0   6   45.77    3.88
  -4   0   6   46.24    4.14
  -4   0   6   47.18    4.21
   3   0  -6  727.09   54.85
   3   0  -6  667.86   54.74
  -3   0   6  721.14   55.08
  -3   0   6  682.33   55.31
  -3   0   6  714.38   54.79
  -3   0   6  735.92   54.93
   2   0  -6   10.84    1.07
  -2   0   6   11.03    1.43
  -2   0   6   10.50    1.45
  -2   0   6   10.02    1.13
  -2   0   6    8.21    1.64
  -1   0   6  399.47   35.46
  -1   0   6  489.03   34.95
  -1   0   6  463.62   35.00
   0   0   6   23.41    2.24
   0   0   6   24.63    2.02
   0   0   6   26.06    2.09
   1   0   6  115.36    8.09
   1   0   6  111.98    8.07
   1   0   6   90.09    8.31
   1   0   6   96.53    8.49
   2   0   6  123.88   11.60
   2   0   6  141.38   11.36
   2   0   6  146.03   11.12
   2   0   6  157.50   11.18
   3   0   6  200.16   18.23
   3   0   6  224.40   17.87
   3   0   6  236.63   17.80
   3   0   6  242.47   17.68
   4   0   6  506.84   37.20
   4   0   6  503.71   37.38
   4   0   6  423.05   37.82
   5   0   6 1263.81   90.10
   5   0   6 1014.01   90.74
   5   0   6 1106.47   90.24
   5   0   6 1228.42   90.25
   5   0   6 1204.34   90.09
   6   0   6  105.02    9.18
   6   0   6  112.28    9.22
   6   0   6  103.71    9.66
   6   0   6  125.10    9.17
   6   0   6   96.08   10.05
   7   0   6   37.11    6.03
   7   0   6   46.81    4.83
   7   0   6   51.07    4.92
   8   0   6   71.12    8.95
   8   0   6   95.81    8.11
   8   0   6   88.82    8.34
  10  -1  -6   30.51    4.25
 -10   1   6   28.58    5.04
 -10   1   6   28.38    4.69
   9  -1  -6  134.97   12.07
   9  -1  -6  154.66   12.00
  -9   1   6  136.07   13.32
  -9   1   6  133.45   12.76
   8  -1  -6    0.27    1.66
   8  -1  -6    2.44    1.34
   8  -1  -6    0.49    1.14
  -8   1   6    0.05    2.87
  -8   1   6   -0.09    2.34
   7  -1  -6   31.16    3.68
   7  -1  -6   33.21    3.42
  -7   1   6   29.70    4.43
  -7   1   6   32.39    4.98
   6  -1  -6    0.83    1.10
   6  -1  -6    0.95    0.71
   6  -1  -6    1.83    1.73
   6  -1  -6    1.38    0.80
  -6   1   6    2.83    1.57
  -6   1   6    1.08    1.25
  -6   1   6    2.78    1.66
  -6   1   6    0.15    1.52
   5  -1  -6  342.79   25.20
   5  -1  -6  314.81   25.26
   5  -1  -6  333.27   25.49
  -5   1   6  329.29   25.43
  -5   1   6  300.72   25.76
  -5   1   6  315.03   25.27
  -5   1   6  312.43   25.69
   4  -1  -6  368.15   26.75
   4  -1  -6  343.47   26.57
   4  -1  -6  344.41   26.93
   4  -1  -6  333.94   26.81
  -4   1   6  361.48   26.99
  -4   1   6  347.70   26.82
  -4   1   6  329.61   27.14
  -4   1   6  312.53   27.30
   3  -1  -6  134.19    9.15
   3  -1  -6  108.88    9.34
   3  -1  -6  110.44    9.28
  -3   1   6  120.74    9.51
  -3   1   6  118.52    9.61
  -3   1   6  116.62    9.29
  -3   1   6  102.56    9.83
   2  -1  -6    0.38    0.38
   2  -1  -6    0.79    0.42
   2  -1  -6    0.46    0.38
  -2   1   6    0.64    0.60
  -2   1   6   -0.17    0.82
  -2   1   6    0.00    0.74
  -2   1   6    0.33    0.39
  -1   1   6   47.12    3.91
  -1   1   6   46.42    3.68
  -1   1   6   44.76    3.87
   0   1   6  380.33   28.52
   0   1   6  408.55   28.66
   0   1   6  315.48   28.44
   1   1   6  469.92   34.61
   1   1   6  435.61   34.50
   1   1   6  414.60   34.80
   1   1   6  465.59   34.57
   2   1   6  242.25   18.43
   2   1   6  231.48   18.52
   2   1   6  254.84   18.58
   2   1   6  219.69   18.86
   3   1   6  194.68   15.26
   3   1   6  184.23   15.36
   3   1   6  180.70   15.71
   3   1   6  212.46   15.19
  -4  -1  -6    3.18    1.34
   4   1   6    3.54    1.66
   4   1   6    6.08    1.52
   4   1   6    5.34    0.95
   4   1   6    5.09    0.92
   4   1   6    5.74    1.55
   5   1   6  233.08   17.01
   5   1   6  204.37   17.39
   5   1   6  217.42   17.18
   5   1   6  199.51   17.74
   5   1   6  212.03   17.02
   6   1   6  188.68   16.01
   6   1   6  210.85   15.95
   6   1   6  180.31   16.31
   6   1   6  207.06   16.95
   7   1   6   30.05    3.68
   7   1   6   18.26    3.18
   7   1   6   20.39    4.00
   8   1   6   74.00    7.24
   8   1   6   68.32    7.61
   8   1   6   62.37    6.72
  10  -2  -6    6.03    3.08
  10  -2  -6   11.37    2.42
  10  -2  -6   19.63    3.29
 -10   2   6   16.85    3.99
 -10   2   6   11.88    3.77
   9  -2  -6   -0.51    1.64
   9  -2  -6   -0.65    1.63
   9  -2  -6    1.78    2.03
  -9   2   6    3.14    3.33
  -9   2   6   -1.43    2.73
   8  -2  -6    1.22    1.31
   8  -2  -6    2.75    1.94
   8  -2  -6    0.34    1.22
  -8   2   6    0.61    2.48
  -8   2   6    1.78    2.93
   7  -2  -6   77.32    5.93
  -7   2   6   59.60    6.86
  -7   2   6   66.18    6.90
  -7   2   6   55.40    6.13
   6  -2  -6   43.16    3.97
   6  -2  -6   31.60    3.59
   6  -2  -6   38.88    4.33
   6  -2  -6   42.48    3.65
  -6   2   6   36.43    4.54
  -6   2   6   37.35    4.06
  -6   2   6   39.17    4.77
   5  -2  -6    3.88    1.62
   5  -2  -6    5.39    1.31
   5  -2  -6    5.20    0.97
   5  -2  -6    6.33    1.13
  -5   2   6    6.55    1.66
  -5   2   6    3.89    1.66
  -5   2   6    4.74    1.70
  -5   2   6    5.93    1.39
   4  -2  -6  159.41   11.38
   4  -2  -6  153.90   11.42
   4  -2  -6  132.83   11.53
   4  -2  -6  142.48   11.67
  -4   2   6  141.73   11.90
  -4   2   6  127.37   12.07
  -4   2   6  143.93   11.76
   3  -2  -6  642.27   50.69
   3  -2  -6  677.10   50.56
   3  -2  -6  729.91   50.61
  -3   2   6  647.03   50.96
  -3   2   6  686.82   50.85
  -3   2   6  612.18   50.62
  -3   2   6  578.30   51.21
   2  -2  -6   12.96    1.49
   2  -2  -6   12.86    1.38
   2  -2  -6   12.88    1.42
  -2   2   6   12.21    1.33
  -2   2   6   16.01    1.70
  -2   2   6   11.19    1.85
   1  -2  -6  144.40   10.43
   1  -2  -6  121.56   10.67
  -1   2   6  136.98   10.67
  -1   2   6  131.53   10.64
   0   2   6  242.34   20.06
   0   2   6  233.02   19.97
   0   2   6  294.38   20.17
  -1  -2  -6    2.17    1.07
   1   2   6    3.66    0.94
   1   2   6    5.17    0.97
   1   2   6    4.42    0.68
   1   2   6    3.40    0.43
   2   2   6    6.44    0.78
   2   2   6    5.23    0.81
   2   2   6    7.06    1.32
   2   2   6    4.88    1.13
   3   2   6   59.90    5.00
   3   2   6   60.24    5.01
   3   2   6   65.63    5.61
   3   2   6   59.18    5.60
   4   2   6  194.12   14.85
   4   2   6  186.89   14.47
   4   2   6  181.52   14.94
   4   2   6  170.19   15.07
   4   2   6  179.23   14.45
   5   2   6  161.63   12.55
   5   2   6  144.60   13.17
   5   2   6  162.75   12.53
   5   2   6  149.39   12.88
  -6  -2  -6    2.96    1.71
   6   2   6    1.36    4.45
   6   2   6   -0.21    1.21
   6   2   6    1.58    1.85
   6   2   6    4.80    2.10
   6   2   6    0.28    0.95
   7   2   6    7.85    2.36
   7   2   6    3.88    1.66
   7   2   6    2.78    2.37
   8   2   6  132.15   11.18
   8   2   6  136.22   11.51
   8   2   6  117.37   11.75
  10  -3  -6   86.27    7.73
 -10   3   6   73.02    9.65
 -10   3   6   86.20    9.12
   9  -3  -6   53.54    5.45
   9  -3  -6   54.11    5.81
  -9   3   6   43.15    6.51
  -9   3   6   47.24    7.25
   8  -3  -6   10.89    2.03
   8  -3  -6    9.49    2.28
  -8   3   6    9.18    3.56
   7  -3  -6  145.32   11.69
   7  -3  -6  157.70   11.45
   7  -3  -6  120.78   11.28
  -7   3   6  140.14   12.28
  -7   3   6  131.64   12.06
  -7   3   6  136.69   12.44
   6  -3  -6   57.64    5.47
   6  -3  -6   45.31    5.03
   6  -3  -6   60.80    4.84
   6  -3  -6   56.69    4.93
  -6   3   6   44.56    5.70
  -6   3   6   51.49    5.91
  -6   3   6   54.15    5.35
   5  -3  -6   57.61    5.19
   5  -3  -6   55.23    4.54
   5  -3  -6   50.43    4.85
   5  -3  -6   53.62    4.62
  -5   3   6   53.62    5.57
  -5   3   6   50.92    5.33
  -5   3   6   45.65    4.92
  -5   3   6   53.00    5.07
   4  -3  -6  121.09   10.01
   4  -3  -6  127.44   10.11
   4  -3  -6  136.10    9.80
  -4   3   6  104.55   10.53
  -4   3   6  124.54   10.39
  -4   3   6  129.86   10.24
  -4   3   6  112.98    9.99
   3  -3  -6  250.44   19.64
   3  -3  -6  231.88   19.66
   3  -3  -6  267.61   19.47
  -3   3   6  247.88   19.94
  -3   3   6  251.43   19.84
   2  -3  -6    2.50    0.84
   2  -3  -6    1.75    0.69
   2  -3  -6    3.69    0.76
  -2   3   6    3.28    1.16
  -2   3   6    4.52    1.00
  -2   3   6    2.49    0.63
   1  -3  -6    2.13    0.60
   1  -3  -6    2.92    0.61
  -1   3   6    2.15    0.62
  -1   3   6    2.63    0.72
  -1   3   6    1.98    1.02
   0  -3  -6  697.57   59.68
   0  -3  -6  826.30   59.31
   0  -3  -6  747.53   59.32
   0   3   6  813.70   59.60
   0   3   6  757.10   59.47
  -1  -3  -6  797.34   63.52
  -1  -3  -6  743.33   63.52
   1   3   6  942.71   64.04
   1   3   6  816.49   63.73
   2   3   6  218.25   16.98
   2   3   6  212.79   17.31
   2   3   6  218.88   17.35
   3   3   6  984.25   78.44
   3   3   6  995.19   77.98
   3   3   6 1057.54   78.62
   3   3   6 1003.86   78.09
   4   3   6  111.60   10.55
   4   3   6  120.96    9.84
   4   3   6  124.36    9.75
   4   3   6  124.15   10.35
   4   3   6  125.66   10.51
   5   3   6   83.86    8.14
   5   3   6  105.63    8.59
   5   3   6   91.95    7.56
   5   3   6   97.04    7.75
   5   3   6   74.32    8.45
   6   3   6  137.69   10.80
   6   3   6  133.90   10.95
   6   3   6  119.35   11.71
   7   3   6   36.03    4.32
   7   3   6   44.34    4.86
   7   3   6   36.29    5.31
   8   3   6   42.28    4.99
   8   3   6   49.23    5.59
   8   3   6   38.84    5.93
   9  -4  -6  222.52   18.52
   9  -4  -6  242.67   18.43
  -9   4   6  205.60   19.26
  -9   4   6  220.43   19.45
   8  -4  -6   45.09    5.37
   8  -4  -6   49.83    4.94
  -8   4   6   45.98    6.90
  -8   4   6   38.42    6.45
   7  -4  -6  105.52    9.31
   7  -4  -6  126.77    9.44
   7  -4  -6  108.51    9.70
  -7   4   6  114.39   10.58
  -7   4   6   99.40   10.30
   6  -4  -6  226.71   16.55
   6  -4  -6  207.46   16.59
   6  -4  -6  192.82   16.74
  -6   4   6  201.91   17.40
  -6   4   6  202.65   17.40
   5  -4  -6   31.20    3.67
   5  -4  -6   36.45    3.40
   5  -4  -6   35.20    3.05
   5  -4  -6   30.34    3.51
  -5   4   6   24.89    3.66
  -5   4   6   37.56    4.30
  -5   4   6   27.16    4.24
   4  -4  -6   -0.64    0.94
   4  -4  -6    1.61    0.59
   4  -4  -6    1.66    1.29
   4  -4  -6    1.52    0.88
  -4   4   6    2.28    1.66
  -4   4   6    1.44    1.08
  -4   4   6    1.11    1.36
  -4   4   6    2.21    1.36
   3  -4  -6  145.94   10.88
   3  -4  -6  149.41   11.18
   3  -4  -6  135.69   11.12
   3  -4  -6  125.79   11.15
  -3   4   6  134.07   11.44
  -3   4   6  137.63   11.41
   2  -4  -6  510.29   41.76
   2  -4  -6  546.15   41.66
   2  -4  -6  569.76   41.88
  -2   4   6  539.46   41.98
  -2   4   6  520.22   41.93
   1  -4  -6  298.10   23.98
   1  -4  -6  296.75   24.02
   1  -4  -6  328.68   24.31
  -1   4   6  312.03   24.21
  -1   4   6  315.70   24.28
  -1   4   6  294.39   24.17
   0  -4  -6   12.35    1.67
   0  -4  -6   16.20    2.55
   0  -4  -6   15.89    1.76
   0   4   6   14.73    2.40
   0   4   6   18.62    1.95
   0   4   6   15.95    1.78
  -1  -4  -6  830.88   69.45
  -1  -4  -6  842.91   69.44
   1   4   6  892.72   69.61
   1   4   6 1036.65   69.97
  -2  -4  -6  523.81   43.13
  -2  -4  -6  527.04   43.13
   2   4   6  622.89   43.78
   2   4   6  563.14   43.32
  -3  -4  -6  381.36   34.52
   3   4   6  471.30   35.28
   3   4   6  456.26   34.82
   3   4   6  432.54   35.30
   3   4   6  497.56   35.34
   4   4   6  641.30   53.28
   4   4   6  715.82   52.82
   5   4   6   14.78    2.43
   5   4   6   17.52    3.19
   6   4   6   78.79    7.27
   6   4   6   78.56    6.99
   6   4   6   86.08    8.13
   7   4   6  121.70   11.10
   7   4   6  124.13   10.54
   7   4   6  113.10   10.02
   9  -5  -6   17.54    3.01
   9  -5  -6   20.78    3.21
  -9   5   6   15.81    3.73
  -9   5   6   11.14    3.84
   8  -5  -6  125.13   10.07
   8  -5  -6  110.79   10.32
  -8   5   6  114.13   11.53
  -8   5   6  105.11   11.38
   7  -5  -6   82.20    8.26
   7  -5  -6   98.18    7.95
   7  -5  -6   93.46    8.42
  -7   5   6   84.81    9.45
   6  -5  -6  141.62   10.72
   6  -5  -6  129.70   10.95
   6  -5  -6  141.41   10.61
  -6   5   6  106.31   10.87
  -6   5   6  126.70   11.80
  -6   5   6  122.67   11.66
   5  -5  -6   18.36    2.66
   5  -5  -6   20.24    2.12
   5  -5  -6   19.67    2.72
  -5   5   6   15.00    3.58
  -5   5   6   12.14    2.98
   4  -5  -6  497.99   37.76
   4  -5  -6  525.88   38.04
   4  -5  -6  449.67   38.05
   4  -5  -6  499.18   38.03
  -4   5   6  455.56   38.40
   3  -5  -6  142.87   10.50
   3  -5  -6  130.68   10.91
   3  -5  -6  129.40   10.80
  -3   5   6  140.15   11.16
  -3   5   6  122.10   11.16
   2  -5  -6  467.59   36.65
   2  -5  -6  450.69   36.78
   2  -5  -6  518.72   36.95
  -2   5   6  445.79   36.98
  -2   5   6  473.44   37.02
   1  -5  -6  594.11   45.75
   1  -5  -6  561.92   45.48
   1  -5  -6  589.88   45.37
  -1   5   6  595.42   45.77
  -1   5   6  560.81   45.68
  -1   5   6  611.15   45.70
   0  -5  -6  199.58   18.39
   0  -5  -6  233.06   17.96
   0  -5  -6  219.49   18.00
   0   5   6  233.95   18.18
   0   5   6  239.71   18.32
   0   5   6  248.68   18.55
  -1  -5  -6  649.03   58.26
  -1  -5  -6  699.38   57.77
   1   5   6  754.95   57.93
   1   5   6  826.10   58.34
   1   5   6  805.00   58.19
  -2  -5  -6  347.20   28.24
  -2  -5  -6  342.98   28.24
   2   5   6  371.40   28.42
   2   5   6  393.26   28.95
  -3  -5  -6  116.75    9.91
  -3  -5  -6  117.93    9.96
   3   5   6  133.63   10.95
   3   5   6  135.69   10.21
  -4  -5  -6    4.34    0.83
  -4  -5  -6    1.89    1.11
  -4  -5  -6    3.66    0.92
   4   5   6    4.64    1.81
   4   5   6    6.37    1.37
   5   5   6   58.28    5.83
   5   5   6   68.14    6.54
   6   5   6  163.52   14.53
   6   5   6  189.01   15.30
   7   5   6   12.86    2.87
   7   5   6   14.57    2.98
   8  -6  -6  101.51    9.77
   8  -6  -6  117.80    9.60
  -8   6   6  102.50   11.31
  -8   6   6   98.19   10.40
   7  -6  -6   55.72    5.97
   7  -6  -6   53.55    5.77
  -7   6   6   55.88    6.98
  -7   6   6   40.65    6.98
   6  -6  -6   94.31    8.55
  -6   6   6   91.26    9.36
  -6   6   6   94.47    9.57
   5  -6  -6   38.61    4.11
   5  -6  -6   39.66    4.42
   5  -6  -6   40.34    3.62
  -5   6   6   32.89    5.10
   4  -6  -6   15.16    2.49
   4  -6  -6   17.08    2.57
   4  -6  -6   18.79    1.84
  -4   6   6   14.83    2.92
   3  -6  -6   22.06    2.66
   3  -6  -6   16.27    2.64
   3  -6  -6   20.61    1.84
   3  -6  -6   14.91    2.37
  -3   6   6   17.84    2.90
   2  -6  -6   15.12    2.29
   2  -6  -6   17.39    2.52
   2  -6  -6   18.41    2.52
  -2   6   6   16.70    2.57
   1  -6  -6  731.03   56.59
   1  -6  -6  804.89   56.46
   1  -6  -6  754.72   56.85
  -1   6   6  679.77   56.74
  -1   6   6  669.08   56.77
   0  -6  -6   -0.15    0.94
   0  -6  -6   -2.40    1.37
   0  -6  -6    1.40    1.13
   0   6   6    0.59    1.03
   0   6   6   -0.61    0.99
  -1  -6  -6   18.94    2.48
  -1  -6  -6   21.52    2.76
   1   6   6   25.19    2.87
   1   6   6   23.19    2.73
  -2  -6  -6    4.50    1.19
  -2  -6  -6    2.99    1.23
   2   6   6    3.38    1.73
   2   6   6    2.49    1.17
  -3  -6  -6    1.06    0.80
  -3  -6  -6    1.11    0.88
  -3  -6  -6    3.19    1.12
   3   6   6    1.56    1.36
   3   6   6    3.45    1.46
  -4  -6  -6    6.94    1.37
   4   6   6   11.57    2.39
   4   6   6   12.47    2.07
   5   6   6   45.15    4.84
   5   6   6   42.62    5.18
   6   6   6   10.71    2.58
   6   6   6   12.90    2.69
   8  -7  -6   13.14    2.56
   8  -7  -6   14.73    2.73
  -8   7   6   13.01    4.12
  -8   7   6    7.92    6.52
   7  -7  -6   66.52    5.68
   7  -7  -6   55.19    6.41
  -7   7   6   46.96    7.10
  -7   7   6   45.77    7.03
   6  -7  -6   10.46    2.87
   6  -7  -6   16.03    2.45
  -6   7   6   11.68    3.89
  -6   7   6   11.06    3.45
   5  -7  -6   52.60    6.17
   5  -7  -6   63.08    5.21
  -5   7   6   62.35    7.50
  -5   7   6   62.13    7.02
   4  -7  -6   -0.42    0.61
   4  -7  -6    1.70    1.82
  -4   7   6   -2.59    2.09
   3  -7  -6   83.90    6.63
   3  -7  -6   78.68    7.60
  -3   7   6   85.25    7.96
   2  -7  -6    1.84    1.48
   2  -7  -6   -0.14    1.21
  -2   7   6    5.39    1.83
   1  -7  -6   19.42    2.39
   1  -7  -6   23.37    2.95
  -1   7   6   18.92    3.08
  -1   7   6   16.81    2.72
   0  -7  -6  177.71   14.01
   0  -7  -6  179.70   14.24
   0   7   6  167.83   14.63
  -1  -7  -6   57.30    5.21
  -1  -7  -6   56.86    5.46
   1   7   6   56.35    5.58
   1   7   6   65.97    5.80
  -2  -7  -6    2.95    1.47
  -2  -7  -6    1.51    1.45
   2   7   6    2.39    1.57
   2   7   6    2.41    1.53
  -3  -7  -6    8.01    1.70
   3   7   6   13.88    2.56
   3   7   6   11.21    2.12
  -4  -7  -6    1.87    1.31
   4   7   6    2.60    1.83
   4   7   6    2.99    1.93
   5   7   6   48.49    5.78
   5   7   6   56.96    5.88
   7  -8  -6   18.53    2.83
  -7   8   6   10.41    5.09
  -7   8   6    3.30    4.20
   6  -8  -6   49.98    6.01
  -6   8   6   55.51    6.25
  -6   8   6   34.73    6.60
   5  -8  -6  189.44   14.30
   5  -8  -6  162.88   14.41
  -5   8   6  150.60   14.80
   4  -8  -6   81.23    6.75
   4  -8  -6   75.05    7.70
  -4   8   6   80.92    8.24
   3  -8  -6  355.16   28.55
  -3   8   6  360.55   28.97
   2  -8  -6   34.04    4.44
  -2   8   6   35.83    4.91
  -1   8   6   91.65    7.89
  -1   8   6   77.49    7.72
   0  -8  -6   24.02    3.73
   0   8   6   19.88    3.63
   0   8   6   27.00    3.80
  -1  -8  -6   35.76    4.48
   1   8   6   34.54    4.57
   1   8   6   37.96    4.53
  -2  -8  -6   -0.13    1.93
   2   8   6    0.65    1.75
   2   8   6    2.24    1.92
  -3  -8  -6   18.08    2.75
   3   8   6   20.05    3.78
   3   8   6   26.68    3.78
   4   8   6  257.94   20.64
   4   8   6  241.15   20.31
   5  -9  -6   53.43    6.48
  -5   9   6   53.16    6.50
   4  -9  -6    3.60    2.70
  -4   9   6    0.17    2.61
   3  -9  -6   55.57    6.79
  -3   9   6   62.50    6.99
   2  -9  -6  141.98   12.46
  -2   9   6  143.41   12.75
   1  -9  -6    3.97    2.52
  -1   9   6    8.12    2.58
   0  -9  -6  149.26   12.26
   0   9   6  130.66   12.21
   0   9   6  143.05   12.30
  -1  -9  -6    3.07    2.51
   1   9   6    2.53    1.93
   1   9   6    0.23    2.05
  -2  -9  -6   63.53    6.61
   2   9   6   68.31    6.73
   2   9   6   60.59    6.69
   3   9   6   84.08    7.70
   3   9   6   82.58    7.96
   3 -10  -6   -1.18    2.75
  -3  10   6   -0.08    3.35
   2 -10  -6    6.55    3.15
  -2  10   6   10.64    3.05
   1 -10  -6   20.04    3.63
  -1  10   6   10.64    2.92
   0 -10  -6   -1.10    2.73
   0  10   6   -0.51    1.84
   0  10   6    0.07    2.31
   3  11  -7   29.87    4.59
  -3 -11   7   29.79    4.85
   2  11  -7    1.62    3.01
   1  11  -7    2.89    2.65
  -1 -11   7    1.25    2.49
   0  11  -7   -0.93    2.27
   0 -11   7    1.27    2.49
   1 -11   7  193.53   15.03
   1 -11   7  152.84   15.22
   2 -11   7   69.43    8.26
   2 -11   7   91.60    8.45
   3 -11   7   15.66    3.61
   3 -11   7   19.18    3.70
   5  10  -7   63.98    6.45
  -5 -10   7   50.36    6.64
  -5 -10   7   56.00    6.53
   4  10  -7   21.75    3.61
  -4 -10   7   14.71    3.81
  -4 -10   7   20.99    3.78
   3  10  -7  174.32   15.32
  -3 -10   7  203.54   15.84
  -3 -10   7  174.21   15.85
  -2 -10   7    0.56    2.55
  -2 -10   7    2.33    2.18
   1  10  -7   20.19    3.13
   0  10  -7   31.50    3.87
   0 -10   7   28.15    4.61
  -1  10  -7    7.09    1.63
   1 -10   7    6.08    2.69
   2 -10   7   48.87    6.68
   3 -10   7    7.43    2.91
   3 -10   7   13.15    3.32
   4 -10   7   12.19    3.11
   4 -10   7   23.33    3.73
   6   9  -7  160.84   14.01
  -6  -9   7  164.82   14.85
  -6  -9   7  181.34   14.61
   5   9  -7   67.71    6.85
  -5  -9   7   72.91    7.68
  -5  -9   7   74.38    8.04
   4   9  -7   77.72    7.23
  -4  -9   7   82.66    7.89
  -4  -9   7   73.68    8.11
   3   9  -7    4.21    1.98
  -3  -9   7    5.56    2.50
  -3  -9   7    8.69    2.76
   2   9  -7    6.04    2.59
   2   9  -7    4.86    1.75
  -2  -9   7    3.19    2.24
  -2  -9   7    1.98    1.76
   1   9  -7   97.89   10.39
   1   9  -7  115.22   10.12
  -1  -9   7  142.28   10.59
  -1  -9   7  132.43   10.77
   0   9  -7   77.66    7.98
   0   9  -7   77.41    7.51
   0   9  -7   88.74    7.07
  -1   9  -7    4.13    1.16
  -1   9  -7    4.05    2.05
   1  -9   7    5.45    2.59
  -2   9  -7    0.53    1.05
   2  -9   7    5.05    2.12
   2  -9   7   -0.19    2.56
   3  -9   7   16.25    3.60
   3  -9   7   22.85    3.35
   4  -9   7   40.37    6.05
   4  -9   7   58.94    5.98
   5  -9   7   12.78    3.34
   5  -9   7   11.42    2.84
   7   8  -7   18.75    2.95
   7   8  -7   25.22    3.60
  -7  -8   7   17.49    3.40
  -7  -8   7   15.37    3.39
   6   8  -7    0.01    1.72
   6   8  -7    0.72    1.78
  -6  -8   7    2.21    2.99
  -6  -8   7    3.43    2.40
   5   8  -7  112.21    9.46
  -5  -8   7  114.77   10.27
  -5  -8   7  105.40   10.60
   4   8  -7    9.49    1.79
  -4  -8   7    6.57    2.15
  -4  -8   7    4.42    1.69
  -4  -8   7    5.96    2.63
   3   8  -7    1.05    2.44
   3   8  -7    5.60    1.52
  -3  -8   7    7.99    2.18
  -3  -8   7    4.04    1.49
  -3  -8   7    5.92    2.26
   2   8  -7   34.46    3.78
   2   8  -7   40.11    5.14
  -2  -8   7   40.10    3.98
  -2  -8   7   34.57    4.51
  -2  -8   7   40.98    4.54
   1   8  -7   15.67    2.36
   1   8  -7   18.06    2.83
  -1  -8   7   17.52    2.63
  -1  -8   7   20.82    2.97
  -1  -8   7   19.06    2.88
   0   8  -7  155.88   14.68
   0  -8   7  209.20   15.36
   0  -8   7  196.84   15.18
  -1   8  -7   36.75    3.71
  -1   8  -7   46.00    4.09
  -1   8  -7   42.89    5.10
   1  -8   7   46.72    4.48
  -2   8  -7   91.90    7.98
   2  -8   7   90.84    8.84
   3  -8   7   18.31    3.30
   4  -8   7   38.25    4.88
   4  -8   7   31.53    5.09
   5  -8   7    1.79    2.36
   5  -8   7    1.93    2.29
   6  -8   7    1.95    2.79
   6  -8   7   -2.02    2.35
   8   7  -7   12.86    2.53
   8   7  -7   17.67    2.70
  -8  -7   7    8.98    3.18
  -8  -7   7   13.44    2.91
   7   7  -7  120.36   10.12
   7   7  -7  116.51   10.05
  -7  -7   7  116.42   11.10
  -7  -7   7  117.48   11.25
   6   7  -7  119.41   10.79
   6   7  -7  137.20   10.81
  -6  -7   7  122.77   11.96
  -6  -7   7  142.41   11.96
   5   7  -7   75.33    6.04
   5   7  -7   59.87    5.96
  -5  -7   7   82.32    7.05
  -5  -7   7   55.99    6.23
  -5  -7   7   77.65    7.43
   4   7  -7    4.71    2.43
   4   7  -7    7.99    1.44
  -4  -7   7    6.35    1.78
  -4  -7   7    4.38    1.98
   3   7  -7    3.11    1.14
   3   7  -7    0.88    2.41
  -3  -7   7    1.59    1.68
  -3  -7   7    2.38    1.28
  -3  -7   7    3.52    1.83
   2   7  -7   43.24    3.70
   2   7  -7   36.48    4.80
   2   7  -7   31.06    4.71
  -2  -7   7   42.24    4.39
  -2  -7   7   44.83    4.34
  -2  -7   7   36.28    3.73
   1   7  -7   -2.01    1.88
   1   7  -7    1.62    0.85
   1   7  -7    2.84    1.83
  -1  -7   7    3.97    1.33
  -1  -7   7    2.27    1.21
  -1  -7   7    2.29    1.04
  -1  -7   7    1.69    1.20
   0   7  -7    2.98    0.86
   0   7  -7    1.31    2.12
   0   7  -7    1.98    1.36
   0  -7   7    3.03    1.06
   0  -7   7    2.11    1.31
   0  -7   7    1.61    1.03
   0  -7   7    3.59    1.28
  -1   7  -7   10.89    2.32
   1  -7   7   10.49    1.69
   1  -7   7    8.21    1.83
   1  -7   7    9.87    1.59
  -2   7  -7    0.29    1.56
   2  -7   7   -0.33    1.15
   2  -7   7   -0.12    1.52
   2  -7   7    1.09    1.06
   3  -7   7   85.61    9.35
   3  -7   7  109.62    8.65
   3  -7   7  110.86    8.77
   4  -7   7   -0.35    1.87
   4  -7   7    2.07    1.96
   4  -7   7    0.25    1.40
   5  -7   7   -1.46    1.83
   5  -7   7    0.22    2.11
   6  -7   7   12.71    2.85
   6  -7   7    4.89    2.69
   7  -7   7   20.54    3.42
   7  -7   7   27.42    4.22
   9   6  -7    2.40    1.74
  -9  -6   7    1.02    2.99
   8   6  -7   18.75    2.89
   8   6  -7   16.93    2.76
  -8  -6   7   21.28    4.52
  -8  -6   7   19.92    3.75
   7   6  -7   12.81    2.22
   7   6  -7   14.99    2.32
  -7  -6   7   15.32    3.47
  -7  -6   7   15.26    3.97
   6   6  -7  119.52    9.72
   6   6  -7  116.82    9.65
  -6  -6   7  110.29   10.84
  -6  -6   7  118.52   10.62
   5   6  -7  380.57   26.33
   5   6  -7  305.77   26.27
   5   6  -7  329.57   26.91
  -5  -6   7  318.86   28.71
   4   6  -7   -0.13    2.33
   4   6  -7   -0.72    0.87
  -4  -6   7    0.70    1.63
  -4  -6   7    0.89    1.14
  -4  -6   7   -1.52    1.62
   3   6  -7  222.13   16.86
   3   6  -7  193.83   17.31
  -3  -6   7  212.03   17.43
  -3  -6   7  227.11   17.02
  -3  -6   7  215.85   17.47
  -3  -6   7  206.54   16.98
   2   6  -7  168.69   16.43
   2   6  -7  206.48   15.69
  -2  -6   7  210.46   16.24
  -2  -6   7  204.98   16.17
  -2  -6   7  201.61   15.80
   1   6  -7    9.75    2.40
   1   6  -7    9.32    1.39
   1   6  -7    9.40    1.67
  -1  -6   7    7.25    1.62
  -1  -6   7   10.61    1.47
  -1  -6   7    9.82    1.60
  -1  -6   7   12.67    1.92
   0   6  -7    1.78    1.81
   0  -6   7    3.85    0.97
   0  -6   7    3.26    0.93
   0  -6   7    4.02    1.32
   0  -6   7    2.59    0.93
  -1   6  -7    1.53    1.66
   1  -6   7    1.65    1.13
   1  -6   7    0.25    0.85
   1  -6   7   -0.38    0.82
   1  -6   7    1.88    0.80
   2  -6   7    1.30    0.63
   2  -6   7   -0.81    1.26
   2  -6   7   -0.28    1.00
   2  -6   7    1.91    0.90
   3  -6   7   25.96    2.75
   3  -6   7   20.21    3.46
   3  -6   7   29.19    3.16
   4  -6   7  133.13   12.92
   4  -6   7  160.13   12.37
   4  -6   7  160.87   12.52
   5  -6   7   12.16    2.55
   5  -6   7   13.83    2.93
   5  -6   7   18.24    2.73
   6  -6   7    7.63    2.20
   6  -6   7    5.92    2.66
   7  -6   7   15.81    3.18
   9   5  -7   24.45    3.64
  -9  -5   7   18.35    3.68
  -9  -5   7   19.98    3.96
   8   5  -7    3.92    1.89
   8   5  -7    2.70    1.20
  -8  -5   7    6.08    2.92
  -8  -5   7    6.89    3.57
   7   5  -7    6.65    1.68
   7   5  -7    4.65    1.10
  -7  -5   7    3.14    2.41
  -7  -5   7    6.17    2.84
   6   5  -7    4.83    1.35
   6   5  -7    5.54    1.09
  -6  -5   7    7.33    2.58
  -6  -5   7    7.28    2.32
   5   5  -7  352.57   26.90
   5   5  -7  320.00   26.84
   5   5  -7  326.64   27.47
  -5  -5   7  365.25   27.75
  -5  -5   7  357.45   27.70
   4   5  -7  112.51   11.43
   4   5  -7  151.21   10.63
   4   5  -7  130.86   11.28
  -4  -5   7  141.65   10.86
  -4  -5   7  141.52   11.34
  -4  -5   7  137.46   11.32
  -4  -5   7  113.59   10.66
  -4  -5   7  127.98   10.77
   3   5  -7   29.05    2.37
   3   5  -7   24.35    3.39
   3   5  -7   22.30    3.76
  -3  -5   7   22.43    2.98
  -3  -5   7   23.67    2.52
  -3  -5   7   21.96    3.25
  -3  -5   7   20.48    2.61
   2   5  -7   42.68    3.54
   2   5  -7   38.14    3.97
   2   5  -7   37.58    4.92
  -2  -5   7   43.73    3.76
  -2  -5   7   47.12    3.75
  -2  -5   7   35.95    4.17
  -2  -5   7   39.71    3.99
   1   5  -7   31.70    2.69
   1   5  -7   26.79    2.67
   1   5  -7   27.93    3.97
  -1  -5   7   31.20    3.18
  -1  -5   7   33.85    3.02
  -1  -5   7   30.51    2.80
  -1  -5   7   28.28    3.03
   0   5  -7  101.08    9.97
   0  -5   7  130.82    9.41
   0  -5   7  107.99    9.62
   0  -5   7  124.64    9.63
   0  -5   7  123.13    9.75
  -1   5  -7  105.69   10.28
   1  -5   7  134.77    9.89
   1  -5   7  132.59   10.03
   1  -5   7  119.56   10.02
   2  -5   7   43.53    5.00
   2  -5   7   52.92    4.49
   2  -5   7   57.78    4.60
   2  -5   7   53.08    4.43
   3  -5   7  142.38   11.76
   3  -5   7  151.75   11.89
   4  -5   7  128.34   10.39
   4  -5   7  138.43   10.74
   4  -5   7  117.57   11.06
   5  -5   7  274.21   23.56
   5  -5   7  309.14   23.01
   5  -5   7  286.03   23.13
   6  -5   7  119.97    9.88
   6  -5   7  109.16   10.39
   7  -5   7   59.53    6.53
   7  -5   7   44.14    6.15
   8  -5   7    8.23    3.23
   8  -5   7    2.87    2.76
   8  -5   7    7.49    2.46
   9   4  -7   31.65    4.15
  -9  -4   7   30.73    4.88
  -9  -4   7   25.41    4.97
   8   4  -7   21.27    2.85
   8   4  -7   17.18    2.23
  -8  -4   7   11.47    3.77
  -8  -4   7   19.62    3.90
   7   4  -7    0.09    0.64
   7   4  -7   -0.71    1.19
  -7  -4   7   -2.40    2.01
  -7  -4   7   -0.69    2.46
   6   4  -7  181.80   14.45
   6   4  -7  196.72   14.31
   6   4  -7  158.65   15.02
  -6  -4   7  178.97   15.56
   5   4  -7   11.09    1.41
   5   4  -7    9.19    2.48
   5   4  -7   12.26    1.64
  -5  -4   7   12.52    2.40
  -5  -4   7   11.19    2.32
  -5  -4   7    9.32    1.71
  -5  -4   7   12.48    1.94
   4   4  -7   10.54    2.16
   4   4  -7    8.19    1.29
   4   4  -7    5.90    2.25
  -4  -4   7    7.22    1.89
  -4  -4   7   10.59    1.59
  -4  -4   7    8.15    1.41
  -4  -4   7    8.33    1.98
  -4  -4   7    9.04    1.63
   3   4  -7  300.06   28.42
   3   4  -7  348.03   28.00
   3   4  -7  413.33   27.78
  -3  -4   7  363.34   28.27
  -3  -4   7  345.87   27.90
  -3  -4   7  344.86   27.76
  -3  -4   7  398.12   28.03
  -3  -4   7  335.95   28.35
   2   4  -7   51.72    4.22
   2   4  -7   51.67    4.46
   2   4  -7   42.19    5.42
  -2  -4   7   48.83    4.89
  -2  -4   7   52.75    4.71
  -2  -4   7   60.63    4.37
  -2  -4   7   48.96    4.44
   1   4  -7  105.41    9.56
  -1  -4   7  108.27    9.01
  -1  -4   7  111.41    8.91
  -1  -4   7  115.19    8.89
  -1  -4   7  110.88    9.28
   0   4  -7  223.90   19.46
   0  -4   7  235.88   19.09
   0  -4   7  264.84   18.93
   0  -4   7  245.10   19.35
   1  -4   7   22.26    2.16
   1  -4   7   20.65    2.33
   1  -4   7   22.26    2.05
   2  -4   7   15.95    1.85
   2  -4   7   15.24    1.89
   3  -4   7   62.98    5.24
   3  -4   7   51.42    5.88
   3  -4   7   69.68    5.34
   3  -4   7   71.06    5.59
   4  -4   7   23.49    2.34
   4  -4   7   19.10    3.12
   4  -4   7   24.54    3.26
   5  -4   7   45.51    4.29
   5  -4   7   49.80    5.24
   6  -4   7    8.30    1.78
   6  -4   7    5.51    2.48
   6  -4   7    9.35    2.38
   7  -4   7   13.68    4.07
   7  -4   7   24.46    3.41
   7  -4   7   20.50    3.53
   8  -4   7    4.18    2.64
   8  -4   7    6.02    2.86
   8  -4   7    2.58    2.40
  10   3  -7   -0.84    1.88
 -10  -3   7    4.87    4.72
 -10  -3   7   -2.63    2.87
   9   3  -7   19.93    2.71
   9   3  -7   21.46    3.17
  -9  -3   7   34.48    5.20
  -9  -3   7   17.68    4.37
   8   3  -7   36.53    3.51
   8   3  -7   40.82    4.34
  -8  -3   7   36.41    5.80
  -8  -3   7   40.27    6.21
   7   3  -7    3.31    0.79
  -7  -3   7    3.19    2.34
  -7  -3   7    1.39    2.11
   6   3  -7   95.21    9.29
   6   3  -7  107.07    8.64
  -6  -3   7  109.05    9.59
  -6  -3   7  105.26    9.53
   5   3  -7    3.63    0.97
   5   3  -7    6.29    2.10
   5   3  -7    3.92    2.03
   5   3  -7    3.43    0.94
  -5  -3   7    6.04    1.40
  -5  -3   7    3.09    1.67
  -5  -3   7    4.71    1.68
  -5  -3   7    4.61    1.14
   4   3  -7  135.26   11.26
   4   3  -7  120.26   11.70
   4   3  -7  138.53   10.82
  -4  -3   7  155.84   11.14
  -4  -3   7  129.91   11.05
  -4  -3   7  139.81   11.44
  -4  -3   7  130.80   11.54
   3   3  -7  402.65   30.89
   3   3  -7  353.84   31.42
   3   3  -7  440.30   30.69
  -3  -3   7  365.16   30.83
  -3  -3   7  433.80   30.94
  -3  -3   7  378.44   31.32
  -3  -3   7  389.31   31.16
   2   3  -7  239.73   18.45
   2   3  -7  241.58   18.40
   2   3  -7  221.70   19.25
  -2  -3   7  239.12   19.13
  -2  -3   7  244.89   18.88
   1   3  -7  465.44   37.53
  -1  -3   7  492.23   36.93
  -1  -3   7  483.37   37.47
  -1  -3   7  519.15   37.17
  -1  -3   7  427.06   36.95
   0  -3   7  526.35   43.05
   0  -3   7  537.69   43.29
   0  -3   7  596.66   42.79
   1  -3   7    0.25    0.56
   1  -3   7   -0.03    0.71
   1  -3   7    0.16    0.41
   2  -3   7   43.99    3.45
   2  -3   7   32.81    3.78
   2  -3   7   42.45    3.68
   3  -3   7  256.91   18.78
   3  -3   7  246.96   18.90
   3  -3   7  228.03   19.32
   3  -3   7  228.69   18.86
   4  -3   7    0.23    2.33
   4  -3   7    0.24    1.13
   4  -3   7    0.13    0.51
   4  -3   7   -0.79    0.62
   4  -3   7    0.89    0.52
   5  -3   7   85.62    7.59
   5  -3   7   64.89    8.53
   5  -3   7   93.43    6.95
   5  -3   7   78.74    7.51
   6  -3   7    5.50    2.26
   6  -3   7    8.43    2.22
   6  -3   7    6.55    2.58
   6  -3   7   10.02    1.77
   7  -3   7    8.03    2.29
   7  -3   7    2.62    2.90
   7  -3   7    6.94    2.48
   8  -3   7    6.46    2.50
   8  -3   7    7.16    2.55
   8  -3   7    0.99    2.99
  10   2  -7    9.19    2.28
 -10  -2   7   14.24    3.79
 -10  -2   7   13.72    3.76
   9   2  -7  138.60   11.96
   9   2  -7  151.12   11.43
  -9  -2   7  142.39   13.00
  -9  -2   7  116.95   12.80
   8   2  -7   31.56    3.74
   8   2  -7   26.92    2.70
  -8  -2   7   28.54    4.71
  -8  -2   7   23.24    4.18
   7   2  -7  477.05   32.43
   7   2  -7  411.65   32.70
  -7  -2   7  379.22   33.63
  -7  -2   7  384.94   33.37
   6   2  -7   39.64    3.71
   6   2  -7   31.26    4.59
  -6  -2   7   41.61    4.75
  -6  -2   7   39.86    4.84
  -6  -2   7   36.85    3.77
   5   2  -7    4.28    0.66
   5   2  -7    2.96    2.04
   5   2  -7    4.95    1.84
   5   2  -7    2.60    0.90
  -5  -2   7    3.99    1.32
  -5  -2   7    3.99    1.67
  -5  -2   7    2.34    1.48
  -5  -2   7    4.54    1.20
   4   2  -7    2.40    1.43
   4   2  -7    4.53    1.89
   4   2  -7    2.18    0.65
  -4  -2   7    2.42    1.30
  -4  -2   7    2.81    1.12
  -4  -2   7    2.21    1.35
  -4  -2   7    2.88    0.99
   3   2  -7   62.89    4.76
   3   2  -7   55.61    5.00
   3   2  -7   54.37    5.82
  -3  -2   7   54.62    5.01
  -3  -2   7   66.71    5.05
  -3  -2   7   55.03    5.50
  -3  -2   7   57.98    5.26
   2   2  -7   83.40    7.65
  -2  -2   7   91.70    7.18
  -2  -2   7   85.70    7.50
  -2  -2   7   82.33    6.92
  -1  -2   7  139.32   12.82
  -1  -2   7  168.51   12.53
  -1  -2   7  162.72   12.32
   0  -2   7   16.81    1.61
   0  -2   7   13.92    2.14
   0  -2   7   17.26    1.40
   1  -2   7  485.59   42.21
   1  -2   7  598.85   42.38
   2  -2   7  371.72   27.41
   2  -2   7  321.55   27.39
   2  -2   7  350.70   26.89
   3  -2   7  637.09   49.04
   3  -2   7  651.11   48.72
   3  -2   7  602.90   49.19
   3  -2   7  628.98   48.80
   4  -2   7   80.87    7.07
   4  -2   7   66.71    7.62
   4  -2   7   89.91    6.76
   4  -2   7   75.89    6.84
   4  -2   7   95.61    6.77
   4  -2   7   81.92    7.19
   5  -2   7   16.69    2.83
   5  -2   7   18.91    2.76
   5  -2   7   19.39    2.21
   6  -2   7    0.74    1.96
   6  -2   7    0.49    1.47
   6  -2   7   -2.02    2.01
   6  -2   7    1.16    1.19
   7  -2   7  215.39   15.73
   7  -2   7  159.76   16.82
   7  -2   7  194.54   15.95
   8  -2   7   56.12    6.23
   8  -2   7   42.83    6.92
   8  -2   7   60.73    6.20
  10   1  -7   13.97    2.52
 -10  -1   7   13.77    4.18
 -10  -1   7   11.00    3.85
   9   1  -7  119.06    9.83
   9   1  -7  114.98   10.39
  -9  -1   7  118.79   11.36
  -9  -1   7  125.19   11.92
   8   1  -7    7.91    2.01
   8   1  -7    4.01    0.96
  -8  -1   7    6.41    2.66
  -8  -1   7    7.82    3.24
   7   1  -7   36.30    3.27
   7   1  -7   38.29    3.96
  -7  -1   7   36.29    4.97
  -7  -1   7   35.36    5.51
   6   1  -7    7.20    1.45
   6   1  -7    9.09    1.16
   6   1  -7    3.93    2.07
   6   1  -7    7.82    2.40
  -6  -1   7    6.68    2.08
  -6  -1   7    6.32    1.44
  -6  -1   7   12.34    2.58
   5   1  -7    5.32    1.89
   5   1  -7    5.87    1.09
   5   1  -7    6.56    2.17
  -5  -1   7    3.66    1.42
  -5  -1   7    4.54    1.19
  -5  -1   7    4.14    1.80
  -5  -1   7    5.61    1.77
   4   1  -7   18.98    1.84
   4   1  -7   14.86    2.84
  -4  -1   7   17.72    2.10
  -4  -1   7   15.99    2.32
  -4  -1   7   18.63    2.84
  -4  -1   7   20.75    2.57
   3   1  -7  273.43   20.28
   3   1  -7  255.33   20.37
  -3  -1   7  265.80   20.52
  -3  -1   7  241.95   20.96
  -3  -1   7  271.95   20.44
  -3  -1   7  253.31   20.69
  -2  -1   7    0.49    0.98
  -2  -1   7    1.24    0.57
  -2  -1   7    0.14    0.66
  -2  -1   7    0.86    0.70
  -1  -1   7    0.26    0.35
  -1  -1   7    0.24    0.47
  -1  -1   7   -0.22    0.85
   0  -1   7    9.12    0.92
   0  -1   7    8.00    1.22
   0  -1   7   10.40    0.88
   0  -1   7    9.45    1.65
   1  -1   7  598.95   46.03
   1  -1   7  584.14   46.12
   2  -1   7   15.62    2.13
   2  -1   7   13.92    1.76
   2  -1   7   14.01    2.03
   3  -1   7    1.95    0.76
   3  -1   7    1.18    0.66
   3  -1   7    0.29    1.08
   3  -1   7    1.87    0.84
   4  -1   7   24.18    3.60
   4  -1   7   27.29    2.60
   4  -1   7   23.49    3.20
   4  -1   7   31.86    3.05
   4  -1   7   29.22    2.99
   5  -1   7   66.46    5.21
   5  -1   7   55.63    6.26
   5  -1   7   56.94    5.31
   5  -1   7   56.77    5.91
   5  -1   7   61.27    5.53
   6  -1   7   32.98    4.97
   6  -1   7   48.94    4.24
   6  -1   7   46.69    4.65
   6  -1   7   39.40    3.99
   6  -1   7   40.59    5.44
   7  -1   7   74.11    6.92
   7  -1   7   58.00    7.78
   7  -1   7   78.99    6.80
   8  -1   7   -0.61    2.32
   8  -1   7    0.40    2.61
   8  -1   7    2.22    2.21
  10   0  -7   60.41    5.82
  10   0  -7   57.62    6.00
 -10   0   7   51.20    8.20
 -10   0   7   56.44    7.53
   9   0  -7    7.78    1.58
   9   0  -7   10.94    2.24
   9   0  -7   13.42    2.74
  -9   0   7   10.87    3.87
  -9   0   7   14.52    3.76
   8   0  -7  132.49   11.36
   8   0  -7  157.84   11.33
   8   0  -7  115.15   10.81
  -8   0   7  132.46   12.19
  -8   0   7  136.91   12.58
   7   0  -7  116.00   10.08
   7   0  -7  104.19    9.64
   7   0  -7  134.22   10.07
  -7   0   7  126.20   11.04
  -7   0   7  126.17   10.88
   6   0  -7    6.08    1.41
   6   0  -7    7.54    1.21
   6   0  -7    6.30    2.10
   6   0  -7   10.48    1.67
  -6   0   7    8.76    1.71
  -6   0   7    6.27    2.12
  -6   0   7    8.21    2.24
   5   0  -7  301.28   23.75
   5   0  -7  283.61   23.40
   5   0  -7  302.62   23.38
   5   0  -7  327.19   24.05
  -5   0   7  315.38   24.01
  -5   0   7  301.81   23.82
  -5   0   7  298.37   24.47
  -5   0   7  292.23   24.23
   4   0  -7    0.39    0.56
   4   0  -7    1.84    1.10
  -4   0   7    0.01    1.07
  -4   0   7   -0.65    0.78
  -4   0   7    0.11    1.17
  -4   0   7    0.31    1.31
   3   0  -7  126.86   10.10
   3   0  -7  123.32   10.17
  -3   0   7  116.02   10.83
  -3   0   7  133.28   10.54
  -3   0   7  136.80   10.43
  -3   0   7  132.59   10.22
   2   0  -7   20.18    1.55
  -2   0   7   19.68    2.12
  -2   0   7   17.91    1.81
  -2   0   7   21.81    2.20
  -2   0   7   14.97    2.57
  -1   0   7   38.25    3.14
  -1   0   7   31.04    3.66
  -1   0   7   38.97    3.02
  -1   0   7   32.21    3.08
   0   0   7    0.21    0.95
   0   0   7    1.35    0.46
   0   0   7    1.02    0.38
   0   0   7    1.28    0.48
   1   0   7  219.95   15.95
   1   0   7  187.30   16.18
   1   0   7  219.02   15.91
   1   0   7  194.99   16.36
   2   0   7  235.35   16.19
   2   0   7  216.16   16.11
   2   0   7  185.12   16.65
   2   0   7  191.03   16.35
   3   0   7  201.80   18.76
   3   0   7  256.28   18.16
   3   0   7  235.58   18.38
   3   0   7  233.77   18.29
   4   0   7  196.48   15.35
   4   0   7  221.77   15.65
   4   0   7  161.84   16.06
   4   0   7  197.70   15.56
   5   0   7   11.91    2.03
   5   0   7   11.38    2.57
   5   0   7   12.29    2.00
   5   0   7    9.76    2.53
   5   0   7   11.68    1.76
   6   0   7   -0.09    1.16
   6   0   7    3.78    2.21
   6   0   7   -0.76    1.33
   6   0   7   -1.27    1.42
   6   0   7    0.02    2.09
   7   0   7  135.70   11.22
   7   0   7  132.92   11.17
   7   0   7  122.41   12.21
   8   0   7    8.58    2.85
   8   0   7    8.05    2.58
   8   0   7    4.76    2.39
  10  -1  -7   -1.38    1.59
  10  -1  -7   -2.25    1.94
 -10   1   7   -0.32    3.64
 -10   1   7   -2.09    3.57
   9  -1  -7   49.36    4.72
   9  -1  -7   44.91    5.05
   9  -1  -7   31.12    4.03
  -9   1   7   41.42    5.87
  -9   1   7   42.57    6.57
   8  -1  -7    3.63    1.89
   8  -1  -7    5.27    1.60
  -8   1   7    5.46    3.21
  -8   1   7    5.14    2.80
   7  -1  -7   65.72    5.53
   7  -1  -7   55.81    5.67
  -7   1   7   60.92    6.80
  -7   1   7   56.89    6.74
   6  -1  -7   22.02    2.41
   6  -1  -7   27.55    2.68
   6  -1  -7   24.12    3.35
   6  -1  -7   26.77    3.02
  -6   1   7   28.00    3.22
  -6   1   7   25.79    3.94
  -6   1   7   23.28    3.84
   5  -1  -7  195.05   14.19
   5  -1  -7  165.77   14.22
   5  -1  -7  190.51   13.93
   5  -1  -7  168.69   14.45
  -5   1   7  157.73   14.87
  -5   1   7  183.86   14.53
  -5   1   7  184.19   14.83
  -5   1   7  175.57   14.31
   4  -1  -7   13.35    1.18
   4  -1  -7   11.52    1.56
   4  -1  -7   10.07    1.68
  -4   1   7   10.05    2.19
  -4   1   7   11.96    1.93
  -4   1   7   11.46    1.81
  -4   1   7    9.37    1.87
   3  -1  -7    3.87    0.71
   3  -1  -7    2.88    0.79
   3  -1  -7    3.14    0.64
  -3   1   7    5.49    1.17
  -3   1   7    1.48    1.15
  -3   1   7    2.84    1.38
  -3   1   7    3.04    0.79
   2  -1  -7    0.86    0.46
   2  -1  -7    0.78    0.36
  -2   1   7    1.12    0.92
  -2   1   7    0.78    0.47
  -2   1   7   -0.57    1.19
  -2   1   7    0.32    0.66
  -2   1   7    1.10    0.43
  -1   1   7  292.14   21.00
  -1   1   7  256.50   20.85
  -1   1   7  261.43   21.05
  -1   1   7  267.06   21.04
   0   1   7    0.06    0.61
   0   1   7    0.60    0.46
   0   1   7    0.36    0.35
   0   1   7   -0.05    0.37
   1   1   7  346.00   29.10
   1   1   7  397.06   29.18
   1   1   7  385.11   29.46
   2   1   7  155.32   12.61
   2   1   7  148.81   12.18
   2   1   7  158.08   12.26
   2   1   7  155.75   12.07
   3   1   7  707.50   52.72
   3   1   7  650.18   52.47
   3   1   7  613.54   53.07
   3   1   7  741.79   52.63
   4   1   7  103.23    7.97
   4   1   7  100.83    8.05
   4   1   7   82.73    8.67
   4   1   7  107.44    8.48
   4   1   7   93.91    8.45
   5   1   7  381.22   31.12
   5   1   7  452.26   31.13
   5   1   7  418.57   31.33
   5   1   7  333.25   32.20
   5   1   7  395.85   31.49
   6   1   7   91.06    7.20
   6   1   7   80.69    8.35
   6   1   7   88.04    7.19
   6   1   7   72.55    8.08
   6   1   7   69.76    7.34
   7   1   7    1.36    2.16
   7   1   7   -1.61    2.37
   7   1   7    1.10    1.67
   8   1   7   -1.52    1.97
   8   1   7    0.43    2.34
   8   1   7    1.49    2.42
  10  -2  -7   17.58    2.94
  10  -2  -7   20.26    3.44
 -10   2   7   18.60    4.55
 -10   2   7   15.63    4.36
   9  -2  -7   67.88    6.73
   9  -2  -7   64.29    6.38
  -9   2   7   60.41    8.12
  -9   2   7   66.76    8.41
   8  -2  -7    3.44    1.19
   8  -2  -7    5.88    2.22
   8  -2  -7    3.98    1.59
  -8   2   7    1.69    2.93
  -8   2   7    0.56    3.13
   7  -2  -7    1.23    1.65
   7  -2  -7    0.99    1.05
   7  -2  -7    0.92    0.89
  -7   2   7   -1.42    2.33
  -7   2   7    0.74    2.52
   6  -2  -7    6.44    1.88
   6  -2  -7    4.55    1.08
   6  -2  -7    5.46    1.14
   6  -2  -7    6.94    1.56
  -6   2   7    3.83    2.19
  -6   2   7    4.34    2.08
  -6   2   7    5.53    1.79
   5  -2  -7   33.74    2.88
   5  -2  -7   32.47    2.94
   5  -2  -7   29.35    3.70
   5  -2  -7   29.73    3.21
  -5   2   7   37.27    3.64
  -5   2   7   29.47    3.36
  -5   2   7   30.60    3.94
  -5   2   7   24.89    4.12
   4  -2  -7  240.87   19.36
   4  -2  -7  262.09   19.19
   4  -2  -7  217.59   19.28
   4  -2  -7  280.31   19.16
  -4   2   7  219.35   20.00
  -4   2   7  255.71   19.60
  -4   2   7  232.89   19.72
   3  -2  -7  591.58   49.82
   3  -2  -7  639.71   49.80
   3  -2  -7  670.21   49.80
  -3   2   7  654.03   50.21
  -3   2   7  611.55   50.60
  -3   2   7  694.84   50.09
  -3   2   7  640.76   49.82
   2  -2  -7   12.34    1.16
   2  -2  -7    8.78    1.18
   2  -2  -7    9.87    1.42
  -2   2   7   10.67    1.54
  -2   2   7    7.94    1.12
  -2   2   7   10.20    1.13
  -2   2   7   12.03    1.90
  -1   2   7  109.55    8.94
  -1   2   7  117.96    8.85
  -1   2   7  102.28    8.86
   0  -2  -7    0.54    0.89
   0   2   7    1.22    0.47
   0   2   7    1.16    0.90
   0   2   7    1.71    0.55
   1   2   7  122.43   10.31
   1   2   7  145.02   10.67
   1   2   7  126.05   10.51
  -2  -2  -7    2.55    1.41
   2   2   7    3.74    1.03
   2   2   7    4.50    0.70
   2   2   7    5.00    0.78
   3   2   7  191.69   16.00
   3   2   7  196.85   15.37
   3   2   7  191.39   15.78
   3   2   7  202.24   15.39
   4   2   7   77.31    7.17
   4   2   7   72.83    6.84
   4   2   7   72.13    6.20
   4   2   7   76.94    7.08
   4   2   7   76.55    6.22
  -5  -2  -7    7.88    1.86
   5   2   7   13.49    1.80
   5   2   7   13.00    2.89
   5   2   7   13.30    1.95
   5   2   7   16.47    3.22
   5   2   7    8.99    2.29
   6   2   7   49.54    4.60
   6   2   7   37.77    5.55
   6   2   7   48.00    5.88
   6   2   7   48.98    4.75
   7   2   7   26.29    5.29
   7   2   7   26.51    4.16
   7   2   7   26.02    3.63
   8   2   7   -0.59    1.78
   8   2   7    3.05    2.33
   8   2   7    2.23    3.27
   9  -3  -7   61.68    6.07
   9  -3  -7   56.74    6.25
  -9   3   7   50.63    7.72
  -9   3   7   56.27    8.25
   8  -3  -7   20.01    3.01
   8  -3  -7   13.97    2.80
  -8   3   7   12.09    3.87
  -8   3   7   19.14    4.36
   7  -3  -7   36.76    4.36
   7  -3  -7   40.32    3.93
   7  -3  -7   39.85    3.74
  -7   3   7   42.36    5.27
  -7   3   7   35.09    5.78
  -7   3   7   31.83    5.01
   6  -3  -7   33.22    3.09
   6  -3  -7   31.05    3.10
   6  -3  -7   29.98    3.59
   6  -3  -7   29.61    3.95
  -6   3   7   28.62    3.86
  -6   3   7   20.81    4.47
  -6   3   7   33.03    4.99
   5  -3  -7   36.26    4.07
   5  -3  -7   36.42    3.74
   5  -3  -7   39.67    3.35
   5  -3  -7   40.01    3.63
  -5   3   7   29.30    4.63
  -5   3   7   32.68    3.89
  -5   3   7   37.81    4.49
   4  -3  -7   11.45    1.28
   4  -3  -7    8.09    1.47
   4  -3  -7   13.46    1.65
   4  -3  -7   10.34    1.73
  -4   3   7    8.29    2.38
  -4   3   7    9.76    1.96
  -4   3   7    8.77    1.58
  -4   3   7   10.85    1.94
   3  -3  -7    7.29    1.42
   3  -3  -7    5.93    1.11
   3  -3  -7    8.87    1.29
  -3   3   7    7.30    1.43
  -3   3   7    6.37    1.06
  -3   3   7    7.14    1.71
   2  -3  -7   10.49    1.30
   2  -3  -7    7.88    1.55
   2  -3  -7    9.35    1.24
  -2   3   7    6.82    1.15
  -2   3   7   10.09    1.72
  -2   3   7   10.18    1.56
   1  -3  -7  105.95    9.47
   1  -3  -7  123.92    9.08
   1  -3  -7  108.11    9.10
  -1   3   7  119.74    9.49
  -1   3   7  116.36    9.37
  -1   3   7  118.30    9.34
   0   3   7  705.11   50.56
   0   3   7  636.61   50.52
   0   3   7  608.30   50.39
  -1  -3  -7   20.33    3.25
   1   3   7   32.47    2.76
   1   3   7   25.16    2.43
  -2  -3  -7    5.37    1.82
   2   3   7    8.65    1.91
   2   3   7   11.61    1.83
   2   3   7    9.30    1.20
   3   3   7  219.86   18.03
   3   3   7  217.31   17.32
   3   3   7  230.33   18.05
   3   3   7  221.80   17.48
   4   3   7   17.85    2.14
   4   3   7   19.93    2.87
   4   3   7   17.52    3.20
   4   3   7   19.85    1.95
   5   3   7  154.43   12.46
   5   3   7  167.08   12.64
   5   3   7  141.24   13.40
   5   3   7  155.93   13.46
   6   3   7    4.25    2.27
   6   3   7    4.66    1.34
   6   3   7    2.04    1.85
   7   3   7   -2.26    2.08
   7   3   7    1.24    1.34
   7   3   7   -1.17    2.26
   9  -4  -7   16.96    2.98
   9  -4  -7   16.96    2.85
  -9   4   7   18.22    4.85
  -9   4   7   17.18    3.83
   8  -4  -7    1.26    2.32
   8  -4  -7    2.85    1.57
  -8   4   7    1.13    3.13
  -8   4   7    3.84    3.63
   7  -4  -7    4.47    1.43
   7  -4  -7    5.11    2.02
  -7   4   7    1.29    3.65
  -7   4   7    8.20    3.05
  -7   4   7    3.66    2.93
   6  -4  -7   42.80    3.98
   6  -4  -7   42.20    3.89
  -6   4   7   36.96    5.22
  -6   4   7   38.87    6.03
   5  -4  -7  219.47   17.47
   5  -4  -7  234.54   17.18
   5  -4  -7  209.64   17.47
  -5   4   7  217.87   18.07
  -5   4   7  202.78   18.34
   4  -4  -7   49.35    3.79
   4  -4  -7   43.55    4.29
   4  -4  -7   40.17    4.21
   4  -4  -7   51.76    4.19
  -4   4   7   41.16    4.72
  -4   4   7   36.37    4.14
  -4   4   7   46.19    4.72
  -4   4   7   45.60    5.37
   3  -4  -7  484.69   39.55
   3  -4  -7  535.87   39.47
   3  -4  -7  536.43   39.60
  -3   4   7  512.59   39.78
  -3   4   7  466.87   39.85
   2  -4  -7   26.81    2.86
   2  -4  -7   25.74    2.39
   2  -4  -7   24.38    2.44
  -2   4   7   20.66    2.38
  -2   4   7   20.80    3.07
  -2   4   7   25.00    2.79
   1  -4  -7   43.07    3.38
   1  -4  -7   38.96    3.40
   1  -4  -7   33.79    3.90
  -1   4   7   40.22    4.04
  -1   4   7   39.55    3.65
  -1   4   7   36.33    3.56
   0  -4  -7   27.57    2.41
   0  -4  -7   22.97    3.29
   0  -4  -7   25.75    2.36
   0   4   7   27.04    2.62
   0   4   7   23.99    3.23
  -1  -4  -7  116.69    9.38
  -1  -4  -7   99.34   10.23
  -1  -4  -7  107.34    9.51
   1   4   7  139.70   10.31
   1   4   7  134.61   10.00
   1   4   7  129.42    9.73
  -2  -4  -7    3.15    1.75
   2   4   7    3.41    1.18
   2   4   7    2.16    1.89
   2   4   7    5.21    0.95
   3   4   7    0.67    1.14
   3   4   7    0.34    0.76
   3   4   7    3.06    2.07
   4   4   7  219.48   15.96
   4   4   7  163.10   15.84
   4   4   7  184.10   15.15
   5   4   7   96.62    8.97
   5   4   7   90.87    8.02
   6   4   7   13.07    2.98
   6   4   7    7.38    2.27
   7   4   7  180.16   15.06
   9  -5  -7    2.20    1.97
  -9   5   7    4.17    3.80
   8  -5  -7    9.95    2.69
   8  -5  -7    9.44    2.28
  -8   5   7    7.89    3.76
  -8   5   7   10.98    4.32
   7  -5  -7   94.62    7.55
   7  -5  -7   83.36    8.05
  -7   5   7   73.32    8.77
  -7   5   7   81.09    9.42
   6  -5  -7   40.06    3.64
   6  -5  -7   42.90    3.85
   6  -5  -7   35.71    4.42
  -6   5   7   31.49    5.04
  -6   5   7   30.39    5.25
  -6   5   7   28.81    4.40
   5  -5  -7  235.39   18.42
   5  -5  -7  213.85   18.81
   5  -5  -7  266.28   18.71
  -5   5   7  215.52   19.38
   4  -5  -7    6.11    1.45
   4  -5  -7    4.23    1.38
   4  -5  -7    5.67    0.97
   4  -5  -7    6.09    1.61
  -4   5   7    6.36    2.21
   3  -5  -7    1.38    1.20
   3  -5  -7    2.19    1.12
   3  -5  -7    1.70    1.10
  -3   5   7    3.13    1.55
   2  -5  -7   35.35    3.33
   2  -5  -7   31.99    3.43
   2  -5  -7   35.44    3.81
  -2   5   7   36.78    3.83
  -2   5   7   37.56    3.98
   1  -5  -7   25.03    2.62
   1  -5  -7   24.55    3.34
   1  -5  -7   25.63    2.61
  -1   5   7   23.60    2.89
  -1   5   7   23.06    3.23
  -1   5   7   27.16    2.81
   0  -5  -7  406.20   31.41
   0  -5  -7  399.51   31.40
   0  -5  -7  355.09   31.90
   0   5   7  414.52   31.68
   0   5   7  442.37   31.83
  -1  -5  -7  107.78    8.89
  -1  -5  -7  108.71    8.86
   1   5   7  108.54    9.15
   1   5   7  123.31    9.69
  -2  -5  -7    7.55    1.22
  -2  -5  -7    6.90    1.00
   2   5   7    7.99    1.41
   2   5   7    9.83    2.31
   2   5   7   10.63    2.01
   3   5   7   62.42    5.83
   3   5   7   56.09    5.29
   4   5   7    1.14    1.72
   4   5   7   -0.13    1.32
   5   5   7   15.30    2.67
   5   5   7   21.07    4.10
   6   5   7   27.00    4.28
   6   5   7   29.64    4.37
   8  -6  -7   65.49    5.96
   8  -6  -7   58.58    6.41
  -8   6   7   47.47    7.57
  -8   6   7   57.86    9.03
   7  -6  -7   12.65    2.02
   7  -6  -7    9.90    2.87
  -7   6   7    9.34    4.29
  -7   6   7   15.93    4.04
   6  -6  -7   14.06    3.08
   6  -6  -7   19.42    2.25
  -6   6   7   21.42    4.19
  -6   6   7   12.94    4.07
   5  -6  -7    1.59    1.78
   5  -6  -7    0.96    1.33
   5  -6  -7    0.73    0.61
  -5   6   7   -0.19    2.82
  -5   6   7    4.55    2.56
   4  -6  -7  160.87   12.16
   4  -6  -7  138.20   12.23
   4  -6  -7  147.87   11.59
  -4   6   7  138.69   12.79
   3  -6  -7   -1.67    1.14
   3  -6  -7    1.03    1.08
   3  -6  -7   -0.75    1.33
  -3   6   7    1.24    1.72
   2  -6  -7    1.93    1.03
   2  -6  -7    1.06    1.24
   2  -6  -7    1.17    1.20
  -2   6   7    0.93    1.56
  -2   6   7    1.75    1.08
   1  -6  -7   38.77    3.54
   1  -6  -7   39.39    3.42
   1  -6  -7   27.00    3.88
  -1   6   7   33.98    3.99
  -1   6   7   34.44    3.70
   0  -6  -7   17.42    2.36
   0  -6  -7   21.12    2.41
   0   6   7   17.42    2.75
   0   6   7   21.17    2.85
  -1  -6  -7   25.45    2.52
  -1  -6  -7   19.82    2.42
   1   6   7   23.73    2.92
  -2  -6  -7    0.42    0.76
   2   6   7    1.08    1.30
   2   6   7   -0.89    1.19
  -3  -6  -7   85.32    7.28
   3   6   7   98.97    7.96
   4   6   7  116.48   10.03
   4   6   7  101.47    9.37
   5   6   7   -0.84    1.74
   5   6   7    0.68    2.01
   7  -7  -7    8.17    2.64
  -7   7   7    1.76    3.07
  -7   7   7    6.23    4.21
   6  -7  -7    4.58    2.60
   6  -7  -7    1.17    1.76
  -6   7   7    5.22    3.03
  -6   7   7    2.40    4.06
   5  -7  -7   86.02    8.24
   5  -7  -7   89.03    7.10
  -5   7   7   82.57    8.82
  -5   7   7   82.68    9.77
   4  -7  -7   23.31    2.24
   4  -7  -7   23.69    3.40
  -4   7   7   21.81    3.89
  -3   7   7   34.12    4.77
   2  -7  -7   13.25    1.91
   2  -7  -7   19.61    3.06
  -2   7   7   16.83    3.01
   1  -7  -7   90.86    7.54
   1  -7  -7   90.14    7.15
  -1   7   7   71.97    7.91
  -1   7   7   90.15    7.97
   0  -7  -7   63.53    5.86
   0  -7  -7   64.04    6.08
   0   7   7   70.76    6.51
   0   7   7   73.43    6.56
  -1  -7  -7    8.45    1.61
   1   7   7   10.81    2.24
   1   7   7   10.18    2.18
  -2  -7  -7   45.76    4.76
   2   7   7   60.46    5.55
   2   7   7   60.87    5.81
   3   7   7   38.96    4.58
   3   7   7   37.07    4.60
   4   7   7   74.21    7.65
   4   7   7   88.76    7.97
   5   7   7   55.18    6.29
   6  -8  -7   15.12    3.15
  -6   8   7    5.81    4.14
  -6   8   7    5.12    3.09
   5  -8  -7    0.66    2.69
  -5   8   7   -0.42    2.73
  -5   8   7   -3.05    3.94
   4  -8  -7   87.21    8.66
  -4   8   7   90.11    9.10
   3  -8  -7   98.62    9.19
  -3   8   7  101.72    9.72
   2  -8  -7   16.55    2.94
  -2   8   7   18.14    3.48
  -1   8   7   65.06    6.54
   0  -8  -7    2.85    2.05
   0   8   7    4.75    2.24
   0   8   7    1.11    1.87
  -1  -8  -7   74.33    7.16
   1   8   7   87.62    7.79
   1   8   7   83.16    7.80
   2   8   7   26.06    3.76
   2   8   7   20.16    3.32
   3   8   7   58.40    6.33
   3   8   7   60.87    6.29
   4  -9  -7   51.70    6.39
  -4   9   7   37.45    5.98
   3  -9  -7    7.36    3.22
  -3   9   7    3.39    2.58
   2  -9  -7    1.95    2.93
  -2   9   7    1.14    2.58
   1  -9  -7    3.24    2.89
  -1   9   7   12.23    3.04
   0  -9  -7  228.48   17.13
   0   9   7  210.34   17.51
   0   9   7  186.94   17.36
   1   9   7    6.01    1.97
   1   9   7    8.55    2.46
   2   9   7   11.63    2.54
   3  11  -8    2.14    2.63
  -3 -11   8   -2.51    2.71
  -3 -11   8   -2.86    2.74
  -2 -11   8   74.00    7.84
   0 -11   8   -2.19    2.63
   1 -11   8   39.73    6.09
   1 -11   8   42.08    5.96
   2 -11   8    7.53    3.05
   2 -11   8    8.48    3.20
   5  10  -8   72.89    7.15
  -5 -10   8   65.91    7.11
  -5 -10   8   67.31    7.41
   4  10  -8   13.03    3.12
  -4 -10   8   10.04    3.15
  -4 -10   8   11.97    3.03
   3  10  -8    0.85    2.26
  -3 -10   8    1.73    2.66
  -3 -10   8   -1.39    2.43
   2  10  -8   28.02    4.12
  -2 -10   8   37.29    5.08
  -2 -10   8   27.52    4.39
   1  10  -8   -1.11    1.48
  -1 -10   8   -1.51    2.62
  -1 -10   8   -2.28    1.98
   0 -10   8    4.03    2.53
   1 -10   8   32.60    4.69
   2 -10   8    2.08    2.74
   2 -10   8   -1.95    2.62
   3 -10   8   41.65    5.86
   4 -10   8    4.26    2.78
   4 -10   8   -0.58    3.07
   6   9  -8    6.07    2.61
  -6  -9   8    7.22    3.07
  -6  -9   8    3.16    2.43
   5   9  -8   27.28    4.32
  -5  -9   8   33.89    5.29
  -5  -9   8   18.20    3.99
   4   9  -8   42.89    4.79
  -4  -9   8   37.72    5.52
  -4  -9   8   39.24    5.85
   3   9  -8   -0.22    1.70
  -3  -9   8   -3.11    2.15
  -3  -9   8    3.00    2.35
   2   9  -8   57.84    5.75
  -2  -9   8   71.32    6.49
  -2  -9   8   60.82    6.74
   1   9  -8    1.23    1.05
  -1  -9   8   -0.53    1.75
  -1  -9   8   -1.02    2.08
   0   9  -8    6.44    2.93
   0   9  -8   12.55    1.84
   0  -9   8    9.24    2.04
   1  -9   8  145.52   12.61
   2  -9   8    0.94    2.35
   2  -9   8    5.08    2.38
   3  -9   8    3.46    2.52
   3  -9   8    5.10    2.63
   4  -9   8    0.74    2.56
   4  -9   8    8.41    2.80
   5  -9   8    5.09    2.58
   5  -9   8   11.66    3.25
   7   8  -8   -0.58    2.02
  -7  -8   8   -1.26    2.23
  -7  -8   8    3.26    3.20
   6   8  -8  251.59   19.52
  -6  -8   8  231.33   20.60
  -6  -8   8  241.08   20.29
   5   8  -8    4.95    1.85
  -5  -8   8    3.63    3.16
  -5  -8   8    4.23    2.48
   4   8  -8   30.05    3.48
   4   8  -8   26.86    3.98
  -4  -8   8   29.48    4.44
  -4  -8   8   20.69    3.54
  -4  -8   8   32.58    4.54
   3   8  -8   73.93    7.77
   3   8  -8   82.44    7.15
  -3  -8   8   84.96    8.07
  -3  -8   8   85.06    7.31
  -3  -8   8   85.51    7.91
   2   8  -8   68.20    6.98
   2   8  -8   65.45    6.41
  -2  -8   8   89.39    6.85
  -2  -8   8   71.10    7.27
  -2  -8   8   85.04    7.20
   1   8  -8  115.78   10.20
   1   8  -8  110.04   11.35
   1   8  -8  126.90   10.53
  -1  -8   8  148.46   11.00
  -1  -8   8  141.51   11.08
   0   8  -8   64.96    5.95
   0   8  -8   56.68    7.12
   0  -8   8   82.46    6.63
   0  -8   8   82.34    6.87
   0  -8   8   79.13    6.93
   1  -8   8   18.95    2.47
   2  -8   8   20.21    3.11
   2  -8   8   11.41    3.20
   3  -8   8   21.80    3.92
   4  -8   8    5.25    2.71
   4  -8   8    6.23    3.73
   5  -8   8   -1.42    2.53
   5  -8   8    4.80    2.62
   6  -8   8   36.86    5.29
   6  -8   8   32.33    5.26
   8   7  -8    4.17    2.02
  -8  -7   8    4.20    3.40
  -8  -7   8    1.49    2.70
   7   7  -8    2.64    1.99
  -7  -7   8    2.18    2.48
  -7  -7   8    2.05    3.32
   6   7  -8    0.82    1.58
   6   7  -8   -0.22    0.97
  -6  -7   8   -2.42    2.79
  -6  -7   8   -2.22    2.36
   5   7  -8    1.37    1.32
   5   7  -8    1.72    3.11
  -5  -7   8   -1.38    1.94
  -5  -7   8    4.04    2.69
   4   7  -8   37.96    5.00
   4   7  -8   48.04    4.01
  -4  -7   8   33.58    4.17
  -4  -7   8   40.48    5.23
  -4  -7   8   44.59    5.00
   3   7  -8   83.17    8.43
   3   7  -8   92.07    7.71
  -3  -7   8   97.27    8.02
  -3  -7   8   96.78    8.60
  -3  -7   8   95.99    8.58
   2   7  -8    2.21    2.23
   2   7  -8   -0.12    0.73
  -2  -7   8    0.88    1.50
  -2  -7   8   -0.63    1.09
  -2  -7   8   -0.34    1.09
  -2  -7   8    0.51    1.51
   1   7  -8    7.56    1.40
   1   7  -8    3.70    2.40
   1   7  -8    6.63    1.04
  -1  -7   8    8.01    1.35
  -1  -7   8    7.32    1.64
  -1  -7   8    7.37    1.73
  -1  -7   8    6.10    1.59
   0   7  -8  132.62   13.66
   0  -7   8  167.36   13.21
   0  -7   8  170.63   13.30
   0  -7   8  164.38   13.23
   0  -7   8  168.66   12.93
  -1   7  -8   50.33    5.90
   1  -7   8   54.07    5.31
   1  -7   8   56.83    4.95
   1  -7   8   59.59    4.96
   2  -7   8   14.84    1.69
   2  -7   8   10.78    2.59
   2  -7   8   15.26    2.14
   2  -7   8   11.63    1.83
   3  -7   8    0.80    1.26
   3  -7   8    1.29    1.33
   3  -7   8   -2.39    1.78
   4  -7   8   -0.98    2.18
   4  -7   8    1.72    1.50
   5  -7   8   -1.11    1.94
   5  -7   8   -1.63    2.35
   6  -7   8    4.34    2.15
   6  -7   8   -1.62    2.39
  -8  -6   8   47.61    6.20
  -8  -6   8   44.20    6.63
   7   6  -8  224.06   20.01
   7   6  -8  264.04   20.27
  -7  -6   8  274.07   21.61
  -7  -6   8  261.36   21.34
   6   6  -8    2.51    2.52
   6   6  -8    3.04    0.84
  -6  -6   8    2.37    1.87
  -6  -6   8    9.79    2.97
  -6  -6   8    3.05    2.47
   5   6  -8  141.61   14.07
   5   6  -8  176.36   13.54
  -5  -6   8  178.27   14.60
  -5  -6   8  178.79   14.46
   4   6  -8  150.63   10.91
   4   6  -8  131.84   11.63
  -4  -6   8  118.42   11.00
  -4  -6   8  141.32   11.79
   3   6  -8   71.35    7.05
   3   6  -8   84.34    6.35
  -3  -6   8   68.59    6.52
  -3  -6   8   81.02    6.57
  -3  -6   8   73.26    7.06
  -3  -6   8   78.02    7.16
   2   6  -8  135.38   13.72
   2   6  -8  167.32   12.76
   2   6  -8  156.12   12.98
  -2  -6   8  173.28   13.39
  -2  -6   8  177.16   13.59
  -2  -6   8  161.84   13.01
   1   6  -8    2.88    2.28
  -1  -6   8    7.14    1.62
  -1  -6   8    9.61    1.84
  -1  -6   8    6.84    1.28
   0   6  -8   39.71    5.40
   0  -6   8   49.81    4.13
   0  -6   8   44.17    4.48
   0  -6   8   50.64    4.36
   0  -6   8   45.70    4.44
  -1   6  -8  229.51   21.80
   1  -6   8  287.43   21.60
   1  -6   8  295.69   21.68
   1  -6   8  278.23   21.40
   2  -6   8    3.33    1.76
   2  -6   8    6.58    1.29
   2  -6   8    6.08    1.03
   2  -6   8    5.07    1.32
   3  -6   8  187.53   14.13
   3  -6   8  147.39   14.72
   3  -6   8  189.67   14.17
   4  -6   8   51.99    6.07
   4  -6   8   56.61    5.18
   4  -6   8   61.47    5.41
   5  -6   8  182.15   16.24
   5  -6   8  208.97   15.53
   5  -6   8  178.63   15.67
   6  -6   8    6.89    2.68
   6  -6   8   12.19    2.40
   7  -6   8  159.15   14.41
   7  -6   8  171.70   14.02
   9   5  -8   91.45    7.92
  -9  -5   8   72.68    9.46
  -9  -5   8   89.85    8.81
   8   5  -8   10.03    2.23
  -8  -5   8    8.17    3.29
  -8  -5   8   12.83    3.97
   7   5  -8   32.43    3.20
   7   5  -8   39.81    3.91
  -7  -5   8   29.72    5.22
  -7  -5   8   33.52    5.06
   6   5  -8   66.77    6.94
   6   5  -8   56.94    5.52
   6   5  -8   73.84    5.92
  -6  -5   8   71.08    7.06
  -6  -5   8   79.77    7.42
   5   5  -8   42.75    5.19
   5   5  -8   43.09    3.85
  -5  -5   8   37.65    5.10
  -5  -5   8   40.22    5.17
   4   5  -8  184.90   13.92
   4   5  -8  173.38   14.43
  -4  -5   8  188.39   14.77
  -4  -5   8  177.88   14.79
  -4  -5   8  156.22   14.09
   3   5  -8  203.50   18.71
   3   5  -8  227.58   18.13
   3   5  -8  247.30   17.86
  -3  -5   8  230.49   18.64
  -3  -5   8  240.33   17.95
  -3  -5   8  212.95   18.05
  -3  -5   8  228.46   18.46
   2   5  -8  221.82   19.14
   2   5  -8  241.26   18.14
  -2  -5   8  234.02   18.33
  -2  -5   8  231.90   18.63
  -2  -5   8  230.89   18.84
   1   5  -8  159.28   13.79
  -1  -5   8  184.16   13.10
  -1  -5   8  157.17   12.91
  -1  -5   8  161.06   13.18
  -1  -5   8  151.71   13.38
   0   5  -8   71.32    6.99
   0  -5   8   76.71    6.25
   0  -5   8   74.13    6.45
   0  -5   8   63.50    6.27
   0  -5   8   82.02    6.04
   1  -5   8  288.08   21.40
   1  -5   8  246.36   21.45
   1  -5   8  280.18   21.22
   2  -5   8   -0.58    1.20
   2  -5   8    2.24    0.76
   2  -5   8    0.99    0.99
   2  -5   8    0.19    0.69
   3  -5   8    1.98    0.76
   3  -5   8    0.47    1.48
   3  -5   8    2.10    1.29
   4  -5   8   44.53    4.09
   4  -5   8   45.51    4.67
   5  -5   8   23.37    4.30
   5  -5   8   25.26    3.04
   5  -5   8   24.68    3.67
   6  -5   8   47.22    6.12
   6  -5   8   47.04    4.96
   7  -5   8    4.47    3.05
   7  -5   8    1.31    2.42
   7  -5   8    5.10    2.25
   9   4  -8   26.43    4.09
  -9  -4   8   24.17    4.53
  -9  -4   8   28.90    4.55
   8   4  -8   28.91    3.82
  -8  -4   8   23.20    4.79
  -8  -4   8   21.72    4.30
   7   4  -8   -1.16    1.26
   7   4  -8   -0.33    0.58
  -7  -4   8    0.88    2.20
  -7  -4   8    1.03    2.68
   6   4  -8   39.14    3.49
   6   4  -8   44.60    3.95
   6   4  -8   40.52    5.07
  -6  -4   8   36.26    5.75
  -6  -4   8   44.95    5.28
   5   4  -8    2.83    2.22
   5   4  -8    6.15    1.10
  -5  -4   8    2.85    1.98
  -5  -4   8    3.00    1.84
   4   4  -8    4.13    2.08
   4   4  -8    0.16    1.71
   4   4  -8    1.83    0.68
  -4  -4   8    1.30    0.62
  -4  -4   8    1.27    1.18
  -4  -4   8    2.35    1.52
  -4  -4   8    1.19    1.47
  -4  -4   8    1.32    0.95
   3   4  -8   95.78    7.92
   3   4  -8  109.32    7.66
   3   4  -8   83.80    8.87
  -3  -4   8   94.48    8.51
  -3  -4   8   88.28    7.63
  -3  -4   8  106.97    8.04
  -3  -4   8   92.36    8.24
  -3  -4   8   91.71    7.92
   2   4  -8  110.65   10.81
  -2  -4   8  123.44   10.19
  -2  -4   8  131.92   10.57
  -2  -4   8  126.10    9.92
   1   4  -8   80.20    7.57
  -1  -4   8   81.01    7.19
  -1  -4   8   69.72    7.04
  -1  -4   8   86.80    6.92
  -1  -4   8   90.58    6.77
   0  -4   8  129.26   10.65
   0  -4   8  128.74   10.99
   0  -4   8  140.22   10.47
   1  -4   8   95.00    7.94
   1  -4   8  100.87    7.83
   1  -4   8  100.02    8.26
   2  -4   8   40.35    3.51
   2  -4   8   39.43    3.69
   3  -4   8  305.12   21.82
   3  -4   8  265.50   21.79
   3  -4   8  294.37   21.91
   3  -4   8  248.52   22.43
   4  -4   8   30.62    4.02
   4  -4   8   34.85    3.17
   4  -4   8   36.41    3.99
   5  -4   8  132.63   11.52
   5  -4   8  128.45   10.69
   5  -4   8  133.00   11.07
   6  -4   8    3.58    3.03
   6  -4   8    6.12    2.57
   6  -4   8    2.17    1.62
   7  -4   8   16.42    2.76
   7  -4   8   12.70    2.98
   9   3  -8   16.06    2.87
  -9  -3   8   14.42    3.99
  -9  -3   8   12.30    3.60
   8   3  -8    9.03    2.12
   8   3  -8    9.39    1.46
  -8  -3   8    8.69    3.34
  -8  -3   8   14.91    3.68
   7   3  -8  244.48   17.73
  -7  -3   8  217.03   19.00
  -7  -3   8  210.59   19.05
   6   3  -8  186.95   14.14
   6   3  -8  158.16   13.75
  -6  -3   8  180.04   15.16
  -6  -3   8  187.87   15.17
   5   3  -8    2.72    1.96
   5   3  -8    0.03    0.69
  -5  -3   8    1.70    1.01
  -5  -3   8   -0.60    1.17
  -5  -3   8    0.30    1.62
  -5  -3   8    1.04    1.63
   4   3  -8    2.89    0.66
   4   3  -8    3.69    1.99
  -4  -3   8    1.79    1.17
  -4  -3   8    2.14    1.50
  -4  -3   8    1.58    0.96
  -4  -3   8    1.44    1.26
   3   3  -8    1.13    1.93
   3   3  -8   -0.31    0.40
   3   3  -8    0.61    0.82
  -3  -3   8   -1.81    1.24
  -3  -3   8    0.85    0.92
  -3  -3   8   -0.07    0.97
  -3  -3   8    0.43    0.82
   2   3  -8   21.00    3.54
  -2  -3   8   25.17    1.93
  -2  -3   8   20.94    2.50
  -2  -3   8   19.09    2.28
  -2  -3   8   21.62    2.87
  -1  -3   8   40.79    3.34
  -1  -3   8   39.05    3.55
  -1  -3   8   36.78    3.35
  -1  -3   8   40.67    4.08
   0  -3   8   16.57    2.59
   0  -3   8   19.75    1.71
   0  -3   8   20.19    2.50
   1  -3   8  290.30   21.30
   1  -3   8  267.37   21.37
   1  -3   8  266.22   21.85
   2  -3   8   54.48    5.71
   2  -3   8   70.20    5.17
   2  -3   8   63.43    5.57
   3  -3   8  216.78   19.16
   3  -3   8  251.67   18.67
   3  -3   8  253.13   18.54
   3  -3   8  226.32   18.76
   4  -3   8    9.47    2.60
   4  -3   8   12.35    1.61
   4  -3   8   17.93    2.76
   5  -3   8   27.32    3.85
   5  -3   8   33.16    3.06
   5  -3   8   23.23    4.39
   6  -3   8   84.69    8.09
   6  -3   8   83.16    7.33
   7  -3   8   -0.62    2.05
   7  -3   8    0.70    1.74
   7  -3   8   -0.82    2.83
   8  -3   8   30.62    6.39
   8  -3   8   42.14    5.40
   8  -3   8   51.42    7.77
 -10  -2   8    7.42    3.45
   9   2  -8  117.75    9.64
  -9  -2   8  102.19   10.84
  -9  -2   8   97.56   11.02
   8   2  -8    2.34    1.69
   8   2  -8   -1.13    0.58
  -8  -2   8   -2.51    2.77
  -8  -2   8   -0.42    2.96
   7   2  -8  401.78   31.07
  -7  -2   8  394.30   31.96
  -7  -2   8  388.39   31.94
   6   2  -8  216.49   18.23
   6   2  -8  229.85   17.76
  -6  -2   8  204.85   19.14
  -6  -2   8  241.31   18.71
   5   2  -8  580.93   52.36
   5   2  -8  691.48   51.87
   5   2  -8  699.15   51.55
  -5  -2   8  679.38   52.24
  -5  -2   8  663.72   51.81
  -5  -2   8  639.25   52.33
  -5  -2   8  693.55   51.76
   4   2  -8  164.79   15.95
   4   2  -8  199.02   15.34
   4   2  -8  204.72   15.07
  -4  -2   8  193.45   15.39
  -4  -2   8  185.84   15.93
  -4  -2   8  200.25   15.31
  -4  -2   8  189.75   15.69
   3   2  -8 2119.95  149.17
   3   2  -8 1815.13  149.20
   3   2  -8 1867.68  150.07
  -3  -2   8 1793.79  149.97
  -3  -2   8 2063.36  149.45
  -3  -2   8 1903.64  149.43
  -3  -2   8 1985.64  149.73
  -2  -2   8  442.80   35.14
  -2  -2   8  478.96   35.28
  -2  -2   8  430.50   35.63
  -1  -2   8  514.81   41.06
  -1  -2   8  510.66   41.72
  -1  -2   8  566.47   41.25
   0  -2   8   19.50    2.37
   0  -2   8   27.60    2.25
   0  -2   8   27.34    2.02
   0  -2   8   19.21    2.73
   1  -2   8  189.37   16.21
   1  -2   8  186.15   16.15
   1  -2   8  233.05   16.44
   2  -2   8   84.06    7.58
   2  -2   8   86.80    7.80
   2  -2   8   97.78    7.71
   3  -2   8  557.31   43.63
   3  -2   8  608.24   43.56
   3  -2   8  540.79   44.10
   3  -2   8  544.69   43.99
   4  -2   8   67.26    5.32
   4  -2   8   62.22    5.58
   4  -2   8   62.44    5.74
   4  -2   8   70.07    5.98
   4  -2   8   54.69    6.46
   5  -2   8  225.51   19.43
   5  -2   8  220.82   20.64
   5  -2   8  264.92   20.09
   5  -2   8  223.56   19.72
   5  -2   8  260.29   19.36
   5  -2   8  285.17   19.58
   6  -2   8   44.35    4.79
   6  -2   8   30.59    5.94
   6  -2   8   46.36    4.21
   6  -2   8   36.55    5.42
   7  -2   8  230.80   20.26
   7  -2   8  261.80   19.88
   8  -2   8    9.68    3.22
   8  -2   8    8.88    2.72
   8  -2   8   17.50    3.21
  10   1  -8    4.14    2.03
 -10  -1   8   -1.53    3.15
 -10  -1   8    4.85    4.84
   9   1  -8  189.89   15.51
  -9  -1   8  195.75   16.52
  -9  -1   8  171.47   16.56
   8   1  -8    0.56    1.70
  -8  -1   8    2.65    2.86
  -8  -1   8    3.96    3.25
   7   1  -8  310.18   24.32
  -7  -1   8  316.14   25.28
  -7  -1   8  294.24   25.14
   6   1  -8    5.31    1.26
   6   1  -8    2.90    2.19
   5   1  -8  843.29   65.43
   5   1  -8  853.06   65.67
  -5  -1   8  842.11   66.27
  -5  -1   8  855.68   65.59
  -5  -1   8  829.00   65.69
  -5  -1   8  846.81   66.07
   4   1  -8   55.88    4.92
   4   1  -8   56.35    4.60
  -4  -1   8   54.86    5.08
  -4  -1   8   55.39    5.25
  -4  -1   8   53.22    5.59
  -4  -1   8   55.69    4.84
   3   1  -8  492.97   41.21
   3   1  -8  571.54   41.23
  -3  -1   8  477.42   42.03
  -3  -1   8  546.40   41.74
  -3  -1   8  569.23   41.56
  -3  -1   8  540.80   41.43
  -2  -1   8  701.17   53.16
  -2  -1   8  678.51   53.26
  -2  -1   8  727.05   53.15
  -2  -1   8  633.18   53.71
  -1  -1   8    8.22    1.05
  -1  -1   8    7.69    1.65
  -1  -1   8    8.12    1.27
  -1  -1   8    7.81    1.26
   0  -1   8    4.19    0.60
   0  -1   8    3.83    0.79
   0  -1   8    3.34    0.59
   0  -1   8    2.12    1.23
   1  -1   8   36.55    3.63
   1  -1   8   39.49    3.75
   1  -1   8   45.36    4.18
   2  -1   8  110.80    9.44
   2  -1   8   99.84    9.09
   2  -1   8  119.89    8.61
   3  -1   8    4.93    1.60
   3  -1   8    7.27    1.28
   3  -1   8    6.35    1.16
   3  -1   8    7.58    1.04
   3  -1   8    3.46    1.39
   4  -1   8   85.33    7.54
   4  -1   8  100.49    7.67
   4  -1   8   77.08    8.12
   5  -1   8   74.81    6.73
   5  -1   8   68.82    7.51
   5  -1   8   79.42    6.32
   5  -1   8   71.45    6.85
   5  -1   8   75.03    6.49
   6  -1   8    3.28    1.80
   6  -1   8    4.66    1.45
   6  -1   8    3.63    2.64
   6  -1   8    3.44    2.68
   7  -1   8  487.64   37.24
   7  -1   8  396.07   38.00
   7  -1   8  519.96   36.97
   8  -1   8    4.18    2.95
   8  -1   8    8.86    2.71
   8  -1   8   11.44    2.86
  10   0  -8    2.75    2.06
 -10   0   8   -5.47    3.35
 -10   0   8   -2.09    6.21
   9   0  -8   -0.60    1.97
  -9   0   8    3.40    3.55
  -9   0   8    1.59    3.44
   8   0  -8    6.57    1.33
   8   0  -8    7.66    2.16
  -8   0   8    6.46    3.13
  -8   0   8    7.08    3.39
   7   0  -8  341.82   28.33
   7   0  -8  379.28   28.88
  -7   0   8  360.96   29.67
  -7   0   8  385.09   29.74
   6   0  -8   34.59    3.54
   6   0  -8   33.42    4.28
  -6   0   8   33.31    4.72
  -6   0   8   35.59    4.80
  -6   0   8   34.41    3.63
   5   0  -8  116.36    9.56
   5   0  -8  109.25    9.20
  -5   0   8  107.23    9.87
  -5   0   8  117.58    9.39
  -5   0   8  110.42   10.20
  -5   0   8  118.31    9.55
   4   0  -8  115.17    9.62
   4   0  -8  109.00    9.27
  -4   0   8  118.93    9.88
  -4   0   8  112.72   10.26
  -4   0   8  120.51    9.46
  -4   0   8  122.90    9.76
   3   0  -8  143.09   11.34
   3   0  -8  153.88   11.34
  -3   0   8  126.01   11.94
  -3   0   8  146.00   11.86
  -3   0   8  142.12   12.41
  -3   0   8  157.00   11.79
  -2   0   8   -0.17    0.70
  -2   0   8   -0.42    1.24
  -2   0   8    0.04    0.48
  -1   0   8    1.55    0.75
  -1   0   8   -0.28    0.57
  -1   0   8    2.67    1.34
   0   0   8    1.64    0.53
   0   0   8   -1.72    1.11
   0   0   8    1.47    0.56
   0   0   8    1.39    0.63
   0   0   8    1.96    0.58
   1   0   8   23.83    1.87
   1   0   8   22.66    2.40
   1   0   8   19.33    2.18
   1   0   8   22.93    2.00
   2   0   8   53.63    4.75
   2   0   8   62.56    4.62
   2   0   8   47.09    5.01
   2   0   8   57.22    4.45
   3   0   8  171.55   13.25
   3   0   8  150.59   13.79
   3   0   8  172.48   13.02
   3   0   8  167.45   13.30
   4   0   8  134.78    9.89
   4   0   8  111.10   10.83
   4   0   8  123.60   10.12
   4   0   8  120.82   10.30
   5   0   8  189.04   16.01
   5   0   8  165.26   15.22
   5   0   8  213.19   14.92
   5   0   8  172.80   15.06
   5   0   8  190.49   15.11
   6   0   8   45.23    4.24
   6   0   8   38.65    4.39
   6   0   8   37.35    5.63
   7   0   8    7.34    3.09
   7   0   8   10.33    2.26
   7   0   8   10.81    2.48
   9  -1  -8    6.37    2.01
   9  -1  -8    5.20    2.38
  -9   1   8    9.01    3.93
  -9   1   8    6.13    3.78
   8  -1  -8   -0.14    0.82
   8  -1  -8   -0.35    1.76
   8  -1  -8    1.63    1.45
  -8   1   8    0.71    2.76
  -8   1   8   -4.56    2.96
   7  -1  -8  172.47   12.92
   7  -1  -8  150.87   12.42
   7  -1  -8  149.88   13.31
  -7   1   8  162.85   14.05
  -7   1   8  153.26   13.90
   6  -1  -8   67.22    6.78
   6  -1  -8   68.88    6.42
   6  -1  -8   82.86    5.89
  -6   1   8   73.35    7.46
  -6   1   8   69.83    7.66
  -6   1   8   71.30    6.56
   5  -1  -8   78.14    6.68
   5  -1  -8   74.73    6.31
  -5   1   8   72.80    7.37
  -5   1   8   75.60    6.51
  -5   1   8   72.61    6.68
  -5   1   8   72.22    7.08
   4  -1  -8   52.63    4.73
   4  -1  -8   52.72    4.54
  -4   1   8   50.27    5.12
  -4   1   8   48.94    5.63
  -4   1   8   56.56    4.76
  -4   1   8   58.51    5.16
   3  -1  -8  354.03   28.41
   3  -1  -8  355.99   28.43
  -3   1   8  371.59   28.93
  -3   1   8  383.61   28.56
  -3   1   8  339.15   29.37
  -3   1   8  394.45   28.83
  -2   1   8   28.97    3.03
  -2   1   8   32.79    2.73
  -2   1   8   28.67    3.87
  -2   1   8   33.04    3.21
  -1   1   8  249.91   19.88
  -1   1   8  240.35   20.86
  -1   1   8  259.85   20.12
  -1   1   8  290.92   20.05
  -1   1   8  237.89   20.09
   0   1   8    3.48    0.71
   0   1   8    3.34    0.71
   0   1   8    2.99    0.90
   0   1   8    2.71    0.59
   1   1   8   28.85    2.73
   1   1   8   28.19    2.51
   1   1   8   29.09    2.44
   1   1   8   28.76    2.81
   2   1   8   35.13    3.67
   2   1   8   36.97    3.21
   2   1   8   37.29    3.08
   2   1   8   38.86    3.52
   3   1   8   21.30    2.16
   3   1   8   21.10    3.01
   3   1   8   21.24    1.99
   4   1   8   23.26    3.57
   4   1   8   20.66    3.06
   4   1   8   24.98    2.47
   4   1   8   24.17    3.52
   4   1   8   22.19    2.32
   5   1   8   13.13    1.95
   5   1   8   12.17    2.65
   5   1   8    9.73    2.25
   5   1   8   11.32    2.76
   5   1   8   14.94    2.10
   6   1   8   26.50    3.20
   6   1   8   19.92    3.24
   6   1   8   25.61    4.80
   7   1   8    1.36    1.86
   7   1   8    3.81    2.70
   7   1   8    2.38    2.66
   9  -2  -8  119.65    9.86
  -9   2   8  106.22   11.71
  -9   2   8   98.41   11.21
   8  -2  -8    1.68    1.47
   8  -2  -8   -1.57    1.86
   8  -2  -8   -0.59    0.94
  -8   2   8    4.31    3.34
  -8   2   8    3.88    3.24
   7  -2  -8  164.16   12.47
   7  -2  -8  144.20   12.61
  -7   2   8  164.51   13.69
  -7   2   8  134.29   13.50
   6  -2  -8   38.34    3.15
   6  -2  -8   37.04    3.44
   6  -2  -8   37.11    3.83
   6  -2  -8   31.82    4.11
  -6   2   8   27.06    3.99
   5  -2  -8    9.35    1.36
   5  -2  -8    7.59    1.50
   5  -2  -8    7.46    1.89
  -5   2   8    6.85    2.54
  -5   2   8   10.17    2.28
  -5   2   8    9.61    1.72
   4  -2  -8  161.68   12.84
   4  -2  -8  172.58   12.67
   4  -2  -8  146.94   12.79
  -4   2   8  155.25   13.34
  -4   2   8  169.62   13.20
  -4   2   8  156.88   13.84
   3  -2  -8    3.15    0.84
   3  -2  -8    3.75    0.79
   3  -2  -8    4.37    0.84
  -3   2   8    4.27    2.03
  -3   2   8    5.19    1.32
  -3   2   8    4.66    0.91
  -3   2   8    2.86    1.44
   2  -2  -8   31.50    2.30
   2  -2  -8   22.74    2.69
  -2   2   8   23.62    2.44
  -2   2   8   31.22    3.95
  -2   2   8   32.17    3.13
  -2   2   8   27.31    2.34
  -2   2   8   29.85    2.88
  -1   2   8   46.65    4.04
  -1   2   8   39.64    3.77
   0   2   8   43.36    4.03
   0   2   8   46.95    4.35
   0   2   8   52.84    4.19
  -1  -2  -8    1.37    1.26
   1   2   8    2.81    0.59
   1   2   8    3.38    0.87
   1   2   8    3.22    1.40
   2   2   8   14.84    1.46
   2   2   8   13.65    2.08
   2   2   8   12.96    2.09
   3   2   8 1184.65   87.12
   3   2   8 1086.83   86.39
   3   2   8 1085.01   86.36
   3   2   8 1118.82   86.75
   4   2   8    0.82    2.14
   4   2   8    0.67    0.72
   4   2   8    1.29    0.66
   4   2   8   -1.81    1.66
   5   2   8   98.65    8.14
   5   2   8   94.62    9.35
   5   2   8  100.84    8.12
   5   2   8   92.84    9.18
   6   2   8    7.59    2.74
   6   2   8    7.44    1.64
   6   2   8    6.72    1.74
   7   2   8   28.17    5.40
   7   2   8   42.75    4.24
   7   2   8   31.25    3.93
   9  -3  -8  152.00   12.02
   9  -3  -8  133.91   12.11
  -9   3   8  129.13   13.20
  -9   3   8  137.79   13.83
   8  -3  -8   17.36    3.01
   8  -3  -8   12.79    2.82
   8  -3  -8   12.50    2.40
  -8   3   8   21.05    4.44
  -8   3   8   21.57    4.33
   7  -3  -8  403.28   28.20
   7  -3  -8  350.82   28.36
  -7   3   8  340.02   29.26
  -7   3   8  353.75   29.30
  -7   3   8  331.43   28.91
   6  -3  -8    6.04    1.72
   6  -3  -8    3.05    1.93
   6  -3  -8    6.65    1.19
   6  -3  -8    6.80    1.11
  -6   3   8    4.49    1.85
  -6   3   8    3.76    2.54
  -6   3   8    8.00    2.64
   5  -3  -8   60.44    5.38
   5  -3  -8   64.00    5.52
  -5   3   8   55.47    5.57
  -5   3   8   56.77    6.61
  -5   3   8   59.82    6.26
   4  -3  -8  290.83   19.99
   4  -3  -8  238.10   20.00
   4  -3  -8  255.83   19.99
  -4   3   8  255.99   20.58
  -4   3   8  231.60   19.97
  -4   3   8  258.85   20.33
  -4   3   8  242.46   21.07
   3  -3  -8   52.18    4.33
   3  -3  -8   48.91    4.15
  -3   3   8   45.79    5.51
  -3   3   8   40.53    3.96
  -3   3   8   46.81    4.66
  -3   3   8   52.85    4.76
   2  -3  -8   76.39    6.09
   2  -3  -8   65.77    6.48
   2  -3  -8   76.08    6.02
  -2   3   8   79.28    6.65
  -2   3   8   80.32    6.55
   1  -3  -8    7.22    1.64
  -1   3   8   11.91    1.44
  -1   3   8   12.23    1.98
  -1   3   8   11.25    1.62
   0   3   8  107.25    9.00
   0   3   8  115.80    9.29
   1   3   8  489.07   37.25
   1   3   8  494.72   37.29
   1   3   8  444.14   36.96
   2   3   8   74.48    6.44
   2   3   8   82.71    7.18
   2   3   8   81.28    6.96
   3   3   8    2.85    0.78
   3   3   8    1.47    2.12
   3   3   8    2.31    1.35
   4   3   8   10.55    2.35
   4   3   8   11.20    1.70
   4   3   8    7.69    1.22
   4   3   8    7.57    2.54
   5   3   8   86.93    7.56
   5   3   8   86.45    7.30
   5   3   8   93.96    8.76
   6   3   8    2.09    1.73
   6   3   8   -0.65    1.02
   6   3   8   -3.24    2.05
   7   3   8   64.34    7.20
   7   3   8   66.22    6.42
   9  -4  -8    9.34    2.50
   9  -4  -8   11.71    2.49
  -9   4   8   11.03    4.38
  -9   4   8   11.47    5.09
   8  -4  -8   21.35    3.63
   8  -4  -8   18.58    3.26
  -8   4   8   25.97    4.82
  -8   4   8   24.02    5.06
   7  -4  -8  123.51    9.55
  -7   4   8   97.67   10.97
  -7   4   8  112.05   11.20
   6  -4  -8   87.45    6.66
   6  -4  -8   68.67    7.49
   6  -4  -8   79.25    7.29
  -6   4   8   71.92    8.17
  -6   4   8   75.16    8.31
   5  -4  -8    0.79    0.58
   5  -4  -8   -0.11    1.36
   5  -4  -8    0.30    0.88
   5  -4  -8    2.39    1.37
  -5   4   8    0.37    1.39
  -5   4   8    3.18    2.18
  -5   4   8    1.71    2.29
   4  -4  -8   41.11    3.98
   4  -4  -8   44.87    3.99
   4  -4  -8   36.41    3.98
  -4   4   8   40.40    4.85
   3  -4  -8    5.57    1.26
   3  -4  -8    7.98    1.59
   3  -4  -8    8.53    1.30
  -3   4   8   10.23    2.16
  -3   4   8    8.09    1.75
   2  -4  -8   -0.43    0.70
   2  -4  -8    0.46    0.76
   2  -4  -8    0.38    1.25
  -2   4   8    2.56    1.45
  -2   4   8    0.18    1.09
  -2   4   8    0.40    0.62
   1  -4  -8   30.62    2.53
   1  -4  -8   26.49    2.51
   1  -4  -8   24.12    3.46
  -1   4   8   29.09    3.00
  -1   4   8   29.76    3.53
  -1   4   8   26.57    2.81
   0  -4  -8    0.94    1.56
   0   4   8    2.84    1.69
   0   4   8    3.66    1.02
   0   4   8    3.43    0.99
  -1  -4  -8   14.63    3.14
   1   4   8   21.61    2.53
   1   4   8   25.71    3.71
   1   4   8   21.05    2.26
   2   4   8   56.39    5.09
   2   4   8   52.90    5.94
   2   4   8   66.22    5.58
   3   4   8    7.86    1.45
   3   4   8   10.52    2.57
   3   4   8   13.76    2.65
   4   4   8    2.04    1.21
   4   4   8    1.49    1.76
   5   4   8   13.35    2.98
   6   4   8   89.99    9.39
   6   4   8  110.64    8.95
   8  -5  -8   66.71    7.38
   8  -5  -8   80.56    6.69
  -8   5   8   59.02    8.06
  -8   5   8   69.47    9.80
   7  -5  -8   18.80    3.42
   7  -5  -8   21.94    2.81
  -7   5   8   14.54    4.30
  -7   5   8   16.95    3.96
   6  -5  -8   13.25    2.65
   6  -5  -8   14.58    1.86
  -6   5   8   13.90    3.62
  -6   5   8   11.07    3.54
   5  -5  -8   58.40    4.91
   5  -5  -8   55.98    5.78
   5  -5  -8   65.30    5.38
  -5   5   8   58.05    6.77
  -5   5   8   54.41    7.17
   4  -5  -8    0.22    1.05
   4  -5  -8    0.37    1.05
   4  -5  -8    2.55    1.56
  -4   5   8    2.00    2.85
  -4   5   8    3.67    2.06
   3  -5  -8   61.53    4.88
   3  -5  -8   52.31    5.22
   3  -5  -8   54.61    5.05
  -3   5   8   53.92    5.76
   2  -5  -8   26.40    3.69
   2  -5  -8   33.63    3.00
   2  -5  -8   31.28    3.10
  -2   5   8   32.72    3.78
   1  -5  -8   82.35    8.12
   1  -5  -8   97.48    7.59
   1  -5  -8   89.30    7.52
  -1   5   8   95.79    8.02
  -1   5   8   96.57    9.36
  -1   5   8   95.67    7.92
   0  -5  -8    6.69    0.97
   0  -5  -8    5.27    0.91
   0  -5  -8    4.69    1.72
   0   5   8    7.31    1.48
   0   5   8    6.19    1.53
   0   5   8    9.57    2.16
   1   5   8  131.34   11.67
   1   5   8  153.81   11.95
   1   5   8  144.90   12.41
   2   5   8  106.53    9.48
   2   5   8  123.07    9.92
   3   5   8    2.31    1.32
   3   5   8    5.19    1.78
   4   5   8    9.51    2.42
   4   5   8    7.40    2.00
   5   5   8   26.55    4.63
   5   5   8   31.65    4.22
   7  -6  -8   95.36    9.08
  -7   6   8   85.62   10.96
  -7   6   8   98.13    9.82
   6  -6  -8    3.56    2.42
  -6   6   8   -0.96    3.55
  -6   6   8    4.89    3.23
   5  -6  -8   35.71    3.14
   5  -6  -8   31.27    4.59
  -5   6   8   31.82    5.41
  -5   6   8   45.21    5.92
   4  -6  -8   73.22    6.54
   4  -6  -8   72.60    6.77
  -4   6   8   71.02    7.59
   3  -6  -8    2.99    1.13
   3  -6  -8    1.96    1.50
   3  -6  -8    4.09    1.58
  -3   6   8    3.19    2.35
   2  -6  -8   35.15    3.59
   2  -6  -8   31.52    3.10
   2  -6  -8   30.86    3.91
  -2   6   8   34.70    4.29
   1  -6  -8   37.08    3.43
   1  -6  -8   34.31    3.27
  -1   6   8   33.39    3.82
   0  -6  -8   93.68    8.00
   0   6   8   96.46    9.70
   0   6   8  107.61    9.09
  -1  -6  -8   26.74    2.73
   1   6   8   36.77    3.84
   2   6   8    2.31    1.52
   2   6   8   -0.01    1.56
   3   6   8   91.09    8.51
   3   6   8  103.12    9.01
   4   6   8   -0.74    1.97
   4   6   8    2.64    1.95
   5   6   8   27.26    4.54
   5   6   8   34.38    4.78
   6  -7  -8    0.78    2.82
  -6   7   8   -2.57    4.15
  -6   7   8    2.59    3.01
   5  -7  -8   35.47    5.18
  -5   7   8   33.45    5.14
  -5   7   8   28.38    5.44
   4  -7  -8    1.62    2.11
  -4   7   8    1.05    2.96
   3  -7  -8    3.57    3.32
  -3   7   8   -1.19    2.38
   2  -7  -8   11.89    2.27
  -2   7   8   11.30    2.85
   1  -7  -8   81.11    6.93
  -1   7   8   76.33    7.33
  -1   7   8   80.36    7.68
   0  -7  -8   71.45    6.59
   0   7   8   77.25    7.36
   0   7   8   91.12    7.62
   1   7   8   18.69    3.25
   1   7   8   17.41    2.96
   2   7   8   -0.91    1.97
   2   7   8    1.63    1.73
   3   7   8   16.30    3.06
   3   7   8   18.32    3.54
   4   7   8   16.54    2.71
   4   7   8   12.32    2.72
  -5   8   8    5.94    4.00
  -5   8   8    3.10    3.03
   4  -8  -8    8.74    3.06
  -4   8   8    5.32    2.97
   3  -8  -8   55.15    6.79
  -3   8   8   67.91    7.35
   2  -8  -8   35.28    4.89
  -2   8   8   34.67    5.36
   1  -8  -8   25.62    3.66
  -1   8   8   18.07    3.38
  -1   8   8   23.08    3.65
   0  -8  -8   28.66    3.79
   0   8   8   24.96    3.84
   0   8   8   24.26    4.13
   1   8   8   35.27    4.81
   1   8   8   30.83    4.95
   2   8   8    5.45    2.61
   2   8   8    5.12    2.24
   2  -9  -8    0.56    2.52
  -2   9   8   -2.87    2.45
  -1   9   8   80.49    7.99
  -2 -11   9   17.37    3.53
   0 -11   9    4.27    3.05
   4  10  -9   29.99    4.80
  -4 -10   9   31.12    4.57
  -4 -10   9   31.01    4.69
  -3 -10   9   -0.09    2.95
  -3 -10   9    0.70    2.70
  -2 -10   9   -1.74    2.84
  -2 -10   9    3.45    2.79
  -1 -10   9   47.53    5.66
  -1 -10   9   36.46    6.22
   1 -10   9   27.31    4.22
   1 -10   9   22.15    4.20
   2 -10   9   77.30    8.15
   3 -10   9    7.26    3.13
   3 -10   9    0.62    2.85
   6   9  -9    6.82    2.33
  -6  -9   9   -1.06    3.24
  -6  -9   9    9.11    2.79
   5   9  -9   99.76    8.95
  -5  -9   9   98.41   10.26
  -5  -9   9  102.31    9.68
   4   9  -9    2.04    1.84
  -4  -9   9    2.04    2.62
  -4  -9   9    3.82    3.13
   3   9  -9   40.75    4.41
  -3  -9   9   52.33    5.79
  -3  -9   9   48.47    6.16
   2   9  -9    2.15    1.10
  -2  -9   9    3.60    2.51
  -2  -9   9    6.15    2.30
  -1  -9   9   15.27    3.38
  -1  -9   9   16.85    3.36
   0  -9   9   26.35    3.94
   0  -9   9   31.33    4.78
   1  -9   9   23.39    3.95
   1  -9   9   31.64    3.37
   2  -9   9   -3.17    2.36
   2  -9   9    1.16    2.67
   3  -9   9   17.12    3.25
   3  -9   9   10.61    3.18
   4  -9   9   -2.31    2.31
   4  -9   9    0.58    2.37
   7   8  -9   57.16    6.03
  -7  -8   9   54.15    7.44
  -7  -8   9   59.96    8.44
   6   8  -9   19.37    2.91
  -6  -8   9   11.44    3.12
  -6  -8   9   11.95    3.78
  -5  -8   9   33.27    5.29
  -5  -8   9   39.47    6.15
   4   8  -9   67.31    6.21
  -4  -8   9   71.48    7.71
  -4  -8   9   69.80    7.71
   3   8  -9  134.13   11.81
  -3  -8   9  169.44   13.09
  -3  -8   9  145.73   12.91
   2   8  -9   12.03    1.73
  -2  -8   9   14.07    2.61
  -2  -8   9   12.54    1.99
  -1  -8   9   59.91    5.60
  -1  -8   9   58.98    6.06
  -1  -8   9   60.20    6.05
   0   8  -9    2.55    2.32
   0  -8   9    0.01    1.32
   0  -8   9   -1.81    1.69
   1  -8   9   14.38    2.05
   2  -8   9   13.05    3.46
   2  -8   9   20.56    2.91
   3  -8   9   46.85    5.15
   3  -8   9   40.05    6.00
   4  -8   9    1.55    2.73
   5  -8   9   26.89    4.40
   5  -8   9   23.54    3.33
   7   7  -9   -0.03    2.10
  -7  -7   9   -1.36    2.39
  -7  -7   9   -0.54    3.38
   6   7  -9  113.97    9.41
  -6  -7   9  116.16   11.13
  -6  -7   9  100.57   10.40
   5   7  -9    2.68    1.45
  -5  -7   9    0.01    2.71
  -5  -7   9    2.64    2.64
   4   7  -9   10.41    1.70
   4   7  -9   11.14    2.44
  -4  -7   9   14.40    2.98
  -4  -7   9   13.91    2.94
  -4  -7   9   11.03    1.82
   3   7  -9   12.95    1.69
  -3  -7   9   15.24    2.75
  -3  -7   9   17.02    3.00
  -3  -7   9   11.32    1.88
   2   7  -9    0.54    0.84
  -2  -7   9   -0.48    1.55
  -2  -7   9   -2.09    1.76
  -2  -7   9   -0.13    1.15
   1   7  -9   17.19    3.36
  -1  -7   9   19.48    3.06
  -1  -7   9   20.86    2.80
  -1  -7   9   20.27    2.45
  -1  -7   9   22.01    3.26
   0   7  -9    0.29    2.25
   0  -7   9    0.14    0.98
   0  -7   9    0.41    1.23
   0  -7   9    1.33    1.28
   0  -7   9    0.46    1.28
  -1   7  -9  381.93   33.85
   1  -7   9  455.95   33.48
   1  -7   9  398.89   33.81
   1  -7   9  478.32   33.69
   2  -7   9  316.09   25.01
   2  -7   9  297.93   24.73
   2  -7   9  332.38   24.72
   3  -7   9  150.32   15.42
   3  -7   9  199.42   14.79
   3  -7   9  190.26   14.56
   4  -7   9   27.98    3.49
   4  -7   9   19.95    3.92
   5  -7   9   32.59    4.01
   5  -7   9   30.24    5.01
   6  -7   9   32.61    5.00
   6  -7   9   28.46    5.12
   8   6  -9   78.07    7.24
  -8  -6   9   67.18    7.69
  -8  -6   9   75.53    8.36
   7   6  -9  140.52   11.96
  -7  -6   9  146.23   13.47
  -7  -6   9  145.03   13.01
   6   6  -9    0.34    1.40
  -6  -6   9   -2.43    2.31
  -6  -6   9    2.22    3.03
   5   6  -9  137.14   10.63
   5   6  -9  118.82   11.16
  -5  -6   9  140.40   11.77
  -5  -6   9  126.10   11.79
   4   6  -9   54.49    4.57
   4   6  -9   49.87    5.28
  -4  -6   9   52.66    5.84
  -4  -6   9   50.45    5.97
   3   6  -9   56.41    5.11
   3   6  -9   59.49    4.67
  -3  -6   9   54.27    5.73
  -3  -6   9   50.62    5.43
  -3  -6   9   62.28    5.91
  -3  -6   9   55.06    5.11
   2   6  -9   56.80    7.10
  -2  -6   9   75.53    6.73
  -2  -6   9   72.36    6.34
  -2  -6   9   66.99    5.92
   1   6  -9  536.32   48.26
  -1  -6   9  596.12   47.63
  -1  -6   9  696.78   47.81
  -1  -6   9  602.19   47.93
  -1  -6   9  632.01   48.17
   0   6  -9   89.75    8.86
   0  -6   9   94.55    8.01
   0  -6   9   97.66    7.93
   0  -6   9   85.77    8.03
   0  -6   9   96.78    7.65
   1  -6   9   78.68    6.32
   1  -6   9   73.58    6.08
   1  -6   9   65.41    6.25
   2  -6   9  120.55   10.02
   2  -6   9  122.35    9.93
   2  -6   9  124.36    9.91
   3  -6   9   74.29    5.94
   3  -6   9   69.17    5.88
   3  -6   9   56.88    6.92
   4  -6   9    2.79    2.72
   4  -6   9    2.77    2.25
   4  -6   9    4.12    1.36
   5  -6   9    0.97    1.38
   5  -6   9   -2.53    2.28
   6  -6   9   -4.66    2.49
   6  -6   9    0.62    1.80
   8   5  -9   39.91    4.48
  -8  -5   9   27.62    4.62
  -8  -5   9   34.60    5.24
   7   5  -9   27.19    3.37
  -7  -5   9   21.83    3.94
   6   5  -9   23.83    3.29
   6   5  -9   17.80    2.72
  -6  -5   9   19.31    3.63
  -6  -5   9   22.60    4.25
   5   5  -9   66.93    6.73
   5   5  -9   73.64    5.96
  -5  -5   9   60.05    7.61
  -5  -5   9   77.82    7.32
   4   5  -9    0.88    0.68
   4   5  -9   -0.22    1.81
  -4  -5   9    0.85    1.79
  -4  -5   9    0.80    3.08
  -4  -5   9    1.26    1.34
  -4  -5   9   -0.13    0.75
   3   5  -9   37.81    3.26
   3   5  -9   36.39    3.59
  -3  -5   9   39.98    3.48
  -3  -5   9   39.51    3.83
  -3  -5   9   38.77    4.26
  -3  -5   9   42.75    4.80
   2   5  -9   34.02    4.72
  -2  -5   9   42.25    3.45
  -2  -5   9   34.86    3.63
  -2  -5   9   34.77    4.24
  -2  -5   9   38.55    3.90
   1   5  -9   76.80    7.84
  -1  -5   9   67.16    6.66
  -1  -5   9   81.90    7.16
  -1  -5   9   83.94    6.62
  -1  -5   9   80.41    6.49
   0  -5   9   34.00    3.24
   0  -5   9   29.32    3.42
   0  -5   9   34.03    3.62
   0  -5   9   35.12    3.02
   1  -5   9   -0.80    0.72
   1  -5   9    0.25    0.71
   1  -5   9   -0.34    0.94
   2  -5   9   -0.10    0.91
   2  -5   9    0.15    1.49
   2  -5   9   -0.89    0.72
   2  -5   9    0.84    0.83
   3  -5   9   66.74    5.45
   3  -5   9   54.94    5.11
   3  -5   9   65.54    5.25
   4  -5   9   21.04    3.79
   4  -5   9   20.08    3.11
   4  -5   9   24.15    2.51
   5  -5   9   57.01    5.03
   5  -5   9   50.39    6.51
   6  -5   9   33.61    7.19
   6  -5   9   57.92    4.95
   6  -5   9   46.85    6.35
   7  -5   9   21.18    4.35
   7  -5   9   26.59    4.72
   9   4  -9   72.33    6.94
  -9  -4   9   60.83    8.49
  -9  -4   9   72.09    7.68
   8   4  -9   16.96    2.71
  -8  -4   9   12.91    3.58
  -8  -4   9   18.48    4.32
   7   4  -9    2.19    1.44
  -7  -4   9   -2.08    3.00
  -7  -4   9    0.58    2.74
   6   4  -9    6.57    1.35
   6   4  -9    2.68    2.15
  -6  -4   9    5.46    2.57
  -6  -4   9    7.29    2.56
   5   4  -9   91.02    7.17
   5   4  -9   80.72    7.90
  -5  -4   9   83.72    8.50
  -5  -4   9   93.18    8.46
   4   4  -9   67.10    5.14
   4   4  -9   60.47    5.67
  -4  -4   9   67.28    5.62
  -4  -4   9   55.91    5.54
  -4  -4   9   61.76    6.15
  -4  -4   9   57.51    6.51
   3   4  -9  464.24   39.93
   3   4  -9  476.03   38.90
   3   4  -9  468.81   38.90
  -3  -4   9  528.33   39.94
  -3  -4   9  492.02   39.22
  -3  -4   9  541.68   39.33
  -3  -4   9  556.77   39.68
   2   4  -9    4.51    2.30
  -2  -4   9   -0.04    0.49
  -2  -4   9   -0.16    1.31
  -2  -4   9    0.85    0.90
  -2  -4   9   -0.36    0.95
  -1  -4   9  815.57   64.80
  -1  -4   9  822.39   65.22
  -1  -4   9  819.98   64.61
  -1  -4   9  882.11   64.59
   0  -4   9  163.75   14.22
   0  -4   9  185.47   13.60
   0  -4   9  169.81   13.78
   1  -4   9  142.45   11.11
   1  -4   9  141.86   10.95
   1  -4   9  133.46   11.49
   2  -4   9    4.34    1.60
   2  -4   9    6.95    1.35
   2  -4   9    9.13    1.39
   3  -4   9   28.86    3.10
   3  -4   9   28.23    3.68
   3  -4   9   27.10    2.86
   3  -4   9   31.45    2.69
   4  -4   9    4.96    0.95
   4  -4   9    2.88    0.72
   4  -4   9    3.59    2.20
   4  -4   9    3.80    0.64
   4  -4   9   -0.20    1.41
   5  -4   9   23.07    2.59
   5  -4   9   20.94    3.50
   6  -4   9    7.77    1.72
   6  -4   9    9.88    3.00
   6  -4   9    7.82    3.54
   7  -4   9   12.36    2.97
   7  -4   9    9.72    3.67
   9   3  -9  110.05    9.27
  -9  -3   9  103.06   10.47
  -9  -3   9   91.46   10.33
   8   3  -9   32.16    4.30
  -8  -3   9   44.75    6.77
  -8  -3   9   38.16    6.00
   7   3  -9   18.53    2.72
  -7  -3   9   13.89    3.60
  -7  -3   9   14.49    3.45
   6   3  -9  109.14   10.00
   6   3  -9  124.63    9.46
  -6  -3   9  108.73   12.61
  -6  -3   9  112.96   10.64
   5   3  -9  445.84   36.08
   5   3  -9  475.04   35.76
  -5  -3   9  458.56   36.61
   4   3  -9  167.38   13.67
   4   3  -9  186.49   13.47
  -4  -3   9  178.37   13.82
  -4  -3   9  158.74   13.84
  -4  -3   9  175.28   14.30
  -4  -3   9  160.22   14.47
  -3  -3   9  127.11   10.03
  -3  -3   9  130.14   10.36
  -3  -3   9  112.91   10.00
  -3  -3   9  121.93   10.71
  -2  -3   9  732.52   57.64
  -2  -3   9  725.66   56.92
  -2  -3   9  746.98   57.21
  -1  -3   9  388.91   35.13
  -1  -3   9  494.96   35.40
  -1  -3   9  471.86   35.16
  -1  -3   9  461.31   35.91
   0  -3   9   19.10    1.60
   0  -3   9   12.90    1.98
   0  -3   9   19.50    2.66
   1  -3   9   72.94    7.51
   1  -3   9   94.82    7.67
   1  -3   9   93.45    6.97
   2  -3   9   31.96    3.50
   2  -3   9   32.48    3.32
   2  -3   9   25.95    3.44
   3  -3   9   28.19    3.52
   3  -3   9   21.93    3.79
   3  -3   9   28.84    3.01
   3  -3   9   30.74    2.90
   4  -3   9   81.73    8.93
   4  -3   9   93.05    7.65
   4  -3   9  104.02    8.56
   5  -3   9   57.01    5.08
   5  -3   9   59.70    6.14
   6  -3   9    0.45    1.35
   6  -3   9    2.74    2.29
   6  -3   9    0.56    3.11
   7  -3   9  285.86   27.09
   7  -3   9  358.63   26.47
   9   2  -9   56.63    5.79
  -9  -2   9   53.10    7.07
  -9  -2   9   41.27    7.11
   8   2  -9    9.69    2.27
  -8  -2   9   14.24    3.68
  -8  -2   9   10.77    3.70
   7   2  -9  198.11   16.25
  -7  -2   9  207.32   17.44
  -7  -2   9  203.49   17.50
   6   2  -9   21.37    2.48
   6   2  -9   22.59    3.15
  -6  -2   9   20.53    4.00
  -6  -2   9   18.24    3.53
   5   2  -9  929.26   72.25
   5   2  -9  965.25   72.03
  -5  -2   9  881.06   72.98
  -5  -2   9  893.94   72.36
  -5  -2   9  955.50   72.29
  -5  -2   9  961.55   72.86
   4   2  -9  113.26    8.46
   4   2  -9   99.76    8.62
  -4  -2   9  108.48    8.99
  -4  -2   9  112.11    9.31
  -4  -2   9  107.99    8.83
  -4  -2   9   97.33    9.59
  -3  -2   9 1394.91  114.31
  -3  -2   9 1505.83  113.97
  -3  -2   9 1483.58  113.64
  -3  -2   9 1497.67  113.69
  -2  -2   9  167.57   13.46
  -2  -2   9  157.85   13.96
  -2  -2   9  173.51   13.28
  -1  -2   9 1523.72  120.13
  -1  -2   9 1619.75  120.31
  -1  -2   9 1529.14  120.91
   0  -2   9    3.90    1.41
   0  -2   9    4.25    0.94
   0  -2   9    5.56    0.70
   0  -2   9    4.33    0.95
   1  -2   9  273.17   19.30
   1  -2   9  211.99   18.88
   1  -2   9  229.24   18.95
   2  -2   9   14.34    2.31
   2  -2   9   12.47    2.01
   2  -2   9    8.69    1.79
   3  -2   9  309.85   27.89
   3  -2   9  390.65   26.98
   3  -2   9  368.54   27.66
   3  -2   9  333.14   27.52
   3  -2   9  332.69   27.02
   4  -2   9   76.98    5.65
   4  -2   9   64.02    5.92
   4  -2   9   61.31    5.97
   4  -2   9   57.41    6.95
   4  -2   9   75.20    6.43
   5  -2   9  460.23   34.81
   5  -2   9  435.00   34.15
   5  -2   9  416.22   35.40
   6  -2   9    8.99    1.58
   6  -2   9    8.88    3.23
   6  -2   9    6.56    2.34
   7  -2   9  278.26   20.95
   7  -2   9  224.79   21.70
   9   1  -9   19.62    3.04
  -9  -1   9    7.27    3.75
  -9  -1   9   14.30    4.17
   8   1  -9    4.40    1.99
  -8  -1   9    6.37    3.58
  -8  -1   9   11.18    3.60
   7   1  -9    4.14    1.54
  -7  -1   9    2.27    2.63
  -7  -1   9   -1.61    2.86
   6   1  -9  108.57    9.15
   6   1  -9  112.04    8.72
  -6  -1   9  106.68    9.97
  -6  -1   9  104.54    9.86
  -6  -1   9   96.49    8.91
   5   1  -9   31.60    3.65
   5   1  -9   32.08    2.89
  -5  -1   9   27.01    4.44
  -5  -1   9   28.21    4.20
  -5  -1   9   30.40    3.61
  -5  -1   9   30.17    3.31
   4   1  -9  197.07   16.45
   4   1  -9  222.93   16.38
  -4  -1   9  215.32   17.13
  -4  -1   9  195.10   17.45
  -4  -1   9  214.35   16.87
  -4  -1   9  211.93   16.66
  -3  -1   9    2.50    1.28
  -3  -1   9    3.53    1.91
  -3  -1   9    3.74    0.93
  -3  -1   9    1.53    1.09
  -2  -1   9    7.89    1.36
  -2  -1   9   10.80    1.57
  -2  -1   9    9.66    1.46
  -2  -1   9    8.04    2.13
  -1  -1   9  302.03   21.40
  -1  -1   9  247.01   22.13
  -1  -1   9  267.96   21.44
   0  -1   9   20.54    1.94
   0  -1   9   19.79    3.03
   0  -1   9   18.79    2.04
   1  -1   9  269.17   20.61
   1  -1   9  252.57   20.15
   1  -1   9  239.04   20.04
   2  -1   9   15.38    2.50
   2  -1   9   11.70    2.20
   2  -1   9   16.64    1.31
   2  -1   9   12.53    1.94
   3  -1   9  137.01    9.54
   3  -1   9  131.77   10.06
   3  -1   9  111.24    9.62
   3  -1   9  113.66   10.26
   3  -1   9  103.57   10.38
   4  -1   9   44.83    4.30
   4  -1   9   43.66    3.69
   4  -1   9   37.85    5.18
   4  -1   9   42.41    4.49
   4  -1   9   39.37    4.40
   5  -1   9   31.72    4.95
   5  -1   9   29.34    5.34
   5  -1   9   37.71    3.33
   5  -1   9   39.26    4.16
   5  -1   9   29.79    3.80
   6  -1   9    0.29    2.82
   6  -1   9    2.46    1.97
   6  -1   9    3.09    1.26
   7  -1   9    2.39    2.40
   9   0  -9    1.41    2.23
  -9   0   9    1.12    3.38
  -9   0   9    2.09    3.62
   8   0  -9   -0.72    1.90
  -8   0   9    3.28    3.31
  -8   0   9    6.49    3.53
   7   0  -9    6.18    1.70
  -7   0   9    6.35    3.12
  -7   0   9    4.30    2.83
   6   0  -9  226.24   17.80
   6   0  -9  231.56   18.08
  -6   0   9  221.71   18.90
  -6   0   9  218.44   19.52
  -6   0   9  220.52   17.96
   5   0  -9   31.28    3.27
   5   0  -9   34.57    3.85
  -5   0   9   37.76    3.72
  -5   0   9   36.85    4.95
  -5   0   9   40.59    4.64
  -5   0   9   37.02    4.00
   4   0  -9   11.23    1.67
   4   0  -9   11.15    1.33
  -4   0   9   12.87    2.09
  -4   0   9   11.50    2.14
  -4   0   9   10.48    1.86
  -4   0   9    8.27    2.39
  -3   0   9   25.18    2.98
  -3   0   9   25.52    3.24
  -3   0   9   27.68    2.65
  -3   0   9   26.99    3.87
  -2   0   9  649.27   56.12
  -2   0   9  787.25   55.46
  -2   0   9  701.07   55.24
  -2   0   9  716.23   55.52
  -1   0   9   19.71    2.30
  -1   0   9   19.68    1.90
  -1   0   9   14.33    2.75
  -1   0   9   18.09    2.09
  -1   0   9   21.80    1.84
   0   0   9   35.20    3.29
   0   0   9   40.05    4.59
   0   0   9   41.08    3.43
   0   0   9   38.74    3.38
   1   0   9   35.26    2.85
   1   0   9   26.25    3.87
   1   0   9   34.15    2.70
   1   0   9   30.93    3.16
   1   0   9   30.09    2.97
   2   0   9  126.05    9.90
   2   0   9  134.30    9.74
   2   0   9  123.28    9.55
   2   0   9  103.25   10.16
   3   0   9    2.08    0.81
   3   0   9    2.79    1.41
   3   0   9    3.42    0.65
   3   0   9    2.37    1.47
   4   0   9    0.40    1.60
   4   0   9    1.05    0.88
   4   0   9   -0.19    0.63
   4   0   9   -1.89    1.83
   5   0   9  283.94   26.50
   5   0   9  340.22   25.43
   5   0   9  348.61   26.21
   5   0   9  322.67   25.70
   6   0   9    5.91    3.15
   6   0   9    7.80    1.50
   6   0   9    5.07    2.02
   7   0   9   84.37    9.52
   7   0   9  101.94    8.71
   9  -1  -9   47.96    5.56
  -9   1   9   44.41    6.54
  -9   1   9   35.10    6.14
   8  -1  -9    0.82    2.03
  -8   1   9   -3.38    3.21
  -8   1   9    2.61    3.46
  -7   1   9  300.15   25.70
  -7   1   9  318.23   25.65
   6  -1  -9   46.71    4.90
   6  -1  -9   48.60    4.66
  -6   1   9   49.79    6.62
  -6   1   9   48.74    6.40
  -6   1   9   51.99    4.90
   5  -1  -9  286.84   23.30
   5  -1  -9  293.12   23.19
  -5   1   9  300.46   23.38
  -5   1   9  303.15   24.00
   4  -1  -9    0.36    0.83
   4  -1  -9    0.38    0.61
  -4   1   9   -0.36    0.99
  -4   1   9   -1.15    1.92
  -4   1   9   -0.71    1.26
  -4   1   9    2.69    1.53
   3  -1  -9  137.22   10.68
  -3   1   9  141.40   10.98
  -3   1   9  130.12   11.34
  -3   1   9  143.73   11.34
  -3   1   9  133.70   12.10
  -2   1   9   29.44    3.17
  -2   1   9   30.23    4.45
  -2   1   9   33.88    2.81
  -2   1   9   30.57    3.40
  -1   1   9   24.78    3.85
  -1   1   9   27.05    3.05
  -1   1   9   26.17    2.74
  -1   1   9   31.88    2.60
  -1   1   9   29.62    2.46
   0   1   9  117.95    9.75
   0   1   9  120.33    9.47
   0   1   9  132.65    9.81
   0   1   9  122.83    9.76
   0   1   9  112.61    9.64
   1   1   9   56.24    4.71
   1   1   9   49.70    4.56
   1   1   9   51.32    4.28
   1   1   9   51.74    4.31
   2   1   9    2.95    1.09
   2   1   9    2.32    1.31
   2   1   9    3.37    0.57
   2   1   9    1.61    0.58
   3   1   9  139.81   11.61
   3   1   9  135.55   11.21
   3   1   9  148.44   12.02
   3   1   9  138.54   11.06
   4   1   9  202.14   15.81
   4   1   9  198.70   15.95
   4   1   9  195.94   16.29
   4   1   9  205.49   16.88
   5   1   9  246.51   20.46
   5   1   9  248.06   19.13
   5   1   9  234.42   20.49
   5   1   9  237.59   19.27
   6   1   9   22.70    4.44
   6   1   9   24.69    2.84
   6   1   9   18.26    3.09
   7   1   9   36.92    5.55
   7   1   9   27.33    3.91
   9  -2  -9   60.45    6.21
  -9   2   9   47.58    6.77
  -9   2   9   49.04    8.00
   8  -2  -9   -0.16    2.16
  -8   2   9   -0.31    3.47
  -8   2   9    6.62    3.70
   7  -2  -9    1.70    1.71
   7  -2  -9    3.16    1.16
  -7   2   9    0.87    3.29
  -7   2   9    2.63    2.93
   6  -2  -9    1.08    1.30
   6  -2  -9   -0.85    0.48
   6  -2  -9    1.18    1.52
  -6   2   9   -2.12    2.32
  -6   2   9   -0.18    1.44
  -6   2   9   -2.59    2.44
   5  -2  -9  551.40   42.78
   5  -2  -9  555.99   42.80
   5  -2  -9  505.41   42.45
  -5   2   9  576.63   42.93
  -5   2   9  576.62   43.58
  -5   2   9  533.79   43.89
   4  -2  -9    7.60    1.38
   4  -2  -9    3.85    0.82
   4  -2  -9    4.88    0.99
  -4   2   9    5.02    1.74
  -4   2   9    5.26    2.52
  -4   2   9    6.09    1.76
   3  -2  -9  580.92   45.40
   3  -2  -9  548.91   45.43
  -3   2   9  592.75   46.06
  -3   2   9  603.98   45.54
  -3   2   9  637.08   45.96
  -3   2   9  564.34   46.71
   2  -2  -9    1.57    0.95
  -2   2   9    1.99    0.57
  -2   2   9    2.23    1.05
  -2   2   9    3.36    1.40
  -2   2   9    1.74    2.00
  -1   2   9  389.33   28.75
  -1   2   9  379.26   28.87
  -1   2   9  335.34   28.80
   0   2   9    0.62    1.22
   0   2   9    2.12    0.65
   0   2   9    0.84    0.65
   1   2   9  586.45   43.17
   1   2   9  518.68   42.82
   2   2   9   19.11    1.79
   2   2   9   17.34    1.85
   2   2   9   21.90    3.13
   2   2   9   19.84    2.53
   3   2   9  121.77    9.63
   3   2   9  111.12    9.68
   3   2   9  131.20   10.60
   3   2   9  124.49   10.39
   4   2   9   60.07    5.11
   4   2   9   60.03    6.30
   4   2   9   59.90    5.03
   4   2   9   58.33    6.24
   5   2   9   61.41    5.46
   5   2   9   61.34    7.14
   5   2   9   63.62    5.40
   6   2   9   52.78    7.06
   6   2   9   55.82    4.98
   6   2   9   51.03    5.02
   9  -3  -9    1.23    2.35
   9  -3  -9   -3.51    1.77
  -9   3   9   -4.01    4.11
  -9   3   9   -5.73    3.88
   8  -3  -9   53.87    5.36
   8  -3  -9   51.18    5.84
  -8   3   9   43.80    6.91
  -8   3   9   46.07    7.54
   7  -3  -9   -1.26    1.74
  -7   3   9    0.18    3.28
  -7   3   9    2.78    3.15
   6  -3  -9   64.10    5.91
   6  -3  -9   64.73    5.91
  -6   3   9   59.68    7.19
  -6   3   9   62.90    7.53
  -6   3   9   58.66    5.98
   5  -3  -9   54.31    4.41
   5  -3  -9   54.46    4.68
   5  -3  -9   45.90    4.74
  -5   3   9   48.28    4.88
  -5   3   9   48.35    6.43
   4  -3  -9   66.47    5.48
   4  -3  -9   66.61    5.48
   4  -3  -9   64.12    5.43
  -4   3   9   66.14    7.17
  -4   3   9   64.52    6.33
  -4   3   9   57.20    5.50
   3  -3  -9   62.43    4.94
   3  -3  -9   52.46    5.27
   3  -3  -9   60.88    4.98
  -3   3   9   56.06    7.36
  -3   3   9   67.63    5.72
  -3   3   9   61.29    5.77
   2  -3  -9   24.07    3.19
  -2   3   9   33.65    3.50
  -2   3   9   25.20    2.56
  -2   3   9   31.15    3.17
  -1   3   9  136.25   11.35
  -1   3   9  140.81   11.53
  -1   3   9  141.27   11.24
   0  -3  -9    5.84    1.78
   0   3   9    8.62    1.92
   0   3   9    8.56    1.44
   0   3   9    7.75    1.29
   1   3   9   43.30    3.96
   1   3   9   35.39    3.60
   1   3   9   47.38    4.73
   2   3   9  135.94   11.76
   2   3   9  155.76   12.30
   2   3   9  152.78   12.39
   3   3   9   48.99    4.50
   3   3   9   40.58    5.56
   3   3   9   63.27    5.53
   4   3   9   -5.14    5.04
   4   3   9    0.71    1.86
   4   3   9    0.40    1.00
   5   3   9   16.38    3.32
   5   3   9   17.18    2.65
   6   3   9   33.12    5.17
   6   3   9   33.29    3.85
   8  -4  -9   42.38    4.41
   8  -4  -9   41.01    5.60
  -8   4   9   32.97    5.38
  -8   4   9   40.32    6.54
   7  -4  -9   31.87    3.53
   7  -4  -9   31.27    4.72
  -7   4   9   40.94    6.57
  -7   4   9   37.99    5.50
   6  -4  -9    1.98    2.15
  -6   4   9   -1.32    2.72
  -6   4   9   -0.57    3.24
   5  -4  -9   26.00    3.32
   5  -4  -9   26.97    2.98
  -5   4   9   25.47    4.59
  -5   4   9   23.20    3.95
   4  -4  -9    3.56    1.25
   4  -4  -9    3.03    1.08
   4  -4  -9    3.15    1.01
  -4   4   9   -0.24    2.46
   3  -4  -9  184.96   14.95
   3  -4  -9  199.69   14.87
   3  -4  -9  178.36   15.21
  -3   4   9  195.07   16.59
  -3   4   9  188.99   15.63
   2  -4  -9   92.18    6.67
   2  -4  -9   82.27    6.67
   2  -4  -9   79.35    7.36
  -2   4   9   84.94    7.43
  -2   4   9   70.48    6.92
  -2   4   9   93.61    7.51
   1  -4  -9    6.41    1.84
  -1   4   9    9.33    2.00
  -1   4   9    8.94    1.60
  -1   4   9    6.28    1.55
   0   4   9   42.75    4.35
   0   4   9   50.21    4.45
   1   4   9  160.86   14.25
   1   4   9  188.10   14.55
   1   4   9  186.74   14.80
   2   4   9    6.09    2.20
   2   4   9    5.67    1.27
   3   4   9   49.45    4.72
   3   4   9   53.59    5.52
   4   4   9    6.06    2.32
   4   4   9    4.04    1.62
   5   4   9   42.89    4.61
   5   4   9   46.80    5.94
   7  -5  -9   39.64    5.32
  -7   5   9   30.07    5.56
  -7   5   9   29.83    5.01
   6  -5  -9   22.37    3.32
  -6   5   9   23.38    4.96
  -6   5   9   22.79    4.40
   5  -5  -9   -3.03    1.64
  -5   5   9   -2.10    3.00
  -5   5   9    2.48    2.74
   4  -5  -9   13.99    2.22
   4  -5  -9   15.78    2.33
  -4   5   9   15.53    3.32
  -4   5   9   14.35    4.05
   3  -5  -9   33.76    3.17
   3  -5  -9   27.54    2.79
   3  -5  -9   26.19    3.41
  -3   5   9   33.19    4.36
   2  -5  -9   23.84    2.25
   2  -5  -9   16.96    3.14
  -2   5   9   26.36    3.66
  -2   5   9   21.68    2.63
   1  -5  -9    0.10    0.68
   1  -5  -9    1.52    1.44
   1  -5  -9    0.52    0.58
  -1   5   9   -0.35    0.99
  -1   5   9    2.42    1.50
   0   5   9    1.60    1.44
   0   5   9   -0.21    1.11
   1   5   9   37.48    4.04
   2   5   9   95.29    8.73
   2   5   9  109.79    9.16
   3   5   9   -0.86    1.84
   4   5   9    0.68    1.87
   4   5   9   -2.39    1.86
   5   5   9   50.87    5.88
   5   5   9   47.35    5.22
   7  -6  -9   45.26    6.10
  -7   6   9   53.65    7.22
  -7   6   9   50.00    7.88
   6  -6  -9  111.01   10.13
  -6   6   9  112.19   11.50
  -6   6   9  104.11   10.80
   5  -6  -9    7.79    2.56
  -5   6   9   11.19    3.44
  -5   6   9    8.46    3.73
   4  -6  -9    3.39    1.96
  -4   6   9   -1.64    3.52
  -4   6   9    5.00    3.08
   3  -6  -9    4.17    1.56
  -3   6   9    1.47    2.42
   2  -6  -9    4.46    1.13
  -2   6   9    3.83    2.29
   1  -6  -9   28.85    3.42
  -1   6   9   39.19    4.58
  -1   6   9   34.84    3.97
   0   6   9   -0.09    1.41
   0   6   9   -0.84    1.71
   1   6   9   94.44    8.48
   1   6   9   91.99    8.42
   2   6   9   47.81    5.22
   2   6   9   40.35    4.98
   3   6   9   -1.47    1.74
   3   6   9    2.71    2.14
   4   6   9   -1.36    1.83
   4   6   9   -1.92    2.05
  -6   7   9    3.42    3.95
   5  -7  -9   -2.51    2.62
  -5   7   9   -2.73    3.68
  -5   7   9   -6.37    2.87
   4  -7  -9    7.05    2.55
  -4   7   9   -0.23    3.02
   3  -7  -9   82.05    7.48
  -3   7   9   83.13    8.70
   2  -7  -9    8.29    1.66
  -2   7   9    5.53    2.96
  -1   7   9   34.40    4.55
  -1   7   9   38.99    5.40
   0   7   9    7.15    2.26
   0   7   9    2.71    2.51
   1   7   9   30.54    4.91
   1   7   9   32.18    4.42
   2   7   9   33.81    4.63
   2   7   9   30.58    5.01
   4  -8  -9    4.34    2.66
  -4   8   9    5.32    3.10
   3  -8  -9    6.40    2.73
  -3   8   9    6.47    2.82
  -2   8   9   -5.45    2.80
  -1   8   9   -0.48    2.11
  -1   8   9   -4.02    2.74
   0   8   9   91.25    9.11
   0   8   9  108.42    9.55
  -3 -10  10   38.32    5.40
  -3 -10  10   26.43    4.51
  -2 -10  10   50.29    6.78
  -2 -10  10   43.24    6.49
  -1 -10  10    4.18    2.57
  -1 -10  10    0.52    3.36
   0 -10  10   -1.70    1.82
   1 -10  10   25.52    4.27
   1 -10  10   19.22    3.79
   2 -10  10   19.55    3.67
   2 -10  10   17.06    3.95
  -5  -9  10    3.08    3.23
  -4  -9  10   -1.83    2.55
  -4  -9  10   -2.14    3.20
  -3  -9  10   -1.10    2.74
  -3  -9  10    3.75    3.05
  -2  -9  10   10.72    3.35
  -2  -9  10   15.66    3.31
  -1  -9  10    4.20    2.79
  -1  -9  10    8.11    2.58
   0  -9  10   48.04    5.14
   0  -9  10   40.05    6.09
   1  -9  10   42.11    5.78
   1  -9  10   46.40    4.47
   2  -9  10   18.96    4.12
   2  -9  10   31.14    4.80
   3  -9  10   65.43    6.94
   3  -9  10   60.89    6.56
   6   8 -10   58.28    6.17
  -6  -8  10   71.02    7.75
  -6  -8  10   73.20    7.41
   5   8 -10    2.74    1.54
  -5  -8  10    2.64    3.27
  -5  -8  10    7.89    2.88
   4   8 -10   -1.63    1.07
  -4  -8  10   -4.46    2.83
  -4  -8  10   -4.22    2.35
  -3  -8  10   -1.46    2.51
  -3  -8  10    2.51    2.36
  -2  -8  10   33.07    4.64
  -2  -8  10   40.94    5.35
  -1  -8  10    2.28    1.98
  -1  -8  10   -1.16    1.49
  -1  -8  10    0.47    2.00
   0  -8  10   40.57    4.92
   0  -8  10   36.53    4.50
   1  -8  10   15.91    2.71
   2  -8  10   65.83    8.39
   2  -8  10   99.98    7.90
   3  -8  10   -0.03    2.54
   3  -8  10    4.36    1.86
   4  -8  10   68.75    7.68
   7   7 -10   12.10    2.36
  -7  -7  10   11.31    3.62
  -7  -7  10    7.74    2.86
  -6  -7  10   37.75    5.65
  -6  -7  10   30.60    4.85
   5   7 -10    2.88    1.27
  -5  -7  10   -0.24    2.98
  -5  -7  10    0.99    2.54
   4   7 -10    5.64    1.13
  -4  -7  10    5.67    2.66
  -4  -7  10    9.34    2.97
  -3  -7  10  142.27   13.11
  -3  -7  10  161.39   13.96
  -3  -7  10  170.21   13.61
  -2  -7  10    9.62    1.62
  -2  -7  10   14.00    2.63
  -1  -7  10    2.82    1.28
  -1  -7  10    0.81    1.11
  -1  -7  10    0.71    1.54
  -1  -7  10    0.20    1.72
   0   7 -10    2.96    2.37
   0  -7  10    0.59    1.49
   0  -7  10   -0.78    1.42
   0  -7  10    1.18    1.06
   0  -7  10    0.39    1.29
   1  -7  10   24.44    3.13
   1  -7  10   20.59    2.72
   1  -7  10   31.62    3.46
   2  -7  10    9.11    1.33
   2  -7  10   13.74    2.09
   2  -7  10    7.88    2.24
   2  -7  10    7.85    2.89
   3  -7  10    4.28    1.39
   3  -7  10   -0.68    2.51
   4  -7  10   46.88    4.42
   4  -7  10   35.33    6.03
   5  -7  10    8.11    2.77
   8   6 -10   30.96    4.50
  -8  -6  10   35.06    4.97
  -8  -6  10   31.77    6.82
   7   6 -10   -1.44    1.84
  -7  -6  10    5.12    3.55
  -7  -6  10   -0.53    2.44
   6   6 -10   30.45    3.45
  -6  -6  10   39.96    5.64
  -6  -6  10   20.91    4.28
   5   6 -10    4.75    1.13
  -5  -6  10    5.05    2.73
  -5  -6  10    1.72    2.65
   4   6 -10    3.77    0.77
  -4  -6  10    5.20    3.11
  -4  -6  10    3.88    0.99
  -4  -6  10    4.70    2.35
  -3  -6  10   23.47    4.06
  -3  -6  10   26.13    2.65
  -3  -6  10   26.66    3.82
  -2  -6  10  159.17   13.54
  -2  -6  10  179.17   12.75
  -2  -6  10  141.16   12.76
  -2  -6  10  153.68   13.18
   1   6 -10   22.12    3.97
  -1  -6  10   25.75    3.28
  -1  -6  10   27.73    3.01
  -1  -6  10   31.29    3.14
  -1  -6  10   26.53    3.80
   0  -6  10   15.34    2.68
   0  -6  10   19.59    2.19
   0  -6  10   15.90    2.57
   0  -6  10   15.55    2.41
   1  -6  10  139.62   11.29
   1  -6  10  133.64   11.65
   1  -6  10  152.06   11.62
   2  -6  10    4.88    1.23
   2  -6  10    3.80    1.05
   2  -6  10    4.61    1.13
   2  -6  10   -1.08    1.85
   3  -6  10    5.24    1.19
   3  -6  10    4.08    0.83
   3  -6  10    3.53    2.41
   4  -6  10   23.84    2.67
   4  -6  10   16.61    3.58
   5  -6  10   72.19    7.80
   6  -6  10   32.13    6.24
   8   5 -10   24.37    3.77
  -8  -5  10   17.81    3.57
  -8  -5  10   13.69    3.85
   7   5 -10   21.34    3.50
  -7  -5  10   25.42    4.45
  -7  -5  10   24.69    5.06
   6   5 -10    5.29    1.45
  -6  -5  10    2.62    3.28
  -6  -5  10    5.72    3.02
   5   5 -10   26.16    4.08
   5   5 -10   36.29    3.23
  -5  -5  10   39.03    5.16
  -5  -5  10   45.87    5.33
   4   5 -10   77.65    6.18
   4   5 -10   70.86    6.37
  -4  -5  10   80.91    7.93
  -4  -5  10   84.67    7.61
  -3  -5  10   47.26    4.90
  -3  -5  10   41.68    3.80
  -3  -5  10   56.61    5.61
  -3  -5  10   45.97    4.29
   2   5 -10  138.21   13.78
  -2  -5  10  153.86   12.97
  -2  -5  10  157.81   13.25
  -2  -5  10  162.35   13.72
  -2  -5  10  187.19   12.81
  -1  -5  10  123.07    9.46
  -1  -5  10  114.14    9.30
  -1  -5  10  103.57    9.44
  -1  -5  10  116.68   10.01
   0  -5  10  343.97   26.96
   0  -5  10  355.26   26.56
   0  -5  10  364.81   26.33
   0  -5  10  288.34   26.52
   1  -5  10    2.85    1.59
   1  -5  10    1.43    1.17
   1  -5  10    0.43    0.81
   1  -5  10   -0.78    0.81
   2  -5  10    5.45    1.08
   2  -5  10    6.56    1.12
   2  -5  10    5.26    1.29
   3  -5  10   33.86    5.02
   3  -5  10   46.33    3.77
   3  -5  10   35.99    3.63
   3  -5  10   43.25    3.61
   4  -5  10   50.42    6.40
   4  -5  10   55.83    4.73
   5  -5  10    0.64    3.34
   5  -5  10    2.87    2.58
   6  -5  10   33.49    6.63
   6  -5  10   38.34    5.87
   8   4 -10    1.13    1.89
  -8  -4  10   -2.33    2.73
  -8  -4  10    7.14    3.74
  -7  -4  10   19.32    3.84
  -7  -4  10   19.99    4.51
   6   4 -10    3.97    2.01
  -6  -4  10    5.22    2.59
  -6  -4  10    8.88    3.05
   5   4 -10   57.51    4.84
   5   4 -10   55.04    5.36
  -5  -4  10   66.09    6.60
  -5  -4  10   58.26    6.80
   4   4 -10   66.47    4.97
   4   4 -10   54.85    5.07
  -4  -4  10   66.16    6.83
  -4  -4  10   62.20    6.27
  -4  -4  10   62.77    5.64
  -3  -4  10  221.42   18.98
  -3  -4  10  230.26   18.27
  -3  -4  10  243.39   18.67
  -3  -4  10  223.04   18.25
  -2  -4  10   19.69    1.70
  -2  -4  10   15.23    2.84
  -2  -4  10   13.88    2.29
  -2  -4  10   15.85    2.47
  -1  -4  10    9.40    1.46
  -1  -4  10    7.28    1.82
  -1  -4  10    8.34    1.58
  -1  -4  10    8.90    1.33
   0  -4  10   60.04    6.24
   0  -4  10   65.09    5.62
   0  -4  10   73.08    5.50
   1  -4  10  323.13   28.11
   1  -4  10  369.50   27.49
   1  -4  10  368.63   27.66
   2  -4  10   51.67    4.03
   2  -4  10   50.73    4.68
   2  -4  10   39.24    5.03
   3  -4  10   27.06    3.21
   3  -4  10   29.25    4.68
   3  -4  10   33.83    2.89
   3  -4  10   24.42    4.52
   3  -4  10   38.37    3.09
   4  -4  10    7.17    1.09
   4  -4  10    4.92    2.59
   4  -4  10    3.44    2.15
   5  -4  10   24.54    5.07
   5  -4  10   35.55    5.03
   5  -4  10   35.56    3.89
   6  -4  10    5.92    2.95
   6  -4  10    0.09    3.00
   9   3 -10    5.33    2.25
  -9  -3  10   -7.31    3.21
  -9  -3  10    8.20    3.87
   8   3 -10   60.02    6.13
  -8  -3  10   62.95    8.07
  -8  -3  10   59.80    7.51
   7   3 -10   22.21    3.21
  -7  -3  10   24.83    4.36
  -7  -3  10   26.27    4.56
   6   3 -10   46.40    5.07
   6   3 -10   52.65    4.44
  -6  -3  10   52.53    6.36
  -6  -3  10   43.86    6.17
   5   3 -10   17.98    1.85
  -5  -3  10   18.01    3.35
  -5  -3  10   14.24    3.00
   4   3 -10  111.34    9.03
  -4  -3  10  126.79   10.18
  -4  -3  10  110.04    9.62
  -4  -3  10  117.12    9.56
  -3  -3  10   19.47    2.56
  -3  -3  10   18.93    3.11
  -3  -3  10   13.28    2.18
  -3  -3  10   17.45    2.68
  -2  -3  10   13.65    2.70
  -2  -3  10   14.38    2.14
  -2  -3  10   13.43    2.09
  -1  -3  10    3.22    1.69
  -1  -3  10    2.87    0.81
  -1  -3  10    4.52    1.09
  -1  -3  10    2.92    0.71
  -1  -3  10    4.28    0.98
   0  -3  10   45.99    3.64
   0  -3  10   39.40    4.66
   0  -3  10   41.95    3.78
   1  -3  10  265.75   23.42
   1  -3  10  314.04   23.69
   1  -3  10  266.29   23.47
   1  -3  10  328.79   22.86
   2  -3  10  139.37   12.64
   2  -3  10  171.19   11.80
   2  -3  10  154.40   12.58
   2  -3  10  135.40   12.72
   3  -3  10   97.87    9.38
   3  -3  10  109.23    8.55
   3  -3  10  117.25    8.53
   3  -3  10   97.81    8.97
   4  -3  10   75.97    6.33
   4  -3  10   71.67    7.71
   5  -3  10  450.57   35.19
   5  -3  10  428.97   34.39
   6  -3  10   12.95    3.79
   6  -3  10   19.55    3.54
   9   2 -10  137.45   11.39
  -9  -2  10  131.80   12.57
  -9  -2  10  122.28   12.10
   8   2 -10    7.45    2.16
  -8  -2  10    5.42    3.63
  -8  -2  10    6.41    3.58
   7   2 -10   32.92    3.60
  -7  -2  10   32.07    5.01
  -7  -2  10   26.91    4.77
   6   2 -10   -0.81    0.92
   6   2 -10   -2.21    1.49
  -6  -2  10   -3.04    2.29
  -6  -2  10   -0.89    2.54
   5   2 -10   14.19    1.55
  -5  -2  10   12.61    2.81
  -5  -2  10   12.99    2.86
  -5  -2  10   11.41    1.91
  -4  -2  10   41.80    4.07
  -4  -2  10   36.70    3.66
  -4  -2  10   33.47    4.98
  -4  -2  10   37.08    4.35
  -3  -2  10   97.35    7.71
  -3  -2  10   97.36    7.89
  -3  -2  10   92.63    8.08
  -3  -2  10   78.85    8.56
  -2  -2  10   43.95    3.86
  -2  -2  10   37.73    4.77
  -2  -2  10   43.56    4.01
  -2  -2  10   40.78    4.08
  -1  -2  10   68.72    7.35
  -1  -2  10   76.77    6.19
  -1  -2  10   76.15    6.46
  -1  -2  10   81.00    6.33
   0  -2  10  928.53   72.74
   0  -2  10  995.35   71.90
   0  -2  10  792.13   72.03
   0  -2  10 1004.04   71.78
   1  -2  10   53.80    5.11
   1  -2  10   51.16    5.14
   1  -2  10   65.81    5.82
   2  -2  10  262.47   20.17
   2  -2  10  250.38   19.94
   2  -2  10  231.31   20.06
   3  -2  10  156.30   12.14
   3  -2  10  145.98   12.07
   3  -2  10  146.32   11.34
   3  -2  10  125.67   12.35
   4  -2  10  100.63    9.48
   4  -2  10  122.52    9.93
   4  -2  10  125.61    9.05
   4  -2  10   97.20   10.44
   5  -2  10   41.64    5.75
   5  -2  10   48.44    6.80
   5  -2  10   54.97    4.42
   5  -2  10   47.21    5.62
   6  -2  10   -0.44    2.49
   6  -2  10    2.52    3.09
   9   1 -10   66.36    6.55
  -9  -1  10   58.96    7.42
  -9  -1  10   54.80    7.63
   8   1 -10   23.44    4.01
  -8  -1  10   27.29    4.88
  -8  -1  10   37.15    6.04
   7   1 -10    0.78    1.49
  -7  -1  10   -0.19    3.02
  -7  -1  10   -4.40    2.76
   6   1 -10   13.68    1.99
   6   1 -10   10.47    1.94
  -6  -1  10    7.79    3.09
  -6  -1  10   14.35    3.40
   5   1 -10    2.29    0.76
  -5  -1  10    1.97    1.16
  -5  -1  10    2.00    1.90
  -5  -1  10    2.47    2.40
   4   1 -10  172.69   13.17
  -4  -1  10  183.37   13.90
  -4  -1  10  163.87   14.07
  -4  -1  10  170.20   13.60
  -4  -1  10  151.52   14.65
  -3  -1  10  343.88   24.84
  -3  -1  10  279.93   25.53
  -3  -1  10  309.86   24.95
  -3  -1  10  317.20   24.58
  -2  -1  10  109.41    8.96
  -2  -1  10  104.93   10.09
  -2  -1  10  120.42    9.21
  -2  -1  10  108.51    9.20
  -1  -1  10  104.63    8.03
  -1  -1  10  107.65    8.27
  -1  -1  10   93.54    9.25
  -1  -1  10   95.58    8.27
   0  -1  10   22.11    2.20
   0  -1  10   25.85    3.76
   0  -1  10   23.63    2.21
   0  -1  10   21.44    2.36
   0  -1  10   15.71    2.40
   1  -1  10   23.61    3.95
   1  -1  10   31.09    2.47
   1  -1  10   26.28    2.99
   1  -1  10   27.46    3.04
   1  -1  10   29.54    2.37
   2  -1  10   65.38    4.67
   2  -1  10   47.92    5.41
   2  -1  10   54.79    5.89
   2  -1  10   57.66    4.51
   2  -1  10   56.38    5.19
   3  -1  10   28.91    4.04
   3  -1  10   30.27    3.33
   3  -1  10   33.64    2.75
   3  -1  10   29.66    2.95
   3  -1  10   25.64    4.01
   4  -1  10   67.17    5.67
   4  -1  10   47.83    5.86
   4  -1  10   61.67    4.85
   4  -1  10   49.65    6.44
   5  -1  10   91.45   10.04
   5  -1  10  105.49    8.23
   5  -1  10  101.88    9.03
   6  -1  10   80.17    9.29
   6  -1  10   89.99    8.35
   9   0 -10   34.40    5.27
  -9   0  10   41.04    6.66
  -9   0  10   47.93    6.40
   8   0 -10    3.71    2.30
  -8   0  10    1.42    3.65
  -8   0  10    3.50    3.87
   7   0 -10    8.63    1.94
  -7   0  10    9.42    3.53
  -7   0  10   16.40    3.78
   6   0 -10   25.96    3.06
   6   0 -10   23.54    2.70
  -6   0  10   17.70    3.18
  -6   0  10   25.02    4.09
  -6   0  10   24.35    4.27
   5   0 -10    3.21    1.33
   5   0 -10    3.03    0.83
  -5   0  10    3.72    1.41
  -5   0  10    2.59    2.31
  -5   0  10    2.97    2.07
   4   0 -10   40.96    3.46
  -4   0  10   49.24    4.53
  -4   0  10   39.17    4.66
  -4   0  10   43.12    4.09
  -3   0  10    7.08    1.52
  -3   0  10    5.91    1.18
  -3   0  10    8.15    1.90
  -3   0  10    7.17    2.48
  -2   0  10   21.43    2.51
  -2   0  10   21.18    2.84
  -2   0  10   20.77    2.15
  -2   0  10   16.12    3.24
  -1   0  10   67.14    5.93
  -1   0  10   59.41    6.93
  -1   0  10   77.86    5.73
  -1   0  10   70.99    5.75
   0   0  10   17.22    2.02
   0   0  10   12.82    1.78
   0   0  10   13.25    2.78
   0   0  10   16.50    1.75
   0   0  10   14.26    1.67
   1   0  10  101.97    9.90
   1   0  10  112.37    8.84
   1   0  10  115.33    9.21
   1   0  10  109.36    8.97
   2   0  10   48.01    5.79
   2   0  10   51.01    4.52
   2   0  10   44.96    4.94
   2   0  10   59.09    4.51
   3   0  10  162.46   14.16
   3   0  10  174.08   13.50
   3   0  10  171.41   13.11
   3   0  10  160.75   13.42
   4   0  10    2.72    0.67
   4   0  10    2.59    1.19
   4   0  10    4.31    2.18
   5   0  10    0.31    2.53
   5   0  10    2.32    0.97
   5   0  10    0.66    1.46
   6   0  10    2.31    3.16
   6   0  10    4.64    1.71
   9  -1 -10    3.79    2.33
  -9   1  10    2.64    3.99
   8  -1 -10    1.96    2.22
  -8   1  10    0.63    3.59
  -8   1  10   -3.51    3.46
   7  -1 -10    1.79    1.99
  -7   1  10    3.72    3.26
  -7   1  10    5.97    3.58
   6  -1 -10  112.30    9.39
   6  -1 -10  114.38    9.29
  -6   1  10  113.56    9.55
  -6   1  10  101.42   10.83
  -6   1  10  117.79   10.68
   5  -1 -10    6.85    1.24
   5  -1 -10    6.32    1.07
  -5   1  10    1.91    2.59
  -5   1  10    5.53    1.53
  -5   1  10    4.38    2.55
   4  -1 -10  439.80   35.30
   4  -1 -10  456.87   35.33
  -4   1  10  485.53   35.67
  -4   1  10  421.02   36.70
  -4   1  10  449.04   36.18
  -4   1  10  484.77   35.99
  -3   1  10   22.19    3.33
  -3   1  10   22.62    2.45
  -3   1  10   22.93    2.98
  -3   1  10   14.94    3.56
  -2   1  10  551.85   40.72
  -2   1  10  466.46   41.54
  -2   1  10  554.07   40.37
  -2   1  10  506.21   40.76
  -1   1  10    7.65    1.04
  -1   1  10    8.74    1.67
  -1   1  10    6.58    2.14
  -1   1  10    8.12    1.30
  -1   1  10    7.53    1.08
   0   1  10  154.70   12.29
   0   1  10  144.85   12.13
   0   1  10  162.77   12.07
   0   1  10  132.16   13.22
   0   1  10  160.15   12.25
   0   1  10  155.11   11.90
   1   1  10    9.51    1.88
   1   1  10   12.03    1.40
   1   1  10    9.99    1.33
   1   1  10   12.44    1.81
   2   1  10    4.68    1.43
   2   1  10    4.90    0.82
   2   1  10    5.73    0.81
   3   1  10   44.94    3.78
   3   1  10   45.42    4.67
   3   1  10   47.52    5.04
   3   1  10   43.82    3.91
   4   1  10   15.58    2.13
   4   1  10   18.54    3.76
   4   1  10   20.63    1.89
   5   1  10    4.12    2.71
   5   1  10    2.12    1.11
   5   1  10    4.81    1.03
   6   1  10   15.31    3.58
   8  -2 -10   34.99    5.09
  -8   2  10   35.02    5.82
  -8   2  10   34.96    5.41
  -7   2  10    8.02    3.65
  -7   2  10    5.66    3.77
   6  -2 -10   32.58    3.58
  -6   2  10   27.07    4.10
  -6   2  10   28.85    5.00
  -6   2  10   42.06    5.79
   5  -2 -10   63.42    5.71
   5  -2 -10   69.43    5.77
  -5   2  10   70.43    8.07
  -5   2  10   70.18    6.11
   4  -2 -10   41.75    3.57
   4  -2 -10   41.23    3.56
  -4   2  10   41.08    5.83
  -4   2  10   44.61    4.02
  -4   2  10   43.31    4.98
  -3   2  10  112.25    9.13
  -3   2  10  108.95    9.80
  -3   2  10  126.73    9.78
  -3   2  10  110.34   10.76
  -2   2  10   33.61    3.23
  -2   2  10   42.22    4.22
  -2   2  10   42.80    3.94
  -1   2  10   56.47    5.02
  -1   2  10   46.60    6.18
  -1   2  10   50.76    4.33
  -1   2  10   47.32    4.53
   0   2  10  128.17    9.90
   0   2  10  120.64   10.08
   0   2  10  114.57    9.80
   1   2  10   73.52    5.93
   1   2  10   60.34    5.53
   2   2  10   -0.07    0.64
   2   2  10    1.41    1.25
   2   2  10    1.20    1.54
   3   2  10   31.54    3.91
   3   2  10   28.11    2.73
   3   2  10   27.98    2.54
   3   2  10   37.45    4.49
   4   2  10   24.82    4.13
   4   2  10   13.73    1.96
   4   2  10   15.77    1.83
   5   2  10   44.39    6.39
   5   2  10   49.76    4.39
   6   2  10   82.11    8.45
   8  -3 -10   -0.64    2.54
  -8   3  10    7.01    3.87
  -8   3  10   -7.27    3.24
   7  -3 -10   25.35    4.08
  -7   3  10   25.35    5.02
  -7   3  10   21.27    4.64
   6  -3 -10    6.03    1.87
  -6   3  10    4.26    3.02
  -6   3  10    2.33    3.29
   5  -3 -10    9.38    1.65
  -5   3  10   13.52    3.78
  -5   3  10   14.87    3.61
   4  -3 -10    1.96    0.75
  -4   3  10    3.78    2.07
  -4   3  10   -0.34    2.57
  -4   3  10    1.97    0.94
   3  -3 -10    0.00    1.02
   3  -3 -10    1.83    0.51
  -3   3  10    0.75    1.67
  -3   3  10   -3.58    2.29
   2  -3 -10    1.35    1.20
  -2   3  10   -0.77    1.32
  -2   3  10   -2.06    2.60
  -2   3  10    0.34    0.61
  -2   3  10    0.98    1.62
  -1   3  10   74.38    6.38
  -1   3  10   64.67    6.06
  -1   3  10   67.45    5.82
   0  -3 -10   22.13    3.52
   0   3  10   30.65    2.95
   0   3  10   26.91    2.95
   0   3  10   28.97    3.70
   1   3  10   15.36    2.61
   1   3  10   13.15    1.97
   2   3  10   27.30    3.46
   2   3  10   25.36    2.72
   2   3  10   24.40    3.88
   3   3  10   29.18    3.07
   3   3  10   31.69    4.31
   4   3  10   40.25    5.15
   4   3  10   32.06    3.44
   5   3  10    2.07    2.55
   7  -4 -10   16.04    3.14
  -7   4  10   15.63    4.10
  -7   4  10   19.87    4.52
  -6   4  10   80.97    9.09
  -6   4  10   81.06    9.32
   5  -4 -10   12.06    2.10
  -5   4  10   18.02    3.70
  -5   4  10   13.56    4.23
  -4   4  10    5.09    2.45
  -4   4  10    1.69    3.23
   3  -4 -10   14.30    3.04
   3  -4 -10   22.60    2.01
  -3   4  10   24.69    3.57
  -3   4  10   16.95    4.04
   2  -4 -10   -1.63    1.28
  -2   4  10    0.54    1.65
  -2   4  10    0.96    0.84
   1  -4 -10    3.22    1.52
  -1   4  10    4.96    1.62
  -1   4  10    5.08    1.18
   0   4  10  282.85   21.58
   0   4  10  257.28   21.53
   1   4  10   37.74    4.62
   1   4  10   24.42    3.13
   1   4  10   25.37    3.32
   2   4  10   94.47    8.01
   2   4  10   80.91    7.51
   3   4  10    5.31    2.20
   3   4  10    1.58    1.37
   4   4  10   29.82    4.67
   4   4  10   21.64    3.53
   7  -5 -10   90.09    8.25
  -7   5  10   79.98    9.37
  -7   5  10   84.19   10.15
   6  -5 -10    4.72    2.31
  -6   5  10    6.50    3.49
  -6   5  10   12.15    4.24
   5  -5 -10   22.21    3.39
  -5   5  10   16.32    3.95
  -5   5  10   17.24    4.75
   4  -5 -10   57.23    5.15
  -4   5  10   58.66    6.99
  -4   5  10   58.20    8.12
   3  -5 -10    1.02    0.88
  -3   5  10   -2.12    2.41
  -2   5  10   74.53    7.35
   1  -5 -10  198.37   18.54
  -1   5  10  220.28   17.07
   0   5  10    0.94    1.84
   0   5  10    0.13    1.35
   1   5  10  172.66   13.59
   1   5  10  148.49   13.98
   2   5  10  147.21   13.48
   2   5  10  170.43   13.63
   3   5  10   14.45    3.04
   3   5  10   14.65    2.51
   4   5  10    8.08    2.01
   6  -6 -10    6.03    2.41
  -6   6  10    1.84    3.56
  -6   6  10   -4.74    3.01
   5  -6 -10   34.90    4.38
  -5   6  10   38.79    5.64
  -5   6  10   33.96    5.81
   4  -6 -10    1.73    1.51
  -4   6  10    4.18    3.37
  -4   6  10    1.67    4.05
  -3   6  10  271.23   22.56
  -2   6  10   31.36    4.58
  -1   6  10   83.26    7.69
   0   6  10   13.92    2.55
   0   6  10   13.06    3.01
   1   6  10   72.64    7.33
   1   6  10   71.75    7.06
   2   6  10   49.82    6.28
   2   6  10   62.39    6.34
   3   6  10   20.77    3.95
  -4   7  10   61.86    8.55
  -4   7  10   70.13    7.86
  -3   7  10   11.53    3.79
  -2   7  10   19.61    4.03
  -1   7  10   55.53    6.62
  -1   7  10   43.92    5.55
   0   7  10   12.43    2.74
   0   7  10   13.35    3.49
   1   7  10  160.54   13.83
   1   7  10  160.63   13.97
  -1 -10  11   -1.64    2.39
  -1 -10  11    3.24    3.31
  -4  -9  11  110.42   10.60
  -4  -9  11  105.81   10.89
  -3  -9  11   16.25    3.99
  -3  -9  11   20.86    4.26
  -2  -9  11   60.63    7.52
  -2  -9  11   60.06    7.48
  -1  -9  11   72.18    8.24
  -1  -9  11   75.39    7.83
   0  -9  11  304.88   22.42
   0  -9  11  237.57   22.05
   1  -9  11   22.22    4.18
   1  -9  11   28.52    4.54
   2  -9  11  118.47   11.14
  -5  -8  11   60.16    7.87
  -5  -8  11   53.51    6.74
  -4  -8  11   35.63    5.38
  -4  -8  11   32.39    4.79
  -3  -8  11   -4.66    2.79
  -3  -8  11    0.47    2.74
  -2  -8  11   96.83    9.06
  -2  -8  11   87.99    9.24
  -1  -8  11   12.24    2.93
   0  -8  11   57.20    6.35
   0  -8  11   64.28    6.61
   1  -8  11   16.61    2.44
   1  -8  11    1.55    2.77
   2  -8  11   65.20    5.87
   2  -8  11   49.00    7.10
   3  -8  11   82.19    8.71
  -6  -7  11   59.42    8.14
  -6  -7  11   59.72    6.76
  -5  -7  11   25.79    4.75
  -5  -7  11   14.13    3.60
  -4  -7  11    0.67    2.99
  -4  -7  11   -2.67    2.38
  -3  -7  11    2.17    2.65
  -3  -7  11   -0.88    2.26
  -2  -7  11    2.37    2.21
  -2  -7  11    1.95    2.19
  -1  -7  11   24.24    3.78
  -1  -7  11   19.33    3.46
   0  -7  11   44.11    5.12
   0  -7  11   44.45    4.88
   1  -7  11   -0.15    2.61
   1  -7  11    2.06    1.49
   2  -7  11  175.50   12.65
   2  -7  11  155.24   12.67
   2  -7  11  127.36   13.51
   3  -7  11    0.97    2.58
   4  -7  11   -1.06    2.37
  -7  -6  11   -0.07    3.34
  -7  -6  11    1.11    2.68
   6   6 -11   34.47    4.05
  -6  -6  11   46.63    6.70
  -6  -6  11   26.13    4.91
  -5  -6  11   59.43    7.46
  -5  -6  11   58.70    7.08
  -4  -6  11   99.93   10.03
  -4  -6  11  101.71    9.76
  -3  -6  11  106.39    9.69
  -3  -6  11  108.04   10.12
  -2  -6  11    9.92    2.19
  -2  -6  11    7.17    1.68
  -2  -6  11    8.12    3.00
  -1  -6  11   -0.44    0.96
  -1  -6  11    2.27    2.15
  -1  -6  11    0.66    1.21
  -1  -6  11   -1.07    1.33
   0  -6  11   43.10    4.35
   0  -6  11   47.22    5.14
   0  -6  11   48.03    4.44
   0  -6  11   42.20    3.99
   1  -6  11    3.02    1.61
   1  -6  11    3.36    2.29
   1  -6  11   -0.20    1.54
   1  -6  11    3.53    1.27
   2  -6  11    6.06    1.31
   2  -6  11    7.47    1.39
   2  -6  11    5.61    2.35
   3  -6  11    4.46    1.19
   3  -6  11    5.97    2.82
   4  -6  11    6.71    3.04
   5  -6  11   20.58    3.68
   5  -6  11   14.98    4.33
   7   5 -11    8.40    2.97
  -7  -5  11   12.83    4.25
  -7  -5  11    7.19    2.96
   6   5 -11   28.82    3.08
  -6  -5  11   41.34    5.83
  -6  -5  11   41.63    5.69
  -5  -5  11    3.84    2.98
  -5  -5  11    3.29    2.91
  -4  -5  11   32.69    5.16
  -4  -5  11   32.41    4.97
  -3  -5  11    6.85    2.52
  -3  -5  11   10.66    2.36
  -3  -5  11    7.22    1.71
  -2  -5  11   20.73    2.74
  -2  -5  11   22.76    3.06
  -2  -5  11   23.12    3.75
  -2  -5  11   23.65    2.20
  -1  -5  11   22.72    2.60
  -1  -5  11   19.97    2.71
  -1  -5  11   24.09    3.22
  -1  -5  11   19.71    3.32
   0  -5  11  273.21   21.67
   0  -5  11  282.56   20.86
   0  -5  11  233.25   21.05
   0  -5  11  278.29   21.08
   1  -5  11  232.46   18.03
   1  -5  11  242.27   18.30
   1  -5  11  216.15   18.68
   2  -5  11    0.31    1.91
   2  -5  11   -0.54    1.23
   2  -5  11   -0.97    0.86
   3  -5  11    4.07    1.06
   3  -5  11    0.68    2.29
   3  -5  11    4.05    2.81
   3  -5  11    4.19    0.96
   4  -5  11    3.00    3.13
   4  -5  11   -1.70    2.51
   5  -5  11    0.07    3.48
   5  -5  11    2.58    2.83
   8   4 -11    5.08    1.81
  -8  -4  11    3.06    3.53
   7   4 -11    6.36    1.61
  -7  -4  11    1.65    3.42
  -7  -4  11    6.46    3.09
   6   4 -11   -0.17    0.81
  -6  -4  11   -5.46    3.08
  -6  -4  11   -0.05    2.84
   5   4 -11   14.89    1.58
  -5  -4  11   14.52    3.35
  -4  -4  11    1.45    2.00
  -4  -4  11    0.29    2.32
  -3  -4  11   83.68    7.65
  -3  -4  11   80.45    8.20
  -3  -4  11   86.64    7.26
  -2  -4  11  348.21   27.91
  -2  -4  11  357.81   27.67
  -2  -4  11  352.03   28.58
  -1  -4  11   -0.95    0.96
  -1  -4  11   -0.09    0.72
  -1  -4  11    0.02    0.66
  -1  -4  11    1.84    1.85
  -1  -4  11    0.81    1.05
   0  -4  11   70.42    5.60
   0  -4  11   55.58    5.82
   0  -4  11   72.72    5.65
   0  -4  11   68.75    6.71
   1  -4  11    0.26    1.17
   1  -4  11    0.77    1.59
   1  -4  11    0.15    1.54
   1  -4  11    2.92    0.85
   1  -4  11    1.84    0.57
   2  -4  11   66.97    5.29
   2  -4  11   70.46    5.07
   2  -4  11   62.12    6.00
   2  -4  11   51.72    6.28
   2  -4  11   54.40    6.44
   3  -4  11    2.07    1.16
   3  -4  11    5.08    0.92
   3  -4  11    3.41    2.18
   4  -4  11   64.92    8.10
   4  -4  11   74.64    7.71
   5  -4  11   18.31    4.46
   5  -4  11   19.54    3.85
   8   3 -11   12.81    2.14
  -8  -3  11   14.96    3.39
  -8  -3  11    8.20    4.03
   7   3 -11   36.56    3.42
  -7  -3  11   22.38    4.78
  -7  -3  11   31.04    5.44
   6   3 -11   23.87    2.36
  -6  -3  11   20.76    4.31
  -6  -3  11   20.30    4.19
   5   3 -11   64.74    5.42
  -5  -3  11   68.52    7.56
  -5  -3  11   77.95    7.51
  -4  -3  11   39.26    4.35
  -4  -3  11   42.15    5.04
  -4  -3  11   44.53    5.64
  -3  -3  11   63.92    6.29
  -3  -3  11   70.05    6.06
  -3  -3  11   78.07    6.65
  -2  -3  11    1.17    1.28
  -2  -3  11   -2.14    1.85
  -2  -3  11   -0.76    1.12
  -1  -3  11   29.64    2.75
  -1  -3  11   31.48    3.13
  -1  -3  11   37.09    4.42
  -1  -3  11   35.14    3.17
  -1  -3  11   27.86    2.82
   0  -3  11   21.76    2.73
   0  -3  11   31.27    2.51
   0  -3  11   26.11    2.59
   0  -3  11   24.21    4.02
   1  -3  11  121.38   10.99
   1  -3  11  137.45   10.40
   1  -3  11  148.80   10.27
   1  -3  11  132.34   11.48
   1  -3  11  111.97   11.11
   2  -3  11    1.87    1.59
   2  -3  11   -0.70    1.57
   2  -3  11   -1.16    1.47
   2  -3  11   -0.08    0.35
   3  -3  11   17.94    2.64
   3  -3  11   24.66    2.20
   3  -3  11   19.90    3.21
   3  -3  11   14.33    3.28
   4  -3  11   11.92    3.39
   4  -3  11    9.70    2.74
   4  -3  11   11.95    1.87
   5  -3  11   -1.22    2.95
   5  -3  11   -4.01    2.54
   6  -3  11   34.61    5.65
   6  -3  11   39.79    5.69
   8   2 -11   11.41    2.29
  -8  -2  11   14.86    4.45
  -8  -2  11   16.21    3.63
   7   2 -11    1.01    1.20
  -7  -2  11   -1.10    3.34
  -7  -2  11   -0.60    2.99
   6   2 -11   16.28    1.80
  -6  -2  11   12.20    3.77
  -6  -2  11   14.38    3.98
   5   2 -11    2.30    0.76
   5   2 -11    2.29    0.59
  -5  -2  11   -0.12    2.49
  -5  -2  11    2.56    2.63
  -4  -2  11   30.16    3.17
  -4  -2  11   31.58    4.29
  -4  -2  11   30.12    4.92
  -4  -2  11   28.47    3.68
  -3  -2  11  470.24   36.71
  -3  -2  11  445.61   36.28
  -3  -2  11  480.08   36.46
  -2  -2  11    8.51    1.68
  -2  -2  11    7.62    1.37
  -2  -2  11    8.64    1.74
  -2  -2  11    6.94    2.50
  -1  -2  11   53.94    4.53
  -1  -2  11   54.12    4.83
   0  -2  11   17.05    1.98
   0  -2  11   12.95    2.25
   0  -2  11   18.00    3.06
   0  -2  11   19.57    2.00
   1  -2  11  153.61   10.79
   1  -2  11  130.66   11.38
   1  -2  11  125.73   11.44
   1  -2  11  136.98   12.04
   2  -2  11   -1.06    1.83
   2  -2  11   -1.35    1.27
   2  -2  11   -0.63    1.26
   3  -2  11    3.62    0.75
   3  -2  11    4.83    2.18
   3  -2  11    4.03    1.76
   3  -2  11    3.68    1.96
   4  -2  11   12.44    2.25
   4  -2  11   15.78    3.48
   5  -2  11   23.29    4.57
   5  -2  11   20.01    3.47
   6  -2  11   13.77    3.80
   6  -2  11   18.64    3.26
   8   1 -11   53.09    5.17
  -8  -1  11   36.76    6.04
  -8  -1  11   61.90    8.03
   7   1 -11    4.30    1.41
  -7  -1  11    6.32    3.41
  -7  -1  11   -0.12    3.71
   6   1 -11    8.84    1.22
  -6  -1  11    6.26    3.37
  -6  -1  11   12.28    3.76
   5   1 -11    0.10    0.67
  -5  -1  11    0.54    1.22
  -5  -1  11   -0.79    2.71
  -5  -1  11   -0.57    2.32
  -4  -1  11  235.25   21.63
  -4  -1  11  275.42   21.20
  -4  -1  11  271.00   20.83
  -4  -1  11  254.00   20.51
  -3  -1  11   19.40    3.16
  -3  -1  11   21.12    2.57
  -3  -1  11   17.82    3.75
  -3  -1  11   23.57    3.40
  -2  -1  11    5.58    1.45
  -2  -1  11    6.34    1.64
  -2  -1  11    6.40    2.42
  -2  -1  11    4.31    1.09
  -1  -1  11    0.84    2.16
  -1  -1  11    3.05    0.56
  -1  -1  11    3.02    1.03
   0  -1  11  197.65   15.75
   0  -1  11  194.32   16.90
   0  -1  11  214.41   15.74
   0  -1  11  192.44   15.85
   1  -1  11   18.51    1.73
   1  -1  11   13.33    3.02
   1  -1  11   13.90    2.28
   1  -1  11   17.50    1.74
   1  -1  11   15.21    2.24
   2  -1  11   35.36    4.22
   2  -1  11   39.45    3.31
   2  -1  11   35.59    5.14
   2  -1  11   40.51    3.97
   2  -1  11   37.97    3.09
   3  -1  11    6.41    0.94
   3  -1  11    4.74    1.60
   3  -1  11    5.92    2.07
   3  -1  11    1.78    2.32
   4  -1  11    4.22    2.40
   4  -1  11    9.63    2.02
   4  -1  11   10.80    3.04
   5  -1  11   11.47    2.29
   5  -1  11   13.82    3.92
   6  -1  11   72.62    8.47
   6  -1  11   74.45    7.22
   8   0 -11   12.87    2.46
  -8   0  11   10.70    3.89
  -8   0  11   21.21    4.63
   7   0 -11   22.27    2.85
  -7   0  11   16.20    4.46
  -7   0  11   15.56    4.43
   6   0 -11    2.43    0.86
  -6   0  11   -0.14    2.45
  -6   0  11    3.19    3.01
  -6   0  11    4.91    3.13
   5   0 -11   10.57    1.24
  -5   0  11   10.40    1.80
  -5   0  11    9.83    3.30
  -5   0  11   11.24    2.92
  -4   0  11  246.91   19.22
  -4   0  11  240.18   18.85
  -4   0  11  235.59   19.50
  -4   0  11  225.65   20.21
  -3   0  11  154.32   14.92
  -3   0  11  171.18   13.61
  -3   0  11  174.13   14.12
  -3   0  11  180.36   14.04
  -2   0  11   -0.40    1.04
  -2   0  11   -0.26    1.50
  -1   0  11    1.96    2.25
  -1   0  11    0.52    0.46
  -1   0  11    0.36    1.38
  -1   0  11    0.84    0.77
  -1   0  11    0.60    0.70
  -1   0  11    0.89    0.89
   0   0  11  119.91    9.20
   0   0  11  102.68    9.16
   0   0  11  105.04   10.71
   0   0  11  125.28    9.21
   0   0  11  108.73    9.09
   1   0  11  120.66   11.64
   1   0  11  139.35   10.64
   1   0  11  129.01   10.24
   1   0  11  119.40   10.13
   1   0  11  131.07   10.37
   2   0  11   24.85    2.48
   2   0  11   15.53    3.53
   2   0  11   23.00    2.04
   2   0  11   20.78    2.57
   2   0  11   23.39    3.25
   3   0  11    3.58    1.08
   3   0  11    7.28    2.70
   3   0  11    5.22    0.79
   4   0  11    1.21    2.74
   4   0  11   -0.19    2.26
   4   0  11    1.67    1.17
   5   0  11    0.23    3.01
   5   0  11   -1.22    1.35
   5   0  11    1.61    2.56
   8  -1 -11    5.19    2.14
  -8   1  11   10.42    4.03
  -8   1  11    8.49    3.47
   7  -1 -11   -0.36    1.48
  -7   1  11    1.45    3.92
  -7   1  11    2.06    3.56
   6  -1 -11   -0.81    0.87
  -6   1  11   -2.29    2.82
  -6   1  11   -2.84    2.96
   5  -1 -11   15.30    1.52
  -5   1  11   13.62    3.58
  -5   1  11   13.57    5.26
  -5   1  11   10.39    1.93
  -4   1  11    1.64    1.04
  -4   1  11    4.86    2.06
  -4   1  11    1.70    2.82
  -3   1  11    2.90    0.98
  -3   1  11    3.42    1.83
  -3   1  11    1.47    2.63
  -3   1  11    4.77    1.80
  -2   1  11    1.45    1.23
  -2   1  11    1.84    0.72
  -2   1  11    3.92    1.75
  -2   1  11    2.18    2.51
  -1   1  11   20.80    1.76
  -1   1  11   18.26    1.93
  -1   1  11   22.27    2.96
  -1   1  11   19.12    1.92
  -1   1  11   17.89    2.44
  -1   1  11   15.99    3.61
   0   1  11   -0.98    0.78
   0   1  11   -0.01    0.42
   0   1  11   -0.67    0.60
   0   1  11    0.41    1.26
   0   1  11   -0.39    0.31
   1   1  11  239.91   17.57
   1   1  11  211.47   17.29
   1   1  11  204.43   17.14
   2   1  11   52.72    4.52
   2   1  11   53.76    4.51
   2   1  11   58.70    5.42
   3   1  11   33.57    3.15
   3   1  11   36.66    3.24
   3   1  11   42.13    4.77
   4   1  11    9.47    3.01
   5   1  11    4.18    3.04
   8  -2 -11  115.86    9.74
  -8   2  11  117.97   11.43
  -8   2  11   97.32   11.08
  -7   2  11   11.10    4.01
  -7   2  11    3.84    3.90
   6  -2 -11  102.56    8.49
  -6   2  11  113.33   10.63
  -6   2  11   93.81   10.91
   5  -2 -11   27.24    2.88
  -5   2  11   32.64    5.31
  -5   2  11   33.12    4.63
  -4   2  11   35.49    5.05
  -4   2  11   42.29    6.49
  -3   2  11   13.76    1.44
  -3   2  11   17.36    2.84
  -3   2  11    9.87    3.44
  -3   2  11   22.91    3.88
  -2   2  11   61.48    5.34
  -2   2  11   39.11    6.76
  -2   2  11   52.94    5.23
  -1   2  11  128.97   10.46
  -1   2  11  122.52   12.14
  -1   2  11  140.99   10.86
  -1   2  11  125.80   10.71
   0   2  11    3.24    1.07
   0   2  11    0.17    1.55
   0   2  11    2.23    0.90
   1   2  11   25.96    2.85
   1   2  11   17.56    2.30
   2   2  11    8.58    1.24
   2   2  11    8.12    1.92
   3   2  11  127.63   10.61
   3   2  11  110.68    9.48
   4   2  11   15.32    3.44
   5   2  11   16.62    3.50
   7  -3 -11   25.04    3.45
  -7   3  11   17.62    4.49
  -7   3  11   18.01    4.61
   6  -3 -11    1.91    1.28
  -6   3  11   -2.12    3.50
  -6   3  11   -0.90    3.20
   5  -3 -11    8.85    1.25
  -5   3  11    4.64    3.72
  -5   3  11    9.06    3.42
  -4   3  11   11.55    3.06
  -4   3  11    7.81    3.57
  -3   3  11   89.92   10.25
  -3   3  11  108.57    9.33
  -2   3  11   -5.51    2.77
  -2   3  11    0.41    1.70
  -1   3  11   52.97    4.73
  -1   3  11   56.28    5.28
  -1   3  11   49.54    5.53
   0   3  11   61.72    5.24
   0   3  11   55.78    5.36
   0   3  11   51.02    5.77
   1   3  11   -0.37    1.13
   1   3  11   -0.37    1.24
   2   3  11   33.20    3.57
   2   3  11   42.08    4.49
   3   3  11   70.49    6.55
   3   3  11   87.37    7.82
   4   3  11    9.81    3.18
   7  -4 -11   13.43    4.01
  -7   4  11   17.27    4.18
  -7   4  11    2.89    3.79
   6  -4 -11   17.50    3.01
  -6   4  11   16.60    4.44
  -6   4  11   26.29    4.75
  -5   4  11    5.24    3.23
  -5   4  11   -4.00    3.29
  -4   4  11   -2.56    2.68
  -4   4  11   -3.52    3.18
  -3   4  11  159.53   13.28
  -3   4  11  140.97   14.15
  -2   4  11   -0.66    2.33
  -2   4  11   -1.51    3.20
  -1   4  11  197.16   16.43
  -1   4  11  213.28   16.86
   0   4  11   80.41    7.83
   0   4  11   90.51    7.62
   1   4  11  329.94   25.41
   1   4  11  304.89   25.22
   2   4  11   54.98    5.52
   2   4  11   40.84    4.71
   3   4  11  113.96   10.45
  -6   5  11   -2.20    3.03
  -6   5  11    4.50    3.63
  -5   5  11   12.64    3.79
  -5   5  11   19.63    4.53
  -4   5  11   11.45    3.67
  -4   5  11    9.01    4.22
  -3   5  11   58.05    8.59
  -3   5  11   76.07    7.96
  -2   5  11    0.43    2.60
  -1   5  11   72.23    6.96
  -1   5  11   86.36    7.93
   0   5  11   22.59    3.75
   0   5  11   24.70    3.62
   1   5  11  184.87   14.83
   1   5  11  167.03   14.71
   2   5  11    0.46    2.13
   2   5  11    1.25    1.86
  -4   6  11   27.74    5.47
  -4   6  11   44.88    6.52
  -3   6  11  100.33   10.73
  -3   6  11  103.93   10.48
  -2   6  11   39.03    6.31
  -1   6  11   10.14    3.56
  -1   6  11   11.84    2.35
   0   6  11    3.42    2.00
   0   6  11    4.29    3.24
   1   6  11   -2.81    1.94
   1   6  11    0.57    2.43
  -3  -9  12    4.45    3.01
  -2  -9  12  130.35   12.10
  -1  -9  12   32.91    5.52
  -1  -9  12   41.88    5.78
  -4  -8  12  152.85   13.99
  -3  -8  12    9.68    3.57
  -3  -8  12    4.86    3.43
  -2  -8  12   36.13    5.93
  -2  -8  12   41.88    6.32
  -1  -8  12    4.71    2.93
  -1  -8  12    5.39    2.46
   0  -8  12    0.03    2.20
   0  -8  12   -2.12    2.16
   1  -8  12   65.97    7.63
   2  -8  12    3.61    2.69
  -6  -7  12   -5.05    3.01
  -5  -7  12   14.94    4.08
  -5  -7  12    7.65    3.08
  -4  -7  12   23.69    4.58
  -4  -7  12   25.35    4.46
  -3  -7  12    1.57    2.77
  -3  -7  12   -2.54    2.77
  -2  -7  12   21.82    3.58
  -2  -7  12   21.60    4.15
  -1  -7  12   -0.61    2.42
  -1  -7  12    5.10    2.00
   0  -7  12    7.43    2.40
   0  -7  12    0.47    1.73
   1  -7  12    5.51    3.04
   1  -7  12    5.15    1.67
   2  -7  12   57.50    7.07
   3  -7  12   35.53    5.38
  -6  -6  12   33.25    5.36
  -6  -6  12   16.81    3.51
  -5  -6  12   12.56    4.13
  -5  -6  12    6.42    3.23
  -4  -6  12    1.83    3.10
  -4  -6  12    0.82    2.95
  -3  -6  12   -0.62    2.59
  -3  -6  12   -0.96    2.34
  -2  -6  12    5.30    2.19
  -2  -6  12    1.16    2.68
  -1  -6  12    4.20    2.51
  -1  -6  12    8.50    2.00
   0  -6  12  188.07   16.08
   0  -6  12  191.84   15.35
   1  -6  12    0.10    2.44
   1  -6  12    0.87    1.31
   1  -6  12    4.27    1.85
   2  -6  12  309.83   27.06
   2  -6  12  351.33   27.02
   3  -6  12    3.42    2.97
   3  -6  12    2.90    3.26
   4  -6  12   -0.16    3.23
   4  -6  12    1.31    2.79
  -7  -5  12   26.21    4.59
  -6  -5  12    4.55    4.33
  -6  -5  12   11.90    3.44
  -5  -5  12   19.45    4.27
  -5  -5  12   27.97    4.72
  -4  -5  12    1.62    2.90
  -4  -5  12    1.31    4.42
  -3  -5  12   66.78    6.69
  -3  -5  12   62.60    7.45
  -2  -5  12   22.49    3.12
  -2  -5  12   12.60    1.97
  -2  -5  12   18.11    2.62
  -2  -5  12   17.88    3.59
  -1  -5  12   81.95    7.06
  -1  -5  12   77.95    6.96
   0  -5  12   83.83    7.03
   0  -5  12   81.50    8.17
   1  -5  12    9.39    2.50
   1  -5  12    7.42    1.38
   1  -5  12    7.59    2.61
   1  -5  12    6.91    1.99
   2  -5  12   60.29    7.26
   2  -5  12   71.17    6.36
   2  -5  12   74.90    7.63
   3  -5  12   22.87    3.92
   3  -5  12   19.82    3.96
   4  -5  12  132.27   11.46
   4  -5  12  101.71   11.68
  -7  -4  12    2.04    3.96
  -7  -4  12    1.82    2.88
  -6  -4  12   19.13    4.59
  -6  -4  12   15.42    4.03
  -5  -4  12   40.77    6.61
  -5  -4  12   47.69    6.64
  -4  -4  12  163.71   14.57
  -4  -4  12  174.19   15.24
  -3  -4  12  151.29   12.21
  -3  -4  12  135.87   11.70
  -3  -4  12  139.21   12.99
  -2  -4  12   -1.27    2.30
  -2  -4  12   -2.45    1.24
  -2  -4  12    0.25    1.47
  -1  -4  12    1.97    0.68
  -1  -4  12    3.33    1.08
  -1  -4  12    1.45    0.72
  -1  -4  12    1.77    1.16
  -1  -4  12    5.30    2.61
   0  -4  12    4.69    1.10
   0  -4  12    3.58    1.11
   0  -4  12    4.43    2.41
   1  -4  12   25.43    4.56
   1  -4  12   34.13    3.03
   2  -4  12   36.51    4.43
   2  -4  12   26.40    4.59
   2  -4  12   39.50    5.02
   3  -4  12    4.60    2.70
   3  -4  12    2.83    2.21
   3  -4  12    2.27    2.50
   4  -4  12    9.93    3.80
   4  -4  12   16.82    3.69
  -7  -3  12   91.35   10.23
  -7  -3  12   81.36    8.89
  -6  -3  12  104.98   11.10
  -6  -3  12  124.20   11.66
  -5  -3  12   -1.53    2.90
  -5  -3  12    0.50    2.84
  -4  -3  12    4.70    3.15
  -4  -3  12    6.90    2.54
  -3  -3  12   -1.33    2.59
  -3  -3  12    1.44    1.58
  -3  -3  12    4.96    1.87
  -2  -3  12  397.73   30.71
  -2  -3  12  363.03   31.51
  -2  -3  12  393.09   30.47
  -2  -3  12  396.97   30.46
  -1  -3  12   15.00    1.76
  -1  -3  12   20.49    2.36
  -1  -3  12   19.41    1.97
  -1  -3  12   19.66    3.74
  -1  -3  12   13.98    2.26
   0  -3  12   16.02    1.80
   0  -3  12   12.90    1.87
   0  -3  12   12.11    1.84
   0  -3  12   11.10    2.20
   0  -3  12   13.86    3.19
   1  -3  12    1.95    1.01
   1  -3  12    0.32    1.60
   1  -3  12    1.16    2.13
   1  -3  12   -0.20    1.25
   2  -3  12   18.31    3.21
   2  -3  12   18.76    3.17
   2  -3  12   15.93    2.93
   3  -3  12   40.10    4.67
   3  -3  12   48.52    5.70
   3  -3  12   39.09    5.67
   4  -3  12    6.86    3.03
   4  -3  12    2.58    3.19
   5  -3  12   19.69    3.62
   5  -3  12   15.35    4.09
  -8  -2  12   59.76    8.58
  -8  -2  12   75.53    8.43
  -7  -2  12    7.61    4.26
  -7  -2  12   14.60    3.60
  -6  -2  12   20.98    4.58
  -6  -2  12   14.25    4.06
  -5  -2  12  145.76   13.56
  -4  -2  12    2.53    2.77
  -4  -2  12    3.80    2.39
  -4  -2  12   -0.03    1.27
  -3  -2  12    7.94    3.18
  -3  -2  12    6.24    2.13
  -3  -2  12    3.98    1.17
  -2  -2  12   17.09    3.89
  -2  -2  12   23.84    3.00
  -2  -2  12   19.55    2.47
  -2  -2  12   21.77    3.09
  -1  -2  12   35.98    3.39
  -1  -2  12   29.41    3.34
   0  -2  12   43.09    4.00
   0  -2  12   36.29    4.53
   0  -2  12   51.18    3.99
   0  -2  12   46.53    5.87
   0  -2  12   47.74    4.09
   1  -2  12    5.20    1.68
   1  -2  12    4.83    2.72
   1  -2  12    2.07    0.94
   1  -2  12    3.56    1.29
   2  -2  12   22.33    3.79
   2  -2  12   23.58    3.71
   2  -2  12   24.79    3.67
   3  -2  12    3.08    2.30
   3  -2  12    2.30    2.27
   3  -2  12    1.45    2.06
   4  -2  12    5.53    3.16
   4  -2  12    5.74    2.19
   5  -2  12    0.17    3.26
   5  -2  12   -1.53    2.10
  -8  -1  12    9.72    4.10
  -8  -1  12    6.21    3.75
  -7  -1  12   70.60    9.47
  -7  -1  12   76.59    8.91
  -6  -1  12    2.27    3.21
  -6  -1  12    7.15    3.80
  -5  -1  12    0.89    1.58
  -5  -1  12    2.84    3.01
  -4  -1  12   92.23    8.06
  -4  -1  12   76.04    6.82
  -4  -1  12   73.48    8.64
  -3  -1  12   45.18    4.42
  -3  -1  12   54.31    5.34
  -3  -1  12   45.69    6.87
  -3  -1  12   53.48    5.09
  -2  -1  12    1.40    0.92
  -2  -1  12    0.66    2.50
  -2  -1  12    2.86    1.56
  -2  -1  12    4.77    1.55
  -1  -1  12   11.97    1.57
  -1  -1  12    4.95    1.43
  -1  -1  12    8.54    1.11
  -1  -1  12    8.16    3.24
  -1  -1  12    9.46    1.56
  -1  -1  12    8.87    1.61
   0  -1  12   54.24    5.47
   0  -1  12   60.53    5.13
   0  -1  12   59.69    5.20
   0  -1  12   66.52    5.17
   1  -1  12   85.22    6.86
   1  -1  12   77.37    7.20
   1  -1  12   79.23    8.70
   1  -1  12   88.56    7.28
   2  -1  12    6.39    1.59
   2  -1  12    8.06    2.10
   2  -1  12   17.07    3.53
   3  -1  12   27.91    3.44
   3  -1  12   28.91    4.68
   3  -1  12   22.94    4.45
   4  -1  12    7.88    3.43
   4  -1  12   11.43    1.96
   5  -1  12   20.22    4.45
  -8   0  12   32.29    5.35
  -7   0  12   23.46    5.23
  -7   0  12   15.81    4.16
  -6   0  12   44.86    6.20
  -6   0  12   36.86    5.92
  -5   0  12   42.44    6.96
  -5   0  12   39.29    6.16
  -4   0  12  119.97   11.04
  -4   0  12  125.71   11.99
  -3   0  12    8.25    1.36
  -3   0  12   12.12    2.37
  -3   0  12    5.54    2.01
  -3   0  12    8.96    3.62
  -2   0  12   38.05    4.34
  -2   0  12   43.41    4.44
  -2   0  12   43.29    6.12
  -1   0  12   19.46    1.87
  -1   0  12   15.54    4.00
  -1   0  12   20.37    2.04
  -1   0  12   19.84    2.83
  -1   0  12   20.68    2.52
   0   0  12   40.37    3.55
   0   0  12   43.09    3.58
   0   0  12   40.75    3.84
   0   0  12   36.79    3.57
   0   0  12   25.09    4.93
   1   0  12    1.05    0.80
   1   0  12   -0.99    2.83
   1   0  12    0.59    1.04
   1   0  12    0.03    0.77
   2   0  12   67.94    8.66
   2   0  12   80.19    7.32
   2   0  12   81.11    6.57
   3   0  12    0.74    3.37
   3   0  12   -0.14    2.18
   4   0  12   59.40    7.45
   4   0  12   72.19    8.00
  -7   1  12    5.75    4.09
  -7   1  12    3.62    3.43
  -6   1  12  209.67   19.83
  -6   1  12  239.85   19.73
  -5   1  12   19.66    4.14
  -5   1  12   16.32    4.07
  -4   1  12   64.65    6.99
  -4   1  12   56.47    7.89
  -3   1  12    9.44    2.35
  -3   1  12    9.62    3.74
  -3   1  12    7.74    3.41
  -2   1  12   29.47    5.52
  -2   1  12   42.43    4.52
  -2   1  12   47.23    4.55
  -1   1  12   73.60    6.71
  -1   1  12   90.35    6.88
  -1   1  12   72.96    6.25
  -1   1  12   70.23    8.82
   0   1  12   39.48    3.69
   0   1  12   42.06    3.70
   0   1  12   31.80    5.45
   1   1  12    8.22    3.60
   1   1  12    4.02    1.13
   1   1  12    7.23    1.52
   2   1  12   15.51    3.13
   2   1  12   12.69    4.10
   3   1  12   24.57    5.33
   3   1  12   38.22    5.09
   4   1  12   34.55    5.90
   4   1  12   52.54    6.43
  -7   2  12    1.16    3.90
  -7   2  12    2.69    3.39
  -6   2  12    0.62    3.61
  -6   2  12    0.66    3.36
  -5   2  12   12.63    3.93
  -5   2  12   10.93    4.02
  -4   2  12   63.87    8.55
  -4   2  12   76.40    7.83
  -3   2  12   34.78    4.81
  -3   2  12   27.42    5.22
  -2   2  12   11.30    2.80
  -2   2  12   13.39    3.99
  -2   2  12   16.33    2.70
  -1   2  12    0.73    0.67
  -1   2  12   -0.60    1.45
  -1   2  12   -4.05    3.22
   0   2  12   60.82    5.10
   0   2  12   51.78    5.09
   0   2  12   52.64    7.94
   1   2  12  261.65   18.94
   1   2  12  217.19   18.55
   1   2  12  220.40   20.52
   2   2  12   23.70    3.79
   3   2  12    4.38    2.50
   4   2  12   57.39    6.97
  -6   3  12   37.71    5.96
  -6   3  12   24.45    5.01
  -5   3  12   11.10    3.91
  -5   3  12    4.27    3.46
  -4   3  12   10.77    4.21
  -3   3  12    9.22    3.77
  -3   3  12    6.86    3.22
  -2   3  12    1.28    3.52
  -2   3  12   10.93    2.75
  -1   3  12   14.94    2.09
  -1   3  12   15.25    4.38
  -1   3  12   20.33    2.92
   0   3  12    3.87    1.70
   0   3  12    3.50    1.26
   1   3  12   32.84    3.60
   2   3  12   11.01    2.59
   3   3  12   -0.68    2.25
  -6   4  12   33.44    5.55
  -5   4  12   42.19    6.56
  -5   4  12   38.58    6.10
  -4   4  12    6.19    3.67
  -4   4  12   -0.06    3.20
  -3   4  12   14.37    4.35
  -3   4  12   15.22    3.79
  -2   4  12   29.08    5.55
  -2   4  12   34.11    5.48
  -1   4  12   25.82    5.39
  -1   4  12   22.50    2.76
   0   4  12    1.54    3.21
   1   4  12   25.96    3.73
   1   4  12   20.82    4.25
   2   4  12    0.40    1.96
  -4   5  12   13.92    4.13
  -4   5  12   10.86    3.91
  -3   5  12   -3.52    3.51
  -3   5  12    2.61    3.56
  -2   5  12   -2.12    3.28
  -2   5  12   -0.08    3.46
  -1   5  12    4.82    2.95
   0   5  12  384.37   30.13
   0   5  12  368.14   29.85
   1   5  12   -2.21    1.76
  -3  -8  13    3.27    3.07
  -3  -8  13   -2.14    3.12
  -2  -8  13   26.40    3.99
  -2  -8  13   31.77    5.05
  -1  -8  13    4.98    2.78
  -4  -7  13   -2.57    3.14
  -4  -7  13    0.76    3.59
  -3  -7  13   -0.64    2.77
  -3  -7  13    0.98    3.40
  -2  -7  13    0.18    3.37
  -2  -7  13   -4.47    3.59
  -1  -7  13  186.19   14.10
  -1  -7  13  146.89   14.82
   0  -7  13   13.76    2.77
   1  -7  13   15.58    3.56
   2  -7  13    5.89    3.04
  -5  -6  13   -2.52    2.89
  -5  -6  13    6.16    4.06
  -4  -6  13   82.86    9.45
  -4  -6  13   91.06    9.76
  -3  -6  13    9.17    3.62
  -2  -6  13   46.19    5.10
  -2  -6  13   44.69    7.28
  -1  -6  13   53.07    7.10
  -1  -6  13   46.95    4.97
   0  -6  13    9.66    3.17
   1  -6  13    0.90    2.01
   1  -6  13    0.12    2.71
   1  -6  13   -0.13    1.74
   2  -6  13    1.74    2.42
   2  -6  13    2.05    2.80
  -6  -5  13  120.30   12.06
  -6  -5  13  139.39   13.25
  -5  -5  13    1.24    4.06
  -5  -5  13   -3.17    2.96
  -4  -5  13  157.33   13.82
  -4  -5  13  148.31   14.05
  -3  -5  13   20.84    3.63
  -3  -5  13   27.74    4.70
  -2  -5  13  237.67   19.77
  -2  -5  13  255.08   21.00
  -1  -5  13    3.21    1.45
  -1  -5  13    3.79    3.25
   0  -5  13   24.90    4.11
   0  -5  13   38.86    5.69
   0  -5  13   26.36    3.15
   1  -5  13    7.19    1.96
   1  -5  13   10.97    3.21
   1  -5  13   12.41    2.74
   2  -5  13   11.15    2.63
   2  -5  13   10.75    3.46
   3  -5  13    1.95    2.70
   3  -5  13   -1.06    3.01
  -6  -4  13   40.08    6.50
  -6  -4  13   46.66    6.93
  -5  -4  13   52.23    7.47
  -5  -4  13   38.87    6.72
  -4  -4  13   -0.03    4.92
  -4  -4  13    3.60    3.21
  -3  -4  13   78.66    7.60
  -3  -4  13   74.60    8.66
  -2  -4  13   16.01    2.28
  -2  -4  13   11.32    3.76
  -1  -4  13    8.58    1.56
  -1  -4  13    6.45    3.18
   0  -4  13   43.02    5.84
   0  -4  13   25.76    2.96
   0  -4  13   27.49    4.62
   1  -4  13   -2.19    1.36
   1  -4  13   -0.58    2.41
   1  -4  13   -0.01    2.71
   2  -4  13    6.59    2.19
   2  -4  13    3.67    2.10
   2  -4  13    8.30    3.06
   3  -4  13    5.20    3.24
   3  -4  13    4.97    2.84
  -7  -3  13    0.85    4.11
  -7  -3  13   -1.09    4.05
  -6  -3  13    9.60    3.29
  -6  -3  13    9.19    4.57
  -5  -3  13    8.74    3.90
  -5  -3  13   -5.12    3.26
  -4  -3  13    2.63    3.38
  -4  -3  13    0.19    2.87
  -3  -3  13   66.09    6.47
  -3  -3  13   52.52    7.67
  -2  -3  13   82.69    9.14
  -2  -3  13   75.89    6.98
  -1  -3  13   29.53    3.09
  -1  -3  13   23.39    4.76
   0  -3  13   17.48    3.13
   0  -3  13   19.96    4.28
   0  -3  13   20.09    2.21
   1  -3  13   -1.15    1.20
   1  -3  13   -0.07    2.17
   2  -3  13   -2.29    2.22
   2  -3  13   -0.78    1.81
   2  -3  13   -1.09    2.55
   3  -3  13   29.77    5.15
   3  -3  13   27.20    5.26
   4  -3  13    9.37    2.92
   4  -3  13   11.60    3.52
  -7  -2  13   10.32    3.81
  -7  -2  13    7.88    4.71
  -6  -2  13   81.68    9.48
  -6  -2  13  104.85   10.68
  -5  -2  13   -1.15    2.89
  -5  -2  13   -1.29    3.69
  -4  -2  13  133.96   11.54
  -4  -2  13  107.15   11.84
  -3  -2  13   -0.31    2.24
  -3  -2  13   -0.38    3.18
  -2  -2  13  237.65   21.28
  -2  -2  13  253.86   19.88
  -1  -2  13    0.10    1.61
  -1  -2  13    2.87    1.40
  -1  -2  13   -0.03    3.02
   0  -2  13    2.77    1.71
   0  -2  13    1.15    0.72
   0  -2  13    1.16    3.14
   1  -2  13   41.03    4.18
   1  -2  13   41.79    4.76
   1  -2  13   45.49    6.89
   2  -2  13    4.46    1.90
   2  -2  13    1.73    1.97
   3  -2  13    0.63    2.44
   3  -2  13    2.55    2.58
   4  -2  13    1.50    2.96
  -7  -1  13  282.84   24.38
  -7  -1  13  283.89   24.48
  -6  -1  13  241.55   19.47
  -6  -1  13  193.46   18.69
  -5  -1  13   42.67    6.27
  -5  -1  13   47.08    7.57
  -4  -1  13  248.31   19.53
  -4  -1  13  210.69   19.97
  -3  -1  13    8.74    2.73
  -3  -1  13   13.39    4.06
  -2  -1  13   45.53    4.76
  -2  -1  13   45.04    7.23
  -1  -1  13    6.12    1.39
  -1  -1  13   10.63    3.48
  -1  -1  13    5.68    1.49
   0  -1  13   -0.32    3.25
   0  -1  13    2.92    1.22
   0  -1  13   -0.28    0.66
   1  -1  13   13.84    4.30
   1  -1  13   13.10    1.87
   1  -1  13   11.61    2.15
   2  -1  13   11.66    2.21
   2  -1  13    7.65    2.16
   2  -1  13   10.87    4.03
   3  -1  13   -0.44    2.90
   3  -1  13   -3.15    2.24
  -7   0  13   86.71   10.25
  -7   0  13   80.80   12.64
  -6   0  13    6.49    4.55
  -6   0  13   -5.01    3.08
  -5   0  13   -0.07    3.64
  -5   0  13    4.12    3.54
  -4   0  13    9.86    3.42
  -4   0  13   -1.01    3.23
  -3   0  13   20.70    3.50
  -3   0  13   23.99    4.66
  -2   0  13   13.92    4.52
  -2   0  13   10.90    2.14
  -2   0  13   11.32    1.58
  -1   0  13    1.43    1.37
  -1   0  13    1.36    3.14
   0   0  13    2.67    3.64
   0   0  13    3.71    0.83
   1   0  13    1.49    1.09
   1   0  13    3.30    3.86
   2   0  13   -2.12    3.86
   3   0  13  105.88    9.38
   3   0  13   84.91   10.41
  -6   1  13   72.02    9.61
  -6   1  13   70.02    8.26
  -5   1  13    4.81    3.79
  -5   1  13   13.53    4.19
  -4   1  13    3.31    3.29
  -4   1  13   -2.77    3.41
  -3   1  13   66.58    6.83
  -3   1  13   51.22    8.40
  -2   1  13    0.12    3.47
  -2   1  13   -3.79    1.77
  -1   1  13   -1.32    3.63
  -1   1  13    2.27    1.48
   0   1  13   66.64    8.90
   0   1  13   66.35    5.67
   1   1  13   10.04    4.60
   1   1  13   15.18    2.36
   2   1  13   -0.91    1.52
   2   1  13   -0.81    4.33
   3   1  13   -1.16    2.13
   3   1  13    0.50    3.90
  -6   2  13   57.15    8.83
  -6   2  13   65.02    8.20
  -5   2  13    3.97    3.96
  -5   2  13   -1.98    3.45
  -4   2  13   24.75    5.09
  -4   2  13   16.84    4.22
  -3   2  13   -1.38    3.55
  -2   2  13    9.56    3.89
  -2   2  13   -0.69    2.08
  -1   2  13   15.91    2.48
  -1   2  13   16.25    4.68
   0   2  13    0.70    3.69
   0   2  13    0.89    1.02
   1   2  13    8.05    4.25
   2   2  13  175.87   13.85
   2   2  13  143.62   15.87
  -5   3  13  255.02   21.07
  -5   3  13  228.75   21.31
  -4   3  13   11.77    4.41
  -4   3  13   19.69    4.24
  -3   3  13   17.88    4.36
  -3   3  13   11.22    3.63
  -2   3  13   12.63    4.02
  -2   3  13    7.74    2.79
  -1   3  13  298.26   25.73
  -1   3  13  303.34   24.21
   0   3  13   11.54    4.64
   1   3  13  116.17   14.32
   1   3  13  159.51   12.22
  -3   4  13   59.64    8.03
  -3   4  13   54.88    7.66
  -2   4  13    1.67    2.91
  -2   4  13   -4.44    3.59
  -1   4  13   21.08    3.54
  -1   4  13   20.48    4.50
   0   4  13    1.88    3.74
  -4  -6  14    5.98    3.24
  -4  -6  14    2.01    3.08
  -3  -6  14  121.45   12.40
  -3  -6  14  119.27   10.87
  -2  -6  14   24.84    4.99
  -1  -6  14  255.45   21.82
   0  -6  14    2.98    2.93
   0  -6  14   10.90    3.19
   1  -6  14    1.37    2.79
  -5  -5  14   31.37    4.95
  -5  -5  14   21.88    4.37
  -4  -5  14    3.90    3.15
  -4  -5  14    5.77    3.08
  -3  -5  14    1.01    3.81
  -3  -5  14    3.94    2.62
  -2  -5  14    1.53    3.80
  -1  -5  14    0.46    3.77
   0  -5  14   80.20    9.23
   0  -5  14  101.52    9.77
   1  -5  14    2.42    2.93
   1  -5  14   -0.67    2.59
  -5  -4  14   -0.55    3.90
  -5  -4  14    6.00    3.30
  -4  -4  14   25.14    4.88
  -4  -4  14   21.38    4.12
  -3  -4  14   19.65    4.60
  -3  -4  14   21.57    3.21
  -2  -4  14   14.55    4.68
  -1  -4  14    7.07    4.10
   0  -4  14   88.68    8.95
   1  -4  14   -2.64    2.80
   1  -4  14   -3.96    2.60
   2  -4  14    7.35    2.75
  -5  -3  14  175.15   15.47
  -5  -3  14  156.51   15.18
  -4  -3  14   41.83    7.20
  -4  -3  14   45.82    6.51
  -3  -3  14    8.14    2.36
  -3  -3  14    6.52    4.03
  -2  -3  14  243.27   21.41
  -1  -3  14   50.67    5.81
  -1  -3  14   55.25    8.44
   0  -3  14   -3.34    3.67
   1  -3  14    0.93    2.09
   1  -3  14   -6.82    3.40
   2  -3  14   -3.46    3.48
   2  -3  14    1.22    2.29
  -6  -2  14  233.31   18.67
  -6  -2  14  176.57   19.15
  -5  -2  14   28.91    5.13
  -5  -2  14   34.90    5.63
  -4  -2  14   66.86    9.07
  -3  -2  14   32.13    4.79
  -3  -2  14   29.15    5.49
  -2  -2  14   25.70    5.37
  -1  -2  14   75.02    7.29
  -1  -2  14   98.60   10.58
   0  -2  14   79.21    9.63
   0  -2  14   71.70    6.89
   1  -2  14   24.87    5.45
   2  -2  14   62.35    7.89
  -5  -1  14   59.83    8.11
  -5  -1  14   81.62    9.30
  -4  -1  14    0.50    3.08
  -4  -1  14   -6.60    3.28
  -3  -1  14   -0.02    2.54
  -3  -1  14    0.87    3.78
  -2  -1  14   59.21    8.85
  -1  -1  14   97.25   10.77
   0  -1  14  228.04   20.48
   1  -1  14   12.97    4.89
   2  -1  14   75.86    9.37
  -5   0  14   67.58    7.85
  -5   0  14   52.99    7.49
  -4   0  14   11.25    3.46
  -4   0  14    0.30    3.82
  -3   0  14   39.36    6.35
  -3   0  14   40.81    5.40
  -2   0  14  162.58   15.87
  -1   0  14   23.08    5.18
   0   0  14   32.56    5.94
   1   0  14    3.45    4.57
   2   0  14   29.48    5.46
  -5   1  14   58.98    8.65
  -5   1  14   72.22    8.89
  -4   1  14   13.48    4.02
  -4   1  14   13.74    3.66
  -3   1  14  120.66   12.24
  -2   1  14   -0.85    3.95
  -1   1  14   33.88    5.90
   0   1  14   10.79    4.46
   1   1  14   29.85    5.53
  -4   2  14  271.63   25.26
  -4   2  14  313.56   24.54
  -3   2  14  110.19    9.93
  -3   2  14   94.84   10.76
  -2   2  14  238.05   20.92
  -1   2  14   49.59    7.59
   0   2  14  271.76   23.38
  -3  -4  15   10.10    4.01
  -2  -4  15   22.52    5.43
  -1  -4  15    0.44    2.48
  -1  -4  15    6.83    4.51
  -3  -3  15   -0.80    3.65
  -2  -3  15    5.50    4.49
  -1  -3  15   16.75    5.01
   0  -3  15  113.02   12.32
  -4  -2  15   18.50    4.69
  -3  -2  15   92.36   10.04
  -2  -2  15    0.19    4.04
  -1  -2  15    0.20    4.56
   0  -2  15  181.25   17.13
  -3  -1  15   -3.50    3.66
  -2  -1  15   25.07    5.03
  -1  -1  15   51.74    8.33
   0  -1  15    3.89    4.66
  -2   0  15  163.57   15.44
  -1   0  15    8.97    4.35
   0   0   0    0.00    0.00


 _exptl_absorpt_process_details 'SADABS 2014/5'
 _exptl_absorpt_correction_type   multi-scan
 _exptl_absorpt_correction_T_max  0.7461
 _exptl_absorpt_correction_T_min  0.5134
 _exptl_special_details
)
 The following wavelength and cell were deduced by SADABS from the
 direction cosines etc. They are given here for emergency use only:
 CELL 0.71083    7.583    8.605   10.724  100.722  100.016   91.300
)

_computing_structure_solution     'SHELXT 2014/5 (Sheldrick, 2014)'
;
_shelx_hkl_checksum              30874
loop_
_space_group_symop_operation_xyz
'x, y, z'
'-x, -y, -z'
loop_
_atom_site_label
_atom_site_type_symbol
_atom_site_fract_x
_atom_site_fract_y
_atom_site_fract_z
_atom_site_U_iso_or_equiv
_atom_site_adp_type
_atom_site_occupancy
_atom_site_site_symmetry_order
_atom_site_calc_flag
_atom_site_refinement_flags_posn
_atom_site_refinement_flags_adp
_atom_site_refinement_flags_occupancy
_atom_site_disorder_assembly
_atom_site_disorder_group
C1 C 0.24190(13) 0.54677(13) 0.65784(10) 0.0104(2) Uani 1 1 d . . . . .
C2 C 0.25439(14) 0.64958(13) 0.57311(11) 0.0128(2) Uani 1 1 d . . . . .
H2 H 0.257431 0.761094 0.602409 0.015 Uiso 1 1 calc R U . . .
C3 C 0.26235(14) 0.58682(13) 0.44501(11) 0.0131(2) Uani 1 1 d . . . . .
H3 H 0.273360 0.655659 0.386622 0.016 Uiso 1 1 calc R U . . .
C4 C 0.25425(13) 0.42416(13) 0.40258(10) 0.0112(2) Uani 1 1 d . . . . .
C5 C 0.24066(13) 0.31926(13) 0.48651(10) 0.0111(2) Uani 1 1 d . . . . .
C6 C 0.23647(14) 0.38278(13) 0.61491(10) 0.0113(2) Uani 1 1 d . . . . .
H6 H 0.229857 0.314035 0.674028 0.014 Uiso 1 1 calc R U . . .
C7 C 0.23914(16) 0.14069(14) 0.44794(11) 0.0157(2) Uani 1 1 d . . . . .
C8 C 0.14329(14) 0.53558(13) 0.86761(10) 0.0106(2) Uani 1 1 d . . . . .
C9 C 0.30798(14) 0.75690(13) 1.00115(10) 0.0112(2) Uani 1 1 d . . . . .
C10 C 0.33611(14) 0.74607(12) 0.86232(10) 0.0110(2) Uani 1 1 d . . . . .
C11 C 0.48798(15) 0.74934(14) 1.09002(12) 0.0171(2) Uani 1 1 d . . . . .
H11A H 0.467121 0.744830 1.177004 0.026 Uiso 1 1 calc R U . . .
H11B H 0.564666 0.843951 1.093347 0.026 Uiso 1 1 calc R U . . .
H11C H 0.547241 0.654394 1.056516 0.026 Uiso 1 1 calc R U . . .
C12 C 0.21328(16) 0.90746(14) 1.04391(12) 0.0180(2) Uani 1 1 d . . . . .
H12A H 0.104472 0.912190 0.980573 0.027 Uiso 1 1 calc R U . . .
H12B H 0.293849 1.000558 1.050248 0.027 Uiso 1 1 calc R U . . .
H12C H 0.180792 0.906177 1.128322 0.027 Uiso 1 1 calc R U . . .
F1 F 0.35668(10) 0.09438(9) 0.37054(7) 0.02035(17) Uani 1 1 d . . . . .
F2 F 0.07740(11) 0.07492(9) 0.38753(8) 0.02534(19) Uani 1 1 d . . . . .
F3 F 0.28403(12) 0.07429(9) 0.55227(7) 0.02620(19) Uani 1 1 d . . . . .
O1 O 0.34960(12) 0.44487(11) 0.21301(8) 0.01895(19) Uani 1 1 d . . . . .
O2 O 0.15117(12) 0.25542(11) 0.20720(8) 0.02001(19) Uani 1 1 d . . . . .
O3 O 0.03540(10) 0.42141(9) 0.82576(8) 0.01345(17) Uani 1 1 d . . . . .
O4 O 0.42359(12) 0.83789(10) 0.82200(8) 0.01718(18) Uani 1 1 d . . . . .
N1 N 0.25298(13) 0.36944(12) 0.26399(9) 0.01354(19) Uani 1 1 d . . . . .
N2 N 0.24122(12) 0.60772(11) 0.78963(9) 0.01067(18) Uani 1 1 d . . . . .
N3 N 0.19009(12) 0.61620(11) 0.98879(9) 0.01246(19) Uani 1 1 d . . . . .
H3N H 0.132(2) 0.601(2) 1.0517(17) 0.021(4) Uiso 1 1 d . . . . .
loop_
_atom_site_aniso_label
_atom_site_aniso_U_11
_atom_site_aniso_U_22
_atom_site_aniso_U_33
_atom_site_aniso_U_23
_atom_site_aniso_U_13
_atom_site_aniso_U_12
C1 0.0078(4) 0.0127(5) 0.0096(5) -0.0004(4) 0.0015(3) -0.0015(3)
C2 0.0139(5) 0.0122(5) 0.0119(5) 0.0016(4) 0.0019(4) -0.0007(4)
C3 0.0143(5) 0.0139(5) 0.0111(5) 0.0033(4) 0.0014(4) -0.0013(4)
C4 0.0086(4) 0.0155(5) 0.0085(5) 0.0006(4) 0.0009(3) -0.0004(3)
C5 0.0091(4) 0.0119(5) 0.0112(5) -0.0001(4) 0.0019(3) -0.0012(3)
C6 0.0109(4) 0.0120(5) 0.0108(5) 0.0013(4) 0.0028(4) -0.0023(3)
C7 0.0194(5) 0.0143(5) 0.0132(5) 0.0002(4) 0.0051(4) -0.0009(4)
C8 0.0097(4) 0.0122(5) 0.0099(5) 0.0017(4) 0.0029(3) -0.0006(3)
C9 0.0111(4) 0.0116(4) 0.0097(5) 0.0001(4) 0.0013(3) -0.0032(3)
C10 0.0106(4) 0.0099(4) 0.0111(5) -0.0004(4) 0.0012(4) -0.0013(3)
C11 0.0143(5) 0.0192(5) 0.0157(5) 0.0035(4) -0.0026(4) -0.0043(4)
C12 0.0177(5) 0.0160(5) 0.0177(5) -0.0043(4) 0.0045(4) 0.0007(4)
F1 0.0255(4) 0.0181(3) 0.0182(4) -0.0005(3) 0.0098(3) 0.0067(3)
F2 0.0240(4) 0.0189(4) 0.0290(4) -0.0055(3) 0.0057(3) -0.0100(3)
F3 0.0487(5) 0.0142(3) 0.0176(4) 0.0049(3) 0.0089(3) 0.0041(3)
O1 0.0205(4) 0.0254(4) 0.0136(4) 0.0067(3) 0.0071(3) 0.0035(3)
O2 0.0232(4) 0.0185(4) 0.0135(4) -0.0031(3) -0.0030(3) -0.0006(3)
O3 0.0134(3) 0.0143(4) 0.0114(4) -0.0006(3) 0.0027(3) -0.0057(3)
O4 0.0203(4) 0.0150(4) 0.0157(4) 0.0011(3) 0.0049(3) -0.0074(3)
N1 0.0133(4) 0.0166(4) 0.0099(4) 0.0015(3) 0.0006(3) 0.0034(3)
N2 0.0118(4) 0.0109(4) 0.0086(4) -0.0005(3) 0.0029(3) -0.0033(3)
N3 0.0138(4) 0.0146(4) 0.0081(4) -0.0002(3) 0.0030(3) -0.0060(3)
loop_
_atom_type_symbol
_atom_type_description
_atom_type_scat_dispersion_real
_atom_type_scat_dispersion_imag
_atom_type_scat_source
C C 0.0033 0.0016 'International Tables Vol C Tables 4.2.6.8 and 6.1.1.4'
H H 0.0000 0.0000 'International Tables Vol C Tables 4.2.6.8 and 6.1.1.4'
N N 0.0061 0.0033 'International Tables Vol C Tables 4.2.6.8 and 6.1.1.4'
O O 0.0106 0.0060 'International Tables Vol C Tables 4.2.6.8 and 6.1.1.4'
F F 0.0171 0.0103 'International Tables Vol C Tables 4.2.6.8 and 6.1.1.4'
loop_
_geom_angle_atom_site_label_1
_geom_angle_atom_site_label_2
_geom_angle_atom_site_label_3
_geom_angle
_geom_angle_site_symmetry_1
_geom_angle_site_symmetry_3
_geom_angle_publ_flag
C2 C1 C6 120.57(10) . . ?
C2 C1 N2 120.18(10) . . ?
C6 C1 N2 119.21(10) . . ?
C3 C2 C1 119.13(10) . . ?
C3 C2 H2 120.4 . . ?
C1 C2 H2 120.4 . . ?
C4 C3 C2 120.04(10) . . ?
C4 C3 H3 120.0 . . ?
C2 C3 H3 120.0 . . ?
C3 C4 C5 121.47(10) . . ?
C3 C4 N1 115.94(10) . . ?
C5 C4 N1 122.54(10) . . ?
C6 C5 C4 118.17(10) . . ?
C6 C5 C7 117.56(10) . . ?
C4 C5 C7 124.20(10) . . ?
C5 C6 C1 120.60(10) . . ?
C5 C6 H6 119.7 . . ?
C1 C6 H6 119.7 . . ?
F1 C7 F2 107.51(9) . . ?
F1 C7 F3 106.54(10) . . ?
F2 C7 F3 106.31(10) . . ?
F1 C7 C5 112.36(9) . . ?
F2 C7 C5 112.88(10) . . ?
F3 C7 C5 110.84(9) . . ?
O3 C8 N3 128.69(10) . . ?
O3 C8 N2 123.92(10) . . ?
N3 C8 N2 107.38(9) . . ?
N3 C9 C10 101.37(8) . . ?
N3 C9 C12 110.73(9) . . ?
C10 C9 C12 110.04(9) . . ?
N3 C9 C11 112.00(9) . . ?
C10 C9 C11 110.09(9) . . ?
C12 C9 C11 112.11(9) . . ?
O4 C10 N2 126.05(10) . . ?
O4 C10 C9 127.01(9) . . ?
N2 C10 C9 106.94(9) . . ?
C9 C11 H11A 109.5 . . ?
C9 C11 H11B 109.5 . . ?
H11A C11 H11B 109.5 . . ?
C9 C11 H11C 109.5 . . ?
H11A C11 H11C 109.5 . . ?
H11B C11 H11C 109.5 . . ?
C9 C12 H12A 109.5 . . ?
C9 C12 H12B 109.5 . . ?
H12A C12 H12B 109.5 . . ?
C9 C12 H12C 109.5 . . ?
H12A C12 H12C 109.5 . . ?
H12B C12 H12C 109.5 . . ?
O1 N1 O2 124.90(10) . . ?
O1 N1 C4 117.29(9) . . ?
O2 N1 C4 117.76(9) . . ?
C10 N2 C1 125.47(9) . . ?
C10 N2 C8 110.21(9) . . ?
C1 N2 C8 124.32(9) . . ?
C8 N3 C9 113.72(9) . . ?
C8 N3 H3N 122.4(11) . . ?
C9 N3 H3N 121.9(11) . . ?
loop_
_geom_bond_atom_site_label_1
_geom_bond_atom_site_label_2
_geom_bond_distance
_geom_bond_site_symmetry_2
_geom_bond_publ_flag
C1 C2 1.3927(15) . ?
C1 C6 1.3965(15) . ?
C1 N2 1.4135(13) . ?
C2 C3 1.3912(15) . ?
C2 H2 0.9500 . ?
C3 C4 1.3840(15) . ?
C3 H3 0.9500 . ?
C4 C5 1.4011(15) . ?
C4 N1 1.4709(14) . ?
C5 C6 1.3894(15) . ?
C5 C7 1.5129(15) . ?
C6 H6 0.9500 . ?
C7 F1 1.3377(13) . ?
C7 F2 1.3407(14) . ?
C7 F3 1.3444(14) . ?
C8 O3 1.2266(13) . ?
C8 N3 1.3372(14) . ?
C8 N2 1.4213(13) . ?
C9 N3 1.4586(14) . ?
C9 C10 1.5260(15) . ?
C9 C12 1.5285(16) . ?
C9 C11 1.5327(15) . ?
C10 O4 1.2045(13) . ?
C10 N2 1.4001(13) . ?
C11 H11A 0.9800 . ?
C11 H11B 0.9800 . ?
C11 H11C 0.9800 . ?
C12 H12A 0.9800 . ?
C12 H12B 0.9800 . ?
C12 H12C 0.9800 . ?
O1 N1 1.2261(13) . ?
O2 N1 1.2275(13) . ?
N3 H3N 0.894(17) . ?
loop_
_geom_hbond_atom_site_label_D
_geom_hbond_atom_site_label_H
_geom_hbond_atom_site_label_A
_geom_hbond_distance_DH
_geom_hbond_distance_HA
_geom_hbond_distance_DA
_geom_hbond_angle_DHA
_geom_hbond_site_symmetry_A
_geom_hbond_publ_flag
N3 H3N O3 0.894(17) 2.008(17) 2.8923(12) 170.1(16) 2_567 yes
C12 H12B O4 0.98 2.55 3.4072(15) 145.4 2_677 yes
loop_
_geom_torsion_atom_site_label_1
_geom_torsion_atom_site_label_2
_geom_torsion_atom_site_label_3
_geom_torsion_atom_site_label_4
_geom_torsion
_geom_torsion_site_symmetry_1
_geom_torsion_site_symmetry_2
_geom_torsion_site_symmetry_3
_geom_torsion_site_symmetry_4
_geom_torsion_publ_flag
C6 C1 C2 C3 -0.33(16) . . . . ?
N2 C1 C2 C3 177.34(9) . . . . ?
C1 C2 C3 C4 1.28(16) . . . . ?
C2 C3 C4 C5 -0.94(16) . . . . ?
C2 C3 C4 N1 176.53(9) . . . . ?
C3 C4 C5 C6 -0.37(15) . . . . ?
N1 C4 C5 C6 -177.67(9) . . . . ?
C3 C4 C5 C7 -177.30(10) . . . . ?
N1 C4 C5 C7 5.39(16) . . . . ?
C4 C5 C6 C1 1.32(15) . . . . ?
C7 C5 C6 C1 178.47(9) . . . . ?
C2 C1 C6 C5 -0.99(15) . . . . ?
N2 C1 C6 C5 -178.69(9) . . . . ?
C6 C5 C7 F1 -136.36(10) . . . . ?
C4 C5 C7 F1 40.59(15) . . . . ?
C6 C5 C7 F2 101.85(11) . . . . ?
C4 C5 C7 F2 -81.20(13) . . . . ?
C6 C5 C7 F3 -17.28(14) . . . . ?
C4 C5 C7 F3 159.67(10) . . . . ?
N3 C9 C10 O4 179.10(11) . . . . ?
C12 C9 C10 O4 61.87(14) . . . . ?
C11 C9 C10 O4 -62.18(15) . . . . ?
N3 C9 C10 N2 -1.20(11) . . . . ?
C12 C9 C10 N2 -118.44(9) . . . . ?
C11 C9 C10 N2 117.51(10) . . . . ?
C3 C4 N1 O1 39.00(13) . . . . ?
C5 C4 N1 O1 -143.56(10) . . . . ?
C3 C4 N1 O2 -138.58(10) . . . . ?
C5 C4 N1 O2 38.87(14) . . . . ?
O4 C10 N2 C1 4.49(18) . . . . ?
C9 C10 N2 C1 -175.20(10) . . . . ?
O4 C10 N2 C8 -175.73(11) . . . . ?
C9 C10 N2 C8 4.58(12) . . . . ?
C2 C1 N2 C10 -34.19(15) . . . . ?
C6 C1 N2 C10 143.52(10) . . . . ?
C2 C1 N2 C8 146.06(10) . . . . ?
C6 C1 N2 C8 -36.23(15) . . . . ?
O3 C8 N2 C10 172.81(10) . . . . ?
N3 C8 N2 C10 -6.37(12) . . . . ?
O3 C8 N2 C1 -7.41(17) . . . . ?
N3 C8 N2 C1 173.41(10) . . . . ?
O3 C8 N3 C9 -173.45(11) . . . . ?
N2 C8 N3 C9 5.68(13) . . . . ?
C10 C9 N3 C8 -2.82(12) . . . . ?
C12 C9 N3 C8 113.91(11) . . . . ?
C11 C9 N3 C8 -120.15(11) . . . . ?
