#------------------------------------------------------------------------------
#$Date: 2021-09-06 13:23:59 +0300 (Mon, 06 Sep 2021) $
#$Revision: 268648 $
#$URL: file:///home/coder/svn-repositories/cod/cif/7/24/32/7243260.cif $
#------------------------------------------------------------------------------
#
# This file is available in the Crystallography Open Database (COD),
# http://www.crystallography.net/
#
# All data on this site have been placed in the public domain by the
# contributors.
#
data_7243260
loop_
_publ_author_name
'Yamaguchi, Ryota'
'Tanaka, Rika'
'Maetani, Mayu'
'Tabe, Hiroyasu'
'Yamada, Yusuke'
_publ_section_title
;
 Efficient capturing of hydrogen peroxide in dilute aqueous solution by
 co-crystallization with amino acids
;
_journal_issue                   32
_journal_name_full               CrystEngComm
_journal_page_first              5456
_journal_page_last               5462
_journal_paper_doi               10.1039/D1CE00688F
_journal_volume                  23
_journal_year                    2021
_chemical_absolute_configuration unk
_chemical_formula_moiety         'C4 H8 N2 O3, H2 O'
_chemical_formula_sum            'C4 H10 N2 O4'
_chemical_formula_weight         150.14
_chemical_name_systematic        L-Asn.H2O
_space_group_crystal_system      orthorhombic
_space_group_IT_number           19
_space_group_name_Hall           'P 2ac 2ab'
_space_group_name_H-M_alt        'P 21 21 21'
_audit_block_doi                 10.5517/ccdc.csd.cc27y8p5
_audit_creation_date             2021-4-7
_audit_creation_method           SHELXL-2018/3
_audit_update_record
;
2021-05-14 deposited with the CCDC.	2021-07-21 downloaded from the CCDC.
;
_cell_angle_alpha                90
_cell_angle_beta                 90
_cell_angle_gamma                90
_cell_formula_units_Z            4
_cell_length_a                   5.571(2)
_cell_length_b                   9.766(4)
_cell_length_c                   11.738(4)
_cell_measurement_reflns_used    1836
_cell_measurement_temperature    200(2)
_cell_measurement_theta_max      27.4662
_cell_measurement_theta_min      2.0855
_cell_volume                     638.6(4)
_computing_cell_refinement       'CrystalClear (Rigaku Inc., 2008)'
_computing_data_collection       'CrystalClear (Rigaku Inc., 2008)'
_computing_data_reduction        'CrystalClear (Rigaku Inc., 2008)'
_computing_molecular_graphics    'Ortep for Windows (Farrugia, 2012)'
_computing_publication_material  'WinGX publication routines (Farrugia, 2012)'
_computing_structure_refinement  'SHELXL-2018/3 (Sheldrick, 2018)'
_computing_structure_solution    'SHELXS-97 (Sheldrick, 1990)'
_diffrn_ambient_temperature      200(2)
_diffrn_detector_area_resol_mean 7.32
_diffrn_measured_fraction_theta_full 1.000
_diffrn_measured_fraction_theta_max 1.000
_diffrn_measurement_details
;
scan:
	Number of images: 600
	           Slice: -80.0000 - 100.000
	     Image width: 0.3000
	        Exp time: 8.0000
	   Rotation axis: Phi
	           Omega: 0.0000
	             Chi: 0.0000
	             Phi: 0.0000
	             XTD: 54.8968
	          2theta: 25.1109
scan:
	Number of images: 200
	           Slice: -15.0000 - 45.0000
	     Image width: 0.3000
	        Exp time: 8.0000
	   Rotation axis: Omega
	           Omega: 0.0000
	             Chi: 90.0000
	             Phi: 0.0000
	             XTD: 54.8968
	          2theta: 25.1109
scan:
	Number of images: 200
	           Slice: -15.0000 - 45.0000
	     Image width: 0.3000
	        Exp time: 8.0000
	   Rotation axis: Omega
	           Omega: 0.0000
	             Chi: 90.0000
	             Phi: 90.0000
	             XTD: 54.8968
	          2theta: 25.1109
scan:
	Number of images: 200
	           Slice: -15.0000 - 45.0000
	     Image width: 0.3000
	        Exp time: 8.0000
	   Rotation axis: Omega
	           Omega: 0.0000
	             Chi: 90.0000
	             Phi: 180.0000
	             XTD: 54.8968
	          2theta: 25.1109
scan:
	Number of images: 200
	           Slice: -15.0000 - 45.0000
	     Image width: 0.3000
	        Exp time: 8.0000
	   Rotation axis: Omega
	           Omega: 0.0000
	             Chi: 90.0000
	             Phi: 270.0000
	             XTD: 54.8968
	          2theta: 25.1109

;
_diffrn_measurement_device       'Mercury CCD (2x2 bin mode)'
_diffrn_measurement_device_details 'AFC7: Eulerian 3-circle'
_diffrn_measurement_device_type  'Rigaku/MSC Mercury CCD'
_diffrn_measurement_method       '\w and \f'
_diffrn_radiation_detector       CCD
_diffrn_radiation_monochromator  'Graphite Monochromator'
_diffrn_radiation_source         'Rotating Anode'
_diffrn_radiation_type           MoK\a
_diffrn_radiation_wavelength     0.71070
_diffrn_reflns_av_R_equivalents  0.0183
_diffrn_reflns_av_unetI/netI     0.0176
_diffrn_reflns_Laue_measured_fraction_full 1.000
_diffrn_reflns_Laue_measured_fraction_max 1.000
_diffrn_reflns_limit_h_max       7
_diffrn_reflns_limit_h_min       -4
_diffrn_reflns_limit_k_max       12
_diffrn_reflns_limit_k_min       -9
_diffrn_reflns_limit_l_max       15
_diffrn_reflns_limit_l_min       -10
_diffrn_reflns_number            4913
_diffrn_reflns_point_group_measured_fraction_full 0.999
_diffrn_reflns_point_group_measured_fraction_max 0.999
_diffrn_reflns_reduction_process 'Lp corrections applied'
_diffrn_reflns_theta_full        25.242
_diffrn_reflns_theta_max         27.488
_diffrn_reflns_theta_min         2.713
_diffrn_source_current           200.0000
_diffrn_source_power             10.0000
_diffrn_source_voltage           50.0000
_exptl_absorpt_coefficient_mu    0.139
_exptl_absorpt_correction_T_max  1.0000
_exptl_absorpt_correction_T_min  0.8723
_exptl_absorpt_correction_type   multi-scan
_exptl_absorpt_process_details   'REQAB (Rigaku, 1998)'
_exptl_crystal_colour            Colorless
_exptl_crystal_density_diffrn    1.562
_exptl_crystal_density_method    'not measured'
_exptl_crystal_description       Block
_exptl_crystal_F_000             320
_exptl_crystal_preparation
'mounted on the CryoLoop with Palaton oil and placed in N2 stream at 200(2) K'
_exptl_crystal_size_max          0.250
_exptl_crystal_size_mid          0.230
_exptl_crystal_size_min          0.130
_refine_diff_density_max         0.209
_refine_diff_density_min         -0.189
_refine_diff_density_rms         0.042
_refine_ls_abs_structure_details
;
 Flack x determined using 562 quotients [(I+)-(I-)]/[(I+)+(I-)]
 (Parsons, Flack and Wagner, Acta Cryst. B69 (2013) 249-259).
;
_refine_ls_abs_structure_Flack   0.2(4)
_refine_ls_extinction_method     none
_refine_ls_goodness_of_fit_ref   1.067
_refine_ls_hydrogen_treatment    refall
_refine_ls_matrix_type           full
_refine_ls_number_parameters     131
_refine_ls_number_reflns         1472
_refine_ls_number_restraints     0
_refine_ls_restrained_S_all      1.067
_refine_ls_R_factor_all          0.0301
_refine_ls_R_factor_gt           0.0294
_refine_ls_shift/su_max          0.000
_refine_ls_shift/su_mean         0.000
_refine_ls_structure_factor_coef Fsqd
_refine_ls_weighting_details
'w=1/[\s^2^(Fo^2^)+(0.0451P)^2^+0.1513P] where P=(Fo^2^+2Fc^2^)/3'
_refine_ls_weighting_scheme      calc
_refine_ls_wR_factor_gt          0.0775
_refine_ls_wR_factor_ref         0.0784
_reflns_Friedel_coverage         0.665
_reflns_Friedel_fraction_full    0.998
_reflns_Friedel_fraction_max     0.997
_reflns_number_gt                1447
_reflns_number_total             1472
_reflns_threshold_expression     'I > 2\s(I)'
_cod_data_source_file            d1ce00688f2.cif
_cod_data_source_block           L-Asparagine_H2O
_cod_depositor_comments
;
The following automatic conversions were performed:

data item '_exptl_absorpt_correction_type' value 'Multi-scan' was
changed to 'multi-scan' in accordance with the
/home/data/users/saulius/crontab/automatic-downloads/rss-feeds/RSC/lib/dictionaries/cif_core.dic
dictionary named 'cif_core.dic' version 2.4.2 last updated on
2011-04-26.

Automatic conversion script
Id: cif_fix_values 7556 2019-12-06 15:28:31Z antanas 

 Adding full bibliography for 7243257--7243260.cif.
;
_cod_database_code               7243260
_shelx_shelxl_version_number     2018/3
_shelx_space_group_comment
;
The symmetry employed for this shelxl refinement is uniquely defined
by the following loop, which should always be used as a source of
symmetry information in preference to the above space-group names.
They are only intended as comments.
;
_shelx_estimated_absorpt_t_min   0.966
_shelx_estimated_absorpt_t_max   0.982
_shelx_res_file
;
TITL DL-Asparagine_H2O
    CrystalClear.res
    created by SHELXL-2018/3 at 11:48:18 on 07-Apr-2021
CELL 0.71075 5.5708 9.7657 11.7382 90.0000 90.0000 90.0000
ZERR 4.0 0.0020 0.0036 0.0044 0.0000 0.0000 0.0000
LATT -1
SYMM 1/2-X, -Y, 1/2+Z
SYMM 1/2+X, 1/2-Y, -Z
SYMM -X, 1/2+Y, 1/2-Z
REM  SPGR P212121 orthorhombic
SFAC C H N O
UNIT 16 40 8 16
SIZE 0.25 0.23 0.13
TEMP -72.8
L.S. 10
FMAP 2
PLAN -10
ACTA
CONF
WPDB -1
BOND$H
MERG 2
OMIT -10.000000 55.000000
EQIV $1 1/2+X, -0.50-Y, 1-Z
EQIV $2 1/2-X, -Y, 1/2+Z
EQIV $3 1+X, +Y, +Z
EQIV $4 1/2+X, 1/2-Y, 1-Z
EQIV $5 -X, -0.50+Y, 1.50-Z
EQIV $6 -0.50-X, -Y, 1/2+Z

HTAB C2 O4_$1
HTAB N1 O3
HTAB N1 O4_$2
HTAB N1 O3_$3
HTAB N1 O2_$4
HTAB C3 O3_$5
HTAB N2 O1_$6
HTAB N2 O2_$2
HTAB N2 O2_$5
HTAB O4 O1_$1
HTAB O4 O1
HTAB
LIST 4
WGHT    0.045100    0.151300
FVAR      13.16217
C1    1    0.125475    0.057778    0.535366    11.00000    0.01473    0.02156 =
         0.01575    0.00070    0.00053    0.00211
O1    4    0.006847   -0.043510    0.499849    11.00000    0.02556    0.02274 =
         0.02575   -0.00080   -0.00724   -0.00345
O2    4    0.119910    0.175523    0.495689    11.00000    0.02265    0.02068 =
         0.02070    0.00384   -0.00399    0.00146
C2    1    0.307892    0.027265    0.629865    11.00000    0.01419    0.01780 =
         0.01814    0.00111    0.00039    0.00107
H2A   2    0.438584   -0.025228    0.594951    11.00000    0.01529
N1    3    0.416462    0.156991    0.672290    11.00000    0.01433    0.02060 =
         0.01978    0.00124   -0.00191   -0.00116
H1NA  2    0.317135    0.199164    0.726430    11.00000    0.02949
H1NB  2    0.559676    0.142900    0.703291    11.00000    0.03644
H1NC  2    0.444392    0.223644    0.608637    11.00000    0.03321
C3    1    0.209574   -0.057645    0.727599    11.00000    0.01657    0.01868 =
         0.01895    0.00344   -0.00053    0.00172
H3A   2    0.331886   -0.065536    0.788726    11.00000    0.02931
H3B   2    0.176269   -0.151638    0.697093    11.00000    0.02787
C4    1   -0.016953    0.001865    0.779391    11.00000    0.01487    0.01872 =
         0.01856    0.00025   -0.00134   -0.00262
O3    4   -0.110856    0.105656    0.738497    11.00000    0.01730    0.02269 =
         0.02763    0.00515    0.00175    0.00329
N2    3   -0.105544   -0.063551    0.868948    11.00000    0.02064    0.02609 =
         0.02109    0.00462    0.00382    0.00113
H2NA  2   -0.228869   -0.028231    0.903658    11.00000    0.04174
H2NB  2   -0.035540   -0.138347    0.900491    11.00000    0.04502
O4    4    0.200335   -0.271513    0.386792    11.00000    0.03698    0.03165 =
         0.02712   -0.00136   -0.00274    0.00547
H4OA  2    0.305898   -0.316660    0.427647    11.00000    0.06187
H4OB  2    0.149739   -0.211658    0.435579    11.00000    0.06119

HKLF 4




REM  DL-Asparagine_H2O
REM wR2 = 0.0784, GooF = S = 1.067, Restrained GooF = 1.067 for all data
REM R1 = 0.0294 for 1447 Fo > 4sig(Fo) and 0.0301 for all 1472 data
REM 131 parameters refined using 0 restraints

END

WGHT      0.0451      0.1513

REM Instructions for potential hydrogen bonds
HTAB C2 O4_$1
HTAB N1 O3
HTAB N1 O4_$2
HTAB N1 O3_$3
HTAB N1 O2_$4
HTAB C3 O3_$5
HTAB N2 O1_$6
HTAB N2 O2_$2
HTAB N2 O2_$5
HTAB O4 O1_$1
HTAB O4 O1

REM Highest difference peak  0.209,  deepest hole -0.189,  1-sigma level  0.042
Q1    1   0.1025 -0.0345  0.7558  11.00000  0.05    0.21
Q2    1   0.2034  0.0425  0.5867  11.00000  0.05    0.20
Q3    1   0.4497  0.2692  0.9301  11.00000  0.05    0.16
Q4    1   0.1535  0.2528  0.8738  11.00000  0.05    0.14
Q5    1   0.0125  0.1810  0.8536  11.00000  0.05    0.13
Q6    1   0.1867  0.2076  0.8946  11.00000  0.05    0.12
Q7    1   0.3982  0.4049  1.0013  11.00000  0.05    0.12
Q8    1   0.0713  0.1408  0.3778  11.00000  0.05    0.12
Q9    1   0.3024  0.2827  0.4748  11.00000  0.05    0.11
Q10   1   0.2432 -0.0113  0.6780  11.00000  0.05    0.11
;
_shelx_res_checksum              66466
_shelx_hkl_file
;
   0   0   2 6377.07  163.55
   0   0   3   26.72   64.41
   0   0   4213294.1 2475.70
   0   0   5  146.43  108.43
   0   0   631152.23  634.03
   0   0   7   57.88   72.81
   0   0   8478886.6 7783.76
   0   0   9   63.83  106.45
   0   0  1014074.49  516.73
   0   0  11   71.33   82.38
   0   0  12  110.06  107.21
   0   0  13  217.26   97.41
   0   0  14 1975.96  247.19
   0   0  15  255.28  127.16
   0  -1   0  250.70   50.04
   0   1   0  226.54   36.03
   0  -1  -177710.10  906.72
   0   1   177910.15  908.12
   0   1  -178477.51  917.47
   0  -1   178263.87  914.98
   0   1   271252.84  888.46
   0  -1   270614.41  880.57
   0   1   269945.57  760.02
   0  -1  -270659.87  766.95
   0   1   3 1344.80  105.62
   0  -1   3 1459.75  110.17
   0  -1  -3 1348.58   57.19
   0   1   3 1323.25   70.06
   0   1   4  885.15  107.91
   0  -1   4  927.55  106.90
   0  -1  -4  736.84   38.03
   0   1   4  866.23   46.94
   0   1   5244808.8 2875.62
   0  -1   5244278.9 2871.27
   0  -1  -5234619.2 2523.50
   0   1   632912.01  658.68
   0  -1   634065.47  671.46
   0  -1  -631627.26  430.92
   0   1   727198.13  698.72
   0  -1   724912.69  657.44
   0   1   8 3065.63  216.48
   0  -1   8 2900.89  215.67
   0   1   9 4806.47  289.47
   0  -1   9 4056.79  262.96
   0   1  10 1741.81  189.89
   0  -1  10 1604.71  189.95
   0   1  11  801.40  151.10
   0  -1  11  723.82  152.38
   0   1  12  202.43  114.87
   0  -1  12  119.53   83.39
   0   1  13 6300.11  406.69
   0  -1  13 5284.11  372.54
   0   1  14 1981.43  240.71
   0  -1  14 1670.46  216.07
   0   1  15  101.02   73.18
   0  -1  15  131.24  103.15
   0   2   0536325.8 5733.30
   0   2   168755.66  878.90
   0  -2   165087.39  843.72
   0   2   250367.28  709.87
   0  -2   251233.86  723.20
   0   2   3104503.1 1321.44
   0  -2   3105429.2 1338.00
   0  -2  -3102128.2 1132.86
   0   2   4167818.5 2040.21
   0  -2   4164761.6 2008.48
   0   2   4159118.1 1706.92
   0   2   525561.51  545.95
   0  -2   526178.88  549.33
   0   2   6  796.02  125.04
   0  -2   6  818.43  122.35
   0   2   719733.89  572.13
   0  -2   720772.58  595.62
   0   2   833255.82  841.62
   0  -2   831560.03  818.80
   0   2   9 1527.97  180.49
   0  -2   9 1140.05  151.12
   0   2  1010665.34  453.56
   0  -2  1011829.58  478.68
   0   2  1115050.12  577.80
   0  -2  1115388.64  575.77
   0   2  1217737.84  610.10
   0  -2  1216106.41  585.32
   0   2  1310228.47  529.91
   0  -2  13 9490.89  504.28
   0   2  1412354.45  606.38
   0  -2  1410102.77  542.47
   0   2  15 3511.79  311.53
   0  -2  15 3712.02  321.25
   0   3   0   35.11   46.40
   0   3  -1144130.1 1738.05
   0   3   1145776.6 1753.84
   0  -3   1141043.2 1509.36
   0   3   271043.20  985.65
   0  -3   272235.42 1005.71
   0   3   3289215.7 3307.08
   0  -3   3289010.3 3312.77
   0   3   4141355.2 1801.37
   0  -3   4138599.8 1782.53
   0   3   5185915.8 2342.44
   0  -3   5185305.5 2340.23
   0   3   5180275.2 1975.75
   0  -3  -5180239.2 1977.02
   0   3   6 3955.55  229.76
   0  -3   6 4139.72  234.94
   0   3   7 1405.07  151.55
   0  -3   7 1391.50  164.45
   0   3   816117.68  541.99
   0  -3   816568.65  563.13
   0   3   9  227.64  126.52
   0  -3   9  399.22  161.55
   0   3  10 5594.43  331.02
   0  -3  10 5238.41  325.07
   0   3  1134261.01  813.26
   0  -3  1134227.12  819.82
   0   3  12  190.69   91.18
   0  -3  12  315.43  136.42
   0   3  1329652.02  834.15
   0  -3  1331436.47  864.36
   0   3  14 1039.75  185.64
   0  -3  14 1196.90  192.39
   0   4   051346.92  806.30
   0   4  -133863.31  681.20
   0   4   135380.30  632.94
   0  -4   132535.26  410.53
   0   4  -273995.69 1086.12
   0   4   272918.46 1063.68
   0   4   336861.20  688.55
   0  -4   337793.87  702.91
   0   4   474397.70 1140.22
   0  -4   472774.80 1125.97
   0  -4   471278.69  817.25
   0   4   545225.96  837.63
   0  -4   545771.70  847.98
   0   4   6 3419.34  221.69
   0  -4   6 3996.48  245.90
   0   4   6 3462.62  204.09
   0  -4  -6 3416.95  104.32
   0   4   7  180.61  106.34
   0  -4   7   98.89   89.71
   0   4   821397.97  643.34
   0  -4   821131.39  652.83
   0   4   9 9207.61  419.77
   0  -4   9 8623.88  424.69
   0   4  1016388.95  597.31
   0  -4  1014652.95  575.51
   0   4  11 9304.00  446.43
   0  -4  11 8770.70  444.96
   0   4  1228653.60  800.26
   0  -4  1230106.23  827.37
   0   4  13 1243.96  201.61
   0  -4  13 1294.87  204.73
   0   4  14 3937.13  333.95
   0  -4  14 3966.32  338.44
   0   5   0  118.52  102.18
   0   5  -182554.91 1266.51
   0   5   182226.66 1224.26
   0  -5   181031.84  953.46
   0   5  -251679.67  935.45
   0   5   255268.91  932.77
   0   5  -319412.78  503.50
   0   5   320525.73  520.12
   0   5   4 7706.01  327.05
   0  -5   4 7552.20  328.80
   0   5   5137808.6 2483.38
   0  -5   5135151.2 2457.37
   0   5   6135650.8 2297.22
   0  -5   6134244.9 2468.68
   0   5   7 2666.50  218.64
   0  -5   7 2668.75  226.23
   0   5   811771.73  474.59
   0  -5   811427.30  479.51
   0   5   935626.21  863.44
   0  -5   935970.99  886.90
   0   5  10 3867.24  293.62
   0  -5  10 3476.18  286.45
   0   5  1156681.93 1090.94
   0  -5  1159517.82 1630.72
   0   5  12 7598.47  427.33
   0  -5  12 7587.14  438.80
   0   5  1328881.54 1019.90
   0  -5  1333453.92 1136.68
   0   5  1415820.48  667.78
   0  -5  1417789.33  714.25
   0   6   0 1638.64  168.82
   0   6  -196509.44 1824.47
   0   6   196850.84 1825.57
   0   6  -2 6645.33  562.84
   0   6   2 6486.15  303.42
   0   6  -326832.53  722.54
   0   6   325899.60  697.81
   0   6  -411200.97  438.90
   0   6   412508.94  455.76
   0   6   5  324.95   80.63
   0  -6   5  477.20  124.62
   0   6   668145.66 1380.35
   0  -6   667477.34 1381.83
   0   6   737904.50  907.94
   0  -6   738178.88  932.68
   0   6   8 7847.07  393.25
   0  -6   8 7643.71  403.40
   0   6   9  269.93  120.66
   0  -6   9   59.95  101.85
   0   6  1012860.74  527.50
   0  -6  1011602.85  515.42
   0   6  11 2155.98  242.18
   0  -6  11 1984.63  241.53
   0   6  1211520.96  582.46
   0  -6  1210833.97  569.85
   0   6  13 2038.45  255.94
   0  -6  13 1759.59  237.75
   0   7   0   12.76   70.57
   0   7  -144372.40 1524.58
   0   7   144268.73 1027.91
   0   7  -2  115.90   71.08
   0   7   2  100.76   73.59
   0   7  -3 7763.46  456.62
   0   7   3 7842.61  358.32
   0   7  -4 9731.05  446.48
   0   7   4 9913.71  426.21
   0   7  -514411.94  543.96
   0   7   514309.72  514.20
   0   7   635872.95  851.29
   0  -7   635264.25  847.66
   0   7   735110.69  916.82
   0  -7   733190.90  892.14
   0   7   824917.17  698.84
   0  -7   824186.29  704.45
   0   7   9 1052.23  176.05
   0  -7   9 1088.54  183.21
   0   7  1031288.41 1045.57
   0  -7  1031963.19  871.26
   0   7  11  520.85  138.62
   0  -7  11  250.41  104.42
   0   7  12  364.70  134.36
   0  -7  12  278.15  127.47
   0   8   037438.28  894.04
   0   8  -1 6122.82  338.81
   0   8   1 4708.30  290.63
   0   8  -272375.32 1562.76
   0   8   271508.37 1367.78
   0   8  -337993.00 1427.99
   0   8   339988.73  943.80
   0   8  -413949.50  611.75
   0   8   415486.79  548.11
   0   8  -550982.49 1453.68
   0   8   553233.69 1086.61
   0   8  -637885.73  875.58
   0   8   636320.92  823.95
   0   8  -7 2693.18  278.75
   0   8   7 2445.77  255.99
   0   8   8 7259.87  406.60
   0  -8   8 6594.37  385.65
   0   8   9  144.19   88.81
   0  -8   9   93.67   69.89
   0   8  10  421.47  130.23
   0  -8  10  545.29  136.75
   0   8  11 2292.01  262.17
   0  -8  11 2012.12  245.17
   0   9   0  209.35   97.12
   0   9  -1 6524.37  367.51
   0   9   1 5839.85  343.16
   0   9  -2  997.10  201.28
   0   9   2  889.58  163.92
   0   9  -320240.99  805.20
   0   9   319644.35  649.66
   0   9  -4 7289.94 1020.35
   0   9   4 7010.24  377.14
   0   9  -5 6972.62  599.01
   0   9   5 7150.63  384.69
   0   9  -655396.94 1516.46
   0   9   657655.88 1098.00
   0   9  -7 1064.70  212.19
   0   9   7 1073.40  179.62
   0   9  -8  124.14  112.68
   0   9   8  171.17  110.13
   0   9  -9 9430.51  552.51
   0   9   9 8897.38  506.84
   0   9  10  691.04  159.79
   0  -9  10 1107.46  191.09
   0  10   027005.19  747.58
   0  10  -1 4268.32  312.31
   0  10   1 4182.47  318.49
   0  10  -220672.08  664.32
   0  10   220084.28  648.67
   0  10  -3 2154.04  472.53
   0  10   3 2482.13  258.50
   0  10  -4 2018.82  420.05
   0  10   4 1908.24  235.96
   0  10  -5  153.98   80.54
   0  10   5  327.32  148.26
   0  10  -623332.23  956.22
   0  10   623127.18  731.90
   0  10  -7 2552.94  825.18
   0  10   7 3861.35  339.51
   0  10  -8   81.00  101.83
   0  10   8  400.03  144.20
   0  10  -9 9077.31  551.09
   0  10   9 7752.48  467.08
   0  11   0  -30.31   75.65
   0  11  -1 5625.51  387.61
   0  11   1 6891.05  437.35
   0  11  -2 8509.61  482.24
   0  11   2 9085.57  499.98
   0  11  -3 1174.56  195.26
   0  11   3  986.82  184.21
   0  11  -4  114.17   73.17
   0  11   4  106.41   80.71
   0  11  -5 1818.54  438.49
   0  11   5 2661.10  282.16
   0  11  -6 1765.40  480.79
   0  11   6 1721.58  223.78
   0  11  -7 3024.53  845.20
   0  11   7 4972.13  389.35
   0  12   0  304.18  135.73
   0  12  -123836.92  798.74
   0  12   124096.41  796.03
   0  12  -2 4915.10  382.85
   0  12   2 3810.10  328.32
   0  12  -3  631.80  177.86
   0  12   3 1029.48  200.05
   0  12  -4  154.33  109.34
   0  12   4  129.18   90.84
   1   0   0   25.34   12.60
  -1   0   0   66.14   17.27
   1   0   0   37.82   40.70
   1   0   0   33.53   42.10
   1   0   0   38.90   33.73
   1   0   0   80.11   45.16
   1   0  -1128505.5 1424.60
  -1   0   1129940.6 1437.94
  -1   0  -1132637.8 1428.94
   1   0  -1130795.8 1489.68
   1   0   1131695.5 1519.96
   1   0   1128274.6 1482.14
   1   0  -1130343.0 1509.95
   1   0   1126925.7 1469.57
   1   0  -1128499.9 1463.47
   1   0   1130144.3 1500.47
  -1   0   299480.66 1183.70
  -1   0  -299907.94 1152.17
   1   0   296505.88 1116.41
   1   0  -297784.90 1142.94
   1   0   299455.56 1199.92
   1   0  -2102112.6 1186.85
   1   0   299104.39 1206.01
  -1   0   3140726.7 1673.96
   1   0   3144605.3 1679.72
   1   0   3143128.7 1673.84
  -1   0   453450.60  805.32
   1   0   453006.23  772.02
  -1   0   5179172.7 2200.47
   1   0   5186020.8 2236.41
  -1   0   6 3360.71  199.62
   1   0   6 3488.86  194.30
  -1   0   739691.11  911.42
   1   0   739758.47  889.89
  -1   0   822125.97  640.88
   1   0   821383.36  608.02
  -1   0   937012.57  898.84
   1   0   935382.28  854.12
  -1   0  10 3124.43  248.67
   1   0  10 3477.41  254.33
  -1   0  11  738.44  174.59
   1   0  11  580.83  133.09
  -1   0  12 8336.95  419.05
   1   0  12 8406.94  418.46
  -1   0  13 8683.45  475.74
   1   0  13 9349.82  498.21
  -1   0  14  690.30  155.69
   1   0  14  569.61  138.80
  -1   0  15 1148.75  196.15
   1   0  15 1313.13  200.51
   1  -1   0179764.2 1972.32
  -1   1   0181282.1 1986.55
   1   1   0177910.7 1910.26
   1  -1   0185211.3 2074.20
   1   1   0186609.0 2091.52
   1  -1   0185151.1 2063.85
   1   1   0178925.5 2017.77
   1   1   0184985.9 2087.22
  -1  -1  -1119196.1 1309.99
  -1   1   1119072.8 1365.29
  -1  -1   1117546.7 1323.47
  -1   1  -1121966.3 1378.99
   1  -1   1120996.7 1369.08
   1   1   1118954.0 1395.63
   1  -1  -1122502.0 1399.74
   1  -1   1120092.8 1420.53
   1  -1   1124204.4 1425.03
   1   1  -1122338.3 1419.73
   1   1   1122395.0 1431.78
   1   1  -1118944.0 1399.83
   1  -1   1121668.9 1400.49
   1   1   1117263.0 1387.89
  -1   1   219862.97  355.63
   1   1   219674.23  315.79
   1  -1   219807.18  333.73
  -1   1   219621.56  319.47
   1   1   220806.37  358.75
   1  -1   220104.64  339.55
   1  -1  -220305.06  332.20
   1   1   220863.42  359.51
   1  -1   220541.79  348.10
   1   1   220899.38  394.11
  -1   1   31086784.11670.17
   1   1   31075741.11363.50
  -1   1   468677.28  982.72
   1   1   469545.68  954.24
  -1  -1   469407.16  986.50
   1  -1   468536.77  954.50
   1  -1  -468149.57  806.99
   1   1   469672.74  907.44
   1   1   470846.54  924.44
  -1   1   5251048.6 2991.90
   1   1   5256747.1 4208.86
  -1  -1   5257376.9 4247.07
   1  -1   5251861.3 4146.21
   1   1   5253597.7 4090.44
   1   1   5259862.2 4191.30
  -1   1   637203.86  727.54
   1   1   636307.53  680.26
  -1  -1   637605.53  720.97
   1  -1  -634773.91  468.62
   1   1   635412.75  571.58
  -1   1   715278.42  492.07
   1   1   716127.21  485.69
  -1  -1   715191.33  488.65
   1  -1   715437.07  482.74
   1  -1  -714970.14  290.44
  -1   1   714521.80  281.69
  -1   1   8 6720.84  320.58
   1   1   8 7132.37  326.21
  -1  -1   8 7626.01  351.85
   1  -1   8 7477.52  345.69
   1  -1  -8 6380.11  149.78
  -1   1   9 7991.96  377.60
   1   1   9 8258.96  368.37
  -1  -1   9 8232.18  374.99
   1  -1   9 8134.23  375.89
  -1   1  1012325.45  487.30
   1   1  1012493.63  466.25
  -1  -1  1011847.42  475.68
   1  -1  1012744.72  478.97
  -1   1  1119377.67  663.55
   1   1  1119398.56  641.97
  -1  -1  1119328.09  666.69
   1  -1  1120367.06  671.40
  -1   1  12 2171.31  233.68
   1   1  12 2503.73  253.93
  -1  -1  12 2360.88  245.36
   1  -1  12 2101.21  219.32
  -1   1  13 2956.56  277.73
   1   1  13 3959.14  313.21
  -1  -1  13 3799.10  315.83
   1  -1  13 3433.53  293.58
  -1   1  14 1136.13  181.93
   1   1  14  706.57  149.57
  -1  -1  14  979.83  176.46
   1  -1  14  894.56  164.14
  -1   1  15 3525.83  314.22
   1   1  15 4296.26  349.79
  -1  -1  15 4323.93  354.11
   1  -1  15 3581.00  313.37
   1   2   013375.48  314.82
  -1   2   012882.78  271.50
   1   2   014200.17  282.05
   1   2   013867.90  274.83
  -1   2  -1402939.9 4376.61
  -1   2   1399876.9 4352.63
  -1  -2   1396877.1 4288.99
   1   2  -1394725.7 4259.16
   1  -2   1389567.9 4175.67
   1   2   1389139.7 4244.47
   1  -2   1383582.6 4114.07
   1   2  -1396210.0 4272.59
   1   2   1382129.8 4170.65
  -1   2   2449137.7 4897.80
   1   2   2440897.0 4754.37
  -1  -2   2437612.2 4751.44
   1  -2   2432603.9 4712.06
   1  -2   2432751.1 4634.04
   1   2  -2445468.3 4796.78
   1   2   2447975.6 4851.72
  -1   2   350682.91  770.53
   1   2   350293.92  724.06
  -1  -2   349907.53  746.24
   1  -2   350629.26  752.29
   1   2   351282.53  712.49
  -1   2   349117.27  609.24
   1   2   350199.53  700.67
   1  -2   350588.56  682.91
  -1   2   4191919.0 2319.19
   1   2   4197297.2 2325.71
  -1  -2   4196934.0 2353.60
   1  -2   4197877.4 2353.71
   1   2   4200034.6 2275.10
   1  -2  -4194150.5 2085.57
   1   2   4202036.7 2299.33
  -1   2   515592.55  426.74
   1   2   514870.29  381.30
  -1  -2   516326.95  421.92
   1  -2   515736.73  410.12
   1   2   515763.48  319.77
   1   2   515607.52  320.90
  -1   2   6101402.4 1474.60
   1   2   6100597.8 1417.94
  -1  -2   699531.85 1448.71
   1  -2   699959.11 1434.34
   1   2   6100251.8 1256.55
  -1   2   735482.57  856.41
   1   2   736842.35  853.38
  -1  -2   734934.21  847.39
   1  -2   735404.08  843.02
  -1   2   8 9790.40  411.45
   1   2   8 9153.39  374.11
  -1  -2   8 8476.90  371.92
   1  -2   8 9887.25  409.50
   1   2   8 9278.33  266.03
  -1   2   9 9871.22  422.95
   1   2   910049.33  407.28
  -1  -2   910457.69  439.41
   1  -2   911981.05  462.53
  -1   2  1060071.63 1164.51
   1   2  1061381.40 1135.37
  -1  -2  1062864.72 1193.59
   1  -2  1059202.53 1129.85
  -1   2  1120286.07  634.36
   1   2  1119705.27  600.26
  -1  -2  1121941.53  664.47
   1  -2  1119480.19  607.20
  -1   2  12  107.70   88.31
   1   2  12   77.34   73.26
  -1  -2  12  154.35   87.64
   1  -2  12   85.46   80.49
  -1   2  13 3686.34  313.75
   1   2  13 4339.59  327.48
  -1  -2  13 3993.00  323.51
   1  -2  13 3469.42  293.61
  -1   2  14 3275.80  305.76
   1   2  14 2900.35  277.60
  -1  -2  14 2621.80  270.55
   1  -2  14 2832.59  280.72
   1   3   0 5481.24  448.12
  -1   3   0 5632.07  209.47
   1   3   0 5038.17  165.75
   1   3   0 5175.52  168.05
   1   3  -1126024.0 1542.17
  -1   3  -1123179.1 1543.07
  -1   3   1123973.8 1547.14
   1   3  -1119993.3 1412.22
   1   3  -1123887.0 1446.07
  -1   3  -241328.06  674.66
   1   3   243312.70  664.58
  -1   3   241803.30  685.81
  -1  -3   242739.57  677.55
   1  -3   242397.56  549.71
   1   3  -242388.12  590.06
   1   3  -242107.84  582.03
  -1   3   387553.39 1215.17
   1   3   388077.85 1171.13
  -1  -3   388119.83 1200.53
   1  -3   387063.36 1200.72
   1  -3   387081.86 1037.89
   1   3   391422.37 1169.28
  -1   3   424657.09  537.17
   1   3   424234.75  497.93
  -1  -3   425958.11  540.95
   1  -3   425264.49  534.87
   1   3   425207.49  447.49
  -1   3   424054.10  348.77
   1   3   425051.22  447.39
  -1   3   544514.49  817.82
   1   3   543693.62  767.31
  -1  -3   543661.07  790.77
   1  -3   543351.71  788.49
   1   3   542867.21  661.18
   1   3   543008.04  646.07
  -1   3   669605.44 1399.24
   1   3   669208.14 1355.96
  -1  -3   666244.59 1334.70
   1  -3   667833.87 1357.11
   1   3   667729.83 1198.35
  -1   3   772452.64 1471.34
   1   3   772913.63 1445.43
  -1  -3   777136.09 1543.71
   1  -3   773408.67 1478.15
   1   3   770332.79 1231.47
  -1   3   8 7361.95  357.64
   1   3   8 7707.06  349.03
  -1  -3   8 7642.55  363.76
   1  -3   8 7936.40  374.53
   1   3   8 7270.53  211.62
  -1   3   934345.97  860.67
   1   3   935749.31  852.43
  -1  -3   935981.39  876.24
   1  -3   936161.71  881.67
  -1   3  1017291.51  603.00
   1   3  1017672.11  577.23
  -1  -3  1017510.27  590.72
   1  -3  1018469.94  603.67
  -1   3  1113188.70  521.85
   1   3  1115057.82  540.87
  -1  -3  1113491.34  526.62
   1  -3  1115396.66  549.42
  -1   3  1214907.78  587.03
   1   3  1214486.97  552.24
  -1  -3  1213329.42  544.77
   1  -3  1214632.30  563.90
  -1   3  13 4531.22  340.90
   1   3  13 5094.52  352.89
  -1  -3  13 5065.89  356.14
   1  -3  13 4663.62  343.96
  -1   3  14 1100.57  184.02
   1   3  14  742.27  160.65
  -1  -3  14  786.50  159.58
   1  -3  14 1109.37  187.23
   1   4   076160.96 1062.81
  -1   4   071939.22 1048.88
   1   4  -161046.09  909.36
  -1   4  -160772.23  935.91
   1   4   159554.93  886.66
  -1   4   161372.64  944.71
   1   4  -162546.96  817.32
  -1   4  -2175276.4 2232.67
   1   4   2175992.2 2152.67
  -1   4   2174859.1 2190.83
  -1  -4   2177456.3 2192.80
   1  -4   2170587.9 1897.72
   1   4  -2170619.7 1950.02
   1   4   322810.61  492.67
  -1   4   322535.55  524.46
  -1  -4   324010.42  527.30
   1  -4   324007.43  534.85
   1  -4   323736.65  336.63
   1   4  -322995.60  420.59
  -1   4   4 6385.18  277.83
   1   4   4 7033.22  270.39
  -1  -4   4 6549.39  277.16
   1  -4   4 6678.95  280.72
   1  -4   4 6493.60  227.79
  -1   4   514081.06  466.24
   1   4   514622.38  454.05
  -1  -4   513810.82  450.64
   1  -4   514401.85  468.55
   1   4   514330.51  420.53
   1  -4   514214.88  323.40
  -1   4   652223.70 1141.97
   1   4   654211.60 1144.48
  -1  -4   654919.78 1181.64
   1  -4   654094.65 1168.41
   1   4   653054.41  986.32
  -1   4   740119.04  981.11
   1   4   739064.29  927.22
  -1  -4   738358.74  943.54
   1  -4   739539.54  956.66
   1   4   738427.55  742.24
  -1   4   8100246.9 1860.55
   1   4   8101478.2 1839.29
  -1  -4   8106174.2 1941.29
   1  -4   8101031.5 1866.28
  -1   4   944934.93  981.24
   1   4   944757.44  937.76
  -1  -4   944559.07  969.00
   1  -4   944555.40  966.61
  -1   4  1033326.04  911.18
   1   4  1031441.46  847.20
  -1  -4  1032556.99  890.85
   1  -4  1033738.56  904.43
  -1   4  11 1210.01  192.08
   1   4  11 1349.44  184.95
  -1  -4  11 1014.70  172.90
   1  -4  11 1056.35  179.42
  -1   4  12 7716.69  454.21
   1   4  12 7470.73  437.47
  -1  -4  12 6453.66  405.45
   1  -4  12 7075.89  427.83
  -1   4  1311429.63  580.65
   1   4  1313136.38  611.35
  -1  -4  1313417.26  638.49
   1  -4  1313015.57  626.32
  -1   4  1425878.62  836.30
   1   4  1425971.07  810.12
  -1  -4  1425863.79  838.60
   1  -4  1424993.52  827.70
   1   5   045010.35  914.79
  -1   5   045104.64  811.69
   1   5  -110422.79  509.55
  -1   5  -110503.83  498.29
   1   5   110597.40  340.23
  -1   5   110849.35  367.66
   1   5  -278427.94 1186.68
  -1   5  -278552.92 1245.73
  -1   5   278947.36 1218.38
   1   5   275281.01 1134.80
   1  -5   274530.61  875.25
   1   5  -276395.91  959.80
  -1   5  -3202994.6 2576.78
   1   5   3211816.7 2628.21
  -1   5   3208790.6 2647.41
  -1  -5   3209383.9 2627.19
   1   5  -3203433.6 2287.95
  -1   5   418384.14  558.27
   1   5   418744.25  534.79
  -1  -5   418646.67  549.71
   1  -5   417958.89  542.06
   1   5  -417361.89  386.29
  -1   5   5 7959.90  353.80
   1   5   5 9179.79  373.24
  -1  -5   5 7608.31  338.55
   1  -5   5 8645.12  367.48
   1  -5   5 8085.34  181.72
   1   5  -5 8228.59  227.12
  -1   5   6 3752.66  255.44
   1   5   6 3805.48  245.67
  -1  -5   6 3554.03  247.25
   1  -5   6 3350.43  239.96
   1   5   6 3191.28  434.73
   1  -5   6 3661.47  125.84
  -1   5   753902.09 1180.52
   1   5   754462.04 1148.17
  -1  -5   754216.41 1171.38
   1  -5   754937.48 1189.04
   1   5   751520.02  905.90
  -1   5   831959.22  849.00
   1   5   830821.08  793.79
  -1  -5   832025.07  833.03
   1  -5   833464.67  854.95
  -1   5   923978.31  746.68
   1   5   924178.30  714.03
  -1  -5   924536.13  749.79
  -1   5  10 1482.81  207.19
   1   5  10 1105.88  166.38
  -1  -5  10 1430.03  207.58
   1  -5  10 1313.76  184.23
  -1   5  1136208.93  896.09
   1   5  1138426.41  897.51
  -1  -5  1134871.15  879.14
   1  -5  1137373.68  902.55
  -1   5  12 7379.03  431.64
   1   5  12 6611.80  398.07
  -1  -5  12 6647.02  411.94
   1  -5  12 7026.94  419.82
  -1   5  13 1111.55  187.86
   1   5  13 1141.54  182.33
  -1  -5  13 1258.93  200.32
   1  -5  13  981.81  171.86
   1   6   035302.69  820.48
  -1   6   034326.61  826.83
   1   6  -154771.90 1449.73
  -1   6  -151041.22 1211.20
   1   6   152493.99 1103.92
  -1   6   151622.31 1118.69
   1   6  -216973.57  681.05
  -1   6  -216583.15  736.21
   1   6   216065.37  496.01
  -1   6   215884.46  515.66
   1   6  -216180.80  356.33
   1  -6   215617.02  311.96
   1   6  -3 2066.28  182.00
  -1   6  -3 2069.35  189.70
   1   6   3 2159.90  183.81
  -1   6   3 2145.10  184.97
  -1   6  -419948.32  611.48
   1   6   419853.11  587.07
  -1   6   419628.15  606.40
  -1  -6   420373.33  613.65
   1   6  -419376.22  377.10
  -1   6   5 6328.51  333.32
   1   6   5 6845.54  331.08
  -1  -6   5 7124.43  349.94
  -1   6   6 7831.55  379.37
   1   6   6 8279.65  370.56
  -1  -6   6 7838.47  366.74
   1  -6   6 7808.91  376.30
   1   6   6 7792.25  270.38
  -1   6   710270.22  452.31
   1   6   710393.38  437.06
  -1  -6   7 9918.76  441.86
   1  -6   710905.45  462.80
  -1   6   840864.31 1027.10
   1   6   840647.78  982.33
  -1  -6   842117.76 1024.65
   1  -6   842196.40 1028.42
  -1   6   912209.68  517.75
   1   6   913178.78  504.64
  -1  -6   911163.81  478.09
   1  -6   913217.26  531.26
  -1   6  10  976.35  159.54
   1   6  10 1023.96  166.33
  -1  -6  10  829.02  162.53
   1  -6  10 1018.44  185.22
   1   6  11 1255.53  191.07
  -1   6  11 1575.46  216.26
  -1  -6  11 1088.34  174.70
   1  -6  11 1353.11  202.95
  -1   6  12 1560.17  217.37
   1   6  12 1538.18  207.05
  -1  -6  12 1771.91  239.14
   1  -6  12 1938.84  240.65
  -1   6  13 7681.65  467.48
   1   6  13 8233.65  460.48
  -1  -6  13 8550.09  490.18
   1  -6  13 7492.66  459.50
   1   7   010256.80  407.81
  -1   7   010481.78  429.89
   1   7  -114286.42  775.81
  -1   7  -113957.97  533.30
  -1   7   114856.24  527.32
   1   7   114888.81  505.77
   1   7  -2 4164.71  289.51
  -1   7  -2 4082.39  822.49
   1   7   2 4225.28  253.57
  -1   7   2 4081.67  267.08
   1   7  -2 3951.27  137.82
   1   7  -3   78.60   85.36
  -1   7  -3  137.19   98.84
  -1   7   3  179.75  114.27
   1   7   3   65.60   70.56
   1   7  -472554.04 1445.95
  -1   7  -474194.44 1594.33
   1   7   471845.10 1414.52
  -1   7   470685.98 1438.94
   1   7  -542506.59  986.79
  -1   7  -546646.82 1042.09
   1   7   545231.55  993.59
  -1   7   545519.20 1040.01
  -1   7  -6 3982.99  304.27
  -1   7   6 3485.58  274.09
   1   7   6 3743.73  270.44
  -1  -7   6 3965.27  273.46
  -1   7   7 8132.60  416.25
   1   7   7 9137.73  433.99
  -1  -7   7 8584.82  421.46
   1  -7   7 8721.39  431.07
  -1   7   8 5976.15  358.78
   1   7   8 5718.54  340.42
  -1  -7   8 6226.68  373.22
   1  -7   8 5760.00  348.89
   1   7   9 3937.30  293.04
  -1   7   9 4926.29  346.96
  -1  -7   9 4373.21  321.24
   1  -7   9 4971.11  346.41
  -1   7  10 1442.25  203.20
   1   7  10 1030.67  173.08
  -1  -7  10 1003.20  182.33
   1  -7  10 1142.06  186.48
  -1   7  11  396.79  121.41
   1   7  11  520.34  136.47
  -1  -7  11  338.36  104.08
   1  -7  11  651.88  162.27
  -1   7  12  461.38  151.19
   1   7  12  714.64  155.70
  -1  -7  12  527.03  145.19
   1   8   052125.29 1084.96
  -1   8   052426.78 1122.73
   1   8  -1 4481.37  276.27
  -1   8  -1 5015.56  309.26
   1   8   1 4987.74  294.30
  -1   8   1 4280.83  296.39
   1   8  -219165.37  859.44
  -1   8  -220453.78  794.52
   1   8   220237.32  610.80
  -1   8   219019.68  622.49
   1   8  -329961.93 1588.51
  -1   8  -328772.03  791.73
   1   8   330489.71  751.01
  -1   8   330873.29  796.91
   1   8  -4  541.15  139.19
  -1   8  -4  384.52  191.69
   1   8   4  466.95  123.09
  -1   8   4  557.30  142.63
   1   8  -516562.11  605.84
  -1   8  -515138.03  621.51
  -1   8   514289.49  557.15
   1   8   515536.89  562.25
   1   8  -6 2041.49  234.02
  -1   8  -6 1607.94  223.90
  -1   8   6 2036.42  233.54
   1   8   6 1775.72  197.78
  -1   8  -7 4696.44  342.46
   1   8   7 4756.72  323.83
  -1   8   7 5035.37  344.17
  -1  -8   7 4883.80  327.92
  -1   8  -8 3613.84  331.07
  -1   8   8 2925.49  270.37
   1   8   8 2821.85  251.06
  -1  -8   8 2913.61  261.71
  -1   8   9 2699.55  274.80
   1   8   9 2928.33  273.20
  -1  -8   9 3016.15  279.41
   1  -8   9 2964.81  288.73
  -1   8  1010636.73  567.90
   1   8  1010209.74  536.60
  -1  -8  1011034.13  573.35
   1  -8  1010937.71  570.62
  -1   8  11 1201.60  196.82
  -1  -8  11 1478.41  221.70
   1  -8  11 1703.87  226.56
   1   9   086191.13 1213.54
  -1   9   084771.23 1644.04
   1   9  -128080.68  793.12
  -1   9  -127565.37  806.34
   1   9   126059.53  753.28
  -1   9   127510.39  812.22
   1   9  -2 5717.84  555.08
  -1   9  -2 5115.70  335.45
   1   9   2 5161.83  318.63
  -1   9   2 5534.83  346.13
   1   9  -343359.84 1354.81
  -1   9  -342753.27 1112.91
   1   9   340093.26  843.07
  -1   9   341142.02  900.06
   1   9  -426100.38  870.65
  -1   9  -426681.51 1385.55
   1   9   427078.75  716.43
  -1   9   426873.12  754.05
   1   9  -519203.77 1576.77
  -1   9  -519813.51  783.12
   1   9   520064.25  631.82
  -1   9   520045.63  666.45
   1   9  -6  709.67  194.05
  -1   9  -6  530.60  165.53
   1   9   6  696.71  142.04
  -1   9   6  781.10  161.61
   1   9  -7 1534.67  221.67
  -1   9  -7 1090.09  374.54
   1   9   7 1646.79  213.72
  -1   9   7 1338.09  224.73
   1   9  -8 5604.85  403.80
  -1   9  -8 5864.81  392.94
   1   9   8 6513.05  396.59
  -1   9   8 5536.40  375.82
  -1   9  -921975.28  890.11
  -1   9   918450.65  777.36
   1   9   918896.67  771.84
  -1   9 -10  348.71  137.61
  -1   9  10  409.46  135.91
   1   9  10  325.56  111.00
  -1  -9  10  382.69  134.54
   1  10   0  490.23  168.58
  -1  10   0  258.80  139.23
   1  10  -114266.29  556.86
  -1  10  -113745.74  557.93
   1  10   113779.47  542.23
  -1  10   113176.87  538.91
   1  10  -226052.02  740.22
  -1  10  -225690.23  760.21
   1  10   223319.18  690.74
  -1  10   224640.84  729.26
   1  10  -339302.51 1262.89
  -1  10  -338695.52 1785.17
   1  10   342939.06  936.13
  -1  10   341424.45  951.88
   1  10  -4 9707.26 1328.51
  -1  10  -4 9901.70  526.68
   1  10   4 8986.46  444.45
  -1  10   410389.70  509.77
  -1  10  -516649.03 1311.29
   1  10  -516952.69 1772.88
  -1  10   518636.53  756.92
   1  10   518186.32  726.87
  -1  10  -6 8817.52 1183.35
   1  10  -6 8046.18  638.80
   1  10   6 8988.46  458.07
  -1  10   6 9374.24  488.76
   1  10  -7  210.50  155.95
  -1  10  -7  538.53  212.79
  -1  10   7  158.51  118.68
   1  10   7  114.88   86.50
   1  10  -8  668.50  323.68
  -1  10  -8  631.47  317.91
   1  10   8 1478.54  202.73
  -1  10   8 1319.68  207.76
   1  10  -9 5117.34  448.80
  -1  10  -9 3365.34 1061.16
  -1  10   9 4536.43  367.84
   1  10   9 4061.38  330.07
   1  11   0  134.70   84.24
  -1  11   0  246.77  118.56
   1  11  -1  482.27  133.33
  -1  11  -1  455.05  148.70
   1  11   1  385.25  128.65
  -1  11   1  404.87  141.31
  -1  11  -2 6490.01  414.91
   1  11  -2 6105.04  386.28
  -1  11   2 6544.83  406.36
   1  11   2 6544.99  391.26
   1  11  -3 1277.88  195.05
  -1  11  -3 1302.16  201.21
   1  11   3 1207.61  188.47
  -1  11   3 1278.60  192.37
   1  11  -4 6842.42  737.30
  -1  11  -4 6492.18 1401.73
   1  11   4 7229.33  446.48
  -1  11   4 7539.71  471.26
   1  11  -5 5045.37 1017.67
  -1  11  -5 5627.79  774.70
  -1  11   5 5889.03  413.30
   1  11   5 6020.05  404.08
   1  11  -6 3911.62 1006.75
  -1  11  -6 3614.89  976.92
  -1  11   6 4646.74  363.18
   1  11   6 3923.21  320.56
   1  11  -7 1856.40  707.93
  -1  11  -7 2194.14  509.37
  -1  11   7 2690.19  295.01
   1  11   7 2740.81  284.18
   1  12   0 7288.30  439.98
  -1  12   0 7674.83  448.41
  -1  12  -1  252.78  124.60
   1  12  -1  264.37  138.76
  -1  12   1  138.79   83.45
   1  12   1  349.14  129.03
   1  12  -2 4415.57  359.92
  -1  12  -2 4360.05  374.83
  -1  12   2 3509.12  313.59
   1  12   2 4556.14  349.73
   1  12  -3 1107.88  204.75
  -1  12  -3  911.26  205.27
  -1  12   3 1112.57  206.62
   1  12   3  693.27  151.52
   1  12  -4 1908.12  252.57
  -1  12  -4 2237.72  270.67
   1  12   4 1771.29  231.35
  -1  12   4 2058.77  266.02
   2   0   030579.95  368.02
  -2   0   030480.02  363.01
   2   0   029771.79  530.79
   2   0   029741.93  539.34
   2   0   029716.00  530.13
   2   0   029736.38  544.17
  -2   0  -1374966.3 3931.02
   2   0  -1364588.0 4060.04
   2   0   1367147.0 4108.47
   2   0  -1355319.6 3983.78
   2   0   1359738.9 4032.65
   2   0  -1361327.3 4023.04
   2   0   1371049.5 4152.23
  -2   0  -229881.49  399.66
  -2   0   229068.20  452.36
   2   0   229530.49  396.06
   2   0  -229976.33  551.10
   2   0   229222.56  542.72
   2   0   229045.85  538.16
   2   0  -229014.36  545.22
   2   0   229849.93  553.79
   2   0  -228718.12  504.43
   2   0   230334.48  560.55
  -2   0   3170344.2 2004.31
   2   0  -3173355.4 2096.35
   2   0   3174705.2 2128.18
   2   0   3173502.1 2124.40
   2   0   3173286.8 2117.53
   2   0  -3175409.4 2071.44
   2   0   3169669.1 2084.70
  -2   0   4201429.8 2412.80
   2   0   4204261.6 2373.71
   2   0  -4199691.5 2356.04
   2   0   4201868.5 2458.58
   2   0   4197516.1 2416.13
   2   0  -4201124.4 2364.18
   2   0   4203083.1 2489.54
  -2   0   5 5789.63  240.51
   2   0   5 6192.45  228.60
   2   0  -5 6004.39  204.87
   2   0   5 6287.46  249.10
   2   0   5 6218.54  256.08
  -2   0   679860.81 1526.89
   2   0   681915.39 1513.88
   2   0  -680125.29 1424.39
   2   0   684178.71 1573.50
  -2   0   733693.62  816.15
   2   0   736176.58  821.65
   2   0   734586.80  792.05
  -2   0   8  202.74   89.27
   2   0   8  263.13   97.10
   2   0   8   78.95   45.11
  -2   0   947257.04 1030.74
   2   0   945943.61  967.71
   2   0   944761.72  888.51
  -2   0  10 3866.23  270.45
   2   0  10 4546.34  276.56
   2   0  10 4184.19  225.02
  -2   0  11  496.19  129.63
   2   0  11  367.98   96.98
  -2   0  1218935.08  641.13
   2   0  1218756.36  601.44
  -2   0  13 1014.79  177.40
   2   0  13  958.91  153.91
  -2   0  14 3903.99  330.88
   2   0  14 2797.62  259.17
   2   1   035735.21  412.86
  -2   1   035605.42  483.77
   2   1   035687.21  411.39
   2   1   034179.67  617.06
   2  -1   034793.59  590.85
   2   1   036039.95  618.72
   2  -1   035151.78  593.28
   2  -1   035501.20  600.83
   2   1   034980.08  602.36
   2  -1   034333.79  588.75
   2   1   034918.88  703.50
  -2   1  -1289102.9 3127.37
  -2   1   1284983.1 3120.27
   2   1  -1285099.9 3074.57
  -2  -1   1284264.4 3059.91
   2   1  -1289418.0 3297.36
   2   1   1290338.7 3345.41
   2  -1  -1288251.2 3254.68
   2  -1   1285526.7 3262.86
   2   1   1288834.8 3313.01
   2  -1   1283680.5 3221.76
   2   1  -1283412.0 3234.76
   2  -1  -1281524.0 3219.22
   2  -1  -1282578.4 3200.05
   2   1   1289200.3 3303.63
   2   1  -1288002.1 3276.27
   2   1  -1284771.1 3247.93
   2  -1   1286453.1 3255.81
   2   1   1288856.5 3299.50
  -2  -1  -2351226.4 3737.90
  -2   1   2360388.0 3954.85
   2   1   2353669.2 3765.13
  -2  -1   2351495.2 3829.11
   2   1  -2354415.1 3976.71
   2   1   2346155.7 3906.76
   2  -1  -2365124.0 4045.39
   2  -1   2348586.7 3939.91
   2   1   2357129.7 4041.62
   2  -1   2359690.7 4035.01
   2  -1  -2354342.5 3934.59
   2   1   2347945.7 3934.48
   2   1  -2348279.2 3908.32
   2  -1   2353823.2 3964.17
   2   1   2351402.4 3975.82
  -2   1   384421.96 1124.73
  -2  -1   382569.52 1082.84
   2  -1   383388.02 1057.11
   2   1   387337.16 1204.21
   2  -1  -380818.17 1064.06
   2  -1   382006.48 1165.73
   2  -1   385868.59 1178.67
   2   1   386219.50 1194.33
   2  -1  -383897.38 1094.49
   2   1  -383653.21 1140.18
   2  -1   384883.45 1168.05
   2   1   384592.45 1199.22
  -2   1   445774.30  751.58
   2   1   445600.52  677.71
  -2  -1   444535.64  723.96
   2  -1   444583.94  689.75
   2  -1  -444153.66  663.69
   2   1   444325.23  740.85
   2   1   445025.61  758.58
   2  -1  -445770.73  675.88
   2  -1   445572.26  767.61
   2   1   445041.58  797.31
  -2   1   555451.52  912.99
   2   1   555154.76  833.70
  -2  -1   555756.98  902.76
   2  -1   554110.60  842.41
   2   1   557455.39  904.79
   2   1   555456.18  890.45
   2  -1  -556837.74  792.74
  -2   1   651500.39 1085.64
   2   1   650153.13 1006.80
  -2  -1   649927.71 1051.06
   2  -1   648988.00 1002.02
   2   1   650140.28 1009.57
   2   1   651120.66 1036.48
  -2   1   730934.00  777.70
   2   1   732758.23  760.17
  -2  -1   731702.27  782.11
   2  -1   733210.33  782.06
   2  -1  -731059.01  702.85
   2   1   732617.30  746.96
  -2   1   822927.23  658.58
   2   1   822082.14  592.33
  -2  -1   822802.72  645.73
   2  -1   823797.40  633.98
   2   1   822377.15  665.59
  -2   1   911781.75  465.74
   2   1   910989.20  411.18
  -2  -1   910994.41  435.78
   2  -1   912372.85  447.69
   2   1   911404.70  535.20
  -2   1  1047674.91 1089.01
   2   1  1047431.97 1033.39
  -2  -1  1046541.95 1068.58
   2  -1  1047740.02 1049.81
  -2   1  11 1559.26  203.77
   2   1  11 1381.65  167.70
  -2  -1  11 1470.88  194.57
   2  -1  11 1247.25  162.76
  -2   1  1212676.10  529.52
   2   1  1212679.71  496.42
  -2  -1  1210571.24  487.20
   2  -1  1211829.42  485.62
  -2   1  13 1737.54  214.73
   2   1  13 1289.49  175.81
  -2  -1  13 1595.37  210.99
   2  -1  13 1390.38  186.65
  -2   1  14 9051.24  487.36
   2   1  14 9396.46  470.69
  -2  -1  14 8741.71  475.97
   2  -1  14 9297.84  470.02
  -2   2   0118003.2 1423.09
   2   2   0119833.1 1552.95
   2  -2   0116024.8 1491.64
   2   2   0117004.8 1506.12
   2  -2   0119049.0 1504.67
   2   2   0119556.4 1549.21
   2   2   0117702.0 1508.44
  -2   2  -161639.28  843.75
   2   2   160190.83  731.94
  -2   2   161696.62  847.08
  -2  -2   161841.68  791.12
   2   2   160490.76  914.67
   2  -2  -161485.89  890.66
   2   2   161044.66  918.84
   2   2  -160930.95  898.27
   2  -2   161395.34  878.65
   2   2   160674.69  915.63
   2   2  -160031.39  909.49
   2  -2   161075.30  879.72
   2   2  -161295.08  904.07
   2   2   160050.25  905.90
  -2   2  -2191552.5 2209.67
  -2   2   2191557.7 2245.52
  -2  -2   2188645.3 2162.91
   2   2   2195351.1 2349.00
   2  -2  -2195853.3 2286.41
   2   2   2191817.8 2336.58
   2  -2   2194685.5 2289.12
   2   2  -2189034.7 2263.13
   2  -2  -2192301.5 2250.41
   2   2   2192774.3 2324.81
   2   2  -2189370.4 2289.58
   2   2  -2189007.9 2260.42
   2  -2   2193460.0 2280.90
   2   2   2190428.4 2316.31
  -2   2   338766.47  661.52
  -2  -2   336754.63  608.17
   2  -2   337634.50  616.65
   2   2   338430.82  675.96
   2  -2  -336992.81  589.88
   2  -2   337306.72  631.65
   2   2  -337165.19  655.27
   2  -2  -338487.44  608.80
   2   2   338378.99  679.24
   2  -2   337049.70  630.53
   2   2   337654.77  702.89
  -2   2   4118106.8 1583.73
   2   2   4113741.3 1428.49
  -2  -2   4113802.3 1498.68
   2  -2   4115620.2 1505.50
   2   2   4118478.1 1563.74
   2  -2   4119645.3 1555.85
   2  -2  -4116805.7 1432.98
   2   2   4117601.1 1563.16
   2  -2   4115044.5 1509.22
  -2   2   511936.70  374.35
   2   2   511971.39  323.53
  -2  -2   511433.91  353.13
   2  -2   512254.84  352.89
   2   2   511786.75  335.81
   2  -2   512317.27  342.85
   2   2   512335.10  351.56
   2  -2  -511693.30  256.97
  -2   2   6 4827.84  249.72
   2   2   6 5076.82  231.72
  -2  -2   6 4920.19  252.96
   2  -2   6 5464.12  259.34
   2   2   6 5962.15  249.93
   2  -2  -6 5166.95  164.10
   2   2   6 5722.61  247.29
   2  -2  -6 5920.08  177.97
  -2   2   7 7752.11  350.49
   2   2   7 7687.20  314.00
  -2  -2   7 7937.01  346.29
   2  -2   7 8272.82  343.25
   2   2   7 7872.95  290.36
   2  -2  -7 7207.73  185.32
   2   2   7 7399.75  500.12
  -2   2   820065.49  622.13
   2   2   819462.95  555.19
  -2  -2   819634.20  606.16
   2  -2   819387.59  576.92
   2   2   820404.89  509.33
   2   2   818877.90  674.18
  -2   2   915227.74  541.52
   2   2   914423.93  479.62
  -2  -2   914855.16  529.61
   2  -2   914750.57  504.25
   2   2   914348.47  504.61
  -2   2  1025715.18  765.01
   2   2  1025985.88  713.30
  -2  -2  1026290.36  759.97
   2  -2  1026088.25  737.10
  -2   2  11 7520.97  404.95
   2   2  11 7480.12  370.00
  -2  -2  11 7216.78  381.61
   2  -2  11 6705.08  360.61
  -2   2  12 3042.61  286.53
   2   2  12 3230.99  258.03
  -2  -2  12 3034.87  273.04
   2  -2  12 3411.54  284.37
  -2   2  13 2097.05  242.83
   2   2  13 1962.33  216.17
  -2  -2  13 2301.23  248.87
   2  -2  13 2273.43  235.86
  -2   2  14 2592.66  274.61
   2   2  14 2349.18  238.18
  -2  -2  14 2133.11  253.98
   2  -2  14 2459.92  255.46
   2   3   0 3472.54  271.52
  -2   3   0 3405.62  170.62
   2   3   0 3896.44  245.53
   2   3   0 3722.71  206.65
   2   3   0 3625.93  188.10
   2   3  -1104530.0 1309.20
  -2   3  -1104856.0 1365.93
  -2   3   1104603.4 1376.45
   2   3   1104594.1 1420.27
   2   3  -1105486.1 1396.92
   2  -3   1106853.1 1374.18
   2   3   1105875.8 1447.73
   2  -3   1103553.5 1345.13
   2   3  -1107508.6 1412.44
   2   3   1107013.0 1441.82
  -2   3  -2141483.8 1794.92
   2   3   2139420.4 1668.17
  -2   3   2145951.5 1843.83
  -2  -3   2141842.3 1745.51
   2   3   2142970.7 1842.59
   2  -3   2140428.0 1726.26
   2   3  -2143683.4 1806.26
   2   3   2144072.3 1856.87
   2   3  -2141545.6 1775.20
   2  -3   2146740.3 1803.28
   2   3   2143706.2 1859.97
  -2   3   342226.11  739.44
   2   3   341672.73  647.01
  -2  -3   343024.26  711.06
   2   3   344107.77  799.29
   2  -3   343499.56  683.68
   2   3  -341775.08  703.18
   2   3   343589.49  754.87
   2   3  -343221.34  716.02
   2  -3   344105.79  698.06
  -2   3   4189543.9 2386.32
   2   3   4186335.8 2242.33
  -2  -3   4192684.0 2376.76
   2  -3   4186277.4 2314.87
   2   3   4194554.3 2396.64
   2  -3   4188704.3 2277.91
   2   3   4186637.6 2315.22
   2  -3   4190087.8 2284.07
  -2   3   530565.33  745.36
   2   3   531097.25  693.04
  -2  -3   531018.16  734.77
   2  -3   530870.34  727.68
   2   3   530680.27  694.49
   2  -3   530548.25  667.76
   2  -3  -530361.62  601.90
   2   3   531201.85  706.40
  -2   3   618857.86  573.26
   2   3   617747.73  495.55
  -2  -3   618138.67  540.16
   2  -3   617834.23  529.06
   2   3   617598.84  474.77
   2  -3   617540.58  467.99
   2  -3  -618063.63  371.33
   2   3   618788.54  499.98
  -2   3   756767.33 1182.34
   2   3   760644.79 1162.19
  -2  -3   761028.57 1224.10
   2  -3   760167.96 1198.96
   2   3   758796.24 1073.25
   2   3   760285.15 1102.67
  -2   3   8 1541.22  187.82
   2   3   8 2003.08  171.44
  -2  -3   8 1728.48  179.29
   2  -3   8 1701.74  182.87
   2   3   8 1946.96  135.44
   2   3   8 1772.11  134.36
  -2   3   9 8753.13  405.79
   2   3   9 8419.41  365.73
  -2  -3   9 8429.64  390.63
   2  -3   9 8242.14  389.77
  -2   3  10 7388.78  392.89
   2   3  10 6812.25  335.23
  -2  -3  10 7803.35  397.35
   2  -3  10 7209.45  369.02
  -2   3  1112803.42  523.44
   2   3  1112866.46  490.63
  -2  -3  1113341.40  531.05
   2  -3  1113699.95  526.12
  -2   3  1229227.95 1000.62
   2   3  1228273.60  924.39
  -2  -3  1230630.12 1016.42
   2  -3  1230827.13 1009.38
  -2   3  1317039.15  731.69
   2   3  1318449.52  727.56
  -2  -3  1320129.11  799.11
   2  -3  1318775.26  756.85
   2   3  14 2297.94  244.57
  -2  -3  14 2408.48  269.03
   2  -3  14 2377.20  261.51
   2   4   012793.84  495.81
  -2   4   013051.94  368.85
   2   4   012519.67  382.07
   2   4   012835.94  344.88
   2   4  -1 2576.90  285.11
  -2   4  -1 2260.18  315.74
   2   4   1 2280.43  133.02
  -2   4   1 2491.04  172.36
   2   4   1 2728.80  168.94
   2   4  -1 2225.03  144.03
   2  -4   1 2397.28  134.33
   2   4  -1 2435.74  144.84
   2   4   1 2725.51  167.06
  -2   4  -2 2087.02  290.39
   2   4   2 2293.75  138.51
  -2   4   2 2433.36  168.06
  -2  -4   2 2148.23  142.68
   2   4  -2 2481.37  148.00
   2  -4   2 2401.18  129.98
   2   4   2 2179.28  160.72
   2  -4   2 2355.70  341.13
   2   4  -2 2192.98  136.50
   2   4   2 2297.26  170.88
  -2   4  -376336.61 1448.40
  -2   4   376638.20 1471.51
   2   4   379641.99 1445.55
  -2  -4   377447.67 1447.15
   2   4   378291.30 1478.27
   2  -4   374447.63 1320.96
   2   4  -377983.23 1422.18
   2   4   377189.28 1463.26
   2   4  -376242.90 1390.97
   2  -4   375204.56 1338.37
  -2   4   4104866.3 1944.44
   2   4   4107591.3 1907.12
  -2  -4   4112515.5 2028.25
   2  -4   4107797.8 1968.20
   2   4   4111244.0 2001.78
   2  -4   4106388.1 1829.15
   2   4   4106969.2 1929.98
   2   4  -4107315.7 1886.65
   2  -4   4110822.0 1904.30
  -2   4   537893.60  898.22
   2   4   537819.94  830.56
  -2  -4   537366.77  861.74
   2  -4   538612.26  893.14
   2   4   538765.18  869.06
   2  -4   537757.82  765.02
   2  -4  -538262.22  734.94
   2   4   539043.04  851.23
  -2   4   628169.46  763.04
   2   4   627997.32  695.13
  -2  -4   627605.49  727.08
   2  -4   627052.38  723.79
   2   4   627327.06  648.51
   2  -4   626725.59  601.27
   2  -4  -626980.68  528.46
   2   4   627106.18  648.59
  -2   4   710621.60  447.23
   2   4   710004.47  386.15
  -2  -4   7 9568.24  403.26
   2  -4   710771.07  429.29
   2   4   710700.32  343.02
   2  -4   710294.84  328.79
   2   4   710178.22  335.33
  -2   4   823027.64  681.23
   2   4   821701.41  606.62
  -2  -4   822367.42  658.37
   2  -4   822970.16  667.06
   2   4   821747.05  511.71
   2  -4   821801.08  523.87
   2   4   820432.79  493.51
  -2   4   9  280.45  106.61
   2   4   9  136.57   75.05
   2  -4   9  201.41   91.68
  -2   4  10 8364.48  421.52
   2   4  10 9954.15  419.18
  -2  -4  1010394.49  458.85
   2  -4  10 8689.53  412.18
  -2   4  11 1184.07  185.95
   2   4  11 1020.84  156.22
  -2  -4  11 1020.72  173.90
   2  -4  11  781.72  154.01
  -2   4  1225557.17  780.54
   2   4  1226731.78  742.21
  -2  -4  1226441.88  781.98
   2  -4  1226162.76  776.46
  -2   4  13  113.55   80.33
   2   4  13  125.15   65.90
  -2  -4  13  290.24  110.28
   2  -4  13  303.65  112.72
   2   5   0 3441.91  184.05
  -2   5   0 3722.07  216.80
   2   5   0 3916.96  200.40
   2   5   0 3696.77  191.63
   2   5  -148611.68  994.90
  -2   5  -147543.43 1013.19
   2   5   148569.79  982.70
  -2   5   148455.96 1037.68
   2   5   148363.01 1005.62
   2   5  -148059.66  968.71
   2  -5   148034.06  929.43
   2   5  -148763.76  968.20
   2   5   148530.89  997.94
   2   5  -224682.72  779.09
  -2   5  -226855.14 1114.56
   2   5   225291.87  607.36
  -2   5   225742.53  670.57
   2   5  -225207.73  583.12
   2   5  -224610.22  563.09
  -2   5  -329958.71  911.72
   2   5   330722.16  711.05
  -2   5   329635.77  752.35
  -2  -5   329900.86  719.00
   2   5  -329865.78  654.11
   2  -5   330210.02  610.69
   2   5  -330985.57  666.64
  -2   5  -414183.00  477.45
  -2   5   413486.75  476.83
   2   5   414560.44  443.67
  -2  -5   414393.10  470.68
   2   5   414263.34  443.34
   2  -5   413225.91  333.30
   2   5  -412948.15  434.25
  -2   5   532095.77  804.06
   2   5   531936.45  763.04
  -2  -5   531993.95  803.85
   2  -5   531283.39  801.59
   2   5   532499.92  801.61
   2  -5   530175.13  614.31
   2   5  -531625.59  692.27
  -2   5   6 2547.56  227.01
   2   5   6 2061.57  170.96
  -2  -5   6 2401.41  202.91
   2  -5   6 1961.73  185.31
   2   5   6 1859.63  264.98
   2  -5   6 2048.16  118.15
   2   5  -6 2632.56  158.81
  -2   5   745608.74 1028.37
   2   5   745510.28  959.61
  -2  -5   746045.47 1010.88
   2  -5   744834.72  998.25
   2   5   745628.85  863.17
  -2   5   827509.69  759.00
   2   5   826937.53  717.24
  -2  -5   826851.02  764.20
   2  -5   827751.47  780.27
  -2   5   9 3090.35  266.05
   2   5   9 2780.61  224.93
  -2  -5   9 3108.44  256.65
   2  -5   9 3322.81  264.69
  -2   5  1028080.59  783.06
   2   5  1027656.11  712.81
  -2  -5  1027516.90  756.49
   2  -5  1027412.35  754.13
  -2   5  1114114.54  640.46
   2   5  1115009.58  623.91
  -2  -5  1115730.55  677.25
   2  -5  1116536.89  696.78
  -2   5  12 1883.12  233.60
   2   5  12 1588.46  199.99
  -2  -5  12 1990.89  246.57
   2  -5  12 1595.26  210.73
  -2   5  13 1301.51  207.17
   2   5  13 1585.04  202.39
  -2  -5  13 1321.28  202.80
   2  -5  13 1588.27  214.66
   2   6   038529.97  862.89
  -2   6   039167.24  922.67
   2   6   040033.56  860.41
   2   6  -1 5262.81  523.66
  -2   6  -1 5219.41  276.91
   2   6   1 5141.94  253.13
  -2   6   1 5142.87  278.69
   2   6   1 5369.05  253.18
   2   6  -1 5185.40  360.88
   2   6  -1 5036.12  219.05
   2   6  -227267.44 1094.94
  -2   6  -228534.49 1035.96
   2   6   227662.26  689.05
  -2   6   227145.17  733.82
   2   6  -227925.34  630.36
   2   6  -229337.31  647.40
   2   6  -362690.07 1294.51
  -2   6  -362564.14 1651.49
  -2   6   361374.00 1320.42
   2   6   363420.40 1282.57
   2  -6   360595.26 1080.42
   2   6  -364811.64 1201.17
  -2   6  -4 3935.79  431.93
  -2   6   4 4098.65  271.28
   2   6   4 3661.04  220.90
  -2  -6   4 4191.14  245.73
   2   6  -4 3959.03  176.24
  -2   6  -526726.97  713.76
  -2   6   526776.71  732.14
   2   6   527455.23  682.34
  -2  -6   526698.78  693.15
   2   6   527074.19  641.13
   2   6  -525516.57  547.67
  -2   6  -641439.69  970.82
  -2   6   643123.06  995.92
   2   6   642753.87  854.49
  -2  -6   643935.19  984.30
   2   6   643728.36  811.49
  -2   6   7 3163.01  252.93
   2   6   7 3840.67  261.28
  -2  -6   7 3248.46  256.90
   2  -6   7 3242.82  255.15
   2   6   7 2925.98  364.56
  -2   6   8 4543.76  320.81
   2   6   8 4166.08  274.07
  -2  -6   8 4787.67  308.96
   2  -6   8 4368.20  298.35
  -2   6   911959.89  517.56
   2   6   912368.75  472.48
  -2  -6   911937.34  499.28
   2  -6   911729.03  503.07
  -2   6  10 4690.89  348.68
   2   6  10 4842.90  334.83
  -2  -6  10 4752.52  349.77
   2  -6  10 4528.35  341.31
  -2   6  11 4534.65  339.42
   2   6  11 4459.12  315.89
  -2  -6  11 4664.20  339.15
   2  -6  11 4574.19  342.27
  -2   6  12  684.59  165.19
   2   6  12  357.03  106.47
  -2  -6  12  268.63   97.46
   2   7   047928.24 1014.15
  -2   7   047004.73 1054.80
   2   7   046654.68  960.82
   2   7  -132856.12 1021.62
  -2   7  -134711.55  865.88
   2   7   134234.93  812.11
  -2   7   133487.79  843.02
   2   7   134353.92  768.40
   2   7  -132994.68  753.76
   2   7  -216534.23 1053.72
  -2   7  -216316.63  746.34
   2   7   215880.15  491.32
  -2   7   216924.17  567.96
   2   7  -216140.95  398.46
   2   7  -3 3524.24  622.38
  -2   7  -3 3818.57  355.66
  -2   7   3 3926.76  275.22
   2   7   3 3724.90  232.34
   2   7  -440114.11  922.11
  -2   7  -438118.29 1335.15
   2   7   437945.29  855.03
  -2   7   439109.10  936.53
   2   7  -5 4220.15  300.81
  -2   7  -5 3880.04  654.33
  -2   7   5 4530.60  308.03
   2   7   5 3865.39  248.89
   2   7   5 4175.10  240.54
  -2   7  -6 2996.37  255.74
  -2   7   6 3934.07  315.35
   2   7   6 3505.69  258.95
  -2  -7   6 3033.16  241.51
   2   7   6 3784.40  226.67
  -2   7  -721554.42  667.29
  -2   7   720679.57  657.95
   2   7   719482.68  571.60
  -2  -7   720667.23  620.30
  -2   7   818210.89  641.47
   2   7   818119.63  577.73
  -2  -7   817870.96  605.63
  -2   7   910687.46  543.50
   2   7   910435.38  499.92
  -2  -7   910997.48  541.89
   2  -7   910834.26  541.19
  -2   7  10  784.76  169.10
   2   7  10  737.43  141.44
  -2  -7  10 1161.54  198.31
   2  -7  10  701.41  147.17
  -2   7  11  745.98  164.46
   2   7  11  738.16  147.27
  -2  -7  11  927.22  177.59
   2  -7  11  791.69  158.93
   2   8   0 1290.39  164.87
  -2   8   0 1108.01  168.15
   2   8   0  856.17  245.48
   2   8  -140708.79  863.27
  -2   8  -141098.19  911.86
   2   8   140512.65  855.30
  -2   8   140631.99  908.45
   2   8   139736.84  761.13
   2   8  -238448.26 1289.24
  -2   8  -237183.75  860.63
   2   8   239337.55  840.30
  -2   8   239130.91  897.54
   2   8   238876.44  777.24
   2   8  -314905.85  802.21
  -2   8  -313759.99  887.88
   2   8   314970.32  517.01
  -2   8   315019.72  564.50
   2   8  -415064.71  836.80
  -2   8  -415855.98  761.39
   2   8   415276.91  536.33
  -2   8   415223.65  583.86
   2   8  -510188.86  450.40
  -2   8  -510857.11  504.84
  -2   8   5 9011.34  435.51
   2   8   5 9748.00  414.58
   2   8  -613590.31  531.20
  -2   8  -613910.32  672.47
  -2   8   612833.88  537.68
   2   8   614184.63  508.25
  -2   8  -717217.39  710.55
  -2   8   718476.09  641.47
   2   8   717566.93  574.26
  -2  -8   718717.71  620.03
  -2   8  -8 8963.63  493.21
  -2   8   8 8330.74  474.36
   2   8   8 9042.76  466.98
  -2  -8   8 8676.93  469.07
  -2   8  -9 7945.60  466.63
  -2   8   9 6734.85  422.20
   2   8   9 7097.32  399.50
  -2  -8   9 6758.84  405.71
  -2   8 -10 4634.96  393.41
  -2   8  10 4705.58  362.56
   2   8  10 4085.20  310.91
  -2  -8  10 3783.54  320.61
  -2   8  11 6256.79  426.98
   2   8  11 5597.87  381.71
  -2  -8  11 5898.77  405.95
   2  -8  11 6022.34  410.23
   2   9   015753.38  532.49
  -2   9   017002.91  585.59
   2   9  -1 4590.47  291.64
  -2   9  -1 4227.13  300.29
   2   9   1 5005.02  302.18
  -2   9   1 4849.29  316.51
   2   9  -2 6004.21  477.68
  -2   9  -2 5332.36  345.10
   2   9   2 6095.54  329.56
  -2   9   2 5964.22  359.81
   2   9   2 5943.62  279.76
   2   9  -318418.92  813.65
  -2   9  -319196.27  670.62
   2   9   320067.88  597.30
  -2   9   319391.04  640.41
   2   9  -4 4466.75  722.22
  -2   9  -4 4112.40  936.88
   2   9   4 3739.56  278.85
  -2   9   4 4141.67  324.77
   2   9  -542571.51 2036.42
  -2   9  -546663.73 1257.16
   2   9   547120.83  932.17
  -2   9   546730.85 1008.93
   2   9  -6 7609.38  693.53
  -2   9  -6 7310.96 1199.33
  -2   9   6 7526.65  449.41
   2   9   6 7631.42  419.60
   2   9  -7 3230.30  305.03
  -2   9  -7 2569.31  666.79
  -2   9   7 3679.68  315.54
   2   9   7 3222.37  269.49
   2   9  -8 3839.15  358.59
  -2   9  -8 2653.58  885.79
  -2   9   8 3945.49  331.84
   2   9   8 3249.36  282.26
  -2   9  -9 4876.03  864.62
  -2   9   9 5279.97  379.97
   2   9   9 5675.28  367.76
   2  10   0  612.34  144.87
  -2  10   0  659.37  156.19
   2  10  -1 3392.13  273.84
  -2  10  -1 4115.40  326.09
   2  10   1 3115.24  253.41
  -2  10   1 2902.90  267.11
   2  10  -221619.34  660.71
  -2  10  -220099.89  683.73
  -2  10   220422.15  671.63
   2  10   222063.26  662.12
   2  10  -3 1420.93  351.37
  -2  10  -3 1503.83  212.54
   2  10   3 1661.39  205.99
  -2  10   3 1755.90  222.86
   2  10  -4 2750.62  587.19
  -2  10  -4 2704.70  861.75
   2  10   4 3495.54  290.69
  -2  10   4 3304.11  305.93
   2  10  -5  139.68   93.65
  -2  10  -5  169.67  105.12
   2  10   5  257.03   86.66
  -2  10   5  244.76  118.44
   2  10  -617219.95 1052.08
  -2  10  -620273.83  859.82
  -2  10   619801.41  808.39
   2  10   618246.20  732.88
   2  10  -7  752.86  239.47
  -2  10  -7  960.42  263.25
   2  10   7  827.04  154.21
  -2  10   7  888.35  187.12
   2  10  -8  229.14   91.39
  -2  10  -8  223.95   95.32
  -2  10   8  477.01  137.67
   2  10   8  213.06   84.10
   2  11   014233.53  632.78
  -2  11   014236.61  650.07
   2  11  -1 8213.79  471.55
  -2  11  -1 7353.88  460.20
   2  11   1 6203.21  393.23
  -2  11   1 6886.01  438.03
   2  11  -2 2712.57  272.20
  -2  11  -2 2392.39  266.21
   2  11   2 2086.38  229.49
  -2  11   2 2724.17  278.98
   2  11  -3 5608.81  383.59
  -2  11  -3 5298.88  388.51
  -2  11   3 4780.90  367.77
   2  11   3 5323.54  369.30
   2  11  -4  950.88  282.30
  -2  11  -4  998.01  194.61
   2  11   4  914.19  168.24
  -2  11   4 1268.90  219.15
   2  11  -5 5677.16  939.19
  -2  11  -5 6986.11  504.56
  -2  11   5 6955.42  441.80
   2  11   5 7135.87  418.23
   2  11  -6 2925.91  663.97
  -2  11  -6 3117.66  813.06
  -2  11   6 3568.65  325.00
   2  11   6 3802.78  315.16
  -2  12   0 2057.59  263.95
   2  12   0 1355.90  207.89
   2  12  -1 5377.49  375.07
  -2  12  -1 5489.81  398.20
   2  12   1 4285.21  328.25
  -2  12   1 5048.56  379.73
   2  12  -211492.46  549.36
  -2  12  -212433.85  589.63
   2  12   211717.93  538.70
  -2  12   211625.49  564.42
  -3   0   0   54.25   15.21
  -3   0   0   67.61   12.10
   3   0   0  126.26   81.74
   3   0   0  132.55  108.04
   3   0   0    1.56   53.84
   3   0   0   46.28   58.54
   3   0  -1 2388.93   86.49
  -3   0   1 2484.24   93.02
   3   0  -1 2558.76  177.02
   3   0   1 2491.07  180.59
   3   0   1 2313.72  166.99
   3   0  -1 2398.73  173.79
   3   0   1 2464.65  180.11
   3   0  -1 2351.84  164.95
   3   0  -1 2435.65  167.41
   3   0   1 2511.59  233.31
  -3   0  -2113463.0 1236.05
  -3   0   2112471.8 1366.78
   3   0  -2111857.1 1552.25
   3   0   2112806.9 1588.04
   3   0   2112057.5 1581.14
   3   0  -2110300.0 1566.52
   3   0   2110747.3 1579.12
   3   0  -2110859.6 1529.05
   3   0   2109410.5 1548.44
  -3   0   323254.44  441.91
   3   0   323239.85  352.85
   3   0  -324265.14  550.44
   3   0   323386.84  560.48
   3   0   323195.71  556.02
   3   0   323657.03  569.21
   3   0  -324886.77  539.70
   3   0   322735.33  552.17
  -3   0   4  127.85   74.22
   3   0  -4   73.36   44.51
   3   0   4   -7.14   65.83
   3   0   4   47.24   50.76
   3   0   4   67.90   55.69
   3   0  -4   69.61   50.09
   3   0   4  118.17   80.86
  -3   0   530643.51  708.70
   3   0  -530515.54  764.81
   3   0   530608.37  760.12
   3   0   530122.20  768.77
   3   0   531022.60  778.75
   3   0  -531149.61  713.68
   3   0   529741.57  761.17
  -3   0   622486.71  601.27
   3   0   622983.11  548.97
   3   0  -622156.06  593.45
   3   0   623598.55  654.02
   3   0   622090.23  638.03
   3   0   623385.65  653.82
  -3   0   7 6936.82  323.23
   3   0   7 7277.97  284.28
   3   0  -7 6422.41  380.44
   3   0   7 7799.37  349.46
  -3   0   822912.98  642.09
   3   0   823068.65  574.90
   3   0  -821333.90  606.58
   3   0   823678.03  640.92
  -3   0   9 1966.50  189.49
   3   0   9 1276.06  136.56
   3   0   9 1552.93  163.44
  -3   0  10 3005.72  240.79
   3   0  10 2895.91  212.34
   3   0  10 2795.45  218.60
  -3   0  1110235.54  453.03
   3   0  11 9805.19  405.20
  -3   0  12 8640.20  437.84
   3   0  12 8223.19  392.62
  -3   0  13 1886.29  226.08
   3   0  13 2137.91  216.13
  -3   1   030298.18  441.38
   3   1   029321.98  662.68
   3  -1   028366.35  598.74
   3   1   029749.82  631.28
   3  -1   028501.70  604.45
   3  -1   028774.38  607.02
   3   1   029265.63  618.35
   3  -1   028947.79  613.55
   3   1   029980.76  650.00
  -3   1  -113733.50  240.38
   3   1  -112998.32  219.64
  -3   1   113919.11  279.54
  -3  -1   113889.58  229.89
   3   1  -113927.05  471.39
   3   1   113637.54  740.37
   3  -1  -113639.03  386.29
   3  -1   113494.92  416.37
   3   1   112997.99  413.24
   3  -1   113978.55  400.79
   3   1  -113643.47  404.39
   3  -1  -113824.02  412.36
   3  -1   114321.16  417.89
   3  -1  -113813.89  553.45
   3   1   113317.63  397.59
   3   1  -113670.28  399.73
   3  -1  -113309.03  405.19
   3   1  -113749.99  433.26
   3  -1   113309.02  410.97
   3   1   113099.74  394.52
  -3   1  -2181812.5 2060.02
  -3   1   2176564.5 2081.62
  -3  -1   2178555.3 2052.65
   3   1  -2180765.1 2311.98
   3   1   2181063.4 2334.28
   3  -1  -2180099.0 2272.83
   3  -1   2180749.7 2333.18
   3   1   2176071.0 2286.95
   3  -1   2181292.5 2311.30
   3   1  -2174888.7 2261.79
   3  -1  -2177556.7 2300.97
   3  -1   2181468.8 2340.52
   3  -1  -2181270.0 2282.84
   3   1   2178532.1 2308.81
   3   1  -2180504.1 2294.37
   3   1  -2179198.9 2311.65
   3  -1   2180825.3 2309.41
   3   1   2178997.3 2313.60
  -3   1  -3 3563.02  140.06
  -3  -1  -3 3279.65  100.33
  -3   1   3 2993.58  158.06
  -3  -1   3 3130.44  149.31
   3   1   3 3227.88  100.29
   3   1  -3 3152.44  232.42
   3   1   3 3447.59  216.65
   3  -1  -3 3540.75  197.85
   3  -1   3 3554.20  230.05
   3   1   3 3377.82  215.83
   3  -1   3 3865.75  276.92
   3   1  -3 3082.51  198.01
   3  -1   3 3644.43  236.53
   3   1   3 3292.01  411.36
   3  -1  -3 3558.10  197.95
   3   1  -3 3137.91  203.59
   3  -1   3 3536.48  217.26
   3   1   3 3378.66  227.15
  -3   1   4 4380.29  210.14
  -3  -1   4 4692.98  205.96
   3   1   4 4991.83  164.23
   3   1  -4 4950.46  678.11
   3  -1  -4 4687.20  220.10
   3   1   4 4723.19  250.47
   3  -1   4 4771.40  256.65
   3   1   4 4999.85  276.58
   3  -1   4 5022.53  254.63
   3  -1   4 4897.36  269.48
   3   1   4 4953.76  323.52
   3  -1  -4 4980.01  227.25
   3   1  -4 5007.04  245.03
   3  -1   4 5358.97  267.14
   3   1   4 4999.62  268.69
  -3   1   543074.24  923.27
  -3  -1   543748.69  918.34
   3  -1   542879.68  855.79
   3   1  -544234.62  955.06
   3  -1  -543475.16  904.10
   3   1   542634.69  959.80
   3  -1   542893.19  981.35
   3   1   542312.16  981.68
   3  -1   542823.51  964.12
   3  -1   543563.61  999.62
   3   1   543913.00 1075.40
   3  -1  -542420.31  876.99
   3  -1   543582.65  978.06
   3   1   542431.00  984.96
  -3   1   656119.04 1170.46
  -3  -1   659046.62 1202.08
   3   1   656400.81 1085.03
   3  -1   657288.87 1122.92
   3   1  -659989.47 1214.27
   3  -1  -656138.81 1099.25
   3   1   657449.76 1209.77
   3  -1   657436.93 1223.79
   3  -1   658980.89 1272.14
   3   1   658883.86 1244.74
   3  -1  -658768.64 1133.61
  -3   1   7143336.3 2396.26
  -3  -1   7141016.4 2348.14
   3   1   7143225.8 2285.15
   3  -1   7142958.4 2306.72
   3   1  -7143107.6 2323.07
   3   1   7146929.4 2242.79
   3  -1   7142639.5 2400.27
   3  -1   7145149.9 2276.76
   3   1   7149704.2 2296.07
  -3   1   826774.25  708.33
  -3  -1   826923.34  699.82
   3   1   826785.23  633.91
   3  -1   826249.50  640.56
   3   1  -827833.97  641.37
   3  -1   828073.81  733.18
   3   1   826335.28  767.44
  -3   1   9 1229.89  175.42
  -3  -1   9  909.67  142.74
   3   1   9 1080.09  129.44
   3  -1   9  899.67  118.52
   3  -1   9  866.63  133.20
   3   1   9  911.46  223.02
  -3   1  10 6143.92  342.32
  -3  -1  10 5893.22  334.00
   3   1  10 6238.67  312.34
   3  -1  10 6422.77  316.48
   3  -1  10 5885.96  313.41
   3   1  10 5082.61  615.53
  -3   1  1111975.51  493.26
  -3  -1  1113322.01  528.86
   3   1  1112094.46  447.04
   3  -1  1112577.03  468.99
   3  -1  1112464.92  455.26
  -3   1  12 5666.78  359.01
  -3  -1  12 6387.91  382.11
   3   1  12 5200.16  309.19
   3  -1  12 5981.90  337.95
  -3   1  13  930.97  169.89
  -3  -1  13 1209.16  186.60
   3   1  13  817.19  132.87
   3  -1  13  889.08  141.88
   3   2   056622.72  663.81
  -3   2   056577.23  794.17
   3   2   057716.45  675.52
   3   2   058703.35 1003.26
   3  -2   056750.35  951.45
   3   2   057031.00  969.08
   3  -2   056630.39  942.33
   3  -2   056328.85  946.32
   3   2   056754.51  968.31
   3  -2   057349.05  962.03
   3   2   056263.90  956.48
  -3   2  -114298.95  307.31
  -3   2   113860.05  316.11
   3   2  -114009.13  418.06
   3   2   114234.98  439.91
   3  -2  -113108.21  384.65
   3  -2   112917.57  396.71
   3   2   114084.20  420.31
   3   2  -113634.45  407.31
   3  -2   114345.85  404.34
   3  -2  -114276.96  412.22
   3  -2  -114456.60  409.92
   3   2   113447.70  416.23
   3   2  -113885.14  413.79
   3  -2   113563.64  394.08
   3   2  -114207.48  466.82
   3   2   113864.77  414.54
  -3   2  -258236.78 1071.12
  -3   2   256149.23 1059.06
   3   2   257383.94  936.44
  -3  -2   259618.35 1060.81
   3   2   256387.27  921.27
   3   2  -258430.56 1198.85
   3   2   256547.89  979.79
   3  -2  -256707.08 1133.41
   3  -2   257569.91 1195.37
   3   2   256699.88  997.22
   3  -2   257317.18 1152.69
   3   2  -259564.63 1003.30
   3  -2  -259419.01 1179.64
   3   2   256698.80  979.06
   3   2  -258686.30  990.90
   3   2  -259415.15 1207.60
   3  -2   257321.70 1158.80
   3   2   257452.80  995.77
  -3   2  -330165.06  672.38
  -3   2   330076.83  673.00
   3   2   330357.65  558.22
  -3  -2   329582.91  625.15
   3   2  -330758.93  748.88
   3   2   330076.67  741.67
   3  -2  -330240.85  696.15
   3   2   330272.22  764.76
   3  -2   331439.64  744.14
   3   2  -329887.19  734.66
   3  -2  -329590.44  751.01
   3   2   330698.17  752.35
   3   2  -328762.68  709.66
   3   2  -329949.30  731.42
   3  -2   330118.78  720.89
   3   2   330770.37  763.17
  -3   2   472970.81 1390.97
   3   2   470509.80 1229.93
  -3  -2   470639.50 1317.68
   3  -2   471310.02 1306.81
   3   2  -473936.90 1458.36
   3   2   473424.03 1456.08
   3  -2  -469963.13 1324.02
   3   2   470586.01 1444.41
   3  -2   472549.28 1415.60
   3  -2  -472029.26 1354.49
   3   2   469410.13 1396.10
   3  -2   472132.04 1415.58
   3   2   467376.28 1387.01
  -3   2   554306.64 1125.82
  -3  -2   554416.31 1099.66
   3  -2   553614.96 1058.10
   3   2   554818.73 1155.91
   3  -2  -552424.05 1032.41
   3  -2   553399.54 1121.98
   3   2   554020.29 1156.59
   3  -2  -554352.54 1058.02
   3  -2   553251.80 1126.51
  -3   2   6 8837.49  353.99
   3   2   610117.28  314.91
  -3  -2   6 9622.98  353.08
   3  -2   610219.42  345.94
   3   2   6 9755.45  377.92
   3  -2  -6 9655.43  303.24
   3  -2   6 9967.93  378.75
   3   2   610454.95  395.12
   3  -2  -6 9766.37  301.77
   3  -2   610088.35  382.43
  -3   2   7 1789.13  170.36
   3   2   7 1971.95  146.96
  -3  -2   7 2047.27  178.83
   3  -2   7 2103.98  171.42
   3   2   7 2001.02  169.47
   3  -2   7 2224.06  187.54
   3   2   7 1831.94  165.43
   3  -2  -7 1848.50  120.11
  -3   2   813605.00  482.28
   3   2   814002.67  414.89
  -3  -2   814148.87  475.52
   3  -2   813521.82  437.98
   3   2   814151.69  440.70
   3  -2   814110.62  463.63
   3   2   813804.64  444.47
  -3   2   9 8671.21  420.63
   3   2   9 7720.05  334.03
  -3  -2   9 8368.96  393.39
   3  -2   9 7710.79  350.45
   3   2   9 8494.81  352.07
   3  -2   9 8319.53  369.68
   3   2   9 8080.08  348.17
  -3   2  10 3250.15  261.02
   3   2  10 3935.65  243.02
  -3  -2  10 3877.94  270.13
   3  -2  10 4144.18  271.43
  -3   2  1112153.47  510.53
   3   2  1112285.49  447.60
  -3  -2  1114079.69  541.30
   3  -2  1113402.18  493.63
  -3   2  12 4957.22  343.52
   3   2  12 4708.69  297.28
  -3  -2  12 5522.09  352.90
   3  -2  12 4895.12  315.53
  -3   2  13 6066.71  399.40
  -3  -2  13 7129.28  418.37
   3  -2  13 5632.24  357.88
   3   3   0114914.6 1898.20
  -3   3   0117059.5 2024.25
   3   3   0119299.4 2184.78
   3   3   0121084.4 2200.85
   3  -3   0118587.0 2126.76
   3   3   0115076.3 2115.32
   3  -3   0119510.4 2153.40
   3   3   0114682.2 2087.03
  -3   3  -155245.94 1052.65
   3   3   153917.30  935.63
  -3   3   154133.89 1050.77
   3   3  -156070.28 1188.11
   3   3   152844.52 1165.92
   3   3   155152.84 1158.53
   3   3  -154210.44 1126.75
   3  -3   155581.77 1123.14
   3   3   153877.15 1143.59
   3   3  -154762.44 1158.18
   3  -3   154847.28 1119.83
   3   3  -155368.14 1174.87
   3   3   154099.42 1136.50
  -3   3  -2 8376.30  345.40
  -3   3   2 8239.63  299.06
   3   3   2 7705.14  206.08
  -3  -3   2 8213.04  258.39
   3   3   2 7541.16  455.83
   3  -3  -2 7697.19  301.47
   3   3   2 8188.40  341.46
   3  -3   2 8491.66  316.25
   3   3  -2 8020.34  332.60
   3  -3  -2 7630.73  299.97
   3   3   2 7600.59  325.13
   3   3  -2 8489.70  355.60
   3   3  -2 8071.67  357.44
   3  -3   2 8212.37  580.54
   3   3   2 8029.42  348.56
  -3   3  -377720.06 1437.31
  -3   3   379429.36 1492.07
   3   3   378637.14 1355.22
  -3  -3   378147.47 1419.09
   3   3   379275.79 1559.92
   3  -3  -381043.06 1520.43
   3   3   378261.95 1564.06
   3  -3   377013.50 1461.21
   3   3  -377277.82 1505.17
   3  -3  -380036.67 1502.37
   3   3   378536.82 1544.62
   3   3  -376179.96 1483.42
   3  -3   376878.55 1468.46
   3   3   375541.70 1511.17
  -3   3  -4 5065.58  234.49
  -3   3   4 4826.82  242.88
  -3  -3   4 4914.29  226.58
   3   3   4 5215.93  416.42
   3  -3  -4 5412.98  234.66
   3   3   4 5793.61  307.20
   3  -3   4 5221.18  243.46
   3  -3  -4 5279.64  275.79
   3   3   4 5292.40  276.73
   3   3  -4 5058.32  259.31
   3  -3   4 5111.85  247.58
   3   3   4 5798.11  302.35
  -3   3   515649.80  500.53
  -3  -3   516791.75  488.11
   3  -3   515896.45  464.27
   3   3   516142.88  513.35
   3  -3  -515643.43  427.50
   3  -3   516261.83  483.52
   3  -3  -515523.60  430.22
   3   3   516311.56  515.93
   3  -3   515920.89  483.16
  -3   3   654197.45 1126.12
   3   3   653260.86  992.01
  -3  -3   652267.07 1062.76
   3  -3   652337.48 1046.30
   3   3   654282.22 1103.82
   3  -3   652388.36 1085.80
   3  -3  -652298.85  942.91
   3   3   654974.45 1122.00
   3  -3   652174.94 1052.17
  -3   3   775840.75 1395.33
   3   3   776120.57 1271.72
  -3  -3   776931.19 1381.46
   3  -3   773945.12 1310.61
   3   3   776634.45 1341.42
   3  -3   776473.87 1332.41
   3   3   776574.14 1354.10
  -3   3   812649.21  483.06
   3   3   813056.16  409.16
  -3  -3   812927.73  465.54
   3  -3   812658.79  441.07
   3   3   812212.10  407.37
   3  -3   812616.65  423.80
   3   3   812246.12  411.37
  -3   3   9 4339.30  291.72
   3   3   9 3689.11  224.65
  -3  -3   9 4517.35  286.87
   3  -3   9 4664.14  275.29
   3   3   9 4037.10  228.84
   3  -3   9 4473.24  256.27
   3   3   9 3671.43  220.39
  -3   3  10 4531.17  319.08
   3   3  10 3411.81  232.01
  -3  -3  10 3816.55  276.70
   3  -3  10 3648.05  258.17
   3  -3  10 4062.53  251.52
  -3   3  1120919.21  800.59
   3   3  1118073.50  652.86
  -3  -3  1118408.32  714.41
   3  -3  1120205.68  735.06
  -3   3  12 1225.58  185.77
  -3  -3  12 1279.58  193.83
   3  -3  12 1170.65  170.77
  -3   3  13 2120.49  252.32
  -3  -3  13 2158.27  241.49
  -3   4   0 3131.36  192.16
   3   4   0 3310.54  289.58
   3   4   0 3171.28  237.62
   3  -4   0 3455.42  212.49
   3   4   0 3009.49  199.32
  -3   4  -1102984.5 1858.69
  -3   4   1103728.9 1881.40
   3   4   1105973.7 2003.23
   3   4   1103559.4 1950.98
   3   4  -1102769.5 1914.22
   3  -4   1104809.5 1900.37
   3   4   1103706.5 1966.66
   3  -4   1105085.5 1933.84
   3   4  -1103042.2 1905.80
   3   4   1105712.0 1969.71
   3   4  -213154.41  374.55
  -3   4  -213472.60  549.27
  -3   4   213647.50  426.43
   3   4   213427.36  466.15
   3   4   213780.99  475.40
   3   4  -214593.58  464.12
   3  -4   214172.14  424.78
   3   4   214270.61  483.73
   3  -4   214358.01  588.74
   3   4  -212944.60  484.78
   3   4   213500.86  458.50
  -3   4  -3 9088.73  509.64
  -3   4   3 8627.18  338.29
  -3  -4   3 8830.78  308.32
   3   4   3 8827.88  519.39
   3   4   3 8233.14  370.68
   3  -4   3 8450.62  310.92
   3   4  -3 9243.49  363.86
   3  -4  -3 8689.23  324.96
   3   4   3 8140.17  352.01
   3   4  -3 8840.64  352.61
   3  -4   3 8728.59  321.11
   3   4   3 8511.76  370.42
  -3   4  -446788.99 1354.99
  -3   4   446628.03  983.56
  -3  -4   447312.99  941.93
   3   4   447480.11 1014.56
   3   4   445617.70 1024.07
   3  -4   446839.29  918.66
   3   4  -447207.87  978.51
   3  -4  -446287.97  904.69
   3   4   445812.33  990.17
   3   4  -445095.40  936.56
   3  -4   446888.84  932.17
  -3   4  -5 3251.67  212.72
  -3   4   5 3449.69  225.10
   3   4   5 3094.73  172.07
  -3  -4   5 3126.33  200.93
   3   4   5 3523.24  263.03
   3  -4   5 3229.91  185.17
   3  -4  -5 3124.25  476.38
   3   4   5 3546.57  231.41
   3   4  -5 3771.55  224.41
   3  -4   5 3503.69  202.02
  -3   4   6 2707.83  225.70
   3   4   6 2490.18  165.25
  -3  -4   6 2656.41  201.53
   3  -4   6 2624.30  199.85
   3   4   6 2969.34  213.90
   3  -4   6 2533.64  578.05
   3   4   6 2603.24  196.59
   3   4  -6 2810.74  197.05
  -3   4   754690.28 1058.61
   3   4   757548.66  953.30
  -3  -4   758742.05 1069.15
   3  -4   758998.27 1053.57
   3   4   758379.38 1011.70
   3  -4   758322.84  964.55
   3   4   756500.07 1000.28
  -3   4   821431.76  669.94
   3   4   821370.20  582.73
  -3  -4   820219.81  626.90
   3  -4   820564.41  626.56
   3   4   821109.78  580.15
   3  -4   819991.45  548.57
   3   4   820802.25  583.12
  -3   4   9 2710.32  243.22
   3   4   9 3046.86  215.90
  -3  -4   9 3127.16  257.39
   3  -4   9 3234.18  249.12
  -3   4  10 9602.55  456.69
   3   4  10 8843.38  372.75
  -3  -4  1010469.93  459.08
   3  -4  1010017.06  438.93
  -3   4  11 8588.65  449.10
   3   4  11 6675.82  343.43
  -3  -4  11 7339.63  400.83
   3  -4  11 7010.94  379.39
  -3   4  12 1465.82  211.21
  -3  -4  12 2830.99  276.13
   3  -4  12 2159.03  233.27
  -3   4  13 5606.83  393.38
  -3  -4  13 5353.29  377.11
   3  -4  13 5197.67  357.75
   3   5   064015.74 1208.05
  -3   5   067475.36 1344.48
   3   5   070580.64 1432.41
   3  -5   069435.74 1378.06
   3   5   068759.82 1379.17
   3   5  -1 1117.90  248.30
  -3   5  -1 1180.93  132.43
   3   5   1 1238.56  110.57
  -3   5   1 1318.23  145.05
   3   5   1 1199.31  432.81
   3   5  -1 1484.98  146.30
   3  -5   1 1564.91  138.53
   3   5  -1 1225.00  127.84
   3   5   1 1393.44  155.00
   3   5  -2 7504.66  417.90
  -3   5  -2 7793.89  318.16
  -3   5   2 7153.14  322.87
   3   5   2 7928.08  273.79
   3   5   2 8214.20  369.00
   3   5   2 7586.87  341.72
   3   5  -2 7593.18  317.08
   3  -5   2 8186.36  297.24
   3  -5   2 7861.79  586.25
   3   5  -2 7566.64  306.31
   3   5   2 7662.36  340.26
   3   5  -3 4232.83  225.94
  -3   5  -3 4516.38  267.25
  -3   5   3 3676.22  240.37
   3   5   3 4572.11  210.24
   3   5   3 4621.75  267.86
   3   5   3 5018.32  293.01
   3   5  -3 3868.45  225.51
   3  -5   3 4455.79  210.79
   3   5   3 4037.86  255.27
   3   5  -3 4148.03  224.40
   3  -5   3 4305.03  212.05
  -3   5  -418424.17  617.22
  -3   5   418773.97  560.15
   3   5   418457.50  477.98
  -3  -5   418136.39  501.18
   3   5   418322.22  812.58
   3   5   418425.88  587.49
   3  -5   417354.71  442.18
   3   5  -418555.34  528.02
   3  -5  -417127.02  460.37
   3   5   418449.18  557.92
   3   5  -417833.07  499.42
   3  -5   418337.65  470.15
  -3   5  -539035.82 1158.94
  -3   5   539165.89  894.66
   3   5   539527.98  782.78
  -3  -5   540247.36  861.76
   3   5   539550.46  984.19
   3  -5   537775.12  737.11
   3  -5  -538948.47  754.65
   3   5   539613.71  879.86
   3   5  -540607.67  838.46
   3  -5   539274.03  774.65
  -3   5  -6  441.09  118.11
  -3   5   6  603.49  142.70
   3   5   6  459.49   83.86
  -3  -5   6  444.79   98.52
   3   5   6  525.79   95.59
   3  -5   6  337.74   62.28
   3   5   6  610.16  114.10
   3   5  -6  608.50   94.04
  -3   5   7 1603.01  187.60
   3   5   7 1236.18  135.18
  -3  -5   7 1115.15  149.52
   3  -5   7 1262.16  166.55
   3   5   7 1059.38  125.63
   3   5   7 1248.32  138.07
   3   5  -7 1214.48  130.64
  -3   5   817772.20  578.27
   3   5   817827.13  495.41
  -3  -5   818908.19  579.05
   3  -5   818595.86  564.66
   3   5   818326.86  492.08
   3   5  -819237.56  517.44
  -3   5   914232.38  549.76
   3   5   912852.45  442.96
  -3  -5   914518.24  534.99
   3  -5   913189.68  498.94
  -3   5  10  349.24  137.47
   3   5  10  142.33   64.69
  -3  -5  10  133.96   99.06
   3  -5  10  207.46   85.77
  -3   5  11 2457.00  256.32
  -3  -5  11 1948.78  226.03
   3  -5  11 2356.39  246.13
  -3   5  1212131.92  565.27
  -3  -5  1211303.86  539.68
   3  -5  1211022.74  519.30
   3   6   0 2773.63  184.16
  -3   6   0 2980.81  224.02
   3   6   0 2870.27  291.37
   3   6   0 3093.59  211.47
   3   6  -126369.02  720.32
  -3   6  -128584.24  710.94
   3   6   128248.26  624.87
  -3   6   128721.69  713.94
   3   6   127917.27  804.66
   3   6  -127865.01  669.51
   3  -6   128079.34  629.67
   3   6  -129893.44  685.64
   3   6   129235.15  704.01
   3   6  -272650.11 1383.96
  -3   6  -276201.60 1361.18
   3   6   275951.30 1260.84
  -3   6   277545.67 1396.56
   3   6   276035.44 1379.06
   3   6  -276215.64 1314.37
   3  -6   275815.98 1248.76
   3   6  -276524.94 1303.97
   3   6  -324360.52 1014.87
  -3   6  -325231.16  762.35
   3   6   325920.55  597.67
  -3   6   327128.88  714.91
   3   6   325382.68  686.55
   3   6   326464.73  711.97
   3   6  -325664.90  619.77
   3   6  -326720.86  622.83
   3   6  -431609.55  723.88
  -3   6  -430662.00 1021.01
  -3   6   430717.84  746.11
   3   6   431239.12  645.94
   3   6   431428.29  739.28
   3   6   430429.60  754.61
   3   6  -431760.00  660.42
   3   6  -431016.35  639.04
  -3   6  -526498.85  971.50
  -3   6   526474.22  710.72
   3   6   526516.39  602.08
  -3  -6   527078.14  662.77
   3   6   527850.06  981.61
   3   6  -526494.26  603.11
  -3   6  -635513.73 1558.43
  -3   6   637039.91  935.86
   3   6   636835.29  820.44
  -3  -6   638521.41  911.58
   3   6   638728.89  887.96
  -3   6  -712908.72  482.69
  -3   6   712629.44  503.43
   3   6   712489.00  415.67
  -3  -6   712757.37  476.26
   3   6   711821.31  678.85
  -3   6  -8 3979.31  313.46
  -3   6   8 3516.93  286.10
   3   6   8 3442.86  234.50
  -3  -6   8 3911.59  294.14
  -3   6   9 8290.21  467.38
  -3  -6   9 8843.74  464.78
   3  -6   9 7207.88  412.46
  -3   6  1019755.74  688.20
  -3  -6  1018288.22  639.87
   3  -6  1018683.15  636.22
  -3   6  11 2079.55  247.29
  -3  -6  11 2071.46  231.27
   3  -6  11 2436.15  247.30
   3   7   0 3987.45  233.13
  -3   7   0 3738.12  252.87
   3   7   0 4048.58  450.24
   3   7   0 4332.64  241.84
   3   7  -130087.10  665.34
  -3   7  -130672.16  745.17
   3   7   131587.54  672.68
  -3   7   129770.34  735.28
   3   7   131371.70  781.61
   3   7  -132209.78  698.50
   3  -7   128881.12  597.56
   3   7  -132343.22  682.96
   3   7  -216495.50 1001.45
  -3   7  -217347.95  547.32
  -3   7   216602.72  549.43
   3   7   216770.84  479.39
   3   7   216879.55  520.93
   3   7  -216826.11  469.19
   3   7  -217215.37  465.66
   3   7  -3 7691.87  495.55
  -3   7  -3 9459.57  706.91
   3   7   3 9319.49  361.81
  -3   7   310376.40  458.79
   3   7   310005.04  434.46
   3   7   3 9984.25  430.43
   3   7  -3 9051.22  337.92
   3   7  -3 8697.90  327.10
   3   7  -4 2227.10  549.79
  -3   7  -4 2196.49  577.57
  -3   7   4 2619.14  232.92
   3   7   4 2294.42  179.56
   3   7   4 2252.41  199.90
   3   7   4 2544.49  220.18
   3   7  -5 4212.61  291.69
  -3   7  -5 3467.31  692.80
  -3   7   5 4294.16  298.02
   3   7   5 3542.28  224.27
   3   7   5 3419.80  952.97
  -3   7  -6 4323.06  297.77
  -3   7   6 4204.90  302.17
   3   7   6 4062.20  244.19
  -3  -7   6 4620.29  284.06
   3   7   6 4216.75  351.31
  -3   7  -7  857.70  217.17
  -3   7   7  657.78  135.82
   3   7   7  712.76  111.46
  -3  -7   7  902.37  138.93
   3   7   7  629.86  171.55
  -3   7  -8 1862.22  228.61
  -3   7   8 1878.33  226.52
  -3  -7   8 1948.33  219.36
  -3   7  -9 8621.20  474.97
  -3   7   9 7906.90  439.03
  -3  -7   9 8771.12  448.36
  -3   7 -10 5656.06  394.73
  -3   7  10 5573.13  384.48
  -3  -7  10 5557.61  370.39
  -3  -7  11  878.61  172.69
   3  -7  11 1016.56  174.59
   3   8   0 2662.81  210.13
  -3   8   0 2758.66  240.32
   3   8   0 1863.53  461.68
   3   8  -123172.72  584.82
  -3   8  -125205.59  680.16
   3   8   124031.58  577.68
  -3   8   122968.87  642.45
   3   8   122964.60  700.20
   3   8  -123135.42  539.68
   3   8  -223081.43 1717.82
  -3   8  -223695.47  660.74
   3   8   223570.79  577.95
  -3   8   223523.46  664.55
   3   8   223038.85  590.43
   3   8  -3 1719.15  411.44
  -3   8  -3 1664.37  194.69
  -3   8   3 1757.87  208.81
   3   8   3 1810.80  176.51
   3   8   3 1695.87  178.29
   3   8  -420586.48 1119.17
  -3   8  -422043.95  727.67
   3   8   420806.34  551.92
  -3   8   421960.84  663.37
   3   8   421275.17  606.92
   3   8   420942.21  609.50
   3   8  -510117.30  668.14
  -3   8  -511194.42  492.86
  -3   8   510808.45  478.86
   3   8   510746.65  413.81
   3   8   511706.09  452.67
   3   8  -616753.04  672.47
  -3   8  -616933.25  850.61
  -3   8   617767.29  721.80
   3   8   614947.10  573.48
   3   8   615624.10  924.94
   3   8  -7  316.86  132.99
  -3   8  -7  465.69  191.31
  -3   8  -8 7628.37  499.46
  -3   8   8 7327.19  447.08
  -3  -8   8 6952.34  413.45
  -3   8  -9 1540.53  581.35
  -3   8   9 1631.77  222.22
  -3  -8   9 1616.55  198.91
  -3   8 -10 2870.20  306.68
  -3   8  10 2227.89  260.60
  -3  -8  10 2342.73  250.53
   3   9   013042.04  468.80
  -3   9   013936.57  533.74
   3   9  -1 1440.76  172.63
  -3   9  -1 1641.86  213.34
   3   9   1 1524.15  172.96
  -3   9   1 1734.39  209.97
   3   9  -2 3122.39  242.94
  -3   9  -2 3180.74  272.81
  -3   9   2 2972.33  270.76
   3   9   2 2751.35  218.00
   3   9   2 2951.91  215.80
   3   9  -3 2734.05  419.99
  -3   9  -3 2958.29  265.78
  -3   9   3 3478.02  295.57
   3   9   3 3202.37  242.46
   3   9   3 2997.46  230.09
   3   9  -422644.00 1642.72
  -3   9  -425234.22  884.46
  -3   9   426791.97  935.82
   3   9   423346.36  776.46
   3   9   424798.48  842.11
   3   9   423851.56  811.51
   3   9  -5 1702.91  605.60
  -3   9  -5 2267.42  653.37
  -3   9   5 2627.68  264.77
   3   9   5 2406.92  215.99
   3   9   5 2638.86  232.00
   3   9  -6 7069.55  653.46
  -3   9  -6 7968.28  450.28
  -3   9   6 8138.63  479.46
   3   9  -7 2583.92  281.03
  -3   9  -7 1838.78  547.29
  -3   9   7 2125.97  249.34
   3   9  -8 1369.36  226.96
  -3   9  -8  681.65  309.70
  -3   9   8 1110.28  183.46
   3  10   0   23.77   45.49
  -3  10   0  150.65   83.24
   3  10  -110456.52  454.92
  -3  10  -112396.92  540.43
   3  10   110433.63  440.23
  -3  10   111216.77  509.95
   3  10  -2 7482.34  390.48
  -3  10  -2 7566.51  432.06
  -3  10   2 7262.98  417.03
   3  10   2 7270.06  372.10
   3  10  -3  427.31  109.53
  -3  10  -3  900.51  183.20
  -3  10   3  843.17  173.05
   3  10   3  306.55   87.63
   3  10  -4  181.15  106.28
   3  10   4   58.54   45.45
   3  10  -5 3967.59  991.33
  -3  10  -5 5625.47  380.67
  -3  10   5 5058.99  364.98
   3  10   5 4790.93  313.16
   3  10  -6 1549.57  350.31
  -3  10  -6 1610.04  438.72
  -3  10   6 2360.41  261.55
   3  10   6 1691.53  194.48
   3  11   0  106.96   88.58
  -3  11   0  115.30   81.21
   3  11  -135040.62  870.28
  -3  11  -137775.06  968.28
  -3  11   138576.54  986.19
   3  11  -2 2508.68  242.51
  -3  11  -2 2905.78  300.32
  -3  11   2 3030.72  291.42
   3  11  -3  460.64  123.32
  -3  11  -3  583.34  164.92
  -3  11   3  843.33  181.09
   3  11  -4  700.57  152.97
  -3  11  -4  715.19  176.36
  -3  11   4 1071.07  186.96
   4   0   046479.69 1062.83
   4   0   045857.85 1054.76
   4   0   046543.27 1058.58
   4   0   046404.25 1127.84
  -4   0   1  120.21   21.11
   4   0  -1   92.84   81.80
   4   0   1  114.39  119.06
   4   0   1   81.87   69.36
   4   0  -1   57.56   77.50
   4   0   1  155.09   72.71
   4   0  -1   45.63   73.21
   4   0  -1  -40.12   80.01
   4   0   1  111.40   70.87
  -4   0   2  738.54   59.84
   4   0  -2  894.03  130.67
   4   0   2  906.74  139.92
   4   0   2  951.92  140.08
   4   0  -2  971.78  157.54
   4   0   2  837.28  231.46
   4   0  -2  906.97  131.11
   4   0  -2 1148.66  154.41
   4   0   2  920.38  129.56
  -4   0   310565.24  294.62
   4   0  -310897.80  415.82
   4   0   310623.22  429.07
   4   0  -310803.01  434.39
   4   0   311162.67  796.38
   4   0  -311313.84  413.94
   4   0  -311089.04  443.19
   4   0   311285.62  436.28
  -4   0   4  896.16   96.41
   4   0  -4  992.83  140.43
   4   0   4  695.79  134.66
   4   0   4  765.64  173.12
   4   0   4  617.31  296.67
   4   0  -4  829.96  134.01
   4   0   4 1062.45  163.93
  -4   0   5  710.99   98.26
   4   0  -5 1001.65  131.46
   4   0   5  997.46  157.03
   4   0   5  978.38  287.22
   4   0   5  844.99  235.97
   4   0  -5  952.91  128.41
   4   0   5 1225.33  191.18
  -4   0   6 3901.30  218.79
   4   0  -6 4052.59  465.47
   4   0   6 4713.38  295.08
   4   0   6 4077.91  270.12
   4   0   6 4284.23  458.26
   4   0  -6 4359.73  242.01
   4   0   6 4258.19  280.83
  -4   0   712164.83  424.66
   4   0  -712990.50 1060.12
   4   0   713740.24  514.56
   4   0   714294.20  530.89
   4   0   713285.74  776.33
  -4   0   8 1363.94  152.32
   4   0   8 1288.14  172.85
   4   0   8 1030.62  335.38
  -4   0   9  809.90  134.67
   4   0   9  574.59  124.65
   4   0   9  539.27  115.54
  -4   0  1014697.37  596.69
   4   0  1015143.33  640.00
   4   0  1011905.19 1101.88
  -4   0  11 3199.75  267.76
   4   0  11 3396.00  283.75
   4   0  11 1542.64  545.85
   4   0  12  150.86   66.44
  -4   1   0 5163.77  144.20
   4   1   0 5293.68  293.39
   4  -1   0 5497.29  295.11
   4   1   0 5103.66  293.04
   4  -1   0 5253.28  294.96
   4  -1   0 4928.21  506.53
   4   1   0 5515.77  292.54
   4  -1   0 5451.24  468.91
   4   1   0 5389.83  380.19
  -4   1   1107643.0 1786.97
   4   1  -1102891.6 2000.58
   4   1   1106630.0 2044.96
   4  -1  -1105639.2 1999.95
   4  -1   1104204.2 1995.43
   4   1   1107605.5 2060.75
   4  -1   1105173.5 2003.91
   4   1  -1102979.7 1985.96
   4  -1  -1105605.0 2018.92
   4  -1   1105318.0 2019.58
   4  -1  -1104249.6 1986.87
   4   1   1104202.2 1999.11
   4   1  -1100774.7 1934.65
   4  -1  -1107259.3 2051.10
   4   1  -1103618.0 1995.38
   4  -1   1106063.5 2032.02
   4   1   1108152.2 2063.19
  -4   1   2 3380.41  151.24
  -4  -1   2 3083.75  118.27
   4   1  -2 2841.21  256.98
   4   1   2 2739.22  224.16
   4  -1  -2 3102.49  218.04
   4  -1   2 3388.76  247.86
   4   1   2 3368.93  242.32
   4  -1   2 3166.83  225.51
   4   1  -2 3267.55  235.07
   4  -1  -2 3384.30  240.22
   4  -1   2 2511.92  454.48
   4  -1  -2 3390.93  223.65
   4   1   2 2956.31  237.65
   4   1  -2 3187.00  225.34
   4  -1  -2 3031.27  233.95
   4   1  -2 2832.34  223.06
   4  -1   2 3188.79  232.31
   4   1   2 2991.51  228.35
  -4   1   318424.63  437.42
  -4  -1   318887.99  417.07
   4   1  -317832.86  790.81
   4  -1  -318652.58  552.72
   4   1   317771.82  563.78
   4  -1   319215.28  595.34
   4   1   318007.83  727.40
   4  -1   318446.58  567.23
   4   1  -318619.57  581.39
   4  -1   318109.54  586.08
   4   1   318121.58  726.22
   4  -1  -317923.90  534.58
   4   1  -318000.94  544.98
   4   1  -318735.57  584.76
   4  -1   318491.25  572.99
   4   1   317836.73  577.26
  -4   1   4 6315.30  248.92
  -4  -1   4 5957.25  230.20
   4   1  -4 6324.28  614.82
   4  -1  -4 7112.05  320.22
   4   1   4 6811.16  341.83
   4  -1   4 7040.44  349.24
   4   1   4 6209.80  564.51
   4  -1   4 7050.10  345.44
   4  -1   4 6427.32  342.07
   4   1   4 6781.12  783.38
   4  -1  -4 6949.95  315.05
   4   1  -4 6869.38  322.76
   4   1  -4 6733.02  345.49
   4  -1   4 6934.41  346.31
   4   1   4 6681.74  350.29
  -4   1   535497.92  739.62
  -4  -1   535715.67  726.09
   4   1  -534900.08  815.20
   4  -1  -534666.59  777.18
   4   1   535107.22  848.90
   4  -1   534865.12  861.51
   4   1   535719.13  876.80
   4  -1   535928.61  857.00
   4  -1   535133.35  865.82
   4   1   533903.24  927.13
   4  -1  -536071.78  783.02
   4   1  -534939.90  803.81
   4  -1   535515.82  850.10
   4   1   534835.02  865.40
  -4   1   646959.61  859.48
  -4  -1   648467.73  859.57
   4   1  -648464.36 1041.33
   4  -1  -648266.51  877.86
   4   1   648431.80  981.31
   4   1   646803.19  985.37
   4  -1   647740.62  973.74
   4  -1   644873.02  956.19
   4   1   646773.68 1040.13
   4  -1  -649058.30  873.35
   4  -1   646381.86  958.79
   4   1   646026.03  979.14
  -4   1   710905.79  412.52
  -4  -1   711992.68  425.87
   4   1  -711983.13  600.19
   4  -1  -710970.45  384.87
   4   1   711413.79  452.91
   4   1   712326.65  501.48
   4  -1   712327.46  482.77
   4  -1   711844.72  485.92
   4   1   712306.25  786.81
   4  -1  -711138.18  384.44
  -4   1   811707.71  431.20
  -4  -1   810721.97  400.96
   4   1  -810796.88  843.26
   4   1   811496.78  438.85
   4   1   811918.96  488.49
   4  -1   811725.15  454.68
   4  -1   812700.49  493.65
   4   1   810553.28 1049.98
  -4   1   912091.54  459.31
  -4  -1   912327.71  460.15
   4   1   910866.08  474.62
   4  -1   912187.08  479.06
   4  -1   911992.22  481.49
   4   1   9 9934.47  726.81
  -4   1  10 2849.88  253.26
  -4  -1  10 2820.97  247.63
   4   1  10 2976.34  272.80
   4  -1  10 3433.72  282.51
   4  -1  10 3211.90  272.23
   4   1  10 2332.25  548.22
  -4   1  11  272.03   94.03
  -4  -1  11  388.41  104.82
   4   1  11  332.66  107.45
   4  -1  11  501.98  127.30
   4  -1  11  118.11   63.29
  -4   1  12 6255.15  380.65
  -4  -1  12 6010.44  374.80
   4  -1  12 6456.00  383.41
  -4   2   022579.73  487.35
   4   2   020679.14  673.67
   4  -2   021872.96  641.02
   4   2   021975.55  655.04
   4  -2   020984.53  626.85
   4  -2   022778.07  666.21
   4   2   020817.89  626.73
   4  -2   022835.68  666.62
   4   2   021593.38  645.81
  -4   2  -156080.43 1004.58
  -4   2   158044.90 1067.15
   4   2  -155502.71 1312.24
   4   2   157331.40 1278.81
   4  -2  -157344.66 1236.36
   4  -2   154370.89 1202.52
   4   2   156664.04 1250.37
   4   2  -154050.18 1204.44
   4  -2   155685.33 1212.25
   4  -2  -157066.19 1246.64
   4  -2   155261.94 1221.38
   4  -2  -158181.96 1251.31
   4   2   157412.38 1263.47
   4   2  -154310.98 1205.50
   4  -2  -157348.10 1260.89
   4  -2   156216.80 1239.75
   4   2  -157505.75 1260.67
   4   2   154876.52 1219.27
  -4   2  -2 2353.54  114.72
  -4   2   2 2155.14  132.15
  -4  -2   2 2423.64  107.83
   4   2  -2 2560.38  271.94
   4   2   2 2511.31  207.50
   4  -2  -2 2461.98  195.57
   4  -2   2 2522.12  220.10
   4   2   2 2595.23  355.70
   4  -2   2 2438.53  197.62
   4   2  -2 2685.92  217.99
   4  -2   2 2598.30  223.56
   4  -2  -2 2259.38  191.02
   4   2   2 2413.29  207.27
   4   2  -2 2448.73  215.31
   4  -2  -2 2555.42  212.31
   4   2  -2 2607.50  455.47
   4  -2   2 2634.44  212.74
   4   2   2 2574.23  212.59
  -4   2   346502.23  890.42
  -4  -2   345529.48  813.28
   4   2  -346184.43 1071.33
   4   2   346635.03 1056.32
   4  -2  -345956.08  984.50
   4  -2   345632.15 1043.33
   4   2   344290.68 1021.57
   4  -2   344867.66  990.78
   4   2  -345531.57 1027.77
   4  -2   343963.22 1016.18
   4  -2  -346258.82  986.84
   4   2   344695.40 1017.87
   4   2  -346415.09 1028.13
   4   2  -347068.10 1049.21
   4  -2   344682.46  995.38
   4   2   344882.76 1030.78
  -4   2   462397.35 1081.89
  -4  -2   459024.62  983.52
   4   2  -461805.81 1305.44
   4   2   461447.71 1217.45
   4  -2  -462407.46 1153.18
   4   2   459850.44 1218.66
   4  -2   461252.95 1184.25
   4  -2   459806.51 1215.54
   4  -2  -463227.24 1158.46
   4   2   460579.26 1207.14
   4   2  -461550.28 1189.05
   4   2  -460640.42 1204.64
   4  -2   461660.80 1196.90
   4   2   459258.90 1204.22
  -4   2   538834.53  808.94
  -4  -2   538027.94  756.26
   4   2  -539705.26 1030.19
   4   2   538972.10  907.94
   4  -2  -539605.90  835.62
   4   2   537802.83  919.29
   4  -2   539839.82  898.73
   4  -2   538226.92  920.31
   4   2   539882.22  925.70
   4  -2  -539723.09  829.31
   4   2  -538357.49  904.39
   4  -2   539636.97  903.69
   4   2   536956.71  904.41
  -4   2   610986.83  393.64
  -4  -2   611524.81  377.11
   4   2  -610856.98  468.75
   4   2   611348.99  441.55
   4  -2  -610511.82  362.37
   4   2   610828.40  464.49
   4  -2   610963.32  423.32
   4  -2   610941.33  460.49
   4   2   610726.91  436.55
   4  -2  -610401.46  352.44
   4  -2   610711.02  423.79
  -4   2   715534.29  512.06
  -4  -2   715696.62  496.70
   4   2  -714833.97  802.57
   4   2   714769.06  518.96
   4   2   715547.22  583.21
   4  -2   715675.88  536.86
   4  -2   715569.41  577.11
   4   2   716131.90  562.58
  -4   2   8 8249.49  374.13
  -4  -2   8 6585.34  316.29
   4   2  -8 6423.04 1071.35
   4   2   8 7430.02  348.39
   4   2   8 7812.76  409.41
   4  -2   8 7396.67  353.42
   4  -2   8 8175.07  406.24
   4   2   8 7336.27  358.38
  -4   2   9 3319.35  253.51
  -4  -2   9 3560.34  249.29
   4   2  -9 2457.94  608.33
   4   2   9 4320.21  274.44
   4   2   9 3657.45  291.46
   4  -2   9 3459.97  252.27
   4  -2   9 4194.79  297.66
   4   2   9 3760.28  269.49
  -4   2  1025774.49  872.81
  -4  -2  1026010.22  862.38
   4  -2  1025929.43  859.75
   4  -2  1024280.93  850.16
   4   2  1023550.45  792.48
  -4   2  11 2050.58  229.95
  -4  -2  11 2561.47  242.38
   4  -2  11 2855.01  249.64
   4  -2  11 2256.66  235.89
  -4   2  1210903.40  509.67
  -4  -2  1211557.65  511.24
   4  -2  12 9866.86  463.09
  -4   3   0  276.49   58.41
   4   3   0  254.47  118.98
   4  -3   0  327.42  101.86
   4   3   0  291.37  122.73
   4  -3   0  143.79   72.32
   4  -3   0  358.49  107.74
   4   3   0  332.20  129.97
   4  -3   0  514.91  147.92
   4   3   0  348.23   99.81
  -4   3  -144807.94  830.78
  -4   3   144751.54  852.51
   4   3  -144720.28 1167.07
   4   3   147124.59 1200.63
   4  -3  -144628.93  989.64
   4   3   146314.24 1055.25
   4   3  -145549.70 1026.02
   4  -3   144314.25  976.97
   4  -3   144826.03 1014.92
   4  -3  -145269.66  998.85
   4   3   144153.01 1017.35
   4   3  -144435.07 1016.59
   4  -3  -144862.52 1013.74
   4  -3   146249.81 1020.91
   4   3  -145337.96 1018.21
   4   3   145998.23 1034.75
  -4   3  -2 2467.97  145.81
  -4   3   2 2547.55  165.74
   4   3  -2 2600.15  268.49
   4   3   2 2520.99  616.75
   4  -3  -2 2307.62  197.10
   4   3   2 2469.46  713.34
   4  -3   2 2700.99  209.77
   4   3  -2 2659.22  223.29
   4  -3   2 2732.98  240.12
   4  -3  -2 2353.50  431.34
   4   3   2 2779.37  222.35
   4   3  -2 2362.41  208.07
   4   3  -2 2356.89  334.85
   4  -3   2 2722.55  248.27
   4   3   2 2661.41  225.51
  -4   3  -3 8643.27  278.68
  -4   3   3 7768.44  292.51
  -4  -3   3 8059.40  256.56
   4   3  -3 8534.70  390.13
   4   3   3 8658.09  465.04
   4  -3  -3 8650.19  354.47
   4   3   3 8505.43  394.16
   4  -3   3 8227.07  348.11
   4   3  -3 8418.84  388.12
   4  -3  -3 7343.28  326.28
   4   3   3 7828.07  371.68
   4   3  -3 8476.51  384.89
   4   3  -3 8637.51  411.30
   4  -3   3 8839.40  369.73
   4   3   3 8210.81  382.06
  -4   3  -4 5382.63  270.41
  -4   3   4 4763.94  244.69
  -4  -3   4 4703.49  208.95
   4   3  -4 5382.98  313.67
   4   3   4 4929.09  297.00
   4  -3  -4 4678.01  253.74
   4   3   4 5242.59  318.82
   4  -3   4 5157.43  281.79
   4   3  -4 4790.73  300.11
   4  -3  -4 4704.47  253.82
   4   3   4 5013.71  301.94
   4   3  -4 5479.67  313.18
   4  -3   4 5044.28  281.01
   4   3   4 5130.19  323.64
  -4   3  -543159.89  861.03
  -4   3   544001.12  839.78
  -4  -3   544157.66  783.99
   4   3  -543859.97  926.76
   4   3   544120.01  928.19
   4  -3  -544560.70  826.88
   4   3   543506.81  964.04
   4  -3   543655.95  873.38
   4  -3  -544048.52  817.19
   4   3   543893.57  932.18
   4   3  -543514.99  912.07
   4  -3   543581.58  889.54
   4   3   543688.17  962.34
  -4   3   6 8197.43  357.23
  -4  -3   6 8130.59  327.27
   4   3  -6 7948.10  379.32
   4   3   6 7874.37  368.10
   4  -3  -6 7363.06  302.50
   4   3   6 8379.48  429.39
   4  -3   6 7562.41  430.91
   4   3   6 8160.34  388.63
   4  -3  -6 7883.91  311.41
   4   3  -6 8385.89  387.56
   4  -3   6 8567.15  382.60
  -4   3   7  633.53  117.24
  -4  -3   7  396.75   87.46
   4  -3   7  522.63   87.52
   4   3  -7  633.25  114.42
   4   3   7  983.90  141.38
   4   3   7  633.79  136.46
   4  -3   7  488.79  183.83
   4   3   7  565.49  109.17
  -4   3   8  565.64  119.96
  -4  -3   8  276.66   79.09
   4   3  -8  347.64  102.22
   4   3   8  341.37  117.21
   4  -3   8  134.65   68.20
   4   3   8  374.63  104.34
  -4   3   9 4736.55  309.74
  -4  -3   9 4732.23  288.14
   4   3  -9 4438.36  275.31
   4   3   9 4987.81  290.99
   4  -3   9 4129.30  751.83
   4   3   9 5116.29  299.44
  -4   3  10 6604.52  379.95
  -4  -3  10 6387.13  353.38
   4  -3  10 5676.62  320.30
  -4   3  11 8588.86  473.40
  -4  -3  11 9398.37  482.41
   4  -3  11 8857.94  484.47
  -4   3  12 2495.58  254.20
  -4  -3  12 2470.72  243.80
   4  -3  12 2008.92  220.37
  -4   4   0108044.3 1652.54
   4   4   0107144.2 1984.10
   4   4   0110956.6 1646.43
   4   4   0108754.5 1871.82
   4  -4   0112085.5 1621.32
   4   4   0111753.1 1635.05
  -4   4  -1  163.53   56.30
  -4   4   1  222.30   69.36
   4   4  -1   63.70   75.66
   4   4   1   39.11   72.74
   4   4   1   73.38   58.38
   4   4  -1  248.41  122.64
   4  -4   1  284.62  116.97
   4  -4  -1  187.10   75.26
   4   4   1  279.31  123.34
   4   4  -1  253.16  124.09
   4  -4  -1   48.44   58.03
   4  -4   1   26.78  120.30
   4   4  -1  179.50  101.65
   4   4   1   90.37   78.47
  -4   4  -214371.49  410.13
  -4   4   214365.69  432.74
   4   4  -214663.62  532.35
   4   4   213765.27  676.33
   4   4   214413.96  515.88
   4   4  -215149.26  524.54
   4  -4   215144.47  485.68
   4  -4  -214673.01  485.20
   4   4   214589.59  522.74
   4  -4   215378.69 1423.31
   4   4  -215170.40  507.44
   4   4   214622.57  521.10
  -4   4  -312553.75  383.21
  -4   4   312411.59  410.72
   4   4  -312912.25  499.96
   4   4   313128.96  692.52
   4   4   312351.83  770.90
   4  -4   312716.98  438.82
   4   4  -312981.27  468.55
   4  -4  -312587.85  442.45
   4   4   312825.46  494.03
   4   4  -312352.73  489.03
   4  -4   312587.53  442.23
   4   4   312192.06  479.08
  -4   4  -431842.04  822.05
  -4   4   432524.08  707.22
   4   4  -429699.67  763.00
   4   4   432017.36  927.61
   4   4   431760.96  803.51
   4  -4   431540.12  700.67
   4   4  -431752.13  756.86
   4  -4  -432070.59  698.50
   4   4   432852.67  795.57
   4   4  -430958.56  904.66
   4  -4   431705.90  718.28
   4   4   431372.35  789.96
  -4   4  -559712.31 1333.70
  -4   4   563332.63 1225.01
  -4  -4   560403.00 1113.61
   4   4  -559466.26 1255.58
   4   4   563804.91 1295.27
   4   4   561914.37 1322.54
   4  -4   562255.81 1191.72
   4  -4  -560478.69 1170.11
   4   4   561956.40 1278.36
   4   4  -561369.81 1235.46
   4  -4   560439.69 1183.27
  -4   4  -6 4277.15  306.25
  -4   4   6 5017.61  282.85
  -4  -4   6 4055.21  229.18
   4   4   6 4878.03  292.07
   4   4   6 4679.96  325.87
   4  -4   6 4973.59  266.15
   4   4   6 4987.16  304.50
   4   4  -6 4670.18  284.43
   4  -4   6 5103.88  278.07
  -4   4  -7 1689.11  174.70
  -4   4   7 1716.04  177.17
  -4  -4   7 1540.24  158.16
   4   4   7 1464.96  161.90
   4   4   7 1939.45  222.16
   4  -4   7 1660.06  158.60
   4   4   7 1597.86  175.46
   4   4  -7 1799.54  181.78
  -4   4   813413.64  509.23
  -4  -4   811480.62  436.73
   4   4   812558.44  458.68
   4   4   812570.97  537.68
   4   4   811359.65  444.43
   4   4  -813352.15  489.01
  -4   4   9 3945.18  300.81
  -4  -4   9 3890.93  285.61
   4   4   9 3421.19  252.63
   4   4   9 3245.66  245.66
  -4   4  10  167.56   70.66
  -4   4  11 1598.38  207.30
  -4  -4  11 1653.41  203.62
  -4   5   062529.56 1019.49
   4   5   064633.86 1333.12
   4   5   062957.45 1152.66
   4  -5   064961.05 1261.00
   4   5   062346.16 1124.84
  -4   5  -119360.62  504.07
  -4   5   118803.96  506.86
   4   5  -118214.83  601.63
   4   5   118773.19  600.34
   4   5   118303.12  577.70
   4   5  -118799.51  568.17
   4   5   118573.16  594.36
   4  -5  -119821.76  583.60
   4  -5   118159.18  907.06
   4   5  -118493.06  554.22
   4   5   117950.95  556.29
  -4   5  -215012.79  441.94
  -4   5   214586.48  451.16
   4   5  -214730.16  541.17
   4   5   213668.69  703.90
   4   5   213554.38 1094.04
   4   5  -214660.13  498.82
   4  -5   214367.40  450.36
   4  -5  -214172.74  478.24
   4   5   212917.69  493.94
   4  -5   213699.07  684.20
   4   5  -214189.21  478.60
   4   5   214534.40  515.93
  -4   5  -3 2067.34  168.64
  -4   5   3 2319.44  194.68
   4   5   3 1838.35  473.30
   4   5   3 1868.35  560.53
   4   5  -3 1931.71  186.29
   4  -5   3 2211.15  178.75
   4  -5  -3 2259.57  189.13
   4   5   3 1763.37  195.67
   4   5  -3 1868.68  186.00
   4  -5   3 2329.94  186.91
   4   5   3 2078.75  206.03
  -4   5  -420399.76  938.84
  -4   5   421213.04  611.16
   4   5   421096.25 1010.12
   4   5   421826.84  690.27
   4  -5   421006.03  576.42
   4   5  -420833.64  623.37
   4  -5  -421769.49  603.75
   4   5   422225.05  686.43
   4   5  -420600.50  641.24
   4  -5   421270.57  592.98
  -4   5  -5   68.25   35.72
  -4   5   5  357.57  106.69
  -4  -5   5  143.85   55.74
   4   5   5  259.47   85.92
   4  -5   5  137.47   62.84
   4   5   5  165.14   94.60
   4   5  -5   85.60   50.84
   4  -5   5  180.74   70.58
  -4   5  -6   96.46   70.82
  -4   5   6   39.62   56.47
  -4  -5   6  126.09   66.84
   4   5   6   16.59   42.88
   4   5   6  139.26   88.24
   4   5   6  169.76   83.47
   4   5  -6   36.20   53.51
   4  -5   6  100.45   51.45
  -4   5  -7  728.10  274.41
  -4   5   7  905.99  137.39
  -4  -5   7 1258.21  161.56
   4   5   7  878.10  133.42
   4   5   7 1052.54  173.87
   4   5   7  974.93  141.36
   4   5  -7 1009.48  457.16
  -4   5   8 4638.53  321.80
  -4  -5   8 5134.79  322.42
   4   5   8 4665.91  301.74
   4   5   8 4786.76  367.21
   4   5   8 4438.18  296.21
   4   5  -8 5175.58  322.12
  -4   5   9 9277.76  451.46
  -4  -5   9 8851.97  416.24
  -4   5  10 1107.93  182.66
  -4  -5  10 1153.13  166.67
  -4   5  11 9580.03  493.28
  -4  -5  11 8819.95  452.77
  -4   6   0 2785.25  208.00
   4   6   0 3231.28  269.83
   4   6   0 2483.51  215.66
   4  -6   0 2765.46  213.38
   4   6   0 2446.79  209.13
  -4   6  -1 4860.55  272.79
  -4   6   1 4786.22  271.01
   4   6  -1 5176.60  354.01
   4   6   1 4606.53  313.37
   4   6   1 4321.50  428.76
   4   6  -1 4232.87  267.98
   4  -6  -1 4242.70  268.95
   4  -6   1 4389.83  400.68
   4   6  -1 4767.57  287.12
   4   6   1 4506.13  282.85
  -4   6  -234729.02  818.95
  -4   6   234195.84  826.84
   4   6   236034.75  935.81
   4   6   235417.26  902.08
   4   6  -234703.53  856.12
   4  -6   231865.86 1210.32
   4   6  -235802.40  857.62
   4   6   235900.66  896.96
  -4   6  -3 1912.47  176.73
  -4   6   3 1942.07  188.86
   4   6   3 2115.38  452.51
   4   6   3 1911.31  346.16
   4   6  -3 2144.39  193.89
   4  -6  -3 2157.28  187.24
   4  -6   3 2069.27  170.18
   4   6  -3 1927.50  175.29
  -4   6  -4 1284.85  152.17
  -4   6   4 1365.06  159.19
   4   6   4 1359.40  345.56
   4   6   4 1718.30  194.43
   4   6  -4 1405.85  151.74
   4  -6  -4 1438.10  153.13
   4   6  -4 1276.06  144.71
   4   6  -5 2545.70  201.74
  -4   6  -5 2957.88  432.15
  -4   6   5 2939.48  232.02
   4   6   5 2888.11  863.69
   4   6   5 3368.72  281.26
   4   6   5 2958.91  242.48
   4   6  -5 2426.22  716.49
  -4   6  -616944.29  607.25
  -4   6   616231.68  556.84
   4   6   615547.82  901.55
   4   6   616624.52  604.78
   4   6   616853.27  557.82
  -4   6  -7 7879.37  501.30
  -4   6   7 7357.70  415.31
  -4  -6   7 8123.47  405.89
   4   6   7 7874.75  412.48
   4   6   7 6722.45  417.64
   4   6   7 7700.76  407.39
  -4   6  -8  751.15  336.94
  -4   6   8 1058.16  165.36
  -4  -6   8  997.16  148.41
   4   6   8  816.69  155.47
   4   6   8  528.64  105.25
  -4   6   917486.97  728.14
  -4  -6   917628.86  698.56
  -4   6  1015075.17  610.76
  -4  -6  1015676.75  598.03
  -4   7   0 2920.90  229.82
   4   7   0 3212.89  283.40
   4   7   0 3092.47  236.05
   4  -7   0 2618.18  201.29
   4   7   0 2875.56  227.81
  -4   7  -135730.67  760.97
  -4   7   133813.69  738.25
   4   7   135355.63  830.57
   4   7   134716.67  961.37
   4   7  -136379.14  766.07
   4  -7  -134852.23  737.16
   4   7  -136369.14  745.32
   4   7   136498.94  766.49
  -4   7  -2 8946.35  389.12
  -4   7   2 8756.43  389.06
   4   7   2 9027.37  430.38
   4   7   2 7977.89  654.77
   4   7  -2 9403.38  393.62
   4   7  -2 8009.70  349.59
  -4   7  -328421.58  689.64
  -4   7   327001.64  687.47
   4   7   327289.39  734.71
   4   7   325505.75  947.43
   4   7  -326786.94  639.23
   4   7  -328871.29  657.60
  -4   7  -413776.55  490.01
  -4   7   413696.93  515.07
   4   7   412035.45  980.74
   4   7   413479.40  525.28
  -4   7  -523470.29  857.96
  -4   7   523837.00  687.20
   4   7   522181.79 1127.79
   4   7   523537.70  717.19
  -4   7  -6 2739.15  879.46
  -4   7   6 3103.41  266.68
   4   7   6 2415.11  572.16
   4   7   6 2873.50  288.81
  -4   7  -728296.41  911.20
  -4   7   729327.00  803.86
   4   7   728102.09  733.45
   4   7   727881.01  820.05
  -4   7  -813568.66  716.63
  -4   7   815174.16  670.03
   4   7   812462.14  615.06
  -4   7   9 5023.60  360.40
  -4   8   017500.82  572.57
   4   8   016612.47  537.57
   4   8   017016.48  528.40
  -4   8  -1 1508.15  179.98
  -4   8   1 1547.78  183.27
   4   8   1 1744.37  212.15
   4   8   1 1263.74  462.08
   4   8  -1 1255.59  148.21
   4   8  -1 1532.58  165.64
  -4   8  -2 5859.47  362.01
  -4   8   2 5695.59  363.57
   4   8   2 5153.88  348.43
   4   8   2 4716.79  840.80
  -4   8  -3 1570.13  200.80
  -4   8   3 1635.27  195.67
   4   8   3 1584.76  198.86
   4   8   3 1180.06  314.49
  -4   8  -4 1102.68  163.59
  -4   8   4 1241.27  176.21
   4   8   4  878.59  255.11
   4   8   4 1216.41  175.08
  -4   8  -5 4898.17  318.56
  -4   8   5 5116.77  343.37
   4   8   5 4025.82 1192.60
   4   8   5 4399.74  321.05
  -4   8  -6 2867.82  780.77
  -4   8   6 3950.16  327.29
   4   8   6 2146.70  660.78
   4   8   6 3607.93  304.12
  -4   8  -7 9355.98  699.02
  -4   8   7 9809.94  486.06
   4   8   7 9069.28  477.50
  -4   8  -8   62.22   94.56
  -4   8   8  180.43   80.87
   4   8   8  304.51   99.76
  -4   9   0  380.81  116.56
  -4   9  -1  618.05  134.21
  -4   9   1  808.45  153.54
  -4   9  -2  594.76  136.87
  -4   9   2  634.29  147.62
   4   9   2  634.38  135.83
   4   9   2  501.73  136.58
  -4   9  -3  554.81  137.57
  -4   9   3  357.01  116.30
   4   9   3  131.98   63.37
   4   9   3  416.98  185.93
  -4   9  -4 7494.97  438.25
  -4   9   4 7539.35  444.87
   4   9   4 7042.72  788.97
   4   9   4 7547.37  427.65
  -4   9  -5  225.32   99.04
  -4   9   5  485.74  135.28
   4   9   5  311.90  143.26
   4   9   5  410.11  102.12
  -4   9  -6  322.60  111.74
  -4   9   6  277.07  106.80
   4   9   6  229.60   85.61
  -4  10   0  131.93   82.11
  -4  10  -1  115.30   64.29
  -4  10   1  197.56   91.33
  -4  10  -211244.68  516.29
  -4  10   211644.44  533.98
   4  10   210441.43  501.17
  -4  10  -3 3387.01  301.17
  -4  10   3 3033.70  290.95
   4  10   3 2944.83  268.43
  -4  10  -4 4962.49  352.40
  -4  10   4 5067.68  370.07
   4  10   4 4046.50  309.84
   5   0   0  137.19   84.94
   5   0   0  252.20  147.46
   5   0   0  147.78   78.07
   5   0   0    6.20   59.31
   5   0  -1 4237.97  287.96
   5   0   1 4104.98  291.43
   5   0  -1 3956.12  287.55
   5   0   1 4760.31  313.07
   5   0  -1 3850.08  266.79
   5   0  -1 4108.68  969.16
   5   0   1 3888.79  281.92
   5   0  -2  633.63  135.58
   5   0   2  856.49  177.12
   5   0   2  649.46  137.11
   5   0  -2  577.89  148.42
   5   0   2  471.53  158.39
   5   0  -2  757.05  142.77
   5   0  -2  571.51  211.50
   5   0   2  368.90  112.96
   5   0  -338671.45  943.46
   5   0   338232.20  969.24
   5   0   338730.93  975.89
   5   0   336543.58  941.86
   5   0  -337674.59  911.92
   5   0  -338616.39  983.00
   5   0   337090.85  947.19
   5   0  -410168.05  445.06
   5   0   4 9191.80  441.94
   5   0   4 9137.15  438.04
   5   0   410160.66  855.71
   5   0  -4 9833.89  421.83
   5   0  -4 9379.44  448.50
   5   0   4 9193.99  444.52
   5   0  -5 2896.16  232.08
   5   0   5 2803.09  256.16
   5   0   5 2330.78  599.99
   5   0   5 2109.68  464.92
   5   0  -5 2906.97  225.48
   5   0  -5 2632.17  243.48
   5   0   5 2658.55  241.57
   5   0  -6 1589.29  172.65
   5   0   6 1474.91  188.60
   5   0   6 1205.98  282.03
   5   0   6 1169.36  324.21
   5   0  -6 1245.55  149.58
   5   0   6 1333.39  183.74
   5   0  -721299.26  592.84
   5   0   722431.66  682.36
   5   0   722780.14  689.06
   5   0   722467.35  690.44
   5   0  -722533.00  598.46
   5   0   722450.70  701.17
   5   0   8 7217.91  425.08
   5   0   8 5842.91 1428.55
   5   0   930452.43 1015.09
   5   0   932284.84 1134.79
   5   0  10  500.13  117.90
   5   0  10  326.64   80.81
   5   0  11 2328.27  244.27
   5   0  11 1929.05  533.14
   5   1   0 1565.66  186.94
   5  -1   0 1506.76  183.28
   5   1   0 1775.03  211.41
   5  -1   0 1485.55  184.92
   5  -1   0 1594.99  313.09
   5   1   0 1686.51  193.41
   5  -1   0 1481.22  397.09
   5   1   0 1969.99  221.40
   5   1  -1 1066.71  167.60
   5   1   1 1272.05  182.65
   5  -1  -1 1277.31  173.05
   5  -1   1 1605.13  194.21
   5   1   1 1531.91  198.02
   5  -1   1 1536.93  203.77
   5   1  -1 1267.44  185.15
   5  -1  -1 1773.59  204.31
   5  -1   1 1211.59  283.14
   5  -1  -1 1204.59  164.29
   5   1   1 1209.46  173.75
   5   1  -1 1145.27  158.93
   5  -1  -1 1072.88  281.60
   5   1  -1 1319.97  391.99
   5  -1   1 1338.00  325.61
   5   1   1 1480.45  206.07
   5   1  -2 8572.41  410.38
   5   1   2 8146.45  402.23
   5  -1  -2 8105.67  389.61
   5  -1   2 7877.29  406.91
   5   1   2 8015.92  405.14
   5  -1   2 7377.20  374.29
   5   1  -2 8536.10  416.54
   5  -1  -2 8026.55  405.04
   5  -1   2 7517.63  797.90
   5   1   2 8175.20  414.38
   5  -1  -2 7244.01  356.90
   5   1  -2 7357.94  366.24
   5  -1  -2 8631.21  418.68
   5   1  -2 7849.89  393.45
   5  -1   2 7656.06  388.12
   5   1   2 8071.85  406.62
   5   1  -3  262.94  114.52
   5  -1  -3  376.66  116.60
   5   1   3  233.25  135.59
   5  -1   3  360.18  129.71
   5   1   3  390.91  129.04
   5  -1   3  438.15  115.67
   5   1  -3  397.69  127.23
   5  -1   3  222.23  148.97
   5   1   3  745.30  167.05
   5  -1  -3  293.56   94.58
   5   1  -3  455.07  132.60
   5  -1  -3  598.27  155.00
   5   1  -3  231.04   93.21
   5  -1   3  544.60  132.93
   5   1   3  410.44  140.78
   5   1  -4  954.37  153.55
   5  -1  -4  972.49  156.57
   5   1   4 1084.74  174.13
   5  -1   4  874.18  159.98
   5   1   4  719.29  219.86
   5  -1   4  955.14  152.22
   5  -1   4  811.81  230.64
   5   1   4  697.45  152.59
   5  -1  -4 1132.14  149.71
   5   1  -4  832.61  146.30
   5  -1  -4  992.35  177.88
   5   1  -4  754.54  160.59
   5  -1   4  922.96  158.08
   5   1   4 1163.74  183.51
   5   1  -5  881.63  315.16
   5  -1  -5  842.48  131.02
   5   1   5  939.88  160.50
   5  -1   5 1032.35  171.86
   5   1   5  918.78  224.94
   5  -1   5 1184.94  172.70
   5  -1   5  845.41  168.80
   5   1   5  959.69  169.06
   5  -1  -5  987.44  139.64
   5   1  -5  795.21  130.76
   5   1  -5  753.73  152.46
   5  -1   5 1019.11  156.67
   5   1   5  998.94  177.60
   5   1  -6 3447.14  430.95
   5  -1  -6 2608.12  209.71
   5   1   6 3396.48  270.46
   5  -1   6 3441.06  278.09
   5   1   6 3493.28  677.76
   5  -1   6 2618.81  628.55
   5  -1   6 2619.81  601.58
   5   1   6 3267.05  279.07
   5  -1  -6 3279.52  227.55
   5   1  -6 2738.89  222.15
   5   1  -6 2823.60  254.55
   5  -1   6 3522.40  279.01
   5   1   6 3304.93  277.59
   5   1  -7 3931.51  776.82
   5   1   7 5042.63  330.43
   5   1   7 3834.71  871.69
   5  -1   7 3400.66  834.40
   5  -1   7 3886.45  814.57
   5   1   7 4473.66  873.75
   5  -1   7 4403.06  312.30
   5   1   8  696.70  139.34
   5   1   8  617.59  131.27
   5  -1   8  416.43  115.43
   5   1   8  336.42  134.31
   5   1   9  508.43  125.46
   5  -1   9  140.51  131.03
   5  -1   9  246.46   77.45
   5   1   9  316.57  125.33
   5   1  10 5419.59  370.85
   5  -1  10 3777.41 1029.63
   5  -1  10 2988.12 1051.60
   5   1  10 5766.74  366.95
   5   2   026892.66  750.77
   5  -2   024202.87  689.38
   5   2   026305.60  735.26
   5  -2   026431.78  720.85
   5  -2   025021.64  695.51
   5   2   026551.50  728.86
   5  -2   027246.26  750.63
   5   2   026096.09  729.75
   5   2  -1 5221.32 1123.87
   5   2   1 5502.01  337.99
   5  -2  -1 5425.29  317.99
   5  -2   1 5422.20  333.29
   5   2   1 5995.76  353.50
   5   2  -1 5667.44  338.31
   5  -2   1 5546.19  321.18
   5  -2  -1 5583.85  328.63
   5  -2   1 5028.97  572.23
   5  -2  -1 5483.94  841.90
   5   2   1 5626.95  345.28
   5   2  -1 5671.43  334.25
   5  -2  -1 4817.17 1152.69
   5  -2   1 5983.05  687.04
   5   2  -1 5003.49  421.68
   5   2   1 5604.99  339.83
   5   2  -2 2921.23  676.70
   5   2   2 2681.42  251.03
   5  -2  -2 2966.48  242.96
   5  -2   2 2805.19  248.62
   5   2   2 2583.03  237.76
   5  -2   2 2899.66  249.54
   5   2  -2 3008.32  259.56
   5  -2   2 2256.30  614.29
   5  -2  -2 2868.61  911.53
   5   2   2 2888.42  252.24
   5   2  -2 2612.93  232.99
   5  -2  -2 3149.49  261.21
   5   2  -2 2374.03  661.35
   5  -2   2 2837.73  246.91
   5   2   2 2821.70  254.83
   5   2  -325584.80  761.22
   5   2   324309.37  745.74
   5  -2  -325209.71  720.96
   5  -2   324924.60  758.90
   5   2   326230.67  792.32
   5  -2   326465.47  758.78
   5   2  -324665.25  748.17
   5  -2   325641.84  783.76
   5  -2  -325050.67  710.55
   5   2   325595.41  767.84
   5   2  -324643.61  727.84
   5  -2  -325381.66  765.75
   5   2  -324585.80 1022.20
   5  -2   324712.03  735.72
   5   2   324698.45  768.14
   5   2  -495568.87 1624.99
   5   2   493523.26 1325.65
   5  -2  -491981.91 1208.34
   5  -2   490496.98 1324.46
   5   2   490780.55 1642.56
   5  -2   495517.64 1290.95
   5  -2   492884.72 1352.15
   5  -2  -495491.48 1211.91
   5   2   493896.88 1327.61
   5   2  -494484.59 1284.60
   5  -2  -491412.56 1347.90
   5   2  -494130.76 1323.42
   5  -2   496271.91 1316.92
   5   2   493887.36 1359.83
   5   2  -510336.82  958.25
   5   2   511839.36  487.07
   5  -2  -511427.75  428.13
   5   2   510617.59  474.14
   5  -2   510902.76  456.42
   5  -2   511013.71  484.40
   5   2   511200.78  478.81
   5  -2  -512361.81  436.36
   5   2  -510890.52  446.91
   5   2  -511097.37  476.70
   5  -2   511650.18  476.68
   5   2   511232.49  497.91
   5   2  -6 3529.07  360.24
   5   2   6 4006.23  294.95
   5   2   6 2899.67  587.73
   5  -2   6 3725.00  270.92
   5  -2   6 3664.05  300.76
   5   2   6 3339.69  274.03
   5  -2  -6 3253.83  226.60
   5   2  -6 3282.82  264.05
   5  -2   6 3825.39  286.49
   5   2   6 3875.37  304.73
   5   2  -7 6982.68  600.27
   5   2   7 7047.45  385.16
   5   2   7 7012.12  399.01
   5  -2   7 6461.02 1274.00
   5  -2   7 7792.21  427.12
   5   2   7 7151.43  391.31
   5   2  -7 7302.85  407.59
   5  -2   7 7480.02  393.34
   5   2  -826322.65 1067.90
   5   2   831581.23  801.59
   5   2   830075.26  837.59
   5  -2   829846.98  777.24
   5  -2   829985.67  833.49
   5   2   828756.68  781.16
   5   2  -827281.08  787.81
   5   2   910900.97  525.97
   5   2   911654.55  583.60
   5  -2   9 9289.63 1312.53
   5  -2   9 9594.34  523.02
   5   2   910745.91  530.09
   5   2  10  128.71   81.31
   5  -2  10   33.49   67.84
   5  -2  10  162.43   76.88
   5   2  10  178.87   74.86
   5   3   0 1630.25  497.22
   5  -3   0 1635.40  194.94
   5   3   0 1591.43  193.37
   5  -3   0 1407.14  175.76
   5  -3   0 1250.96  397.67
   5   3   0 1910.06  228.72
   5  -3   0 1778.23  440.81
   5   3   0 1702.13  209.73
   5   3  -1 3752.71  356.64
   5   3   1 3613.30  931.22
   5  -3   1 4338.24  304.80
   5  -3  -1 3848.51  283.91
   5   3   1 3668.23  278.68
   5   3  -1 3758.56  288.13
   5  -3   1 3495.80  259.82
   5  -3   1 4367.21  310.40
   5  -3  -1 3507.61  274.46
   5   3   1 3837.23  299.02
   5   3  -1 3731.12  283.71
   5  -3  -1 3993.82  595.15
   5  -3   1 3435.35  781.38
   5   3  -1 3741.96  288.31
   5   3   1 3694.65  282.15
   5   3  -245686.66 1273.11
   5   3   247175.58 1117.56
   5  -3  -248773.83 1097.03
   5   3   246962.33 1121.04
   5  -3   249109.10 1100.19
   5   3  -247626.02 1118.60
   5  -3   247419.54 1116.72
   5  -3  -248885.37 1091.92
   5   3   248717.05 1142.63
   5   3  -247450.70 1113.86
   5  -3  -247621.22 1120.77
   5   3  -248141.87 1176.54
   5  -3   248303.79 1106.80
   5   3   246392.21 1108.09
   5   3  -339328.34 1123.95
   5   3   341392.34  900.37
   5  -3  -339417.98  805.03
   5   3   340190.74 1065.26
   5  -3   341383.67  850.82
   5   3  -340729.02  874.69
   5  -3   339671.67  892.39
   5  -3  -340790.71  964.33
   5   3   339957.40  874.99
   5   3  -341896.76  882.67
   5  -3  -339506.11  869.86
   5   3  -340988.88  874.21
   5  -3   340211.19  838.93
   5   3   339191.56  885.54
   5   3  -4 1727.56  332.83
   5   3   4 2314.22  242.83
   5  -3  -4 1727.53  177.05
   5   3   4 2032.31  457.69
   5  -3   4 1676.96  188.39
   5   3  -4 1830.02  214.28
   5  -3   4 1741.90  208.03
   5  -3  -4 2252.06  204.68
   5   3   4 2394.75  230.93
   5   3  -4 1938.69  214.69
   5   3  -4 1878.17  619.26
   5  -3   4 2038.33  205.92
   5   3   4 2301.32  251.56
   5   3  -5 1067.15  244.02
   5   3   5 1075.89  161.78
   5  -3  -5 1112.03  139.58
   5   3   5 1004.07  330.38
   5  -3   5 1276.98  161.20
   5  -3   5 1181.52  191.95
   5  -3  -5  882.55  123.01
   5   3   5 1236.85  174.30
   5   3  -5 1000.45  327.89
   5  -3   5 1153.04  166.64
   5   3   5 1410.01  197.42
   5   3  -6  714.38  172.04
   5   3   6 1257.12  189.04
   5   3   6  839.79  243.62
   5  -3   6  928.44  150.88
   5  -3   6 1052.83  185.49
   5   3   6 1114.36  172.32
   5   3  -6 1257.69  179.40
   5  -3   6  720.77  136.72
   5   3  -7 4975.73 1035.87
   5   3   7 5983.03  374.31
   5   3   7 6058.34  400.06
   5  -3   7 6526.37  377.67
   5  -3   7 5700.46  390.38
   5   3   7 5319.00  355.18
   5   3  -7 5549.57  364.44
   5  -3   7 5612.87  352.96
   5   3  -8 3035.82  696.40
   5   3   8 4161.75  298.92
   5   3   8 3629.17  308.15
   5  -3   8 4171.86  292.67
   5  -3   8 4307.33  339.04
   5   3   8 4663.73  320.33
   5   3  -8 4755.62  329.68
   5   3   916564.64  667.28
   5   3   915715.80  712.92
   5  -3   915924.90  653.14
   5  -3   915694.43  689.83
   5   3   916483.61  678.46
   5   3  -916243.06  693.26
   5   3  1038778.49 1029.86
   5  -3  1036614.95  957.52
   5   3 -1040681.58 1009.16
   5   4   040496.52 1566.10
   5   4   040519.12  887.60
   5  -4   041328.87  871.07
   5   4   040021.33  893.38
   5  -4   042236.84 1228.00
   5   4   040204.79  867.26
   5   4  -1 1685.42  304.83
   5   4   1 1473.35  469.89
   5   4   1 1650.88  201.68
   5   4  -1 1752.69  203.57
   5  -4   1 1564.04  184.73
   5  -4   1 1881.67  219.41
   5  -4  -1 1761.36  205.19
   5   4   1 1763.33  224.02
   5   4  -1 1573.10  206.39
   5  -4  -1 1365.77  180.55
   5  -4   1 1333.52  295.53
   5   4  -1 1259.92  173.59
   5   4   1 1549.90  197.16
   5   4  -2 4003.56 1036.94
   5   4   2 4472.85  783.52
   5   4   2 4674.94  318.07
   5   4  -2 4222.08  299.39
   5  -4   2 4490.94  279.93
   5  -4   2 3883.61  288.56
   5  -4  -2 3606.48  759.97
   5   4   2 4453.09  314.50
   5   4  -2 4124.21  307.07
   5  -4  -2 4439.02  304.31
   5  -4   2 4279.03  288.13
   5   4  -2 4271.65  292.49
   5   4   2 4325.29  305.28
   5   4  -337242.82 1019.58
   5   4   339917.61  902.84
   5   4   336823.76  914.96
   5  -4   338092.21  795.87
   5   4  -338570.35  863.57
   5  -4   338098.90  879.65
   5  -4  -338795.74  800.17
   5   4   338265.98  880.71
   5  -4  -337420.25  861.16
   5   4  -337482.26  833.35
   5  -4   337711.82  810.47
   5   4   337914.17  876.34
   5   4  -4 7754.55  671.60
   5   4   4 6665.20  374.99
   5   4   4 7326.30  691.10
   5  -4   4 6218.03  330.27
   5   4  -4 8065.15  412.54
   5  -4   4 7024.04  412.46
   5  -4  -4 6137.07  983.84
   5   4   4 6573.81  374.53
   5   4  -4 7460.99  400.89
   5  -4   4 6363.11  348.06
   5   4   4 7317.72  404.63
   5   4  -529125.51 2421.00
   5   4   531249.27  803.22
   5   4   530405.63  824.20
   5  -4   531789.41  737.02
   5  -4   529179.82  804.96
   5   4   530857.58  804.47
   5   4  -529071.19  988.90
   5  -4   529228.58  727.44
   5   4   529843.85  810.59
   5   4  -6  509.43  145.21
   5   4   6  677.78  134.41
   5   4   6 1038.69  172.68
   5  -4   6  764.80  130.62
   5  -4   6  594.80  144.98
   5   4   6  922.00  166.95
   5   4  -6  556.55  230.49
   5  -4   6  681.38  129.59
   5   4  -7 1800.79  422.30
   5   4   7 2886.00  258.63
   5   4   7 2593.55  263.29
   5  -4   7 2588.92  219.82
   5  -4   7 2594.91  258.91
   5   4   7 2365.83  236.81
   5   4  -7 1749.06  707.40
   5  -4   7 2399.58  216.98
   5   4  -8 1755.23  469.74
   5   4   8 2171.31  220.28
   5   4   8 2342.08  259.76
   5  -4   8 2390.68  259.95
   5   4   8 2070.39  222.78
   5   4  -8 2668.40  255.20
   5   4  -9  999.80  278.04
   5   4   9 1834.22  202.45
   5   4   9 1686.55  228.32
   5  -4   9 1358.46  203.04
   5   4   9 1423.89  179.60
   5   4  -9 1607.36  196.01
   5   5   0 6431.59  777.39
   5   5   0 6706.27  370.87
   5  -5   0 7048.24  372.50
   5   5   0 6921.58  406.52
   5  -5   0 6530.73  612.67
   5   5   0 7634.02  393.37
   5   5  -114156.96  631.50
   5   5   113858.71  728.45
   5   5   114488.47  547.54
   5   5  -115218.32  555.74
   5  -5   113999.52  534.43
   5  -5  -114497.76  525.26
   5   5   114365.26  561.28
   5  -5  -114451.56  529.51
   5  -5   115036.11 1028.33
   5   5  -113884.60  514.32
   5   5   114725.78  544.80
   5   5  -220978.90  682.29
   5   5   221665.25 1243.89
   5   5   222879.17  699.25
   5   5  -222016.53  667.19
   5  -5   221980.22  605.41
   5  -5   222250.93  681.45
   5  -5  -222299.25  638.06
   5   5   222546.92  692.10
   5  -5  -222400.70  667.56
   5  -5   223307.22  643.83
   5   5  -222399.24  651.97
   5   5   221253.49  655.65
   5   5  -3 2846.81  450.96
   5   5   3 3383.05  795.91
   5   5   3 2946.35  579.85
   5   5  -3 3466.59  267.56
   5  -5   3 3037.29  224.85
   5  -5  -3 2527.00  821.93
   5   5   3 3544.34  283.19
   5  -5  -3 3347.81  273.32
   5   5  -3 3268.06  260.28
   5  -5   3 3278.82  247.24
   5   5   3 3803.73  306.97
   5   5  -4 9693.21  473.95
   5   5   4 9472.30  457.56
   5   5   4 9028.88  550.89
   5  -5   4 9265.52  391.99
   5   5  -410174.07  452.60
   5  -5  -4 8875.61  398.65
   5   5   4 9413.40  457.57
   5   5  -410263.13  452.13
   5  -5   4 8742.89  395.15
   5   5   4 9392.39  462.13
   5   5  -5  263.79  101.76
   5   5   5  260.45   87.98
   5   5   5  371.27   89.25
   5  -5   5  252.12   81.14
   5   5   5  625.89  141.75
   5   5  -5  212.42  122.88
   5  -5   5  388.24   99.37
   5   5  -6 1112.35  178.51
   5   5   6 1111.28  163.24
   5   5   6 1286.43  186.18
   5   5   6 1167.75  171.74
   5   5  -6  846.40  355.28
   5   5  -7 3951.56  318.13
   5   5   7 4204.40  312.95
   5   5   7 4351.57  349.59
   5   5   7 4146.92  321.48
   5   5  -7 4200.89  849.71
   5   5  -8 6379.08  389.40
   5   5   8 7904.78  421.82
   5   5   8 7009.97  442.12
   5   5   8 6247.71  372.30
   5   5  -8 6788.36  540.97
   5   5  -911219.51  518.05
   5   5   912020.27  595.86
   5   6   0 9391.90 1197.81
   5   6   0 9000.53  429.93
   5  -6   0 9459.22  450.14
   5  -6   0 8076.40  778.19
   5   6   0 9823.42  447.16
   5   6  -128070.09  860.43
   5   6   127049.11 1322.63
   5   6   128323.46  769.97
   5   6  -127542.73  745.20
   5  -6  -129721.97  760.69
   5  -6  -128474.12  744.16
   5  -6   126844.91 1935.84
   5   6  -130100.54  766.40
   5   6   128740.61  758.57
   5   6  -212245.72  541.80
   5   6   212294.46 1842.99
   5   6   212941.10  535.68
   5   6  -213977.68  540.01
   5  -6  -213184.35  506.33
   5  -6  -212376.34  504.76
   5  -6   212892.95  476.72
   5   6  -213217.10  510.81
   5   6   212871.35  530.80
   5   6  -3  512.57  138.32
   5   6   3  632.39  259.11
   5   6   3  521.30  133.58
   5   6  -3  684.48  126.06
   5  -6  -3  403.10  100.70
   5   6   3  726.04  152.24
   5  -6   3  515.55  102.20
   5   6  -3  724.55  137.16
   5   6   3  366.17  118.71
   5   6  -4 8801.05  492.25
   5   6   4 8074.75  572.15
   5   6   4 7233.75 1746.25
   5   6  -4 8889.11  458.78
   5   6   4 9537.58  510.25
   5   6  -410216.80  492.43
   5   6  -5 2442.21  254.69
   5   6   5 2110.23  223.73
   5   6   5 1972.59  609.37
   5   6   5 1676.51  206.38
   5   6  -5 2091.97  206.29
   5   6  -615254.69  681.68
   5   6   616653.40  694.84
   5   6   615117.53  685.97
   5   6   614783.57  648.22
   5   6  -7  460.67  130.54
   5   6   7  432.65  104.26
   5   6   7  242.30   98.77
   5   6  -8 2151.04  242.88
   5   6   8 1921.47  244.70
   5   6   8 1173.07  168.87
   5   7   0  277.11   99.67
   5  -7   0  129.95   74.00
   5   7   0  387.50  122.93
   5   7  -1 1717.97  220.47
   5   7   1 1284.01  302.06
   5   7   1 1226.73  171.71
   5   7  -1 1041.61  160.89
   5  -7  -1 1518.00  190.65
   5  -7  -1 1202.25  161.97
   5   7  -1 1229.55  175.60
   5   7   1 1752.03  205.26
   5   7  -2 7627.28  439.90
   5   7   2 6010.00 1226.61
   5   7   2 7703.88  424.64
   5   7  -2 7151.43  390.47
   5  -7  -2 7297.40  386.96
   5  -7  -2 7219.70  389.33
   5   7  -2 6899.70  369.08
   5   7   2 8030.42  425.16
   5   7  -3 1070.85  193.27
   5   7   3  671.25  272.89
   5   7  -3  792.29  130.74
   5  -7  -3 1001.21  153.42
   5   7  -3  915.30  148.71
   5   7  -4 2048.08  248.03
   5   7   4 1215.65  357.60
   5   7   4 1103.71  372.62
   5   7  -5 2288.29  259.62
   5   7   5 2048.71  654.66
   5   7   5 1958.99  539.34
   5   7  -6 5759.73  398.27
   5   7   6 6128.04  382.82
   5   7   6 6621.13  424.54
   5   7  -7 1210.39  205.59
   5   7   7 1409.43  188.53
   5   7   7 1155.60  184.44
   5   8   0 6902.95  443.68
   5   8   0 6765.59  403.82
   5   8   0 6188.55  376.27
   5   8  -1 1010.46  173.38
   5   8   1  302.18  159.03
   5   8   1  746.09  136.13
   5   8  -1  718.57  128.96
   5   8   1  670.48  125.32
   5   8  -219300.15  801.54
   5   8   218393.92  735.70
   5  -8  -219875.30  762.91
   5   8  -3 4322.21  350.93
   5   8   3 2964.76 1118.15
   5   8   3 3308.57  789.17
   5  -8  -3 4154.67  304.80
   5   8  -4  822.66  164.08
   5   8   4  644.52  277.91
   5   8  -5  947.46  179.55
   5   8   5  431.78  194.50
   5   8   5  753.91  233.16
   5   9   0  127.64   70.04
   5   9  -1 2408.14  270.61
   5   9   1 2249.96  254.59
   5   9  -2 5184.18  388.93
   5   9   2 3383.60 1178.89
   5   9   2 3963.91  304.85
   6   0   0  -38.40   63.57
   6   0   0  377.45  145.44
   6   0   0  119.42   76.63
   6   0   0  282.43  123.78
   6   0  -114083.26  562.51
   6   0   113993.10  569.46
   6   0   113543.51  553.54
   6   0  -114568.02  574.67
   6   0   113376.05  545.63
   6   0  -113466.05  544.62
   6   0  -113107.37  593.99
   6   0   113593.58  565.30
   6   0  -2 6774.91  398.62
   6   0   2 6884.60  402.08
   6   0   2 6619.92  397.30
   6   0  -2 6230.38  388.83
   6   0   2 6105.28  375.31
   6   0  -2 6385.78  368.30
   6   0  -2 6616.63 1235.28
   6   0   2 6137.77  382.28
   6   0  -310994.35  531.98
   6   0   310812.89  546.39
   6   0   312289.88  586.27
   6   0   311575.28  567.55
   6   0  -311506.98  540.64
   6   0  -311503.67 1495.81
   6   0   312311.55  590.45
   6   0  -4 3701.54  302.18
   6   0   4 2824.41  272.35
   6   0   4 3423.24  294.78
   6   0   4 3295.62  298.83
   6   0  -4 2897.30  262.31
   6   0  -4 1731.86  922.83
   6   0   4 3626.53  312.67
   6   0  -5  553.53  127.79
   6   0   5  669.60  154.42
   6   0   5  569.29  135.28
   6   0   5  293.16  106.97
   6   0  -5  945.08  150.27
   6   0  -5  418.51  123.84
   6   0   5  829.81  174.20
   6   0  -6  218.80   82.12
   6   0   6   43.62   56.63
   6   0   6   71.18   55.68
   6   0   6   81.58   74.62
   6   0   6  356.54  128.78
   6   0  -740792.73 1022.48
   6   0   738660.04  994.15
   6   0   8 2244.76  803.93
   6   0   8 2064.55  502.34
   6   0  -8 3511.87  318.48
   6   1   019088.00  648.74
   6  -1   020452.01  669.46
   6   1   020130.17  678.15
   6  -1   019269.53  655.82
   6  -1   019489.38  653.29
   6   1   018363.17  630.61
   6  -1   019791.48  711.23
   6   1   019782.53  671.33
   6   1  -1 8682.94  443.39
   6   1   1 9393.57  468.24
   6  -1  -1 8311.93  430.04
   6  -1   1 8633.96  441.06
   6   1   1 8906.91  458.99
   6  -1   1 8780.46  453.30
   6   1  -1 8358.04  439.53
   6  -1  -1 7433.27  414.11
   6  -1   1 8931.49  447.84
   6  -1  -1 8191.92  418.38
   6   1   1 8636.41  451.53
   6   1  -1 8555.36  432.24
   6  -1  -1 9004.16 1007.56
   6   1  -1 8797.20  496.36
   6  -1   1 8710.06  452.78
   6   1   1 8538.56  449.15
   6   1  -211368.27  503.93
   6   1   211162.81  511.64
   6  -1  -211996.40  514.50
   6  -1   211336.88  506.33
   6   1   211460.24  521.95
   6  -1   211669.44  517.79
   6   1  -211689.68  523.10
   6  -1  -210925.99  505.97
   6  -1   210939.49 1315.15
   6   1   210774.39  498.23
   6  -1  -211438.01  493.38
   6   1  -211564.36  501.73
   6  -1  -211376.75 1021.32
   6   1  -2 9918.33  483.23
   6  -1   211138.75  504.77
   6   1   211557.08  522.97
   6   1  -313150.13  602.34
   6  -1  -314200.86  616.28
   6   1   314802.04  656.13
   6  -1   313712.01  626.19
   6   1   314224.73  639.35
   6  -1   314302.41  639.64
   6   1  -312974.35  611.64
   6  -1   314222.80 1376.93
   6   1   315410.50  675.58
   6  -1  -313843.04  602.36
   6   1  -314250.17  622.17
   6  -1  -313166.80  969.14
   6   1  -313321.90  808.67
   6  -1   313752.26  624.80
   6   1   314177.42  644.98
   6   1  -4 3589.13  297.44
   6  -1  -4 4428.00  328.60
   6   1   4 4027.57  326.41
   6  -1   4 4210.39  335.85
   6   1   4 4309.46  344.88
   6  -1   4 4247.10  331.23
   6  -1   4 4758.91  501.26
   6   1   4 4184.05  339.60
   6  -1  -4 4393.12  312.13
   6   1  -4 4219.14  316.57
   6  -1  -4 4877.93  375.92
   6   1  -4 3988.91  751.97
   6  -1   4 4744.04  351.19
   6   1   4 4191.25  335.21
   6   1  -5 1878.06  212.00
   6  -1  -5 2089.30  220.84
   6   1   5 1776.96  217.67
   6  -1   5 2343.31  257.11
   6   1   5 1913.44  229.85
   6  -1   5 2382.79  246.21
   6  -1   5 1648.42  501.44
   6   1   5 1857.46  218.86
   6  -1  -5 1958.17  207.36
   6   1  -5 2034.61  219.38
   6  -1  -5 2040.84  240.76
   6   1  -5 1646.06  547.84
   6  -1   5 1767.30  221.18
   6   1   5 2009.66  250.76
   6   1  -619962.29  769.78
   6  -1  -617848.80  693.91
   6   1   619265.03  774.85
   6   1   618989.85  788.72
   6  -1   619330.89  780.23
   6  -1   618160.79  762.53
   6   1   618362.33  762.78
   6   1  -620279.76  759.96
   6  -1  -617830.62  751.09
   6   1  -618455.80  770.17
   6  -1   618834.73  768.41
   6   1   617890.57  760.55
   6   1  -7 8523.17  432.61
   6   1   7 8665.41  472.74
   6   1   7 8048.22 1434.04
   6  -1   7 9765.39  489.17
   6  -1   7 7292.05 1613.72
   6   1   7 9358.32  494.17
   6  -1  -7 9608.24  503.61
   6   1  -710008.80  516.22
   6  -1   710130.29  506.38
   6   1   7 9386.30  509.46
   6   1   8 7767.13  451.87
   6   1   8 5549.91 1073.51
   6  -1   8 6944.32  424.02
   6  -1   8 4594.37 1266.80
   6   1   8 6587.74  421.43
   6   1  -8 7426.27  454.30
   6   2   011419.07  520.55
   6  -2   011388.50  501.77
   6   2   011834.73  540.09
   6  -2   011485.24  507.18
   6  -2   010891.63  544.80
   6   2   010881.43  495.44
   6  -2   012734.33 1300.72
   6   2   010841.60  501.20
   6   2  -1 8963.41  460.98
   6   2   1 8151.15  442.91
   6  -2  -1 7302.53  403.68
   6  -2   1 7953.61  428.50
   6   2   1 8734.51  467.11
   6  -2   1 8384.43  432.27
   6   2  -1 8451.88  457.28
   6  -2  -1 8717.20  447.43
   6  -2   1 7840.31  896.65
   6  -2  -1 8027.52  417.22
   6   2   1 8563.23  448.76
   6   2  -1 8791.52  449.98
   6  -2  -1 7871.43  761.55
   6  -2   1 8427.21  449.57
   6   2  -1 8047.31  436.01
   6   2   1 8409.52  446.35
   6   2  -2  100.01   71.62
   6   2   2   99.19   77.24
   6  -2  -2  227.84   88.70
   6   2   2  288.19   99.20
   6  -2   2  221.09   93.12
   6   2  -2   38.14   63.51
   6  -2   2  133.49  113.71
   6  -2  -2  224.81  113.64
   6   2   2  238.70  103.72
   6   2  -2  126.10   78.48
   6   2  -2   83.33   53.44
   6  -2   2   74.17   72.86
   6   2   2  120.10   87.20
   6   2  -3 6123.94  396.98
   6   2   3 6098.06  402.61
   6  -2  -3 5934.83  379.31
   6  -2   3 6732.18  440.88
   6   2   3 6924.30  437.87
   6  -2   3 6007.75  396.44
   6   2  -3 6600.11  424.27
   6  -2   3 4639.85 1229.94
   6  -2  -3 6666.59  396.07
   6   2   3 6318.12  412.11
   6   2  -3 6144.58  390.55
   6  -2  -3 6295.80  413.32
   6   2  -3 5133.09 1270.51
   6  -2   3 6642.96  419.76
   6   2   3 6467.36  424.18
   6   2  -4 6426.95  388.66
   6   2   4 6627.34  406.59
   6  -2  -4 6150.73  362.63
   6   2   4 7503.46  436.40
   6  -2   4 7055.07  406.05
   6  -2   4 5193.25 1073.98
   6   2   4 6747.08  415.99
   6  -2  -4 6801.30  379.11
   6   2  -4 6639.19  387.38
   6  -2  -4 6265.14  395.78
   6   2  -4 6114.09  431.22
   6  -2   4 7161.31  413.95
   6   2   4 6949.26  437.38
   6   2  -525012.68  755.42
   6   2   524578.00  765.42
   6  -2  -524725.37  708.06
   6   2   525557.56  797.96
   6  -2   526388.83  775.79
   6  -2   527426.66 1861.34
   6   2   525040.34  782.64
   6  -2  -526133.99  712.97
   6   2  -525533.46  743.68
   6  -2  -524531.24  772.90
   6   2  -523949.00 1010.20
   6  -2   524498.99  757.54
   6   2   525471.80  797.27
   6   2  -6 4530.10  341.58
   6   2   6 5647.03  390.67
   6   2   6 4332.49 1353.94
   6  -2   6 5136.84  363.52
   6  -2   6 2919.19 1170.12
   6   2   6 4897.82  364.51
   6  -2  -6 6102.49  416.73
   6   2  -6 3601.76 1165.01
   6  -2   6 5195.35  374.50
   6   2   6 4834.17  378.12
   6   2  -7 8955.94  454.13
   6   2   710858.18  523.12
   6   2   7 8502.34 1752.91
   6  -2   7 9980.73  491.87
   6  -2   7 8440.34  970.46
   6   2  -710144.42  515.65
   6  -2   7 9244.22  477.91
   6   2   8  372.69  133.29
   6  -2   8  678.74  133.89
   6  -2   8  204.70  109.91
   6   2   8  527.72  143.13
   6   2  -8  594.37  141.27
   6   3   0 5664.53  406.50
   6  -3   0 4264.49  335.89
   6   3   0 4527.00  349.38
   6  -3   0 4529.60  335.19
   6  -3   0 3373.88  921.59
   6   3   0 3689.67  311.54
   6  -3   0 4641.04  873.42
   6   3   0 4482.67  342.28
   6   3  -1 7564.68  461.08
   6   3   1 7654.64  458.29
   6  -3  -1 6972.08  422.58
   6   3   1 8140.07  471.59
   6   3  -1 7637.33  461.74
   6  -3   1 7366.48  430.64
   6  -3   1 6913.79  884.99
   6  -3  -1 6740.65  711.14
   6   3   1 7388.65  447.17
   6   3  -1 7867.59  460.11
   6  -3  -1 6878.07 1510.51
   6  -3   1 7287.49  440.98
   6   3  -1 7656.71  453.58
   6   3   1 7183.10  440.29
   6   3  -2 6407.57  422.64
   6   3   2 6532.06  424.85
   6  -3  -2 6491.65  400.60
   6   3   2 7338.78  448.66
   6   3  -2 6445.96  417.49
   6  -3   2 6947.09  415.37
   6  -3   2 4621.63 1253.54
   6  -3  -2 5615.34 1159.15
   6   3   2 6366.70  413.88
   6   3  -2 6746.78  419.53
   6  -3  -2 5280.32 1181.42
   6   3  -2 5852.82  395.19
   6  -3   2 7003.29  428.93
   6   3   2 6484.15  422.13
   6   3  -3  746.14  198.81
   6   3   3  849.71  164.31
   6  -3  -3  919.61  155.60
   6   3   3  635.81  138.44
   6  -3   3  610.19  143.18
   6   3  -3 1016.32  192.48
   6  -3   3  425.07  260.86
   6  -3  -3  667.16  129.33
   6   3   3  569.92  132.62
   6   3  -3  617.84  130.67
   6  -3  -3  696.23  145.98
   6   3  -3  685.04  295.08
   6  -3   3  788.87  158.21
   6   3   3  595.95  153.89
   6   3  -4  754.45  198.72
   6   3   4  801.31  169.80
   6  -3  -4  680.12  126.56
   6   3   4 1156.32  182.77
   6  -3   4  987.87  167.22
   6  -3   4  553.38   90.83
   6  -3  -4  843.07  140.54
   6   3   4 1082.68  178.30
   6   3  -4  762.80  150.05
   6  -3  -4  823.72  157.51
   6   3  -4  640.66  197.16
   6  -3   4 1142.72  183.55
   6   3   4  565.07  144.29
   6   3  -5 3044.97  899.11
   6   3   5 3505.00  310.61
   6  -3  -5 2673.04  240.24
   6   3   5 2784.19  823.80
   6  -3   5 3223.28  285.80
   6  -3   5 1922.17  637.09
   6   3   5 3340.42  301.52
   6  -3  -5 3624.78  312.23
   6   3  -5 2181.83  777.39
   6  -3   5 3620.77  307.07
   6   3   5 3490.16  311.57
   6   3  -6 4904.40  696.52
   6   3   6 4697.05  353.22
   6   3   6 3986.24  867.60
   6  -3   6 5645.13  364.01
   6  -3   6 3274.63 1038.23
   6   3   6 5635.35  380.02
   6  -3  -6 5742.74  390.35
   6   3  -6 4873.42  376.52
   6  -3   6 5007.03  349.91
   6   3   6 6575.20  427.23
   6   3  -7  592.59  206.42
   6   3   7  692.53  141.61
   6   3   7  481.45  197.49
   6  -3   7  859.08  146.07
   6  -3   7  542.82  144.84
   6   3  -7  602.89  298.25
   6  -3   7 1065.68  173.21
   6   4   033494.11 1201.09
   6   4   035142.48 1143.76
   6  -4   034630.05  929.77
   6   4   035010.98 1143.14
   6  -4   035288.53 1311.26
   6   4   035946.94 1150.80
   6   4  -1 6735.91  748.41
   6   4   1 6949.86  417.89
   6   4   1 7113.24  426.38
   6   4  -1 5804.92  381.14
   6  -4   1 6801.52  390.86
   6  -4   1 5326.41  808.11
   6  -4  -1 5706.09 1229.24
   6   4   1 6703.45  416.65
   6   4  -1 6611.16  403.28
   6  -4  -1 6435.00  695.04
   6  -4   1 6165.24  529.50
   6   4  -1 6940.31  411.44
   6   4   1 5936.53  383.22
   6   4  -2 4047.36  911.77
   6   4   2 4014.73  326.54
   6   4   2 4038.25  324.54
   6   4  -2 4195.55  327.89
   6  -4   2 3932.08  296.17
   6  -4   2 2821.44  858.40
   6  -4  -2 2873.42  909.86
   6   4   2 3933.17  319.13
   6   4  -2 4101.67  320.22
   6  -4  -2 3508.28  917.71
   6  -4   2 4312.59  322.39
   6   4  -2 4539.47  336.49
   6   4   2 4358.39  346.29
   6   4  -3 2240.35  541.41
   6   4   3 2999.36  289.72
   6   4   3 3056.80  294.84
   6  -4   3 2683.55  243.87
   6   4  -3 2340.00  248.29
   6  -4   3 2447.96  249.96
   6  -4  -3 2100.40  684.11
   6   4   3 2646.29  268.54
   6  -4  -3 2563.11  260.30
   6   4  -3 2926.73  267.18
   6  -4   3 2870.31  260.93
   6   4   3 2718.74  267.91
   6   4  -4 1251.46  321.91
   6   4   4 1647.85  214.69
   6   4   4 1295.02  192.76
   6  -4   4 1716.29  205.74
   6  -4   4 1706.51  233.20
   6  -4  -4 1156.30  160.04
   6   4   4 1668.50  219.97
   6  -4  -4 1964.36  231.50
   6   4  -4 1292.11  420.33
   6  -4   4 1758.42  212.88
   6   4   4 1531.28  219.69
   6   4  -5 5236.33  944.31
   6   4   5 6645.33  433.90
   6   4   5 5456.80 1235.45
   6  -4   5 7896.11  445.84
   6  -4   5 6566.86  437.69
   6   4   5 7687.55  469.39
   6  -4  -5 6659.39  429.59
   6   4  -5 6562.42 1226.97
   6  -4   5 7236.93  431.67
   6   4   5 7362.82  470.24
   6   4  -6 8425.03  652.65
   6   4   610541.72  524.18
   6   4   6 6907.39 1910.99
   6  -4   6 9535.38  463.62
   6  -4   6 9330.15  506.72
   6   4   6 8982.91  484.72
   6   4  -6 8651.49  524.52
   6  -4   6 8872.00  457.94
   6   4  -7  183.41   96.70
   6   4   7  244.78  101.76
   6   4   7   72.21   49.91
   6  -4   7   45.65   53.66
   6   4   7  219.05   87.71
   6   4  -7  222.00  123.76
   6   5   035902.51 1059.66
   6   5   034334.25 1132.41
   6  -5   036474.42  922.94
   6   5   034558.97 1143.35
   6  -5   036047.67 1970.28
   6   5   036896.15  943.19
   6   5  -112865.04 1473.26
   6   5   112077.73 1833.77
   6   5   112950.74  625.96
   6   5  -113016.20  626.44
   6  -5   113624.51  635.16
   6  -5  -112059.89  575.15
   6   5   113745.05  655.46
   6  -5  -111822.10 1381.53
   6  -5   111155.58 1822.26
   6   5  -113963.60  639.75
   6   5   114390.97  657.79
   6   5  -2 1138.80  449.54
   6   5   2 1046.63  180.10
   6   5   2 1418.10  203.36
   6   5  -2 1249.75  189.38
   6  -5   2 1735.60  234.27
   6  -5  -2  902.66  275.54
   6   5   2 1373.26  217.18
   6  -5  -2  770.74  388.83
   6  -5   2 1153.51  171.56
   6   5  -2 1147.63  176.78
   6   5   2 1440.64  213.49
   6   5  -316270.76 2105.98
   6   5   316320.18  727.50
   6   5   313966.63  661.21
   6  -5   315713.89  646.91
   6   5  -314829.78  667.42
   6  -5   315612.30  703.44
   6  -5  -316216.51  692.15
   6   5   313432.01  643.13
   6  -5  -315052.27  673.17
   6   5  -316844.58  710.48
   6  -5   315247.38  651.65
   6   5   314868.23  684.34
   6   5  -4 1551.35  486.77
   6   5   4 2187.69  248.85
   6   5   4 1573.21  210.89
   6  -5   4 1349.24  173.79
   6   5  -4 1777.75  221.11
   6  -5   4 2159.62  258.32
   6   5   4 1443.59  208.73
   6  -5  -4 1516.83  202.45
   6   5  -4 1920.31  223.33
   6  -5   4 1647.54  199.15
   6   5   4 1965.15  238.68
   6   5  -5  720.86  229.82
   6   5   5  897.17  161.53
   6  -5   5  968.43  177.34
   6   5   5 1079.12  195.72
   6  -5  -5  931.09  169.70
   6   5  -5  718.42  138.45
   6   5  -6 2857.06  880.42
   6   5   6 3177.17  293.45
   6   5   6 2469.85  600.91
   6  -5   6 3710.32  332.93
   6   5   6 3380.20  309.66
   6   5  -6 1916.21  710.85
   6   6   0  270.10  145.77
   6   6   0  349.27  115.86
   6  -6   0  226.89   89.26
   6  -6   0  170.37   48.98
   6   6   0  249.40  110.56
   6   6  -1 7146.59 1122.75
   6   6   1 7645.67 1348.98
   6   6   1 7598.68  445.86
   6   6  -1 6810.09  422.88
   6  -6   1 7418.99  437.70
   6  -6  -1 7769.31  435.23
   6  -6  -1 4478.64  955.84
   6  -6   1 5665.14 1012.87
   6   6  -1 8000.24  446.31
   6   6   1 7620.84  445.12
   6   6  -2 4596.42 1316.92
   6   6   2 4908.85 1439.79
   6   6   2 5767.49  389.44
   6   6  -2 5855.57  383.08
   6  -6   2 6272.58  410.19
   6  -6  -2 5379.20  375.26
   6  -6  -2 3852.85 1022.02
   6  -6   2 5125.38  341.70
   6   6  -2 5771.89  380.46
   6   6   2 6192.31  405.05
   6   6  -3  225.39  108.07
   6   6   3  286.37  110.40
   6   6   3  442.74  120.72
   6   6  -3  501.32  127.94
   6  -6   3  413.80  130.59
   6   6   3  225.27  120.66
   6  -6  -3  294.88  107.19
   6   6  -3  395.50  108.86
   6   6   3  560.77  143.47
   6   6  -4  110.80   72.94
   6   6   4  274.34  108.10
   6   6   4  115.26   73.58
   6   6  -4  161.44   81.25
   6  -6   4  272.44   98.94
   6   6   4  304.81  124.90
   6  -6  -4  165.36   74.05
   6   6   4  203.60   97.18
   6   7   033919.38  988.51
   6   7   034858.95  944.97
   6  -7   034230.49  937.97
   6   7   036161.33  946.18
   6   7  -113099.87 1941.46
   6   7   114175.97  756.47
   6   7   114048.85  610.19
   6   7  -112983.60  578.94
   6  -7   113955.36  612.38
   6  -7  -115488.85  624.93
   6  -7  -112424.19  669.95
   6   7  -113527.67  577.76
   7   0   0  131.64   73.60
   7   0   0  -26.56   50.25
   7   0   0  191.00  106.52
   7   0   1 6802.71  436.00
   7   0  -1 6545.12  421.69
   7   0   1 6982.81  447.46
   7   0  -1 6925.30  444.32
   7   0   1 6663.98  427.04
   7   0  -1 6639.08  417.64
   7   0  -1 6588.20  436.56
   7   0   1 6295.15  424.24
   7   0  -2 1564.67  216.68
   7   0   2 1588.88  227.81
   7   0   2 1549.48  233.77
   7   0   2 1168.27  189.26
   7   0  -2 1304.86  202.32
   7   0  -2 1443.91  307.21
   7   0   2 1675.60  237.75
   7   0  -3 2619.83  277.18
   7   0   3 2650.41  278.74
   7   0   3 2909.65  300.73
   7   0   3 2517.95  270.92
   7   0  -3 2378.86  252.24
   7   0  -3 2062.51  565.32
   7   0   3 2765.86  301.60
   7   1   0 2007.49  246.03
   7  -1   0 1807.70  228.53
   7   1   0 2370.15  277.21
   7  -1   0 2153.50  257.61
   7  -1   0 1879.84  228.80
   7   1   0 1793.16  228.51
   7  -1   0 2161.62  261.39
   7   1   0 2370.39  267.44
   7   1  -112325.19  585.24
   7   1   112703.85  598.31
   7  -1  -112296.53  574.14
   7  -1   112597.19  584.87
   7   1   112791.78  605.60
   7  -1   112268.12  583.74
   7   1  -112402.86  594.62
   7  -1  -112085.43  579.80
   7  -1   112167.46  568.64
   7  -1  -112656.22  570.59
   7   1   112244.97  575.09
   7   1  -112089.24  567.84
   7  -1  -111459.31  681.63
   7   1  -112736.38  598.17
   7  -1   111835.12  578.63
   7   1   112780.05  604.82
   7   1  -2 2644.00  279.34
   7   1   2 2861.10  290.70
   7  -1  -2 2812.74  276.70
   7  -1   2 2520.31  269.17
   7   1   2 3172.08  323.47
   7  -1   2 2357.08  261.21
   7   1  -2 2965.71  302.33
   7  -1   2 2557.28  270.75
   7  -1  -2 2871.77  273.88
   7   1   2 3273.96  314.08
   7   1  -2 2891.07  291.07
   7  -1  -2 2631.15  752.23
   7   1  -2 3040.67  302.37
   7  -1   2 2749.69  285.59
   7   1   2 3032.84  303.83
   7   1  -3 3810.93  326.00
   7   1   3 3019.14  298.33
   7  -1  -3 3246.57  294.42
   7  -1   3 3858.41  336.62
   7   1   3 3498.08  319.71
   7  -1   3 3411.01  313.10
   7  -1   3 3125.81  302.03
   7   1   3 3588.69  323.04
   7  -1  -3 3526.92  300.45
   7   1  -3 3543.22  314.63
   7  -1  -3 2782.76  978.29
   7   1  -3 3028.76 1100.26
   7  -1   3 3820.06  348.40
   7   1   3 3762.61  337.34
   7   2   012107.64  586.40
   7  -2   012275.70  577.92
   7   2   011943.28  579.44
   7  -2   011736.41  569.75
   7  -2   011753.82  559.71
   7   2   011516.57  561.92
   7  -2   012511.17  593.41
   7   2   012245.65  592.35
   7   2  -1  945.08  184.02
   7   2   1  849.52  170.11
   7  -2  -1 1201.62  192.56
   7  -2   1  933.12  189.20
   7   2   1 1077.63  205.61
   7   2  -1 1095.06  188.79
   7  -2   1  866.36  163.90
   7  -2   1 1091.26  187.80
   7  -2  -1  874.79  162.92
   7   2   1  835.18  165.49
   7   2  -1 1141.71  190.67
   7  -2  -1  861.86  193.46
   7   2  -1 1439.35  222.06
   7  -2   1  910.43  185.22
   7   2   1 1341.94  219.32
   7   2  -2 3306.13  313.46
   7   2   2 2978.15  303.97
   7  -2  -2 3662.36  318.99
   7  -2   2 3005.99  297.48
   7   2   2 3323.29  318.59
   7  -2   2 3109.39  299.01
   7   2  -2 3385.60  321.31
   7  -2   2 3064.60  297.04
   7  -2  -2 3407.56  300.51
   7   2   2 3808.23  334.39
   7   2  -2 3639.41  317.77
   7  -2  -2 2627.38  602.61
   7   2  -2 3559.06  321.15
   7  -2   2 3423.14  318.23
   7   2   2 3406.31  321.92
   7   2  -3 6868.98  444.71
   7   2   3 5985.60  423.32
   7  -2  -3 5916.31  391.74
   7   2   3 5821.21  414.80
   7  -2   3 6462.43  429.71
   7  -2   3 4592.43 1448.85
   7  -2  -3 6515.87  406.58
   7   2   3 5952.08  412.08
   7   2  -3 5932.68  400.60
   7  -2  -3 6262.23  751.67
   7   2  -3 5778.19  408.08
   7  -2   3 6131.01  421.08
   7   2   3 6411.54  437.20
   7   3   0 3531.71  322.88
   7   3   0 3910.59  345.94
   7  -3   0 4521.25  357.56
   7   3   0 4143.48  348.31
   7  -3   0 4106.44  347.94
   7   3   0 4435.48  362.60
   7   3  -1  208.75   95.94
   7   3   1  194.28   86.50
   7   3   1  167.15  124.74
   7   3  -1  123.97   81.45
   7  -3   1  123.03   86.60
   7  -3   1    3.70   48.38
   7  -3  -1  151.46   86.32
   7   3   1  167.18   94.33
   7   3  -1   75.45   63.74
   7  -3  -1   39.18  101.39
   7  -3   1  266.19  114.50
   7   3  -1  427.07  138.95
   7   3   1  135.70   77.16
   0   0   0    0.00    0.00
;
_shelx_hkl_checksum              91894
loop_
_space_group_symop_operation_xyz
'x, y, z'
'-x+1/2, -y, z+1/2'
'x+1/2, -y+1/2, -z'
'-x, y+1/2, -z+1/2'
loop_
_atom_site_label
_atom_site_type_symbol
_atom_site_fract_x
_atom_site_fract_y
_atom_site_fract_z
_atom_site_U_iso_or_equiv
_atom_site_adp_type
_atom_site_occupancy
_atom_site_site_symmetry_order
_atom_site_calc_flag
_atom_site_refinement_flags_posn
_atom_site_refinement_flags_adp
_atom_site_refinement_flags_occupancy
_atom_site_disorder_assembly
_atom_site_disorder_group
C1 C 0.1255(3) 0.0578(2) 0.53537(14) 0.0173(4) Uani 1 1 d . . . . .
O1 O 0.0068(2) -0.04351(15) 0.49985(12) 0.0247(3) Uani 1 1 d . . . . .
O2 O 0.1199(2) 0.17552(13) 0.49569(11) 0.0213(3) Uani 1 1 d . . . . .
C2 C 0.3079(3) 0.02727(18) 0.62986(14) 0.0167(4) Uani 1 1 d . . . . .
H2A H 0.439(4) -0.025(2) 0.5950(18) 0.015(5) Uiso 1 1 d . . . . .
N1 N 0.4165(3) 0.15699(17) 0.67229(13) 0.0182(3) Uani 1 1 d . . . . .
H1NA H 0.317(5) 0.199(3) 0.726(2) 0.029(6) Uiso 1 1 d . . . . .
H1NB H 0.560(5) 0.143(3) 0.703(2) 0.036(7) Uiso 1 1 d . . . . .
H1NC H 0.444(5) 0.224(3) 0.609(2) 0.033(7) Uiso 1 1 d . . . . .
C3 C 0.2096(3) -0.05765(19) 0.72760(15) 0.0181(4) Uani 1 1 d . . . . .
H3A H 0.332(5) -0.066(3) 0.789(2) 0.029(6) Uiso 1 1 d . . . . .
H3B H 0.176(5) -0.152(3) 0.697(2) 0.028(6) Uiso 1 1 d . . . . .
C4 C -0.0170(3) 0.00186(18) 0.77939(16) 0.0174(4) Uani 1 1 d . . . . .
O3 O -0.1109(2) 0.10566(14) 0.73850(12) 0.0225(3) Uani 1 1 d . . . . .
N2 N -0.1055(3) -0.06355(18) 0.86895(14) 0.0226(3) Uani 1 1 d . . . . .
H2NA H -0.229(6) -0.028(3) 0.904(2) 0.042(8) Uiso 1 1 d . . . . .
H2NB H -0.036(6) -0.138(3) 0.900(3) 0.045(8) Uiso 1 1 d . . . . .
O4 O 0.2003(3) -0.27151(18) 0.38679(14) 0.0319(4) Uani 1 1 d . . . . .
H4OA H 0.306(7) -0.317(4) 0.428(3) 0.062(10) Uiso 1 1 d . . . . .
H4OB H 0.150(7) -0.212(4) 0.436(3) 0.061(10) Uiso 1 1 d . . . . .
loop_
_atom_site_aniso_label
_atom_site_aniso_U_11
_atom_site_aniso_U_22
_atom_site_aniso_U_33
_atom_site_aniso_U_23
_atom_site_aniso_U_13
_atom_site_aniso_U_12
C1 0.0147(7) 0.0216(8) 0.0158(7) 0.0007(6) 0.0005(6) 0.0021(6)
O1 0.0256(6) 0.0227(7) 0.0257(7) -0.0008(6) -0.0072(6) -0.0035(6)
O2 0.0226(6) 0.0207(6) 0.0207(6) 0.0038(5) -0.0040(5) 0.0015(5)
C2 0.0142(7) 0.0178(8) 0.0181(8) 0.0011(7) 0.0004(6) 0.0011(6)
N1 0.0143(6) 0.0206(8) 0.0198(7) 0.0012(6) -0.0019(6) -0.0012(6)
C3 0.0166(7) 0.0187(8) 0.0189(8) 0.0034(7) -0.0005(7) 0.0017(6)
C4 0.0149(7) 0.0187(8) 0.0186(8) 0.0002(7) -0.0013(7) -0.0026(6)
O3 0.0173(6) 0.0227(7) 0.0276(7) 0.0051(5) 0.0017(5) 0.0033(5)
N2 0.0206(7) 0.0261(8) 0.0211(7) 0.0046(7) 0.0038(6) 0.0011(7)
O4 0.0370(8) 0.0317(8) 0.0271(8) -0.0014(6) -0.0027(7) 0.0055(7)
loop_
_atom_type_symbol
_atom_type_description
_atom_type_scat_dispersion_real
_atom_type_scat_dispersion_imag
_atom_type_scat_source
C C 0.0033 0.0016 'International Tables Vol C Tables 4.2.6.8 and 6.1.1.4'
H H 0.0000 0.0000 'International Tables Vol C Tables 4.2.6.8 and 6.1.1.4'
N N 0.0061 0.0033 'International Tables Vol C Tables 4.2.6.8 and 6.1.1.4'
O O 0.0106 0.0060 'International Tables Vol C Tables 4.2.6.8 and 6.1.1.4'
loop_
_citation_id
_citation_doi
_citation_year
1 10.1039/D1CE00688F 2021
loop_
_geom_angle_atom_site_label_1
_geom_angle_atom_site_label_2
_geom_angle_atom_site_label_3
_geom_angle
_geom_angle_site_symmetry_1
_geom_angle_site_symmetry_3
_geom_angle_publ_flag
O2 C1 O1 126.15(16) . . ?
O2 C1 C2 117.91(15) . . ?
O1 C1 C2 115.73(16) . . ?
N1 C2 C3 111.01(14) . . ?
N1 C2 C1 110.22(14) . . ?
C3 C2 C1 114.44(14) . . ?
N1 C2 H2A 106.4(13) . . ?
C3 C2 H2A 107.4(13) . . ?
C1 C2 H2A 106.9(13) . . ?
C2 N1 H1NA 111.1(16) . . ?
C2 N1 H1NB 112(2) . . ?
H1NA N1 H1NB 109(2) . . ?
C2 N1 H1NC 111.5(16) . . ?
H1NA N1 H1NC 108(2) . . ?
H1NB N1 H1NC 105(2) . . ?
C4 C3 C2 113.20(15) . . ?
C4 C3 H3A 108.1(15) . . ?
C2 C3 H3A 109.9(15) . . ?
C4 C3 H3B 109.9(15) . . ?
C2 C3 H3B 107.3(15) . . ?
H3A C3 H3B 108(2) . . ?
O3 C4 N2 123.03(18) . . ?
O3 C4 C3 120.67(17) . . ?
N2 C4 C3 116.30(16) . . ?
C4 N2 H2NA 118.3(19) . . ?
C4 N2 H2NB 123(2) . . ?
H2NA N2 H2NB 118(3) . . ?
H4OA O4 H4OB 101(3) . . ?
loop_
_geom_bond_atom_site_label_1
_geom_bond_atom_site_label_2
_geom_bond_distance
_geom_bond_site_symmetry_2
_geom_bond_publ_flag
C1 O2 1.241(2) . ?
C1 O1 1.261(2) . ?
C1 C2 1.534(2) . ?
C2 N1 1.490(2) . ?
C2 C3 1.518(2) . ?
C2 H2A 0.98(2) . ?
N1 H1NA 0.94(3) . ?
N1 H1NB 0.89(3) . ?
N1 H1NC 1.00(3) . ?
C3 C4 1.517(2) . ?
C3 H3A 0.99(3) . ?
C3 H3B 1.00(3) . ?
C4 O3 1.238(2) . ?
C4 N2 1.325(2) . ?
N2 H2NA 0.87(3) . ?
N2 H2NB 0.91(3) . ?
O4 H4OA 0.88(4) . ?
O4 H4OB 0.87(4) . ?
loop_
_geom_hbond_atom_site_label_D
_geom_hbond_atom_site_label_H
_geom_hbond_atom_site_label_A
_geom_hbond_distance_DH
_geom_hbond_distance_HA
_geom_hbond_distance_DA
_geom_hbond_angle_DHA
_geom_hbond_site_symmetry_A
_geom_hbond_publ_flag
C2 H2A O4 0.98(2) 2.47(2) 3.325(3) 145.3(17) 3_546 yes
N1 H1NA O3 0.94(3) 2.56(3) 3.080(2) 115.5(19) . yes
N1 H1NA O4 0.94(3) 2.01(3) 2.831(2) 145(2) 2 yes
N1 H1NB O3 0.89(3) 1.92(3) 2.791(2) 168(3) 1_655 yes
N1 H1NC O2 1.00(3) 1.85(3) 2.801(2) 157(2) 3_556 yes
C3 H3B O3 1.00(3) 2.51(3) 3.357(3) 141.5(19) 4_546 yes
N2 H2NA O1 0.87(3) 2.04(3) 2.907(2) 174(3) 2_455 yes
N2 H2NB O2 0.91(3) 2.60(3) 3.275(2) 132(2) 2 yes
N2 H2NB O2 0.91(3) 2.24(3) 3.004(2) 142(3) 4_546 yes
O4 H4OA O1 0.88(4) 1.96(4) 2.819(2) 166(3) 3_546 yes
O4 H4OB O1 0.87(4) 1.97(4) 2.807(2) 161(3) . yes
loop_
_geom_torsion_atom_site_label_1
_geom_torsion_atom_site_label_2
_geom_torsion_atom_site_label_3
_geom_torsion_atom_site_label_4
_geom_torsion
_geom_torsion_site_symmetry_1
_geom_torsion_site_symmetry_2
_geom_torsion_site_symmetry_3
_geom_torsion_site_symmetry_4
_geom_torsion_publ_flag
O2 C1 C2 N1 10.9(2) . . . . ?
O1 C1 C2 N1 -174.06(15) . . . . ?
O2 C1 C2 C3 136.88(16) . . . . ?
O1 C1 C2 C3 -48.1(2) . . . . ?
N1 C2 C3 C4 72.13(18) . . . . ?
C1 C2 C3 C4 -53.4(2) . . . . ?
C2 C3 C4 O3 3.5(2) . . . . ?
C2 C3 C4 N2 -176.70(16) . . . . ?
