#------------------------------------------------------------------------------
#$Date: 2021-11-06 21:50:58 +0200 (Sat, 06 Nov 2021) $
#$Revision: 270425 $
#$URL: file:///home/coder/svn-repositories/cod/cif/7/24/35/7243539.cif $
#------------------------------------------------------------------------------
#
# This file is available in the Crystallography Open Database (COD),
# http://www.crystallography.net/
#
# All data on this site have been placed in the public domain by the
# contributors.
#
data_7243539
loop_
_publ_author_name
'Fu, Miao-Miao'
'Liu, Ce'
'Dong, Gui-Ying'
_publ_section_title
;
 Two Cd(ii)-based metal--organic frameworks for the highly effective
 detection of Fe3+ ions and levofloxacin in aqueous media
;
_journal_issue                   42
_journal_name_full               CrystEngComm
_journal_page_first              7397
_journal_page_last               7405
_journal_paper_doi               10.1039/D1CE01128F
_journal_volume                  23
_journal_year                    2021
_chemical_formula_moiety         'C14 H10 Cd N2 O4'
_chemical_formula_sum            'C15 H10 Cd N O4'
_chemical_formula_weight         380.64
_space_group_crystal_system      triclinic
_space_group_IT_number           2
_space_group_name_Hall           '-P 1'
_space_group_name_H-M_alt        'P -1'
_atom_sites_solution_hydrogens   geom
_atom_sites_solution_primary     iterative
_audit_creation_date             2020-10-28
_audit_creation_method
;
Olex2 1.2-beta
(compiled 2018.05.29 svn.r3508 for OlexSys, GUI svn.r5506)
;
_audit_update_record
;
2021-04-11 deposited with the CCDC.	2021-09-16 downloaded from the CCDC.
;
_cell_angle_alpha                62.368(8)
_cell_angle_beta                 76.205(7)
_cell_angle_gamma                67.714(7)
_cell_formula_units_Z            2
_cell_length_a                   7.5153(6)
_cell_length_b                   9.8544(8)
_cell_length_c                   10.3104(9)
_cell_measurement_reflns_used    6785
_cell_measurement_temperature    293(2)
_cell_measurement_theta_max      29.9450
_cell_measurement_theta_min      2.2400
_cell_volume                     624.13(10)
_computing_cell_refinement       'CrysAlisPro 1.171.39.46e (Rigaku OD, 2018)'
_computing_data_collection       'CrysAlisPro 1.171.39.46e (Rigaku OD, 2018)'
_computing_data_reduction        'CrysAlisPro 1.171.39.46e (Rigaku OD, 2018)'
_computing_molecular_graphics    'Olex2 (Dolomanov et al., 2009)'
_computing_publication_material  'Olex2 (Dolomanov et al., 2009)'
_computing_structure_refinement  'olex2.refine (Bourhis et al., 2015)'
_computing_structure_solution    'olex2.solve (Bourhis et al., 2015)'
_diffrn_ambient_temperature      296(2)
_diffrn_detector                 'CCD plate'
_diffrn_measured_fraction_theta_full 0.996
_diffrn_measured_fraction_theta_max 0.953
_diffrn_measurement_details
;
List of Runs (angles in degrees, time in seconds):

  # Type    Start    End  Width  t~exp~   \w     \q     \k     \f   Frames
#--------------------------------------------------------------------------
  1  \w    -74.00 110.00   0.50    1.50    --   20.00  54.00-158.13  368
  2  \w    -74.00 110.00   0.50    1.50    --   20.00  54.00  90.00  368
  3  \w    -74.00 110.00   0.50    1.50    --   20.00  54.00 -90.00  368
  4  \w    -74.00 110.00   0.50    1.50    --   20.00  54.00  -1.58  368
  5  \w    -74.00 110.00   0.50    1.50    --   20.00  54.00  -1.58  368
  6  \w    -74.00 110.00   0.50    1.50    --   20.00  54.00-180.00  368
  7  \w    -74.00 110.00   0.50    1.50    --   20.00  54.00  60.00  368
  8  \w    -71.00  64.00   0.50    1.50    --   20.00  54.00-120.00  270
  9  \w    -74.00 107.00   0.50    1.50    --   20.00  54.00 -30.00  362
;
_diffrn_measurement_device       'two-circle diffractometer'
_diffrn_measurement_device_type  'XtaLAB Mini II'
_diffrn_measurement_method       '\w scans'
_diffrn_orient_matrix_type
'CrysAlisPro convention (1999,Acta A55,543-557)'
_diffrn_orient_matrix_UB_11      0.0463473000
_diffrn_orient_matrix_UB_12      -0.0844041000
_diffrn_orient_matrix_UB_13      0.0258007000
_diffrn_orient_matrix_UB_21      0.0303549000
_diffrn_orient_matrix_UB_22      0.0087515000
_diffrn_orient_matrix_UB_23      -0.0733150000
_diffrn_orient_matrix_UB_31      0.0859949000
_diffrn_orient_matrix_UB_32      0.0106361000
_diffrn_orient_matrix_UB_33      0.0049020000
_diffrn_radiation_monochromator  graphite
_diffrn_radiation_probe          x-ray
_diffrn_radiation_type           MoK\a
_diffrn_radiation_wavelength     0.71073
_diffrn_reflns_av_R_equivalents  0.0618
_diffrn_reflns_av_unetI/netI     0.0439
_diffrn_reflns_Laue_measured_fraction_full 0.996
_diffrn_reflns_Laue_measured_fraction_max 0.953
_diffrn_reflns_limit_h_max       10
_diffrn_reflns_limit_h_min       -10
_diffrn_reflns_limit_k_max       13
_diffrn_reflns_limit_k_min       -14
_diffrn_reflns_limit_l_max       14
_diffrn_reflns_limit_l_min       -14
_diffrn_reflns_number            17532
_diffrn_reflns_point_group_measured_fraction_full 0.996
_diffrn_reflns_point_group_measured_fraction_max 0.953
_diffrn_reflns_theta_full        25.242
_diffrn_reflns_theta_max         30.444
_diffrn_reflns_theta_min         2.236
_diffrn_source                   'fine-focus sealed X-ray tube'
_diffrn_source_type              'Rigaku (Mo) X-ray Source'
_exptl_absorpt_coefficient_mu    1.765
_exptl_absorpt_correction_T_max  1.00000
_exptl_absorpt_correction_T_min  0.71621
_exptl_absorpt_correction_type   multi-scan
_exptl_absorpt_process_details
;
CrysAlisPro 1.171.39.46e (Rigaku Oxford Diffraction, 2018)
Empirical absorption correction using spherical harmonics,
 implemented in SCALE3 ABSPACK scaling algorithm.
;
_exptl_crystal_density_diffrn    2.025
_exptl_crystal_description       block
_exptl_crystal_F_000             374
_exptl_crystal_size_max          0.22
_exptl_crystal_size_mid          0.2
_exptl_crystal_size_min          0.18
_refine_diff_density_max         0.866
_refine_diff_density_min         -1.215
_refine_diff_density_rms         0.134
_refine_ls_extinction_method     none
_refine_ls_goodness_of_fit_ref   1.074
_refine_ls_hydrogen_treatment    constr
_refine_ls_matrix_type           full
_refine_ls_number_parameters     190
_refine_ls_number_reflns         3598
_refine_ls_number_restraints     0
_refine_ls_restrained_S_all      1.074
_refine_ls_R_factor_all          0.0382
_refine_ls_R_factor_gt           0.0326
_refine_ls_shift/su_max          0.001
_refine_ls_shift/su_mean         0.000
_refine_ls_structure_factor_coef Fsqd
_refine_ls_weighting_details
'w=1/[\s^2^(Fo^2^)+(0.0337P)^2^+0.7084P] where P=(Fo^2^+2Fc^2^)/3'
_refine_ls_weighting_scheme      calc
_refine_ls_wR_factor_gt          0.0776
_refine_ls_wR_factor_ref         0.0797
_reflns_Friedel_coverage         0.000
_reflns_number_gt                3225
_reflns_number_total             3598
_reflns_threshold_expression     'I > 2\s(I)'
_cod_data_source_file            d1ce01128f2.cif
_cod_data_source_block           mm-18
_cod_depositor_comments
'Adding full bibliography for 7243538--7243539.cif.'
_cod_database_code               7243539
_shelx_shelxl_version_number     2018/3
_chemical_oxdiff_formula         'C1 H1 O1 N1 Cd1'
_shelx_space_group_comment
;
The symmetry employed for this shelxl refinement is uniquely defined
by the following loop, which should always be used as a source of
symmetry information in preference to the above space-group names.
They are only intended as comments.
;
_reflns_odcompleteness_completeness 99.06
_reflns_odcompleteness_iscentric 1
_reflns_odcompleteness_theta     26.32
_olex2_refinement_description
;
1. Fixed Uiso
 At 1.2 times of:
  All C(H) groups, All C(H,H) groups, All N(H) groups
2.a Secondary CH2 refined with riding coordinates:
 C7(H7a,H7b), C6(H6a,H6b)
2.b Aromatic/amide H refined with riding coordinates:
 N2(H2), C1(H1), C11(H11), C12(H12), C14(H14), C13(H13)
;
_shelx_res_file
;
TITL mm-18_a.res in P-1
    mm-18.res
    created by SHELXL-2018/3 at 22:04:10 on 11-Oct-2020
REM Old TITL MM-18 in P1
REM SHELXT solution in P-1
REM R1 0.060, Rweak 0.012, Alpha 0.064, Orientation as input
REM Formula found by SHELXT: C14 N3 O3 Cd
CELL 0.71073 7.5153 9.8544 10.3104 62.368 76.205 67.714
ZERR 2 0.0006 0.0008 0.0009 0.008 0.007 0.007
LATT 1
SFAC C H Cd N O
UNIT 30 20 2 2 8

L.S. 4
PLAN  5
BOND $H
LIST 6
fmap 2
acta
REM <olex2.extras>
REM <HklSrc "%.\\MM-18.hkl">
REM </olex2.extras>

WGHT    0.033700    0.708400
FVAR       0.67841
CD1   3    0.797933    0.516865    0.889722    11.00000    0.01911    0.01387 =
         0.02041   -0.00848   -0.00300   -0.00372
O2    5    0.071728    0.325246    1.057060    11.00000    0.02046    0.01849 =
         0.02625   -0.01331   -0.00003   -0.00325
O3    5    0.421744    0.420219    0.937665    11.00000    0.02497    0.01651 =
         0.02592   -0.01162   -0.00052   -0.00567
O1    5    0.106617    0.362164    0.824201    11.00000    0.02047    0.02101 =
         0.02353   -0.00928   -0.00771    0.00072
O4    5    0.738231    0.286765    0.946621    11.00000    0.02011    0.01956 =
         0.04161   -0.01381   -0.00187   -0.00940
N2    4    0.769406    0.733111    0.411088    11.00000    0.03193    0.02605 =
         0.01985   -0.01041   -0.00473   -0.01125
AFIX  43
H2    2    0.778961    0.722579    0.331212    11.00000   -1.20000
AFIX   0
N1    4    0.740972    0.671935    0.651199    11.00000    0.02395    0.01740 =
         0.01928   -0.00653   -0.00357   -0.00597
C5    1    0.163959    0.288867    0.951172    11.00000    0.01711    0.01267 =
         0.02387   -0.00883   -0.00189   -0.00449
C8    1    0.752594    0.619027    0.549834    11.00000    0.01939    0.02099 =
         0.02236   -0.01010   -0.00406   -0.00461
C3    1    0.529065    0.143234    0.975919    11.00000    0.01685    0.01194 =
         0.01760   -0.00645   -0.00169   -0.00508
C2    1    0.342605    0.141361    0.978949    11.00000    0.01618    0.01364 =
         0.01762   -0.00871   -0.00157   -0.00383
C9    1    0.768469    0.869199    0.420754    11.00000    0.02707    0.02197 =
         0.01894   -0.00672   -0.00473   -0.00812
C7    1    0.741489    0.459572    0.578252    11.00000    0.02851    0.01795 =
         0.02573   -0.01096   -0.00503   -0.00571
AFIX  23
H7A   2    0.790808    0.380700    0.672670    11.00000   -1.20000
H7B   2    0.823294    0.425323    0.503682    11.00000   -1.20000
AFIX   0
C6    1    0.533397    0.463244    0.578065    11.00000    0.02745    0.02418 =
         0.02254   -0.00989   -0.00325   -0.01078
AFIX  23
H6A   2    0.526594    0.354082    0.630019    11.00000   -1.20000
H6B   2    0.445467    0.525443    0.630968    11.00000   -1.20000
AFIX   0
C1    1    0.314681   -0.001729    1.004133    11.00000    0.01261    0.01409 =
         0.02350   -0.00837   -0.00123   -0.00407
AFIX  43
H1    2    0.190543   -0.003151    1.007723    11.00000   -1.20000
AFIX   0
C10   1    0.749216    0.830154    0.572193    11.00000    0.02309    0.02050 =
         0.02022   -0.00758   -0.00344   -0.00670
C4    1    0.565824    0.293900    0.952995    11.00000    0.02377    0.01432 =
         0.01527   -0.00659   -0.00108   -0.00856
C11   1    0.741370    0.944316    0.619845    11.00000    0.03670    0.02300 =
         0.02716   -0.01199   -0.00471   -0.00848
AFIX  43
H11   2    0.727704    0.921329    0.719278    11.00000   -1.20000
AFIX   0
C12   1    0.754645    1.092619    0.513920    11.00000    0.03855    0.01973 =
         0.03881   -0.01351   -0.00480   -0.00788
AFIX  43
H12   2    0.749389    1.170149    0.543434    11.00000   -1.20000
AFIX   0
C14   1    0.784277    1.019231    0.313655    11.00000    0.04143    0.03051 =
         0.02057   -0.00345   -0.00400   -0.01620
AFIX  43
H14   2    0.799724    1.042941    0.213994    11.00000   -1.20000
AFIX   0
C13   1    0.775765    1.129487    0.363562    11.00000    0.03627    0.01953 =
         0.03503   -0.00141   -0.00596   -0.01019
AFIX  43
H13   2    0.784221    1.230572    0.295983    11.00000   -1.20000
AFIX   0
HKLF 4




REM  mm-18_a.res in P-1
REM wR2 = 0.0797, GooF = S = 1.074, Restrained GooF = 1.074 for all data
REM R1 = 0.0326 for 3225 Fo > 4sig(Fo) and 0.0382 for all 3598 data
REM 190 parameters refined using 0 restraints

END

WGHT      0.0337      0.7084

REM Highest difference peak  0.866,  deepest hole -1.215,  1-sigma level  0.134
Q1    1  -0.1207  0.4783  1.1058  11.00000  0.05    0.87
Q2    1   0.4603  0.5226  0.8874  11.00000  0.05    0.85
Q3    1   0.8041  0.4223  0.8977  11.00000  0.05    0.76
Q4    1   0.7971  0.6110  0.8789  11.00000  0.05    0.66
Q5    1   0.9728  0.5597  0.6630  11.00000  0.05    0.57
;
_shelx_res_checksum              56137
_shelx_hkl_file
;
 -10  -6   0  163.08   22.77
 -10  -6   0   87.00   21.73
 -10  -5   0   52.08   14.48
 -10  -5   0   29.65   14.32
 -10  -4  -7   13.50    9.22
 -10  -4  -7   14.42    9.84
 -10  -4   0  314.29   33.65
 -10  -4   1   43.74   13.83
 -10  -3  -6   98.88   19.04
 -10  -3  -6   80.87   17.99
 -10  -3  -5  238.52   30.08
 -10  -3  -5  219.95   27.74
 -10  -3  -4  182.45   26.53
 -10  -3  -3   -3.01    8.99
 -10  -3  -2   12.18    9.98
 -10  -3   0  114.81   20.66
 -10  -3   1  115.14   20.03
 -10  -2  -5  142.10   22.27
 -10  -2  -4  117.53   21.41
 -10  -2  -4  137.76   23.19
 -10  -2  -3   12.62    9.44
 -10  -2  -2   12.70   10.83
 -10  -2  -1  118.90   22.04
 -10  -2   0  214.66   29.85
 -10  -2   1   95.30   21.36
 -10  -1  -3   29.07   12.66
 -10  -1  -2   11.60   10.64
 -10  -1  -2   23.13   12.89
 -10  -1  -1   83.54   19.89
 -10  -1   0  170.23   27.82
  -9 -11  -8  171.27   23.76
  -9 -11  -7  125.00   20.46
  -9 -11  -6   14.65   10.59
  -9 -11  -5   38.73   12.80
  -9 -11  -5   68.28   15.14
  -9 -11  -4  215.40   26.22
  -9 -11  -4  199.44   24.96
  -9 -10  -9   56.20   14.28
  -9 -10  -9   66.29   15.25
  -9 -10  -9   95.35   17.20
  -9 -10  -8  129.41   20.55
  -9 -10  -5   46.20   13.11
  -9 -10  -4  205.42   24.57
  -9 -10  -4  218.51   25.39
  -9 -10  -3  233.39   26.50
  -9 -10  -3  238.12   27.40
  -9 -10  -2   85.60   17.74
  -9 -10  -2  129.21   19.86
  -9 -10  -2  104.04   18.09
  -9  -9 -10    4.96    8.11
  -9  -9 -10   -2.54    8.96
  -9  -9 -10    2.57    8.04
  -9  -9  -9   61.33   15.26
  -9  -9  -9   65.60   15.80
  -9  -9  -9   91.66   16.10
  -9  -9  -8  355.44   34.66
  -9  -9  -3  119.92   18.77
  -9  -9  -3  120.75   18.10
  -9  -9  -2   74.54   15.62
  -9  -9  -2   59.60   15.50
  -9  -9  -2   76.59   15.16
  -9  -9  -1    2.52    8.58
  -9  -9  -1   -4.99    9.13
  -9  -9  -1    6.81    8.02
  -9  -9   0   42.47   13.89
  -9  -8 -10   15.32   10.82
  -9  -8 -10   32.09   11.45
  -9  -8 -10    9.87    9.92
  -9  -8  -9   92.05   16.57
  -9  -8  -9   67.42   15.78
  -9  -8  -9   86.03   16.77
  -9  -8  -2   45.98   13.97
  -9  -8  -2   97.05   16.07
  -9  -8  -1   70.95   14.55
  -9  -8  -1   65.27   15.12
  -9  -8  -1   52.04   14.94
  -9  -8   0   13.10    9.91
  -9  -8   0    4.47    7.63
  -9  -8   0   10.32   10.06
  -9  -8   1   84.66   17.80
  -9  -7 -10    7.63    8.68
  -9  -7 -10    9.60    9.64
  -9  -7 -10   24.64   10.68
  -9  -7  -9  106.95   18.47
  -9  -7  -9  105.55   17.89
  -9  -7  -8  124.05   19.02
  -9  -7  -8  105.59   18.76
  -9  -7  -2   77.13   17.95
  -9  -7  -1   21.82   11.36
  -9  -7  -1   58.75   13.62
  -9  -7   0   45.19   12.58
  -9  -7   0   61.80   15.40
  -9  -7   1  109.47   20.10
  -9  -7   1   84.39   18.79
  -9  -6 -10   -4.93    9.01
  -9  -6 -10    2.35    8.29
  -9  -6 -10    2.56    8.02
  -9  -6  -9   14.40    9.62
  -9  -6  -9   -2.32    7.59
  -9  -6  -8  134.25   19.66
  -9  -6  -8  116.93   18.07
  -9  -6  -1   66.91   17.73
  -9  -6  -1  109.98   17.98
  -9  -6   0   30.60   12.91
  -9  -6   0   53.94   13.46
  -9  -6   1   56.88   16.47
  -9  -6   1   67.85   16.27
  -9  -6   2  285.81   36.64
  -9  -6   2  341.72   35.67
  -9  -5  -9   14.60    9.25
  -9  -5  -9   23.33   11.07
  -9  -5  -9   34.11   12.68
  -9  -5  -8    6.80    8.86
  -9  -5  -8   23.95    9.89
  -9  -5  -8   14.89    9.10
  -9  -5  -7  161.48   22.22
  -9  -5  -1   69.84   14.39
  -9  -5  -1   72.51   17.88
  -9  -5   0   41.00   12.93
  -9  -5   0   10.02   10.90
  -9  -5   1  115.39   19.28
  -9  -5   1  112.09   21.97
  -9  -5   2  202.03   28.56
  -9  -5   2  338.81   33.45
  -9  -5   3  119.35   21.25
  -9  -5   3  115.23   23.07
  -9  -4  -9   -2.72    9.27
  -9  -4  -9    9.83    9.28
  -9  -4  -9    2.36    7.73
  -9  -4  -8  128.66   19.83
  -9  -4  -8   88.42   16.96
  -9  -4  -8  129.67   20.51
  -9  -4  -7  211.91   25.84
  -9  -4  -6  187.93   24.02
  -9  -4  -6  183.80   24.30
  -9  -4  -5   84.80   16.20
  -9  -4  -5   87.91   15.93
  -9  -4  -4   24.92   11.11
  -9  -4  -1  134.43   19.72
  -9  -4   0    4.78    7.83
  -9  -4   1  118.94   19.72
  -9  -4   2  165.77   23.63
  -9  -4   3  177.05   25.02
  -9  -3  -8   80.78   15.88
  -9  -3  -8  111.69   18.50
  -9  -3  -8   75.57   16.69
  -9  -3  -7  318.89   34.59
  -9  -3  -6  269.08   30.50
  -9  -3  -6  314.19   33.19
  -9  -3  -5  134.55   20.58
  -9  -3  -5  145.71   22.46
  -9  -3  -4   13.98    8.81
  -9  -3  -4    2.63    7.86
  -9  -3  -3  226.15   27.73
  -9  -3  -2  221.67   27.07
  -9  -3  -1  137.79   22.37
  -9  -3   0   -2.84    8.91
  -9  -3   1   68.20   15.64
  -9  -3   2   93.30   18.39
  -9  -3   3   22.35   12.14
  -9  -3   4   17.45   11.68
  -9  -2  -8   32.08   11.99
  -9  -2  -8   40.49   12.65
  -9  -2  -7  198.43   26.51
  -9  -2  -6  102.80   18.47
  -9  -2  -6   99.70   19.67
  -9  -2  -5   91.90   17.66
  -9  -2  -5   94.96   18.48
  -9  -2  -4   52.74   14.02
  -9  -2  -4   32.39   11.70
  -9  -2  -3  130.85   21.39
  -9  -2  -3  176.72   23.12
  -9  -2  -2  306.25   33.28
  -9  -2  -2  301.22   31.58
  -9  -2  -1  118.27   20.86
  -9  -2   0    5.90    8.81
  -9  -2   1   18.37   11.23
  -9  -2   2  165.40   25.91
  -9  -2   3  121.73   22.19
  -9  -2   3   69.76   17.24
  -9  -2   4   20.37   13.22
  -9  -1  -6  232.33   28.13
  -9  -1  -6  202.46   28.07
  -9  -1  -5   72.78   16.42
  -9  -1  -5   58.50   14.96
  -9  -1  -4   -2.91    9.11
  -9  -1  -4    2.65    7.52
  -9  -1  -3   20.42   11.39
  -9  -1  -3   15.71   10.53
  -9  -1  -2  219.81   28.16
  -9  -1  -2  163.08   23.98
  -9  -1  -1   25.88   10.99
  -9  -1  -1   21.03   11.41
  -9  -1   0    6.16    8.73
  -9  -1   1   47.51   15.43
  -9  -1   2  220.67   31.00
  -9  -1   3  184.17   28.63
  -9  -1   4  139.93   27.32
  -9   0  -5   39.49   13.39
  -9   0  -5   68.44   16.35
  -9   0  -4   21.18   10.69
  -9   0  -4   -2.81    8.40
  -9   0  -3   16.64    9.82
  -9   0  -3    6.08    9.53
  -9   0  -2  338.01   38.09
  -9   0  -2  348.05   36.47
  -9   0  -1  112.41   21.02
  -9   0  -1   91.82   17.93
  -9   0   0   92.09   20.65
  -9   0   0   96.03   18.49
  -9   0   1   17.41   12.56
  -9   0   1   -3.28   10.73
  -9   0   2  193.05   28.77
  -9   0   3   84.27   20.33
  -9   0   4   68.60   20.74
  -9   1  -4   12.58   11.11
  -9   1  -4   -2.94    9.21
  -9   1  -3   17.55   11.73
  -9   1  -3    6.28   10.28
  -9   1  -2  202.42   27.57
  -9   1  -2  171.46   26.39
  -9   1  -1  348.32   38.10
  -9   1  -1  302.45   34.54
  -9   1   0   20.93   10.63
  -9   1   0   29.49   13.54
  -9   1   1    6.16   10.07
  -9   1   1   -3.35   11.42
  -9   1   2  163.72   26.03
  -9   1   2  104.45   22.49
  -9   1   3  275.69   35.67
  -9   2  -1  280.13   33.33
  -9   2  -1  257.97   33.52
  -9   2   0  123.84   22.36
  -9   2   0  107.37   21.78
  -9   2   1    3.24    9.17
  -9   2   2   66.28   19.06
  -8 -12  -8    2.31    9.27
  -8 -12  -8    7.64    9.00
  -8 -12  -7   20.18   11.23
  -8 -12  -7   27.94   11.49
  -8 -12  -6  235.47   28.27
  -8 -12  -6  260.22   29.09
  -8 -12  -5  199.35   25.89
  -8 -12  -5  215.40   26.36
  -8 -12  -4   31.34   11.49
  -8 -11 -10  116.19   20.72
  -8 -11 -10  186.39   24.09
  -8 -11  -9  115.50   19.46
  -8 -11  -9  100.51   19.28
  -8 -11  -8  -12.97   11.23
  -8 -11  -8    2.43    8.92
  -8 -11  -7   91.48   17.69
  -8 -11  -7   82.86   16.26
  -8 -11  -6  304.09   31.23
  -8 -11  -6  315.37   32.63
  -8 -11  -5  354.31   35.68
  -8 -11  -5  408.48   36.50
  -8 -11  -4  133.45   19.15
  -8 -11  -4  102.51   18.10
  -8 -11  -3    4.82    7.89
  -8 -11  -3   20.67    9.71
  -8 -11  -3    7.12   10.29
  -8 -11  -2   36.54   12.10
  -8 -11  -2   29.93   13.45
  -8 -11  -2   46.91   13.24
  -8 -10 -11   61.29   15.96
  -8 -10 -11   61.95   15.28
  -8 -10 -11   47.96   13.83
  -8 -10 -10  238.36   27.10
  -8 -10 -10  150.95   23.57
  -8 -10 -10  225.55   27.54
  -8 -10  -9  195.33   24.14
  -8 -10  -9  139.83   22.47
  -8 -10  -8   34.50   12.77
  -8 -10  -8   32.18   12.26
  -8 -10  -7    6.83   10.53
  -8 -10  -7   -2.41    8.53
  -8 -10  -6  108.34   17.96
  -8 -10  -6  102.45   16.90
  -8 -10  -5  210.20   24.59
  -8 -10  -5  284.83   28.85
  -8 -10  -4  154.46   20.37
  -8 -10  -4  146.50   20.44
  -8 -10  -3    2.28    7.46
  -8 -10  -3   -4.33    7.93
  -8 -10  -3   -4.44    8.39
  -8 -10  -2   82.18   17.11
  -8 -10  -2   62.41   14.91
  -8 -10  -2   73.36   14.97
  -8 -10  -1  205.93   24.66
  -8 -10  -1  210.04   26.32
  -8 -10  -1  187.71   25.89
  -8 -10   0  297.20   32.50
  -8 -10   0  257.89   31.01
  -8 -10   0  300.86   30.87
  -8  -9 -11    7.88    9.61
  -8  -9 -11    2.59    8.48
  -8  -9 -11   -2.55    8.00
  -8  -9 -10  170.44   23.67
  -8  -9 -10  194.11   24.57
  -8  -9 -10  173.20   24.05
  -8  -9  -9  113.04   18.20
  -8  -9  -9   83.30   17.49
  -8  -9  -9   94.79   18.27
  -8  -9  -8  160.31   23.53
  -8  -9  -7   29.64   11.03
  -8  -9  -7   14.91    9.28
  -8  -9  -6   88.72   16.11
  -8  -9  -6   59.76   14.16
  -8  -9  -5  274.81   27.24
  -8  -9  -5  296.01   28.83
  -8  -9  -4  249.44   26.06
  -8  -9  -4  268.14   27.70
  -8  -9  -3   26.35    9.40
  -8  -9  -3    2.10    8.20
  -8  -9  -3   12.85    8.36
  -8  -9  -2   24.79   10.24
  -8  -9  -2   20.92    9.30
  -8  -9  -2    8.78    8.33
  -8  -9  -1  205.25   24.71
  -8  -9  -1  186.21   26.10
  -8  -9  -1  238.88   27.30
  -8  -9   0   85.56   19.41
  -8  -9   0  106.00   19.46
  -8  -9   0  119.05   18.11
  -8  -9   1   36.94   14.89
  -8  -9   1   37.55   13.80
  -8  -9   1   50.97   13.65
  -8  -8 -11   10.46    8.62
  -8  -8 -11   25.31   11.51
  -8  -8 -10  150.66   22.88
  -8  -8 -10  189.31   24.66
  -8  -8 -10  219.94   25.46
  -8  -8  -9  221.04   26.22
  -8  -8  -9  225.69   26.36
  -8  -8  -9  223.74   26.07
  -8  -8  -8  297.04   30.92
  -8  -8  -8  330.87   32.69
  -8  -8  -8  356.93   32.64
  -8  -8  -7    5.95    6.23
  -8  -8  -7    8.61    8.39
  -8  -8  -7   12.27    9.07
  -8  -8  -6   39.28   11.04
  -8  -8  -5  155.96   19.96
  -8  -8  -4  301.18   28.17
  -8  -8  -4  295.65   28.82
  -8  -8  -3   11.97    7.54
  -8  -8  -3  -11.30    7.95
  -8  -8  -3   -1.99    7.52
  -8  -8  -2   14.61    8.61
  -8  -8  -2    6.49    7.39
  -8  -8  -2   13.72    8.70
  -8  -8  -1  332.08   32.84
  -8  -8  -1  278.99   29.03
  -8  -8  -1  336.83   34.98
  -8  -8   0  220.98   26.86
  -8  -8   0  215.42   26.14
  -8  -8   1   87.83   18.84
  -8  -8   1  100.88   19.18
  -8  -8   2   -5.47   10.32
  -8  -8   2    2.71    8.10
  -8  -7 -11   -5.20    8.50
  -8  -7 -11   -2.52    9.50
  -8  -7 -11    2.47    8.43
  -8  -7 -10   82.61   16.48
  -8  -7 -10   66.65   14.85
  -8  -7 -10   73.79   16.50
  -8  -7  -9  254.37   28.24
  -8  -7  -9  244.27   27.61
  -8  -7  -9  241.42   26.65
  -8  -7  -8  169.34   21.65
  -8  -7  -8  155.27   20.46
  -8  -7  -8  144.00   21.04
  -8  -7  -7    6.08    8.12
  -8  -7  -7    3.87    7.31
  -8  -7  -7    3.99    7.77
  -8  -7  -6  160.76   20.77
  -8  -7  -3  116.22   16.52
  -8  -7  -3  130.06   17.92
  -8  -7  -2   52.71   12.06
  -8  -7  -2   41.52   14.38
  -8  -7  -2   63.98   13.61
  -8  -7  -1  121.26   19.04
  -8  -7  -1  166.98   21.18
  -8  -7   0  114.37   19.13
  -8  -7   0  127.63   20.95
  -8  -7   1  154.60   23.11
  -8  -7   1  166.30   23.89
  -8  -7   2    5.29    9.01
  -8  -7   2    7.99    9.42
  -8  -7   3   66.94   16.65
  -8  -7   3   39.15   15.16
  -8  -6 -11    2.60    8.50
  -8  -6 -11   -4.86    9.47
  -8  -6 -11   -5.01    7.85
  -8  -6 -10  211.62   26.37
  -8  -6 -10  235.72   27.84
  -8  -6 -10  297.41   29.76
  -8  -6  -9  217.56   25.15
  -8  -6  -9  207.57   25.15
  -8  -6  -9  248.71   27.66
  -8  -6  -8  244.85   26.71
  -8  -6  -8  242.00   26.33
  -8  -6  -8  233.40   25.63
  -8  -6  -7   36.38   10.13
  -8  -6  -7   39.59   11.26
  -8  -6  -7   57.57   12.86
  -8  -6  -6  101.62   16.82
  -8  -6  -6  121.69   17.38
  -8  -6  -2    3.84    7.26
  -8  -6  -2   -2.02    7.64
  -8  -6  -1  237.90   26.04
  -8  -6  -1  237.12   26.89
  -8  -6   0  272.12   28.24
  -8  -6   0  164.87   28.10
  -8  -6   1  160.92   24.55
  -8  -6   1  156.59   21.57
  -8  -6   2   74.46   16.37
  -8  -6   2   82.20   16.30
  -8  -6   3   27.17   12.64
  -8  -6   3   25.19   12.74
  -8  -6   4   55.13   14.69
  -8  -6   4   39.90   14.68
  -8  -5 -11   -2.51    8.56
  -8  -5 -11   -2.39    8.15
  -8  -5 -11    5.24    9.25
  -8  -5 -10  111.84   18.66
  -8  -5 -10   79.11   16.62
  -8  -5 -10   86.12   16.21
  -8  -5  -9  261.53   28.11
  -8  -5  -9  305.79   30.43
  -8  -5  -9  288.79   30.42
  -8  -5  -8  186.73   22.44
  -8  -5  -8  172.65   21.67
  -8  -5  -8  170.64   21.26
  -8  -5  -7   11.89    7.96
  -8  -5  -7   11.54    7.29
  -8  -5  -6  105.41   16.15
  -8  -5  -6  117.08   17.18
  -8  -5  -6  100.46   15.80
  -8  -5  -2   33.68   10.20
  -8  -5  -2    9.80    8.74
  -8  -5  -1   78.55   17.53
  -8  -5  -1   91.22   16.00
  -8  -5   0   86.92   21.66
  -8  -5   0  165.94   21.16
  -8  -5   1  201.29   24.01
  -8  -5   1  154.46   24.90
  -8  -5   2   72.36   16.31
  -8  -5   2   93.43   18.62
  -8  -5   3   52.93   14.12
  -8  -5   3   44.04   15.78
  -8  -5   4   78.01   17.74
  -8  -5   4   92.17   21.81
  -8  -5   5   89.69   20.84
  -8  -5   5  162.63   23.87
  -8  -4 -11   14.33   11.07
  -8  -4 -10   91.33   16.82
  -8  -4 -10   77.75   17.18
  -8  -4 -10  102.90   17.10
  -8  -4  -9  418.39   39.01
  -8  -4  -9  453.56   38.36
  -8  -4  -9  458.10   39.01
  -8  -4  -8  267.92   27.52
  -8  -4  -8  275.52   28.85
  -8  -4  -8  300.31   29.28
  -8  -4  -7   48.45   12.20
  -8  -4  -7   52.36   12.16
  -8  -4  -7   62.91   13.68
  -8  -4  -6   -2.11    6.60
  -8  -4  -6   -8.88    7.50
  -8  -4  -6    3.68    6.96
  -8  -4  -5  261.65   28.91
  -8  -4  -5  302.22   28.48
  -8  -4  -4  278.71   27.43
  -8  -4  -4  236.61   24.67
  -8  -4  -3  307.65   30.56
  -8  -4  -2   24.04    9.32
  -8  -4  -1   35.97   10.82
  -8  -4   0  378.09   34.91
  -8  -4   1  199.91   24.34
  -8  -4   2   85.55   16.54
  -8  -4   3   -2.59    8.48
  -8  -4   4  142.18   21.81
  -8  -4   4  119.29   22.58
  -8  -4   5  104.23   20.90
  -8  -4   5  131.31   21.67
  -8  -3 -10   58.11   14.72
  -8  -3 -10   38.28   12.64
  -8  -3 -10   56.01   13.63
  -8  -3  -9  263.48   30.16
  -8  -3  -9  278.19   29.00
  -8  -3  -9  269.15   28.07
  -8  -3  -9  235.81   27.73
  -8  -3  -8  259.39   30.03
  -8  -3  -8  304.47   29.84
  -8  -3  -8  287.24   29.93
  -8  -3  -7   32.98   12.55
  -8  -3  -7   47.61   12.59
  -8  -3  -7   41.19   11.18
  -8  -3  -6  -11.13    8.67
  -8  -3  -6    5.68    8.00
  -8  -3  -6   -3.63    5.70
  -8  -3  -5  228.62   26.56
  -8  -3  -5  236.72   25.59
  -8  -3  -4  510.67   41.87
  -8  -3  -4  476.90   39.87
  -8  -3  -3  479.41   40.38
  -8  -3  -3  445.45   37.49
  -8  -3  -2   95.40   16.53
  -8  -3  -1   30.89   11.32
  -8  -3   0  189.03   23.79
  -8  -3   1  336.66   32.31
  -8  -3   1  295.30   33.19
  -8  -3   2    7.25    8.55
  -8  -3   3   23.02   10.31
  -8  -3   4   99.65   18.65
  -8  -3   5  250.65   30.76
  -8  -3   6   35.02   13.04
  -8  -2 -10   27.28   11.44
  -8  -2  -9  159.98   22.07
  -8  -2  -9  191.75   23.23
  -8  -2  -8  322.59   31.51
  -8  -2  -8  324.95   31.79
  -8  -2  -8  284.59   31.82
  -8  -2  -7  126.38   18.36
  -8  -2  -7  125.58   20.24
  -8  -2  -7  115.93   17.17
  -8  -2  -6   11.22    7.52
  -8  -2  -6   15.55    7.82
  -8  -2  -6   16.47    9.45
  -8  -2  -5  178.46   23.51
  -8  -2  -5  151.08   21.23
  -8  -2  -4  289.26   30.22
  -8  -2  -4  294.52   31.35
  -8  -2  -3  297.90   30.36
  -8  -2  -3  332.56   32.63
  -8  -2  -2   39.17   12.03
  -8  -2  -2    6.27    6.58
  -8  -2  -1   95.38   16.29
  -8  -2  -1   85.17   16.82
  -8  -2   0  350.50   35.26
  -8  -2   1  349.50   36.48
  -8  -2   2   85.21   18.09
  -8  -2   3    2.54    7.21
  -8  -2   3   -2.97    9.71
  -8  -2   4  110.51   22.78
  -8  -2   4   88.28   18.15
  -8  -2   5  117.41   21.42
  -8  -2   6   84.03   18.21
  -8  -1  -9   57.05   13.75
  -8  -1  -8  193.94   24.37
  -8  -1  -8  194.25   23.87
  -8  -1  -8  163.15   24.22
  -8  -1  -7   90.14   17.13
  -8  -1  -7  111.59   17.49
  -8  -1  -7   82.75   15.26
  -8  -1  -6    3.89    6.62
  -8  -1  -6    7.44    7.41
  -8  -1  -6    2.01    7.11
  -8  -1  -5  164.89   23.02
  -8  -1  -5  134.43   20.58
  -8  -1  -4  357.18   36.85
  -8  -1  -4  422.95   37.51
  -8  -1  -3  498.91   43.86
  -8  -1  -3  495.76   41.78
  -8  -1  -2    4.52    7.70
  -8  -1  -2    2.56    9.05
  -8  -1  -1    2.24    7.63
  -8  -1  -1    5.25    8.59
  -8  -1   0  334.73   31.93
  -8  -1   0  263.68   31.83
  -8  -1   1  397.05   39.29
  -8  -1   2   73.37   17.24
  -8  -1   3   12.30    9.65
  -8  -1   4   44.86   16.72
  -8  -1   5  154.95   26.95
  -8  -1   5  105.98   21.31
  -8  -1   6  199.70   27.72
  -8  -1   6  252.26   33.83
  -8   0  -8  188.42   25.45
  -8   0  -8  216.99   25.62
  -8   0  -8  181.41   24.48
  -8   0  -7   43.14   13.13
  -8   0  -7   85.37   16.07
  -8   0  -7   77.08   16.05
  -8   0  -6    8.43    8.21
  -8   0  -6    5.22    7.81
  -8   0  -6    4.07    7.93
  -8   0  -5  217.84   23.48
  -8   0  -5  224.95   28.10
  -8   0  -5  182.61   25.38
  -8   0  -5  204.06   23.65
  -8   0  -4  183.89   24.88
  -8   0  -4  201.62   26.39
  -8   0  -3  168.14   23.14
  -8   0  -3  168.48   23.67
  -8   0  -2  126.43   21.30
  -8   0  -2  111.03   19.28
  -8   0  -1  234.72   26.93
  -8   0  -1  206.31   27.08
  -8   0   0   85.80   17.20
  -8   0   0  109.66   20.08
  -8   0   1  644.41   52.71
  -8   0   1  711.45   56.59
  -8   0   2  338.96   33.93
  -8   0   2  272.22   33.17
  -8   0   3   50.69   15.75
  -8   0   4    9.92   12.88
  -8   0   5   95.43   23.47
  -8   0   6  112.29   26.08
  -8   0   6   83.98   18.92
  -8   1  -7   61.43   15.08
  -8   1  -7   50.30   13.68
  -8   1  -7   40.27   12.69
  -8   1  -6   -2.73    7.30
  -8   1  -6   -4.44   10.48
  -8   1  -6   -2.94    8.32
  -8   1  -6    6.40    8.78
  -8   1  -5  140.87   19.23
  -8   1  -5  125.44   18.98
  -8   1  -5  111.34   21.39
  -8   1  -5  158.03   22.73
  -8   1  -4  227.23   29.28
  -8   1  -4  292.12   30.87
  -8   1  -3  245.04   29.64
  -8   1  -3  231.66   29.35
  -8   1  -2  123.52   19.69
  -8   1  -2   89.78   18.72
  -8   1  -1    5.73    8.98
  -8   1  -1   -2.60    8.86
  -8   1   0   82.14   17.70
  -8   1   0  130.83   21.33
  -8   1   1  333.99   34.79
  -8   1   1  329.88   37.00
  -8   1   2  225.27   28.63
  -8   1   2  190.67   28.02
  -8   1   3   72.88   17.39
  -8   1   3   81.16   18.78
  -8   1   4   60.98   17.20
  -8   1   5  150.50   28.25
  -8   1   6  186.81   30.43
  -8   2  -6   11.70   10.38
  -8   2  -5   23.60   11.82
  -8   2  -5   -2.80    8.36
  -8   2  -5    6.59    9.04
  -8   2  -4   55.43   15.65
  -8   2  -4   72.30   16.90
  -8   2  -3  186.37   26.42
  -8   2  -3  203.43   26.32
  -8   2  -2   87.98   17.92
  -8   2  -2   82.08   18.84
  -8   2  -1    2.97    8.40
  -8   2  -1   -2.78    8.30
  -8   2   0  105.02   19.65
  -8   2   0  105.23   20.55
  -8   2   1  299.42   33.27
  -8   2   1  275.07   33.24
  -8   2   2  315.53   35.68
  -8   2   2  266.15   33.00
  -8   2   3   68.15   19.04
  -8   2   3   69.91   19.17
  -8   2   4   34.74   16.18
  -8   2   4   44.88   15.76
  -8   2   5   82.14   21.71
  -8   3  -4  120.26   21.51
  -8   3  -3  152.37   24.18
  -8   3  -3  158.27   23.69
  -8   3  -2  194.28   26.25
  -8   3  -2  171.59   25.60
  -8   3  -1   33.53   12.68
  -8   3  -1   41.36   14.07
  -8   3   0   62.70   16.98
  -8   3   0   12.34   12.45
  -8   3   1  152.01   24.66
  -8   3   1  168.37   25.28
  -8   3   2  162.95   26.32
  -8   3   2  168.76   26.63
  -8   3   3   13.06   12.72
  -8   3   3    6.78    9.62
  -8   3   4   19.96   14.50
  -8   3   4   56.08   17.28
  -8   3   5  159.39   27.56
  -8   4  -1    6.21   10.17
  -8   4  -1   15.59   11.03
  -8   4   0   69.39   17.72
  -8   4   0   73.11   18.10
  -8   4   1  232.36   30.53
  -8   4   1  170.53   27.58
  -8   4   2  142.06   24.93
  -8   4   2  166.34   27.71
  -8   4   3   30.88   14.22
  -8   4   3   37.51   16.50
  -7 -13  -7  200.16   25.41
  -7 -13  -5    9.84   12.08
  -7 -12 -10   -2.74    9.69
  -7 -12 -10    2.57   10.85
  -7 -12  -9   75.79   15.77
  -7 -12  -9   50.82   14.80
  -7 -12  -8  216.88   27.02
  -7 -12  -8  225.97   26.70
  -7 -12  -7  391.71   36.36
  -7 -12  -7  395.99   37.27
  -7 -12  -6  157.01   21.34
  -7 -12  -6  119.10   20.89
  -7 -12  -5  -12.06   10.19
  -7 -12  -5   -2.32    9.29
  -7 -12  -4  105.04   18.93
  -7 -12  -4  102.83   19.21
  -7 -12  -4  144.53   21.26
  -7 -12  -3  304.45   31.40
  -7 -12  -3  254.74   29.21
  -7 -12  -3  273.04   29.80
  -7 -12  -2  293.16   32.87
  -7 -12  -2  331.12   34.51
  -7 -12  -2  299.17   31.66
  -7 -12  -2  301.30   31.86
  -7 -11 -11  248.79   28.20
  -7 -11 -11  180.72   26.72
  -7 -11 -10  135.43   21.00
  -7 -11 -10   76.68   17.29
  -7 -11  -9   -2.42    9.41
  -7 -11  -9    7.80   10.12
  -7 -11  -8   99.87   18.24
  -7 -11  -8  122.67   19.20
  -7 -11  -7  107.81   18.59
  -7 -11  -7  103.32   18.14
  -7 -11  -6  163.98   21.96
  -7 -11  -6  166.63   22.71
  -7 -11  -5   11.47    9.95
  -7 -11  -5   15.21   10.28
  -7 -11  -4  215.51   25.52
  -7 -11  -4  200.38   24.95
  -7 -11  -4  226.07   25.31
  -7 -11  -3  367.75   34.05
  -7 -11  -3  326.42   32.55
  -7 -11  -3  324.39   33.81
  -7 -11  -2  238.12   28.02
  -7 -11  -2  240.81   27.50
  -7 -11  -2  201.64   26.54
  -7 -11  -2  252.42   27.36
  -7 -11  -1   60.83   17.27
  -7 -11  -1   98.96   19.03
  -7 -11  -1   96.50   17.05
  -7 -11   0    2.69   12.43
  -7 -11   0    9.38    8.87
  -7 -10 -12  204.60   28.36
  -7 -10 -12  318.80   32.35
  -7 -10 -12  327.94   33.19
  -7 -10 -12  232.77   28.78
  -7 -10 -11  354.02   35.98
  -7 -10 -11  398.86   36.80
  -7 -10 -10  158.32   24.73
  -7 -10 -10  224.50   25.67
  -7 -10  -9   34.43   12.20
  -7 -10  -9   37.27   12.10
  -7 -10  -8  143.07   20.46
  -7 -10  -8  186.95   23.22
  -7 -10  -8  143.27   21.91
  -7 -10  -7  248.77   26.49
  -7 -10  -7  278.78   28.62
  -7 -10  -6  329.71   30.66
  -7 -10  -6  311.93   31.21
  -7 -10  -5   77.69   14.96
  -7 -10  -5   44.36   11.61
  -7 -10  -4    8.07    9.14
  -7 -10  -4    2.04    7.46
  -7 -10  -4    2.16    9.99
  -7 -10  -3   47.68   12.27
  -7 -10  -3   80.76   15.16
  -7 -10  -3   57.80   15.01
  -7 -10  -2   90.41   17.81
  -7 -10  -2   93.60   16.12
  -7 -10  -2  127.89   18.73
  -7 -10  -1   -2.38    8.99
  -7 -10  -1    7.12    9.51
  -7 -10  -1    4.36    7.13
  -7 -10   0    6.71    8.48
  -7 -10   0   27.43   12.70
  -7 -10   0   20.29   12.23
  -7 -10   1  197.71   24.44
  -7 -10   1  174.28   25.81
  -7 -10   1  215.03   27.39
  -7  -9 -12  218.03   27.63
  -7  -9 -12  202.24   27.42
  -7  -9 -12  270.15   30.10
  -7  -9 -11  326.33   32.47
  -7  -9 -11  275.30   30.50
  -7  -9 -11  211.45   28.26
  -7  -9 -10  205.74   23.80
  -7  -9 -10  119.78   19.84
  -7  -9  -9    2.16    7.90
  -7  -9  -9  -11.88    9.26
  -7  -9  -8  278.55   29.63
  -7  -9  -8  295.40   29.28
  -7  -9  -7  359.58   31.53
  -7  -9  -7  339.42   32.21
  -7  -9  -6  510.98   40.39
  -7  -9  -6  542.46   41.96
  -7  -9  -5  266.87   26.70
  -7  -9  -5  286.16   28.57
  -7  -9  -4    6.05    7.86
  -7  -9  -4    7.34    8.14
  -7  -9  -4    9.40    7.95
  -7  -9  -3   -5.89    9.63
  -7  -9  -3   13.52    9.30
  -7  -9  -3   10.19    8.17
  -7  -9  -2  256.84   25.85
  -7  -9  -2  225.96   24.39
  -7  -9  -2  174.52   23.75
  -7  -9  -1   85.99   15.32
  -7  -9  -1   60.82   15.23
  -7  -9  -1   51.20   14.00
  -7  -9   0   10.60    8.50
  -7  -9   0    9.58   10.12
  -7  -9   0    2.38   10.05
  -7  -9   1   81.50   17.73
  -7  -9   1   77.53   17.43
  -7  -9   1  105.40   17.03
  -7  -9   2   57.54   16.65
  -7  -9   2   54.52   13.38
  -7  -9   2   70.23   16.79
  -7  -9   3   53.79   13.69
  -7  -8 -12  180.80   24.28
  -7  -8 -12  128.76   21.10
  -7  -8 -12  185.32   24.22
  -7  -8 -11  277.49   29.85
  -7  -8 -11  227.50   26.77
  -7  -8 -10  117.55   19.67
  -7  -8 -10  149.93   20.76
  -7  -8 -10  126.84   20.06
  -7  -8  -9    6.02    8.68
  -7  -8  -9    9.00    7.95
  -7  -8  -9  -11.32    7.71
  -7  -8  -9    6.55    6.84
  -7  -8  -8  103.93   16.21
  -7  -8  -8   74.21   16.17
  -7  -8  -7  728.60   49.42
  -7  -8  -7  600.86   48.27
  -7  -8  -6  238.59   24.98
  -7  -8  -6  268.95   25.62
  -7  -8  -5  124.71   17.10
  -7  -8  -5  166.25   19.87
  -7  -8  -4   18.97    8.48
  -7  -8  -4   10.14    7.34
  -7  -8  -4    5.59    8.46
  -7  -8  -3  565.74   42.37
  -7  -8  -3  495.82   40.59
  -7  -8  -3  601.94   42.33
  -7  -8  -2  192.79   23.45
  -7  -8  -2  264.46   25.17
  -7  -8  -2  254.32   25.64
  -7  -8  -1  357.08   33.32
  -7  -8  -1  376.90   34.07
  -7  -8  -1  363.65   32.25
  -7  -8   0   86.05   16.24
  -7  -8   0   51.76   12.82
  -7  -8   0   86.42   15.59
  -7  -8   1   55.39   14.35
  -7  -8   1   70.34   16.16
  -7  -8   2  129.51   21.24
  -7  -8   2  134.51   21.59
  -7  -8   3   98.30   19.39
  -7  -8   3   97.56   18.76
  -7  -8   4    2.71   10.25
  -7  -7 -12   37.58   13.32
  -7  -7 -12   57.56   14.54
  -7  -7 -12   30.37   12.35
  -7  -7 -11  139.08   21.56
  -7  -7 -11  165.29   22.36
  -7  -7 -11  124.16   21.36
  -7  -7 -10   81.55   15.80
  -7  -7 -10   74.82   16.72
  -7  -7 -10   89.05   16.77
  -7  -7  -9   13.19    8.82
  -7  -7  -9   10.65    8.07
  -7  -7  -9    8.67    7.67
  -7  -7  -8   22.57    9.57
  -7  -7  -8   18.61    9.24
  -7  -7  -8   35.84   10.54
  -7  -7  -7  540.92   40.44
  -7  -7  -7  519.21   39.15
  -7  -7  -7  497.08   39.97
  -7  -7  -7  452.70   38.61
  -7  -7  -6  354.95   32.42
  -7  -7  -6  395.88   32.44
  -7  -7  -5   97.88   16.42
  -7  -7  -5  142.05   17.60
  -7  -7  -5  136.46   16.30
  -7  -7  -4   25.66   10.17
  -7  -7  -4   26.62    9.09
  -7  -7  -3  264.09   25.03
  -7  -7  -3  250.73   24.95
  -7  -7  -3  321.80   27.41
  -7  -7  -3  237.64   24.51
  -7  -7  -2  773.46   56.90
  -7  -7  -2  854.45   56.03
  -7  -7  -2  901.63   57.58
  -7  -7  -1  569.21   40.90
  -7  -7  -1  415.78   38.74
  -7  -7   0   59.89   14.48
  -7  -7   0   66.11   14.15
  -7  -7   1   20.78   10.27
  -7  -7   1   16.45    9.72
  -7  -7   2  318.78   32.93
  -7  -7   2  314.52   33.36
  -7  -7   3  225.61   27.82
  -7  -7   3  186.29   26.19
  -7  -7   4   88.40   17.67
  -7  -7   4   58.95   15.80
  -7  -7   5   16.69   11.17
  -7  -6 -12   69.26   15.07
  -7  -6 -12   49.31   15.21
  -7  -6 -12   62.75   14.91
  -7  -6 -11  183.01   25.12
  -7  -6 -11  174.25   24.18
  -7  -6 -11  203.61   24.85
  -7  -6 -10  114.91   18.14
  -7  -6 -10  123.40   19.33
  -7  -6 -10   98.03   17.71
  -7  -6  -9   89.36   16.20
  -7  -6  -9   92.81   16.93
  -7  -6  -9   69.26   15.39
  -7  -6  -8   55.22   13.07
  -7  -6  -8   54.53   12.82
  -7  -6  -8   60.69   12.45
  -7  -6  -7  229.92   24.15
  -7  -6  -7  220.45   25.00
  -7  -6  -7  249.24   24.91
  -7  -6  -6  441.26   34.60
  -7  -6  -6  392.00   32.56
  -7  -6  -6  409.31   33.69
  -7  -6  -5  232.12   22.73
  -7  -6  -5  234.86   23.50
  -7  -6  -5  234.30   23.09
  -7  -6  -4   21.10    7.47
  -7  -6  -4   30.14    9.76
  -7  -6  -4   13.93    8.33
  -7  -6  -3  383.60   30.17
  -7  -6  -3  402.27   30.77
  -7  -6  -3  289.47   28.14
  -7  -6  -3  371.34   29.14
  -7  -6  -2  781.48   50.57
  -7  -6  -2  672.03   50.30
  -7  -6  -1  353.18   33.49
  -7  -6  -1  442.41   34.49
  -7  -6   0   59.84   13.15
  -7  -6   0   40.75   11.80
  -7  -6   1   -2.29    7.19
  -7  -6   1   24.23    9.07
  -7  -6   2  392.60   35.84
  -7  -6   2  345.39   34.46
  -7  -6   3  249.45   28.82
  -7  -6   3  195.48   25.57
  -7  -6   4  176.32   24.54
  -7  -6   4  127.91   22.17
  -7  -6   5   13.78   11.05
  -7  -6   5    2.79   10.55
  -7  -5 -12  112.74   20.54
  -7  -5 -12   78.49   18.82
  -7  -5 -11  224.87   26.30
  -7  -5 -11  209.47   25.08
  -7  -5 -11  160.25   22.94
  -7  -5 -10  570.69   46.66
  -7  -5 -10  598.51   48.08
  -7  -5 -10  619.91   47.28
  -7  -5  -9   23.96    9.71
  -7  -5  -9   23.22   10.22
  -7  -5  -9   16.40    9.54
  -7  -5  -8    7.85    7.19
  -7  -5  -8    7.64    8.47
  -7  -5  -8   12.15    8.34
  -7  -5  -7  304.99   28.25
  -7  -5  -7  317.26   29.55
  -7  -5  -7  306.68   28.69
  -7  -5  -6 1004.84   63.70
  -7  -5  -6 1021.93   63.80
  -7  -5  -6  999.83   64.26
  -7  -5  -5  199.94   20.29
  -7  -5  -5  162.76   19.26
  -7  -5  -5  183.88   19.38
  -7  -5  -4   69.85   11.66
  -7  -5  -3  161.54   17.24
  -7  -5  -3  164.26   16.99
  -7  -5  -2  213.04   25.66
  -7  -5  -2  373.23   28.33
  -7  -5  -1  311.64   28.16
  -7  -5  -1  300.16   28.48
  -7  -5   0   31.22    9.83
  -7  -5   0   16.36   11.49
  -7  -5   1   19.84   10.49
  -7  -5   1   31.70   10.26
  -7  -5   2  144.38   21.10
  -7  -5   2  172.42   22.59
  -7  -5   3  278.73   33.13
  -7  -5   3  296.09   31.07
  -7  -5   4   79.93   17.26
  -7  -5   4  100.49   19.52
  -7  -5   5   -2.79    8.33
  -7  -5   5   21.68   11.16
  -7  -5   6   25.69   13.58
  -7  -5   6   42.38   14.70
  -7  -4 -12   81.14   16.52
  -7  -4 -12   70.96   16.89
  -7  -4 -11   98.58   17.51
  -7  -4 -11   80.23   16.43
  -7  -4 -11   78.58   16.00
  -7  -4 -10  285.81   30.37
  -7  -4 -10  301.64   30.10
  -7  -4 -10  236.11   27.84
  -7  -4  -9   76.44   14.42
  -7  -4  -9   84.86   15.15
  -7  -4  -9   72.64   15.20
  -7  -4  -8  119.61   17.30
  -7  -4  -8  146.45   19.51
  -7  -4  -8  110.21   17.62
  -7  -4  -7  419.90   33.53
  -7  -4  -7  413.16   34.33
  -7  -4  -7  387.77   33.64
  -7  -4  -6 1149.20   70.35
  -7  -4  -6 1154.73   71.08
  -7  -4  -6 1146.03   71.34
  -7  -4  -5  769.45   50.79
  -7  -4  -5  776.48   52.37
  -7  -4  -5  814.26   50.58
  -7  -4  -5  719.72   49.87
  -7  -4  -4   86.25   15.16
  -7  -4  -4  103.21   13.75
  -7  -4  -4  100.84   13.57
  -7  -4  -4   91.42   13.79
  -7  -4  -3   30.15    8.19
  -7  -4  -3   38.93   10.14
  -7  -4  -3   24.72    8.60
  -7  -4  -2  243.86   23.90
  -7  -4  -2  199.54   21.40
  -7  -4  -1  386.84   32.83
  -7  -4  -1  403.05   33.25
  -7  -4   0  119.04   17.01
  -7  -4   1    2.04    7.21
  -7  -4   2   37.35   11.70
  -7  -4   3  416.41   37.64
  -7  -4   4   84.97   16.56
  -7  -4   4   59.80   14.95
  -7  -4   5   43.97   13.15
  -7  -4   5   42.20   12.88
  -7  -4   6   49.73   14.44
  -7  -4   6   34.14   14.37
  -7  -4   7  199.45   28.82
  -7  -4   7  208.33   27.88
  -7  -3 -11  161.48   22.73
  -7  -3 -11  209.82   26.19
  -7  -3 -11  185.37   24.43
  -7  -3 -10  138.93   20.58
  -7  -3 -10  117.63   18.79
  -7  -3 -10  128.49   19.56
  -7  -3  -9  114.42   17.96
  -7  -3  -9  121.40   18.39
  -7  -3  -9  106.41   16.94
  -7  -3  -8   28.03   10.10
  -7  -3  -8   29.57   10.12
  -7  -3  -8   27.08    9.93
  -7  -3  -7  254.69   25.49
  -7  -3  -7  211.71   23.65
  -7  -3  -7  245.14   24.19
  -7  -3  -6  440.55   34.55
  -7  -3  -6  424.48   32.59
  -7  -3  -6  383.22   32.87
  -7  -3  -6  428.41   36.26
  -7  -3  -5  245.53   23.19
  -7  -3  -5  246.01   22.80
  -7  -3  -5  201.29   23.41
  -7  -3  -4   17.65    6.83
  -7  -3  -4    7.04    6.28
  -7  -3  -4   27.69    8.52
  -7  -3  -4   13.60    8.24
  -7  -3  -3  209.11   23.98
  -7  -3  -3  233.28   22.88
  -7  -3  -2  445.08   36.42
  -7  -3  -2  444.74   34.26
  -7  -3  -1  890.30   60.38
  -7  -3   0  458.15   38.12
  -7  -3   1   10.03    8.28
  -7  -3   1   19.83   10.42
  -7  -3   2   27.97    8.96
  -7  -3   2   25.88   10.27
  -7  -3   3  310.25   31.23
  -7  -3   4  297.74   31.00
  -7  -3   5   -2.58    8.79
  -7  -3   6   16.23   10.25
  -7  -3   7  108.59   20.79
  -7  -3   7  123.47   21.31
  -7  -2 -11  135.41   20.67
  -7  -2 -10  206.41   25.61
  -7  -2 -10  243.99   26.48
  -7  -2 -10  187.58   24.48
  -7  -2  -9  112.55   18.11
  -7  -2  -9  100.11   17.67
  -7  -2  -8   14.91    8.09
  -7  -2  -8   19.18    8.79
  -7  -2  -8    6.18    8.05
  -7  -2  -7  102.42   17.06
  -7  -2  -7   83.60   14.93
  -7  -2  -7   72.72   14.24
  -7  -2  -7   79.25   13.66
  -7  -2  -6   72.07   13.08
  -7  -2  -6   52.27   12.22
  -7  -2  -6   59.09   11.99
  -7  -2  -5  170.99   21.25
  -7  -2  -5  186.05   20.32
  -7  -2  -5  193.58   20.51
  -7  -2  -4   -2.93    6.02
  -7  -2  -4    1.86    5.57
  -7  -2  -4    4.23    5.81
  -7  -2  -3  120.07   16.68
  -7  -2  -3  117.85   18.04
  -7  -2  -2  496.93   40.73
  -7  -2  -2  523.18   39.18
  -7  -2  -1  632.70   45.59
  -7  -2  -1  629.20   47.71
  -7  -2   0  379.08   35.15
  -7  -2   0  396.56   32.37
  -7  -2   1   -2.32    7.58
  -7  -2   2  366.13   35.50
  -7  -2   3  730.96   55.20
  -7  -2   3  786.48   58.19
  -7  -2   4  493.71   42.51
  -7  -2   4  479.19   44.78
  -7  -2   5  335.59   34.27
  -7  -2   5  350.36   37.38
  -7  -2   6    2.66    7.55
  -7  -2   7   11.07   10.47
  -7  -1 -10  116.64   19.86
  -7  -1 -10  112.63   18.69
  -7  -1 -10  128.44   19.85
  -7  -1 -10   99.92   18.54
  -7  -1  -9  141.80   22.10
  -7  -1  -9  206.23   24.12
  -7  -1  -9  175.97   22.92
  -7  -1  -9  175.24   22.63
  -7  -1  -8   13.17    9.29
  -7  -1  -8    3.83    8.30
  -7  -1  -8   21.23    9.63
  -7  -1  -8   12.25    8.68
  -7  -1  -7    1.73    8.01
  -7  -1  -7    5.89    6.70
  -7  -1  -7   14.23    8.15
  -7  -1  -7    4.64    6.58
  -7  -1  -6  197.75   24.88
  -7  -1  -6  243.62   24.38
  -7  -1  -6  232.08   24.28
  -7  -1  -5  178.86   20.32
  -7  -1  -5  167.43   22.03
  -7  -1  -5  190.98   20.49
  -7  -1  -4  100.18   15.95
  -7  -1  -4  113.66   14.85
  -7  -1  -4  111.07   14.72
  -7  -1  -3   -6.50   10.03
  -7  -1  -3   -5.84    7.36
  -7  -1  -2  471.99   37.86
  -7  -1  -2  438.41   38.68
  -7  -1  -1  386.35   34.69
  -7  -1  -1  337.85   31.31
  -7  -1   0  364.46   34.33
  -7  -1   0  339.75   30.94
  -7  -1   1   -2.40    9.36
  -7  -1   1    5.98    7.29
  -7  -1   2  335.81   34.59
  -7  -1   3  537.48   46.27
  -7  -1   4  638.21   53.42
  -7  -1   5   58.08   14.78
  -7  -1   5   56.68   16.43
  -7  -1   6    7.93    9.99
  -7  -1   6   -3.13   14.18
  -7  -1   7  120.55   21.23
  -7  -1   7  146.61   24.89
  -7   0  -9  119.39   19.34
  -7   0  -9  142.58   19.81
  -7   0  -9  135.61   20.21
  -7   0  -9  100.00   17.92
  -7   0  -8  100.31   17.55
  -7   0  -8   95.97   17.62
  -7   0  -8   81.60   15.26
  -7   0  -7   26.71    9.93
  -7   0  -7    8.49    8.54
  -7   0  -7   16.90    9.43
  -7   0  -6  213.80   23.51
  -7   0  -6  196.63   24.52
  -7   0  -6  195.53   22.61
  -7   0  -5  436.66   35.03
  -7   0  -5  404.54   36.99
  -7   0  -5  391.59   33.26
  -7   0  -4  230.99   22.67
  -7   0  -4  212.95   24.87
  -7   0  -4  246.64   23.32
  -7   0  -4  216.61   26.39
  -7   0  -3    8.39    7.16
  -7   0  -3   13.78    9.71
  -7   0  -2  289.48   30.50
  -7   0  -2  277.03   28.65
  -7   0  -1  311.76   31.72
  -7   0  -1  315.84   30.30
  -7   0   0  398.13   38.11
  -7   0   0  437.67   37.15
  -7   0   1    6.52    7.12
  -7   0   1   17.51    8.86
  -7   0   2  128.88   21.18
  -7   0   2  131.43   19.51
  -7   0   3  217.13   25.85
  -7   0   3  176.64   25.33
  -7   0   4  292.83   33.86
  -7   0   5   40.12   15.82
  -7   0   6   -6.44   12.91
  -7   0   7  141.07   26.50
  -7   0   7  164.21   23.93
  -7   0   8   97.39   24.17
  -7   1  -8   73.52   15.97
  -7   1  -8   68.99   15.72
  -7   1  -8   93.52   17.08
  -7   1  -7  100.36   17.37
  -7   1  -7   83.13   16.34
  -7   1  -7   75.45   15.54
  -7   1  -6  278.07   29.96
  -7   1  -6  265.74   27.94
  -7   1  -6  272.97   27.69
  -7   1  -5  628.47   46.72
  -7   1  -5  661.54   47.44
  -7   1  -5  610.49   50.19
  -7   1  -4  266.87   29.60
  -7   1  -4  299.09   27.52
  -7   1  -4  304.88   32.39
  -7   1  -4  301.22   27.21
  -7   1  -3   21.77    9.18
  -7   1  -3   15.73    9.77
  -7   1  -2   91.92   17.60
  -7   1  -2   58.07   13.79
  -7   1  -1  623.40   49.61
  -7   1  -1  618.76   48.22
  -7   1   0  121.34   20.31
  -7   1   0  140.03   20.03
  -7   1   1  204.14   24.31
  -7   1   1  122.68   21.35
  -7   1   2   10.93    8.96
  -7   1   2   12.25    9.83
  -7   1   3  211.57   26.14
  -7   1   3  149.97   24.13
  -7   1   4  127.65   21.77
  -7   1   4   95.83   18.92
  -7   1   5  104.82   21.21
  -7   1   6   -3.30   13.59
  -7   1   7   79.23   21.69
  -7   1   8  174.44   29.99
  -7   2  -7    2.61    7.79
  -7   2  -7    4.69    9.14
  -7   2  -7    2.26    8.27
  -7   2  -6  224.67   25.88
  -7   2  -6  265.48   26.82
  -7   2  -6  173.28   24.43
  -7   2  -5  388.30   38.28
  -7   2  -5  421.89   36.45
  -7   2  -5  464.19   37.60
  -7   2  -4  121.70   17.68
  -7   2  -4  134.02   20.57
  -7   2  -4  137.67   18.17
  -7   2  -4  129.58   21.19
  -7   2  -3   -2.42    7.23
  -7   2  -3    2.54    8.32
  -7   2  -3   14.02    8.28
  -7   2  -3   23.60    9.56
  -7   2  -2   60.74   15.09
  -7   2  -2   71.92   15.37
  -7   2  -1  360.53   36.27
  -7   2  -1  403.77   36.76
  -7   2   0  278.61   30.03
  -7   2   0  243.72   29.51
  -7   2   1  175.13   24.29
  -7   2   1  168.02   22.99
  -7   2   2   -2.81    9.18
  -7   2   2    5.25    8.59
  -7   2   3   41.37   14.11
  -7   2   3   44.22   14.68
  -7   2   4  236.26   30.99
  -7   2   4  259.48   31.60
  -7   2   5  123.46   21.60
  -7   2   5   87.82   21.70
  -7   2   6   13.49   13.52
  -7   2   7   62.94   20.86
  -7   3  -6   33.80   12.48
  -7   3  -6   23.82   11.53
  -7   3  -6   23.53   12.44
  -7   3  -5  137.24   20.40
  -7   3  -5  135.12   21.83
  -7   3  -5  117.69   20.22
  -7   3  -5  181.67   21.88
  -7   3  -4   73.13   14.35
  -7   3  -4   74.43   14.47
  -7   3  -4   31.04   11.77
  -7   3  -4   53.75   15.05
  -7   3  -3  -12.83    9.07
  -7   3  -3   -1.92    8.33
  -7   3  -3   -2.65    7.93
  -7   3  -3    3.66    8.82
  -7   3  -2   66.28   14.72
  -7   3  -2   50.33   13.77
  -7   3  -1  253.99   29.99
  -7   3  -1  277.75   30.46
  -7   3   0  324.98   33.74
  -7   3   0  270.86   31.48
  -7   3   1  111.05   19.45
  -7   3   1   91.89   18.52
  -7   3   2    2.82   11.32
  -7   3   2    2.89    9.05
  -7   3   3  203.15   27.52
  -7   3   3  141.04   24.18
  -7   3   4  429.81   41.99
  -7   3   4  363.15   40.34
  -7   3   5  198.26   28.72
  -7   3   5  156.01   26.30
  -7   3   6   10.26   14.13
  -7   3   6   41.53   15.72
  -7   3   7   35.30   18.34
  -7   4  -5   89.66   18.43
  -7   4  -5  139.95   21.13
  -7   4  -4  168.43   24.06
  -7   4  -4  151.16   24.81
  -7   4  -4  210.50   24.80
  -7   4  -4  203.74   23.76
  -7   4  -3   21.51   11.16
  -7   4  -3   41.18   13.30
  -7   4  -2   -2.75    8.22
  -7   4  -2   -5.43    9.24
  -7   4  -1   86.12   17.86
  -7   4  -1   76.56   17.40
  -7   4   0  168.31   24.60
  -7   4   0  126.40   21.43
  -7   4   1   51.77   15.14
  -7   4   1   63.45   17.02
  -7   4   2   17.89   13.52
  -7   4   2   11.83   10.09
  -7   4   3  117.50   22.54
  -7   4   3  136.76   23.58
  -7   4   4  407.74   41.61
  -7   4   4  398.67   42.27
  -7   4   5  308.45   37.45
  -7   4   5  331.28   37.93
  -7   4   6    6.91   14.24
  -7   4   6   20.14   14.19
  -7   4   7   10.17   17.24
  -7   5  -3   61.94   16.03
  -7   5  -2   11.37    9.70
  -7   5  -1  104.91   19.53
  -7   5  -1   99.67   19.49
  -7   5   0  368.15   38.36
  -7   5   0  441.96   41.39
  -7   5   1  158.02   24.95
  -7   5   1  167.66   24.90
  -7   5   2   57.06   15.53
  -7   5   2   56.81   18.10
  -7   5   3   62.63   16.94
  -7   5   3   45.52   17.31
  -7   5   4   45.35   14.93
  -7   5   4   73.33   18.83
  -7   5   5  124.50   23.28
  -7   5   5   89.04   21.60
  -7   5   6   31.46   16.84
  -7   5   6    3.46   13.50
  -7   6   1  242.39   32.28
  -7   6   2   29.76   15.68
  -7   6   4   74.94   18.06
  -6 -13  -9  337.98   34.15
  -6 -13  -9  329.09   34.32
  -6 -13  -8   67.84   16.39
  -6 -13  -8   58.34   15.54
  -6 -13  -7   21.74   12.09
  -6 -13  -7    7.43   10.48
  -6 -13  -6  144.30   21.35
  -6 -13  -6  127.58   21.17
  -6 -13  -5  318.81   33.86
  -6 -13  -5  370.96   36.59
  -6 -13  -5  396.58   36.23
  -6 -13  -4  335.04   34.25
  -6 -13  -4  305.17   31.45
  -6 -13  -4  270.71   30.97
  -6 -12 -11   28.04   12.30
  -6 -12 -11   13.43   10.18
  -6 -12 -11    9.41   12.20
  -6 -12 -10  214.56   25.43
  -6 -12 -10  178.70   24.33
  -6 -12  -9  263.66   29.57
  -6 -12  -9  263.58   29.76
  -6 -12  -8   84.73   17.34
  -6 -12  -8   89.45   17.46
  -6 -12  -7   42.74   13.78
  -6 -12  -7   36.48   14.09
  -6 -12  -6  161.90   22.28
  -6 -12  -6  149.68   21.94
  -6 -12  -5  278.63   29.84
  -6 -12  -5  302.56   30.92
  -6 -12  -5  266.89   29.28
  -6 -12  -4  205.30   25.55
  -6 -12  -4  260.80   27.88
  -6 -12  -4  232.74   28.63
  -6 -12  -3  223.42   26.79
  -6 -12  -3  269.45   29.83
  -6 -12  -3  238.46   27.22
  -6 -12  -2   27.48   13.14
  -6 -12  -2   -2.34    8.28
  -6 -12  -2    7.70   12.37
  -6 -12  -2   22.96   11.06
  -6 -12  -1   71.73   16.75
  -6 -12  -1   94.56   17.04
  -6 -12  -1   95.44   19.97
  -6 -12  -1   71.61   15.49
  -6 -11 -12   10.52   10.26
  -6 -11 -12   14.87   12.40
  -6 -11 -11    2.60   10.13
  -6 -11 -11    4.90    8.96
  -6 -11 -10  163.12   22.75
  -6 -11 -10  178.75   23.48
  -6 -11 -10  138.41   22.00
  -6 -11  -9  474.67   42.03
  -6 -11  -9  513.08   41.89
  -6 -11  -8  233.23   27.12
  -6 -11  -8  230.43   26.07
  -6 -11  -7  122.09   19.27
  -6 -11  -7  129.51   20.41
  -6 -11  -6   15.60   10.53
  -6 -11  -6    2.12    9.16
  -6 -11  -5  295.65   29.59
  -6 -11  -5  278.79   29.22
  -6 -11  -5  298.66   29.99
  -6 -11  -4  172.75   22.89
  -6 -11  -4  238.79   26.43
  -6 -11  -4  256.88   26.71
  -6 -11  -3  204.64   25.81
  -6 -11  -3  196.89   23.96
  -6 -11  -3  187.07   23.52
  -6 -11  -3  271.50   28.06
  -6 -11  -2    2.32   11.79
  -6 -11  -2    6.49    8.44
  -6 -11  -2   11.13    9.42
  -6 -11  -2   26.13   11.67
  -6 -11  -1  101.61   19.38
  -6 -11  -1   94.27   16.80
  -6 -11  -1  111.52   20.61
  -6 -11   0  260.66   30.20
  -6 -11   0  226.40   27.96
  -6 -11   0  185.47   23.47
  -6 -11   1   98.42   19.90
  -6 -11   1   75.06   15.15
  -6 -11   1   86.08   19.89
  -6 -10 -13   99.92   19.46
  -6 -10 -13   99.02   18.51
  -6 -10 -12   63.93   15.23
  -6 -10 -12  111.37   19.54
  -6 -10 -11    2.33   10.09
  -6 -10 -11   -2.51    8.86
  -6 -10 -10   83.49   16.36
  -6 -10 -10  100.92   18.42
  -6 -10  -9  520.81   39.68
  -6 -10  -9  508.39   40.99
  -6 -10  -8  314.60   30.99
  -6 -10  -8  297.25   29.04
  -6 -10  -7  160.16   20.85
  -6 -10  -7  191.96   23.43
  -6 -10  -6   21.43    9.80
  -6 -10  -6   25.10    9.74
  -6 -10  -5  335.57   29.71
  -6 -10  -5  325.80   30.17
  -6 -10  -5  262.89   27.67
  -6 -10  -4  475.48   37.96
  -6 -10  -4  447.97   37.36
  -6 -10  -4  466.26   38.43
  -6 -10  -3  208.85   24.52
  -6 -10  -3  208.30   23.63
  -6 -10  -3  204.67   23.96
  -6 -10  -3  223.20   24.73
  -6 -10  -2    8.06    8.09
  -6 -10  -2   -2.12   10.61
  -6 -10  -2   17.44    9.66
  -6 -10  -1   45.78   14.76
  -6 -10  -1   45.84   13.10
  -6 -10  -1   22.76   10.11
  -6 -10   0  307.31   30.38
  -6 -10   0  338.36   33.80
  -6 -10   0  300.31   32.32
  -6 -10   1   86.97   15.88
  -6 -10   1   55.13   14.61
  -6 -10   1   70.38   17.40
  -6 -10   2   10.40   10.12
  -6 -10   2    2.76   12.48
  -6 -10   2   -2.23    7.60
  -6 -10   3    4.55    8.86
  -6  -9 -13  215.22   28.28
  -6  -9 -13  299.42   31.29
  -6  -9 -13  219.85   28.60
  -6  -9 -13  342.17   32.65
  -6  -9 -12  112.31   18.64
  -6  -9 -12   53.78   15.00
  -6  -9 -12   84.34   16.67
  -6  -9 -12   69.66   16.71
  -6  -9 -11   72.71   15.82
  -6  -9 -11   67.72   15.03
  -6  -9 -10   68.47   15.53
  -6  -9 -10  103.69   16.73
  -6  -9  -9  191.92   24.18
  -6  -9  -9  244.96   25.98
  -6  -9  -8  595.39   42.54
  -6  -9  -8  489.33   43.80
  -6  -9  -8  607.11   44.63
  -6  -9  -7   49.91   12.81
  -6  -9  -7   43.99   12.60
  -6  -9  -6   21.54    9.46
  -6  -9  -6   12.44    8.92
  -6  -9  -5  338.19   29.41
  -6  -9  -5  330.54   31.31
  -6  -9  -5  394.32   31.77
  -6  -9  -4  632.50   46.72
  -6  -9  -4  663.47   46.57
  -6  -9  -4  628.31   45.47
  -6  -9  -3  273.30   26.21
  -6  -9  -3  269.78   25.72
  -6  -9  -3  256.35   25.71
  -6  -9  -3  208.60   23.46
  -6  -9  -2   27.10   11.43
  -6  -9  -2   13.10   10.01
  -6  -9  -2   -3.98    9.21
  -6  -9  -1   82.23   16.44
  -6  -9  -1   69.42   15.16
  -6  -9  -1   67.45   13.72
  -6  -9   0  270.27   27.73
  -6  -9   0  265.73   29.08
  -6  -9   0  296.08   29.47
  -6  -9   1  271.79   29.32
  -6  -9   1  257.78   29.95
  -6  -9   1  259.45   27.00
  -6  -9   2   87.50   16.58
  -6  -9   2  139.92   21.63
  -6  -9   2  103.58   19.65
  -6  -9   3    8.82    8.84
  -6  -9   3   -2.55   10.51
  -6  -9   3   10.93   13.16
  -6  -9   4   47.37   14.44
  -6  -9   4   40.79   12.30
  -6  -8 -13   88.11   17.73
  -6  -8 -13   63.08   14.80
  -6  -8 -13   88.61   17.65
  -6  -8 -12  109.02   18.53
  -6  -8 -12   80.12   16.95
  -6  -8 -12   99.35   18.48
  -6  -8 -12   70.74   16.05
  -6  -8 -11   -2.39    7.49
  -6  -8 -11    4.64    7.27
  -6  -8 -11    6.18   10.48
  -6  -8 -11   11.71    8.85
  -6  -8 -10  139.75   20.60
  -6  -8 -10  140.73   19.02
  -6  -8  -9  412.31   37.46
  -6  -8  -9  425.83   35.74
  -6  -8  -8  599.85   47.45
  -6  -8  -8  685.62   47.65
  -6  -8  -7  176.34   21.59
  -6  -8  -7  144.61   18.85
  -6  -8  -7  165.44   20.36
  -6  -8  -6   62.63   12.46
  -6  -8  -6   52.56   11.83
  -6  -8  -5  296.35   27.77
  -6  -8  -5  292.23   26.42
  -6  -8  -4  810.30   51.96
  -6  -8  -4  859.52   53.71
  -6  -8  -3  130.35   18.04
  -6  -8  -3  152.50   19.03
  -6  -8  -3  193.73   20.19
  -6  -8  -3  168.68   19.01
  -6  -8  -2  101.08   15.88
  -6  -8  -2   85.94   14.19
  -6  -8  -2   82.44   14.83
  -6  -8  -1   90.94   15.24
  -6  -8  -1   97.03   16.36
  -6  -8  -1  100.72   18.12
  -6  -8   0  414.92   34.62
  -6  -8   0  411.87   36.45
  -6  -8   0  432.30   37.34
  -6  -8   1  440.35   38.79
  -6  -8   1  457.17   38.74
  -6  -8   2  282.26   30.13
  -6  -8   2  237.81   28.22
  -6  -8   3   14.84   11.04
  -6  -8   3   46.45   13.64
  -6  -8   4   81.67   18.38
  -6  -8   4   38.33   14.53
  -6  -8   5  188.00   26.12
  -6  -7 -13  317.73   32.64
  -6  -7 -13  241.87   29.32
  -6  -7 -13  296.13   31.60
  -6  -7 -12  111.46   20.91
  -6  -7 -12  145.93   21.84
  -6  -7 -12  143.71   21.63
  -6  -7 -11   98.72   17.44
  -6  -7 -11   75.11   15.35
  -6  -7 -11   89.23   16.59
  -6  -7 -10    8.69    8.21
  -6  -7 -10   -4.30    7.60
  -6  -7 -10    2.22    8.11
  -6  -7 -10   -5.57   10.52
  -6  -7  -9  194.38   23.56
  -6  -7  -9  217.68   23.19
  -6  -7  -9  169.99   22.66
  -6  -7  -9  249.63   25.43
  -6  -7  -8   95.35   14.94
  -6  -7  -8   63.61   13.43
  -6  -7  -7   58.75   12.96
  -6  -7  -7   76.93   13.91
  -6  -7  -6  298.99   25.78
  -6  -7  -6  280.39   26.96
  -6  -7  -6  302.67   26.88
  -6  -7  -5  433.37   33.24
  -6  -7  -5  464.50   34.97
  -6  -7  -4 1087.72   62.34
  -6  -7  -4 1123.44   63.90
  -6  -7  -3 1091.22   63.95
  -6  -7  -3  904.81   61.26
  -6  -7  -3 1054.28   62.80
  -6  -7  -3  950.27   61.26
  -6  -7  -2   61.20   11.95
  -6  -7  -2   59.30   13.04
  -6  -7  -2   58.73   12.49
  -6  -7  -1    7.39    7.21
  -6  -7  -1   16.37    8.76
  -6  -7  -1    8.99    8.84
  -6  -7   0  315.57   29.88
  -6  -7   0  347.07   32.65
  -6  -7   1  743.20   53.65
  -6  -7   1  718.62   53.21
  -6  -7   2  182.80   23.23
  -6  -7   2  181.05   23.54
  -6  -7   3   38.26   12.53
  -6  -7   3   44.08   13.44
  -6  -7   4  101.17   18.93
  -6  -7   4  114.25   19.78
  -6  -7   5  149.72   23.62
  -6  -7   5  169.59   24.09
  -6  -6 -13  219.98   27.01
  -6  -6 -13  170.48   24.04
  -6  -6 -13  202.82   25.92
  -6  -6 -12  161.99   23.00
  -6  -6 -12  149.08   21.34
  -6  -6 -12  125.93   20.33
  -6  -6 -11  133.04   20.09
  -6  -6 -11   95.57   18.61
  -6  -6 -10  152.42   19.97
  -6  -6 -10  118.06   19.27
  -6  -6 -10  129.35   18.87
  -6  -6  -9  152.93   21.21
  -6  -6  -9  169.54   21.40
  -6  -6  -9  150.23   19.96
  -6  -6  -8  514.89   36.40
  -6  -6  -8  479.24   37.65
  -6  -6  -8  409.90   36.49
  -6  -6  -8  431.67   36.32
  -6  -6  -7  554.08   42.08
  -6  -6  -7  545.40   40.40
  -6  -6  -7  615.30   43.00
  -6  -6  -7  580.10   42.37
  -6  -6  -6    5.06    6.95
  -6  -6  -6    4.53    7.95
  -6  -6  -5   12.85    7.61
  -6  -6  -5   10.33    7.91
  -6  -6  -5   12.73    7.24
  -6  -6  -4  353.34   29.33
  -6  -6  -4  435.19   31.76
  -6  -6  -4  430.86   30.87
  -6  -6  -3  254.66   23.30
  -6  -6  -3  275.17   24.12
  -6  -6  -3  237.24   22.23
  -6  -6  -3  282.21   23.34
  -6  -6  -2  115.05   14.99
  -6  -6  -2  116.16   15.63
  -6  -6  -1  140.09   18.00
  -6  -6  -1  132.00   17.01
  -6  -6   0  826.88   55.29
  -6  -6   0  790.49   55.18
  -6  -6   1  652.58   47.47
  -6  -6   1  598.46   46.43
  -6  -6   2  805.53   58.23
  -6  -6   2  853.80   58.85
  -6  -6   3    9.27    9.05
  -6  -6   3   23.36   11.90
  -6  -6   4   17.29   11.01
  -6  -6   4   34.20   11.83
  -6  -6   5  167.21   24.35
  -6  -6   5  222.13   27.55
  -6  -6   6  155.67   23.45
  -6  -6   6  150.99   22.73
  -6  -5 -13  145.27   22.80
  -6  -5 -13  165.19   22.94
  -6  -5 -13  185.04   25.47
  -6  -5 -12   93.00   17.73
  -6  -5 -12  113.43   18.70
  -6  -5 -12  103.37   18.06
  -6  -5 -11  132.56   19.44
  -6  -5 -11  102.11   17.61
  -6  -5 -11   84.41   17.56
  -6  -5 -10   41.45   12.03
  -6  -5 -10   50.74   13.12
  -6  -5 -10   39.59   12.63
  -6  -5  -9  270.32   28.01
  -6  -5  -9  319.39   29.53
  -6  -5  -9  334.13   30.80
  -6  -5  -8  449.38   35.24
  -6  -5  -8  386.24   34.48
  -6  -5  -8  432.33   34.87
  -6  -5  -7  744.13   50.05
  -6  -5  -7  731.78   50.46
  -6  -5  -7  719.57   49.58
  -6  -5  -6  100.74   14.72
  -6  -5  -6   94.38   14.15
  -6  -5  -6  122.71   15.59
  -6  -5  -6  102.34   14.84
  -6  -5  -5    3.95    5.71
  -6  -5  -5    4.17    6.58
  -6  -5  -5   15.75    7.41
  -6  -5  -5    2.95    6.24
  -6  -5  -4  798.91   49.66
  -6  -5  -4  866.66   52.17
  -6  -5  -4  767.34   50.36
  -6  -5  -3  449.35   28.41
  -6  -5  -3  494.12   30.11
  -6  -5  -3  414.20   28.04
  -6  -5  -2  485.18   38.43
  -6  -5  -2  584.91   38.80
  -6  -5  -1   13.31    7.58
  -6  -5  -1   20.35    8.66
  -6  -5   0  226.81   24.25
  -6  -5   0  194.50   21.89
  -6  -5   1  206.96   23.11
  -6  -5   1  185.06   25.12
  -6  -5   2  261.52   26.78
  -6  -5   2  259.34   27.47
  -6  -5   3   72.52   16.34
  -6  -5   3   59.55   14.19
  -6  -5   4  161.00   23.47
  -6  -5   4  156.04   22.14
  -6  -5   5  352.77   35.25
  -6  -5   5  379.76   37.17
  -6  -5   6  405.53   38.92
  -6  -5   6  404.05   39.33
  -6  -5   7   92.87   19.67
  -6  -4 -12  225.21   26.87
  -6  -4 -12  235.34   26.80
  -6  -4 -12  205.28   26.43
  -6  -4 -11   86.76   16.53
  -6  -4 -11  108.10   17.94
  -6  -4 -11   99.51   17.26
  -6  -4 -10   12.69    8.56
  -6  -4 -10   35.17   11.29
  -6  -4 -10   35.00   11.93
  -6  -4  -9  203.26   22.64
  -6  -4  -9  152.66   20.74
  -6  -4  -9  163.08   20.96
  -6  -4  -8  397.41   33.66
  -6  -4  -8  402.17   34.01
  -6  -4  -8  408.90   33.78
  -6  -4  -7  588.89   42.83
  -6  -4  -7  613.78   43.59
  -6  -4  -7  604.07   43.59
  -6  -4  -6  253.22   23.54
  -6  -4  -6  251.84   23.69
  -6  -4  -6  225.69   22.65
  -6  -4  -5  103.86   13.81
  -6  -4  -5   68.33   11.79
  -6  -4  -5   87.40   12.90
  -6  -4  -4  487.20   34.11
  -6  -4  -4  469.88   33.79
  -6  -4  -4  507.02   34.59
  -6  -4  -3  823.36   49.06
  -6  -4  -3  815.67   47.79
  -6  -4  -3 1012.96   51.43
  -6  -4  -3  960.18   52.54
  -6  -4  -3  972.86   50.00
  -6  -4  -3  898.10   48.95
  -6  -4  -3  991.57   50.35
  -6  -4  -3  953.15   49.60
  -6  -4  -2  346.28   25.82
  -6  -4  -2  361.02   27.94
  -6  -4  -2  305.88   26.18
  -6  -4  -1   14.90    7.25
  -6  -4  -1   29.95    8.07
  -6  -4   0  577.93   41.13
  -6  -4   0  543.47   40.50
  -6  -4   1  148.74   18.69
  -6  -4   2  422.82   35.56
  -6  -4   3   13.13   10.35
  -6  -4   3   12.62    7.97
  -6  -4   4  101.76   17.55
  -6  -4   4   82.13   17.62
  -6  -4   5  156.53   22.17
  -6  -4   5  149.04   22.43
  -6  -4   6  224.60   28.81
  -6  -4   6  236.76   28.30
  -6  -4   7   56.59   14.97
  -6  -4   7   76.84   17.81
  -6  -3 -12  177.49   23.77
  -6  -3 -12  165.39   23.54
  -6  -3 -12  173.96   23.96
  -6  -3 -11  196.20   24.06
  -6  -3 -11  199.06   25.06
  -6  -3 -11  172.17   23.18
  -6  -3 -10   17.14    9.54
  -6  -3 -10   31.24   11.39
  -6  -3 -10   14.49    9.22
  -6  -3  -9   85.85   15.86
  -6  -3  -9  105.94   16.79
  -6  -3  -9   84.06   15.23
  -6  -3  -8  498.34   37.49
  -6  -3  -8  461.05   38.06
  -6  -3  -8  466.65   37.47
  -6  -3  -7  512.98   37.51
  -6  -3  -7  489.93   37.99
  -6  -3  -7  481.81   37.74
  -6  -3  -6  202.66   21.44
  -6  -3  -6  227.24   21.93
  -6  -3  -6  209.75   21.14
  -6  -3  -5   42.72    9.13
  -6  -3  -5   39.06    9.08
  -6  -3  -5   35.91    9.24
  -6  -3  -4  624.97   46.27
  -6  -3  -4  748.50   45.57
  -6  -3  -4  743.64   46.37
  -6  -3  -4  731.42   45.93
  -6  -3  -3  648.64   40.51
  -6  -3  -3  608.05   42.07
  -6  -3  -3  654.26   40.71
  -6  -3  -3  600.34   40.38
  -6  -3  -3  687.84   44.78
  -6  -3  -2  220.50   20.27
  -6  -3  -2  210.43   21.45
  -6  -3  -1    2.50    5.14
  -6  -3  -1   -1.62    5.29
  -6  -3   0  291.27   26.93
  -6  -3   1  783.58   53.44
  -6  -3   1  807.67   54.34
  -6  -3   2  423.77   35.62
  -6  -3   2  451.88   36.67
  -6  -3   3  125.35   20.65
  -6  -3   3  117.70   17.95
  -6  -3   4    2.18    7.43
  -6  -3   5  267.89   28.88
  -6  -3   6  234.11   27.35
  -6  -3   6  217.58   28.03
  -6  -3   7  183.29   24.91
  -6  -3   7  204.45   26.54
  -6  -2 -12  120.34   20.14
  -6  -2 -11  145.72   20.86
  -6  -2 -11  136.57   21.05
  -6  -2 -11  121.35   19.63
  -6  -2 -10    6.81    7.43
  -6  -2 -10    4.37    7.73
  -6  -2 -10    4.24    8.97
  -6  -2  -9   44.64   12.36
  -6  -2  -9   51.19   12.68
  -6  -2  -9   27.17   10.38
  -6  -2  -8  592.75   44.08
  -6  -2  -8  540.23   43.33
  -6  -2  -8  603.12   43.23
  -6  -2  -7  440.35   33.47
  -6  -2  -7  368.38   32.95
  -6  -2  -7  444.12   34.84
  -6  -2  -6  182.17   18.46
  -6  -2  -6  138.94   17.38
  -6  -2  -6  159.26   18.85
  -6  -2  -5   21.30    7.06
  -6  -2  -5   22.94    7.88
  -6  -2  -5   23.63    8.32
  -6  -2  -4  529.03   34.44
  -6  -2  -4  514.23   35.74
  -6  -2  -4  461.50   36.99
  -6  -2  -4  493.23   35.16
  -6  -2  -3  620.86   39.73
  -6  -2  -3  594.22   42.06
  -6  -2  -3  621.41   40.10
  -6  -2  -2  348.24   29.39
  -6  -2  -2  353.22   25.26
  -6  -2  -2  367.98   28.52
  -6  -2  -2  318.73   24.22
  -6  -2  -1   27.44   10.29
  -6  -2  -1   18.17    7.06
  -6  -2   0  247.07   21.99
  -6  -2   0  198.93   22.40
  -6  -2   1  429.46   32.98
  -6  -2   1  461.80   36.95
  -6  -2   2  701.82   51.14
  -6  -2   3  345.61   30.72
  -6  -2   3  289.88   30.52
  -6  -2   4   17.05    9.47
  -6  -2   4   11.93   12.57
  -6  -2   5  181.32   22.91
  -6  -2   5  181.18   25.60
  -6  -2   6  526.20   45.93
  -6  -2   6  453.94   40.93
  -6  -2   7  178.80   23.88
  -6  -1 -11  320.62   31.98
  -6  -1 -11  320.36   32.31
  -6  -1 -11  271.02   30.96
  -6  -1 -10   16.23   10.06
  -6  -1 -10    4.48    7.66
  -6  -1  -9   28.30   11.65
  -6  -1  -9    4.21    8.22
  -6  -1  -9   20.04   11.84
  -6  -1  -8  385.55   33.80
  -6  -1  -8  373.47   32.75
  -6  -1  -8  380.78   34.09
  -6  -1  -7  251.12   26.53
  -6  -1  -7  329.01   29.11
  -6  -1  -7  311.67   27.59
  -6  -1  -6   65.57   11.51
  -6  -1  -6   49.45   11.24
  -6  -1  -6   78.60   14.24
  -6  -1  -6   36.93   11.79
  -6  -1  -5    1.54    5.65
  -6  -1  -5    1.49    5.28
  -6  -1  -5    3.84    5.93
  -6  -1  -5    5.45    6.19
  -6  -1  -4  533.49   41.64
  -6  -1  -4  556.54   39.13
  -6  -1  -4  642.03   38.67
  -6  -1  -4  555.87   39.34
  -6  -1  -3  825.38   51.17
  -6  -1  -3  790.35   54.12
  -6  -1  -3  870.26   51.90
  -6  -1  -2  425.77   28.66
  -6  -1  -2  406.28   27.90
  -6  -1  -2  371.19   32.92
  -6  -1  -2  360.97   31.20
  -6  -1  -1  427.91   35.21
  -6  -1  -1  442.52   33.94
  -6  -1   0   49.62   11.80
  -6  -1   0   50.31   11.95
  -6  -1   1  452.23   38.85
  -6  -1   1  529.71   38.02
  -6  -1   2  682.80   46.82
  -6  -1   2  618.79   48.49
  -6  -1   3  283.07   30.23
  -6  -1   4    7.50   10.82
  -6  -1   5  195.64   26.52
  -6  -1   5  147.78   21.26
  -6  -1   6  383.84   38.14
  -6  -1   6  329.15   33.52
  -6  -1   7   79.31   16.42
  -6  -1   7   95.33   22.19
  -6  -1   8   18.66   16.90
  -6   0 -10   13.86    9.28
  -6   0 -10    2.39    8.76
  -6   0  -9   54.56   13.60
  -6   0  -9  101.51   17.36
  -6   0  -9   86.66   15.69
  -6   0  -9   43.66   13.57
  -6   0  -8  678.97   47.02
  -6   0  -8  636.99   47.40
  -6   0  -8  609.61   47.28
  -6   0  -8  555.83   47.67
  -6   0  -7  557.39   39.50
  -6   0  -7  491.20   39.74
  -6   0  -7  543.19   40.51
  -6   0  -7  411.49   38.73
  -6   0  -6  707.74   47.94
  -6   0  -6  614.69   45.36
  -6   0  -6  691.19   45.35
  -6   0  -5   17.33   10.72
  -6   0  -5   39.23   10.47
  -6   0  -5   37.95   12.41
  -6   0  -5   34.90   11.79
  -6   0  -4   39.94    9.59
  -6   0  -4   35.39    9.19
  -6   0  -4   29.30   10.66
  -6   0  -3  256.17   26.52
  -6   0  -3  298.36   24.56
  -6   0  -3  332.22   25.56
  -6   0  -2 1424.93   79.79
  -6   0  -2 1440.92   84.92
  -6   0  -2 1435.72   79.43
  -6   0  -2 1267.84   84.71
  -6   0  -1    1.94    8.00
  -6   0  -1    3.44    7.09
  -6   0   0  141.95   18.03
  -6   0   0  110.63   18.10
  -6   0   1  767.64   50.55
  -6   0   1  640.55   50.32
  -6   0   2  818.89   57.18
  -6   0   2  895.16   61.20
  -6   0   3  155.65   21.21
  -6   0   3  204.90   24.79
  -6   0   4   53.68   14.68
  -6   0   4   44.04   13.83
  -6   0   5  167.19   24.86
  -6   0   6  232.32   30.85
  -6   0   7  166.00   26.69
  -6   0   7  157.72   22.77
  -6   0   8   12.89   14.29
  -6   0   9   26.64   18.92
  -6   1  -9   51.71   13.65
  -6   1  -9   20.43   11.65
  -6   1  -9   46.90   14.60
  -6   1  -9   16.46   12.66
  -6   1  -8  138.96   20.70
  -6   1  -8  181.54   23.02
  -6   1  -8  137.01   20.64
  -6   1  -8  190.01   22.37
  -6   1  -7  184.18   24.12
  -6   1  -7  206.30   23.57
  -6   1  -7  219.49   24.07
  -6   1  -7  199.34   22.27
  -6   1  -6  273.45   29.32
  -6   1  -6  324.06   29.59
  -6   1  -6  321.73   28.14
  -6   1  -6  361.20   31.02
  -6   1  -5   56.07   14.38
  -6   1  -5  110.47   16.91
  -6   1  -4  264.30   27.55
  -6   1  -4  259.25   25.15
  -6   1  -4  305.18   26.22
  -6   1  -3  742.40   51.42
  -6   1  -3  684.87   51.73
  -6   1  -3  713.50   47.20
  -6   1  -3  734.18   47.72
  -6   1  -2 1530.83   86.08
  -6   1  -2 1497.00   92.53
  -6   1  -2 1485.05   90.81
  -6   1  -2 1527.02   86.44
  -6   1  -1  634.85   49.25
  -6   1  -1  716.72   49.47
  -6   1   0   29.76   12.21
  -6   1   0   53.25   13.10
  -6   1   1  132.19   19.58
  -6   1   1  128.55   18.10
  -6   1   2  380.78   33.91
  -6   1   2  333.39   33.78
  -6   1   3  142.97   21.30
  -6   1   3  126.93   20.08
  -6   1   4   -2.67    9.76
  -6   1   4   -2.33    9.61
  -6   1   5  173.33   24.07
  -6   1   5  101.70   20.66
  -6   1   6  184.07   27.55
  -6   1   7  333.55   37.92
  -6   1   8   26.44   16.57
  -6   1   9   10.31   18.08
  -6   2  -9   68.53   15.15
  -6   2  -8   74.48   15.73
  -6   2  -8   38.82   12.45
  -6   2  -8   42.66   13.13
  -6   2  -8   50.72   13.52
  -6   2  -7  308.17   31.22
  -6   2  -7  369.38   32.52
  -6   2  -7  403.87   32.07
  -6   2  -6  199.54   22.71
  -6   2  -6  210.59   23.78
  -6   2  -5  124.92   21.56
  -6   2  -5  134.95   21.75
  -6   2  -5  150.05   19.74
  -6   2  -4   94.03   14.99
  -6   2  -4   67.80   16.50
  -6   2  -4   59.07   15.22
  -6   2  -3  413.36   36.16
  -6   2  -3  456.82   33.78
  -6   2  -3  405.76   32.78
  -6   2  -3  380.96   36.38
  -6   2  -2  659.10   42.35
  -6   2  -2  640.04   46.74
  -6   2  -2  586.03   41.55
  -6   2  -2  539.75   45.62
  -6   2  -1  132.70   18.99
  -6   2  -1  110.19   17.29
  -6   2   0   35.33   11.72
  -6   2   0   31.30   10.47
  -6   2   1  490.74   40.55
  -6   2   1  481.77   41.27
  -6   2   2  787.90   60.51
  -6   2   2  932.73   61.74
  -6   2   3  480.49   43.56
  -6   2   3  554.64   45.47
  -6   2   4  103.26   20.28
  -6   2   4  128.72   22.07
  -6   2   5   23.67   12.19
  -6   2   5    5.80   11.95
  -6   2   6   57.66   17.11
  -6   2   6   97.81   20.53
  -6   2   7  185.51   28.05
  -6   2   8   53.74   18.68
  -6   2   9    6.98   14.75
  -6   3  -7   58.36   14.64
  -6   3  -7  107.70   17.52
  -6   3  -6  360.35   36.00
  -6   3  -6  367.75   34.69
  -6   3  -5  126.49   18.52
  -6   3  -5   80.40   16.84
  -6   3  -5  129.40   18.69
  -6   3  -4  120.36   19.64
  -6   3  -4   92.16   18.01
  -6   3  -3  149.50   18.89
  -6   3  -3  153.88   21.27
  -6   3  -3  145.56   21.51
  -6   3  -3  141.48   18.37
  -6   3  -2  551.89   44.05
  -6   3  -2  504.24   43.77
  -6   3  -2  492.99   38.17
  -6   3  -2  581.77   40.44
  -6   3  -1   93.56   17.15
  -6   3  -1   88.02   16.58
  -6   3   0   38.39   12.91
  -6   3   0   32.74   11.61
  -6   3   1  273.87   30.24
  -6   3   1  288.90   30.33
  -6   3   2  604.03   47.98
  -6   3   2  564.64   47.19
  -6   3   3  392.93   37.94
  -6   3   3  393.73   38.32
  -6   3   4  170.45   23.80
  -6   3   4  120.99   22.55
  -6   3   5   64.97   16.61
  -6   3   5   73.00   17.91
  -6   3   6  154.59   25.51
  -6   3   6  142.73   23.84
  -6   3   7  537.36   48.43
  -6   3   7  450.06   46.81
  -6   3   8  292.40   37.21
  -6   3   9   31.74   17.05
  -6   4  -6   83.04   16.85
  -6   4  -6  117.96   19.39
  -6   4  -5   73.53   15.43
  -6   4  -5   82.68   15.39
  -6   4  -5   57.93   14.66
  -6   4  -4   66.87   14.95
  -6   4  -4   81.62   18.18
  -6   4  -3  306.82   28.56
  -6   4  -3  319.50   29.89
  -6   4  -3  279.50   29.97
  -6   4  -3  257.38   29.82
  -6   4  -2  287.24   29.51
  -6   4  -2  266.64   25.63
  -6   4  -2  247.88   24.66
  -6   4  -1  184.58   25.18
  -6   4  -1  223.66   26.21
  -6   4   0   12.15    8.90
  -6   4   0    4.88    7.29
  -6   4   1  136.00   21.36
  -6   4   1  114.51   19.50
  -6   4   2  366.20   36.04
  -6   4   2  370.46   36.94
  -6   4   3  281.70   32.27
  -6   4   3  336.72   35.24
  -6   4   4  228.43   29.70
  -6   4   4  251.27   30.90
  -6   4   5   32.97   13.95
  -6   4   5   29.74   16.21
  -6   4   6  132.31   24.17
  -6   4   6  109.85   22.38
  -6   4   7  329.27   39.63
  -6   4   7  384.29   41.01
  -6   4   8  210.09   32.48
  -6   4   8  297.38   36.16
  -6   5  -5   50.04   13.60
  -6   5  -5   40.88   13.81
  -6   5  -4   34.25   13.49
  -6   5  -4   62.65   15.03
  -6   5  -3  162.51   23.80
  -6   5  -3  208.44   24.13
  -6   5  -3  237.35   26.38
  -6   5  -2  240.98   27.86
  -6   5  -2  274.96   27.82
  -6   5  -2  234.94   26.11
  -6   5  -1  164.47   23.60
  -6   5  -1  159.09   22.98
  -6   5   0   60.49   14.61
  -6   5   0   65.16   15.09
  -6   5   1   86.04   17.18
  -6   5   1   84.89   17.52
  -6   5   2  261.71   30.23
  -6   5   2  248.53   31.20
  -6   5   3  429.90   42.22
  -6   5   3  398.09   39.70
  -6   5   4  286.87   33.94
  -6   5   4  252.54   31.55
  -6   5   5    6.26   10.66
  -6   5   5    3.03   11.46
  -6   5   6  106.60   22.55
  -6   5   6   94.84   21.69
  -6   5   7  101.64   21.78
  -6   5   7  141.70   27.21
  -6   5   8  215.06   31.21
  -6   5   8  152.94   28.63
  -6   6  -3  108.85   19.20
  -6   6  -3  110.99   19.56
  -6   6  -2  130.32   20.89
  -6   6  -2  154.32   21.44
  -6   6  -1  178.54   24.23
  -6   6   0   80.72   17.10
  -6   6   1    8.64   10.54
  -6   6   2  145.17   23.84
  -6   6   3  313.66   35.55
  -6   6   3  407.73   40.47
  -6   6   4   96.69   19.83
  -6   6   4   75.87   19.59
  -6   6   5    6.10   10.77
  -6   6   5   -3.27   12.35
  -6   6   6   75.95   21.16
  -6   6   6  104.26   23.32
  -6   6   7  260.18   35.58
  -6   6   7  219.00   31.39
  -6   7   0   95.88   19.59
  -6   7   1   12.06   11.41
  -6   7   2   93.36   21.29
  -6   7   3  130.77   24.02
  -6   7   4   55.85   17.21
  -6   7   5    3.38   12.37
  -5 -13 -10  146.97   23.34
  -5 -13 -10  160.99   23.67
  -5 -13  -9  -19.75    9.63
  -5 -13  -9    7.37   13.12
  -5 -13  -8   55.66   15.36
  -5 -13  -8   84.71   17.58
  -5 -13  -7  255.56   29.22
  -5 -13  -7  283.27   30.41
  -5 -13  -6  331.46   33.86
  -5 -13  -6  349.19   34.26
  -5 -13  -6  387.25   36.96
  -5 -13  -5   -2.46   11.85
  -5 -13  -5   -4.63    8.46
  -5 -13  -5   -2.35    9.14
  -5 -13  -4    2.29    7.80
  -5 -13  -4    4.66    8.81
  -5 -13  -4   -2.55   11.80
  -5 -13  -3  599.86   48.09
  -5 -13  -3  518.92   43.80
  -5 -13  -3  513.88   46.70
  -5 -13  -3  552.16   45.22
  -5 -13  -2  355.83   34.51
  -5 -12 -12   90.23   18.05
  -5 -12 -12   64.66   15.51
  -5 -12 -11  348.38   33.98
  -5 -12 -11  362.88   33.74
  -5 -12 -10  212.39   27.07
  -5 -12 -10  303.87   31.15
  -5 -12  -9   19.10   10.60
  -5 -12  -9    6.96   11.60
  -5 -12  -8   20.54   11.45
  -5 -12  -8   21.00   11.06
  -5 -12  -7  391.05   35.41
  -5 -12  -7  367.76   35.23
  -5 -12  -6  278.45   28.71
  -5 -12  -6  279.63   29.11
  -5 -12  -6  249.39   28.05
  -5 -12  -5   44.33   13.60
  -5 -12  -5   70.32   16.33
  -5 -12  -5   81.85   16.08
  -5 -12  -4   -6.61    9.08
  -5 -12  -4  -23.64   13.59
  -5 -12  -4    2.19    7.76
  -5 -12  -3  130.30   22.55
  -5 -12  -3  129.64   19.44
  -5 -12  -3  140.86   20.44
  -5 -12  -3  185.95   24.19
  -5 -12  -2  242.75   28.08
  -5 -12  -2  290.38   29.10
  -5 -12  -2  270.02   31.11
  -5 -12  -2  287.69   31.33
  -5 -12  -1  108.51   17.47
  -5 -12  -1   80.64   15.64
  -5 -12  -1   94.60   20.07
  -5 -12  -1   89.25   19.11
  -5 -11 -13    7.57    7.91
  -5 -11 -12   92.64   18.22
  -5 -11 -12   62.66   15.97
  -5 -11 -11  387.43   34.85
  -5 -11 -11  361.64   34.01
  -5 -11 -10  385.45   34.87
  -5 -11 -10  345.32   34.43
  -5 -11 -10  307.23   32.89
  -5 -11  -9   54.97   13.71
  -5 -11  -9   38.97   13.45
  -5 -11  -8    2.23    8.15
  -5 -11  -8    8.49    9.82
  -5 -11  -7  152.06   21.12
  -5 -11  -7  169.66   21.77
  -5 -11  -6  380.78   35.81
  -5 -11  -6  511.39   39.37
  -5 -11  -6  432.67   36.65
  -5 -11  -5  111.02   17.27
  -5 -11  -5   80.21   16.07
  -5 -11  -5   86.35   16.30
  -5 -11  -4   18.67    8.99
  -5 -11  -4   10.26    8.90
  -5 -11  -4    2.15   10.95
  -5 -11  -3   93.33   17.95
  -5 -11  -3   76.17   15.25
  -5 -11  -3   71.83   16.80
  -5 -11  -3   95.86   16.16
  -5 -11  -2  174.23   21.88
  -5 -11  -2  176.75   22.06
  -5 -11  -2  180.18   24.02
  -5 -11  -2  173.06   23.12
  -5 -11  -1  321.84   33.15
  -5 -11  -1  253.14   30.61
  -5 -11  -1  303.37   29.59
  -5 -11   0   15.54   12.24
  -5 -11   0    7.58   12.17
  -5 -11   0    6.35    9.17
  -5 -11   1   35.53   15.94
  -5 -11   1   10.41   11.82
  -5 -10 -13    9.87   10.16
  -5 -10 -13    2.40   10.65
  -5 -10 -12  105.20   19.55
  -5 -10 -12   51.06   14.57
  -5 -10 -11  333.78   31.33
  -5 -10 -11  167.93   23.88
  -5 -10 -10  373.32   36.82
  -5 -10 -10  493.78   39.91
  -5 -10 -10  468.67   38.27
  -5 -10  -9  130.65   19.17
  -5 -10  -9   91.88   17.52
  -5 -10  -8    5.87    9.27
  -5 -10  -8  -21.08   10.37
  -5 -10  -7  139.31   19.77
  -5 -10  -7  169.64   21.03
  -5 -10  -6  376.35   33.23
  -5 -10  -6  316.20   30.01
  -5 -10  -6  388.64   32.64
  -5 -10  -5  202.17   23.23
  -5 -10  -5  231.04   24.39
  -5 -10  -5  179.74   21.83
  -5 -10  -4   51.07   11.63
  -5 -10  -4   73.21   14.59
  -5 -10  -4   48.56   12.20
  -5 -10  -3  103.12   17.17
  -5 -10  -3  142.67   18.94
  -5 -10  -3  143.11   20.15
  -5 -10  -3  107.36   16.96
  -5 -10  -2  274.47   27.69
  -5 -10  -2  287.26   29.83
  -5 -10  -2  279.64   28.09
  -5 -10  -2  335.06   31.21
  -5 -10  -1  271.80   28.95
  -5 -10  -1  239.83   25.96
  -5 -10  -1  273.11   28.49
  -5 -10   0   71.77   14.46
  -5 -10   0  109.16   18.31
  -5 -10   0   83.54   18.24
  -5 -10   1   20.42    9.97
  -5 -10   1   43.21   15.83
  -5 -10   1   50.84   14.19
  -5 -10   2  185.89   24.79
  -5 -10   2  156.73   21.27
  -5 -10   2  190.81   26.93
  -5 -10   3  282.16   33.62
  -5 -10   3  279.25   31.87
  -5  -9 -14  121.26   20.27
  -5  -9 -14   86.73   17.61
  -5  -9 -13    4.60   11.29
  -5  -9 -13   -7.33    9.23
  -5  -9 -13   -2.42    9.71
  -5  -9 -13   -2.52    9.83
  -5  -9 -12   25.94   12.31
  -5  -9 -12   44.65   14.70
  -5  -9 -11  110.30   19.25
  -5  -9 -11  134.57   20.15
  -5  -9 -10  260.19   30.08
  -5  -9 -10  333.47   30.93
  -5  -9  -9   74.23   15.55
  -5  -9  -9   82.19   15.20
  -5  -9  -9   91.12   16.29
  -5  -9  -8    3.96    7.73
  -5  -9  -8   17.86    9.25
  -5  -9  -7  234.35   24.66
  -5  -9  -7  202.01   22.48
  -5  -9  -6  655.30   46.49
  -5  -9  -6  612.34   44.96
  -5  -9  -5  624.59   46.16
  -5  -9  -5  644.81   45.02
  -5  -9  -5  676.75   46.47
  -5  -9  -4    8.50    8.20
  -5  -9  -4    6.90    6.53
  -5  -9  -4    9.01    7.81
  -5  -9  -3   28.93    9.66
  -5  -9  -3   34.21   11.54
  -5  -9  -3   50.33   11.48
  -5  -9  -3   27.09   11.87
  -5  -9  -2  608.15   45.01
  -5  -9  -2  549.17   43.07
  -5  -9  -2  677.22   46.01
  -5  -9  -1  534.93   42.03
  -5  -9  -1  606.43   44.77
  -5  -9  -1  601.72   44.94
  -5  -9   0  174.41   21.75
  -5  -9   0  176.25   22.67
  -5  -9   0  117.30   17.26
  -5  -9   1   -2.24   10.35
  -5  -9   1    5.76    7.48
  -5  -9   1   -2.34   12.29
  -5  -9   2   73.61   14.09
  -5  -9   2   93.67   17.97
  -5  -9   2   69.78   17.56
  -5  -9   3  211.88   27.43
  -5  -9   3  232.60   29.58
  -5  -9   3  254.27   26.53
  -5  -9   4  138.25   21.48
  -5  -9   4  149.92   24.64
  -5  -8 -14  294.61   32.76
  -5  -8 -14  421.90   36.43
  -5  -8 -13   52.42   13.55
  -5  -8 -13   46.77   12.98
  -5  -8 -13   68.09   15.31
  -5  -8 -13   42.82   12.96
  -5  -8 -12    8.49   10.41
  -5  -8 -12    2.30    7.53
  -5  -8 -12    4.75    7.77
  -5  -8 -12    2.30    8.70
  -5  -8 -11   28.78   10.18
  -5  -8 -11   48.98   14.01
  -5  -8 -10  139.00   20.26
  -5  -8 -10  189.69   22.49
  -5  -8  -9   45.49   11.92
  -5  -8  -9   49.95   12.36
  -5  -8  -9   36.21   12.33
  -5  -8  -8   22.22   10.08
  -5  -8  -8   11.99    8.27
  -5  -8  -8   22.50    9.40
  -5  -8  -7  763.97   51.75
  -5  -8  -7  821.45   54.19
  -5  -8  -6  356.21   30.44
  -5  -8  -6  421.49   32.97
  -5  -8  -5  751.85   48.15
  -5  -8  -5  774.93   50.78
  -5  -8  -5  687.43   48.61
  -5  -8  -4  264.09   23.66
  -5  -8  -4  261.70   23.11
  -5  -8  -4  216.80   22.95
  -5  -8  -4  208.84   21.02
  -5  -8  -3  688.41   48.91
  -5  -8  -3  730.81   49.17
  -5  -8  -3  727.96   48.45
  -5  -8  -3  784.32   50.58
  -5  -8  -2  183.10   20.31
  -5  -8  -2  239.22   22.42
  -5  -8  -2  176.99   20.50
  -5  -8  -1 1151.43   72.56
  -5  -8  -1 1156.33   73.97
  -5  -8  -1 1256.89   74.69
  -5  -8   0  319.98   30.02
  -5  -8   0  290.50   27.09
  -5  -8   0  297.84   28.94
  -5  -8   1   -4.13    8.27
  -5  -8   1   12.83    9.47
  -5  -8   1   -1.79    8.44
  -5  -8   2   89.70   17.10
  -5  -8   2   45.82   13.06
  -5  -8   3  270.00   29.28
  -5  -8   3  209.34   27.08
  -5  -8   4  185.29   24.63
  -5  -8   4  207.90   27.05
  -5  -8   5   57.33   18.27
  -5  -7 -14   78.02   16.25
  -5  -7 -13   29.12   11.48
  -5  -7 -13   16.39    9.66
  -5  -7 -13    4.72    8.94
  -5  -7 -12    2.25    7.05
  -5  -7 -12    2.26    8.26
  -5  -7 -12   14.00   10.00
  -5  -7 -12    6.98    7.92
  -5  -7 -11  383.80   35.63
  -5  -7 -11  455.48   36.15
  -5  -7 -11  393.79   36.28
  -5  -7 -11  400.96   36.51
  -5  -7 -10  873.63   56.41
  -5  -7 -10  766.96   56.03
  -5  -7  -9  488.30   37.31
  -5  -7  -9  443.00   37.35
  -5  -7  -8  509.45   36.12
  -5  -7  -8  443.60   37.55
  -5  -7  -8  484.00   37.26
  -5  -7  -7  181.05   19.15
  -5  -7  -7  182.09   22.13
  -5  -7  -7  192.49   20.95
  -5  -7  -6  221.75   21.22
  -5  -7  -6  217.20   22.04
  -5  -7  -5  422.31   32.26
  -5  -7  -5  471.48   34.04
  -5  -7  -5  421.15   30.82
  -5  -7  -4   15.22    7.76
  -5  -7  -4   18.08    8.08
  -5  -7  -4    7.72    7.02
  -5  -7  -4   15.01    6.11
  -5  -7  -3  135.47   16.25
  -5  -7  -3  100.04   13.66
  -5  -7  -3   91.38   13.51
  -5  -7  -3  107.23   14.38
  -5  -7  -2  731.05   49.49
  -5  -7  -2  755.76   49.35
  -5  -7  -2  754.51   49.13
  -5  -7  -1  808.45   53.52
  -5  -7  -1  822.37   52.73
  -5  -7  -1  792.62   53.29
  -5  -7   0  200.13   22.18
  -5  -7   0  176.77   20.84
  -5  -7   1   92.26   15.80
  -5  -7   1   71.45   13.98
  -5  -7   2  168.10   21.69
  -5  -7   2  133.84   19.68
  -5  -7   3  288.34   28.96
  -5  -7   3  230.74   27.10
  -5  -7   4  273.86   28.98
  -5  -7   4  233.37   28.47
  -5  -7   5  205.76   25.45
  -5  -7   5  195.37   26.46
  -5  -7   6   34.92   15.11
  -5  -6 -14   72.80   15.79
  -5  -6 -13   60.88   13.92
  -5  -6 -13   33.59   11.68
  -5  -6 -13   20.86   10.86
  -5  -6 -12   24.56   10.77
  -5  -6 -12    6.89    8.14
  -5  -6 -12    8.88    9.16
  -5  -6 -11  367.25   33.35
  -5  -6 -11  305.20   29.39
  -5  -6 -11  313.06   30.79
  -5  -6 -11  332.23   31.91
  -5  -6 -10  551.96   41.19
  -5  -6 -10  587.46   43.69
  -5  -6 -10  512.41   43.21
  -5  -6 -10  607.96   44.17
  -5  -6  -9  628.28   49.43
  -5  -6  -9  756.14   49.75
  -5  -6  -9  727.69   51.78
  -5  -6  -9  819.76   52.61
  -5  -6  -8   23.05    8.78
  -5  -6  -8   25.04    9.07
  -5  -6  -7  291.70   24.78
  -5  -6  -7  244.07   25.18
  -5  -6  -7  245.65   22.00
  -5  -6  -6  987.37   60.78
  -5  -6  -6  975.49   58.78
  -5  -6  -6  980.61   61.85
  -5  -6  -5 1871.14  103.75
  -5  -6  -5 1826.39  102.14
  -5  -6  -4  683.01   43.02
  -5  -6  -4  636.12   41.65
  -5  -6  -4  602.83   40.66
  -5  -6  -4  748.72   44.91
  -5  -6  -3  174.42   16.99
  -5  -6  -3  182.70   18.52
  -5  -6  -3  183.62   17.94
  -5  -6  -3  175.88   17.44
  -5  -6  -2   11.93    6.27
  -5  -6  -2    1.30    5.21
  -5  -6  -2   14.01    5.93
  -5  -6  -1  153.09   18.63
  -5  -6  -1  157.41   17.85
  -5  -6   0   10.06    7.09
  -5  -6   0    6.58    7.47
  -5  -6   1   20.22    8.91
  -5  -6   1   21.70    9.71
  -5  -6   2  393.58   33.74
  -5  -6   2  358.39   33.32
  -5  -6   3  425.72   37.31
  -5  -6   3  425.96   37.03
  -5  -6   4  451.40   38.72
  -5  -6   4  429.56   38.55
  -5  -6   5  152.75   21.43
  -5  -6   5  155.39   22.35
  -5  -6   6   17.88   11.85
  -5  -5 -13   46.71   13.60
  -5  -5 -13   33.48   11.52
  -5  -5 -13   62.08   13.57
  -5  -5 -12   -4.41    7.50
  -5  -5 -12   -2.22    7.83
  -5  -5 -12    6.83    8.33
  -5  -5 -11  200.73   23.85
  -5  -5 -11  175.73   22.34
  -5  -5 -11  213.66   24.67
  -5  -5 -10  961.28   61.16
  -5  -5 -10  825.88   59.31
  -5  -5 -10  909.98   61.11
  -5  -5  -9  138.53   18.74
  -5  -5  -9  140.47   18.88
  -5  -5  -9  147.64   17.91
  -5  -5  -9  116.13   17.58
  -5  -5  -8  328.64   27.66
  -5  -5  -8  298.96   25.45
  -5  -5  -8  276.57   27.04
  -5  -5  -8  247.29   25.62
  -5  -5  -7  332.24   26.57
  -5  -5  -7  301.33   26.80
  -5  -5  -7  287.98   26.77
  -5  -5  -7  331.86   27.75
  -5  -5  -6 1013.31   62.14
  -5  -5  -6  992.66   58.39
  -5  -5  -6 1002.84   60.62
  -5  -5  -5  766.82   48.09
  -5  -5  -5  728.87   48.96
  -5  -5  -5  778.88   46.64
  -5  -5  -4 1106.67   63.33
  -5  -5  -4 1267.47   67.10
  -5  -5  -4 1206.82   65.38
  -5  -5  -3   59.07    9.76
  -5  -5  -3   41.02    8.05
  -5  -5  -3   57.11    8.66
  -5  -5  -3   44.19    7.81
  -5  -5  -3   43.25    9.25
  -5  -5  -2   31.26    8.20
  -5  -5  -2   30.94    7.64
  -5  -5  -2   26.46    7.33
  -5  -5  -1  629.00   47.38
  -5  -5  -1  902.80   50.18
  -5  -5   0  503.01   36.55
  -5  -5   0  454.88   35.11
  -5  -5   1  383.74   32.98
  -5  -5   1  457.83   34.40
  -5  -5   2    3.66    7.34
  -5  -5   2    5.66    7.35
  -5  -5   3  147.40   19.58
  -5  -5   3  150.64   19.67
  -5  -5   4  100.93   16.96
  -5  -5   4   82.11   16.18
  -5  -5   5   29.81   10.95
  -5  -5   5   36.30   12.04
  -5  -5   6  108.65   18.59
  -5  -5   6  102.14   18.39
  -5  -5   7  175.13   24.57
  -5  -4 -13   31.22   12.20
  -5  -4 -13   57.46   13.91
  -5  -4 -13   49.87   14.18
  -5  -4 -12   11.46    9.44
  -5  -4 -12    2.20    7.20
  -5  -4 -12    4.45    7.59
  -5  -4 -11  120.78   17.67
  -5  -4 -11  100.06   16.33
  -5  -4 -10  439.14   36.70
  -5  -4 -10  425.05   36.76
  -5  -4 -10  447.14   36.96
  -5  -4  -9  427.04   33.22
  -5  -4  -9  323.47   30.46
  -5  -4  -9  346.72   31.67
  -5  -4  -8   12.03    7.98
  -5  -4  -8    9.92    7.01
  -5  -4  -8   18.30    7.56
  -5  -4  -7   28.16    8.68
  -5  -4  -7   10.62    6.65
  -5  -4  -7   25.78    8.04
  -5  -4  -7   26.12    8.30
  -5  -4  -6  456.23   35.35
  -5  -4  -6  489.30   35.31
  -5  -4  -6  516.74   34.21
  -5  -4  -6  526.23   35.97
  -5  -4  -5 1341.39   76.97
  -5  -4  -5 1513.38   81.51
  -5  -4  -5 1378.73   80.46
  -5  -4  -5 1347.47   78.87
  -5  -4  -5 1513.61   81.78
  -5  -4  -4  345.40   24.35
  -5  -4  -4  484.81   29.40
  -5  -4  -4  398.98   27.02
  -5  -4  -4  437.03   26.30
  -5  -4  -3   75.76    9.98
  -5  -4  -3   91.10   11.78
  -5  -4  -3   60.69    9.68
  -5  -4  -3  101.69   11.31
  -5  -4  -2  152.54   14.35
  -5  -4  -2  130.95   13.65
  -5  -4  -2  149.77   12.94
  -5  -4  -1 1848.35   88.88
  -5  -4  -1 1683.58   88.97
  -5  -4   0 1027.16   56.73
  -5  -4   0  945.57   54.33
  -5  -4   1  455.10   35.74
  -5  -4   1  460.29   33.29
  -5  -4   1  435.27   34.07
  -5  -4   2    3.57    7.54
  -5  -4   2   -1.71    6.26
  -5  -4   3  637.75   45.81
  -5  -4   3  617.30   46.81
  -5  -4   4  316.05   30.01
  -5  -4   4  317.11   30.35
  -5  -4   5  462.15   39.05
  -5  -4   5  429.43   38.47
  -5  -4   6    4.67    8.54
  -5  -4   6    2.31    8.46
  -5  -4   7   17.03   10.05
  -5  -3 -13  101.63   19.10
  -5  -3 -12   42.20   12.23
  -5  -3 -12   41.01   13.94
  -5  -3 -12   43.87   12.51
  -5  -3 -11  126.87   18.34
  -5  -3 -11   98.50   16.79
  -5  -3 -11   69.35   14.36
  -5  -3 -10   43.31   11.47
  -5  -3 -10   64.31   13.28
  -5  -3 -10   57.39   12.68
  -5  -3  -9  362.40   32.39
  -5  -3  -9  401.61   33.27
  -5  -3  -9  356.77   31.93
  -5  -3  -8   83.63   14.00
  -5  -3  -8   78.07   13.63
  -5  -3  -8   50.46   11.73
  -5  -3  -7   16.86    8.20
  -5  -3  -7   36.35    9.79
  -5  -3  -7   46.11   10.43
  -5  -3  -6  179.63   19.16
  -5  -3  -6  188.21   19.20
  -5  -3  -6  199.86   19.20
  -5  -3  -5 1250.32   72.44
  -5  -3  -5 1208.68   69.22
  -5  -3  -5 1259.91   71.85
  -5  -3  -5 1246.45   72.29
  -5  -3  -4  588.25   36.98
  -5  -3  -4  538.48   35.96
  -5  -3  -4  557.69   35.94
  -5  -3  -4  509.45   34.06
  -5  -3  -3    5.90    5.10
  -5  -3  -3    5.31    6.21
  -5  -3  -3   17.67    5.66
  -5  -3  -3    8.72    5.04
  -5  -3  -3   10.49    4.79
  -5  -3  -2  381.13   25.53
  -5  -3  -2  364.75   25.01
  -5  -3  -2  413.61   26.26
  -5  -3  -2  320.91   25.64
  -5  -3  -2  391.12   28.14
  -5  -3  -1 2705.33  144.85
  -5  -3  -1 2679.20  140.11
  -5  -3  -1 2744.77  140.04
  -5  -3  -1 2662.49  142.14
  -5  -3   0 1564.27   85.82
  -5  -3   0 1418.61   85.03
  -5  -3   0 1486.00   82.02
  -5  -3   1  487.98   36.18
  -5  -3   1  496.31   36.27
  -5  -3   2    9.73    6.32
  -5  -3   2   -1.63    6.55
  -5  -3   3  400.52   33.62
  -5  -3   3  418.47   34.21
  -5  -3   4  870.20   59.14
  -5  -3   4  875.55   59.29
  -5  -3   5  238.45   25.56
  -5  -3   6  117.34   18.21
  -5  -3   6  119.11   19.14
  -5  -3   7    9.65    9.39
  -5  -3   7   -2.34    8.86
  -5  -2 -12   22.45   10.03
  -5  -2 -12   39.67   12.73
  -5  -2 -12   23.27   10.62
  -5  -2 -11   17.73   10.18
  -5  -2 -11   44.90   12.23
  -5  -2 -11   47.87   13.26
  -5  -2 -10   94.11   15.77
  -5  -2 -10   86.53   15.62
  -5  -2 -10  117.04   17.21
  -5  -2  -9  396.38   35.57
  -5  -2  -9  469.58   36.64
  -5  -2  -9  471.28   37.27
  -5  -2  -8  275.17   26.27
  -5  -2  -8  290.34   25.99
  -5  -2  -8  236.19   24.87
  -5  -2  -7    4.46    6.28
  -5  -2  -7    9.74    7.82
  -5  -2  -7   -3.13    5.92
  -5  -2  -6   36.77    8.96
  -5  -2  -6   41.24    9.25
  -5  -2  -6   36.53    9.55
  -5  -2  -5 1548.96   90.55
  -5  -2  -5 1672.89   90.51
  -5  -2  -5 1616.62   91.22
  -5  -2  -4  397.77   28.76
  -5  -2  -4  402.48   27.90
  -5  -2  -4  379.13   28.13
  -5  -2  -3   65.38    9.35
  -5  -2  -3   80.15   10.41
  -5  -2  -3   91.56   12.14
  -5  -2  -3   77.77   10.43
  -5  -2  -2  550.60   37.58
  -5  -2  -2  532.86   34.53
  -5  -2  -2  576.01   35.66
  -5  -2  -2  594.78   39.48
  -5  -2  -2  630.89   35.75
  -5  -2  -2  584.30   35.91
  -5  -2  -1 1638.67   84.13
  -5  -2  -1 1576.38   84.22
  -5  -2  -1 1526.42   83.85
  -5  -2  -1 1561.98   89.57
  -5  -2  -1 1541.25   87.26
  -5  -2   0 1607.12   88.12
  -5  -2   0 1552.11   90.80
  -5  -2   1  651.24   45.35
  -5  -2   1  675.99   42.64
  -5  -2   2   49.98   11.19
  -5  -2   3  168.30   21.21
  -5  -2   3  170.69   19.42
  -5  -2   4  579.44   44.09
  -5  -2   4  629.80   46.41
  -5  -2   5  845.00   59.93
  -5  -2   5  853.74   58.32
  -5  -2   6   -2.13    7.80
  -5  -2   6   16.86   12.04
  -5  -2   7   12.85   15.17
  -5  -2   7   18.09    8.31
  -5  -1 -12   14.32   11.49
  -5  -1 -12    7.10    8.66
  -5  -1 -12   -2.28    8.07
  -5  -1 -11  131.02   19.13
  -5  -1 -11   97.27   17.55
  -5  -1 -11  131.89   19.54
  -5  -1 -10  155.34   20.27
  -5  -1 -10  109.25   17.24
  -5  -1 -10  106.98   18.04
  -5  -1  -9  790.07   53.26
  -5  -1  -9  751.73   53.42
  -5  -1  -9  725.76   52.87
  -5  -1  -8  280.81   27.67
  -5  -1  -8  305.55   28.00
  -5  -1  -8  307.74   27.85
  -5  -1  -7   26.14    8.92
  -5  -1  -7   19.86    8.83
  -5  -1  -7   16.94    7.57
  -5  -1  -6  411.59   31.61
  -5  -1  -6  414.52   31.89
  -5  -1  -6  382.10   29.98
  -5  -1  -5 1118.76   66.40
  -5  -1  -5 1060.32   65.30
  -5  -1  -5 1118.62   64.73
  -5  -1  -4 1050.96   66.10
  -5  -1  -4 1030.08   63.90
  -5  -1  -4 1144.39   63.44
  -5  -1  -4 1145.54   65.33
  -5  -1  -3  529.14   35.73
  -5  -1  -3  553.47   38.27
  -5  -1  -3  555.80   36.21
  -5  -1  -3  569.68   34.99
  -5  -1  -2  326.63   25.22
  -5  -1  -2  255.35   19.87
  -5  -1  -2  270.31   19.21
  -5  -1  -2  228.02   19.74
  -5  -1  -2  294.66   23.04
  -5  -1  -1  304.34   23.63
  -5  -1  -1  300.81   24.78
  -5  -1  -1  243.00   19.22
  -5  -1  -1  281.10   19.59
  -5  -1   0  856.99   55.17
  -5  -1   0  971.68   58.30
  -5  -1   1  486.86   33.80
  -5  -1   1  445.61   35.18
  -5  -1   2    7.06    6.40
  -5  -1   2   -5.37    7.93
  -5  -1   3   49.17   11.45
  -5  -1   3   57.32   13.19
  -5  -1   4  749.07   54.63
  -5  -1   5  239.50   24.65
  -5  -1   5  201.52   26.18
  -5  -1   6  166.33   22.27
  -5  -1   6  282.53   29.91
  -5  -1   7   24.23    9.87
  -5  -1   7   45.56   15.67
  -5  -1   8  165.18   27.72
  -5  -1   9  172.44   28.53
  -5   0 -11   -2.30   10.18
  -5   0 -11   -2.25    7.04
  -5   0 -11   -2.33    7.61
  -5   0 -10   70.61   14.54
  -5   0 -10   77.16   16.67
  -5   0 -10   61.87   13.79
  -5   0  -9  151.13   20.06
  -5   0  -9  140.15   19.66
  -5   0  -9  126.00   18.65
  -5   0  -8  136.64   18.19
  -5   0  -8  102.36   15.91
  -5   0  -8  118.03   17.12
  -5   0  -7   39.44   10.25
  -5   0  -7   33.69    9.76
  -5   0  -7   27.30    9.61
  -5   0  -6  478.06   36.99
  -5   0  -6  495.40   37.90
  -5   0  -6  560.28   37.69
  -5   0  -5 1689.47   97.31
  -5   0  -5 1726.03   96.00
  -5   0  -5 1611.63   99.27
  -5   0  -5 1827.21   98.51
  -5   0  -4 1182.88   66.90
  -5   0  -4 1123.66   67.98
  -5   0  -4 1110.58   70.23
  -5   0  -4 1215.38   69.06
  -5   0  -3  802.71   49.30
  -5   0  -3  829.17   47.73
  -5   0  -3  769.61   49.21
  -5   0  -3  811.00   52.21
  -5   0  -2   11.79    4.68
  -5   0  -2    8.75    5.36
  -5   0  -2    1.01    4.56
  -5   0  -2   -1.40    5.78
  -5   0  -1  104.99   11.15
  -5   0  -1  106.43   13.67
  -5   0  -1   98.48   13.98
  -5   0  -1   86.54   10.33
  -5   0   0  933.88   60.44
  -5   0   0  962.29   58.98
  -5   0   1  723.95   48.07
  -5   0   1  735.76   50.22
  -5   0   2   29.94   10.68
  -5   0   2   59.67   11.40
  -5   0   3    8.57    8.87
  -5   0   3    6.14    7.50
  -5   0   4  504.11   39.25
  -5   0   4  499.11   42.00
  -5   0   5  313.12   32.41
  -5   0   6  100.63   19.97
  -5   0   7   46.93   15.54
  -5   0   7   34.73   11.20
  -5   0   8  159.18   27.56
  -5   0   9  243.84   34.26
  -5   0  10   93.30   24.17
  -5   1 -10   70.91   15.73
  -5   1 -10   71.13   15.06
  -5   1 -10   59.68   15.07
  -5   1  -9  197.24   25.19
  -5   1  -9  212.67   25.48
  -5   1  -9  244.30   25.78
  -5   1  -8  391.11   34.69
  -5   1  -8  447.87   35.24
  -5   1  -8  368.18   34.32
  -5   1  -8  391.83   34.73
  -5   1  -7   12.74    7.69
  -5   1  -7   11.30    6.66
  -5   1  -7    2.00    5.98
  -5   1  -7   -1.69    8.16
  -5   1  -6    1.88    6.14
  -5   1  -6   -1.51    7.26
  -5   1  -6   10.37    7.66
  -5   1  -6    5.02    6.12
  -5   1  -5  353.80   29.32
  -5   1  -5  394.97   29.08
  -5   1  -5  328.95   29.13
  -5   1  -5  369.54   31.40
  -5   1  -4  119.91   14.36
  -5   1  -4   97.88   14.69
  -5   1  -4  106.70   14.27
  -5   1  -4   95.73   12.77
  -5   1  -3   93.00   11.66
  -5   1  -3  107.18   13.49
  -5   1  -3   85.86   13.92
  -5   1  -3   96.41   12.54
  -5   1  -2  122.77   13.51
  -5   1  -2  126.87   15.92
  -5   1  -2  126.86   16.66
  -5   1  -2  122.15   13.85
  -5   1  -1 1215.81   67.44
  -5   1  -1 1146.85   71.75
  -5   1  -1 1244.00   73.68
  -5   1  -1 1156.13   67.26
  -5   1   0  860.68   51.09
  -5   1   0  911.40   51.64
  -5   1   0  901.49   58.55
  -5   1   0  894.52   57.09
  -5   1   1 2271.85  131.18
  -5   1   1 2480.93  133.85
  -5   1   2  297.40   26.41
  -5   1   2  251.79   26.59
  -5   1   3    3.78    8.20
  -5   1   3   16.88    8.92
  -5   1   4  277.75   29.82
  -5   1   4  297.79   29.09
  -5   1   5  691.04   51.76
  -5   1   5  708.45   53.89
  -5   1   6  168.94   24.16
  -5   1   6  119.77   21.79
  -5   1   7    8.49   14.39
  -5   1   8  222.54   30.73
  -5   1   9  162.02   28.48
  -5   1  10  144.88   28.04
  -5   2  -9  330.76   30.96
  -5   2  -9  265.98   29.34
  -5   2  -9  268.86   29.46
  -5   2  -8  107.54   17.71
  -5   2  -8   81.01   15.15
  -5   2  -8   91.43   16.46
  -5   2  -7  192.06   21.95
  -5   2  -7  150.78   20.44
  -5   2  -7  174.66   21.70
  -5   2  -7  188.13   21.09
  -5   2  -6    7.84    6.68
  -5   2  -6    1.80    7.81
  -5   2  -6    7.46    8.26
  -5   2  -6   11.28    8.48
  -5   2  -5  172.61   20.09
  -5   2  -5  164.30   20.39
  -5   2  -5  185.26   20.89
  -5   2  -5  185.79   19.52
  -5   2  -4   83.17   13.77
  -5   2  -4   89.38   14.07
  -5   2  -4  121.19   13.92
  -5   2  -4   88.05   14.87
  -5   2  -3  295.59   28.05
  -5   2  -3  349.70   27.30
  -5   2  -3  297.00   25.67
  -5   2  -2   -2.56    6.74
  -5   2  -2   18.72    6.82
  -5   2  -2   -3.72    5.85
  -5   2  -2    1.81    5.92
  -5   2  -1  227.91   20.69
  -5   2  -1  239.10   24.88
  -5   2  -1  312.03   26.42
  -5   2  -1  279.79   22.23
  -5   2   0  553.37   40.58
  -5   2   0  553.57   41.35
  -5   2   0  517.42   35.32
  -5   2   0  570.67   35.73
  -5   2   1  575.66   44.39
  -5   2   1  615.65   43.99
  -5   2   2   -1.91    5.98
  -5   2   2   -4.03    8.30
  -5   2   3  232.86   26.63
  -5   2   3  274.09   27.78
  -5   2   4 2080.02  118.17
  -5   2   4 1898.42  117.92
  -5   2   5 1070.75   71.61
  -5   2   5 1044.08   72.98
  -5   2   6  894.67   64.79
  -5   2   6  826.78   61.32
  -5   2   7   82.17   19.61
  -5   2   7   98.05   20.50
  -5   2   8   39.80   17.22
  -5   2   9   83.97   21.32
  -5   2  10  151.78   28.41
  -5   3  -9  172.01   23.42
  -5   3  -8  145.34   20.96
  -5   3  -8  156.05   21.89
  -5   3  -8  146.61   21.05
  -5   3  -7   78.10   15.44
  -5   3  -7   70.58   14.53
  -5   3  -7   90.60   16.51
  -5   3  -6   29.21   10.43
  -5   3  -6   16.52    8.31
  -5   3  -6    8.07    7.65
  -5   3  -6    8.68    9.59
  -5   3  -5  131.23   18.17
  -5   3  -5  133.97   18.04
  -5   3  -5  123.30   18.19
  -5   3  -5  133.75   17.65
  -5   3  -4  304.05   26.46
  -5   3  -4  289.59   26.52
  -5   3  -3  367.25   29.89
  -5   3  -3  379.85   29.85
  -5   3  -3  310.51   30.68
  -5   3  -2    7.04    7.04
  -5   3  -2    3.73    6.36
  -5   3  -2    2.93    6.35
  -5   3  -2   11.55    9.27
  -5   3  -1   83.82   15.01
  -5   3  -1   94.60   12.87
  -5   3  -1   77.98   14.35
  -5   3  -1  115.28   14.23
  -5   3   0  745.60   51.29
  -5   3   0  720.56   45.66
  -5   3   0  647.42   50.38
  -5   3   0  761.51   46.74
  -5   3   1  457.14   37.89
  -5   3   1  492.31   39.30
  -5   3   2   80.02   15.34
  -5   3   2   70.49   14.60
  -5   3   3   69.98   14.95
  -5   3   3  115.24   18.16
  -5   3   4  715.86   54.60
  -5   3   4  744.96   55.27
  -5   3   5  385.75   37.30
  -5   3   5  377.66   37.01
  -5   3   6  321.41   34.24
  -5   3   6  309.04   33.76
  -5   3   7    5.36   14.10
  -5   3   7   14.59   13.23
  -5   3   8  263.45   33.04
  -5   3   8  220.25   30.30
  -5   3   9  140.19   25.77
  -5   3  10  395.43   45.75
  -5   4  -8  156.03   21.97
  -5   4  -7  148.44   20.39
  -5   4  -7  132.18   20.96
  -5   4  -7  130.84   20.14
  -5   4  -6   -4.19    9.29
  -5   4  -6    5.51    9.34
  -5   4  -6   -8.77   10.35
  -5   4  -5   90.60   15.87
  -5   4  -5  125.57   18.46
  -5   4  -4  545.28   43.13
  -5   4  -4  548.22   41.99
  -5   4  -4  526.39   41.13
  -5   4  -3  390.78   32.92
  -5   4  -3  364.02   33.69
  -5   4  -3  351.86   33.35
  -5   4  -3  408.39   32.50
  -5   4  -2   99.46   16.77
  -5   4  -2  106.90   16.56
  -5   4  -2  121.64   16.51
  -5   4  -2   98.13   15.05
  -5   4  -1   35.57   10.04
  -5   4  -1   41.14   10.06
  -5   4  -1   54.66   12.87
  -5   4  -1   54.53   11.96
  -5   4   0  550.14   42.68
  -5   4   0  560.44   37.80
  -5   4   0  476.37   40.73
  -5   4   0  513.01   37.59
  -5   4   1  509.92   41.35
  -5   4   1  506.77   41.56
  -5   4   2   74.53   14.90
  -5   4   2   70.10   14.77
  -5   4   3    9.25    8.18
  -5   4   3    2.41    9.65
  -5   4   4  303.72   31.32
  -5   4   4  251.70   29.98
  -5   4   5  274.69   31.23
  -5   4   5  294.37   32.80
  -5   4   6  136.09   22.15
  -5   4   6   89.20   19.92
  -5   4   7   77.26   20.36
  -5   4   7   32.36   15.41
  -5   4   8   65.59   19.66
  -5   4   8   76.13   19.48
  -5   4   9  163.03   27.12
  -5   4   9  131.11   26.35
  -5   4  10  243.50   35.31
  -5   5  -6   15.72    9.76
  -5   5  -6   18.95   11.87
  -5   5  -5  164.08   22.37
  -5   5  -5  147.22   20.79
  -5   5  -4  617.81   46.82
  -5   5  -4  578.49   45.17
  -5   5  -3  488.45   39.45
  -5   5  -3  468.82   39.88
  -5   5  -3  484.05   38.83
  -5   5  -2   69.54   14.12
  -5   5  -2   56.33   12.81
  -5   5  -2   60.20   12.93
  -5   5  -1   -5.32    9.76
  -5   5  -1   -6.70    9.23
  -5   5  -1   -2.12    7.22
  -5   5  -1   -4.36    6.18
  -5   5   0  473.71   35.67
  -5   5   0  512.30   37.32
  -5   5   0  367.96   36.20
  -5   5   0  472.60   39.64
  -5   5   1  278.41   30.43
  -5   5   1  301.96   30.93
  -5   5   2  369.22   35.77
  -5   5   2  444.73   39.13
  -5   5   3    2.57   12.15
  -5   5   3   16.66    9.28
  -5   5   4   16.11   10.15
  -5   5   4    5.05    7.92
  -5   5   5  129.26   23.72
  -5   5   5  131.25   21.54
  -5   5   6  265.54   31.88
  -5   5   6  249.22   31.71
  -5   5   7   -3.03   14.31
  -5   5   7   -8.88   13.11
  -5   5   8   -3.09   16.79
  -5   5   8   -3.13   12.19
  -5   5   9  192.55   30.72
  -5   5   9  229.54   31.48
  -5   5  10  150.59   27.39
  -5   5  10  164.60   28.68
  -5   6  -5   48.82   15.32
  -5   6  -5   53.02   14.82
  -5   6  -4  224.74   26.88
  -5   6  -4  261.37   29.18
  -5   6  -3  266.10   29.04
  -5   6  -3  346.09   32.48
  -5   6  -2    5.97    9.39
  -5   6  -2    6.33   10.55
  -5   6  -1   -9.42    8.72
  -5   6  -1    2.00   10.17
  -5   6  -1   -2.35    6.67
  -5   6   0  282.04   27.91
  -5   6   0  318.57   29.46
  -5   6   0  279.37   30.17
  -5   6   1  308.74   32.38
  -5   6   2  222.76   28.85
  -5   6   3   68.24   16.86
  -5   6   3   71.08   16.07
  -5   6   4   45.38   15.49
  -5   6   4   30.80   10.98
  -5   6   5  210.05   29.37
  -5   6   5  219.47   27.71
  -5   6   6  193.77   28.89
  -5   6   6  247.31   30.64
  -5   6   7  109.60   22.41
  -5   6   7   91.79   22.72
  -5   6   8  -12.89   16.67
  -5   6   8    9.36   12.85
  -5   6   9  145.22   27.64
  -5   6   9  152.90   26.21
  -5   7  -3  174.55   24.31
  -5   7  -3  168.79   23.55
  -5   7  -2   -4.64   10.75
  -5   7  -2   -6.56   11.31
  -5   7  -1   -4.19   10.83
  -5   7  -1   -8.89   10.07
  -5   7   0   74.46   16.36
  -5   7   0   93.21   17.44
  -5   7   0   86.04   16.57
  -5   7   1  300.86   32.98
  -5   7   2  133.54   22.65
  -5   7   3   14.36   12.74
  -5   7   4   83.40   20.12
  -5   7   5  216.29   29.39
  -5   7   6  499.73   47.82
  -5   7   7   88.68   23.00
  -5   7   8  -13.33   16.05
  -5   7   9   93.24   21.96
  -5   8  -1   60.91   16.57
  -5   8  -1   66.39   17.04
  -5   8   0   47.09   14.62
  -5   8   0   53.07   14.97
  -5   8   2  205.85   28.83
  -5   8   3   -5.98   12.30
  -5   8   4  117.65   22.07
  -5   8   5  185.28   28.34
  -5   8   6  492.48   48.12
  -5   8   7   30.21   17.71
  -4 -14  -7  111.88   20.27
  -4 -13 -10   -2.42    9.41
  -4 -13 -10    9.97   12.68
  -4 -13  -9  415.48   38.58
  -4 -13  -9  393.81   36.86
  -4 -13  -8  322.88   34.66
  -4 -13  -8  398.66   35.77
  -4 -13  -7  191.39   25.48
  -4 -13  -7  260.03   28.55
  -4 -13  -7  228.90   26.37
  -4 -13  -6    2.39   11.09
  -4 -13  -6    6.68    9.18
  -4 -13  -5   59.64   15.34
  -4 -13  -5   34.62   14.77
  -4 -13  -4  190.60   24.30
  -4 -13  -4  226.84   28.16
  -4 -13  -3  207.30   26.57
  -4 -13  -3  134.44   20.84
  -4 -13  -3  199.46   26.77
  -4 -13  -2   18.49   14.79
  -4 -12 -12  253.06   29.07
  -4 -12 -12  242.91   29.22
  -4 -12 -11   16.79   12.16
  -4 -12 -11  107.36   19.62
  -4 -12 -10   33.09   14.20
  -4 -12 -10   30.58   11.44
  -4 -12  -9  188.68   23.61
  -4 -12  -9  162.84   23.63
  -4 -12  -8  373.18   34.60
  -4 -12  -8  364.10   35.32
  -4 -12  -7  391.01   35.83
  -4 -12  -7  430.28   37.09
  -4 -12  -7  388.15   36.09
  -4 -12  -6    2.19   10.54
  -4 -12  -6   -4.27    8.79
  -4 -12  -6   10.96   10.35
  -4 -12  -5   81.91   16.64
  -4 -12  -5   54.10   13.89
  -4 -12  -5   54.71   13.23
  -4 -12  -4  358.36   34.47
  -4 -12  -4  335.74   32.12
  -4 -12  -4  326.19   31.64
  -4 -12  -3  327.12   33.97
  -4 -12  -3  299.54   30.02
  -4 -12  -3  348.00   33.74
  -4 -12  -3  312.59   31.11
  -4 -12  -2   32.10   14.47
  -4 -12  -2   40.37   14.59
  -4 -12  -2   31.73   11.77
  -4 -12  -1   -5.22   11.55
  -4 -12  -1   -2.59   12.50
  -4 -12   0  145.49   23.74
  -4 -12   0   77.22   19.01
  -4 -11 -12  243.19   28.18
  -4 -11 -12  242.82   28.05
  -4 -11 -11  371.97   33.94
  -4 -11 -11  331.59   32.25
  -4 -11 -10    6.65   11.28
  -4 -11 -10    9.05    9.07
  -4 -11  -9  169.71   22.45
  -4 -11  -9  119.27   19.24
  -4 -11  -8  337.68   31.89
  -4 -11  -8  313.44   31.16
  -4 -11  -7  303.74   30.20
  -4 -11  -7  323.46   30.76
  -4 -11  -6   15.76   10.86
  -4 -11  -6   10.13    8.13
  -4 -11  -6    4.07    8.40
  -4 -11  -5  102.79   18.35
  -4 -11  -5  112.57   17.05
  -4 -11  -5   85.41   15.33
  -4 -11  -4  261.80   26.31
  -4 -11  -4  227.38   24.77
  -4 -11  -4  240.19   26.68
  -4 -11  -4  211.17   24.22
  -4 -11  -3  305.50   30.58
  -4 -11  -3  292.44   30.74
  -4 -11  -3  271.91   27.98
  -4 -11  -3  285.34   28.13
  -4 -11  -2   23.80    9.71
  -4 -11  -2   58.80   15.65
  -4 -11  -2   25.53   12.71
  -4 -11  -2   47.35   11.32
  -4 -11  -1    4.83   12.09
  -4 -11  -1   14.43   12.88
  -4 -11  -1   23.98    8.89
  -4 -11  -1   13.95    9.06
  -4 -11   0  197.04   26.75
  -4 -11   0  176.26   25.51
  -4 -11   1  204.97   27.93
  -4 -11   1  184.03   26.75
  -4 -11   2  264.06   31.67
  -4 -11   2  299.22   33.94
  -4 -10 -13  173.61   24.36
  -4 -10 -12  280.48   30.16
  -4 -10 -12  321.57   30.42
  -4 -10 -11  200.04   23.19
  -4 -10 -11  185.21   22.95
  -4 -10 -10   14.35   10.62
  -4 -10 -10    2.22    8.14
  -4 -10 -10   19.49   10.83
  -4 -10  -9  289.94   28.60
  -4 -10  -9  256.14   27.70
  -4 -10  -8  574.77   45.44
  -4 -10  -8  657.54   47.15
  -4 -10  -7  545.62   42.87
  -4 -10  -7  572.08   42.70
  -4 -10  -6   84.28   14.84
  -4 -10  -6   74.94   14.45
  -4 -10  -6   66.66   14.30
  -4 -10  -5   11.17    7.91
  -4 -10  -5   18.31   11.10
  -4 -10  -5   27.67   10.91
  -4 -10  -4  266.82   28.09
  -4 -10  -4  341.18   28.74
  -4 -10  -4  301.54   28.09
  -4 -10  -4  268.90   27.24
  -4 -10  -3  229.95   23.99
  -4 -10  -3  194.29   23.76
  -4 -10  -3  186.53   22.09
  -4 -10  -3  228.10   24.12
  -4 -10  -2  128.35   17.94
  -4 -10  -2  209.65   23.30
  -4 -10  -2  177.72   22.44
  -4 -10  -2  121.72   18.03
  -4 -10  -1   -2.19   10.75
  -4 -10  -1   -2.18    9.21
  -4 -10  -1   -1.85    6.30
  -4 -10   0  272.72   29.60
  -4 -10   0  301.64   28.17
  -4 -10   0  299.91   32.03
  -4 -10   1  195.99   25.88
  -4 -10   1  289.08   30.86
  -4 -10   2  226.54   29.32
  -4 -10   2  244.20   29.31
  -4 -10   3   93.88   20.35
  -4 -10   3  112.87   19.63
  -4  -9 -14   28.48   13.89
  -4  -9 -13  268.06   29.56
  -4  -9 -12  123.45   20.12
  -4  -9 -12  200.95   24.35
  -4  -9 -11  219.97   26.45
  -4  -9 -11  300.66   28.18
  -4  -9 -11  285.11   28.75
  -4  -9 -10   10.54    9.18
  -4  -9 -10   28.74   11.18
  -4  -9 -10   26.33   10.71
  -4  -9  -9   80.44   16.67
  -4  -9  -9  123.54   17.78
  -4  -9  -9  142.61   18.70
  -4  -9  -8  970.02   63.29
  -4  -9  -8  941.78   61.99
  -4  -9  -7  218.95   22.46
  -4  -9  -7  181.94   21.71
  -4  -9  -6  136.18   17.39
  -4  -9  -6  137.79   18.21
  -4  -9  -6  133.08   17.90
  -4  -9  -5   44.88   11.32
  -4  -9  -5   75.41   13.46
  -4  -9  -5   62.50   13.08
  -4  -9  -4  759.23   51.52
  -4  -9  -4  783.41   50.49
  -4  -9  -4  738.47   50.93
  -4  -9  -4  753.97   51.33
  -4  -9  -3  675.73   46.10
  -4  -9  -3  593.18   44.04
  -4  -9  -3  677.22   45.11
  -4  -9  -3  570.71   43.54
  -4  -9  -2  691.10   47.93
  -4  -9  -2  647.60   47.42
  -4  -9  -2  666.87   48.70
  -4  -9  -2  751.28   49.77
  -4  -9  -1   60.50   14.15
  -4  -9  -1   68.49   15.46
  -4  -9  -1   64.31   12.37
  -4  -9   0   44.37   13.22
  -4  -9   0   30.72   10.93
  -4  -9   0   39.98   10.55
  -4  -9   1  308.86   29.15
  -4  -9   1  369.92   34.05
  -4  -9   1  334.95   31.69
  -4  -9   2  293.77   30.48
  -4  -9   2  284.94   27.41
  -4  -9   2  307.57   32.38
  -4  -9   3    9.32   10.79
  -4  -9   3    2.57   12.84
  -4  -9   4    2.70   12.99
  -4  -9   5  185.16   27.78
  -4  -8 -14   22.93   11.72
  -4  -8 -13  104.39   18.49
  -4  -8 -13  152.12   21.01
  -4  -8 -12  326.64   30.57
  -4  -8 -12  238.07   27.13
  -4  -8 -11   76.63   15.78
  -4  -8 -11  126.96   18.49
  -4  -8 -10    4.01    7.81
  -4  -8 -10    8.50    9.23
  -4  -8 -10   11.60    9.66
  -4  -8  -9  137.02   18.34
  -4  -8  -9  128.11   18.27
  -4  -8  -9  141.12   18.52
  -4  -8  -8  953.01   61.82
  -4  -8  -8 1008.44   63.58
  -4  -8  -7  576.27   41.87
  -4  -8  -7  614.98   43.49
  -4  -8  -6  224.88   22.81
  -4  -8  -6  232.97   23.67
  -4  -8  -6  258.14   22.37
  -4  -8  -5    1.59    6.87
  -4  -8  -5   -1.50    6.81
  -4  -8  -5    4.11    8.28
  -4  -8  -4  928.37   54.61
  -4  -8  -4  846.27   55.34
  -4  -8  -4  805.07   54.98
  -4  -8  -4  887.44   55.16
  -4  -8  -3  819.25   53.30
  -4  -8  -3  862.32   54.08
  -4  -8  -3  811.02   53.76
  -4  -8  -3  838.56   54.00
  -4  -8  -2 1276.09   78.26
  -4  -8  -2 1346.48   79.83
  -4  -8  -2 1370.28   80.01
  -4  -8  -1   51.91   12.10
  -4  -8  -1   41.60   10.01
  -4  -8  -1   41.48   12.30
  -4  -8   0   50.87   13.72
  -4  -8   0   50.82   10.96
  -4  -8   0   69.79   13.50
  -4  -8   1  467.64   35.83
  -4  -8   1  419.88   36.45
  -4  -8   1  469.65   38.83
  -4  -8   2  466.09   36.87
  -4  -8   2  547.93   42.18
  -4  -8   2  436.46   38.21
  -4  -8   3   75.29   13.72
  -4  -8   3  122.54   20.01
  -4  -8   3   86.11   16.22
  -4  -8   4   -2.50   12.95
  -4  -8   4    2.24    9.23
  -4  -8   5  128.90   21.88
  -4  -8   6   49.16   15.87
  -4  -7 -14    2.21   11.60
  -4  -7 -13  118.64   18.86
  -4  -7 -13  179.39   22.60
  -4  -7 -12   98.89   16.85
  -4  -7 -12   92.42   17.01
  -4  -7 -12   98.70   16.58
  -4  -7 -12   69.41   15.13
  -4  -7 -11  106.14   17.32
  -4  -7 -11  129.20   18.98
  -4  -7 -11  150.57   19.57
  -4  -7 -11   90.25   17.49
  -4  -7 -10   -1.81    9.51
  -4  -7 -10    1.91    6.26
  -4  -7  -9  218.71   22.35
  -4  -7  -9  213.41   23.67
  -4  -7  -9  240.70   24.19
  -4  -7  -8  764.87   48.78
  -4  -7  -8  736.18   49.64
  -4  -7  -8  688.40   49.76
  -4  -7  -7 1228.69   72.82
  -4  -7  -7 1229.57   74.29
  -4  -7  -6  370.82   30.29
  -4  -7  -6  386.86   29.63
  -4  -7  -5   69.48   12.27
  -4  -7  -5   59.86   11.56
  -4  -7  -5   81.24   11.15
  -4  -7  -4  630.82   43.20
  -4  -7  -4  772.39   47.28
  -4  -7  -4  725.24   45.22
  -4  -7  -4  695.51   45.64
  -4  -7  -3 1520.92   87.73
  -4  -7  -3 1631.97   90.00
  -4  -7  -3 1522.79   88.57
  -4  -7  -3 1582.07   88.92
  -4  -7  -2  707.99   46.92
  -4  -7  -2  643.03   45.22
  -4  -7  -2  749.30   46.55
  -4  -7  -1  269.03   23.42
  -4  -7  -1  230.24   23.42
  -4  -7  -1  289.35   24.70
  -4  -7   0   67.88   11.95
  -4  -7   0   62.44   12.83
  -4  -7   0   66.83   13.13
  -4  -7   1  700.62   48.20
  -4  -7   1  618.13   45.74
  -4  -7   2  222.65   24.88
  -4  -7   2  272.54   26.82
  -4  -7   3  140.96   20.20
  -4  -7   3  188.77   23.23
  -4  -7   4   -4.59    8.12
  -4  -7   4   -2.09    8.39
  -4  -7   5  114.72   21.26
  -4  -7   6  207.79   27.62
  -4  -6 -14    2.27    7.73
  -4  -6 -13   19.65   11.05
  -4  -6 -13   60.52   14.36
  -4  -6 -12  264.54   27.38
  -4  -6 -12  237.60   26.75
  -4  -6 -12  197.59   24.90
  -4  -6 -12  289.63   27.70
  -4  -6 -11  406.47   35.93
  -4  -6 -11  466.57   35.14
  -4  -6 -11  387.65   34.61
  -4  -6 -11  359.58   33.96
  -4  -6 -10    1.69    8.89
  -4  -6 -10   -5.53    8.88
  -4  -6 -10   -1.85    6.30
  -4  -6 -10   13.29    8.41
  -4  -6  -9    6.39    8.00
  -4  -6  -9   19.18    9.04
  -4  -6  -8  677.76   43.87
  -4  -6  -8  655.45   45.26
  -4  -6  -8  671.63   46.45
  -4  -6  -7 1111.64   64.74
  -4  -6  -7 1082.60   66.33
  -4  -6  -7 1081.93   67.43
  -4  -6  -6  332.41   27.18
  -4  -6  -6  338.11   26.03
  -4  -6  -5   45.44    8.45
  -4  -6  -5   47.17    9.75
  -4  -6  -5   39.43    8.89
  -4  -6  -4  829.92   51.69
  -4  -6  -4  807.68   50.33
  -4  -6  -4  847.81   49.54
  -4  -6  -4  905.94   53.00
  -4  -6  -3 1204.15   68.05
  -4  -6  -3 1128.25   66.35
  -4  -6  -3 1120.10   67.23
  -4  -6  -3 1215.75   68.75
  -4  -6  -2 1694.14   92.22
  -4  -6  -2 1579.41   91.66
  -4  -6  -2 1662.54   92.46
  -4  -6  -1   46.87    9.17
  -4  -6  -1   42.66    9.87
  -4  -6  -1   53.51   10.86
  -4  -6   0   56.55   10.85
  -4  -6   0   37.16    9.58
  -4  -6   1  263.50   24.78
  -4  -6   1  254.43   24.59
  -4  -6   2  802.26   55.17
  -4  -6   2  834.08   55.37
  -4  -6   3   37.12   10.62
  -4  -6   3   23.49    9.54
  -4  -6   4   63.24   13.80
  -4  -6   4   29.66   10.09
  -4  -6   5  199.00   23.44
  -4  -6   5  166.97   23.25
  -4  -6   6  164.86   22.80
  -4  -5 -14    4.59    9.20
  -4  -5 -13   21.84   10.16
  -4  -5 -12  201.38   24.19
  -4  -5 -12  196.85   23.56
  -4  -5 -12  251.42   25.21
  -4  -5 -12  204.68   23.99
  -4  -5 -11  510.50   39.61
  -4  -5 -11  362.00   36.18
  -4  -5 -11  447.29   38.22
  -4  -5 -11  588.22   39.02
  -4  -5 -10  148.87   19.81
  -4  -5 -10  146.29   19.43
  -4  -5 -10  175.00   19.54
  -4  -5 -10  168.96   20.02
  -4  -5  -9    8.62    6.74
  -4  -5  -9    7.36    8.12
  -4  -5  -9   13.51    8.00
  -4  -5  -9   20.05    8.52
  -4  -5  -8  364.86   27.95
  -4  -5  -8  296.41   27.62
  -4  -5  -7 1148.53   65.73
  -4  -5  -7 1185.02   69.36
  -4  -5  -7 1096.61   67.29
  -4  -5  -6  750.42   48.40
  -4  -5  -6  791.50   47.03
  -4  -5  -6  771.68   49.70
  -4  -5  -5   28.31    6.07
  -4  -5  -5   12.88    6.62
  -4  -5  -5   21.82    6.77
  -4  -5  -4  685.71   40.31
  -4  -5  -4  683.47   42.23
  -4  -5  -4  745.65   44.12
  -4  -5  -4  649.99   40.77
  -4  -5  -3  397.30   27.66
  -4  -5  -3  446.21   29.88
  -4  -5  -3  431.73   28.96
  -4  -5  -3  408.66   28.43
  -4  -5  -2 1366.87   78.79
  -4  -5  -2 1451.46   79.24
  -4  -5  -2 1425.71   79.83
  -4  -5  -1   -4.70    5.66
  -4  -5  -1    6.21    5.51
  -4  -5   0   46.45    9.99
  -4  -5   0   42.39   10.09
  -4  -5   1  637.12   45.64
  -4  -5   1  764.72   48.00
  -4  -5   2 1334.39   81.63
  -4  -5   2 1411.48   82.48
  -4  -5   3  350.25   30.28
  -4  -5   3  333.88   29.98
  -4  -5   4  224.57   24.23
  -4  -5   4  251.86   25.59
  -4  -5   5   73.56   15.17
  -4  -5   5   74.19   14.88
  -4  -5   6  278.79   29.10
  -4  -4 -14   46.96   14.04
  -4  -4 -13   11.13    9.42
  -4  -4 -12  216.49   25.09
  -4  -4 -12  171.48   22.11
  -4  -4 -12  245.37   25.86
  -4  -4 -11  154.51   20.15
  -4  -4 -11  195.05   22.45
  -4  -4 -11  180.74   21.81
  -4  -4 -10  234.58   24.65
  -4  -4 -10  206.53   23.51
  -4  -4 -10  260.77   23.22
  -4  -4 -10  223.31   23.63
  -4  -4  -9   19.76    7.34
  -4  -4  -9    8.52    6.68
  -4  -4  -9   21.64    8.98
  -4  -4  -9   21.62    9.06
  -4  -4  -8  521.63   35.37
  -4  -4  -8  523.03   37.01
  -4  -4  -8  471.58   36.75
  -4  -4  -8  478.33   36.56
  -4  -4  -7  628.03   43.07
  -4  -4  -7  642.19   43.39
  -4  -4  -7  707.34   44.36
  -4  -4  -7  606.95   41.15
  -4  -4  -6  863.00   52.51
  -4  -4  -6  868.10   51.14
  -4  -4  -6  803.48   48.56
  -4  -4  -5   78.12   10.91
  -4  -4  -5   61.91   10.03
  -4  -4  -5   59.14    8.95
  -4  -4  -4  281.92   19.21
  -4  -4  -4  247.43   16.92
  -4  -4  -4  298.86   21.58
  -4  -4  -4  293.33   20.37
  -4  -4  -4  247.69   17.68
  -4  -4  -3 1416.06   74.68
  -4  -4  -3 1292.91   72.84
  -4  -4  -3 1381.83   73.39
  -4  -4  -3 1380.18   74.79
  -4  -4  -3 1188.33   71.62
  -4  -4  -3 1237.87   73.20
  -4  -4  -3 1546.99   73.49
  -4  -4  -3 1509.68   76.18
  -4  -4  -2 1408.46   75.94
  -4  -4  -2 1503.03   78.46
  -4  -4  -2 1602.83   78.09
  -4  -4  -2 1396.68   78.48
  -4  -4  -2 1467.00   78.91
  -4  -4  -2 1528.29   78.25
  -4  -4  -2 1497.44   75.80
  -4  -4  -1  345.85   20.43
  -4  -4  -1  334.83   22.24
  -4  -4  -1  322.15   23.83
  -4  -4  -1  292.31   21.68
  -4  -4  -1  259.34   22.93
  -4  -4  -1  312.08   21.71
  -4  -4   0   45.27    8.66
  -4  -4   0   31.60    8.84
  -4  -4   0   44.05    7.53
  -4  -4   1  203.60   18.22
  -4  -4   1  213.20   20.19
  -4  -4   1  220.25   20.30
  -4  -4   2 1571.94   89.71
  -4  -4   2 1506.71   90.93
  -4  -4   3  903.74   57.30
  -4  -4   3  814.80   55.66
  -4  -4   4   82.40   14.26
  -4  -4   4   88.57   14.80
  -4  -4   5   35.18   11.12
  -4  -4   5   52.99   13.27
  -4  -4   6  339.54   32.02
  -4  -4   6  362.88   33.13
  -4  -4   7  543.72   43.86
  -4  -3 -13   -4.56   10.11
  -4  -3 -12  251.85   27.40
  -4  -3 -12  264.80   27.81
  -4  -3 -11  281.70   28.29
  -4  -3 -11  260.19   27.26
  -4  -3 -11  326.87   30.05
  -4  -3 -10  286.78   26.63
  -4  -3 -10  251.96   25.20
  -4  -3 -10  236.70   25.74
  -4  -3  -9   -8.32    7.20
  -4  -3  -9    6.62    6.45
  -4  -3  -9   -1.71    6.25
  -4  -3  -8  233.03   20.16
  -4  -3  -8  203.38   21.87
  -4  -3  -8  219.19   22.08
  -4  -3  -7  214.86   20.36
  -4  -3  -7  224.55   18.90
  -4  -3  -7  202.30   20.17
  -4  -3  -7  198.04   20.04
  -4  -3  -6  413.54   29.03
  -4  -3  -6  477.63   32.38
  -4  -3  -6  441.41   31.76
  -4  -3  -6  420.16   30.76
  -4  -3  -5   41.88    6.71
  -4  -3  -5   40.38    7.90
  -4  -3  -5   43.93    8.41
  -4  -3  -5   31.50    7.63
  -4  -3  -5   44.42    8.12
  -4  -3  -4  614.94   31.73
  -4  -3  -4  634.81   33.42
  -4  -3  -4  652.48   34.97
  -4  -3  -4  614.22   33.23
  -4  -3  -4  596.10   34.63
  -4  -3  -4  609.18   34.64
  -4  -3  -3 1370.06   62.39
  -4  -3  -3 1257.26   62.68
  -4  -3  -3 1148.43   60.85
  -4  -3  -3 1451.02   64.60
  -4  -3  -3 1341.22   64.15
  -4  -3  -3 1494.65   66.03
  -4  -3  -3 1161.46   62.22
  -4  -3  -2 2243.54  116.92
  -4  -3  -2 2269.63  115.84
  -4  -3  -2 2289.11  117.47
  -4  -3  -2 2150.03  116.05
  -4  -3  -2 2070.28  117.19
  -4  -3  -2 2368.68  119.03
  -4  -3  -2 2410.75  116.86
  -4  -3  -2 2110.87  115.82
  -4  -3  -2 2169.33  116.60
  -4  -3  -1  895.00   49.20
  -4  -3  -1  855.34   47.46
  -4  -3  -1  870.95   50.05
  -4  -3  -1  848.72   49.34
  -4  -3  -1  908.51   47.87
  -4  -3  -1  757.52   47.15
  -4  -3  -1  867.90   47.48
  -4  -3  -1  767.67   46.31
  -4  -3   0  123.88   11.74
  -4  -3   0  115.23   11.10
  -4  -3   0  113.79   10.49
  -4  -3   0  106.58   12.85
  -4  -3   0  136.34   13.27
  -4  -3   1 1351.53   75.83
  -4  -3   1 1326.18   71.90
  -4  -3   1 1300.99   76.44
  -4  -3   2 1054.17   64.81
  -4  -3   2 1137.21   66.31
  -4  -3   3 1671.04   94.46
  -4  -3   3 1628.61   94.99
  -4  -3   4  433.44   34.00
  -4  -3   4  425.69   35.00
  -4  -3   4  415.61   33.75
  -4  -3   5  124.13   17.34
  -4  -3   5   84.26   14.55
  -4  -3   5  112.61   18.39
  -4  -3   6  160.15   20.32
  -4  -3   6  132.16   19.35
  -4  -3   7  402.90   35.74
  -4  -2 -13   18.70   11.29
  -4  -2 -12  178.41   23.44
  -4  -2 -11  187.86   22.17
  -4  -2 -11  154.10   19.91
  -4  -2 -11  147.44   20.50
  -4  -2 -10  158.52   19.66
  -4  -2 -10  166.46   20.41
  -4  -2 -10  159.53   20.04
  -4  -2  -9    5.07    6.77
  -4  -2  -9   -6.74    6.56
  -4  -2  -9    1.75    6.41
  -4  -2  -8  333.08   28.78
  -4  -2  -8  359.71   30.21
  -4  -2  -8  378.38   29.73
  -4  -2  -7  433.16   33.50
  -4  -2  -7  489.66   34.93
  -4  -2  -7  479.26   34.12
  -4  -2  -6  983.66   61.34
  -4  -2  -6 1032.84   57.84
  -4  -2  -6 1002.53   61.61
  -4  -2  -6 1077.98   61.54
  -4  -2  -5  240.38   17.98
  -4  -2  -5  246.54   20.20
  -4  -2  -5  245.83   20.44
  -4  -2  -5  241.91   20.74
  -4  -2  -4   12.26    4.87
  -4  -2  -4    6.52    4.58
  -4  -2  -4    1.45    3.08
  -4  -2  -4   10.01    5.18
  -4  -2  -4    9.70    5.11
  -4  -2  -3  553.83   31.36
  -4  -2  -3  567.46   33.10
  -4  -2  -3  517.98   34.03
  -4  -2  -3  592.92   33.02
  -4  -2  -3  527.20   31.89
  -4  -2  -3  565.96   34.70
  -4  -2  -3  547.43   32.91
  -4  -2  -3  559.68   34.22
  -4  -2  -2 1439.00   76.77
  -4  -2  -2 1389.87   76.74
  -4  -2  -2 1496.32   76.79
  -4  -2  -2 1366.33   76.90
  -4  -2  -2 1348.71   75.83
  -4  -2  -2 1595.98   75.57
  -4  -2  -2 1401.99   76.63
  -4  -2  -2 1407.80   76.50
  -4  -2  -2 1410.23   77.95
  -4  -2  -2 1621.88   77.06
  -4  -2  -2 1497.31   75.83
  -4  -2  -1  517.31   32.08
  -4  -2  -1  542.66   33.25
  -4  -2  -1  453.11   31.91
  -4  -2  -1  571.86   33.50
  -4  -2  -1  582.23   33.06
  -4  -2  -1  562.29   33.79
  -4  -2  -1  460.42   31.90
  -4  -2  -1  588.78   35.69
  -4  -2  -1  578.36   32.15
  -4  -2  -1  481.10   32.78
  -4  -2  -1  585.15   32.55
  -4  -2  -1  586.00   32.13
  -4  -2  -1  568.21   32.23
  -4  -2  -1  586.46   32.67
  -4  -2   0    4.30    4.43
  -4  -2   0    2.86    3.90
  -4  -2   0    5.43    2.71
  -4  -2   0    1.03    3.85
  -4  -2   0    3.76    4.38
  -4  -2   0    6.59    2.73
  -4  -2   0    3.74    5.11
  -4  -2   0    3.93    3.41
  -4  -2   0   11.40    4.23
  -4  -2   0    2.18    4.23
  -4  -2   1  821.30   52.18
  -4  -2   1  885.32   49.98
  -4  -2   2 1892.26   98.54
  -4  -2   2 1796.68  101.60
  -4  -2   2 1720.28  100.78
  -4  -2   3 1503.93   90.00
  -4  -2   3 1615.40   90.31
  -4  -2   4   85.57   14.18
  -4  -2   4  147.10   18.18
  -4  -2   5    1.73    6.12
  -4  -2   5   11.51   10.72
  -4  -2   6  351.68   30.88
  -4  -2   6  344.91   33.27
  -4  -2   7  354.42   32.19
  -4  -2   7  292.17   29.30
  -4  -2   7  338.98   34.04
  -4  -2   8  169.07   25.98
  -4  -1 -12  149.64   21.41
  -4  -1 -11  289.34   28.91
  -4  -1 -11  233.02   26.14
  -4  -1 -11  268.86   27.02
  -4  -1 -10   91.68   15.34
  -4  -1 -10   89.15   15.18
  -4  -1 -10  112.88   17.12
  -4  -1  -9   74.23   14.45
  -4  -1  -9   95.65   14.93
  -4  -1  -9   78.52   13.80
  -4  -1  -8  244.49   23.67
  -4  -1  -8  244.89   23.24
  -4  -1  -8  222.51   23.32
  -4  -1  -7  383.60   32.29
  -4  -1  -7  469.01   34.27
  -4  -1  -7  470.71   33.41
  -4  -1  -6 1052.73   61.66
  -4  -1  -6 1081.91   62.84
  -4  -1  -6  955.15   61.33
  -4  -1  -5  967.19   57.92
  -4  -1  -5  954.11   58.13
  -4  -1  -5  978.92   57.12
  -4  -1  -4    5.26    5.08
  -4  -1  -4   16.67    5.26
  -4  -1  -4    4.06    4.51
  -4  -1  -3  566.21   33.64
  -4  -1  -3  588.35   37.10
  -4  -1  -3  595.33   35.34
  -4  -1  -3  636.03   37.33
  -4  -1  -3  629.84   36.52
  -4  -1  -2 1102.41   58.74
  -4  -1  -2 1230.73   57.64
  -4  -1  -2 1221.87   58.18
  -4  -1  -2 1189.63   62.45
  -4  -1  -2  761.90   58.11
  -4  -1  -2 1159.36   59.80
  -4  -1  -2 1093.95   59.68
  -4  -1  -2 1046.69   57.16
  -4  -1  -2  921.61   58.66
  -4  -1  -2 1092.50   59.88
  -4  -1  -2  997.93   59.21
  -4  -1  -1 2359.27  111.55
  -4  -1  -1 2080.13  111.69
  -4  -1  -1 2153.46  111.29
  -4  -1  -1 2216.26  109.69
  -4  -1  -1 2479.16  111.46
  -4  -1  -1 2191.94  114.46
  -4  -1  -1 2016.84  111.26
  -4  -1  -1 2262.70  116.12
  -4  -1  -1 2135.50  111.52
  -4  -1  -1 2273.74  110.78
  -4  -1   0  134.63   12.64
  -4  -1   0  136.28    9.83
  -4  -1   0  124.29    9.64
  -4  -1   0   97.87    9.00
  -4  -1   0   90.76    9.69
  -4  -1   0  103.97    9.77
  -4  -1   0  123.76   11.20
  -4  -1   0  124.60   13.58
  -4  -1   0  128.36    9.22
  -4  -1   0   97.99   11.18
  -4  -1   1  387.45   30.05
  -4  -1   1  398.45   23.38
  -4  -1   1  416.63   23.60
  -4  -1   1  454.73   25.44
  -4  -1   1  435.80   28.98
  -4  -1   2  387.39   30.10
  -4  -1   2  386.84   27.95
  -4  -1   3  471.37   33.60
  -4  -1   3  486.81   36.44
  -4  -1   4   70.09   15.19
  -4  -1   4   77.10   12.90
  -4  -1   4   45.73   10.21
  -4  -1   5  209.72   24.60
  -4  -1   5  202.94   21.25
  -4  -1   6  437.77   36.21
  -4  -1   6  478.87   40.43
  -4  -1   7  443.38   41.42
  -4  -1   7  461.46   37.35
  -4  -1   8  326.91   35.34
  -4  -1   9   48.98   18.51
  -4  -1  10   34.18   19.47
  -4   0 -12  186.98   24.83
  -4   0 -11  195.46   23.34
  -4   0 -11  219.41   25.04
  -4   0 -11  191.62   23.15
  -4   0 -10  256.24   26.43
  -4   0 -10  269.16   27.00
  -4   0 -10  251.61   27.01
  -4   0  -9  173.99   20.41
  -4   0  -9  153.80   19.75
  -4   0  -9  151.89   19.39
  -4   0  -8   38.55   10.49
  -4   0  -8   46.87   11.05
  -4   0  -8   46.75   10.82
  -4   0  -7  336.15   27.20
  -4   0  -7  303.16   26.54
  -4   0  -7  289.76   26.53
  -4   0  -6 1445.81   85.09
  -4   0  -6 1534.42   84.99
  -4   0  -6 1450.11   85.37
  -4   0  -5  315.50   24.67
  -4   0  -5  307.85   25.16
  -4   0  -5  342.32   26.29
  -4   0  -4  286.73   21.46
  -4   0  -4  263.91   22.17
  -4   0  -4  283.95   22.24
  -4   0  -3  485.49   32.97
  -4   0  -3  570.53   35.97
  -4   0  -3  489.87   33.25
  -4   0  -3  526.51   32.32
  -4   0  -2 2737.39  143.76
  -4   0  -2 2678.17  147.77
  -4   0  -2 2899.13  143.47
  -4   0  -2 2782.08  145.72
  -4   0  -2 2781.19  145.41
  -4   0  -1    7.54    3.84
  -4   0  -1    5.33    4.16
  -4   0  -1    9.67    4.72
  -4   0  -1    4.96    3.80
  -4   0  -1    5.01    2.97
  -4   0   0 1802.10   95.59
  -4   0   0 1830.14   95.42
  -4   0   0 1908.08  102.07
  -4   0   0 1939.24  100.71
  -4   0   0 1772.57   95.67
  -4   0   0 1831.49   93.89
  -4   0   1 1128.11   63.74
  -4   0   1 1100.76   61.50
  -4   0   1 1001.06   54.99
  -4   0   1 1024.26   55.22
  -4   0   2  469.76   35.33
  -4   0   2  464.92   28.31
  -4   0   2  534.88   34.69
  -4   0   3  344.94   27.86
  -4   0   3  332.34   29.39
  -4   0   4  345.67   28.87
  -4   0   4  330.07   30.24
  -4   0   5   20.59   12.08
  -4   0   5   42.45   13.35
  -4   0   6  138.53   18.42
  -4   0   6  176.75   23.87
  -4   0   7  592.81   47.49
  -4   0   7  557.82   42.79
  -4   0   8  177.92   26.81
  -4   0   9   47.84   18.37
  -4   0  10   71.32   21.29
  -4   0  11  200.23   30.87
  -4   1 -11  189.36   23.89
  -4   1 -10  231.51   26.04
  -4   1 -10  286.40   28.56
  -4   1 -10  212.27   25.87
  -4   1  -9   44.79   12.45
  -4   1  -9   47.79   11.68
  -4   1  -9   57.26   12.47
  -4   1  -8    7.11    6.76
  -4   1  -8   29.37    9.99
  -4   1  -8   19.44    9.33
  -4   1  -7  389.23   30.31
  -4   1  -7  310.35   28.46
  -4   1  -7  328.89   29.15
  -4   1  -6 1318.73   79.13
  -4   1  -6 1405.79   79.16
  -4   1  -6 1307.53   79.36
  -4   1  -5  438.17   32.82
  -4   1  -5  445.11   31.72
  -4   1  -5  432.33   32.17
  -4   1  -4   63.52   10.25
  -4   1  -4   61.16   10.78
  -4   1  -4   75.97   11.13
  -4   1  -4   69.74   11.03
  -4   1  -3  225.66   17.72
  -4   1  -3  222.70   20.25
  -4   1  -3  211.95   18.59
  -4   1  -3  189.19   17.73
  -4   1  -2  857.93   52.02
  -4   1  -2  870.22   54.41
  -4   1  -2  928.00   52.71
  -4   1  -2  904.80   50.61
  -4   1  -1  719.87   44.96
  -4   1  -1  696.32   39.50
  -4   1  -1  702.70   41.69
  -4   1  -1  655.95   41.16
  -4   1  -1  746.62   46.33
  -4   1   0   17.79    4.99
  -4   1   0   13.47    6.90
  -4   1   0   19.67    6.41
  -4   1   0   14.86    4.65
  -4   1   1  181.96   18.08
  -4   1   1  153.91   16.13
  -4   1   1  132.87   11.75
  -4   1   1  149.18   11.85
  -4   1   2  591.89   41.44
  -4   1   2  564.46   39.54
  -4   1   3 1207.56   76.82
  -4   1   3 1307.64   76.20
  -4   1   4  364.75   32.66
  -4   1   4  384.77   31.85
  -4   1   5   34.71   11.51
  -4   1   5   14.80   11.18
  -4   1   6  111.41   18.25
  -4   1   6  111.24   19.49
  -4   1   7  841.91   61.74
  -4   1   8  212.44   29.41
  -4   1   9  263.05   34.07
  -4   1  10   24.49   19.86
  -4   1  11   94.75   24.86
  -4   2 -10  212.45   25.86
  -4   2 -10  237.93   27.16
  -4   2  -9   34.32   10.96
  -4   2  -9   41.15   13.04
  -4   2  -9   45.98   12.79
  -4   2  -8   11.29    9.24
  -4   2  -8    1.89    7.79
  -4   2  -8    5.87    8.26
  -4   2  -7  443.33   35.76
  -4   2  -7  490.43   36.50
  -4   2  -7  436.19   35.76
  -4   2  -7  415.95   35.43
  -4   2  -6  361.10   30.34
  -4   2  -6  371.34   31.16
  -4   2  -6  420.79   31.15
  -4   2  -6  306.75   29.51
  -4   2  -5  354.86   29.70
  -4   2  -5  314.42   27.75
  -4   2  -5  335.46   28.68
  -4   2  -5  393.47   28.75
  -4   2  -4    8.05    6.46
  -4   2  -4    5.84    7.31
  -4   2  -4    4.48    5.28
  -4   2  -4   -1.39    6.80
  -4   2  -3  395.55   31.17
  -4   2  -3  428.19   30.38
  -4   2  -3  420.08   28.63
  -4   2  -3  407.28   30.38
  -4   2  -2  750.59   46.17
  -4   2  -2  768.74   44.41
  -4   2  -2  717.93   46.20
  -4   2  -2  744.69   48.30
  -4   2  -1  955.00   59.40
  -4   2  -1  941.93   53.58
  -4   2  -1 1025.43   60.79
  -4   2  -1 1012.24   56.76
  -4   2  -1  921.48   55.67
  -4   2   0  447.96   33.20
  -4   2   0  433.46   29.24
  -4   2   0  460.90   34.06
  -4   2   0  475.00   30.00
  -4   2   1    0.74    4.26
  -4   2   1   17.42    6.86
  -4   2   1   11.69    5.37
  -4   2   1    6.17    6.36
  -4   2   2  338.21   28.42
  -4   2   2  332.77   29.27
  -4   2   3 1259.94   75.15
  -4   2   3 1162.45   74.69
  -4   2   4  473.81   38.82
  -4   2   4  534.00   40.93
  -4   2   5   52.17   13.35
  -4   2   5   78.37   16.73
  -4   2   6  141.91   22.12
  -4   2   6  108.42   19.59
  -4   2   7  865.46   62.70
  -4   2   7  830.11   59.99
  -4   2   8  300.59   34.89
  -4   2   8  431.01   37.90
  -4   2   9  153.45   27.22
  -4   2  10    3.10   16.05
  -4   2  11   78.00   23.29
  -4   3  -9   57.78   14.43
  -4   3  -9   43.26   13.61
  -4   3  -9   44.86   13.14
  -4   3  -8    8.09    8.54
  -4   3  -8   -2.10    7.94
  -4   3  -8   16.02   10.87
  -4   3  -7   59.01   13.63
  -4   3  -7   74.03   14.24
  -4   3  -7   91.75   15.54
  -4   3  -6  683.43   47.21
  -4   3  -6  581.79   45.81
  -4   3  -6  686.24   46.77
  -4   3  -6  694.82   48.22
  -4   3  -5  126.40   17.38
  -4   3  -5  172.54   18.51
  -4   3  -5  150.12   18.53
  -4   3  -5  146.97   18.34
  -4   3  -4   16.49    8.03
  -4   3  -4    6.47    5.54
  -4   3  -4   13.01    7.69
  -4   3  -4   17.08    8.18
  -4   3  -3   21.91    8.01
  -4   3  -3   31.20    8.21
  -4   3  -3   37.39    9.62
  -4   3  -3   32.67    8.92
  -4   3  -2  815.90   52.15
  -4   3  -2  863.53   54.74
  -4   3  -2  810.54   52.57
  -4   3  -2  888.62   50.62
  -4   3  -1  853.64   57.04
  -4   3  -1  889.25   53.92
  -4   3  -1  899.46   54.75
  -4   3  -1  939.78   57.58
  -4   3   0  439.34   30.87
  -4   3   0  430.35   34.74
  -4   3   0  448.08   34.89
  -4   3   0  515.29   32.51
  -4   3   1   32.52    7.81
  -4   3   1   27.05    7.66
  -4   3   1   22.77    8.34
  -4   3   1    9.79    6.80
  -4   3   2  321.04   28.17
  -4   3   2  294.90   27.73
  -4   3   3 1555.59   91.23
  -4   3   3 1445.84   89.98
  -4   3   4  906.99   61.31
  -4   3   4  889.05   60.88
  -4   3   5  156.32   21.83
  -4   3   5  136.13   20.72
  -4   3   6   16.03   12.04
  -4   3   6   -7.20   12.20
  -4   3   7  350.73   36.65
  -4   3   7  407.47   37.83
  -4   3   8  180.42   25.70
  -4   3   8  231.76   29.18
  -4   3   9  101.62   20.23
  -4   3   9   86.45   21.58
  -4   3  10   18.93   17.14
  -4   3  11  111.45   25.56
  -4   4  -8   12.66   11.82
  -4   4  -8   20.33   11.12
  -4   4  -8   17.20   11.15
  -4   4  -7  186.09   24.35
  -4   4  -7  259.89   26.14
  -4   4  -7  200.52   24.50
  -4   4  -6  286.69   27.97
  -4   4  -6  311.61   29.48
  -4   4  -6  307.60   29.88
  -4   4  -5  523.11   40.75
  -4   4  -5  580.57   40.56
  -4   4  -5  503.07   40.85
  -4   4  -4  125.73   17.13
  -4   4  -4  135.20   17.10
  -4   4  -4   98.69   15.61
  -4   4  -4  105.37   15.87
  -4   4  -3   55.75   11.22
  -4   4  -3   75.67   12.93
  -4   4  -3   66.06   12.27
  -4   4  -3   58.31   12.81
  -4   4  -2  199.55   19.91
  -4   4  -2  178.12   20.31
  -4   4  -2  197.94   20.47
  -4   4  -1 1391.29   84.35
  -4   4  -1 1389.59   84.57
  -4   4  -1 1437.74   81.99
  -4   4  -1 1439.12   82.40
  -4   4   0  635.29   45.19
  -4   4   0  687.31   42.63
  -4   4   0  622.15   44.95
  -4   4   0  582.30   40.69
  -4   4   1   97.33   15.61
  -4   4   1  115.31   16.91
  -4   4   1   97.97   13.48
  -4   4   1  101.46   13.81
  -4   4   2  177.35   20.17
  -4   4   2  162.74   20.04
  -4   4   2  136.01   15.97
  -4   4   2  184.79   16.91
  -4   4   3  723.75   51.94
  -4   4   3  706.73   50.83
  -4   4   4  656.42   49.90
  -4   4   4  669.05   49.47
  -4   4   5   25.64   11.75
  -4   4   5   36.45   12.26
  -4   4   6    4.92   10.91
  -4   4   6    9.76   11.30
  -4   4   7  320.93   34.48
  -4   4   7  345.82   35.71
  -4   4   8  322.92   34.94
  -4   4   8  261.58   31.98
  -4   4   9   68.86   19.09
  -4   4   9   74.84   20.58
  -4   4  10   12.67   16.40
  -4   4  10   20.15   16.33
  -4   4  11   79.03   23.60
  -4   5  -7   89.96   16.84
  -4   5  -7   89.48   16.73
  -4   5  -7   74.03   16.00
  -4   5  -6  181.61   23.62
  -4   5  -6  213.27   25.01
  -4   5  -6  211.14   24.00
  -4   5  -5  196.45   22.33
  -4   5  -5  191.23   22.48
  -4   5  -5  153.62   21.43
  -4   5  -4  177.72   22.25
  -4   5  -4  209.61   22.81
  -4   5  -4  200.43   21.70
  -4   5  -3   81.81   13.64
  -4   5  -3   64.10   13.44
  -4   5  -2  342.06   31.34
  -4   5  -2  366.78   30.63
  -4   5  -2  386.80   31.64
  -4   5  -1 1047.28   63.99
  -4   5  -1  960.70   64.84
  -4   5  -1 1033.26   64.54
  -4   5  -1 1055.45   66.63
  -4   5   0  956.91   62.42
  -4   5   0  962.72   59.73
  -4   5   0  959.88   58.88
  -4   5   0  867.95   60.45
  -4   5   1   49.28   11.56
  -4   5   1   43.34   10.59
  -4   5   1   39.59   11.32
  -4   5   1   63.23   11.53
  -4   5   2   28.78   10.48
  -4   5   2   12.58    9.13
  -4   5   2   24.71    9.55
  -4   5   2   19.35    7.87
  -4   5   3  533.93   43.14
  -4   5   3  519.01   41.22
  -4   5   4  375.10   34.91
  -4   5   4  403.80   37.24
  -4   5   5  144.25   21.46
  -4   5   5   90.62   17.03
  -4   5   6   46.97   14.34
  -4   5   6   33.94   14.51
  -4   5   7   51.94   16.72
  -4   5   7   50.10   15.75
  -4   5   8  350.43   38.27
  -4   5   8  378.55   38.91
  -4   5   9  122.85   23.47
  -4   5   9  128.72   25.48
  -4   5  10   15.16   15.95
  -4   5  10    9.51   17.98
  -4   5  11    6.19   16.01
  -4   5  11   -3.29   17.01
  -4   6  -6  144.52   22.43
  -4   6  -6  174.62   24.10
  -4   6  -6  214.29   24.30
  -4   6  -5  177.05   23.29
  -4   6  -5  155.35   22.82
  -4   6  -5  156.47   20.69
  -4   6  -4  326.56   32.61
  -4   6  -4  371.24   34.09
  -4   6  -3   43.32   14.22
  -4   6  -3   77.94   15.34
  -4   6  -2   80.23   15.91
  -4   6  -2   88.53   15.65
  -4   6  -1  491.35   41.38
  -4   6  -1  539.87   40.49
  -4   6  -1  566.75   42.01
  -4   6   0  295.02   30.18
  -4   6   0  309.87   29.36
  -4   6   1    3.36    9.38
  -4   6   1    6.43    7.84
  -4   6   1   -3.16    8.58
  -4   6   2  121.02   17.09
  -4   6   2  100.27   15.98
  -4   6   2   70.49   16.06
  -4   6   3  649.75   50.03
  -4   6   3  754.04   54.30
  -4   6   4  337.33   32.67
  -4   6   4  391.29   36.74
  -4   6   5  377.26   36.86
  -4   6   5  325.65   33.72
  -4   6   6   -5.00   12.50
  -4   6   6    2.76   10.41
  -4   6   7  132.07   24.40
  -4   6   7   95.10   19.27
  -4   6   8  129.98   24.74
  -4   6   8  138.13   24.14
  -4   6   9  377.25   41.21
  -4   6   9  367.08   39.12
  -4   6  10    9.51   16.69
  -4   6  10   21.96   15.70
  -4   6  11   29.06   17.54
  -4   6  11    9.80   16.93
  -4   7  -4   85.91   19.30
  -4   7  -4  103.33   18.48
  -4   7  -3    6.45   10.57
  -4   7  -3   11.43   12.96
  -4   7  -2  148.50   21.68
  -4   7  -2  135.73   19.71
  -4   7  -1  377.66   33.21
  -4   7  -1  344.63   33.01
  -4   7   0  116.81   18.92
  -4   7   0  158.02   20.99
  -4   7   1   36.66   12.75
  -4   7   1   38.11   12.61
  -4   7   1   34.86   12.35
  -4   7   2   66.72   14.46
  -4   7   2   98.74   16.45
  -4   7   2   63.46   15.56
  -4   7   3  390.70   37.74
  -4   7   4  267.90   30.89
  -4   7   5  330.58   35.77
  -4   7   6   23.12   14.23
  -4   7   7   65.91   19.05
  -4   7   8  467.38   44.04
  -4   7   8  495.23   48.12
  -4   7   9  433.51   41.46
  -4   7   9  317.53   39.29
  -4   7  10  117.76   24.20
  -4   7  10  111.64   22.82
  -4   8  -3    7.48   12.69
  -4   8  -2   63.39   16.25
  -4   8  -2   81.90   17.83
  -4   8  -1  237.11   28.59
  -4   8  -1  253.53   28.50
  -4   8   0  187.95   23.95
  -4   8   0  202.20   26.38
  -4   8   1   52.22   15.27
  -4   8   1   40.87   14.75
  -4   8   2   -6.40   11.03
  -4   8   2   13.86   11.22
  -4   8   3  282.79   31.66
  -4   8   4  275.59   31.86
  -4   8   5  402.99   40.53
  -4   8   6   27.05   14.53
  -4   8   7   71.41   21.83
  -4   8   8  210.80   31.05
  -4   8   9  262.84   35.99
  -4   9   0  164.51   24.45
  -4   9   0  162.96   23.64
  -4   9   1   40.66   13.45
  -4   9   1   34.10   14.48
  -4   9   2    2.38   11.88
  -4   9   2    4.39   10.77
  -4   9   4  288.18   33.82
  -4   9   5  269.36   32.99
  -4   9   6   98.48   21.52
  -4   9   7   37.95   17.77
  -4   9   8  132.90   25.54
  -3 -13 -10  438.15   39.63
  -3 -13 -10  392.11   36.95
  -3 -13  -9  197.33   26.53
  -3 -13  -8   19.20   11.82
  -3 -13  -7   73.21   16.65
  -3 -13  -7   46.91   15.46
  -3 -13  -6  289.66   31.54
  -3 -13  -6  306.71   31.81
  -3 -13  -5  154.75   22.16
  -3 -13  -5  187.54   25.49
  -3 -13  -4  205.25   28.09
  -3 -13  -4  237.22   28.39
  -3 -13  -3   47.24   15.94
  -3 -13  -3   17.69   13.79
  -3 -13  -2   61.00   17.61
  -3 -12 -12   -2.44   11.96
  -3 -12 -12   -2.36   10.71
  -3 -12 -11  248.45   29.17
  -3 -12 -11  290.68   31.04
  -3 -12 -10  266.51   30.30
  -3 -12 -10  280.45   29.50
  -3 -12  -9  170.47   22.41
  -3 -12  -9  195.03   24.97
  -3 -12  -8   42.63   12.08
  -3 -12  -8   38.62   13.20
  -3 -12  -7  101.76   18.82
  -3 -12  -7  120.87   19.71
  -3 -12  -7  115.82   17.49
  -3 -12  -6  272.01   28.78
  -3 -12  -6  254.09   26.32
  -3 -12  -6  250.37   27.45
  -3 -12  -5  489.29   40.32
  -3 -12  -5  457.57   40.36
  -3 -12  -4  199.05   25.83
  -3 -12  -4  175.30   23.73
  -3 -12  -4  224.61   25.23
  -3 -12  -3    4.87   14.19
  -3 -12  -3    4.66   13.02
  -3 -12  -3   12.30   10.25
  -3 -12  -2  170.25   24.70
  -3 -12  -2  187.92   26.66
  -3 -12  -1  207.72   27.81
  -3 -12  -1  229.42   29.05
  -3 -12   0  178.25   25.84
  -3 -12   0  196.57   27.75
  -3 -11 -13   61.06   16.42
  -3 -11 -12    4.63   11.35
  -3 -11 -12    4.63   10.48
  -3 -11 -11  188.30   24.25
  -3 -11 -11  206.49   25.24
  -3 -11 -10  329.56   32.57
  -3 -11 -10  348.63   33.87
  -3 -11  -9  370.75   33.01
  -3 -11  -9  294.15   31.41
  -3 -11  -8   53.17   13.62
  -3 -11  -8   48.92   14.57
  -3 -11  -7   15.50   11.31
  -3 -11  -7   23.71   10.59
  -3 -11  -7    8.26   10.89
  -3 -11  -6  463.84   39.40
  -3 -11  -6  504.82   39.53
  -3 -11  -6  521.81   40.69
  -3 -11  -5  404.63   35.49
  -3 -11  -5  480.05   39.11
  -3 -11  -5  468.09   37.69
  -3 -11  -4  226.64   25.02
  -3 -11  -4  219.48   25.03
  -3 -11  -4  201.00   22.64
  -3 -11  -4  191.56   23.03
  -3 -11  -3   15.58   11.32
  -3 -11  -3   -5.74    8.85
  -3 -11  -3   10.58   12.15
  -3 -11  -3   -5.47    6.67
  -3 -11  -2  241.63   27.66
  -3 -11  -2  239.94   27.70
  -3 -11  -2  210.62   23.96
  -3 -11  -1  704.56   54.69
  -3 -11  -1  759.25   55.57
  -3 -11   0  231.11   29.11
  -3 -11   0  207.85   27.22
  -3 -11   1   75.17   17.77
  -3 -11   1  106.69   21.22
  -3 -11   2   13.92   13.15
  -3 -11   2   10.20   12.30
  -3 -10 -13   88.76   18.04
  -3 -10 -13  110.64   19.65
  -3 -10 -12   49.90   15.32
  -3 -10 -12   31.51   13.41
  -3 -10 -11   42.48   13.44
  -3 -10 -11   34.56   12.04
  -3 -10 -10  208.82   24.47
  -3 -10 -10  223.06   24.65
  -3 -10  -9  238.92   25.95
  -3 -10  -9  190.74   23.58
  -3 -10  -8   40.84   12.25
  -3 -10  -8   15.76   10.44
  -3 -10  -7  157.86   20.48
  -3 -10  -7  123.30   17.95
  -3 -10  -7  117.82   18.33
  -3 -10  -6  734.74   52.13
  -3 -10  -6  747.04   51.79
  -3 -10  -6  793.25   52.80
  -3 -10  -5 1031.99   63.81
  -3 -10  -5  916.94   62.70
  -3 -10  -5  968.07   62.63
  -3 -10  -4  474.11   36.14
  -3 -10  -4  455.06   37.20
  -3 -10  -4  390.19   34.51
  -3 -10  -4  459.33   35.88
  -3 -10  -3    6.00   10.01
  -3 -10  -3    8.79    8.80
  -3 -10  -3   22.11    8.82
  -3 -10  -3   11.31   10.25
  -3 -10  -2  227.30   24.03
  -3 -10  -2  298.42   28.27
  -3 -10  -2  241.18   26.68
  -3 -10  -2  215.93   23.17
  -3 -10  -1  382.22   33.42
  -3 -10  -1  470.03   38.60
  -3 -10  -1  406.07   33.77
  -3 -10  -1  431.91   37.18
  -3 -10   0  531.15   43.91
  -3 -10   0  494.71   42.37
  -3 -10   1   83.32   17.20
  -3 -10   1  120.55   20.96
  -3 -10   2    7.78   13.86
  -3 -10   2    4.77   12.74
  -3 -10   3   73.27   19.69
  -3  -9 -14  220.06   27.16
  -3  -9 -13   95.42   18.18
  -3  -9 -12    8.07   11.12
  -3  -9 -12    6.51    9.84
  -3  -9 -11   74.70   15.54
  -3  -9 -11   76.70   15.50
  -3  -9 -10  415.37   34.87
  -3  -9 -10  498.53   36.79
  -3  -9  -9  644.52   47.59
  -3  -9  -9  672.15   48.00
  -3  -9  -8  104.59   16.58
  -3  -9  -8   88.46   15.88
  -3  -9  -7   27.97   11.32
  -3  -9  -7   36.79   10.84
  -3  -9  -7   33.02   11.60
  -3  -9  -6  615.54   44.13
  -3  -9  -6  650.53   44.69
  -3  -9  -6  594.65   42.85
  -3  -9  -5 1125.70   68.91
  -3  -9  -5 1085.18   68.77
  -3  -9  -5 1123.50   69.13
  -3  -9  -4  178.82   20.07
  -3  -9  -4  133.33   19.14
  -3  -9  -4  195.80   20.19
  -3  -9  -4  180.62   19.85
  -3  -9  -3   89.39   14.21
  -3  -9  -3   87.61   14.42
  -3  -9  -3   90.68   15.74
  -3  -9  -3   95.24   16.67
  -3  -9  -2  500.86   38.13
  -3  -9  -2  546.47   40.44
  -3  -9  -2  506.59   38.39
  -3  -9  -2  557.93   41.02
  -3  -9  -1  670.64   47.65
  -3  -9  -1  598.30   44.45
  -3  -9  -1  700.30   48.58
  -3  -9   0  788.26   54.65
  -3  -9   0  769.48   50.96
  -3  -9   0  702.47   52.86
  -3  -9   1  274.97   26.73
  -3  -9   1  311.72   31.64
  -3  -9   1  298.96   29.79
  -3  -9   2   21.75   10.94
  -3  -9   2   28.46   13.68
  -3  -9   3   72.78   17.48
  -3  -9   3  103.52   17.68
  -3  -9   4  260.65   31.34
  -3  -9   5   87.44   19.79
  -3  -8 -14  258.13   29.48
  -3  -8 -13  215.61   26.15
  -3  -8 -12   58.54   15.06
  -3  -8 -11   74.50   14.22
  -3  -8 -11   61.51   14.97
  -3  -8 -11   89.97   16.45
  -3  -8 -10  422.30   33.51
  -3  -8 -10  327.91   31.61
  -3  -8 -10  396.32   33.51
  -3  -8  -9  608.57   39.72
  -3  -8  -9  526.86   39.01
  -3  -8  -8  311.12   27.46
  -3  -8  -8  283.36   26.90
  -3  -8  -7  257.36   23.88
  -3  -8  -7  232.14   23.64
  -3  -8  -6  252.75   23.64
  -3  -8  -6  252.10   22.50
  -3  -8  -6  222.93   22.93
  -3  -8  -5 1402.76   83.59
  -3  -8  -5 1444.46   83.00
  -3  -8  -5 1449.22   83.80
  -3  -8  -4 1015.15   59.19
  -3  -8  -4  939.45   59.57
  -3  -8  -4  977.23   60.11
  -3  -8  -4  910.47   59.36
  -3  -8  -3   25.73    8.18
  -3  -8  -3   33.82   12.18
  -3  -8  -3   15.67    8.15
  -3  -8  -3   22.88   10.04
  -3  -8  -2   37.05    9.03
  -3  -8  -2   40.26   11.32
  -3  -8  -2   12.88    7.03
  -3  -8  -2   41.64   10.68
  -3  -8  -1  855.66   55.99
  -3  -8  -1  813.11   53.15
  -3  -8  -1  843.67   55.33
  -3  -8   0  530.21   39.88
  -3  -8   0  625.35   43.51
  -3  -8   0  615.87   44.37
  -3  -8   1  220.63   24.68
  -3  -8   1  169.51   20.97
  -3  -8   1  169.59   19.10
  -3  -8   2    7.82    9.60
  -3  -8   2    3.13    6.62
  -3  -8   2    8.55   12.61
  -3  -8   3  257.72   26.28
  -3  -8   3  198.79   26.11
  -3  -8   4  448.20   42.39
  -3  -8   4  561.74   42.47
  -3  -8   5  244.42   29.97
  -3  -8   6   74.01   18.54
  -3  -7 -14  129.57   21.02
  -3  -7 -13  257.38   28.14
  -3  -7 -12   54.07   12.47
  -3  -7 -12   44.12   12.80
  -3  -7 -11  153.06   19.90
  -3  -7 -11  108.82   16.89
  -3  -7 -10  430.26   32.49
  -3  -7 -10  407.47   32.91
  -3  -7  -9  612.38   46.78
  -3  -7  -9  701.17   47.97
  -3  -7  -9  741.44   47.17
  -3  -7  -8  699.58   48.14
  -3  -7  -8  657.31   48.25
  -3  -7  -8  793.56   48.79
  -3  -7  -7    9.83    9.14
  -3  -7  -7   24.24    8.75
  -3  -7  -6   69.93   12.64
  -3  -7  -6   75.93   12.77
  -3  -7  -6   72.99   11.85
  -3  -7  -5  610.79   41.47
  -3  -7  -5  651.66   42.64
  -3  -7  -5  624.31   40.81
  -3  -7  -4  528.21   36.68
  -3  -7  -4  577.62   35.78
  -3  -7  -4  510.30   36.81
  -3  -7  -4  516.67   36.29
  -3  -7  -3  364.52   27.35
  -3  -7  -3  352.58   26.97
  -3  -7  -3  335.27   26.89
  -3  -7  -3  320.40   26.43
  -3  -7  -2  238.55   21.80
  -3  -7  -2  231.01   20.84
  -3  -7  -2  219.90   20.98
  -3  -7  -1  375.32   28.45
  -3  -7  -1  392.46   29.94
  -3  -7  -1  332.37   29.41
  -3  -7   0  909.44   58.38
  -3  -7   0  879.21   55.66
  -3  -7   0  922.23   58.02
  -3  -7   1  677.18   44.58
  -3  -7   1  666.14   47.46
  -3  -7   1  646.78   45.79
  -3  -7   2   50.73   11.90
  -3  -7   2   43.10   10.22
  -3  -7   2   43.72   14.09
  -3  -7   3  110.75   18.84
  -3  -7   3  118.44   17.18
  -3  -7   4  523.86   42.66
  -3  -7   4  485.72   39.65
  -3  -7   5  297.02   31.57
  -3  -7   6    2.46   12.93
  -3  -6 -14  170.88   22.94
  -3  -6 -13  348.46   32.70
  -3  -6 -12   93.56   15.70
  -3  -6 -12   96.26   16.33
  -3  -6 -11   14.84    8.42
  -3  -6 -11    5.39    8.17
  -3  -6 -11   14.42    8.36
  -3  -6 -11   19.80   11.29
  -3  -6 -10  164.68   20.22
  -3  -6 -10  191.47   21.02
  -3  -6  -9  869.67   54.79
  -3  -6  -9  761.45   53.72
  -3  -6  -9  868.24   53.28
  -3  -6  -8  209.36   20.59
  -3  -6  -8  209.03   21.39
  -3  -6  -8  216.50   21.54
  -3  -6  -7  218.41   20.63
  -3  -6  -7  188.72   19.52
  -3  -6  -7  204.40   20.02
  -3  -6  -6  103.73   12.31
  -3  -6  -6   96.65   13.46
  -3  -6  -6  129.62   14.14
  -3  -6  -5  932.48   53.72
  -3  -6  -5  875.13   53.86
  -3  -6  -5  844.29   51.25
  -3  -6  -4  838.59   47.11
  -3  -6  -4  764.47   49.06
  -3  -6  -4  781.24   47.87
  -3  -6  -4  802.48   48.98
  -3  -6  -3  694.77   41.96
  -3  -6  -3  621.71   40.29
  -3  -6  -3  665.83   41.91
  -3  -6  -3  634.94   41.07
  -3  -6  -2   40.47    8.60
  -3  -6  -2   54.30    9.59
  -3  -6  -2   52.76    9.92
  -3  -6  -1  589.11   38.27
  -3  -6  -1  542.86   37.51
  -3  -6  -1  549.44   36.91
  -3  -6   0  841.22   52.93
  -3  -6   0  893.04   55.19
  -3  -6   0  890.90   54.87
  -3  -6   1  630.53   44.31
  -3  -6   1  667.98   44.48
  -3  -6   2   85.79   13.66
  -3  -6   2   93.76   14.73
  -3  -6   3  239.39   24.82
  -3  -6   3  223.71   22.82
  -3  -6   4  704.14   52.09
  -3  -6   4  783.25   52.00
  -3  -6   5  418.74   36.50
  -3  -6   6  115.23   20.03
  -3  -5 -14  210.06   25.05
  -3  -5 -13  221.47   25.16
  -3  -5 -12   91.27   15.92
  -3  -5 -12   96.01   17.35
  -3  -5 -11    5.24    5.47
  -3  -5 -11    3.57    8.09
  -3  -5 -11    5.14    8.56
  -3  -5 -11   -3.61    6.83
  -3  -5 -10  314.28   27.43
  -3  -5 -10  335.41   27.64
  -3  -5 -10  258.61   26.05
  -3  -5 -10  277.99   26.40
  -3  -5  -9  264.47   23.77
  -3  -5  -9  222.54   22.92
  -3  -5  -8  982.81   66.07
  -3  -5  -8 1107.04   66.57
  -3  -5  -7  169.46   17.59
  -3  -5  -7  158.95   17.22
  -3  -5  -7  172.54   16.72
  -3  -5  -6  112.49   14.16
  -3  -5  -6  100.16   12.65
  -3  -5  -6  119.51   13.94
  -3  -5  -5  228.20   20.21
  -3  -5  -5  260.11   19.85
  -3  -5  -5  245.44   18.00
  -3  -5  -4 2048.15  117.09
  -3  -5  -4 2372.39  119.55
  -3  -5  -4 2249.97  116.41
  -3  -5  -4 2385.80  120.78
  -3  -5  -4 2219.73  117.65
  -3  -5  -3  259.01   18.64
  -3  -5  -3  293.76   19.74
  -3  -5  -3  273.23   20.58
  -3  -5  -3  265.68   21.19
  -3  -5  -3  264.37   20.09
  -3  -5  -2   92.59   10.78
  -3  -5  -2   99.93   11.29
  -3  -5  -2   90.35   11.18
  -3  -5  -1 1341.79   76.74
  -3  -5  -1 1310.66   75.13
  -3  -5  -1 1391.81   76.14
  -3  -5   0 1527.97   80.44
  -3  -5   0 1663.53   76.55
  -3  -5   0 1440.62   79.88
  -3  -5   1 1010.54   62.84
  -3  -5   1 1073.55   63.09
  -3  -5   2   56.24   11.91
  -3  -5   2   65.22   11.75
  -3  -5   3  199.95   21.10
  -3  -5   3  255.82   23.87
  -3  -5   4  529.63   37.94
  -3  -5   4  425.80   35.11
  -3  -5   5  464.02   38.59
  -3  -5   5  494.15   38.10
  -3  -5   6  183.50   22.43
  -3  -4 -13  208.23   25.01
  -3  -4 -12  121.02   18.39
  -3  -4 -12  141.61   19.35
  -3  -4 -11   26.81    9.20
  -3  -4 -11   27.62    9.61
  -3  -4 -11   30.28    8.85
  -3  -4 -11   29.40   10.78
  -3  -4 -10  117.41   16.83
  -3  -4 -10  134.79   16.62
  -3  -4 -10  122.95   16.83
  -3  -4 -10  133.08   17.17
  -3  -4  -9  620.15   42.26
  -3  -4  -9  654.49   41.55
  -3  -4  -9  528.37   40.69
  -3  -4  -9  588.01   41.70
  -3  -4  -8  335.70   27.90
  -3  -4  -8  359.71   27.56
  -3  -4  -8  366.80   28.43
  -3  -4  -8  323.09   27.85
  -3  -4  -7  594.09   39.54
  -3  -4  -7  622.37   38.05
  -3  -4  -7  615.90   40.91
  -3  -4  -6  299.52   23.27
  -3  -4  -6  284.53   22.00
  -3  -4  -6  349.89   25.24
  -3  -4  -5 1654.14   88.77
  -3  -4  -5 1642.07   84.40
  -3  -4  -5 1679.74   87.24
  -3  -4  -5 1419.84   85.59
  -3  -4  -5 1752.76   90.01
  -3  -4  -4 1234.60   69.15
  -3  -4  -4 1333.36   69.76
  -3  -4  -4 1317.93   70.90
  -3  -4  -4 1399.82   74.01
  -3  -4  -4 1380.71   71.10
  -3  -4  -4 1305.91   72.38
  -3  -4  -4 1418.31   73.10
  -3  -4  -3 1424.82   69.07
  -3  -4  -3 1354.98   65.04
  -3  -4  -3 1221.73   66.29
  -3  -4  -3 1365.55   68.18
  -3  -4  -3 1019.76   68.24
  -3  -4  -3 1223.38   65.25
  -3  -4  -3 1255.51   68.52
  -3  -4  -3 1427.94   69.49
  -3  -4  -3 1478.50   69.65
  -3  -4  -3 1319.44   67.05
  -3  -4  -3 1325.16   66.36
  -3  -4  -2   21.13    6.42
  -3  -4  -2   42.62    6.60
  -3  -4  -2   45.21    6.60
  -3  -4  -2   36.61    7.98
  -3  -4  -2    3.65    7.01
  -3  -4  -2   37.54    5.71
  -3  -4  -2   16.20    6.06
  -3  -4  -2   36.70    4.70
  -3  -4  -2   22.27    5.79
  -3  -4  -2   25.05    7.33
  -3  -4  -2   64.70    7.89
  -3  -4  -1 1497.36   73.84
  -3  -4  -1 1478.64   73.82
  -3  -4  -1 1418.97   78.74
  -3  -4  -1 1309.25   74.55
  -3  -4  -1 1451.60   78.53
  -3  -4  -1 1458.71   77.98
  -3  -4  -1 1447.23   76.67
  -3  -4  -1 1314.24   76.51
  -3  -4   0 1628.38   81.89
  -3  -4   0 1418.41   81.05
  -3  -4   0 1523.68   78.22
  -3  -4   0 1619.79   85.87
  -3  -4   0 1380.56   81.47
  -3  -4   0 1777.53   83.59
  -3  -4   0 1648.86   86.25
  -3  -4   1  929.14   51.29
  -3  -4   1  888.05   54.79
  -3  -4   1  891.56   54.92
  -3  -4   2  295.31   22.81
  -3  -4   2  318.16   25.41
  -3  -4   2  305.86   25.29
  -3  -4   3  224.81   21.37
  -3  -4   3  198.52   20.42
  -3  -4   4  301.89   25.71
  -3  -4   4  260.99   25.30
  -3  -4   5  970.26   62.31
  -3  -4   5  960.62   61.71
  -3  -4   6  293.83   27.91
  -3  -3 -13  110.42   18.86
  -3  -3 -12   75.33   14.86
  -3  -3 -11   16.42    8.97
  -3  -3 -11    9.37    9.23
  -3  -3 -10   77.02   12.78
  -3  -3 -10   70.04   12.66
  -3  -3 -10   64.65   12.20
  -3  -3 -10   96.46   14.23
  -3  -3  -9 1270.13   76.27
  -3  -3  -9 1267.88   74.35
  -3  -3  -9 1258.93   76.23
  -3  -3  -9 1309.00   76.50
  -3  -3  -8  989.26   59.58
  -3  -3  -8  963.14   57.56
  -3  -3  -8  926.03   59.46
  -3  -3  -8  975.59   59.61
  -3  -3  -7  597.27   38.08
  -3  -3  -7  557.02   35.85
  -3  -3  -7  534.81   37.72
  -3  -3  -7  514.74   37.24
  -3  -3  -6   42.99    8.75
  -3  -3  -6   47.84    7.40
  -3  -3  -6   51.08    9.11
  -3  -3  -6   48.12    9.24
  -3  -3  -6   37.07    8.09
  -3  -3  -5 1249.34   73.77
  -3  -3  -5 1373.82   72.59
  -3  -3  -5 1449.17   76.20
  -3  -3  -4 1658.91   88.80
  -3  -3  -4 1888.73   88.08
  -3  -3  -4 1621.69   84.88
  -3  -3  -4 1894.75   89.62
  -3  -3  -4 1896.95   88.36
  -3  -3  -4 1840.23   85.04
  -3  -3  -4 1591.29   85.33
  -3  -3  -4 2073.55   91.58
  -3  -3  -3  843.60   43.98
  -3  -3  -3  806.75   42.29
  -3  -3  -3  416.63   41.31
  -3  -3  -3  588.67   40.41
  -3  -3  -3  812.97   41.14
  -3  -3  -3  849.64   43.56
  -3  -3  -3  798.02   43.21
  -3  -3  -3  744.63   43.55
  -3  -3  -3  632.39   40.16
  -3  -3  -3  803.90   42.67
  -3  -3  -3  892.75   42.08
  -3  -3  -3  861.85   40.93
  -3  -3  -2   62.50    9.20
  -3  -3  -2   89.26    8.07
  -3  -3  -2   63.75    7.55
  -3  -3  -2   49.52    9.61
  -3  -3  -2   34.67    7.36
  -3  -3  -2   74.99    7.78
  -3  -3  -2   68.76    7.68
  -3  -3  -2   63.16    6.90
  -3  -3  -2   96.26    9.44
  -3  -3  -2   32.37    9.15
  -3  -3  -1  783.54   40.85
  -3  -3  -1  734.95   41.93
  -3  -3  -1  696.72   40.24
  -3  -3  -1  806.87   42.60
  -3  -3  -1  801.80   42.93
  -3  -3  -1  759.66   43.38
  -3  -3  -1  778.38   42.39
  -3  -3  -1  762.06   43.43
  -3  -3  -1  674.49   42.50
  -3  -3  -1  760.21   41.83
  -3  -3  -1  606.33   43.19
  -3  -3   0  908.97   56.73
  -3  -3   0 1109.67   52.29
  -3  -3   0 1263.64   55.87
  -3  -3   0 1195.92   56.34
  -3  -3   0 1127.93   55.34
  -3  -3   0 1079.86   52.59
  -3  -3   0 1194.98   58.17
  -3  -3   0 1172.15   54.43
  -3  -3   0  997.83   55.02
  -3  -3   0 1078.83   53.74
  -3  -3   0 1268.37   54.30
  -3  -3   1 1065.14   61.29
  -3  -3   1 1037.33   59.45
  -3  -3   1 1146.76   57.52
  -3  -3   1 1003.83   55.85
  -3  -3   1 1055.77   56.09
  -3  -3   1 1128.97   62.93
  -3  -3   1 1025.88   54.85
  -3  -3   1 1065.29   55.95
  -3  -3   2  705.95   46.81
  -3  -3   2  797.32   46.14
  -3  -3   2  748.91   42.18
  -3  -3   2  759.85   48.01
  -3  -3   3   22.80    7.65
  -3  -3   3   11.83    7.40
  -3  -3   3   19.74    8.32
  -3  -3   4  489.94   36.30
  -3  -3   4  540.00   37.37
  -3  -3   4  482.28   36.46
  -3  -3   5  312.26   28.42
  -3  -3   5  365.07   29.68
  -3  -3   5  342.22   28.99
  -3  -3   6  560.50   43.67
  -3  -3   6  706.14   46.31
  -3  -2 -13  127.09   19.98
  -3  -2 -12  172.30   22.37
  -3  -2 -11    9.48    8.97
  -3  -2 -10  102.51   14.82
  -3  -2 -10   95.02   15.89
  -3  -2 -10   96.61   14.60
  -3  -2  -9  789.47   54.88
  -3  -2  -9  792.80   55.18
  -3  -2  -9  905.66   56.49
  -3  -2  -8  793.12   51.56
  -3  -2  -8  774.03   51.65
  -3  -2  -8  823.26   52.01
  -3  -2  -8  855.86   49.79
  -3  -2  -7  203.26   17.51
  -3  -2  -7  205.99   18.85
  -3  -2  -7  179.58   18.11
  -3  -2  -7  203.01   19.23
  -3  -2  -6   39.45    8.45
  -3  -2  -6   16.37    6.78
  -3  -2  -6   38.23    8.64
  -3  -2  -6   36.62    7.17
  -3  -2  -5 2339.82  120.47
  -3  -2  -5 2280.96  118.03
  -3  -2  -5 2311.72  120.75
  -3  -2  -5 2130.25  115.49
  -3  -2  -5 2346.68  120.45
  -3  -2  -4 2354.53  101.72
  -3  -2  -4 2199.09  101.24
  -3  -2  -4 2021.22   98.60
  -3  -2  -4 1907.47   94.29
  -3  -2  -4 2491.65  102.72
  -3  -2  -4 2174.57   99.71
  -3  -2  -4 2049.21   95.60
  -3  -2  -4 2053.69   96.71
  -3  -2  -3 3060.02  161.00
  -3  -2  -3 2648.05  158.25
  -3  -2  -3 3351.77  162.58
  -3  -2  -3 3179.66  159.91
  -3  -2  -3 2836.87  161.60
  -3  -2  -3 3124.32  161.23
  -3  -2  -3 3354.12  159.79
  -3  -2  -3 3113.17  162.93
  -3  -2  -3 3241.11  163.05
  -3  -2  -3 3313.52  162.86
  -3  -2  -3 3276.67  161.57
  -3  -2  -3 3664.06  163.54
  -3  -2  -3 3679.91  163.50
  -3  -2  -2  709.28   40.47
  -3  -2  -2  683.82   39.67
  -3  -2  -2  600.86   38.99
  -3  -2  -2  678.53   38.36
  -3  -2  -2  660.17   40.73
  -3  -2  -2  665.11   39.67
  -3  -2  -2  624.71   39.11
  -3  -2  -2  753.86   41.75
  -3  -2  -2  786.93   39.63
  -3  -2  -1  403.88   24.80
  -3  -2  -1  354.24   24.23
  -3  -2  -1  414.35   24.60
  -3  -2  -1  441.31   26.31
  -3  -2  -1  432.86   26.29
  -3  -2  -1  429.19   25.29
  -3  -2  -1  388.50   24.84
  -3  -2  -1  414.08   24.96
  -3  -2  -1  419.17   25.03
  -3  -2  -1  422.08   24.98
  -3  -2   0  635.78   37.12
  -3  -2   0  693.28   37.50
  -3  -2   0  650.74   37.74
  -3  -2   0  716.71   38.77
  -3  -2   0  656.54   38.95
  -3  -2   0  649.82   38.16
  -3  -2   0  720.44   38.49
  -3  -2   0  645.74   37.27
  -3  -2   0  701.07   38.31
  -3  -2   0  735.30   40.34
  -3  -2   1  673.84   35.74
  -3  -2   1  683.20   32.46
  -3  -2   1  526.21   30.07
  -3  -2   1  554.33   29.22
  -3  -2   1  584.42   29.54
  -3  -2   1  674.45   32.32
  -3  -2   1  658.56   35.86
  -3  -2   2  300.70   21.77
  -3  -2   2  258.86   18.45
  -3  -2   2  236.57   16.04
  -3  -2   2  272.67   21.38
  -3  -2   3   48.79    8.34
  -3  -2   3   32.33    7.73
  -3  -2   3   59.47   10.43
  -3  -2   4  498.19   36.45
  -3  -2   4  558.73   38.27
  -3  -2   5 1140.99   70.54
  -3  -2   5 1130.23   68.80
  -3  -2   6   97.93   15.25
  -3  -2   6  123.33   16.45
  -3  -2   6  120.89   18.82
  -3  -2   7  112.49   20.31
  -3  -2   7  145.03   18.18
  -3  -2   8  174.08   24.10
  -3  -1 -13  221.40   26.34
  -3  -1 -12  104.41   18.18
  -3  -1 -11   11.86   10.41
  -3  -1 -10   56.13   12.98
  -3  -1 -10   38.52   10.72
  -3  -1 -10   41.63   10.96
  -3  -1  -9  910.33   56.51
  -3  -1  -9  816.49   54.55
  -3  -1  -9  836.63   55.46
  -3  -1  -8  662.54   45.39
  -3  -1  -8  676.99   46.22
  -3  -1  -8  730.93   46.68
  -3  -1  -7  517.89   37.77
  -3  -1  -7  600.16   35.78
  -3  -1  -7  592.48   39.41
  -3  -1  -7  547.08   38.24
  -3  -1  -6   82.79   11.36
  -3  -1  -6   76.98   11.63
  -3  -1  -6   83.37   10.00
  -3  -1  -6   96.27   12.40
  -3  -1  -5  158.07   12.63
  -3  -1  -5  135.06   14.52
  -3  -1  -5  186.84   15.97
  -3  -1  -5  140.00   14.29
  -3  -1  -4 2160.85  111.53
  -3  -1  -4 2032.11  107.18
  -3  -1  -4 2087.07  107.99
  -3  -1  -4 2319.56  112.27
  -3  -1  -4 1991.10  105.74
  -3  -1  -4 2293.14  111.43
  -3  -1  -3 2340.69  114.81
  -3  -1  -3 2110.47  115.76
  -3  -1  -3 2449.62  119.42
  -3  -1  -3 2105.34  114.54
  -3  -1  -3 2175.79  118.82
  -3  -1  -3 2321.05  116.32
  -3  -1  -3 2227.41  118.30
  -3  -1  -3 2265.81  118.65
  -3  -1  -3 2365.99  119.01
  -3  -1  -3 2536.01  118.82
  -3  -1  -2  191.33   11.32
  -3  -1  -2  128.71   12.05
  -3  -1  -2  135.94   10.75
  -3  -1  -2  289.60   14.83
  -3  -1  -2  154.46   12.06
  -3  -1  -2  117.55   10.16
  -3  -1  -2  128.58   12.50
  -3  -1  -2  108.82   11.46
  -3  -1  -2  152.42   12.16
  -3  -1  -2  133.39   12.08
  -3  -1  -2  239.16   15.09
  -3  -1  -1  588.56   35.87
  -3  -1  -1  685.47   34.73
  -3  -1  -1  638.33   36.03
  -3  -1  -1  624.12   35.69
  -3  -1  -1  615.78   35.56
  -3  -1  -1  618.19   33.95
  -3  -1  -1  496.11   34.52
  -3  -1  -1  676.88   35.14
  -3  -1  -1  691.97   34.83
  -3  -1  -1  599.25   34.58
  -3  -1  -1  650.07   34.59
  -3  -1  -1  574.55   35.98
  -3  -1  -1  561.29   34.73
  -3  -1   0 2086.77  110.25
  -3  -1   0 2228.64  112.33
  -3  -1   0 2022.85  111.13
  -3  -1   0 2309.53  115.06
  -3  -1   0 2373.08  113.36
  -3  -1   0 2168.91  113.00
  -3  -1   0 2151.11  110.67
  -3  -1   0 2293.80  112.03
  -3  -1   0 2350.26  112.28
  -3  -1   0 2078.25  110.72
  -3  -1   0 2094.93  110.95
  -3  -1   0 2198.91  112.90
  -3  -1   0 2085.61  110.32
  -3  -1   1 1633.52   20.99
  -3  -1   1 1767.99   18.73
  -3  -1   1 1878.38   40.95
  -3  -1   1 1748.09   21.04
  -3  -1   1 1746.69   26.64
  -3  -1   1 1841.93   19.33
  -3  -1   1 1699.26   21.84
  -3  -1   1 1822.72   34.61
  -3  -1   2 1417.39   76.13
  -3  -1   2 1384.73   78.19
  -3  -1   2 1447.62   73.44
  -3  -1   2 1342.52   70.70
  -3  -1   3  267.47   23.21
  -3  -1   3  237.96   19.93
  -3  -1   4  467.81   31.56
  -3  -1   4  451.35   34.39
  -3  -1   4  438.29   32.17
  -3  -1   5  313.51   28.52
  -3  -1   5  316.83   26.23
  -3  -1   6  555.23   41.12
  -3  -1   6  646.74   45.81
  -3  -1   7   44.15   14.94
  -3  -1   7   56.07   12.23
  -3  -1   8  101.34   21.01
  -3  -1   9  289.63   32.70
  -3  -1  10  302.26   34.76
  -3  -1  11   58.99   18.42
  -3   0 -12  185.95   24.14
  -3   0 -11   72.20   15.14
  -3   0 -10   41.86   12.84
  -3   0 -10   66.05   12.97
  -3   0 -10   48.52   11.67
  -3   0  -9  148.62   18.70
  -3   0  -9  135.82   17.61
  -3   0  -9  150.61   18.40
  -3   0  -8  549.32   38.09
  -3   0  -8  554.30   38.77
  -3   0  -8  460.76   36.89
  -3   0  -7  247.40   22.14
  -3   0  -7  208.93   20.32
  -3   0  -7  202.32   20.66
  -3   0  -6   18.16    6.96
  -3   0  -6   33.56    8.55
  -3   0  -6   21.28    7.56
  -3   0  -5  338.13   25.68
  -3   0  -5  372.84   26.77
  -3   0  -5  348.44   25.45
  -3   0  -4 1473.87   77.15
  -3   0  -4 1396.92   77.63
  -3   0  -4 1309.91   72.64
  -3   0  -4 1558.94   78.66
  -3   0  -3 2514.31  126.83
  -3   0  -3 2548.86  129.09
  -3   0  -3 2484.70  124.16
  -3   0  -3 2500.74  129.33
  -3   0  -3 2231.36  124.68
  -3   0  -3 2640.45  128.26
  -3   0  -2  668.18   37.97
  -3   0  -2  731.23   43.53
  -3   0  -2  754.00   40.11
  -3   0  -2  804.73   38.72
  -3   0  -2  645.91   41.47
  -3   0  -2  644.86   38.52
  -3   0  -2  677.35   42.32
  -3   0  -2  779.56   41.65
  -3   0  -1   63.97    5.76
  -3   0  -1   66.81    7.13
  -3   0  -1   74.75    6.58
  -3   0  -1   59.27    6.72
  -3   0  -1   59.81    8.54
  -3   0  -1   57.91    5.00
  -3   0  -1   83.02    8.68
  -3   0   0 2549.80   31.70
  -3   0   0 2690.32   32.55
  -3   0   0 2678.89   26.00
  -3   0   0 2802.37   44.91
  -3   0   0 2568.23   30.80
  -3   0   0 2750.10   41.22
  -3   0   0 2520.09   26.29
  -3   0   0 2671.55   47.69
  -3   0   0 2727.63   33.26
  -3   0   0 2795.53   36.54
  -3   0   1 2173.56  106.57
  -3   0   1 2179.50  109.55
  -3   0   1 2244.65  114.04
  -3   0   1 2108.53  107.55
  -3   0   1 2220.74  109.26
  -3   0   1 2073.91  107.07
  -3   0   1 2299.28  112.41
  -3   0   1 1937.02  106.83
  -3   0   1 2075.24  105.73
  -3   0   2 1166.98   58.81
  -3   0   2 1074.27   56.37
  -3   0   2 1131.14   56.21
  -3   0   2 1189.42   63.64
  -3   0   2 1036.65   55.99
  -3   0   2 1238.66   65.66
  -3   0   2 1130.78   60.00
  -3   0   2 1096.31   56.30
  -3   0   3  128.20   14.41
  -3   0   3  128.29   15.80
  -3   0   4  823.42   50.24
  -3   0   4  751.99   51.46
  -3   0   5  882.80   61.96
  -3   0   5 1057.66   60.82
  -3   0   6  911.10   59.45
  -3   0   6 1045.37   61.23
  -3   0   6  921.91   63.13
  -3   0   7  129.58   17.15
  -3   0   7  126.17   22.37
  -3   0   8   14.20   14.67
  -3   0   9  189.63   27.49
  -3   0  10   81.74   21.60
  -3   0  11   40.77   18.56
  -3   0  12   -3.02   14.55
  -3   1 -11   23.86   11.46
  -3   1 -10   10.03    8.69
  -3   1  -9  123.19   16.82
  -3   1  -9  124.61   17.85
  -3   1  -9  136.06   17.84
  -3   1  -8  612.12   43.59
  -3   1  -8  618.23   43.27
  -3   1  -8  601.07   43.49
  -3   1  -7  225.58   21.24
  -3   1  -7  205.32   20.39
  -3   1  -7  175.74   19.96
  -3   1  -6  206.88   20.47
  -3   1  -6  231.52   21.07
  -3   1  -6  192.59   19.78
  -3   1  -5  222.33   19.00
  -3   1  -5  203.32   19.01
  -3   1  -4  876.44   49.97
  -3   1  -4  791.01   48.28
  -3   1  -4  779.39   48.84
  -3   1  -3 1797.95   96.18
  -3   1  -3 1656.39   97.11
  -3   1  -3 1860.22   94.57
  -3   1  -3 1810.31   95.29
  -3   1  -3 1725.18   96.22
  -3   1  -2  400.02   29.14
  -3   1  -2  388.29   27.58
  -3   1  -2  385.15   30.16
  -3   1  -2  406.23   30.32
  -3   1  -1  713.84   39.90
  -3   1  -1  659.04   42.66
  -3   1  -1  671.15   41.45
  -3   1  -1  694.23   44.91
  -3   1  -1  693.03   42.97
  -3   1   0 1283.06   80.89
  -3   1   0 1665.96   81.97
  -3   1   0 1597.65   80.38
  -3   1   0 1463.04   79.63
  -3   1   0 1430.47   77.84
  -3   1   0 1523.28   76.37
  -3   1   0 1553.01   80.04
  -3   1   0 1479.16   83.03
  -3   1   0 1547.83   84.19
  -3   1   0 1600.06   78.47
  -3   1   1 5356.72  281.74
  -3   1   1 5962.22  283.82
  -3   1   1 5963.16  288.50
  -3   1   1 5424.47  280.37
  -3   1   1 6051.39  282.50
  -3   1   1 5511.63  279.52
  -3   1   1 6139.82  287.62
  -3   1   1 5452.33  281.95
  -3   1   2 1699.56   88.18
  -3   1   2 1598.95   81.46
  -3   1   2 1644.09   83.07
  -3   1   2 1523.25   81.09
  -3   1   2 1619.99   88.88
  -3   1   2 1494.35   80.84
  -3   1   3   34.77    5.81
  -3   1   3   45.60   11.33
  -3   1   3   53.99   10.49
  -3   1   4   60.82   11.53
  -3   1   4   40.11   11.81
  -3   1   5 1342.08   82.25
  -3   1   5 1362.55   80.41
  -3   1   6  749.08   51.10
  -3   1   6  754.77   53.43
  -3   1   7  369.01   35.37
  -3   1   7  344.08   30.98
  -3   1   7  330.94   28.59
  -3   1   8    4.84   14.63
  -3   1   9   31.47   16.50
  -3   1  10  334.24   36.84
  -3   1  11  141.24   26.70
  -3   1  12   43.32   18.38
  -3   2 -11  118.00   20.38
  -3   2 -10    2.12   10.62
  -3   2  -9   72.26   14.47
  -3   2  -9   80.15   14.71
  -3   2  -9   60.30   13.41
  -3   2  -8  117.42   16.34
  -3   2  -8  104.85   16.57
  -3   2  -8   93.25   15.47
  -3   2  -7  652.50   46.41
  -3   2  -7  726.58   47.86
  -3   2  -7  687.13   47.62
  -3   2  -6    5.75    6.66
  -3   2  -6    8.51    7.47
  -3   2  -6   10.39    8.30
  -3   2  -5  179.62   18.19
  -3   2  -5  205.81   19.80
  -3   2  -5  191.06   19.29
  -3   2  -4  863.09   52.48
  -3   2  -4  877.42   51.69
  -3   2  -4  864.86   52.71
  -3   2  -4  815.61   52.31
  -3   2  -3 2238.51  119.64
  -3   2  -3 2265.17  121.14
  -3   2  -3 2268.47  122.05
  -3   2  -3 2240.99  120.86
  -3   2  -2 1006.53   55.39
  -3   2  -2  971.11   56.48
  -3   2  -2  962.30   58.37
  -3   2  -2  988.02   54.52
  -3   2  -2  957.31   56.88
  -3   2  -1  247.09   20.75
  -3   2  -1  257.23   21.90
  -3   2  -1  223.00   19.74
  -3   2  -1  229.81   18.51
  -3   2   0 1174.40   62.06
  -3   2   0 1115.02   64.33
  -3   2   0 1226.45   68.07
  -3   2   0 1197.32   62.51
  -3   2   0 1230.93   68.67
  -3   2   0 1159.96   64.88
  -3   2   1 2275.66  118.31
  -3   2   1 2149.54  110.34
  -3   2   1 2098.37  112.88
  -3   2   1 2278.16  118.76
  -3   2   1 2210.27  113.39
  -3   2   1 2146.21  111.94
  -3   2   2 1189.89   68.30
  -3   2   2 1202.57   68.74
  -3   2   2 1081.14   61.63
  -3   2   2 1186.55   62.38
  -3   2   3  345.27   27.42
  -3   2   3  334.21   27.24
  -3   2   3  317.20   20.79
  -3   2   3  322.00   20.59
  -3   2   4  260.11   26.19
  -3   2   4  380.12   28.92
  -3   2   5  391.24   32.62
  -3   2   5  349.19   31.06
  -3   2   6 1399.33   85.24
  -3   2   6 1325.59   83.26
  -3   2   7  446.74   40.90
  -3   2   7  549.37   41.40
  -3   2   8   35.49   14.41
  -3   2   8   68.94   18.17
  -3   2   9   69.38   20.29
  -3   2  10  238.46   31.65
  -3   2  11   80.92   21.74
  -3   2  12   31.43   19.29
  -3   3 -10   13.34   11.13
  -3   3  -9  103.71   18.43
  -3   3  -9  124.61   17.78
  -3   3  -9   99.16   16.54
  -3   3  -8  258.19   25.29
  -3   3  -8  221.80   24.71
  -3   3  -8  209.36   23.82
  -3   3  -7  287.53   27.54
  -3   3  -7  292.50   27.31
  -3   3  -7  265.18   26.41
  -3   3  -6  167.05   22.41
  -3   3  -6  148.68   18.84
  -3   3  -6  214.27   23.63
  -3   3  -5  161.03   19.32
  -3   3  -5  141.79   17.19
  -3   3  -5  155.45   19.07
  -3   3  -5  175.89   19.57
  -3   3  -4  878.59   55.57
  -3   3  -4  911.74   55.85
  -3   3  -4  876.70   55.28
  -3   3  -4  892.37   54.64
  -3   3  -3 1186.29   70.96
  -3   3  -3 1274.32   71.85
  -3   3  -3 1262.36   72.02
  -3   3  -3 1186.76   69.70
  -3   3  -2  759.90   49.15
  -3   3  -2  770.27   46.58
  -3   3  -2  783.96   48.29
  -3   3  -2  822.74   48.97
  -3   3  -1   40.96    8.69
  -3   3  -1   71.03   11.49
  -3   3  -1   25.33    7.70
  -3   3  -1   84.34   11.61
  -3   3   0  783.44   44.89
  -3   3   0  801.78   50.00
  -3   3   0  811.47   50.24
  -3   3   0  772.25   47.01
  -3   3   0  845.58   47.99
  -3   3   1 1036.36   62.09
  -3   3   1 1039.00   61.67
  -3   3   1  993.84   57.53
  -3   3   1 1025.82   57.99
  -3   3   1 1017.33   54.89
  -3   3   2 1821.31  101.81
  -3   3   2 1747.51   96.29
  -3   3   2 1872.08  102.59
  -3   3   2 1840.85   97.12
  -3   3   3  400.80   25.84
  -3   3   3  359.27   30.39
  -3   3   3  404.30   31.99
  -3   3   3  397.66   26.32
  -3   3   4   -1.72    8.29
  -3   3   4   -3.42    5.82
  -3   3   5  243.85   25.01
  -3   3   5  207.03   23.71
  -3   3   6  750.42   55.20
  -3   3   6  806.94   55.91
  -3   3   7  460.56   38.87
  -3   3   7  399.90   37.42
  -3   3   8   31.62   15.58
  -3   3   8   22.45   13.99
  -3   3   9   54.83   15.93
  -3   3   9   83.23   20.07
  -3   3  10  462.38   40.94
  -3   3  10  397.54   42.20
  -3   3  11  217.06   32.26
  -3   3  12   47.21   18.71
  -3   4  -9   -6.56   10.53
  -3   4  -8  173.32   22.46
  -3   4  -8  201.43   23.62
  -3   4  -8  200.65   24.27
  -3   4  -7  287.24   28.28
  -3   4  -7  294.71   28.47
  -3   4  -7  270.97   27.70
  -3   4  -6   26.16   12.35
  -3   4  -6   23.69   11.70
  -3   4  -6    3.41   10.20
  -3   4  -5   30.66   11.56
  -3   4  -5   16.23    9.28
  -3   4  -5   32.19   10.32
  -3   4  -4  844.15   52.32
  -3   4  -4  689.75   50.30
  -3   4  -4  904.87   53.67
  -3   4  -4  764.38   50.36
  -3   4  -3  702.91   47.04
  -3   4  -3  635.24   45.83
  -3   4  -3  771.43   48.32
  -3   4  -3  723.47   45.67
  -3   4  -2  905.53   58.59
  -3   4  -2  997.17   57.21
  -3   4  -2  949.34   58.88
  -3   4  -2  953.74   58.26
  -3   4  -1   69.03   12.53
  -3   4  -1   78.51   13.48
  -3   4  -1   82.64   12.92
  -3   4  -1  106.90   13.23
  -3   4   0  208.62   19.44
  -3   4   0  222.34   20.49
  -3   4   0  202.64   20.01
  -3   4   0  212.37   17.14
  -3   4   0  206.53   19.09
  -3   4   1  629.81   42.05
  -3   4   1  632.80   41.19
  -3   4   1  572.72   38.39
  -3   4   1  566.72   37.77
  -3   4   2  928.66   56.74
  -3   4   2 1006.58   61.56
  -3   4   2 1062.38   63.08
  -3   4   2  990.15   57.93
  -3   4   3  787.32   50.31
  -3   4   3  748.39   45.41
  -3   4   3  694.94   44.40
  -3   4   3  763.28   51.25
  -3   4   4   -1.88    8.68
  -3   4   4    3.52    7.25
  -3   4   5  440.00   37.07
  -3   4   5  424.84   35.90
  -3   4   6  681.93   49.87
  -3   4   6  641.35   49.86
  -3   4   7  719.12   54.98
  -3   4   7  800.55   56.58
  -3   4   8   26.48   14.07
  -3   4   8   25.05   13.85
  -3   4   9   94.40   20.85
  -3   4   9  112.27   22.40
  -3   4  10  202.13   30.78
  -3   4  10  229.44   29.39
  -3   4  11  182.91   27.12
  -3   4  11  189.70   29.91
  -3   4  12   22.44   17.42
  -3   5  -8  184.35   22.63
  -3   5  -8  140.83   21.64
  -3   5  -8  175.74   23.10
  -3   5  -7  301.42   30.02
  -3   5  -7  347.40   31.87
  -3   5  -7  330.51   32.02
  -3   5  -6  114.98   18.41
  -3   5  -6  137.93   18.77
  -3   5  -6  137.33   19.39
  -3   5  -5   23.69   11.35
  -3   5  -5   16.23    9.24
  -3   5  -5   28.47   11.53
  -3   5  -4  167.28   19.85
  -3   5  -4  143.99   18.69
  -3   5  -3  196.20   20.23
  -3   5  -3  189.65   21.01
  -3   5  -3  194.51   21.88
  -3   5  -2  226.39   23.16
  -3   5  -2  251.10   24.36
  -3   5  -2  293.84   24.04
  -3   5  -2  266.31   25.03
  -3   5  -1  137.17   15.71
  -3   5  -1  110.69   16.62
  -3   5  -1  113.43   15.64
  -3   5  -1  109.57   17.69
  -3   5   0  223.68   22.22
  -3   5   0  215.66   21.29
  -3   5   0  235.99   22.09
  -3   5   0  209.61   20.64
  -3   5   1  571.11   39.53
  -3   5   1  500.21   36.91
  -3   5   1  584.24   39.16
  -3   5   1  554.73   40.17
  -3   5   2 1543.80   87.64
  -3   5   2 1700.53   92.95
  -3   5   2 1515.08   89.73
  -3   5   2 1471.04   86.50
  -3   5   3  191.45   19.35
  -3   5   3  233.32   24.43
  -3   5   3  230.82   22.10
  -3   5   3  183.58   19.67
  -3   5   4   50.78   13.16
  -3   5   4   32.49   10.55
  -3   5   5  733.84   52.12
  -3   5   5  643.00   48.73
  -3   5   6 1047.49   69.90
  -3   5   6 1000.79   68.05
  -3   5   7  298.42   32.88
  -3   5   7  336.32   33.25
  -3   5   8  187.44   27.14
  -3   5   8  233.45   28.06
  -3   5   9  126.64   24.50
  -3   5   9  221.61   27.56
  -3   5  10  157.26   25.05
  -3   5  10  149.92   26.37
  -3   5  11  302.40   36.79
  -3   5  11  310.36   36.06
  -3   5  12  108.83   25.65
  -3   5  12  135.49   25.51
  -3   6  -7  182.07   23.48
  -3   6  -7  155.62   22.79
  -3   6  -7  204.10   25.57
  -3   6  -6  113.34   19.27
  -3   6  -6  100.87   18.52
  -3   6  -6  106.85   18.82
  -3   6  -5    8.00    9.71
  -3   6  -5   27.49   12.69
  -3   6  -4   62.65   13.76
  -3   6  -4   64.90   13.55
  -3   6  -4   58.10   13.86
  -3   6  -3  249.46   25.94
  -3   6  -3  250.52   26.83
  -3   6  -3  289.78   25.89
  -3   6  -2  322.30   27.59
  -3   6  -2  312.97   29.63
  -3   6  -2  308.85   29.19
  -3   6  -1  207.12   21.84
  -3   6  -1  202.52   22.05
  -3   6  -1  163.99   18.73
  -3   6   0   47.29   12.21
  -3   6   0   58.80   12.02
  -3   6   0   40.45   11.79
  -3   6   1  305.24   26.26
  -3   6   1  316.41   28.50
  -3   6   1  308.51   27.99
  -3   6   2  597.01   41.10
  -3   6   2  574.40   43.72
  -3   6   2  550.08   39.84
  -3   6   3  169.56   18.50
  -3   6   3  135.71   19.97
  -3   6   3  160.14   18.86
  -3   6   3  136.75   18.22
  -3   6   4   54.57   14.45
  -3   6   4   66.77   13.79
  -3   6   5  778.63   56.19
  -3   6   5  729.70   52.95
  -3   6   6  803.86   59.75
  -3   6   6  968.68   64.47
  -3   6   7  824.42   61.31
  -3   6   7  809.42   59.09
  -3   6   8  153.42   24.51
  -3   6   8  107.97   20.11
  -3   6   9   33.96   16.81
  -3   6   9   45.76   15.38
  -3   6  10  167.67   27.39
  -3   6  10  155.01   25.81
  -3   6  11  238.49   33.69
  -3   6  11  336.85   38.28
  -3   6  12  154.53   26.70
  -3   6  12  125.82   25.97
  -3   7  -6  109.31   18.71
  -3   7  -6   96.74   19.11
  -3   7  -5   57.28   14.47
  -3   7  -5   39.47   13.57
  -3   7  -5   27.95   13.17
  -3   7  -4    7.63    9.86
  -3   7  -4   -4.20    9.31
  -3   7  -4   -4.46   10.95
  -3   7  -3  336.60   30.78
  -3   7  -3  375.61   33.24
  -3   7  -3  366.54   34.23
  -3   7  -2  195.59   22.98
  -3   7  -2  199.38   24.44
  -3   7  -1  143.05   19.11
  -3   7  -1  134.24   19.53
  -3   7   0   15.82    9.86
  -3   7   0   18.66   10.75
  -3   7   1  516.12   42.24
  -3   7   1  552.29   41.19
  -3   7   1  559.43   41.81
  -3   7   2  361.05   34.51
  -3   7   2  437.57   34.54
  -3   7   2  391.56   32.81
  -3   7   3  304.70   30.15
  -3   7   3  226.23   24.97
  -3   7   3  276.96   26.32
  -3   7   4   30.32   12.55
  -3   7   5  209.42   26.72
  -3   7   6  569.90   47.80
  -3   7   7  207.97   28.21
  -3   7   8  152.59   25.40
  -3   7   8  162.02   23.18
  -3   7   9   35.25   17.73
  -3   7   9   64.02   15.93
  -3   7  10  186.50   28.28
  -3   7  10  208.11   30.22
  -3   7  11  333.10   38.90
  -3   7  11  315.25   37.53
  -3   8  -4   85.51   18.35
  -3   8  -4   71.23   16.74
  -3   8  -4   59.32   14.56
  -3   8  -3  310.92   31.05
  -3   8  -3  254.63   30.05
  -3   8  -2  524.29   42.49
  -3   8  -2  473.01   42.25
  -3   8  -1  227.10   25.32
  -3   8  -1  201.76   25.30
  -3   8   0   33.95   12.25
  -3   8   0   15.97   11.53
  -3   8   1   20.61   12.23
  -3   8   1   34.86   12.07
  -3   8   2  850.22   59.69
  -3   8   2  876.72   58.60
  -3   8   3  105.00   17.79
  -3   8   3  132.05   19.71
  -3   8   3  126.66   20.20
  -3   8   4   36.96   12.66
  -3   8   5   -2.59   10.94
  -3   8   6  361.90   37.60
  -3   8   7  191.44   28.35
  -3   8   8  196.34   29.46
  -3   8   9    3.05   14.98
  -3   8  10  110.09   24.20
  -3   9  -2  295.44   32.98
  -3   9  -2  319.88   32.65
  -3   9  -1  123.73   20.99
  -3   9  -1  109.86   21.04
  -3   9   0    8.92   11.92
  -3   9   0   14.30   13.14
  -3   9   1  190.78   25.28
  -3   9   1  261.47   28.71
  -3   9   2  216.01   26.58
  -3   9   2  299.59   30.25
  -3   9   3  464.05   40.83
  -3   9   3  468.76   40.00
  -3   9   5   18.77   12.95
  -3   9   6   50.17   17.63
  -3   9   7  196.32   28.94
  -3   9   8  101.86   23.36
  -3   9   9   -3.11   15.25
  -3   9  10   54.99   20.44
  -3  10   1   47.60   14.72
  -3  10   1   38.59   14.93
  -3  10   2  154.02   23.04
  -3  10   2  159.17   24.97
  -3  10   3  167.93   24.53
  -3  10   3  229.76   28.28
  -3  10   7  327.99   37.00
  -3  10   8  171.07   28.06
  -2 -13  -9  221.73   27.62
  -2 -13  -8  303.07   32.33
  -2 -13  -8  320.97   33.05
  -2 -13  -7  346.54   34.33
  -2 -13  -7  327.66   34.77
  -2 -13  -6  121.72   19.88
  -2 -13  -6  144.18   23.55
  -2 -13  -5   10.16   13.79
  -2 -13  -4  158.36   24.21
  -2 -13  -4  147.85   22.75
  -2 -13  -3  424.80   40.77
  -2 -13  -3  387.44   38.60
  -2 -12 -12  267.93   29.50
  -2 -12 -11  208.29   25.04
  -2 -12 -11  212.49   26.77
  -2 -12 -10   73.21   17.37
  -2 -12  -9   16.12   12.89
  -2 -12  -8   60.31   16.36
  -2 -12  -8  103.43   18.56
  -2 -12  -7  182.54   23.46
  -2 -12  -7  160.26   23.05
  -2 -12  -6   -2.14   10.86
  -2 -12  -6    2.29   12.03
  -2 -12  -5   39.90   15.62
  -2 -12  -5   35.32   13.00
  -2 -12  -4  271.56   30.06
  -2 -12  -4  280.85   30.94
  -2 -12  -3  714.64   54.70
  -2 -12  -3  701.01   54.84
  -2 -12  -2  260.66   31.35
  -2 -12  -2  275.39   31.41
  -2 -12  -1  109.66   20.81
  -2 -12  -1   99.55   21.48
  -2 -12   0   25.89   14.32
  -2 -12   0   27.30   15.74
  -2 -11 -12  232.46   27.81
  -2 -11 -12  289.68   30.49
  -2 -11 -11  402.01   37.97
  -2 -11 -11  509.87   41.60
  -2 -11 -10  105.15   18.76
  -2 -11 -10   70.29   14.80
  -2 -11  -9    2.00    9.04
  -2 -11  -9   15.21   10.67
  -2 -11  -8   76.07   15.45
  -2 -11  -8   90.99   17.03
  -2 -11  -8   69.37   14.03
  -2 -11  -7  348.19   32.12
  -2 -11  -7  309.57   29.60
  -2 -11  -7  354.25   32.98
  -2 -11  -6  176.03   22.48
  -2 -11  -6  161.46   21.26
  -2 -11  -5   14.88   12.21
  -2 -11  -5   -1.94    8.97
  -2 -11  -4   56.71   15.38
  -2 -11  -4   28.42   11.80
  -2 -11  -4   33.98   11.00
  -2 -11  -3  406.36   34.34
  -2 -11  -3  402.89   36.96
  -2 -11  -3  449.80   38.11
  -2 -11  -2  148.27   22.33
  -2 -11  -2  133.32   21.63
  -2 -11  -1   16.49   12.41
  -2 -11  -1   14.43   12.87
  -2 -11   0  120.66   20.63
  -2 -11   0   86.12   19.80
  -2 -11   1  362.88   37.58
  -2 -11   1  390.64   37.24
  -2 -11   2  643.89   53.85
  -2 -10 -13   73.24   17.04
  -2 -10 -13   82.34   17.30
  -2 -10 -12  306.68   32.02
  -2 -10 -12  358.46   33.81
  -2 -10 -11  231.97   27.36
  -2 -10 -11  263.53   29.05
  -2 -10 -10  137.51   19.45
  -2 -10 -10  123.77   19.37
  -2 -10  -9   20.28   11.36
  -2 -10  -9   11.48   10.87
  -2 -10  -8  185.01   23.16
  -2 -10  -8  213.64   22.96
  -2 -10  -7  713.81   49.65
  -2 -10  -7  784.59   50.89
  -2 -10  -7  637.96   49.47
  -2 -10  -6  558.04   41.46
  -2 -10  -6  522.36   40.32
  -2 -10  -6  482.69   38.53
  -2 -10  -5   73.50   15.04
  -2 -10  -5   96.57   16.42
  -2 -10  -5   93.72   14.41
  -2 -10  -5   73.11   14.29
  -2 -10  -4   51.84   13.79
  -2 -10  -4   22.57    9.80
  -2 -10  -4   38.95   12.55
  -2 -10  -4   19.24    8.94
  -2 -10  -3  389.67   32.83
  -2 -10  -3  399.84   35.11
  -2 -10  -3  447.43   36.08
  -2 -10  -2  534.15   40.35
  -2 -10  -2  583.84   44.35
  -2 -10  -2  555.71   43.48
  -2 -10  -1  141.28   21.36
  -2 -10  -1  189.44   24.43
  -2 -10   0   41.94   13.94
  -2 -10   0   30.12   14.62
  -2 -10   1   70.88   17.30
  -2 -10   1   97.50   18.75
  -2 -10   2  241.09   27.53
  -2 -10   2  236.09   29.66
  -2 -10   3  192.56   27.46
  -2 -10   4   49.75   17.29
  -2  -9 -13   75.88   16.67
  -2  -9 -13   73.94   16.94
  -2  -9 -12  116.99   19.08
  -2  -9 -12  159.82   21.50
  -2  -9 -11  345.76   33.25
  -2  -9 -11  401.74   34.40
  -2  -9 -10   72.83   15.03
  -2  -9 -10   72.06   15.48
  -2  -9  -9   -3.64   10.03
  -2  -9  -9   -1.88    9.71
  -2  -9  -8  603.75   44.29
  -2  -9  -8  627.20   45.21
  -2  -9  -7  567.61   44.33
  -2  -9  -7  652.86   44.15
  -2  -9  -7  659.38   45.08
  -2  -9  -6 1280.22   80.20
  -2  -9  -6 1384.67   81.11
  -2  -9  -6 1415.21   82.17
  -2  -9  -5  147.43   19.08
  -2  -9  -5  179.62   19.58
  -2  -9  -5  177.22   19.46
  -2  -9  -4   75.60   13.08
  -2  -9  -4   85.59   15.71
  -2  -9  -4   61.74   13.87
  -2  -9  -4   60.76   11.62
  -2  -9  -3  549.73   39.52
  -2  -9  -3  542.24   38.61
  -2  -9  -3  563.56   41.04
  -2  -9  -3  519.19   40.49
  -2  -9  -2  855.38   55.52
  -2  -9  -2  940.52   58.95
  -2  -9  -2  872.07   58.08
  -2  -9  -2  819.49   54.72
  -2  -9  -1  385.31   33.48
  -2  -9  -1  391.66   33.90
  -2  -9  -1  363.63   30.02
  -2  -9  -1  394.14   31.12
  -2  -9   0    2.07   12.07
  -2  -9   0   13.89   12.00
  -2  -9   1  196.41   24.80
  -2  -9   1  145.92   21.18
  -2  -9   2  215.21   26.09
  -2  -9   2  165.55   22.78
  -2  -9   3  155.22   23.72
  -2  -9   4   38.66   16.08
  -2  -9   5   55.92   18.17
  -2  -8 -14   55.22   16.34
  -2  -8 -13   19.70   11.55
  -2  -8 -12  210.57   25.38
  -2  -8 -12  264.30   27.07
  -2  -8 -11  317.44   30.49
  -2  -8 -11  347.86   31.28
  -2  -8 -10  355.06   30.69
  -2  -8 -10  310.55   29.70
  -2  -8  -9   21.59   10.08
  -2  -8  -9    6.91    8.83
  -2  -8  -9   37.87   12.30
  -2  -8  -8  287.87   26.48
  -2  -8  -8  319.39   28.24
  -2  -8  -7  862.28   56.40
  -2  -8  -7  882.89   57.04
  -2  -8  -7  896.66   54.99
  -2  -8  -6  849.45   55.17
  -2  -8  -6  831.45   54.44
  -2  -8  -6  930.51   56.62
  -2  -8  -5  288.44   24.75
  -2  -8  -5  260.74   24.49
  -2  -8  -5  260.42   22.64
  -2  -8  -5  274.06   24.13
  -2  -8  -4  132.55   15.92
  -2  -8  -4  107.61   16.19
  -2  -8  -4  131.30   16.45
  -2  -8  -4  111.05   15.38
  -2  -8  -3  679.56   45.86
  -2  -8  -3  675.65   47.00
  -2  -8  -3  692.89   46.79
  -2  -8  -3  744.18   46.30
  -2  -8  -2 1041.41   65.15
  -2  -8  -2 1123.73   67.64
  -2  -8  -2 1166.14   68.53
  -2  -8  -2 1054.24   65.12
  -2  -8  -1  353.40   28.38
  -2  -8  -1  373.77   31.32
  -2  -8  -1  378.27   31.84
  -2  -8   0   43.60    9.02
  -2  -8   0   41.98   13.60
  -2  -8   0   26.21   11.93
  -2  -8   1  133.41   20.09
  -2  -8   1   94.79   16.14
  -2  -8   2  296.15   29.75
  -2  -8   2  292.66   28.65
  -2  -8   3  319.67   31.64
  -2  -8   3  264.60   28.31
  -2  -8   4   51.98   15.35
  -2  -8   5    4.94   12.57
  -2  -7 -14  139.54   21.94
  -2  -7 -13   44.73   13.53
  -2  -7 -12  102.06   17.44
  -2  -7 -11  570.70   44.50
  -2  -7 -11  625.65   44.14
  -2  -7 -10  623.74   41.40
  -2  -7 -10  660.63   42.59
  -2  -7  -9   27.85    9.33
  -2  -7  -9   25.01   10.10
  -2  -7  -9   26.10   10.18
  -2  -7  -8   31.46    9.20
  -2  -7  -8   31.31   11.02
  -2  -7  -8   33.70   10.55
  -2  -7  -7 1156.70   67.77
  -2  -7  -7 1298.56   71.78
  -2  -7  -7 1101.10   69.88
  -2  -7  -6  594.71   39.77
  -2  -7  -6  614.43   41.58
  -2  -7  -6  638.72   42.08
  -2  -7  -5  596.83   36.64
  -2  -7  -5  573.17   38.16
  -2  -7  -5  529.68   38.09
  -2  -7  -5  553.11   38.52
  -2  -7  -4   60.89   10.98
  -2  -7  -4   45.24    9.57
  -2  -7  -4   49.92   10.81
  -2  -7  -4   47.08   10.95
  -2  -7  -3  582.16   39.87
  -2  -7  -3  613.01   40.25
  -2  -7  -3  601.85   39.81
  -2  -7  -3  637.69   41.60
  -2  -7  -2  213.40   19.69
  -2  -7  -2  226.92   21.03
  -2  -7  -2  194.53   18.78
  -2  -7  -2  208.70   20.69
  -2  -7  -1  673.45   43.92
  -2  -7  -1  613.58   42.91
  -2  -7  -1  616.99   41.11
  -2  -7   0    8.44    5.48
  -2  -7   0   12.08    8.56
  -2  -7   0    6.29   10.41
  -2  -7   1  282.91   24.97
  -2  -7   1  354.24   30.27
  -2  -7   1  363.73   28.91
  -2  -7   2  383.48   28.77
  -2  -7   2  350.08   32.12
  -2  -7   2  384.29   31.35
  -2  -7   3  846.95   58.97
  -2  -7   3  881.23   57.44
  -2  -7   4  155.45   22.00
  -2  -7   5   -2.26   11.28
  -2  -6 -14   19.79   11.78
  -2  -6 -13    2.07    9.97
  -2  -6 -12  325.84   30.79
  -2  -6 -11  954.45   62.14
  -2  -6 -10  475.96   35.81
  -2  -6 -10  381.80   33.16
  -2  -6 -10  474.97   34.36
  -2  -6  -9  486.39   34.10
  -2  -6  -9  498.79   35.15
  -2  -6  -8  116.26   14.88
  -2  -6  -8  129.17   16.51
  -2  -6  -8  124.08   16.35
  -2  -6  -7  818.65   50.56
  -2  -6  -7  850.62   51.19
  -2  -6  -7  726.78   49.59
  -2  -6  -6  450.35   33.60
  -2  -6  -6  539.76   32.79
  -2  -6  -6  482.06   34.38
  -2  -6  -5  721.20   46.40
  -2  -6  -5  779.55   43.91
  -2  -6  -5  737.48   45.31
  -2  -6  -5  766.42   47.19
  -2  -6  -4   17.47    6.96
  -2  -6  -4   21.18    7.42
  -2  -6  -4   12.94    6.57
  -2  -6  -4   21.90    6.14
  -2  -6  -4    8.30    6.23
  -2  -6  -3  249.66   20.50
  -2  -6  -3  269.69   20.62
  -2  -6  -3  254.59   21.27
  -2  -6  -3  262.72   21.14
  -2  -6  -2  955.59   57.14
  -2  -6  -2  979.54   57.06
  -2  -6  -2  949.36   57.35
  -2  -6  -2  976.70   56.98
  -2  -6  -1  526.11   35.34
  -2  -6  -1  557.71   37.23
  -2  -6  -1  548.25   36.91
  -2  -6   0   80.34   12.44
  -2  -6   0   50.69    9.05
  -2  -6   0   51.79   12.11
  -2  -6   1   19.85    6.42
  -2  -6   1   24.52    8.70
  -2  -6   1   23.44   10.77
  -2  -6   2 1105.54   67.47
  -2  -6   2 1227.65   72.15
  -2  -6   2 1180.02   70.28
  -2  -6   3  383.20   33.84
  -2  -6   3  465.24   33.92
  -2  -6   4  389.32   32.29
  -2  -6   4  412.57   34.82
  -2  -6   5   14.20   11.83
  -2  -6   6  198.16   24.51
  -2  -5 -14   21.59   12.11
  -2  -5 -13   16.13   12.07
  -2  -5 -12  107.06   17.82
  -2  -5 -11  448.62   36.02
  -2  -5 -11  461.31   35.42
  -2  -5 -10  238.55   22.85
  -2  -5 -10  278.68   22.92
  -2  -5 -10  205.58   22.21
  -2  -5 -10  243.17   23.31
  -2  -5 -10  213.88   22.80
  -2  -5  -9    8.35    6.04
  -2  -5  -9   12.55    7.96
  -2  -5  -9    8.71    9.80
  -2  -5  -8  147.25   16.58
  -2  -5  -8  167.84   17.17
  -2  -5  -8  176.67   18.19
  -2  -5  -7 1990.73  108.23
  -2  -5  -7 2007.21  107.28
  -2  -5  -7 1892.64  107.69
  -2  -5  -6 1834.46  103.16
  -2  -5  -6 1930.49   99.71
  -2  -5  -6 1864.13  102.47
  -2  -5  -5 1427.57   74.67
  -2  -5  -5 1399.89   76.59
  -2  -5  -5 1413.43   76.64
  -2  -5  -5 1478.89   79.70
  -2  -5  -5 1371.02   78.39
  -2  -5  -4  112.22   12.89
  -2  -5  -4  128.19   13.09
  -2  -5  -4  129.05   10.96
  -2  -5  -4  163.73   14.77
  -2  -5  -4  141.24   13.01
  -2  -5  -4  131.11   11.58
  -2  -5  -3   22.87    6.66
  -2  -5  -3   10.33    6.21
  -2  -5  -3   21.70    6.74
  -2  -5  -3   22.30    6.30
  -2  -5  -3   19.49    3.80
  -2  -5  -3   18.51    6.76
  -2  -5  -2 2169.10  110.99
  -2  -5  -2 2256.05  111.51
  -2  -5  -2 2239.19  111.57
  -2  -5  -2 2231.89  111.01
  -2  -5  -1 1319.60   73.79
  -2  -5  -1 1363.89   74.91
  -2  -5  -1 1320.75   74.53
  -2  -5   0  753.19   46.10
  -2  -5   0  826.61   47.94
  -2  -5   0  753.22   47.52
  -2  -5   1   13.83    6.77
  -2  -5   1   23.38    8.02
  -2  -5   2 1143.02   67.72
  -2  -5   2 1110.40   66.48
  -2  -5   3  623.09   43.47
  -2  -5   3  635.26   42.62
  -2  -5   4  546.85   40.59
  -2  -5   4  560.65   39.23
  -2  -5   5   -1.80    9.79
  -2  -5   6  215.04   24.60
  -2  -4 -14  152.30   21.81
  -2  -4 -13    3.95   10.23
  -2  -4 -12   63.73   14.53
  -2  -4 -11  123.59   17.30
  -2  -4 -11  118.18   16.77
  -2  -4 -10  294.18   26.21
  -2  -4 -10  357.73   28.16
  -2  -4 -10  286.74   26.49
  -2  -4 -10  313.72   26.88
  -2  -4  -9   10.06    7.90
  -2  -4  -9    2.66    5.02
  -2  -4  -9    1.37    5.77
  -2  -4  -9    1.37    4.86
  -2  -4  -9    2.75    8.12
  -2  -4  -8  149.11   16.49
  -2  -4  -8  156.55   16.17
  -2  -4  -8  163.78   17.52
  -2  -4  -7  822.69   51.02
  -2  -4  -7  905.23   53.07
  -2  -4  -7  903.82   53.08
  -2  -4  -6 1712.85   89.66
  -2  -4  -6 1731.08   94.67
  -2  -4  -6 1719.14   93.51
  -2  -4  -6 1777.38   95.30
  -2  -4  -5  536.22   32.85
  -2  -4  -5  520.86   32.19
  -2  -4  -5  492.43   27.78
  -2  -4  -5  535.25   30.28
  -2  -4  -5  536.15   33.57
  -2  -4  -5  538.50   33.96
  -2  -4  -4   94.40   10.81
  -2  -4  -4  118.10   11.04
  -2  -4  -4  100.02    8.16
  -2  -4  -4  102.25    9.65
  -2  -4  -4   85.03    9.34
  -2  -4  -4   68.95   10.85
  -2  -4  -4   92.41   10.80
  -2  -4  -4   90.18   11.37
  -2  -4  -4   52.54   11.44
  -2  -4  -3 2140.97   31.87
  -2  -4  -3 1870.73   32.55
  -2  -4  -3 2281.95   39.41
  -2  -4  -3 2289.88   40.74
  -2  -4  -3 2226.29   35.96
  -2  -4  -3 2002.06   26.51
  -2  -4  -2 4845.29  253.26
  -2  -4  -2 5291.84  258.28
  -2  -4  -2 5212.88  258.05
  -2  -4  -2 5390.71  258.96
  -2  -4  -2 5141.14  257.44
  -2  -4  -2 4984.79  258.45
  -2  -4  -2 5194.11  258.10
  -2  -4  -2 5233.81  255.93
  -2  -4  -1 6697.47  324.99
  -2  -4  -1 7085.22  329.45
  -2  -4  -1 6078.60  328.28
  -2  -4  -1 7171.87  328.65
  -2  -4  -1 6724.65  329.08
  -2  -4  -1 7237.08  330.03
  -2  -4  -1 7151.03  330.18
  -2  -4   0 1894.19   88.84
  -2  -4   0 1682.97   85.10
  -2  -4   0 1454.10   88.35
  -2  -4   0 1457.13   88.09
  -2  -4   0 1767.77   91.54
  -2  -4   0 1780.15   88.90
  -2  -4   0 1808.10   91.50
  -2  -4   1 1035.22   52.73
  -2  -4   1  921.84   51.13
  -2  -4   1  915.77   56.13
  -2  -4   1  983.06   52.72
  -2  -4   1  905.83   55.74
  -2  -4   2  754.11   43.96
  -2  -4   2  847.07   45.24
  -2  -4   2  788.39   49.19
  -2  -4   2  787.86   44.36
  -2  -4   2  799.93   48.69
  -2  -4   3  691.06   40.32
  -2  -4   3  620.04   43.04
  -2  -4   3  646.96   42.59
  -2  -4   4  159.65   17.75
  -2  -4   4  135.43   15.64
  -2  -4   5   68.51   12.55
  -2  -4   5   61.22   12.00
  -2  -4   6  148.53   18.62
  -2  -3 -13   32.93   12.51
  -2  -3 -12   60.67   13.50
  -2  -3 -11  182.90   20.99
  -2  -3 -11  220.30   22.43
  -2  -3 -10  265.04   23.98
  -2  -3 -10  232.74   22.97
  -2  -3  -9   71.39   11.72
  -2  -3  -9   53.54   10.42
  -2  -3  -9   67.56   11.48
  -2  -3  -9   86.53   13.18
  -2  -3  -8    9.86    6.06
  -2  -3  -8    3.55    5.14
  -2  -3  -8   14.68    5.79
  -2  -3  -8    0.89    6.02
  -2  -3  -8   19.82    8.68
  -2  -3  -7  416.11   30.52
  -2  -3  -7  447.49   31.37
  -2  -3  -7  479.12   31.57
  -2  -3  -7  471.52   31.13
  -2  -3  -7  436.06   28.97
  -2  -3  -6 1521.90   84.06
  -2  -3  -6 1590.02   85.85
  -2  -3  -6 1613.55   86.67
  -2  -3  -5 1271.73   67.46
  -2  -3  -5 1387.49   68.87
  -2  -3  -5 1147.48   62.58
  -2  -3  -5 1260.82   67.61
  -2  -3  -5 1181.89   65.92
  -2  -3  -4   10.91    6.83
  -2  -3  -4   31.31    5.81
  -2  -3  -4   31.63    3.12
  -2  -3  -4   22.82    6.48
  -2  -3  -4   32.46    7.12
  -2  -3  -4   25.00    6.59
  -2  -3  -4   26.01    5.89
  -2  -3  -4   32.18    4.79
  -2  -3  -4   33.02    6.75
  -2  -3  -4   34.59    3.38
  -2  -3  -4   11.65    6.60
  -2  -3  -3  885.96   47.08
  -2  -3  -3  861.48   46.97
  -2  -3  -3  807.81   44.39
  -2  -3  -3  885.37   47.70
  -2  -3  -3  831.32   45.46
  -2  -3  -3  824.71   45.51
  -2  -3  -2 4205.00   91.23
  -2  -3  -2 4023.21   89.72
  -2  -3  -2  431.78   79.40
  -2  -3  -2  260.88   78.51
  -2  -3  -2 3937.78   83.60
  -2  -3  -2 3956.77   87.44
  -2  -3  -2 4287.45   91.45
  -2  -3  -2 3902.17   90.78
  -2  -3  -2 4119.98   87.19
  -2  -3  -2 3742.82   87.89
  -2  -3  -1 5754.90  273.64
  -2  -3  -1 5431.79  269.98
  -2  -3  -1 5522.37  270.51
  -2  -3  -1 5467.87  272.92
  -2  -3  -1 5862.86  273.85
  -2  -3  -1 5027.71  272.85
  -2  -3  -1 5009.65  273.45
  -2  -3  -1 5204.30  273.56
  -2  -3  -1 5393.16  270.55
  -2  -3   0 1182.08   63.19
  -2  -3   0 1084.75   59.58
  -2  -3   0 1193.17   63.32
  -2  -3   0 1225.85   61.31
  -2  -3   0 1049.07   61.08
  -2  -3   0 1174.62   60.76
  -2  -3   1  215.09   16.52
  -2  -3   1  224.36   14.29
  -2  -3   1  218.03   15.05
  -2  -3   1  162.69   14.58
  -2  -3   1  201.49   17.08
  -2  -3   1  245.80   15.63
  -2  -3   1  232.02   14.61
  -2  -3   1  212.39   17.41
  -2  -3   2  405.36   23.32
  -2  -3   2  401.47   25.99
  -2  -3   2  397.17   21.44
  -2  -3   2  362.46   24.26
  -2  -3   2  368.73   27.44
  -2  -3   2  426.05   23.65
  -2  -3   2  427.41   28.25
  -2  -3   3 2351.19  125.25
  -2  -3   3 2394.38  127.24
  -2  -3   3 2346.49  127.23
  -2  -3   4 1045.33   62.00
  -2  -3   4 1081.57   63.51
  -2  -3   4 1048.78   62.84
  -2  -3   5  135.43   15.55
  -2  -3   5  150.05   17.05
  -2  -3   5  130.40   16.62
  -2  -3   6   33.89   11.90
  -2  -3   6   23.19    9.56
  -2  -2 -12    7.57    8.00
  -2  -2 -11  198.74   22.16
  -2  -2 -11  235.31   23.24
  -2  -2 -10  521.90   37.06
  -2  -2 -10  481.53   37.08
  -2  -2  -9  417.36   32.76
  -2  -2  -9  475.58   33.41
  -2  -2  -9  475.20   34.27
  -2  -2  -9  480.45   34.12
  -2  -2  -8    6.28    6.51
  -2  -2  -8   17.84    6.66
  -2  -2  -8   19.94    8.89
  -2  -2  -8    4.91    5.34
  -2  -2  -7  218.78   18.95
  -2  -2  -7  260.80   19.79
  -2  -2  -7  199.76   18.87
  -2  -2  -7  212.75   19.16
  -2  -2  -6 1363.14   70.46
  -2  -2  -6 1210.78   73.17
  -2  -2  -6 1325.35   72.38
  -2  -2  -6 1308.14   73.55
  -2  -2  -6 1336.35   73.72
  -2  -2  -5 1873.24  102.96
  -2  -2  -5 1986.12  102.21
  -2  -2  -5 1931.44  103.50
  -2  -2  -5 1963.18  100.42
  -2  -2  -5 1888.09  103.27
  -2  -2  -4  219.18   14.31
  -2  -2  -4  186.22    7.89
  -2  -2  -4  223.98   13.13
  -2  -2  -4  171.63   12.82
  -2  -2  -4  145.38   13.01
  -2  -2  -4  203.89   11.49
  -2  -2  -4  237.34   14.17
  -2  -2  -3  474.20   18.60
  -2  -2  -3  460.36   22.83
  -2  -2  -3  451.70   22.00
  -2  -2  -3  400.79   18.31
  -2  -2  -3  478.05   22.53
  -2  -2  -3  436.43   20.80
  -2  -2  -3  437.23   19.00
  -2  -2  -3  505.76   23.73
  -2  -2  -2 1945.60   82.28
  -2  -2  -2 1955.75   80.47
  -2  -2  -2 1872.29   80.76
  -2  -2  -2 1860.50   81.24
  -2  -2  -2 2094.11   82.42
  -2  -2  -2 1981.30   79.85
  -2  -2  -2 1987.41   81.98
  -2  -2  -2 1918.44   79.95
  -2  -2  -2 1964.88   82.68
  -2  -2  -2 2112.86   83.76
  -2  -2  -1 2221.17  108.98
  -2  -2  -1 2161.27  107.75
  -2  -2  -1 2359.62  109.03
  -2  -2  -1 2233.11  107.85
  -2  -2  -1 2286.55  108.59
  -2  -2  -1 2050.32  109.37
  -2  -2  -1 2122.32  108.82
  -2  -2  -1 2226.01  109.16
  -2  -2  -1 2034.83  109.11
  -2  -2   0  177.63   10.97
  -2  -2   0  178.16   10.65
  -2  -2   0  180.20    6.93
  -2  -2   0  151.69    9.20
  -2  -2   0  139.01    9.15
  -2  -2   0  161.65    6.61
  -2  -2   0  185.99    9.07
  -2  -2   0  158.66    8.72
  -2  -2   0  182.16    9.28
  -2  -2   0  145.23    9.41
  -2  -2   1    2.68    3.41
  -2  -2   1    2.39    2.76
  -2  -2   1    3.27    2.56
  -2  -2   1    0.71    4.01
  -2  -2   1    1.18    4.98
  -2  -2   1    7.44    4.32
  -2  -2   1    7.63    3.15
  -2  -2   2 1314.50   64.61
  -2  -2   2 1208.52   60.69
  -2  -2   2 1301.60   65.94
  -2  -2   2 1299.35   62.23
  -2  -2   2 1325.83   64.99
  -2  -2   2 1060.96   61.87
  -2  -2   2 1149.31   60.67
  -2  -2   2 1237.91   66.38
  -2  -2   3 1779.66   95.58
  -2  -2   3 1806.96   95.22
  -2  -2   3 1881.02   91.11
  -2  -2   3 1584.66   90.29
  -2  -2   3 1738.49   95.15
  -2  -2   4  660.71   42.80
  -2  -2   4  729.29   42.82
  -2  -2   4  600.88   40.94
  -2  -2   4  638.00   37.95
  -2  -2   5  541.59   37.22
  -2  -2   5  593.05   39.49
  -2  -2   5  501.42   36.61
  -2  -2   6  136.19   15.85
  -2  -2   6  151.71   19.83
  -2  -2   6   99.10   14.02
  -2  -2   7  284.49   28.02
  -2  -2   8  811.11   56.70
  -2  -2   9  225.08   27.20
  -2  -1 -12   31.61   11.15
  -2  -1 -11  232.49   24.53
  -2  -1 -10  348.23   30.07
  -2  -1 -10  354.07   28.75
  -2  -1  -9  753.19   52.29
  -2  -1  -9  940.68   53.00
  -2  -1  -9  812.19   53.16
  -2  -1  -9  857.48   54.31
  -2  -1  -8    6.12    4.77
  -2  -1  -8    6.38    5.78
  -2  -1  -8   -1.33    6.63
  -2  -1  -8   12.86    7.65
  -2  -1  -7  172.83   17.10
  -2  -1  -7  192.69   16.97
  -2  -1  -7  191.58   17.86
  -2  -1  -7  212.28   18.75
  -2  -1  -6 1142.82   64.59
  -2  -1  -6 1139.44   62.90
  -2  -1  -6 1106.77   64.63
  -2  -1  -6 1136.72   64.78
  -2  -1  -5 2680.73  145.11
  -2  -1  -5 2765.68  143.30
  -2  -1  -5 2881.92  141.16
  -2  -1  -5 2722.64  145.50
  -2  -1  -5 2730.10  145.20
  -2  -1  -4   72.42    7.73
  -2  -1  -4   66.08    8.48
  -2  -1  -4   63.63    9.04
  -2  -1  -4   76.54    8.68
  -2  -1  -4   77.21    5.95
  -2  -1  -4   61.65    8.00
  -2  -1  -4   72.39    8.66
  -2  -1  -4   49.02    8.85
  -2  -1  -4   88.60    6.65
  -2  -1  -3    1.46    2.71
  -2  -1  -3    6.81    4.13
  -2  -1  -3    9.47    2.80
  -2  -1  -3   -0.56    4.05
  -2  -1  -3    8.62    3.73
  -2  -1  -3    5.87    1.60
  -2  -1  -3    7.71    3.60
  -2  -1  -3    5.30    3.23
  -2  -1  -2  221.89   14.88
  -2  -1  -2  199.11   14.10
  -2  -1  -2  246.55   13.36
  -2  -1  -2  266.79   14.91
  -2  -1  -2  240.47   12.31
  -2  -1  -2  211.51   13.36
  -2  -1  -2  230.77   12.74
  -2  -1  -2  254.68   14.80
  -2  -1  -2  269.28   14.83
  -2  -1  -1 2596.79  146.22
  -2  -1  -1 2917.62  146.76
  -2  -1  -1 3127.94  145.89
  -2  -1  -1 2968.36  146.20
  -2  -1  -1 2968.64  146.73
  -2  -1  -1 3096.01  146.48
  -2  -1  -1 3039.90  147.10
  -2  -1  -1 2963.90  146.38
  -2  -1  -1 3142.71  146.29
  -2  -1  -1 3252.50  146.56
  -2  -1   0   18.90    4.88
  -2  -1   0   32.00    4.49
  -2  -1   0   35.02    4.79
  -2  -1   0   30.23    4.84
  -2  -1   0   29.27    3.96
  -2  -1   0   32.05    5.39
  -2  -1   0   27.31    4.61
  -2  -1   0   26.18    4.58
  -2  -1   0   28.00    4.54
  -2  -1   0   28.14    4.52
  -2  -1   0   36.57    5.32
  -2  -1   1   21.75    4.22
  -2  -1   1   25.75    3.09
  -2  -1   1   22.68    4.20
  -2  -1   1   29.65    5.73
  -2  -1   1   23.77    3.06
  -2  -1   1   28.55    3.65
  -2  -1   2  511.82   33.53
  -2  -1   2  602.57   31.68
  -2  -1   2  601.33   31.27
  -2  -1   2  502.28   31.40
  -2  -1   2  489.58   29.04
  -2  -1   2  598.46   32.40
  -2  -1   2  539.58   33.11
  -2  -1   3 1865.38   83.24
  -2  -1   3 2045.86   80.52
  -2  -1   3 1802.32   74.77
  -2  -1   3 1976.32   81.52
  -2  -1   3 1965.34   85.06
  -2  -1   3 1887.40   80.93
  -2  -1   3 1707.55   77.17
  -2  -1   3 1870.14   80.53
  -2  -1   3 1855.23   74.89
  -2  -1   4 1872.59  104.83
  -2  -1   4 1824.04  102.94
  -2  -1   4 2050.62  101.86
  -2  -1   4 1864.61   97.98
  -2  -1   5  297.98   22.88
  -2  -1   5  297.39   26.52
  -2  -1   5  296.23   23.23
  -2  -1   6   42.03    8.89
  -2  -1   6   33.05   14.85
  -2  -1   7  411.42   35.22
  -2  -1   8 1025.83   68.50
  -2  -1   9  336.46   34.23
  -2  -1  10   12.45   12.90
  -2  -1  11   -5.32   13.99
  -2   0 -12   10.35    8.98
  -2   0 -11  154.25   20.57
  -2   0 -10  343.77   30.90
  -2   0  -9  485.37   36.93
  -2   0  -9  509.70   37.74
  -2   0  -9  597.68   39.98
  -2   0  -8   11.39    6.99
  -2   0  -8   11.62    6.22
  -2   0  -8    4.23    6.32
  -2   0  -8    1.34    5.21
  -2   0  -7  134.03   15.33
  -2   0  -7  156.12   15.47
  -2   0  -7  107.28   14.23
  -2   0  -7  130.70   13.62
  -2   0  -6  982.02   59.87
  -2   0  -6 1070.45   58.05
  -2   0  -6 1032.05   60.58
  -2   0  -6 1045.67   60.72
  -2   0  -5  592.27   34.78
  -2   0  -5  621.93   37.87
  -2   0  -5  596.94   37.23
  -2   0  -5  590.73   37.40
  -2   0  -4  451.98   23.23
  -2   0  -4  429.52   28.13
  -2   0  -4  463.09   25.57
  -2   0  -4  470.23   25.75
  -2   0  -4  454.85   28.19
  -2   0  -4  508.47   29.11
  -2   0  -4  374.06   22.92
  -2   0  -4  466.10   28.14
  -2   0  -3  263.92   17.38
  -2   0  -3  208.75   17.00
  -2   0  -3  190.03   16.44
  -2   0  -3  240.74   15.35
  -2   0  -3  266.02   17.61
  -2   0  -3  254.58   14.70
  -2   0  -3  228.25   13.72
  -2   0  -3  256.66   16.94
  -2   0  -2 2917.57  149.99
  -2   0  -2 2822.12  150.41
  -2   0  -2 3035.39  147.74
  -2   0  -2 2878.51  148.75
  -2   0  -2 2869.57  147.22
  -2   0  -2 3005.73  150.27
  -2   0  -2 3014.15  149.56
  -2   0  -1   30.80    4.08
  -2   0  -1   37.42    5.38
  -2   0  -1   34.37    4.41
  -2   0  -1   30.14    5.10
  -2   0  -1   29.92    3.53
  -2   0  -1   27.62    4.37
  -2   0  -1   24.26    3.38
  -2   0  -1   37.13    4.30
  -2   0  -1   28.01    3.10
  -2   0   0 9987.68  475.41
  -2   0   0 9351.44  474.79
  -2   0   0 9166.96  474.57
  -2   0   0 9638.75  473.84
  -2   0   0 9715.38  476.82
  -2   0   0 9943.92  477.83
  -2   0   0 9677.26  474.76
  -2   0   0 9437.01  473.85
  -2   0   0 9195.23  476.06
  -2   0   1  290.38   18.51
  -2   0   1  227.34   16.41
  -2   0   1  226.01   13.30
  -2   0   1  269.75   14.76
  -2   0   1  255.50   15.66
  -2   0   1  233.61   13.38
  -2   0   2  208.65   14.35
  -2   0   2  217.53    8.58
  -2   0   2  238.23   13.68
  -2   0   2  204.69   15.30
  -2   0   2  242.33   12.01
  -2   0   2  245.89   12.80
  -2   0   3 1040.87   62.07
  -2   0   3 1110.63   59.01
  -2   0   3 1110.18   57.65
  -2   0   3 1147.91   58.16
  -2   0   3 1024.97   60.37
  -2   0   3 1037.11   55.03
  -2   0   4 3237.85  171.28
  -2   0   4 3193.35  168.75
  -2   0   4 3285.21  165.39
  -2   0   4 3195.32  166.25
  -2   0   4 3226.58  162.96
  -2   0   5  440.77   34.52
  -2   0   5  510.91   33.13
  -2   0   5  452.66   31.51
  -2   0   6    1.26    9.28
  -2   0   6    1.18    4.88
  -2   0   6    8.48   11.66
  -2   0   7  588.06   45.51
  -2   0   7  633.94   42.49
  -2   0   8  668.98   50.07
  -2   0   9  359.86   35.76
  -2   0  10   43.05   16.36
  -2   0  11   35.39   15.73
  -2   0  12   25.88   16.57
  -2   1 -12   37.12   13.33
  -2   1 -11   99.86   16.95
  -2   1 -10  163.36   20.43
  -2   1  -9  114.37   16.39
  -2   1  -8   23.54    7.45
  -2   1  -8   13.84    8.01
  -2   1  -8   18.60    7.93
  -2   1  -7  158.24   17.51
  -2   1  -7  146.97   16.00
  -2   1  -7  155.79   17.04
  -2   1  -6  730.95   46.31
  -2   1  -6  743.54   46.06
  -2   1  -6  724.75   46.10
  -2   1  -5  520.31   35.13
  -2   1  -5  560.02   32.23
  -2   1  -5  506.38   34.70
  -2   1  -5  588.90   36.15
  -2   1  -4  210.93   16.83
  -2   1  -4  226.07   14.20
  -2   1  -4  178.49   14.89
  -2   1  -4  203.77   17.13
  -2   1  -4  202.88   16.72
  -2   1  -3   -2.11    4.09
  -2   1  -3   -2.97    4.96
  -2   1  -3    2.23    3.91
  -2   1  -3    9.10    4.83
  -2   1  -3   -0.72    4.79
  -2   1  -3    4.61    3.27
  -2   1  -3    2.91    2.58
  -2   1  -3   -0.77    3.33
  -2   1  -2 1372.24   72.02
  -2   1  -2 1371.00   72.90
  -2   1  -2 1296.17   73.07
  -2   1  -2 1381.58   68.56
  -2   1  -2 1271.06   70.54
  -2   1  -2 1383.70   72.81
  -2   1  -2 1361.24   73.02
  -2   1  -2 1386.25   72.15
  -2   1  -1 3249.51  160.84
  -2   1  -1 2718.23  160.58
  -2   1  -1 3312.44  160.01
  -2   1  -1 3199.42  160.89
  -2   1  -1 3225.79  162.20
  -2   1  -1 3398.78  161.15
  -2   1  -1 3295.23  157.52
  -2   1  -1 3235.62  159.77
  -2   1   0 1070.30   67.09
  -2   1   0 1220.64   66.28
  -2   1   0 1444.36   69.65
  -2   1   0 1306.34   65.19
  -2   1   0 1345.05   68.68
  -2   1   0 1337.83   66.83
  -2   1   0 1280.12   67.56
  -2   1   0 1268.27   66.50
  -2   1   0 1223.56   65.03
  -2   1   1 1555.55   55.30
  -2   1   1 1527.17   55.95
  -2   1   1 1318.86   49.27
  -2   1   1 1378.63   48.25
  -2   1   1 1359.83   49.57
  -2   1   1 1458.83   50.48
  -2   1   1 1386.91   46.92
  -2   1   2  623.26   37.01
  -2   1   2  638.64   37.61
  -2   1   2  557.28   33.34
  -2   1   2  616.60   34.82
  -2   1   2  582.10   32.52
  -2   1   2  618.77   34.02
  -2   1   2  587.61   31.86
  -2   1   2  589.49   31.98
  -2   1   3 2881.70  132.94
  -2   1   3 3075.75  140.94
  -2   1   3 2909.73  141.59
  -2   1   3 3248.93  137.46
  -2   1   3 3077.88  135.26
  -2   1   3 3118.28  133.26
  -2   1   3 3229.32  136.54
  -2   1   4 2596.12  133.60
  -2   1   4 2486.43  142.53
  -2   1   4 2716.84  142.28
  -2   1   4 2576.39  137.53
  -2   1   4 2782.82  133.95
  -2   1   5 1457.14   80.78
  -2   1   5 1323.89   81.46
  -2   1   6   22.71   11.56
  -2   1   6    8.68   12.83
  -2   1   7  432.15   33.76
  -2   1   7  397.49   36.42
  -2   1   8  251.92   28.60
  -2   1   8  235.95   24.64
  -2   1   9  470.86   41.77
  -2   1  10   23.03   14.94
  -2   1  11   19.33   14.08
  -2   1  12   67.49   21.18
  -2   2 -11   70.83   16.09
  -2   2 -10  247.98   26.79
  -2   2  -9  244.70   25.75
  -2   2  -8  146.96   17.93
  -2   2  -8  198.13   20.56
  -2   2  -8  158.23   18.99
  -2   2  -7   28.96    8.46
  -2   2  -7   31.30   10.05
  -2   2  -7   25.65    8.73
  -2   2  -6   38.26    9.73
  -2   2  -6   20.06    7.68
  -2   2  -6   22.03    7.64
  -2   2  -5  707.09   46.37
  -2   2  -5  773.54   47.38
  -2   2  -5  783.23   47.35
  -2   2  -4  112.15   12.60
  -2   2  -4  126.21   13.36
  -2   2  -4  113.82   13.23
  -2   2  -3    2.48    4.62
  -2   2  -3   -0.88    4.92
  -2   2  -3    3.71    2.88
  -2   2  -3   -0.91    5.09
  -2   2  -2  617.49   38.11
  -2   2  -2  670.88   39.16
  -2   2  -2  713.49   39.79
  -2   2  -2  644.00   34.14
  -2   2  -2  672.92   38.52
  -2   2  -2  679.53   37.29
  -2   2  -2  718.22   39.74
  -2   2  -2  767.83   39.04
  -2   2  -1 2917.02  146.42
  -2   2  -1 3119.62  149.41
  -2   2  -1 3199.63  152.17
  -2   2  -1 3118.50  150.74
  -2   2  -1 3070.38  150.65
  -2   2  -1 3059.49  149.50
  -2   2  -1 3094.90  150.57
  -2   2  -1 3202.61  151.06
  -2   2   0 3006.14  153.96
  -2   2   0 3016.81  151.75
  -2   2   0 3261.66  156.59
  -2   2   0 3155.52  154.79
  -2   2   0 3157.55  154.11
  -2   2   0 3276.86  156.62
  -2   2   0 3162.49  154.43
  -2   2   0 3125.33  152.54
  -2   2   1  700.03   48.29
  -2   2   1  926.13   51.37
  -2   2   1  936.06   51.57
  -2   2   1  930.44   48.94
  -2   2   1  906.28   45.74
  -2   2   1  901.84   48.33
  -2   2   1  878.30   48.02
  -2   2   1  882.51   46.19
  -2   2   1  871.52   47.26
  -2   2   2  318.18   19.41
  -2   2   2  322.99   23.18
  -2   2   2  304.72   17.57
  -2   2   2  294.72   22.89
  -2   2   2  297.01   20.77
  -2   2   2  318.02   18.36
  -2   2   2  300.29   19.46
  -2   2   2  306.54   19.55
  -2   2   3 1446.33   86.97
  -2   2   3 1598.88   83.15
  -2   2   3 1700.39   88.24
  -2   2   3 1598.96   83.68
  -2   2   3 1457.32   81.18
  -2   2   3 1528.70   81.46
  -2   2   3 1590.53   81.94
  -2   2   3 1656.20   82.87
  -2   2   4 2007.57  103.43
  -2   2   4 1976.14  110.36
  -2   2   4 1951.46  104.01
  -2   2   4 2077.72  103.71
  -2   2   4 1926.01  110.51
  -2   2   5  731.66   48.10
  -2   2   5  712.47   48.30
  -2   2   6   11.02   11.82
  -2   2   6   12.29   10.76
  -2   2   7  300.83   28.16
  -2   2   7  290.14   30.16
  -2   2   8  411.95   37.93
  -2   2   8  421.12   35.30
  -2   2   9  302.34   30.36
  -2   2   9  313.82   33.42
  -2   2  10  113.97   22.19
  -2   2  11   16.69   16.22
  -2   2  12  142.53   26.20
  -2   3 -10  208.18   25.33
  -2   3  -9  238.99   26.26
  -2   3  -8  109.80   15.10
  -2   3  -8   79.33   15.30
  -2   3  -8   79.98   14.06
  -2   3  -7   16.38    9.83
  -2   3  -7   16.76    7.93
  -2   3  -7   23.66    8.99
  -2   3  -6  540.40   38.43
  -2   3  -6  536.37   38.81
  -2   3  -6  575.19   39.56
  -2   3  -5  749.90   50.33
  -2   3  -5  834.65   51.37
  -2   3  -5  843.89   51.54
  -2   3  -4 1004.54   60.18
  -2   3  -4 1005.75   59.49
  -2   3  -4 1049.64   60.92
  -2   3  -4 1003.76   60.07
  -2   3  -3 1058.05   63.29
  -2   3  -3 1140.48   63.27
  -2   3  -3 1098.76   63.23
  -2   3  -3 1102.26   63.95
  -2   3  -2  243.55   18.68
  -2   3  -2  230.17   18.13
  -2   3  -2  230.71   17.59
  -2   3  -2  196.31   16.50
  -2   3  -2  199.81   17.89
  -2   3  -1  504.83   30.12
  -2   3  -1  466.22   30.66
  -2   3  -1  463.91   30.03
  -2   3  -1  494.46   31.58
  -2   3  -1  474.49   29.94
  -2   3  -1  497.40   31.35
  -2   3   0  479.98   34.47
  -2   3   0  560.35   32.75
  -2   3   0  616.64   36.08
  -2   3   0  608.65   37.32
  -2   3   0  659.22   37.55
  -2   3   0  576.72   35.19
  -2   3   0  624.21   36.41
  -2   3   0  680.03   34.91
  -2   3   1  245.34   15.97
  -2   3   1  268.17   19.59
  -2   3   1  245.46   19.52
  -2   3   1  230.48   14.02
  -2   3   1  261.94   18.28
  -2   3   1  251.44   15.92
  -2   3   1  241.46   17.60
  -2   3   2  465.06   30.20
  -2   3   2  411.49   25.08
  -2   3   2  369.88   27.85
  -2   3   2  393.60   24.01
  -2   3   2  412.85   23.53
  -2   3   2  407.56   26.19
  -2   3   2  397.76   25.69
  -2   3   3 1339.66   73.40
  -2   3   3 1353.86   78.70
  -2   3   3 1306.94   71.81
  -2   3   3 1338.57   78.04
  -2   3   3 1469.35   71.87
  -2   3   3 1341.44   73.90
  -2   3   4 1440.68   85.07
  -2   3   4 1429.24   85.36
  -2   3   4 1423.20   79.18
  -2   3   4 1559.20   78.78
  -2   3   4 1485.05   79.78
  -2   3   5  339.22   28.72
  -2   3   5  350.90   30.12
  -2   3   6   98.05   16.86
  -2   3   6   85.29   15.21
  -2   3   7  211.39   24.56
  -2   3   7  193.11   23.54
  -2   3   8  526.18   43.63
  -2   3   8  530.89   42.36
  -2   3   9  442.77   40.18
  -2   3   9  447.94   38.71
  -2   3  10  153.95   23.40
  -2   3  10  166.39   26.25
  -2   3  11   -5.54   14.09
  -2   3  12   44.52   18.08
  -2   4  -9  254.38   27.53
  -2   4  -8   91.68   16.59
  -2   4  -7    5.34    8.07
  -2   4  -7   -3.35    6.71
  -2   4  -7   -1.76    6.42
  -2   4  -6  180.60   20.47
  -2   4  -6  158.19   18.75
  -2   4  -6  184.83   20.37
  -2   4  -5 1354.82   79.54
  -2   4  -5 1360.12   80.37
  -2   4  -5 1339.96   79.39
  -2   4  -4  939.45   56.81
  -2   4  -4  860.89   56.45
  -2   4  -4  936.43   56.38
  -2   4  -3  309.60   25.09
  -2   4  -3  280.74   23.49
  -2   4  -3  354.15   26.26
  -2   4  -3  326.39   25.16
  -2   4  -2    8.93    6.62
  -2   4  -2    1.12    5.40
  -2   4  -2   -2.11    4.34
  -2   4  -2    2.36    5.90
  -2   4  -1 1262.92   71.26
  -2   4  -1 1260.54   69.76
  -2   4  -1 1225.12   71.09
  -2   4  -1 1260.72   71.60
  -2   4   0  741.28   45.78
  -2   4   0  807.09   47.02
  -2   4   0  749.37   43.85
  -2   4   0  721.47   45.44
  -2   4   0  758.97   46.06
  -2   4   1  588.80   39.50
  -2   4   1  707.66   42.02
  -2   4   1  620.58   39.03
  -2   4   1  633.26   39.49
  -2   4   1  632.33   37.27
  -2   4   2   13.09    6.59
  -2   4   2   -1.29    6.34
  -2   4   2   -2.78    6.00
  -2   4   2    1.11    4.56
  -2   4   2   -3.27    5.05
  -2   4   3   30.15    7.58
  -2   4   3   17.27    8.45
  -2   4   3   14.89    6.84
  -2   4   3   27.66    7.40
  -2   4   4  533.10   39.95
  -2   4   4  588.26   39.54
  -2   4   4  546.25   35.15
  -2   4   4  560.50   35.83
  -2   4   5   29.44   11.23
  -2   4   5    3.19    8.55
  -2   4   6   28.07   14.28
  -2   4   6   16.17    9.50
  -2   4   7  372.21   33.97
  -2   4   7  422.37   36.26
  -2   4   8 1024.05   70.01
  -2   4   8 1068.97   70.23
  -2   4   9  534.28   46.06
  -2   4   9  584.52   46.20
  -2   4  10  516.46   48.27
  -2   4  10  651.51   49.54
  -2   4  11   -2.81   15.48
  -2   4  11    7.82   12.79
  -2   4  12   47.40   19.32
  -2   4  13  100.33   24.02
  -2   5  -8  151.14   21.65
  -2   5  -7   -3.89    9.53
  -2   5  -7    7.38    7.39
  -2   5  -7   -1.94    8.00
  -2   5  -6  174.32   20.62
  -2   5  -6  192.95   22.15
  -2   5  -6  188.93   21.49
  -2   5  -5  578.61   40.26
  -2   5  -5  546.00   39.71
  -2   5  -5  471.24   38.94
  -2   5  -4  774.59   52.49
  -2   5  -4  824.54   52.74
  -2   5  -4  842.17   53.97
  -2   5  -3   86.97   13.05
  -2   5  -3   81.62   12.96
  -2   5  -3   88.64   13.60
  -2   5  -2   33.27    9.55
  -2   5  -2   38.83    9.53
  -2   5  -2   60.42   11.38
  -2   5  -1  517.89   35.26
  -2   5  -1  481.52   35.81
  -2   5  -1  511.30   34.23
  -2   5  -1  546.43   36.13
  -2   5   0 1157.32   66.85
  -2   5   0 1136.98   67.06
  -2   5   0 1063.90   65.53
  -2   5   0 1233.85   68.00
  -2   5   0 1127.42   64.83
  -2   5   1  282.58   23.49
  -2   5   1  288.21   24.80
  -2   5   1  301.26   23.44
  -2   5   1  306.85   24.81
  -2   5   1  318.42   22.67
  -2   5   2  134.47   15.75
  -2   5   2  117.37   14.36
  -2   5   2  122.65   16.10
  -2   5   2  144.27   14.07
  -2   5   2  156.13   16.06
  -2   5   3  151.82   16.55
  -2   5   3  152.64   18.77
  -2   5   3  170.37   17.46
  -2   5   3  182.61   17.74
  -2   5   4  697.28   45.39
  -2   5   4  751.97   50.81
  -2   5   4  756.41   48.63
  -2   5   4  737.19   46.36
  -2   5   5  577.75   37.97
  -2   5   5  543.45   42.50
  -2   5   5  578.78   41.23
  -2   5   5  573.56   38.47
  -2   5   6  201.53   23.96
  -2   5   6  155.73   20.41
  -2   5   7   -8.62   13.65
  -2   5   7   12.09   11.09
  -2   5   8  701.23   51.68
  -2   5   8  677.04   52.21
  -2   5   9  404.07   37.85
  -2   5   9  364.26   36.98
  -2   5  10  187.41   25.71
  -2   5  10  148.92   25.32
  -2   5  11    2.80   15.43
  -2   5  11   -5.50   13.75
  -2   5  12   83.44   20.79
  -2   5  12  133.07   25.34
  -2   5  13  333.92   37.99
  -2   5  13  313.33   37.73
  -2   6  -7    2.02   10.47
  -2   6  -7   12.67   11.45
  -2   6  -7    2.15    9.72
  -2   6  -6  125.84   18.97
  -2   6  -6  160.71   20.97
  -2   6  -6  114.77   18.49
  -2   6  -5  189.51   22.73
  -2   6  -5  222.16   23.48
  -2   6  -5  225.74   25.15
  -2   6  -4  549.63   40.26
  -2   6  -4  534.22   40.70
  -2   6  -4  531.84   41.18
  -2   6  -3    3.02    7.69
  -2   6  -3    1.64    8.21
  -2   6  -3    5.21    8.99
  -2   6  -2    3.29    8.22
  -2   6  -2    1.55    8.03
  -2   6  -2    1.38    8.35
  -2   6  -1  533.70   37.91
  -2   6  -1  520.48   38.56
  -2   6  -1  511.12   36.36
  -2   6   0 1042.03   61.06
  -2   6   0 1006.43   62.25
  -2   6   0 1018.77   63.15
  -2   6   0 1002.70   62.29
  -2   6   1  464.54   36.12
  -2   6   1  580.35   38.99
  -2   6   1  510.17   37.55
  -2   6   1  576.51   36.49
  -2   6   2  116.30   16.17
  -2   6   2  139.83   17.64
  -2   6   2  155.53   18.22
  -2   6   3  169.52   19.32
  -2   6   3  173.09   18.60
  -2   6   3  137.73   18.59
  -2   6   3  164.30   17.59
  -2   6   4  637.96   45.57
  -2   6   4  710.02   45.44
  -2   6   4  664.15   48.67
  -2   6   4  746.93   47.00
  -2   6   5 1410.57   82.38
  -2   6   5 1207.37   77.48
  -2   6   5 1372.14   77.15
  -2   6   5 1239.08   75.44
  -2   6   6  377.07   34.31
  -2   6   6  326.52   30.82
  -2   6   7    2.29   12.61
  -2   6   7    4.03    9.12
  -2   6   8  102.10   20.36
  -2   6   8  117.17   19.56
  -2   6   9  780.43   57.03
  -2   6   9  706.49   57.05
  -2   6  10  150.69   24.85
  -2   6  10  132.29   23.25
  -2   6  11   22.94   15.81
  -2   6  11   13.87   14.85
  -2   6  12   23.98   15.51
  -2   6  12  -14.68   17.31
  -2   6  13  121.33   24.44
  -2   7  -6   27.58   12.25
  -2   7  -6   27.05   12.11
  -2   7  -6   21.48   12.40
  -2   7  -5  180.43   22.54
  -2   7  -5  183.57   23.12
  -2   7  -5  171.01   23.37
  -2   7  -4  158.74   20.74
  -2   7  -4  177.60   21.69
  -2   7  -4  157.37   21.45
  -2   7  -3  156.47   20.53
  -2   7  -3  151.94   19.23
  -2   7  -3  134.46   19.96
  -2   7  -2   36.96   11.83
  -2   7  -2   41.49   13.01
  -2   7  -2   46.30   12.64
  -2   7  -1  230.64   22.83
  -2   7  -1  199.36   22.78
  -2   7  -1  236.45   24.54
  -2   7   0  612.81   43.49
  -2   7   0  638.13   44.90
  -2   7   0  577.88   41.69
  -2   7   1  876.03   55.96
  -2   7   1  832.41   56.21
  -2   7   2   96.41   14.81
  -2   7   2   76.93   15.00
  -2   7   3   94.82   15.07
  -2   7   3  107.81   16.95
  -2   7   3  129.49   17.93
  -2   7   4  695.73   51.31
  -2   7   4  717.06   49.38
  -2   7   4  725.95   48.22
  -2   7   5 1282.49   81.23
  -2   7   5 1249.18   76.11
  -2   7   5 1280.39   77.09
  -2   7   6  320.37   32.76
  -2   7   7   14.44   14.02
  -2   7   8  263.19   30.64
  -2   7   8  192.69   24.95
  -2   7   9  213.96   29.27
  -2   7   9  223.95   27.85
  -2   7  10  158.74   26.27
  -2   7  10  119.62   22.26
  -2   7  11   23.79   15.73
  -2   7  11   51.57   18.21
  -2   7  12   40.31   18.81
  -2   7  12   22.91   18.61
  -2   8  -5  100.45   18.04
  -2   8  -5   82.64   17.55
  -2   8  -5   80.67   18.45
  -2   8  -4  245.26   27.68
  -2   8  -4  272.31   28.22
  -2   8  -4  218.44   27.39
  -2   8  -3  144.50   20.06
  -2   8  -3  110.52   18.99
  -2   8  -3  146.25   21.92
  -2   8  -2    5.61   10.15
  -2   8  -2    6.04   11.08
  -2   8  -2   -4.27   10.09
  -2   8  -1  117.27   18.94
  -2   8  -1  112.43   18.23
  -2   8  -1  123.64   17.67
  -2   8   0  631.63   48.12
  -2   8   0  715.66   50.28
  -2   8   1  544.36   42.39
  -2   8   1  587.17   43.84
  -2   8   2  189.86   22.46
  -2   8   2  213.02   24.49
  -2   8   3   26.50   11.07
  -2   8   3   32.46   10.97
  -2   8   3   47.70   13.35
  -2   8   4  305.62   31.61
  -2   8   4  389.69   32.42
  -2   8   4  299.57   29.36
  -2   8   5  601.53   49.83
  -2   8   5  724.26   48.74
  -2   8   5  673.16   48.64
  -2   8   6  257.74   29.82
  -2   8   7   -2.52   13.44
  -2   8   8   58.46   18.33
  -2   8   9  254.93   31.72
  -2   8  10  205.70   29.82
  -2   8  11   15.35   14.51
  -2   8  12   -3.18   15.03
  -2   9  -3  287.52   31.02
  -2   9  -3  279.10   31.38
  -2   9  -3  276.25   30.17
  -2   9  -2   30.90   13.71
  -2   9  -2   24.66   13.28
  -2   9  -2   23.42   12.62
  -2   9  -1   43.55   14.14
  -2   9  -1    6.95   12.43
  -2   9   0  437.46   37.87
  -2   9   0  362.63   35.26
  -2   9   1  427.01   36.13
  -2   9   1  310.68   32.19
  -2   9   2  194.68   24.87
  -2   9   2  213.54   26.09
  -2   9   3   42.08   12.88
  -2   9   3   47.45   14.43
  -2   9   4  222.91   25.56
  -2   9   4  246.76   27.27
  -2   9   5  284.68   29.46
  -2   9   5  263.56   30.02
  -2   9   5  303.45   30.04
  -2   9   6  361.34   36.14
  -2   9   7  -15.68   13.31
  -2   9   8   21.96   13.76
  -2   9   9  216.11   30.48
  -2   9  10  138.40   25.38
  -2   9  11  134.49   25.42
  -2  10  -1  162.53   23.41
  -2  10  -1  110.79   20.70
  -2  10   0  349.88   36.84
  -2  10   0  383.98   36.04
  -2  10   1  397.18   37.43
  -2  10   1  376.75   37.64
  -2  10   2  224.53   28.10
  -2  10   2  209.93   26.74
  -2  10   3   -2.24   10.55
  -2  10   3    9.59   12.61
  -2  10   4   59.83   15.78
  -2  10   4   87.57   18.09
  -2  10   5  157.82   22.69
  -2  10   5  169.73   24.61
  -2  10   7    8.07   14.38
  -2  10   8   67.57   20.00
  -2  10   9  202.80   28.86
  -2  10  10  305.63   36.79
  -2  11   2   17.33   13.91
  -2  11   2   47.88   16.15
  -2  11   3    2.62   12.86
  -2  11   3   -2.45   13.47
  -2  11   4  230.59   28.03
  -2  11   4  199.19   27.74
  -2  11   5  294.18   32.91
  -2  11   5  321.64   34.72
  -2  11   9  204.94   29.02
  -1 -13  -8  138.85   21.96
  -1 -13  -8  154.37   22.90
  -1 -13  -7   12.39   12.17
  -1 -13  -6  131.61   22.60
  -1 -13  -5  128.85   22.15
  -1 -13  -4  385.61   38.30
  -1 -12 -10  210.24   26.75
  -1 -12  -9  341.46   34.22
  -1 -12  -8  365.85   35.23
  -1 -12  -8  364.45   35.19
  -1 -12  -7   20.62   11.91
  -1 -12  -7   28.01   12.27
  -1 -12  -6   77.57   17.67
  -1 -12  -6   62.73   14.64
  -1 -12  -5  194.22   26.37
  -1 -12  -5  210.45   25.65
  -1 -12  -4  222.56   27.76
  -1 -12  -4  229.17   27.88
  -1 -12  -3   22.15   14.15
  -1 -12  -3    4.98   11.28
  -1 -12  -2   75.54   18.18
  -1 -12  -2  105.38   19.91
  -1 -12  -1  140.14   23.23
  -1 -12  -1  138.84   23.85
  -1 -12   0  371.74   37.49
  -1 -11 -12   43.10   14.08
  -1 -11 -12   36.55   14.06
  -1 -11 -11   32.58   13.99
  -1 -11 -10  331.13   33.05
  -1 -11  -9  529.28   43.31
  -1 -11  -8  315.54   31.37
  -1 -11  -8  328.24   31.25
  -1 -11  -7   60.76   16.38
  -1 -11  -7   67.14   15.81
  -1 -11  -6  279.22   29.25
  -1 -11  -6  264.90   27.74
  -1 -11  -5  332.76   30.56
  -1 -11  -5  326.08   31.89
  -1 -11  -5  304.43   30.65
  -1 -11  -4  642.83   48.34
  -1 -11  -4  608.45   47.84
  -1 -11  -3  191.37   24.91
  -1 -11  -3  178.90   23.68
  -1 -11  -2   11.60   12.59
  -1 -11  -2   -2.35   11.10
  -1 -11  -1   93.34   19.93
  -1 -11  -1  113.33   20.70
  -1 -11   0   97.40   21.50
  -1 -11   0  117.34   20.43
  -1 -11   1  119.81   22.47
  -1 -11   1  106.47   19.37
  -1 -10 -13  220.39   27.36
  -1 -10 -13  191.85   24.94
  -1 -10 -12  114.43   20.33
  -1 -10 -12  108.24   18.53
  -1 -10 -11    6.05    9.33
  -1 -10 -11    6.62   10.63
  -1 -10 -10  336.13   31.35
  -1 -10 -10  352.84   33.28
  -1 -10  -9  622.75   44.76
  -1 -10  -9  502.66   40.74
  -1 -10  -8  413.82   34.44
  -1 -10  -8  329.07   31.57
  -1 -10  -8  398.79   32.73
  -1 -10  -7   73.11   14.92
  -1 -10  -7   53.28   13.91
  -1 -10  -6  149.88   20.76
  -1 -10  -6  169.27   20.90
  -1 -10  -5  569.23   42.65
  -1 -10  -5  560.75   41.30
  -1 -10  -5  508.13   40.60
  -1 -10  -4  937.80   60.38
  -1 -10  -4  804.48   57.14
  -1 -10  -4  942.93   61.14
  -1 -10  -3  334.90   28.94
  -1 -10  -3  313.04   31.06
  -1 -10  -3  348.21   32.49
  -1 -10  -2   79.62   16.75
  -1 -10  -2   73.54   16.56
  -1 -10  -1   42.87   13.40
  -1 -10  -1   73.06   16.02
  -1 -10   0  400.86   38.10
  -1 -10   0  431.59   37.77
  -1 -10   1  198.67   24.57
  -1 -10   1  209.96   26.70
  -1 -10   2  137.68   23.47
  -1 -10   3   13.21   14.56
  -1  -9 -13  113.70   20.58
  -1  -9 -13  145.39   21.46
  -1  -9 -12   34.75   13.28
  -1  -9 -12   45.82   13.77
  -1  -9 -11    6.24   10.77
  -1  -9 -11   13.76    9.11
  -1  -9 -10  556.40   41.46
  -1  -9 -10  512.29   41.83
  -1  -9  -9  651.19   47.48
  -1  -9  -9  716.63   49.53
  -1  -9  -8  697.00   47.42
  -1  -9  -8  684.09   47.46
  -1  -9  -8  696.43   49.38
  -1  -9  -7  178.28   21.38
  -1  -9  -7  246.91   24.04
  -1  -9  -7  198.45   21.28
  -1  -9  -6   30.42   11.30
  -1  -9  -6   33.81   11.41
  -1  -9  -6   35.83    9.81
  -1  -9  -5  461.21   34.67
  -1  -9  -5  450.18   35.37
  -1  -9  -5  440.29   33.07
  -1  -9  -5  417.50   34.20
  -1  -9  -4  676.15   46.49
  -1  -9  -4  667.17   47.33
  -1  -9  -4  664.53   45.92
  -1  -9  -3  844.32   54.77
  -1  -9  -3  855.80   56.70
  -1  -9  -3  867.99   57.38
  -1  -9  -2   20.41    8.36
  -1  -9  -2   27.93   12.62
  -1  -9  -2   36.99   13.02
  -1  -9  -1   89.93   16.29
  -1  -9  -1   76.56   16.78
  -1  -9   0  585.69   43.20
  -1  -9   0  458.67   39.65
  -1  -9   1  429.46   38.40
  -1  -9   1  450.58   37.61
  -1  -9   2  202.74   24.06
  -1  -9   2  214.19   26.74
  -1  -9   3   43.89   15.43
  -1  -9   4  121.19   21.89
  -1  -9   5  171.62   25.98
  -1  -8 -13  272.62   28.74
  -1  -8 -13  184.23   24.14
  -1  -8 -12  184.70   23.54
  -1  -8 -12  240.74   26.13
  -1  -8 -11   19.50   10.81
  -1  -8 -11   32.42   11.46
  -1  -8 -10  102.04   17.64
  -1  -8 -10   57.06   14.17
  -1  -8  -9  211.42   22.59
  -1  -8  -9  227.78   24.18
  -1  -8  -8  591.56   41.68
  -1  -8  -8  566.64   42.08
  -1  -8  -7   -1.42    8.68
  -1  -8  -7    4.80    8.82
  -1  -8  -7    4.40    6.78
  -1  -8  -6    3.07    8.82
  -1  -8  -6    2.92    8.27
  -1  -8  -6    5.56    6.70
  -1  -8  -5  951.10   58.73
  -1  -8  -5  937.66   59.76
  -1  -8  -5 1000.48   59.05
  -1  -8  -5  939.42   59.90
  -1  -8  -4 1672.90   97.55
  -1  -8  -4 1712.35   98.86
  -1  -8  -4 1683.23   96.57
  -1  -8  -4 1870.52   98.92
  -1  -8  -3  348.28   26.67
  -1  -8  -3  303.26   27.12
  -1  -8  -3  317.61   27.75
  -1  -8  -3  292.07   24.35
  -1  -8  -2  850.83   56.72
  -1  -8  -2  878.48   54.51
  -1  -8  -2  917.85   57.51
  -1  -8  -2  865.73   53.50
  -1  -8  -1  555.42   38.16
  -1  -8  -1  574.65   41.76
  -1  -8  -1  536.30   40.61
  -1  -8   0  478.62   38.51
  -1  -8   0  503.04   38.04
  -1  -8   1  482.58   40.45
  -1  -8   1  553.50   40.46
  -1  -8   2  218.97   25.11
  -1  -8   2  213.73   23.82
  -1  -8   3   30.91   14.52
  -1  -8   4  210.89   26.33
  -1  -8   5  350.47   35.71
  -1  -7 -14   83.41   18.03
  -1  -7 -13  283.51   29.28
  -1  -7 -12  202.99   24.53
  -1  -7 -12  233.26   25.45
  -1  -7 -11   32.88   11.94
  -1  -7 -11   35.20   11.46
  -1  -7 -10   18.90    9.65
  -1  -7 -10   20.58    9.63
  -1  -7  -9  197.91   21.57
  -1  -7  -9  171.41   20.21
  -1  -7  -8 1166.19   63.43
  -1  -7  -8 1004.72   60.92
  -1  -7  -7  176.73   17.55
  -1  -7  -7  191.23   20.11
  -1  -7  -7  127.28   17.06
  -1  -7  -6   73.08   13.70
  -1  -7  -6  103.23   14.58
  -1  -7  -6   95.06   13.21
  -1  -7  -5  306.67   25.85
  -1  -7  -5  313.58   25.65
  -1  -7  -5  336.54   24.90
  -1  -7  -5  308.68   25.01
  -1  -7  -4 1097.40   66.60
  -1  -7  -4 1201.42   67.02
  -1  -7  -4 1125.55   67.40
  -1  -7  -4 1121.39   66.07
  -1  -7  -3  666.34   43.36
  -1  -7  -3  663.85   43.88
  -1  -7  -3  654.83   41.89
  -1  -7  -3  666.06   42.76
  -1  -7  -2   25.16    7.70
  -1  -7  -2   20.75   10.50
  -1  -7  -2   21.58   10.78
  -1  -7  -2   15.80    6.45
  -1  -7  -1  420.17   32.31
  -1  -7  -1  403.17   31.87
  -1  -7  -1  399.14   28.76
  -1  -7  -1  404.98   29.26
  -1  -7   0 1315.27   80.66
  -1  -7   0 1427.14   82.42
  -1  -7   0 1383.79   77.95
  -1  -7   1 1603.66   92.26
  -1  -7   1 1512.51   90.34
  -1  -7   2  246.18   24.93
  -1  -7   2  201.27   22.17
  -1  -7   3   49.10   14.09
  -1  -7   3   22.12   11.02
  -1  -7   4  116.58   19.42
  -1  -7   5  388.26   35.47
  -1  -6 -14   15.63   10.98
  -1  -6 -13  156.76   22.02
  -1  -6 -12  146.46   19.99
  -1  -6 -12  184.96   22.17
  -1  -6 -11   68.85   14.12
  -1  -6 -11   53.96   13.06
  -1  -6 -10   31.76   11.57
  -1  -6 -10   14.87    9.68
  -1  -6  -9  515.75   35.34
  -1  -6  -9  388.77   32.97
  -1  -6  -8  688.36   44.06
  -1  -6  -8  759.06   45.21
  -1  -6  -7  709.81   45.53
  -1  -6  -7  711.55   42.84
  -1  -6  -7  654.36   44.53
  -1  -6  -6    1.01    7.36
  -1  -6  -6   11.00    8.94
  -1  -6  -6    1.18    5.77
  -1  -6  -5  790.04   47.45
  -1  -6  -5  719.83   47.26
  -1  -6  -5  808.86   45.70
  -1  -6  -5  732.64   46.61
  -1  -6  -4 1543.52   86.45
  -1  -6  -4 1611.96   85.90
  -1  -6  -4 1486.58   86.55
  -1  -6  -4 1615.81   87.27
  -1  -6  -3 1279.93   71.62
  -1  -6  -3 1253.44   70.00
  -1  -6  -3 1266.87   71.53
  -1  -6  -3 1293.15   72.34
  -1  -6  -3 1222.14   70.80
  -1  -6  -2  210.97   18.78
  -1  -6  -2  181.89   16.89
  -1  -6  -2  207.27   18.88
  -1  -6  -2  190.25   16.60
  -1  -6  -1  392.92   28.61
  -1  -6  -1  461.62   31.92
  -1  -6  -1  435.85   31.13
  -1  -6   0  689.68   43.83
  -1  -6   0  780.88   47.91
  -1  -6   0  719.49   46.48
  -1  -6   1 1453.47   84.93
  -1  -6   1 1467.11   83.81
  -1  -6   1 1449.09   80.79
  -1  -6   2  253.36   25.62
  -1  -6   2  290.70   24.94
  -1  -6   3   23.99   11.09
  -1  -6   3   39.83    9.89
  -1  -6   4  145.42   19.98
  -1  -6   5  665.71   49.41
  -1  -5 -14   55.16   16.10
  -1  -5 -13   88.62   17.09
  -1  -5 -12  274.12   27.67
  -1  -5 -11  165.47   20.40
  -1  -5 -11  181.88   21.15
  -1  -5 -10   29.73   10.62
  -1  -5 -10   60.71   12.53
  -1  -5  -9   63.73   10.41
  -1  -5  -9   47.34   11.42
  -1  -5  -9   59.33   12.62
  -1  -5  -8 1396.19   76.44
  -1  -5  -8 1375.72   75.76
  -1  -5  -8 1155.30   73.00
  -1  -5  -7   78.26   10.97
  -1  -5  -7  119.05   14.10
  -1  -5  -7   92.12   13.01
  -1  -5  -7   78.41   10.00
  -1  -5  -6   65.27   11.02
  -1  -5  -6   54.78   10.29
  -1  -5  -6   72.27    9.49
  -1  -5  -5  657.56   42.42
  -1  -5  -5  678.02   42.74
  -1  -5  -5  814.39   42.11
  -1  -5  -5  743.29   44.56
  -1  -5  -5  747.94   44.94
  -1  -5  -4 4906.22  214.44
  -1  -5  -4 4398.20  213.23
  -1  -5  -4 4790.46  216.02
  -1  -5  -4 4913.53  216.91
  -1  -5  -4 4945.49  217.10
  -1  -5  -3 1141.43   62.32
  -1  -5  -3 1170.58   61.66
  -1  -5  -3 1131.81   58.28
  -1  -5  -3 1045.71   61.65
  -1  -5  -3 1143.49   62.09
  -1  -5  -3 1162.07   62.55
  -1  -5  -3 1163.64   62.26
  -1  -5  -2 1127.56   59.29
  -1  -5  -2 1242.32   62.02
  -1  -5  -2 1185.11   62.16
  -1  -5  -2 1178.95   61.05
  -1  -5  -2 1152.57   61.12
  -1  -5  -1  164.56   10.51
  -1  -5  -1  189.70   15.85
  -1  -5  -1  156.07   14.63
  -1  -5  -1  176.08   13.59
  -1  -5   0  320.05   22.13
  -1  -5   0  309.66   24.32
  -1  -5   0  290.70   23.07
  -1  -5   1 1995.98  104.68
  -1  -5   1 1914.68  103.23
  -1  -5   1 1787.12  100.52
  -1  -5   2 1069.74   62.67
  -1  -5   2 1092.08   61.51
  -1  -5   2  951.97   58.18
  -1  -5   3  101.67   13.40
  -1  -5   3   93.77   15.18
  -1  -5   4   12.02    7.27
  -1  -5   4   11.18    9.91
  -1  -5   5  548.40   41.13
  -1  -5   6  344.74   31.63
  -1  -4 -14   47.97   15.18
  -1  -4 -13  103.72   18.13
  -1  -4 -12  359.81   32.21
  -1  -4 -11  192.93   22.23
  -1  -4 -10   23.86    9.35
  -1  -4 -10   21.67   10.08
  -1  -4  -9  372.14   27.80
  -1  -4  -9  342.69   28.03
  -1  -4  -9  326.26   26.06
  -1  -4  -8  744.12   45.04
  -1  -4  -8  664.15   44.89
  -1  -4  -8  702.41   44.09
  -1  -4  -7  854.01   53.22
  -1  -4  -7  907.11   53.01
  -1  -4  -7  894.24   52.79
  -1  -4  -6   -0.91    4.20
  -1  -4  -6    0.98    5.55
  -1  -4  -6   11.15    7.02
  -1  -4  -6    0.58    3.96
  -1  -4  -5  650.47   37.96
  -1  -4  -5  641.61   37.97
  -1  -4  -5  591.55   37.14
  -1  -4  -5  643.62   38.58
  -1  -4  -5  590.79   35.47
  -1  -4  -5  570.24   33.73
  -1  -4  -5  660.92   38.21
  -1  -4  -5  617.76   38.25
  -1  -4  -4  688.32   40.52
  -1  -4  -4  714.08   40.53
  -1  -4  -4  744.46   41.78
  -1  -4  -4  739.77   39.42
  -1  -4  -4  666.56   39.03
  -1  -4  -4  690.61   40.68
  -1  -4  -4  698.31   40.43
  -1  -4  -4  689.60   37.65
  -1  -4  -3 1970.26   92.83
  -1  -4  -3 1890.21   94.26
  -1  -4  -3 1961.88   94.47
  -1  -4  -3 1876.96   91.71
  -1  -4  -3 1945.46   94.39
  -1  -4  -3 1968.34   93.93
  -1  -4  -3 2031.99   94.69
  -1  -4  -3 1578.30   93.41
  -1  -4  -2  933.93   50.25
  -1  -4  -2  901.19   49.23
  -1  -4  -2  852.70   46.14
  -1  -4  -2  840.76   49.95
  -1  -4  -2  913.74   50.01
  -1  -4  -2  897.05   50.43
  -1  -4  -2  897.72   50.03
  -1  -4  -2  980.08   50.95
  -1  -4  -1  475.46   25.66
  -1  -4  -1  457.00   25.68
  -1  -4  -1  246.59   23.32
  -1  -4  -1  472.06   23.52
  -1  -4  -1  452.35   26.73
  -1  -4  -1  443.58   26.48
  -1  -4  -1  480.29   26.10
  -1  -4  -1  270.64   23.48
  -1  -4   0  595.53   34.00
  -1  -4   0  582.69   30.22
  -1  -4   0  578.00   29.72
  -1  -4   0  587.38   33.71
  -1  -4   0  594.05   35.81
  -1  -4   0  577.46   33.40
  -1  -4   0  580.19   35.14
  -1  -4   1 2827.40  141.47
  -1  -4   1 2523.06  141.87
  -1  -4   1 2850.97  141.57
  -1  -4   1 2760.79  144.81
  -1  -4   1 2717.66  139.02
  -1  -4   1 2774.05  141.65
  -1  -4   1 2764.82  143.95
  -1  -4   2 2746.55  139.39
  -1  -4   2 2683.78  143.03
  -1  -4   2 2681.67  144.40
  -1  -4   3  232.76   17.12
  -1  -4   3  199.93   19.41
  -1  -4   3  200.21   17.97
  -1  -4   4    2.28    5.71
  -1  -4   4    2.72    8.62
  -1  -4   5  927.54   58.58
  -1  -4   6  310.23   27.82
  -1  -3 -14    8.60   10.56
  -1  -3 -13  114.62   18.60
  -1  -3 -12  346.34   31.68
  -1  -3 -11   70.67   13.75
  -1  -3 -10   13.50    6.90
  -1  -3 -10   16.59    9.15
  -1  -3  -9  624.27   42.52
  -1  -3  -9  667.45   41.89
  -1  -3  -9  617.35   41.35
  -1  -3  -8  952.06   53.61
  -1  -3  -8  906.30   53.29
  -1  -3  -8  939.15   54.79
  -1  -3  -8  784.47   52.16
  -1  -3  -8  892.79   53.34
  -1  -3  -7  787.23   48.62
  -1  -3  -7  876.25   50.29
  -1  -3  -7  817.83   48.72
  -1  -3  -6  694.51   41.62
  -1  -3  -6  710.06   38.11
  -1  -3  -6  733.93   42.67
  -1  -3  -6  643.78   41.27
  -1  -3  -5   70.91    9.59
  -1  -3  -5   85.64   10.07
  -1  -3  -5   88.88    7.32
  -1  -3  -5   80.55    9.42
  -1  -3  -5   82.30    5.75
  -1  -3  -5   71.43    9.38
  -1  -3  -5   76.08   10.93
  -1  -3  -5   38.60    8.70
  -1  -3  -5   45.76    9.41
  -1  -3  -4  321.61   20.39
  -1  -3  -4  294.91   19.53
  -1  -3  -4  254.98   20.05
  -1  -3  -4  283.82   19.61
  -1  -3  -4  271.17   16.12
  -1  -3  -4  279.57   20.29
  -1  -3  -4  282.84   17.67
  -1  -3  -4  297.63   19.69
  -1  -3  -4  243.65   19.33
  -1  -3  -3  784.55   43.84
  -1  -3  -3  804.01   44.55
  -1  -3  -3  834.94   43.37
  -1  -3  -3  745.69   44.27
  -1  -3  -3  769.82   41.70
  -1  -3  -3  792.31   42.92
  -1  -3  -3  797.76   44.11
  -1  -3  -3  845.62   45.45
  -1  -3  -3  687.08   44.03
  -1  -3  -2 2227.39  121.20
  -1  -3  -2 2579.79  120.40
  -1  -3  -2 2256.29  120.72
  -1  -3  -2 2305.95  119.46
  -1  -3  -2 2415.19  120.59
  -1  -3  -2 2349.86  120.17
  -1  -3  -2 2283.33  118.02
  -1  -3  -2 2306.66  120.35
  -1  -3  -1   84.07    6.74
  -1  -3  -1   85.29    8.43
  -1  -3  -1   77.03    8.07
  -1  -3  -1   87.78    8.07
  -1  -3  -1   81.84    8.73
  -1  -3  -1   56.18    8.53
  -1  -3  -1   56.68    8.22
  -1  -3   0  115.83    9.39
  -1  -3   0  103.96    6.13
  -1  -3   0   93.22    8.82
  -1  -3   0   88.10    9.30
  -1  -3   0   98.52    9.18
  -1  -3   0   96.66    9.31
  -1  -3   0   93.73    6.03
  -1  -3   0  100.43    9.89
  -1  -3   1 2526.20  122.06
  -1  -3   1 2114.81  122.74
  -1  -3   1 2486.90  125.95
  -1  -3   1 2328.15  123.05
  -1  -3   1 2532.00  125.50
  -1  -3   1 2243.69  123.31
  -1  -3   1 2647.57  123.40
  -1  -3   2 1596.38   76.71
  -1  -3   2 1615.75   77.29
  -1  -3   2 1509.08   74.22
  -1  -3   2 1209.45   75.93
  -1  -3   2 1468.89   79.94
  -1  -3   2 1438.25   76.38
  -1  -3   2 1501.99   79.32
  -1  -3   2 1309.99   76.67
  -1  -3   3   18.04    3.89
  -1  -3   3   16.62    4.03
  -1  -3   3   12.92    5.45
  -1  -3   3   20.41    6.41
  -1  -3   3   39.25    7.89
  -1  -3   3   16.69    3.82
  -1  -3   3   18.65    5.88
  -1  -3   3   21.08    6.45
  -1  -3   4  523.51   32.75
  -1  -3   4  477.13   33.14
  -1  -3   4  452.12   31.57
  -1  -3   5  978.20   59.91
  -1  -3   5 1009.02   59.52
  -1  -3   5  984.38   58.26
  -1  -3   6 1390.69   77.98
  -1  -3   6 1246.53   76.51
  -1  -3   7  313.14   28.16
  -1  -2 -13  215.02   24.59
  -1  -2 -12  566.47   42.91
  -1  -2 -11  234.87   24.04
  -1  -2 -10   89.94   13.61
  -1  -2 -10   89.57   14.98
  -1  -2  -9  112.68   14.19
  -1  -2  -9  137.31   16.71
  -1  -2  -8  517.60   34.50
  -1  -2  -8  569.00   34.81
  -1  -2  -8  531.82   35.70
  -1  -2  -8  492.52   34.74
  -1  -2  -8  521.26   34.75
  -1  -2  -7  578.45   36.76
  -1  -2  -7  605.47   37.79
  -1  -2  -7  552.14   36.46
  -1  -2  -7  573.78   37.00
  -1  -2  -7  627.55   36.67
  -1  -2  -6 1501.18   81.03
  -1  -2  -6 1478.75   81.16
  -1  -2  -6 1413.35   80.89
  -1  -2  -6 1474.82   81.10
  -1  -2  -6 1568.04   80.29
  -1  -2  -5  110.98    7.21
  -1  -2  -5  106.72   12.30
  -1  -2  -5   83.63   10.27
  -1  -2  -5   98.99   12.27
  -1  -2  -5  100.68   10.17
  -1  -2  -5   93.46   10.37
  -1  -2  -5   94.90   11.08
  -1  -2  -5  104.20   10.24
  -1  -2  -4    7.61    4.60
  -1  -2  -4   17.78    5.25
  -1  -2  -4   13.85    5.19
  -1  -2  -4   20.64    6.45
  -1  -2  -4   13.00    2.67
  -1  -2  -4   18.24    4.85
  -1  -2  -4    5.11    5.16
  -1  -2  -4   11.20    6.23
  -1  -2  -3 2645.53   69.66
  -1  -2  -3 2442.67   68.36
  -1  -2  -3 2449.05   67.19
  -1  -2  -3 2312.31   63.97
  -1  -2  -3 2659.97   70.56
  -1  -2  -3 2631.41   68.78
  -1  -2  -3 2706.99   70.33
  -1  -2  -3 2905.08   70.17
  -1  -2  -2 1906.08   90.29
  -1  -2  -2 1724.77   89.28
  -1  -2  -2 1809.14   88.54
  -1  -2  -2 1839.91   90.58
  -1  -2  -2 1780.42   89.32
  -1  -2  -2 1931.52   90.61
  -1  -2  -1  227.64   12.17
  -1  -2  -1  166.35   12.73
  -1  -2  -1  199.97   12.48
  -1  -2  -1  209.94   13.06
  -1  -2  -1  153.03   12.76
  -1  -2  -1  220.02   12.99
  -1  -2   0  707.74   39.66
  -1  -2   0  776.98   39.07
  -1  -2   0  750.51   39.92
  -1  -2   0  735.05   38.69
  -1  -2   0  654.96   38.96
  -1  -2   0  715.25   39.00
  -1  -2   1 2308.94  116.85
  -1  -2   1 2250.04  117.22
  -1  -2   1 2274.00  117.74
  -1  -2   1 2247.46  119.18
  -1  -2   1 2337.73  117.61
  -1  -2   1 2372.50  117.07
  -1  -2   1 2320.51  119.27
  -1  -2   2  613.13   29.72
  -1  -2   2  681.15   33.14
  -1  -2   2  589.07   32.44
  -1  -2   2  619.04   30.44
  -1  -2   2  588.54   31.59
  -1  -2   2  582.84   33.41
  -1  -2   2  640.43   31.66
  -1  -2   2  620.06   30.53
  -1  -2   2  640.79   33.77
  -1  -2   3  195.23   16.04
  -1  -2   3  186.06   12.99
  -1  -2   3  213.35   14.77
  -1  -2   3  161.85   13.80
  -1  -2   3  142.41   13.17
  -1  -2   3  180.72   15.40
  -1  -2   3  202.13   12.80
  -1  -2   3  196.71   12.88
  -1  -2   3  219.50   15.92
  -1  -2   3  204.16   14.03
  -1  -2   4  709.66   35.84
  -1  -2   4  672.82   38.68
  -1  -2   4  635.20   34.90
  -1  -2   4  633.47   37.68
  -1  -2   4  688.76   37.65
  -1  -2   5 1652.36   92.55
  -1  -2   5 1643.19   90.42
  -1  -2   5 1650.35   91.12
  -1  -2   6  337.01   28.13
  -1  -2   6  347.02   26.32
  -1  -2   7  970.02   61.90
  -1  -2   8    5.65   11.25
  -1  -2   9  112.50   19.38
  -1  -1 -12  231.91   24.71
  -1  -1 -11   81.11   14.38
  -1  -1 -10   59.19   11.90
  -1  -1 -10   86.04   14.02
  -1  -1  -9  262.35   23.37
  -1  -1  -9  264.96   23.33
  -1  -1  -8  737.08   46.67
  -1  -1  -8  795.56   48.08
  -1  -1  -8  750.05   47.11
  -1  -1  -8  801.78   48.55
  -1  -1  -7 1516.29   86.95
  -1  -1  -7 1640.54   86.51
  -1  -1  -7 1696.78   88.21
  -1  -1  -7 1579.61   87.48
  -1  -1  -7 1554.50   88.01
  -1  -1  -6 1297.22   73.88
  -1  -1  -6 1395.72   74.39
  -1  -1  -6 1413.02   72.99
  -1  -1  -6 1344.93   74.21
  -1  -1  -6 1293.63   74.30
  -1  -1  -5  668.22   40.49
  -1  -1  -5  687.18   41.79
  -1  -1  -5  647.61   40.56
  -1  -1  -5  741.05   40.90
  -1  -1  -5  630.48   40.86
  -1  -1  -5  743.18   41.31
  -1  -1  -5  720.15   41.19
  -1  -1  -5  762.47   39.61
  -1  -1  -4  388.15   21.89
  -1  -1  -4  398.54   21.59
  -1  -1  -4  332.14   21.89
  -1  -1  -4  360.34   17.68
  -1  -1  -4  437.99   21.67
  -1  -1  -4  387.25   22.44
  -1  -1  -4  417.93   22.18
  -1  -1  -4  418.03   20.21
  -1  -1  -4  473.53   22.76
  -1  -1  -3 1665.11   24.60
  -1  -1  -3 1714.31   29.40
  -1  -1  -3 1688.86   31.36
  -1  -1  -3 1609.38   29.60
  -1  -1  -3 1679.46   27.67
  -1  -1  -3 1594.12   30.28
  -1  -1  -3 1789.62   30.44
  -1  -1  -3 1706.03   29.92
  -1  -1  -2  212.23   13.49
  -1  -1  -2  256.05   14.87
  -1  -1  -2  236.67   14.48
  -1  -1  -2  254.99   14.91
  -1  -1  -1  106.54   14.93
  -1  -1  -1  469.04   16.64
  -1  -1  -1  521.61   17.87
  -1  -1  -1  441.22   16.04
  -1  -1  -1  343.42   15.98
  -1  -1  -1  412.27   16.00
  -1  -1  -1  481.42   17.46
  -1  -1  -1   73.26   14.72
  -1  -1  -1  272.54   15.48
  -1  -1  -1  487.07   17.32
  -1  -1  -1  471.11   16.73
  -1  -1   0 2055.35  117.88
  -1  -1   0 2232.63  117.78
  -1  -1   0 2404.50  117.70
  -1  -1   0 2520.66  118.82
  -1  -1   0 2558.14  117.89
  -1  -1   1 2964.76  176.55
  -1  -1   1 3760.11  177.27
  -1  -1   1 3530.97  175.07
  -1  -1   1 3281.73  175.62
  -1  -1   1 3275.74  177.12
  -1  -1   1 3780.97  177.93
  -1  -1   1 3652.12  175.19
  -1  -1   1 3834.22  176.09
  -1  -1   2 1319.36   64.19
  -1  -1   2 1327.14   64.67
  -1  -1   2 1176.92   65.85
  -1  -1   2 1268.66   62.44
  -1  -1   2 1290.68   65.07
  -1  -1   2 1279.78   65.75
  -1  -1   2 1305.77   62.57
  -1  -1   2 1271.21   63.58
  -1  -1   3  474.89   25.92
  -1  -1   3  476.65   24.16
  -1  -1   3  466.63   28.91
  -1  -1   3  490.78   26.47
  -1  -1   3  507.09   26.85
  -1  -1   3  444.31   25.80
  -1  -1   3  462.41   27.57
  -1  -1   3  458.72   24.18
  -1  -1   3  490.37   25.46
  -1  -1   4  207.80   15.77
  -1  -1   4  233.10   14.09
  -1  -1   4  223.31   19.38
  -1  -1   4  216.64   16.67
  -1  -1   4  192.59   15.28
  -1  -1   4  225.50   15.35
  -1  -1   4  240.21   17.46
  -1  -1   4  217.03   14.04
  -1  -1   4  239.72   15.30
  -1  -1   5  470.51   30.07
  -1  -1   5  437.35   29.49
  -1  -1   5  457.30   28.41
  -1  -1   5  426.29   29.60
  -1  -1   5  465.08   32.72
  -1  -1   6 1453.27   78.71
  -1  -1   6 1421.34   82.10
  -1  -1   6 1326.73   77.98
  -1  -1   7  396.82   32.88
  -1  -1   8  145.87   20.34
  -1  -1   9   25.47   11.76
  -1  -1  10  320.86   33.40
  -1  -1  11  196.98   27.88
  -1   0 -11  106.45   16.32
  -1   0 -10   21.10    8.71
  -1   0 -10   13.42    8.72
  -1   0  -9    5.26    6.81
  -1   0  -9    4.38    7.67
  -1   0  -8  639.79   41.28
  -1   0  -8  641.81   42.40
  -1   0  -7  760.14   43.93
  -1   0  -7  651.50   42.94
  -1   0  -7  705.77   43.78
  -1   0  -7  729.72   44.75
  -1   0  -6  761.71   43.55
  -1   0  -6  764.97   45.16
  -1   0  -6  728.17   44.50
  -1   0  -6  801.03   45.74
  -1   0  -6  760.87   45.98
  -1   0  -5  140.48   14.16
  -1   0  -5  180.82   14.15
  -1   0  -5  161.97   14.27
  -1   0  -5  180.95   13.14
  -1   0  -5  200.02   15.32
  -1   0  -5  201.42   15.54
  -1   0  -4 1071.31   57.16
  -1   0  -4  885.23   57.09
  -1   0  -4  886.85   56.68
  -1   0  -4 1022.11   54.72
  -1   0  -4 1144.38   56.44
  -1   0  -4 1075.83   54.85
  -1   0  -4 1103.74   57.62
  -1   0  -4 1130.39   57.74
  -1   0  -3 6525.65  317.60
  -1   0  -3 6360.52  320.64
  -1   0  -3 6072.87  319.93
  -1   0  -3 6082.44  320.30
  -1   0  -3 6223.81  318.12
  -1   0  -3 6520.23  318.86
  -1   0  -3 6524.07  320.34
  -1   0  -3 6559.19  320.27
  -1   0  -2 3717.67  189.13
  -1   0  -2 3648.16  189.47
  -1   0  -2 3580.29  187.72
  -1   0  -2 3745.37  187.81
  -1   0  -2 3849.78  189.35
  -1   0  -2 3767.16  189.06
  -1   0  -2 3838.35  186.66
  -1   0  -1  800.11   42.32
  -1   0  -1  823.04   41.24
  -1   0  -1  782.18   41.06
  -1   0  -1  837.02   41.93
  -1   0  -1  800.54   42.39
  -1   0  -1  822.70   42.16
  -1   0   0   21.39    2.21
  -1   0   0   19.22    1.98
  -1   0   0   15.79    1.83
  -1   0   0   20.33    2.64
  -1   0   0   12.16    1.95
  -1   0   0   17.81    1.71
  -1   0   0   18.32    2.96
  -1   0   1 1555.53   74.13
  -1   0   1 1587.90   75.22
  -1   0   1 1429.06   74.45
  -1   0   1 1332.02   73.42
  -1   0   1 1423.92   75.49
  -1   0   2  553.24   27.84
  -1   0   2  562.76   29.41
  -1   0   2  622.46   26.40
  -1   0   2  554.55   26.76
  -1   0   2  578.59   24.59
  -1   0   3  931.95   57.29
  -1   0   3 1166.12   61.64
  -1   0   3 1156.63   59.96
  -1   0   3 1053.32   57.81
  -1   0   3 1130.69   59.11
  -1   0   3 1102.06   57.34
  -1   0   3 1144.46   56.58
  -1   0   4   18.49    3.82
  -1   0   4   18.78    6.53
  -1   0   4   18.11    3.57
  -1   0   4    9.00    4.57
  -1   0   4   13.24    4.34
  -1   0   4   17.18    4.52
  -1   0   4   14.39    8.44
  -1   0   5  386.46   26.09
  -1   0   5  366.60   28.01
  -1   0   5  350.86   21.87
  -1   0   5  338.24   22.59
  -1   0   5  361.33   24.33
  -1   0   5  362.87   22.13
  -1   0   6 1059.49   61.61
  -1   0   6 1043.76   64.27
  -1   0   6 1023.89   59.51
  -1   0   7  804.84   55.67
  -1   0   7  864.32   53.20
  -1   0   8  281.34   29.17
  -1   0   9   59.84   16.04
  -1   0  10  208.31   26.76
  -1   0  11  246.21   31.05
  -1   0  12  146.01   24.37
  -1   1 -11   79.96   15.13
  -1   1 -10  155.43   19.50
  -1   1  -9   14.23    7.65
  -1   1  -8  552.63   40.91
  -1   1  -8  660.45   40.65
  -1   1  -7  327.04   25.52
  -1   1  -7  351.86   25.62
  -1   1  -7  372.35   27.78
  -1   1  -7  361.41   26.49
  -1   1  -6  847.61   54.01
  -1   1  -6  975.90   53.98
  -1   1  -6  981.74   55.37
  -1   1  -6  956.47   55.99
  -1   1  -5  196.01   16.79
  -1   1  -5  227.26   16.47
  -1   1  -5  219.01   17.44
  -1   1  -5  222.40   18.05
  -1   1  -4  662.06   38.17
  -1   1  -4  529.68   37.02
  -1   1  -4  708.47   36.84
  -1   1  -4  656.19   36.71
  -1   1  -4  696.62   38.72
  -1   1  -4  593.92   35.16
  -1   1  -4  723.19   39.11
  -1   1  -3 3586.54  200.41
  -1   1  -3 4057.01  199.63
  -1   1  -3 3887.09  200.61
  -1   1  -3 4188.21  198.82
  -1   1  -3 4093.20  200.95
  -1   1  -3 4188.53  198.45
  -1   1  -3 4204.02  201.17
  -1   1  -2 1853.42   99.39
  -1   1  -2 2003.21   99.04
  -1   1  -2 1973.81   99.57
  -1   1  -2 1974.51   97.34
  -1   1  -2 2019.84   97.94
  -1   1  -2 2007.71   99.78
  -1   1  -2 2040.36   99.62
  -1   1  -1  162.42   11.40
  -1   1  -1  129.76   11.06
  -1   1  -1  171.10    8.97
  -1   1  -1  161.09   11.37
  -1   1  -1  160.58   11.06
  -1   1  -1  145.92   10.44
  -1   1  -1  158.23   11.19
  -1   1  -1  184.13   11.57
  -1   1  -1  144.17   10.53
  -1   1   0  321.10   18.58
  -1   1   0  292.53   17.76
  -1   1   0  307.86   16.91
  -1   1   0  342.26   18.90
  -1   1   0  320.28   17.24
  -1   1   0  320.55   18.09
  -1   1   0  284.22   17.77
  -1   1   1 6138.35  316.47
  -1   1   1 6240.66  316.21
  -1   1   1 6864.75  318.79
  -1   1   1 7079.36  318.92
  -1   1   1 6267.42  317.40
  -1   1   1 6199.71  315.77
  -1   1   1 6335.47  316.36
  -1   1   2 1463.60   74.17
  -1   1   2 1465.92   76.86
  -1   1   2 1404.66   76.45
  -1   1   2 1471.22   74.55
  -1   1   2 1367.58   73.05
  -1   1   2 1401.98   73.22
  -1   1   2 1499.59   73.77
  -1   1   3 3122.12  159.77
  -1   1   3 3037.77  154.63
  -1   1   3 3079.22  155.65
  -1   1   3 2965.14  155.93
  -1   1   3 3066.28  159.02
  -1   1   3 3067.67  155.77
  -1   1   3 3195.08  154.95
  -1   1   3 2817.01  155.74
  -1   1   3 3200.86  154.29
  -1   1   4 1818.28   92.96
  -1   1   4 1877.10   99.50
  -1   1   4 1932.44   98.32
  -1   1   4 1810.05   93.72
  -1   1   4 1835.91   94.19
  -1   1   4 1577.72   93.71
  -1   1   4 1912.00   93.37
  -1   1   4 1930.15   94.74
  -1   1   4 1738.47   92.91
  -1   1   5  192.87   13.42
  -1   1   5  171.95   17.43
  -1   1   5  202.49   14.19
  -1   1   5  194.03   19.34
  -1   1   5  169.48   12.94
  -1   1   6  281.32   22.89
  -1   1   6  216.72   18.04
  -1   1   6  242.04   24.33
  -1   1   7  647.99   50.61
  -1   1   7  853.77   50.56
  -1   1   8    6.45    9.64
  -1   1   8    5.76   12.82
  -1   1   9    9.02   10.24
  -1   1   9    8.64   11.90
  -1   1  10  566.05   46.72
  -1   1  11  328.36   35.58
  -1   1  12   61.36   18.31
  -1   1  13   20.57   13.92
  -1   2 -11  203.36   24.35
  -1   2 -10   11.24    8.86
  -1   2  -9   56.70   12.36
  -1   2  -8  245.86   23.68
  -1   2  -7 1480.55   86.85
  -1   2  -7 1562.38   87.82
  -1   2  -7 1614.86   89.15
  -1   2  -6  313.94   25.86
  -1   2  -6  381.64   27.93
  -1   2  -6  369.78   25.29
  -1   2  -6  374.31   26.98
  -1   2  -5   22.15    7.08
  -1   2  -5   30.48    7.02
  -1   2  -5   25.60    6.59
  -1   2  -5   21.66    6.42
  -1   2  -4   73.57    9.97
  -1   2  -4   53.96    8.16
  -1   2  -4   64.41    8.80
  -1   2  -4   49.31    7.41
  -1   2  -4   54.57    7.13
  -1   2  -4   46.68    8.01
  -1   2  -3 2398.55  117.72
  -1   2  -3 2277.22  116.92
  -1   2  -3 2425.69  114.98
  -1   2  -3 2388.66  116.84
  -1   2  -3 2362.95  117.93
  -1   2  -3 2295.13  115.41
  -1   2  -3 2364.07  117.78
  -1   2  -2 1331.31   68.54
  -1   2  -2 1225.96   70.17
  -1   2  -2 1366.20   71.31
  -1   2  -2 1296.08   70.49
  -1   2  -2 1355.55   71.10
  -1   2  -2 1336.45   69.84
  -1   2  -2 1390.27   71.60
  -1   2  -2 1313.20   71.01
  -1   2  -1  722.56   36.05
  -1   2  -1  636.85   36.10
  -1   2  -1  617.40   33.39
  -1   2  -1  607.69   35.66
  -1   2  -1  688.54   36.27
  -1   2  -1  593.08   35.38
  -1   2  -1  600.05   33.53
  -1   2  -1  635.18   36.28
  -1   2  -1  632.28   35.50
  -1   2  -1  681.00   36.60
  -1   2   0  381.27   12.89
  -1   2   0  427.30   13.67
  -1   2   0  440.91   14.90
  -1   2   0  436.62   13.93
  -1   2   0  389.72   10.16
  -1   2   0  384.02   13.54
  -1   2   0  401.44   12.12
  -1   2   1 1271.67   66.53
  -1   2   1 1341.21   67.90
  -1   2   1 1272.96   67.07
  -1   2   1 1236.81   64.83
  -1   2   1 1193.87   66.59
  -1   2   1 1349.25   68.62
  -1   2   1 1189.87   65.70
  -1   2   1 1353.24   65.69
  -1   2   2 1377.43   71.81
  -1   2   2 1288.88   71.07
  -1   2   2 1410.66   74.41
  -1   2   2 1318.53   73.44
  -1   2   2 1423.39   70.68
  -1   2   2 1367.75   71.61
  -1   2   2 1390.46   70.46
  -1   2   2 1383.77   71.63
  -1   2   2 1290.25   71.23
  -1   2   3 3648.57   53.93
  -1   2   3 3748.72   55.79
  -1   2   3 3750.62   40.85
  -1   2   3 3565.23   39.30
  -1   2   3 3707.12   41.01
  -1   2   3 3652.58   37.84
  -1   2   3 3673.20   40.60
  -1   2   4   66.98   11.12
  -1   2   4   55.50    6.89
  -1   2   4   57.92    7.05
  -1   2   4   43.54    6.42
  -1   2   4   49.11    9.47
  -1   2   4   63.15    7.36
  -1   2   4   56.44    6.69
  -1   2   5   -4.82    8.52
  -1   2   5    1.67    3.54
  -1   2   5   -1.70    4.41
  -1   2   5   -1.09    3.08
  -1   2   5    3.63    4.57
  -1   2   6 1291.38   81.72
  -1   2   6 1497.65   81.91
  -1   2   7  939.77   62.75
  -1   2   7 1013.96   62.04
  -1   2   8  110.67   19.36
  -1   2   8   71.92   15.34
  -1   2   9   -1.91   10.81
  -1   2   9    2.15   13.29
  -1   2  10  336.12   31.28
  -1   2  10  281.33   31.70
  -1   2  11  181.65   26.10
  -1   2  12  122.68   23.89
  -1   2  13    2.97   13.17
  -1   3 -11  186.02   23.87
  -1   3 -10   72.27   15.81
  -1   3  -9   65.17   15.06
  -1   3  -8  174.55   20.75
  -1   3  -7  393.62   32.55
  -1   3  -7  471.08   34.33
  -1   3  -6  736.22   47.74
  -1   3  -6  764.34   48.58
  -1   3  -6  790.79   49.75
  -1   3  -5    1.11    5.83
  -1   3  -5   10.34    6.33
  -1   3  -5    1.21    7.34
  -1   3  -4   78.17    9.43
  -1   3  -4   54.84    9.22
  -1   3  -4   70.38   10.43
  -1   3  -4   72.50   11.55
  -1   3  -3 1148.92   63.86
  -1   3  -3 1063.59   62.21
  -1   3  -3 1099.55   60.80
  -1   3  -3 1233.77   64.74
  -1   3  -3 1142.66   63.98
  -1   3  -2 2245.61  115.38
  -1   3  -2 2164.25  113.69
  -1   3  -2 2025.85  113.28
  -1   3  -2 2195.31  112.20
  -1   3  -2 2137.11  113.77
  -1   3  -2 2264.70  115.67
  -1   3  -2 2223.38  113.75
  -1   3  -2 2223.84  114.86
  -1   3  -1 2494.00  128.23
  -1   3  -1 2377.20  127.38
  -1   3  -1 2477.58  129.13
  -1   3  -1 2355.94  126.20
  -1   3  -1 2465.30  129.05
  -1   3  -1 2500.72  128.38
  -1   3  -1 2651.72  129.86
  -1   3  -1 2539.73  128.72
  -1   3  -1 2577.18  128.61
  -1   3   0  438.00   16.49
  -1   3   0  392.61   11.89
  -1   3   0  317.44   12.38
  -1   3   0  423.83   16.46
  -1   3   0  341.93   14.27
  -1   3   0  411.27   14.55
  -1   3   0  404.72   16.38
  -1   3   1   17.05    4.00
  -1   3   1   27.06    5.40
  -1   3   1   27.28    5.68
  -1   3   1   26.09    5.66
  -1   3   1    9.87    4.20
  -1   3   1   10.60    4.99
  -1   3   1   10.90    5.29
  -1   3   1   23.80    5.96
  -1   3   1   22.18    4.17
  -1   3   2 1627.01   86.16
  -1   3   2 1579.09   85.02
  -1   3   2 1658.67   87.29
  -1   3   2 1615.51   88.52
  -1   3   2 1616.59   85.28
  -1   3   2 1649.62   84.24
  -1   3   2 1725.21   86.86
  -1   3   2 1572.66   85.86
  -1   3   3 1320.67   71.63
  -1   3   3 1257.94   74.14
  -1   3   3 1305.34   75.46
  -1   3   3 1373.22   71.93
  -1   3   3 1301.18   72.11
  -1   3   3 1296.48   71.80
  -1   3   3 1493.16   72.08
  -1   3   3 1341.38   72.70
  -1   3   3 1364.58   70.95
  -1   3   4    9.03    6.04
  -1   3   4   19.48    6.53
  -1   3   4   11.90    8.65
  -1   3   4   12.29    5.09
  -1   3   4   11.41    4.42
  -1   3   4   11.11    4.59
  -1   3   4   24.96    7.76
  -1   3   4    5.95    4.94
  -1   3   5  137.47   13.01
  -1   3   5  135.06   17.38
  -1   3   5  139.32   12.03
  -1   3   5  147.64   13.49
  -1   3   5  142.19   16.45
  -1   3   6 1338.34   75.42
  -1   3   6 1305.27   81.24
  -1   3   6 1362.71   81.60
  -1   3   6 1498.82   76.62
  -1   3   7 1075.62   66.78
  -1   3   7 1033.44   66.80
  -1   3   8   58.95   14.33
  -1   3   8   37.04   14.92
  -1   3   9   26.11   13.65
  -1   3   9   43.40   15.29
  -1   3  10  376.94   34.92
  -1   3  10  366.88   36.11
  -1   3  11  225.18   27.83
  -1   3  11  215.53   28.68
  -1   3  12  190.06   28.39
  -1   3  13   35.58   15.69
  -1   4 -10   79.34   16.79
  -1   4  -9   -2.01   10.21
  -1   4  -8   98.25   16.77
  -1   4  -7  322.85   29.23
  -1   4  -6  255.01   23.17
  -1   4  -6  270.47   23.93
  -1   4  -6  248.91   24.33
  -1   4  -5  213.09   20.21
  -1   4  -5  168.81   17.83
  -1   4  -5  177.03   19.03
  -1   4  -4   69.11   10.93
  -1   4  -4   69.33   12.57
  -1   4  -4   92.40   12.72
  -1   4  -3  487.45   33.37
  -1   4  -3  497.28   34.18
  -1   4  -3  506.81   33.75
  -1   4  -2 1822.39  101.49
  -1   4  -2 1823.80   99.76
  -1   4  -2 1890.97  102.29
  -1   4  -2 1990.27  101.84
  -1   4  -1 1197.58   60.84
  -1   4  -1 1202.27   59.46
  -1   4  -1 1185.69   57.37
  -1   4  -1 1145.48   60.90
  -1   4  -1 1272.95   60.44
  -1   4   0   12.03    3.76
  -1   4   0   28.40    6.61
  -1   4   0   20.42    6.82
  -1   4   0   15.21    5.41
  -1   4   0   19.12    4.93
  -1   4   0   15.33    6.76
  -1   4   1  494.19   30.00
  -1   4   1  449.40   27.30
  -1   4   1  536.47   31.04
  -1   4   1  499.43   29.15
  -1   4   1  522.97   30.78
  -1   4   1  496.70   28.91
  -1   4   2 2138.68   91.23
  -1   4   2 2174.92   88.82
  -1   4   2 2248.34   94.34
  -1   4   2 2159.58   90.07
  -1   4   2 2229.68   91.45
  -1   4   2 2045.22   87.18
  -1   4   2 2333.56   92.65
  -1   4   3 3191.17  175.47
  -1   4   3 3014.46  173.14
  -1   4   3 3411.80  171.76
  -1   4   3 3580.17  172.64
  -1   4   3 3408.66  170.39
  -1   4   3 3480.81  173.75
  -1   4   3 3185.94  172.46
  -1   4   4   89.16   10.49
  -1   4   4   87.47   11.10
  -1   4   4   90.00   11.76
  -1   4   4   71.35   12.15
  -1   4   4   75.04    9.29
  -1   4   4   63.60   10.84
  -1   4   4   79.39    8.74
  -1   4   5   27.98    8.48
  -1   4   5   20.59   10.73
  -1   4   5   18.32    8.28
  -1   4   5   24.17    8.09
  -1   4   5   22.17    6.46
  -1   4   6  352.45   26.40
  -1   4   6  366.17   31.50
  -1   4   6  355.21   26.49
  -1   4   6  426.49   31.03
  -1   4   7 1159.02   72.94
  -1   4   7 1186.09   73.65
  -1   4   8   86.39   17.54
  -1   4   8   89.20   17.81
  -1   4   9   12.79   11.76
  -1   4   9   19.42   13.69
  -1   4  10  133.63   21.53
  -1   4  10   87.29   18.86
  -1   4  11  351.95   34.94
  -1   4  11  300.03   34.36
  -1   4  12  318.35   35.42
  -1   4  12  332.19   36.96
  -1   4  13  111.85   23.42
  -1   5  -9   21.63   11.96
  -1   5  -8   34.32   12.76
  -1   5  -7  321.42   30.48
  -1   5  -6  334.86   29.06
  -1   5  -6  343.18   30.03
  -1   5  -6  354.02   30.60
  -1   5  -5  228.15   22.13
  -1   5  -5  250.38   23.83
  -1   5  -5  215.72   22.54
  -1   5  -4    5.61    8.29
  -1   5  -4   11.58    7.51
  -1   5  -4   13.73    7.12
  -1   5  -3  377.87   29.57
  -1   5  -3  385.09   29.52
  -1   5  -3  405.75   30.50
  -1   5  -2  853.37   54.18
  -1   5  -2  926.46   55.58
  -1   5  -2  896.69   53.91
  -1   5  -1  846.50   54.26
  -1   5  -1  897.88   52.76
  -1   5  -1  961.37   55.83
  -1   5  -1  939.79   54.19
  -1   5   0   26.44    7.94
  -1   5   0   32.02    8.66
  -1   5   0   31.54    7.29
  -1   5   0   31.69    9.11
  -1   5   0   22.66    5.59
  -1   5   1  705.87   43.52
  -1   5   1  705.38   45.29
  -1   5   1  672.25   41.94
  -1   5   1  821.23   45.36
  -1   5   1  817.64   46.45
  -1   5   1  815.17   47.12
  -1   5   2 2671.69  141.91
  -1   5   2 2708.88  143.32
  -1   5   2 2589.09  140.42
  -1   5   2 2605.78  140.90
  -1   5   2 2880.15  143.31
  -1   5   3 1115.12   68.77
  -1   5   3 1276.83   69.16
  -1   5   3 1210.27   71.43
  -1   5   3 1210.70   68.91
  -1   5   3 1284.92   70.51
  -1   5   4  762.70   51.66
  -1   5   4  836.54   53.04
  -1   5   4  908.13   56.14
  -1   5   4 1013.64   53.18
  -1   5   4  901.16   53.52
  -1   5   5   59.98   12.27
  -1   5   5   96.10   16.17
  -1   5   5   76.74   12.70
  -1   5   5   84.79   13.19
  -1   5   6  679.73   43.50
  -1   5   6  684.20   45.99
  -1   5   6  660.33   47.92
  -1   5   6  673.36   43.93
  -1   5   7  684.39   48.13
  -1   5   7  690.67   49.74
  -1   5   8 1141.92   75.30
  -1   5   8 1261.50   77.53
  -1   5   9  105.78   19.19
  -1   5   9   79.14   17.72
  -1   5  10    9.71   11.69
  -1   5  10    4.69   12.32
  -1   5  11  126.94   22.50
  -1   5  11  146.33   23.82
  -1   5  12  227.32   29.69
  -1   5  12  229.63   30.57
  -1   5  13   41.14   17.26
  -1   5  13   52.75   18.29
  -1   6  -8  -15.33   12.26
  -1   6  -7   57.36   14.88
  -1   6  -6  107.85   16.73
  -1   6  -6  112.61   17.56
  -1   6  -6  123.49   18.46
  -1   6  -5   49.00   12.10
  -1   6  -5   33.57   11.51
  -1   6  -5   44.51   11.95
  -1   6  -4   32.08   10.86
  -1   6  -4   19.04    9.29
  -1   6  -4   11.78    9.18
  -1   6  -3  789.76   51.25
  -1   6  -3  737.05   51.02
  -1   6  -3  794.11   50.92
  -1   6  -2  713.23   48.33
  -1   6  -2  757.47   49.48
  -1   6  -2  736.38   47.97
  -1   6  -1  910.42   56.86
  -1   6  -1  895.46   57.41
  -1   6  -1  947.57   56.52
  -1   6   0   -9.44    7.96
  -1   6   0    6.46    8.28
  -1   6   0    9.60    9.69
  -1   6   1  335.56   27.23
  -1   6   1  328.62   26.32
  -1   6   1  362.12   28.53
  -1   6   1  344.00   26.43
  -1   6   2 1127.11   67.12
  -1   6   2 1147.08   66.94
  -1   6   2 1161.31   67.72
  -1   6   2 1084.45   65.57
  -1   6   3 1483.41   90.43
  -1   6   3 1631.54   89.50
  -1   6   3 1715.47   91.47
  -1   6   3 1535.66   89.57
  -1   6   4  308.17   25.76
  -1   6   4  365.38   27.97
  -1   6   4  362.77   28.46
  -1   6   4  323.18   28.77
  -1   6   4  362.06   27.47
  -1   6   5   21.30   10.49
  -1   6   5   19.12   12.22
  -1   6   5   15.37   10.53
  -1   6   5   25.39    8.71
  -1   6   6  277.09   24.40
  -1   6   6  236.23   23.92
  -1   6   6  296.40   28.47
  -1   6   6  276.31   25.42
  -1   6   7 1199.69   73.79
  -1   6   7 1183.21   76.15
  -1   6   8  595.80   46.48
  -1   6   8  686.55   49.89
  -1   6   9  367.86   35.46
  -1   6   9  315.79   32.03
  -1   6  10   25.29   13.95
  -1   6  10   11.61   13.72
  -1   6  11  115.89   22.19
  -1   6  11  137.57   23.26
  -1   6  12  273.72   32.86
  -1   6  12  288.91   34.22
  -1   6  13  120.87   24.12
  -1   6  13   94.38   22.73
  -1   7  -7  269.04   29.38
  -1   7  -6  147.57   21.11
  -1   7  -5  184.75   22.74
  -1   7  -5  156.36   20.84
  -1   7  -5  224.14   24.66
  -1   7  -4   14.60   10.49
  -1   7  -4    5.41    8.86
  -1   7  -4    9.57   10.07
  -1   7  -3  282.72   28.00
  -1   7  -3  356.65   31.06
  -1   7  -3  327.15   29.41
  -1   7  -2  154.21   19.02
  -1   7  -2  158.35   19.75
  -1   7  -2  138.32   19.23
  -1   7  -1  467.28   36.05
  -1   7  -1  460.72   34.21
  -1   7  -1  405.49   33.87
  -1   7   0    4.59    9.41
  -1   7   0   30.90   10.56
  -1   7   0   18.44    8.72
  -1   7   1  445.81   34.62
  -1   7   1  464.85   35.92
  -1   7   1  460.89   34.06
  -1   7   2  506.60   37.30
  -1   7   2  505.79   37.54
  -1   7   2  554.45   39.39
  -1   7   2  500.24   36.36
  -1   7   3 1423.08   87.04
  -1   7   3 1489.55   86.24
  -1   7   3 1598.55   88.47
  -1   7   3 1473.31   86.62
  -1   7   4  764.23   51.76
  -1   7   4  798.72   53.79
  -1   7   4  864.18   53.85
  -1   7   5  165.54   22.16
  -1   7   5  181.07   20.57
  -1   7   5  197.64   21.61
  -1   7   6  234.67   23.94
  -1   7   6  201.62   23.25
  -1   7   6  248.54   26.85
  -1   7   7  287.78   29.90
  -1   7   8  807.63   58.47
  -1   7   9  152.69   24.20
  -1   7   9  136.00   21.54
  -1   7  10   42.05   15.47
  -1   7  10   50.30   15.74
  -1   7  11  181.47   27.73
  -1   7  11  153.11   23.93
  -1   7  12  270.17   32.90
  -1   7  12  230.79   30.81
  -1   7  13  145.57   26.46
  -1   7  13   72.84   20.58
  -1   8  -5  162.71   22.12
  -1   8  -5  160.65   21.86
  -1   8  -5  155.33   22.88
  -1   8  -4   18.76   12.46
  -1   8  -4    2.02    9.57
  -1   8  -4   15.03   11.66
  -1   8  -3   95.63   17.01
  -1   8  -3   74.19   15.45
  -1   8  -3   87.11   16.69
  -1   8  -2  305.95   30.71
  -1   8  -2  380.67   32.49
  -1   8  -2  359.76   32.83
  -1   8  -1  444.76   36.51
  -1   8  -1  459.04   37.77
  -1   8  -1  452.01   36.87
  -1   8   0   62.24   13.69
  -1   8   0   69.33   14.00
  -1   8   0   89.24   17.09
  -1   8   1  150.84   19.03
  -1   8   1  113.73   18.39
  -1   8   1  123.41   17.63
  -1   8   2  598.75   44.40
  -1   8   2  658.34   44.84
  -1   8   2  620.26   45.72
  -1   8   3  207.20   22.71
  -1   8   3  204.62   23.33
  -1   8   4  285.92   26.99
  -1   8   4  264.86   26.70
  -1   8   4  260.62   26.80
  -1   8   5   89.70   16.32
  -1   8   5  110.73   18.54
  -1   8   5  115.12   18.19
  -1   8   6  641.43   48.04
  -1   8   6  602.07   45.40
  -1   8   6  650.27   47.31
  -1   8   7  564.24   45.64
  -1   8   8  904.98   64.39
  -1   8   9  184.62   26.66
  -1   8  10  -16.34   15.02
  -1   8  11   97.81   21.59
  -1   8  12  250.68   32.26
  -1   9  -4   29.06   11.61
  -1   9  -4   21.45   13.73
  -1   9  -4   11.70   13.30
  -1   9  -3   37.05   13.24
  -1   9  -3   23.22   13.22
  -1   9  -3   17.71   12.07
  -1   9  -2  209.74   25.55
  -1   9  -2  232.26   27.14
  -1   9  -2  235.33   26.48
  -1   9  -1  361.43   33.56
  -1   9  -1  364.23   34.90
  -1   9  -1  377.69   34.42
  -1   9   0  211.43   24.18
  -1   9   0  201.91   24.50
  -1   9   0  227.56   26.72
  -1   9   1   -5.91   10.02
  -1   9   1    3.89   11.01
  -1   9   1   10.66   10.65
  -1   9   2   29.21   12.31
  -1   9   2   39.95   14.55
  -1   9   3  685.79   50.58
  -1   9   3  751.44   52.89
  -1   9   4  197.44   23.85
  -1   9   4  187.99   24.12
  -1   9   5   63.52   15.28
  -1   9   5   54.49   15.73
  -1   9   6  127.17   20.29
  -1   9   6  158.15   22.36
  -1   9   6  139.35   20.83
  -1   9   7  463.42   40.68
  -1   9   8  388.59   37.41
  -1   9   9   97.69   20.52
  -1   9  10   -2.79   14.66
  -1   9  11  215.52   30.11
  -1   9  12  333.56   38.26
  -1  10  -2  117.13   20.43
  -1  10  -2   74.64   18.32
  -1  10  -2   85.51   18.64
  -1  10  -1  171.70   23.32
  -1  10  -1  153.60   23.54
  -1  10  -1  171.19   24.33
  -1  10   0  105.58   19.84
  -1  10   0  151.34   23.15
  -1  10   0  172.55   22.94
  -1  10   1    2.21   11.25
  -1  10   1   16.74   12.98
  -1  10   2  181.26   23.66
  -1  10   2  199.73   26.33
  -1  10   3  390.93   36.75
  -1  10   3  432.05   38.48
  -1  10   4  258.05   28.46
  -1  10   4  281.39   30.67
  -1  10   5   44.15   14.71
  -1  10   5   74.64   17.57
  -1  10   6  102.95   19.04
  -1  10   6   91.32   18.33
  -1  10   8  366.12   36.68
  -1  10   9  105.33   21.67
  -1  10  10   -2.86   14.29
  -1  10  11   89.73   22.32
  -1  11  -1  269.20   31.75
  -1  11   0  112.99   20.45
  -1  11   0   71.81   18.99
  -1  11   1   24.28   13.46
  -1  11   1   41.89   16.29
  -1  11   2   36.10   14.34
  -1  11   2   49.06   15.94
  -1  11   3  281.34   31.23
  -1  11   3  208.37   27.75
  -1  11   4  188.07   25.21
  -1  11   4  172.40   25.55
  -1  11   5    9.68   13.35
  -1  11   5   20.46   14.71
  -1  11   6   34.25   14.71
  -1  11   6   33.30   15.20
  -1  11  10   20.08   16.94
  -1  12   4  223.59   29.24
  -1  12   4  229.22   29.44
  -1  12   5   94.48   21.06
  -1  12   5  161.04   23.91
  -1  12   6    5.28   12.47
  -1  12   6   -2.76   13.29
   0 -12  -9   18.22   13.78
   0 -12  -9    9.07   10.93
   0 -12  -8   50.49   15.18
   0 -12  -8   55.68   14.60
   0 -12  -7  398.87   37.26
   0 -12  -6  180.72   25.08
   0 -12  -5  232.28   28.50
   0 -12  -5  247.31   29.13
   0 -12  -4    4.96   11.95
   0 -12  -4    2.51   10.58
   0 -12  -3  180.64   25.71
   0 -12  -3  227.70   28.15
   0 -12  -2  230.58   28.56
   0 -12  -2  237.54   29.62
   0 -12  -1  244.60   30.18
   0 -11 -11  407.76   38.51
   0 -11 -10   70.40   17.64
   0 -11  -9   10.92   11.16
   0 -11  -9   35.39   11.85
   0 -11  -8   37.77   13.13
   0 -11  -8   38.44   13.05
   0 -11  -7  532.53   43.36
   0 -11  -7  589.54   45.32
   0 -11  -6  636.65   46.66
   0 -11  -6  608.35   47.87
   0 -11  -5  304.80   32.12
   0 -11  -5  352.68   33.10
   0 -11  -4   25.20   12.44
   0 -11  -4    6.83    9.14
   0 -11  -3  204.34   26.58
   0 -11  -3  210.17   26.96
   0 -11  -2  310.27   33.25
   0 -11  -2  381.04   35.66
   0 -11  -1  387.23   36.02
   0 -11  -1  326.98   35.03
   0 -11   0   28.73   13.11
   0 -11   0   47.16   15.94
   0 -11   1  -16.20   16.94
   0 -10 -12   66.50   17.10
   0 -10 -11  291.70   31.58
   0 -10 -10  248.97   28.35
   0 -10  -9   45.61   14.69
   0 -10  -8   79.31   16.04
   0 -10  -8   61.68   14.51
   0 -10  -7  707.74   50.80
   0 -10  -7  704.73   50.79
   0 -10  -6  794.02   53.75
   0 -10  -6  707.61   51.40
   0 -10  -5  527.44   39.57
   0 -10  -5  503.97   40.64
   0 -10  -5  511.87   41.63
   0 -10  -4    2.08   10.39
   0 -10  -4    4.06   10.33
   0 -10  -3  107.46   18.57
   0 -10  -3  156.36   21.77
   0 -10  -2  668.27   49.86
   0 -10  -2  628.71   49.02
   0 -10  -1  408.84   38.36
   0 -10  -1  453.53   38.47
   0 -10   0   48.34   14.58
   0 -10   0   90.96   18.77
   0 -10   1   26.61   13.92
   0 -10   1   12.46   13.13
   0 -10   2  147.04   25.42
   0 -10   3  204.39   28.06
   0  -9 -13   78.89   17.81
   0  -9 -13   60.37   15.47
   0  -9 -12   18.19   12.19
   0  -9 -12   24.41   12.04
   0  -9 -11  236.83   27.50
   0  -9 -11  228.58   25.17
   0  -9 -10  116.75   18.72
   0  -9 -10  101.38   16.64
   0  -9  -9  146.35   19.93
   0  -9  -9  124.26   17.77
   0  -9  -8  155.85   20.29
   0  -9  -8  124.25   17.66
   0  -9  -7  249.08   26.66
   0  -9  -7  317.34   28.08
   0  -9  -6  866.90   59.07
   0  -9  -6  949.15   61.00
   0  -9  -6  960.95   60.26
   0  -9  -5  311.48   27.55
   0  -9  -5  300.97   27.68
   0  -9  -5  302.45   28.79
   0  -9  -4    7.39    9.39
   0  -9  -4    3.08    7.97
   0  -9  -4    1.78   10.11
   0  -9  -3   47.00   11.12
   0  -9  -3   77.04   15.53
   0  -9  -3   61.33   14.44
   0  -9  -2  880.69   56.95
   0  -9  -2  743.07   54.47
   0  -9  -1  560.78   43.95
   0  -9  -1  567.97   43.45
   0  -9   0  183.92   23.34
   0  -9   0  203.76   25.32
   0  -9   1   -2.01   10.23
   0  -9   1    8.98   12.18
   0  -9   2  199.23   25.22
   0  -9   3  333.75   34.93
   0  -9   4  331.88   34.89
   0  -8 -13    9.34   11.48
   0  -8 -13   19.27   11.98
   0  -8 -12   37.26   13.73
   0  -8 -12   48.23   14.36
   0  -8 -11  370.22   34.68
   0  -8 -11  419.28   34.83
   0  -8 -10  692.41   50.11
   0  -8 -10  697.12   48.78
   0  -8  -9  741.29   50.61
   0  -8  -9  663.50   47.26
   0  -8  -8   55.05   13.83
   0  -8  -8   37.08   10.23
   0  -8  -8   72.54   12.78
   0  -8  -7    9.76   10.08
   0  -8  -7    2.75    7.36
   0  -8  -7   10.74    7.39
   0  -8  -6   43.75   11.29
   0  -8  -6   46.22   12.05
   0  -8  -6   35.99   10.26
   0  -8  -6   64.17   10.69
   0  -8  -5  106.76   15.49
   0  -8  -5  108.46   15.39
   0  -8  -5  117.97   16.71
   0  -8  -4  115.74   15.60
   0  -8  -4  127.57   17.11
   0  -8  -3  252.19   22.70
   0  -8  -3  255.23   24.92
   0  -8  -3  227.76   23.61
   0  -8  -2 1117.57   65.08
   0  -8  -2 1053.31   67.73
   0  -8  -2 1076.44   67.93
   0  -8  -1  737.46   50.57
   0  -8  -1  704.66   49.35
   0  -8   0  318.22   29.83
   0  -8   0  397.58   33.00
   0  -8   1    7.16    9.25
   0  -8   1   -3.98   10.63
   0  -8   2  460.61   38.65
   0  -8   2  454.54   36.59
   0  -8   3  650.55   49.59
   0  -8   4  528.70   44.17
   0  -7 -13    2.25   12.02
   0  -7 -13   -2.12   10.22
   0  -7 -12    2.10   11.04
   0  -7 -12   -3.97    9.17
   0  -7 -11  422.53   36.12
   0  -7 -11  413.09   35.24
   0  -7 -10  434.00   34.50
   0  -7 -10  410.34   35.17
   0  -7  -9  279.68   26.50
   0  -7  -9  249.21   24.43
   0  -7  -8   42.91   12.23
   0  -7  -8   68.06   12.78
   0  -7  -8   37.87    9.76
   0  -7  -7  285.84   25.92
   0  -7  -7  282.07   24.63
   0  -7  -7  322.60   25.51
   0  -7  -6  350.99   28.75
   0  -7  -6  365.61   28.80
   0  -7  -6  348.59   27.30
   0  -7  -6  362.71   27.49
   0  -7  -5 1398.29   82.47
   0  -7  -5 1484.20   82.02
   0  -7  -5 1480.61   80.80
   0  -7  -5 1333.57   81.89
   0  -7  -4  271.70   23.24
   0  -7  -4  260.44   22.98
   0  -7  -4  280.64   24.32
   0  -7  -4  252.66   20.89
   0  -7  -3   38.67    9.60
   0  -7  -3   38.11   11.86
   0  -7  -3   37.97   11.26
   0  -7  -3   42.93    8.22
   0  -7  -2   82.09   11.53
   0  -7  -2   64.73   13.37
   0  -7  -2   82.04   14.56
   0  -7  -1  574.46   37.78
   0  -7  -1  590.89   41.01
   0  -7  -1  590.91   41.54
   0  -7   0   43.89   11.49
   0  -7   0   50.37   13.92
   0  -7   1  137.04   18.12
   0  -7   1  169.42   20.64
   0  -7   2  718.02   49.71
   0  -7   2  675.61   47.42
   0  -7   3 1293.78   80.58
   0  -7   4  806.28   56.64
   0  -7   5  128.78   20.46
   0  -6 -13   91.82   17.96
   0  -6 -13   69.63   16.54
   0  -6 -12   22.35   12.23
   0  -6 -12   39.05   12.99
   0  -6 -11  273.26   27.34
   0  -6 -11  232.07   25.33
   0  -6 -10  121.48   18.27
   0  -6 -10  121.76   17.51
   0  -6  -9  669.15   45.69
   0  -6  -9  678.83   46.59
   0  -6  -8   14.59    9.43
   0  -6  -8   37.89    9.82
   0  -6  -7  169.24   19.52
   0  -6  -7  188.51   18.13
   0  -6  -7  199.57   18.95
   0  -6  -6  697.25   44.30
   0  -6  -6  702.61   43.33
   0  -6  -6  677.51   43.81
   0  -6  -6  715.48   45.54
   0  -6  -5 2396.45  127.22
   0  -6  -5 2253.45  126.33
   0  -6  -5 2380.97  125.96
   0  -6  -5 2369.63  125.59
   0  -6  -4  454.59   32.10
   0  -6  -4  479.75   32.19
   0  -6  -4  432.87   32.42
   0  -6  -4  497.70   31.26
   0  -6  -3   41.88    9.23
   0  -6  -3   37.85   10.15
   0  -6  -3   33.46    9.82
   0  -6  -3   34.42    6.94
   0  -6  -2 1273.39   72.90
   0  -6  -2 1250.36   70.73
   0  -6  -2 1234.99   72.49
   0  -6  -2 1259.35   69.56
   0  -6  -1 1415.01   77.15
   0  -6  -1 1418.49   80.31
   0  -6  -1 1392.22   79.78
   0  -6  -1 1352.63   75.96
   0  -6   0 1426.83   76.54
   0  -6   0 1451.67   81.12
   0  -6   0 1259.68   78.63
   0  -6   1  347.66   29.02
   0  -6   1  317.52   26.95
   0  -6   2  309.18   27.46
   0  -6   2  285.64   25.22
   0  -6   3   31.46    9.38
   0  -6   3   30.68   12.14
   0  -6   4  478.90   37.87
   0  -6   5   24.94   12.08
   0  -5 -13   44.03   13.31
   0  -5 -12   -5.89    9.27
   0  -5 -12    1.94    9.32
   0  -5 -11  275.37   26.85
   0  -5 -11  259.64   26.10
   0  -5 -10  271.39   26.04
   0  -5 -10  301.02   27.14
   0  -5  -9  363.24   28.66
   0  -5  -9  296.95   26.73
   0  -5  -8   92.59   14.47
   0  -5  -8  109.01   14.83
   0  -5  -7  376.62   27.49
   0  -5  -7  333.53   24.07
   0  -5  -7  311.34   25.62
   0  -5  -6 1444.54   77.90
   0  -5  -6 1345.58   75.45
   0  -5  -6 1348.71   74.51
   0  -5  -6 1320.20   76.26
   0  -5  -5 2268.77  121.71
   0  -5  -5 2257.31  120.71
   0  -5  -5 2196.18  119.59
   0  -5  -5 2359.48  120.94
   0  -5  -4  997.95   56.19
   0  -5  -4 1043.38   54.77
   0  -5  -4  954.75   55.77
   0  -5  -4 1022.24   55.50
   0  -5  -4 1012.19   55.12
   0  -5  -3  119.32   13.40
   0  -5  -3  147.18   13.20
   0  -5  -3  127.70   12.74
   0  -5  -3  128.06   10.69
   0  -5  -3  123.98   12.70
   0  -5  -3  117.48   11.34
   0  -5  -2 2281.88  112.54
   0  -5  -2 2237.34  111.60
   0  -5  -2 2388.26  114.25
   0  -5  -2 2281.38  114.14
   0  -5  -2 2380.83  111.71
   0  -5  -2 2466.19  111.57
   0  -5  -1 1480.92   75.42
   0  -5  -1 1548.67   79.39
   0  -5  -1 1586.09   79.52
   0  -5  -1 1562.61   76.20
   0  -5  -1 1568.15   77.00
   0  -5   0 2153.96  116.29
   0  -5   0 2316.84  122.46
   0  -5   0 2371.83  119.02
   0  -5   0 2301.98  121.73
   0  -5   1  258.03   19.21
   0  -5   1  303.71   23.90
   0  -5   1  270.84   22.20
   0  -5   2  127.14   16.27
   0  -5   2  100.55   13.24
   0  -5   3  117.64   16.53
   0  -5   3   95.88   13.67
   0  -5   4  872.14   56.38
   0  -5   5  108.93   16.94
   0  -4 -13   97.98   18.47
   0  -4 -12   -3.84    9.94
   0  -4 -11   35.08   12.00
   0  -4 -11   45.49   12.52
   0  -4 -10  675.75   46.35
   0  -4 -10  671.92   46.56
   0  -4  -9  575.04   40.71
   0  -4  -9  615.34   41.50
   0  -4  -8  153.25   17.55
   0  -4  -8  129.01   15.97
   0  -4  -7    0.83    3.62
   0  -4  -7   14.47    7.36
   0  -4  -7    7.68    5.38
   0  -4  -7    8.81    6.98
   0  -4  -6 1923.15   95.56
   0  -4  -6 1861.85   94.38
   0  -4  -6 1821.55   97.29
   0  -4  -6 1814.29   97.58
   0  -4  -6 1535.49   94.62
   0  -4  -5 1497.82   81.83
   0  -4  -5 1540.81   82.31
   0  -4  -5 1521.44   80.32
   0  -4  -5 1514.59   79.56
   0  -4  -5 1486.43   81.15
   0  -4  -5 1581.99   80.67
   0  -4  -5 1331.49   80.00
   0  -4  -5 1440.22   80.78
   0  -4  -4 1405.87   68.89
   0  -4  -4 1456.39   69.68
   0  -4  -4 1216.74   69.51
   0  -4  -4 1403.37   68.72
   0  -4  -4 1329.79   67.58
   0  -4  -4 1430.87   68.67
   0  -4  -4 1155.87   67.44
   0  -4  -4 1548.02   68.93
   0  -4  -3    1.47    5.32
   0  -4  -3    7.49    5.96
   0  -4  -3    2.57    4.12
   0  -4  -3    1.31    4.61
   0  -4  -3   -1.67    4.73
   0  -4  -3    2.41    3.01
   0  -4  -3    3.20    4.84
   0  -4  -3    0.67    4.95
   0  -4  -3   -0.70    4.76
   0  -4  -2 1197.35   58.79
   0  -4  -2 1078.53   58.40
   0  -4  -2 1198.23   59.21
   0  -4  -2 1185.57   56.79
   0  -4  -2  773.89   56.62
   0  -4  -2 1176.75   59.45
   0  -4  -2 1093.97   59.39
   0  -4  -2 1150.12   57.96
   0  -4  -2 1243.75   59.30
   0  -4  -2  784.45   56.16
   0  -4  -1 1593.68   86.37
   0  -4  -1 1746.02   87.55
   0  -4  -1 1647.40   88.73
   0  -4  -1 1765.54   86.95
   0  -4  -1 1848.25   87.26
   0  -4  -1 1783.52   89.39
   0  -4   0  887.09   33.89
   0  -4   0  516.54   33.59
   0  -4   0  941.97   35.08
   0  -4   0  916.03   36.39
   0  -4   0  488.53   32.56
   0  -4   0  969.31   40.55
   0  -4   0  912.41   39.25
   0  -4   0  175.37   30.54
   0  -4   0  972.87   36.99
   0  -4   1  826.79   46.06
   0  -4   1  825.33   46.85
   0  -4   1  819.25   46.03
   0  -4   1  859.94   50.65
   0  -4   1  925.87   50.01
   0  -4   2  302.45   21.18
   0  -4   2  307.26   21.22
   0  -4   2  356.47   25.70
   0  -4   2  337.40   20.93
   0  -4   2  356.91   24.90
   0  -4   3  381.43   28.21
   0  -4   3  354.40   26.10
   0  -4   3  358.51   24.69
   0  -4   4  804.26   48.27
   0  -4   4  782.40   50.58
   0  -4   4  811.39   48.70
   0  -4   5  624.68   43.17
   0  -3 -13  267.72   28.45
   0  -3 -12    1.91    9.74
   0  -3 -11  156.57   20.21
   0  -3 -10  646.62   45.43
   0  -3 -10  668.84   45.41
   0  -3  -9 1129.47   67.88
   0  -3  -9 1135.08   68.10
   0  -3  -8  410.33   29.53
   0  -3  -8  405.40   29.81
   0  -3  -8  368.60   26.79
   0  -3  -7   20.20    5.39
   0  -3  -7   25.79    8.89
   0  -3  -7   22.29    8.57
   0  -3  -6 1230.47   66.09
   0  -3  -6 1247.41   63.40
   0  -3  -6 1156.14   62.41
   0  -3  -6 1211.03   65.91
   0  -3  -6 1281.28   64.64
   0  -3  -5 1366.67   71.86
   0  -3  -5 1367.31   72.93
   0  -3  -5 1357.78   74.10
   0  -3  -5 1399.63   70.95
   0  -3  -5 1322.31   70.07
   0  -3  -5 1332.78   72.56
   0  -3  -5 1314.82   71.86
   0  -3  -5 1099.48   71.07
   0  -3  -5 1390.96   71.54
   0  -3  -4  843.37   46.93
   0  -3  -4  826.02   48.27
   0  -3  -4  848.37   47.35
   0  -3  -4  808.72   47.33
   0  -3  -4  840.79   46.32
   0  -3  -4  856.72   45.81
   0  -3  -4  864.79   47.29
   0  -3  -4  793.17   46.78
   0  -3  -3  393.74   22.68
   0  -3  -3  358.69   22.21
   0  -3  -3  347.66   21.45
   0  -3  -3  357.93   21.86
   0  -3  -3  360.97   22.43
   0  -3  -3  313.54   21.96
   0  -3  -3  416.51   24.40
   0  -3  -3  405.04   22.80
   0  -3  -2  487.02   26.69
   0  -3  -2  419.09   26.10
   0  -3  -2  474.37   27.27
   0  -3  -2  455.33   25.35
   0  -3  -2  416.73   25.92
   0  -3  -2  425.20   26.39
   0  -3  -2  434.78   25.53
   0  -3  -2  357.76   25.81
   0  -3  -2  430.36   25.89
   0  -3  -1  701.54   36.39
   0  -3  -1  642.93   35.78
   0  -3  -1  658.89   37.07
   0  -3  -1  668.23   37.25
   0  -3  -1  663.92   35.68
   0  -3  -1  683.56   36.09
   0  -3   0  797.13   17.64
   0  -3   0   75.76   11.10
   0  -3   0  795.17   20.29
   0  -3   0  790.20   18.77
   0  -3   0  641.97   18.25
   0  -3   0  817.47   24.53
   0  -3   0  828.56   23.76
   0  -3   0  830.37   21.06
   0  -3   0   17.53    9.97
   0  -3   1    0.89    2.50
   0  -3   1    2.10    3.01
   0  -3   1    1.50    5.61
   0  -3   1   -0.54    3.72
   0  -3   1    0.80    3.01
   0  -3   1    4.60    4.64
   0  -3   1    1.63    2.77
   0  -3   1    2.72    3.37
   0  -3   2   45.48    5.82
   0  -3   2   52.43    6.48
   0  -3   2   33.31    7.58
   0  -3   2   24.58    4.85
   0  -3   2   37.13    6.95
   0  -3   2   25.02    5.10
   0  -3   3 1534.48   89.22
   0  -3   3 1608.73   87.54
   0  -3   3 1615.40   86.06
   0  -3   3 1663.42   85.73
   0  -3   3 1740.11   88.69
   0  -3   4 1660.59   89.81
   0  -3   4 1604.90   90.85
   0  -3   4 1645.35   88.80
   0  -3   5  383.95   28.87
   0  -3   5  401.57   29.53
   0  -3   6  268.75   23.88
   0  -3   7  430.78   34.08
   0  -2 -13   43.64   13.77
   0  -2 -12    1.91    8.84
   0  -2 -11  250.10   25.51
   0  -2 -10  962.69   60.99
   0  -2  -9 1442.97   82.90
   0  -2  -9 1414.37   82.63
   0  -2  -8  379.55   28.15
   0  -2  -8  320.74   26.98
   0  -2  -8  372.04   25.80
   0  -2  -7   66.20    8.95
   0  -2  -7   53.25   10.06
   0  -2  -7   65.00    8.08
   0  -2  -7   63.19   10.66
   0  -2  -7   58.95    8.11
   0  -2  -6  764.40   42.75
   0  -2  -6  833.72   44.24
   0  -2  -6  736.22   45.56
   0  -2  -6  737.32   43.82
   0  -2  -6  822.28   45.82
   0  -2  -6  727.85   43.90
   0  -2  -5 1336.08   70.41
   0  -2  -5 1342.84   73.55
   0  -2  -5 1415.03   71.74
   0  -2  -5 1395.37   69.00
   0  -2  -5 1328.38   71.53
   0  -2  -5 1409.85   69.27
   0  -2  -5 1356.96   70.35
   0  -2  -4 1259.18   63.02
   0  -2  -4 1232.54   65.09
   0  -2  -4 1327.85   65.81
   0  -2  -4 1274.82   61.89
   0  -2  -4 1313.16   61.60
   0  -2  -4 1313.77   63.88
   0  -2  -4 1089.63   62.59
   0  -2  -4 1261.07   62.53
   0  -2  -4 1309.77   63.84
   0  -2  -3  633.10   35.45
   0  -2  -3  621.21   35.38
   0  -2  -3  591.78   36.22
   0  -2  -3  635.64   34.35
   0  -2  -3  613.07   33.84
   0  -2  -3  645.81   35.22
   0  -2  -3  568.59   35.50
   0  -2  -3  594.03   35.31
   0  -2  -3  706.52   35.00
   0  -2  -2  104.74    7.97
   0  -2  -2   69.34    7.98
   0  -2  -2   76.48    6.72
   0  -2  -2   73.19    7.28
   0  -2  -2  100.66    8.35
   0  -2  -2   83.02    7.13
   0  -2  -2   74.59    7.32
   0  -2  -2   50.76    8.03
   0  -2  -2   46.02    7.09
   0  -2  -1  146.88   10.23
   0  -2  -1  174.41   10.57
   0  -2  -1  129.45    9.67
   0  -2  -1  147.51    9.17
   0  -2  -1  124.61   10.05
   0  -2  -1  128.06    9.31
   0  -2  -1  176.31   10.91
   0  -2  -1  139.79   10.09
   0  -2  -1  124.55   10.04
   0  -2   0 2289.85  117.29
   0  -2   0 2352.20  118.14
   0  -2   0 2395.58  117.80
   0  -2   0 2181.48  117.87
   0  -2   0 2420.06  119.55
   0  -2   0 2359.09  119.17
   0  -2   0 2389.63  118.39
   0  -2   1  951.25   49.28
   0  -2   1  960.58   49.75
   0  -2   1  728.91   48.38
   0  -2   1  980.57   51.29
   0  -2   1 1227.20   51.65
   0  -2   1 1025.57   50.17
   0  -2   2   39.78    5.70
   0  -2   2   36.17    4.63
   0  -2   2   30.54    4.27
   0  -2   2   41.38    5.77
   0  -2   2   31.87    6.23
   0  -2   2   28.98    4.50
   0  -2   2   29.34    4.38
   0  -2   3  765.67   50.23
   0  -2   3  995.73   51.82
   0  -2   3 1030.24   53.59
   0  -2   3 1023.99   51.72
   0  -2   3 1024.61   54.25
   0  -2   3  940.55   50.91
   0  -2   3 1083.91   52.21
   0  -2   3 1124.36   53.09
   0  -2   3  756.93   50.97
   0  -2   4 1685.01   90.22
   0  -2   4 1708.90   91.19
   0  -2   4 1611.97   92.22
   0  -2   4 1815.00   93.60
   0  -2   4 1741.49   90.65
   0  -2   4 1755.06   91.17
   0  -2   5 1330.80   72.57
   0  -2   5 1296.50   74.72
   0  -2   5 1293.56   73.39
   0  -2   6    2.70    8.15
   0  -2   7  136.41   18.18
   0  -2   8  749.81   51.86
   0  -2   9  347.30   32.63
   0  -2  10  142.06   21.20
   0  -1 -13  260.13   28.59
   0  -1 -12    7.72    8.55
   0  -1 -11    3.49    8.41
   0  -1 -10   54.79   11.95
   0  -1  -9  385.50   29.93
   0  -1  -8   41.34    8.73
   0  -1  -8   40.01   10.20
   0  -1  -8   39.95    9.77
   0  -1  -7  140.14   14.32
   0  -1  -7  137.95   15.14
   0  -1  -7  137.32   13.69
   0  -1  -6 1728.80  103.30
   0  -1  -6 2050.52  104.75
   0  -1  -6 2130.74  107.28
   0  -1  -6 2047.73  106.25
   0  -1  -6 2077.43  104.98
   0  -1  -6 2084.36  105.83
   0  -1  -5 3613.97  187.47
   0  -1  -5 3693.50  186.36
   0  -1  -5 3808.88  187.31
   0  -1  -5 3791.67  188.91
   0  -1  -5 4015.03  188.86
   0  -1  -5 3443.60  187.66
   0  -1  -5 3985.20  187.79
   0  -1  -5 3820.68  188.04
   0  -1  -4 2948.53  150.86
   0  -1  -4 3083.61  151.51
   0  -1  -4 2901.82  149.60
   0  -1  -4 3189.56  150.74
   0  -1  -4 2745.66  152.67
   0  -1  -4 3061.24  151.85
   0  -1  -4 2532.70  150.72
   0  -1  -4 3053.62  150.63
   0  -1  -4 3128.85  151.13
   0  -1  -3 3120.39  157.09
   0  -1  -3 3100.78  155.93
   0  -1  -3 3740.81  160.29
   0  -1  -3 2894.29  155.85
   0  -1  -3 3267.27  157.59
   0  -1  -3 2510.50  156.69
   0  -1  -3 3368.41  157.05
   0  -1  -3 3352.63  157.43
   0  -1  -2   59.69    5.57
   0  -1  -2   63.71    5.60
   0  -1  -2   58.83    4.63
   0  -1  -2   63.34    4.63
   0  -1  -2   72.94    5.81
   0  -1  -2   59.99    5.76
   0  -1  -2   60.15    5.04
   0  -1  -1 2126.47   19.30
   0  -1  -1  784.08   12.46
   0  -1  -1 2097.09   18.57
   0  -1  -1 3199.97   24.27
   0  -1  -1 3133.36   25.05
   0  -1  -1 1772.68   18.65
   0  -1   0 3643.80   27.19
   0  -1   0 3173.88   26.45
   0  -1   0 3332.37   29.95
   0  -1   0 3634.71   30.03
   0  -1   1 2814.33  150.51
   0  -1   1 2957.59  151.10
   0  -1   1 3023.43  150.92
   0  -1   1 2692.36  150.40
   0  -1   1 2998.06  151.66
   0  -1   1 3023.55  150.97
   0  -1   2 1003.53   44.73
   0  -1   2  792.38   42.11
   0  -1   2  755.80   42.43
   0  -1   2  592.63   41.46
   0  -1   2  852.78   43.47
   0  -1   2  778.79   42.03
   0  -1   2  807.97   42.28
   0  -1   2 1055.82   43.55
   0  -1   2  788.28   42.62
   0  -1   3  679.31   38.66
   0  -1   3  951.04   43.24
   0  -1   3  731.91   38.83
   0  -1   3  754.39   40.24
   0  -1   3  543.49   37.83
   0  -1   3  818.84   40.70
   0  -1   3  627.39   38.44
   0  -1   3  747.71   39.08
   0  -1   3  857.80   40.28
   0  -1   3  725.92   39.41
   0  -1   4 2110.23  122.26
   0  -1   4 2595.83  127.64
   0  -1   4 2504.96  123.28
   0  -1   4 2579.29  125.59
   0  -1   4 2513.06  124.98
   0  -1   4 2407.88  123.42
   0  -1   4 2461.78  124.02
   0  -1   4 2129.12  122.32
   0  -1   4 2500.00  123.43
   0  -1   4 2563.37  124.18
   0  -1   5  577.07   33.25
   0  -1   5  592.27   36.17
   0  -1   5  577.75   34.97
   0  -1   5  606.62   38.32
   0  -1   5  579.44   33.51
   0  -1   5  527.74   33.43
   0  -1   6  236.88   22.99
   0  -1   6  264.32   21.21
   0  -1   7   71.61   14.01
   0  -1   8  455.06   36.56
   0  -1   9  287.69   28.64
   0  -1  10   75.92   17.02
   0  -1  11   -2.44   12.63
   0  -1  12   60.35   17.60
   0   0 -12   25.45   11.61
   0   0 -11   -3.56    8.74
   0   0 -10   91.04   14.93
   0   0  -9  327.14   26.94
   0   0  -9  308.90   25.77
   0   0  -8   51.29   10.13
   0   0  -8   55.28   10.64
   0   0  -7   20.29    8.80
   0   0  -7   18.13    6.41
   0   0  -7   32.72    8.76
   0   0  -6  547.77   33.19
   0   0  -6  458.52   30.59
   0   0  -6  533.00   33.12
   0   0  -6  516.32   31.51
   0   0  -6  527.92   32.82
   0   0  -5  296.85   19.69
   0   0  -5  290.15   19.07
   0   0  -5  297.81   19.15
   0   0  -5  314.33   21.67
   0   0  -5  320.81   20.59
   0   0  -5  312.09   20.81
   0   0  -5  293.82   19.27
   0   0  -5  349.80   21.14
   0   0  -4 1761.63   98.13
   0   0  -4 1961.44   98.02
   0   0  -4 2047.72   98.28
   0   0  -4 1996.82  101.57
   0   0  -4 1776.68   99.30
   0   0  -4 1996.68   98.96
   0   0  -4 1984.63   99.26
   0   0  -4 1896.92   97.75
   0   0  -4 2021.91   98.37
   0   0  -4 2033.11   99.19
   0   0  -3  146.69   10.99
   0   0  -3  159.64   11.04
   0   0  -3  199.32   14.81
   0   0  -3  187.65   13.44
   0   0  -3  157.03   11.90
   0   0  -3  160.68   10.98
   0   0  -3  179.20   12.01
   0   0  -3  174.59   11.33
   0   0  -3  170.70   11.76
   0   0  -2 5595.14  298.95
   0   0  -2 5922.08  299.23
   0   0  -2 6433.48  301.72
   0   0  -2 5691.60  300.19
   0   0  -2 6386.08  299.82
   0   0  -2 6283.51  299.39
   0   0  -2 5872.00  299.52
   0   0  -2 6093.52  299.35
   0   0  -2 6039.45  299.64
   0   0  -1 1920.27   13.94
   0   0  -1 2936.54   21.22
   0   0  -1 2013.38   14.47
   0   0  -1 1223.29   12.05
   0   0   1  116.15    5.16
   0   0   1    0.17    0.93
   0   0   1    1.68    0.96
   0   0   1    2.17    1.04
   0   0   1  135.25    4.12
   0   0   2 6208.87  312.01
   0   0   2 6285.14  313.77
   0   0   2 5440.39  311.78
   0   0   2 6294.39  312.47
   0   0   2 6316.21  312.40
   0   0   2 6118.60  311.56
   0   0   2 6507.02  312.19
   0   0   2 6230.06  312.31
   0   0   3  161.76   10.48
   0   0   3  181.38   14.88
   0   0   3  172.98   11.01
   0   0   3  189.62   13.53
   0   0   3  200.55   12.15
   0   0   3  154.21   11.63
   0   0   3  183.70   11.27
   0   0   3  161.84   11.36
   0   0   3  145.31   10.98
   0   0   4 1516.87   96.85
   0   0   4 2108.16  102.58
   0   0   4 1945.64   96.69
   0   0   4 2014.84   97.74
   0   0   4 2031.71  100.94
   0   0   4 1834.82   97.41
   0   0   4 2141.45   98.96
   0   0   4 1728.23   97.94
   0   0   4 2070.00   98.07
   0   0   4 1912.04   98.18
   0   0   5  353.06   19.93
   0   0   5  337.30   24.30
   0   0   5  292.41   21.94
   0   0   5  261.97   18.10
   0   0   5  343.71   20.09
   0   0   5  321.25   19.65
   0   0   5  212.75   17.76
   0   0   6  584.10   38.84
   0   0   6  526.77   36.29
   0   0   7   16.99    8.68
   0   0   7   15.47   10.56
   0   0   8   57.08   12.66
   0   0   8   51.69   13.84
   0   0   9  382.16   34.18
   0   0  10  115.85   19.67
   0   0  11   -4.90   12.24
   0   0  12   -2.65   12.50
   0   1 -11    1.82    8.23
   0   1 -10   88.64   15.27
   0   1  -9  285.66   25.43
   0   1  -9  290.56   25.98
   0   1  -8  409.53   30.55
   0   1  -8  392.93   30.30
   0   1  -7   76.08   11.13
   0   1  -7   65.96   11.25
   0   1  -6  234.56   18.08
   0   1  -6  238.30   19.37
   0   1  -6  274.10   20.19
   0   1  -6  220.42   17.98
   0   1  -6  279.74   20.49
   0   1  -5  446.74   30.55
   0   1  -5  444.86   30.24
   0   1  -5  505.47   31.08
   0   1  -5  486.85   29.97
   0   1  -5  497.82   29.96
   0   1  -5  523.86   30.48
   0   1  -5  545.07   31.94
   0   1  -4 2350.12  118.71
   0   1  -4 2047.57  116.18
   0   1  -4 2268.05  116.07
   0   1  -4 2450.82  117.08
   0   1  -4 2438.21  116.67
   0   1  -4 2399.49  116.54
   0   1  -4 2283.06  117.24
   0   1  -3  655.53   38.63
   0   1  -3  697.00   38.53
   0   1  -3  620.32   39.61
   0   1  -3  689.90   38.84
   0   1  -3  746.33   39.04
   0   1  -3  726.99   39.09
   0   1  -3  728.75   38.80
   0   1  -3  722.65   39.52
   0   1  -2  794.35   41.95
   0   1  -2  916.32   43.76
   0   1  -2  674.17   41.60
   0   1  -2  790.17   42.07
   0   1  -2  795.17   42.48
   0   1  -2  780.36   41.97
   0   1  -2  763.04   42.41
   0   1  -2  845.86   42.26
   0   1  -1 2879.11  141.73
   0   1  -1 2705.26  141.67
   0   1  -1 2513.61  141.11
   0   1  -1 2906.57  141.47
   0   1  -1 2976.68  142.29
   0   1  -1 3013.84  141.90
   0   1  -1 3298.99  142.42
   0   1  -1 2523.83  141.68
   0   1   0 3809.84   21.86
   0   1   0 3720.72   26.35
   0   1   0 3488.98   25.95
   0   1   0  702.57   11.61
   0   1   1 1677.73   77.89
   0   1   1 2511.07   78.84
   0   1   1 2222.03   77.58
   0   1   1 2089.73   77.86
   0   1   1  962.20   76.70
   0   1   1 1807.54   78.18
   0   1   1 2427.03   79.58
   0   1   1  741.96   76.70
   0   1   2   65.88    5.92
   0   1   2   60.62    5.47
   0   1   2   81.32    7.56
   0   1   2   58.45    4.71
   0   1   2   59.10    4.58
   0   1   2   66.16    6.10
   0   1   2   58.40    7.26
   0   1   2   61.15    5.03
   0   1   3 3200.40  157.95
   0   1   3 2948.17  157.08
   0   1   3 3118.66  159.89
   0   1   3 3729.59  160.99
   0   1   3 3043.93  156.19
   0   1   3 2775.58  155.96
   0   1   3 3376.17  158.42
   0   1   3 3416.29  157.45
   0   1   4 3001.32  159.44
   0   1   4 3111.45  155.71
   0   1   4 3377.85  159.92
   0   1   4 2884.41  154.02
   0   1   4 2912.90  154.30
   0   1   4 3154.68  155.18
   0   1   4 3190.79  156.23
   0   1   4 3189.42  155.67
   0   1   5 3921.11  198.42
   0   1   5 4231.32  198.07
   0   1   5 3648.67  191.34
   0   1   5 3608.48  191.72
   0   1   5 3831.85  192.91
   0   1   5 3999.45  193.58
   0   1   5 3872.27  193.33
   0   1   6 2179.52  112.75
   0   1   6 1925.19  112.61
   0   1   7  169.60   18.33
   0   1   7  127.32   18.37
   0   1   8   28.33   10.42
   0   1   8   40.53   13.62
   0   1   9  430.78   38.15
   0   1   9  512.20   37.94
   0   1  10   82.24   17.40
   0   1  11    2.45   12.67
   0   1  12    7.97   12.81
   0   1  13  248.36   31.57
   0   2  -9  311.23   28.45
   0   2  -9  370.81   30.01
   0   2  -8  622.13   42.63
   0   2  -8  658.40   43.94
   0   2  -7  127.93   15.79
   0   2  -7  134.15   15.37
   0   2  -6    6.75    6.90
   0   2  -6    1.78    4.92
   0   2  -6    8.99    6.94
   0   2  -6   13.83    5.91
   0   2  -5 1161.28   66.80
   0   2  -5 1271.59   67.78
   0   2  -5 1169.39   67.02
   0   2  -5 1270.15   68.89
   0   2  -4 1548.86   84.00
   0   2  -4 1574.57   84.05
   0   2  -4 1499.47   84.05
   0   2  -4 1592.73   84.30
   0   2  -4 1671.55   85.68
   0   2  -3  958.88   53.10
   0   2  -3  990.68   53.98
   0   2  -3  827.13   51.95
   0   2  -3 1011.45   53.10
   0   2  -3  959.49   53.56
   0   2  -3  995.71   53.44
   0   2  -3  994.41   54.16
   0   2  -3 1066.37   53.51
   0   2  -2   30.51    5.83
   0   2  -2   26.70    4.69
   0   2  -2   30.17    5.17
   0   2  -2   47.34    5.76
   0   2  -2   29.97    5.71
   0   2  -2   28.56    5.34
   0   2  -2   28.43    5.27
   0   2  -2   34.45    5.21
   0   2  -1  949.21   48.43
   0   2  -1  949.68   47.55
   0   2  -1  861.03   47.00
   0   2  -1  911.86   47.07
   0   2  -1  993.69   49.12
   0   2  -1  976.22   48.76
   0   2  -1 1005.35   48.69
   0   2  -1  921.11   48.56
   0   2   0 2479.74  110.47
   0   2   0 2186.63  108.85
   0   2   0 2249.58  108.02
   0   2   0 2345.66  108.88
   0   2   0 1635.02  108.58
   0   2   0 1952.54  109.19
   0   2   0 2478.92  110.55
   0   2   0 2059.50  109.20
   0   2   1  118.05    8.78
   0   2   1  168.07   10.63
   0   2   1  130.95    8.61
   0   2   1  170.34   10.58
   0   2   1  107.69    8.98
   0   2   1  120.23   10.13
   0   2   1  106.51    8.48
   0   2   1  137.82   10.31
   0   2   2   77.64    8.34
   0   2   2   61.75    8.68
   0   2   2   69.40    6.42
   0   2   2   83.75    7.22
   0   2   2   73.87    6.63
   0   2   2   85.89    8.53
   0   2   2   82.57    7.75
   0   2   2   70.73    8.31
   0   2   3  656.44   36.24
   0   2   3  638.41   35.21
   0   2   3  593.55   36.70
   0   2   3  668.70   38.27
   0   2   3  559.98   34.96
   0   2   3  612.98   34.38
   0   2   3  721.62   36.86
   0   2   3  649.10   34.00
   0   2   4 1269.87   69.33
   0   2   4 1314.14   71.87
   0   2   4 1229.54   71.07
   0   2   4 1283.63   67.14
   0   2   4 1232.59   66.53
   0   2   4 1433.12   70.19
   0   2   4 1322.17   68.39
   0   2   5 1404.93   73.29
   0   2   5 1379.61   71.92
   0   2   5 1323.04   75.90
   0   2   5 1294.96   75.90
   0   2   5 1336.87   70.29
   0   2   5 1272.61   69.70
   0   2   5 1410.79   73.68
   0   2   5 1396.59   71.78
   0   2   6  705.19   49.26
   0   2   6  829.68   49.77
   0   2   6  758.57   46.10
   0   2   6  821.90   44.48
   0   2   6  778.53   45.76
   0   2   7   48.66   11.79
   0   2   7   46.71   13.48
   0   2   8  358.33   32.63
   0   2   8  416.85   32.53
   0   2   9 1382.52   85.96
   0   2   9 1412.44   85.36
   0   2  10 1062.10   71.13
   0   2  10 1063.33   69.81
   0   2  11  258.60   30.55
   0   2  12   -5.28   11.95
   0   2  13   11.33   14.66
   0   3 -10  137.71   19.73
   0   3  -9  280.43   27.04
   0   3  -8  419.97   33.95
   0   3  -7  416.27   30.59
   0   3  -7  324.95   27.52
   0   3  -6  216.35   21.01
   0   3  -6  248.48   20.62
   0   3  -5  330.22   24.35
   0   3  -5  344.50   24.66
   0   3  -5  313.45   24.30
   0   3  -5  395.42   27.16
   0   3  -4 1445.33   83.43
   0   3  -4 1501.53   83.31
   0   3  -4 1616.13   84.61
   0   3  -4 1637.79   85.52
   0   3  -3 1495.54   79.43
   0   3  -3 1287.32   78.11
   0   3  -3 1464.80   78.56
   0   3  -3 1535.57   79.94
   0   3  -3 1430.84   79.87
   0   3  -3 1628.92   79.75
   0   3  -2   32.11    7.13
   0   3  -2   29.10    5.39
   0   3  -2   26.77    4.85
   0   3  -2   32.64    6.28
   0   3  -2   26.91    4.24
   0   3  -2   35.89    6.04
   0   3  -2   32.84    6.29
   0   3  -2   34.42    6.27
   0   3  -2   28.74    6.21
   0   3  -1    7.87    4.99
   0   3  -1    0.37    2.52
   0   3  -1   -1.81    4.59
   0   3  -1    0.37    2.09
   0   3  -1    0.58    3.30
   0   3  -1    3.43    3.42
   0   3  -1   11.44    4.57
   0   3  -1    3.10    3.88
   0   3  -1   -1.28    4.47
   0   3   0  744.16   40.40
   0   3   0  774.81   43.40
   0   3   0  726.08   41.39
   0   3   0  784.85   41.72
   0   3   0  713.05   42.24
   0   3   0  775.46   42.82
   0   3   0  824.65   43.03
   0   3   0  857.94   44.30
   0   3   1  528.12   34.09
   0   3   1  645.41   35.72
   0   3   1  740.10   37.76
   0   3   1  652.57   34.99
   0   3   1  592.41   36.24
   0   3   1  763.09   38.28
   0   3   1  761.82   38.58
   0   3   1  755.59   37.76
   0   3   2  388.41   24.27
   0   3   2  439.32   25.03
   0   3   2  434.54   26.60
   0   3   2  424.57   26.52
   0   3   2  380.11   24.30
   0   3   2  365.76   24.43
   0   3   2  415.88   24.29
   0   3   2  485.12   26.79
   0   3   2  447.26   26.98
   0   3   3  372.47   24.95
   0   3   3  401.30   26.81
   0   3   3  424.53   26.04
   0   3   3  385.13   23.36
   0   3   3  379.67   23.84
   0   3   3  397.04   24.01
   0   3   3  404.78   25.90
   0   3   3  437.42   26.11
   0   3   4  932.75   50.71
   0   3   4  864.66   48.72
   0   3   4  825.89   50.92
   0   3   4  917.99   52.59
   0   3   4  865.53   47.29
   0   3   4  924.90   48.32
   0   3   4  773.62   48.16
   0   3   4  974.07   51.16
   0   3   4  938.32   50.31
   0   3   5 1451.10   76.93
   0   3   5 1230.88   77.74
   0   3   5 1478.41   79.84
   0   3   5 1375.86   72.90
   0   3   5 1392.85   73.87
   0   3   5 1509.95   77.62
   0   3   6 1212.11   69.37
   0   3   6 1106.45   71.61
   0   3   6 1268.91   73.17
   0   3   6 1365.22   70.70
   0   3   7   13.81    6.92
   0   3   7   21.17   10.64
   0   3   7   37.27   12.39
   0   3   7   19.06    8.54
   0   3   8  373.78   33.16
   0   3   8  439.74   34.28
   0   3   9 1172.26   74.19
   0   3   9 1146.53   73.39
   0   3  10  685.45   49.94
   0   3  10  619.35   48.65
   0   3  11  135.80   21.34
   0   3  11  118.93   20.95
   0   3  12   -5.05   10.40
   0   3  12  -10.51   12.66
   0   3  13  272.55   32.81
   0   4 -10   75.55   15.87
   0   4  -9  165.98   21.61
   0   4  -8  272.34   27.22
   0   4  -7  118.91   17.30
   0   4  -6   33.38   10.02
   0   4  -5  555.56   35.51
   0   4  -5  525.97   35.49
   0   4  -5  505.03   35.37
   0   4  -5  513.68   36.48
   0   4  -4  683.45   43.83
   0   4  -4  746.51   45.70
   0   4  -4  715.54   43.50
   0   4  -4  717.03   44.49
   0   4  -3  308.63   22.66
   0   4  -3  288.06   21.57
   0   4  -3  305.59   23.09
   0   4  -3  300.32   23.21
   0   4  -2  303.35   22.33
   0   4  -2  271.90   19.08
   0   4  -2  322.68   21.77
   0   4  -2  317.18   22.91
   0   4  -2  348.91   23.29
   0   4  -1  808.58   44.90
   0   4  -1  759.37   41.76
   0   4  -1  837.65   41.78
   0   4  -1  787.46   43.78
   0   4  -1  861.53   45.71
   0   4  -1  854.97   45.12
   0   4   0  918.30   52.03
   0   4   0  831.28   47.87
   0   4   0  873.08   49.53
   0   4   0  948.30   49.99
   0   4   0  955.42   51.18
   0   4   0  948.21   52.67
   0   4   0  906.75   51.17
   0   4   0  991.68   52.00
   0   4   1 1497.65   22.08
   0   4   1 1688.14   35.52
   0   4   1 1656.47   28.79
   0   4   1 1879.14   35.73
   0   4   1 1736.76   32.91
   0   4   1 1696.96   25.30
   0   4   1 1562.50   31.75
   0   4   1 1858.29   37.76
   0   4   2 1027.05   57.84
   0   4   2 1067.69   57.55
   0   4   2 1112.09   59.73
   0   4   2 1089.37   59.66
   0   4   2 1018.32   57.01
   0   4   2 1018.31   58.00
   0   4   2 1027.05   57.04
   0   4   2 1157.69   60.64
   0   4   2 1090.92   59.62
   0   4   3   -5.28    6.59
   0   4   3    1.22    3.51
   0   4   3    0.87    6.45
   0   4   3   -1.67    5.89
   0   4   3   -4.68    6.84
   0   4   3    1.13    2.57
   0   4   3   -0.63    4.30
   0   4   3   -1.69    4.29
   0   4   3    1.97    3.97
   0   4   4 1591.11   84.52
   0   4   4 1539.13   83.60
   0   4   4 1581.77   86.09
   0   4   4 1436.57   80.68
   0   4   4 1493.30   81.54
   0   4   4 1508.88   81.78
   0   4   4 1579.84   84.71
   0   4   4 1706.19   85.01
   0   4   5 1678.86   89.76
   0   4   5 1522.88   89.67
   0   4   5 1716.70   92.33
   0   4   5 1804.77   89.70
   0   4   5 1590.29   85.29
   0   4   5 1545.66   86.14
   0   4   5 1676.20   90.05
   0   4   6 1939.70  106.94
   0   4   6 1870.65  108.42
   0   4   6 2012.92  110.76
   0   4   6 2063.37  107.99
   0   4   7   17.95    7.82
   0   4   7   11.24   11.26
   0   4   7   20.81   11.16
   0   4   7    8.38    8.18
   0   4   8  167.07   21.49
   0   4   8  164.85   21.36
   0   4   9  647.18   45.52
   0   4   9  532.96   43.76
   0   4  10  628.44   49.22
   0   4  10  679.69   50.48
   0   4  11   77.35   17.55
   0   4  11   33.39   13.36
   0   4  12   -2.62   12.10
   0   4  12    2.59   12.72
   0   4  13   69.81   18.14
   0   4  13   53.14   17.58
   0   5  -9   47.75   14.06
   0   5  -8  172.33   22.08
   0   5  -7   23.26   11.27
   0   5  -6    8.21    9.05
   0   5  -5   93.88   14.29
   0   5  -5   65.88   11.70
   0   5  -5   90.60   13.63
   0   5  -4  760.82   48.29
   0   5  -4  829.43   49.70
   0   5  -4  711.04   48.68
   0   5  -3   98.74   13.80
   0   5  -3   87.35   12.63
   0   5  -3   75.54   12.22
   0   5  -2  107.14   13.40
   0   5  -2   85.13   12.47
   0   5  -2   85.28   11.83
   0   5  -2  129.09   14.13
   0   5  -1  235.73   20.30
   0   5  -1  279.19   20.33
   0   5  -1  274.95   21.78
   0   5  -1  228.46   20.33
   0   5   0 2076.53  117.44
   0   5   0 2143.49  115.02
   0   5   0 2222.69  116.57
   0   5   0 2211.05  118.36
   0   5   0 2381.74  118.24
   0   5   1 1440.39   80.92
   0   5   1 1419.65   78.05
   0   5   1 1506.52   79.58
   0   5   1 1403.22   76.49
   0   5   1 1469.18   81.58
   0   5   1 1603.33   81.44
   0   5   2 2109.05  114.67
   0   5   2 2130.69  114.22
   0   5   2 2055.54  110.61
   0   5   2 2298.53  115.99
   0   5   2 2177.67  114.84
   0   5   3  131.54   11.51
   0   5   3  133.80   14.16
   0   5   3  108.03   13.87
   0   5   3  108.74   10.87
   0   5   3  138.44   14.81
   0   5   3  119.73   14.27
   0   5   4 1019.87   59.94
   0   5   4  975.63   57.51
   0   5   4 1023.83   60.95
   0   5   4  969.58   56.02
   0   5   4 1045.74   60.42
   0   5   4 1110.35   60.63
   0   5   5 2478.06  135.72
   0   5   5 2430.99  134.51
   0   5   5 2510.81  137.61
   0   5   5 2556.10  136.26
   0   5   5 2715.93  136.16
   0   5   6 1426.33   85.40
   0   5   6 1492.57   86.19
   0   5   6 1466.56   88.22
   0   5   6 1555.67   86.68
   0   5   6 1641.56   85.86
   0   5   7  383.31   29.64
   0   5   7  395.62   31.29
   0   5   7  365.19   32.63
   0   5   7  387.87   29.96
   0   5   8  136.33   19.81
   0   5   8  113.61   18.23
   0   5   9  317.99   30.17
   0   5   9  300.19   30.66
   0   5  10  237.41   28.73
   0   5  10  332.73   30.76
   0   5  11  236.50   29.25
   0   5  11  236.35   28.73
   0   5  12   -2.69   12.20
   0   5  12   17.96   13.05
   0   5  13   86.32   20.36
   0   5  13   74.32   19.68
   0   5  14   51.52   17.12
   0   6  -8  321.04   31.92
   0   6  -7  292.51   29.38
   0   6  -6   62.79   13.97
   0   6  -5   28.94   10.69
   0   6  -5   10.67    7.66
   0   6  -5   14.55    9.19
   0   6  -4  392.53   30.98
   0   6  -4  376.66   31.26
   0   6  -4  401.81   32.08
   0   6  -3   18.71    9.37
   0   6  -3   16.40    8.90
   0   6  -3   24.65    9.73
   0   6  -2  260.56   23.63
   0   6  -2  309.10   24.47
   0   6  -1  287.85   24.78
   0   6  -1  331.94   26.53
   0   6  -1  309.90   25.62
   0   6   0 1347.54   77.58
   0   6   0 1315.61   75.50
   0   6   0 1341.39   78.28
   0   6   0 1419.61   77.97
   0   6   1 1229.24   73.75
   0   6   1 1319.77   72.15
   0   6   1 1371.90   75.48
   0   6   1 1230.62   73.68
   0   6   2 1189.72   67.08
   0   6   2 1111.20   65.16
   0   6   2 1161.21   66.99
   0   6   2 1083.41   67.04
   0   6   3   45.97   11.14
   0   6   3   47.23   10.48
   0   6   3   41.37   11.23
   0   6   3   52.89   11.58
   0   6   4  407.40   32.50
   0   6   4  448.62   33.37
   0   6   4  436.70   33.56
   0   6   5 2368.85  130.40
   0   6   5 2286.51  127.49
   0   6   5 2340.14  131.32
   0   6   5 2631.10  131.41
   0   6   5 2391.25  130.91
   0   6   6  791.69   51.79
   0   6   6  733.88   49.55
   0   6   6  807.05   53.49
   0   6   6  827.54   51.18
   0   6   6  860.49   52.63
   0   6   7  198.07   21.93
   0   6   7  192.34   23.39
   0   6   7  206.42   21.51
   0   6   7  238.67   23.10
   0   6   8   27.78   13.81
   0   6   8   16.66   11.39
   0   6   9  648.95   49.39
   0   6   9  781.91   53.64
   0   6  10  169.55   24.79
   0   6  10  169.59   23.07
   0   6  11  269.05   31.11
   0   6  11  277.36   30.39
   0   6  12   38.71   17.24
   0   6  12   42.69   15.13
   0   6  13   94.36   21.17
   0   6  13   94.42   20.75
   0   6  14   77.69   21.29
   0   6  14   74.21   19.61
   0   7  -7   68.36   15.25
   0   7  -6   20.74   11.30
   0   7  -5   91.02   17.06
   0   7  -4  718.98   49.11
   0   7  -4  703.35   50.12
   0   7  -4  720.08   50.42
   0   7  -3 1153.37   73.13
   0   7  -3 1226.64   74.86
   0   7  -3 1270.36   75.07
   0   7  -2  555.90   43.00
   0   7  -2  682.63   45.58
   0   7  -2  704.17   45.63
   0   7  -1  115.42   16.36
   0   7  -1  124.14   17.35
   0   7  -1  141.93   17.77
   0   7   0   54.86   12.26
   0   7   0   36.99   11.96
   0   7   0   48.06   12.44
   0   7   1  562.40   39.10
   0   7   1  529.22   38.56
   0   7   1  555.67   40.21
   0   7   2   79.05   13.96
   0   7   2   81.75   14.34
   0   7   2   82.19   14.99
   0   7   3   42.80   12.07
   0   7   3   54.64   10.56
   0   7   3   54.88   13.18
   0   7   3   42.93   13.04
   0   7   4  243.08   22.47
   0   7   4  205.79   21.86
   0   7   4  221.13   23.32
   0   7   4  199.37   22.54
   0   7   5 1323.07   82.12
   0   7   5 1355.32   82.57
   0   7   5 1394.66   83.07
   0   7   5 1534.36   83.82
   0   7   6  371.19   31.06
   0   7   6  379.85   32.19
   0   7   6  380.41   31.67
   0   7   7  292.35   27.65
   0   7   7  321.58   29.80
   0   7   7  249.14   27.07
   0   7   8   58.53   16.29
   0   7   8   44.96   14.05
   0   7   8   30.80   11.26
   0   7   9  258.97   29.33
   0   7   9  280.31   27.54
   0   7  10  435.02   37.57
   0   7  10  439.42   40.03
   0   7  11  488.63   42.00
   0   7  11  528.40   45.63
   0   7  12   22.62   15.35
   0   7  12    7.29   12.16
   0   7  13    3.01   14.50
   0   7  13    2.63   12.67
   0   7  14  217.28   29.38
   0   8  -6   -4.61   11.92
   0   8  -5   17.43   12.38
   0   8  -4  457.05   39.38
   0   8  -4  528.84   41.53
   0   8  -4  520.25   40.95
   0   8  -3  538.84   41.92
   0   8  -3  518.54   42.40
   0   8  -3  584.60   43.54
   0   8  -2  444.59   35.88
   0   8  -2  448.68   36.00
   0   8  -2  370.53   33.68
   0   8  -1   -5.17    8.45
   0   8  -1   -1.76   10.27
   0   8  -1   -1.84    9.35
   0   8   0  372.12   31.94
   0   8   0  363.73   31.14
   0   8   0  339.29   30.33
   0   8   1  642.50   45.06
   0   8   1  661.53   46.48
   0   8   1  582.45   44.38
   0   8   2  915.87   60.89
   0   8   2  936.20   61.43
   0   8   2 1034.27   63.11
   0   8   3  207.99   22.89
   0   8   3  199.32   23.06
   0   8   3  187.68   22.38
   0   8   4   82.82   15.51
   0   8   4   98.48   16.79
   0   8   4   83.68   15.96
   0   8   5   93.23   16.46
   0   8   5   88.26   17.14
   0   8   5  100.74   16.47
   0   8   5  100.78   16.62
   0   8   6   46.97   13.44
   0   8   6   46.95   13.49
   0   8   6   55.07   14.61
   0   8   7    7.44    9.30
   0   8   7   14.00   12.39
   0   8   7    1.93    9.99
   0   8   8   43.38   14.76
   0   8   8   43.99   14.17
   0   8   9  716.89   54.03
   0   8  10  796.37   59.33
   0   8  11  408.61   39.89
   0   8  12   34.57   14.75
   0   8  13   36.72   18.14
   0   9  -4  282.47   30.99
   0   9  -3  269.35   28.82
   0   9  -3  292.39   30.37
   0   9  -3  273.84   30.31
   0   9  -2  160.54   21.72
   0   9  -2  155.44   21.86
   0   9  -2  162.53   21.87
   0   9  -1    7.84    9.96
   0   9  -1   -6.32   11.42
   0   9  -1   12.33   10.45
   0   9   0  153.62   21.17
   0   9   0  166.76   22.64
   0   9   0  162.80   22.10
   0   9   1  490.31   38.81
   0   9   1  451.85   39.44
   0   9   1  486.60   39.05
   0   9   2  682.98   51.11
   0   9   2  813.50   53.58
   0   9   2  670.77   50.20
   0   9   3   78.94   15.56
   0   9   3   66.28   15.34
   0   9   3   66.89   16.88
   0   9   4   17.24   11.15
   0   9   4    4.06   10.50
   0   9   4   -7.94   11.85
   0   9   5  246.48   26.91
   0   9   5  308.42   29.83
   0   9   6  891.54   60.28
   0   9   6  863.57   59.18
   0   9   6  879.65   60.84
   0   9   7  217.04   25.98
   0   9   7  243.56   27.14
   0   9   7  291.30   29.69
   0   9   8  158.07   22.20
   0   9   8  144.56   21.81
   0   9   8  155.89   21.87
   0   9   9   87.28   18.82
   0   9  10  140.02   22.84
   0   9  11  198.55   28.08
   0   9  12   29.25   15.45
   0   9  13   86.70   21.12
   0  10  -3  189.60   25.12
   0  10  -3  190.15   26.21
   0  10  -3  212.81   26.82
   0  10  -2  124.39   20.15
   0  10  -2  105.79   20.06
   0  10  -2  138.63   21.67
   0  10  -1   10.93   12.44
   0  10  -1   42.75   15.74
   0  10  -1   23.20   11.85
   0  10   0   58.19   14.94
   0  10   0   67.57   16.85
   0  10   0   45.90   15.27
   0  10   1  351.40   34.12
   0  10   1  425.41   37.17
   0  10   1  337.09   34.42
   0  10   2  555.94   43.22
   0  10   2  494.57   42.81
   0  10   2  502.90   43.34
   0  10   3  107.78   19.32
   0  10   3  151.03   22.27
   0  10   3  145.05   21.45
   0  10   4   11.34   12.49
   0  10   4   -8.57   11.79
   0  10   5  395.10   37.12
   0  10   5  470.10   40.18
   0  10   6  688.19   51.86
   0  10   6  688.81   52.48
   0  10   7  584.66   46.55
   0  10   7  571.80   47.30
   0  10   8   64.57   16.27
   0  10   8   74.34   16.82
   0  10   8   43.17   15.14
   0  10   9   76.89   18.24
   0  10  10  290.32   32.81
   0  10  11  261.50   31.73
   0  10  12   82.72   20.34
   0  11  -1   -7.20   11.78
   0  11  -1   -5.18   12.94
   0  11  -1   13.07   13.74
   0  11   0   26.10   13.48
   0  11   0    5.12   13.06
   0  11   0   35.82   15.31
   0  11   1  259.18   30.53
   0  11   1  310.95   32.93
   0  11   1  268.96   31.97
   0  11   2  266.85   30.55
   0  11   2  303.02   32.92
   0  11   2  302.96   32.69
   0  11   3  149.80   22.48
   0  11   3  166.94   25.01
   0  11   4   26.25   13.54
   0  11   4    7.50   12.96
   0  11   5  279.84   30.86
   0  11   5  276.11   31.75
   0  11   6  452.54   43.00
   0  11   6  622.18   48.35
   0  11   7  546.01   46.31
   0  11   7  549.11   46.62
   0  11   8   49.91   17.27
   0  11   8   75.16   18.08
   0  11  10  133.42   22.52
   0  11  11  385.00   39.55
   0  12   1  224.94   29.67
   0  12   2  225.79   29.53
   0  12   2  240.06   29.91
   0  12   3  179.91   25.46
   0  12   3  147.37   24.00
   0  12   4   12.95   12.94
   0  12   4   -5.48   13.18
   0  12   5  236.36   29.45
   0  12   5  181.42   27.29
   0  12   6  139.97   23.61
   0  12   6  156.99   25.07
   0  12   7  409.54   39.50
   0  12   7  342.94   37.51
   0  12   8   40.15   17.42
   0  12   8   30.61   15.86
   1 -12  -8  240.28   28.20
   1 -12  -7   36.44   13.30
   1 -12  -6   -9.87   13.40
   1 -12  -5  101.67   19.69
   1 -12  -5   97.14   19.87
   1 -12  -4  309.77   33.66
   1 -12  -4  279.09   32.07
   1 -11 -10   27.51   12.88
   1 -11  -9  201.79   26.45
   1 -11  -9  269.22   28.09
   1 -11  -8  380.82   34.11
   1 -11  -8  334.01   33.65
   1 -11  -7  305.31   31.18
   1 -11  -6   18.34   12.08
   1 -11  -5   11.98   13.20
   1 -11  -5    4.66   11.43
   1 -11  -4  206.28   26.27
   1 -11  -4  211.22   26.93
   1 -11  -3  257.65   30.40
   1 -11  -3  305.28   32.13
   1 -11  -2   88.10   18.48
   1 -11  -2   82.84   17.96
   1 -11  -1   38.09   15.01
   1 -11  -1   31.86   15.95
   1 -11   0  116.83   21.93
   1 -10 -11   81.77   17.84
   1 -10 -10    2.21   10.22
   1 -10  -9  151.42   21.71
   1 -10  -9  133.97   19.87
   1 -10  -8  401.66   34.72
   1 -10  -8  357.04   33.59
   1 -10  -7  362.35   32.53
   1 -10  -7  356.75   32.58
   1 -10  -6   81.01   14.51
   1 -10  -6  107.90   17.53
   1 -10  -6   85.98   17.72
   1 -10  -5   67.34   14.51
   1 -10  -5   51.05   14.50
   1 -10  -4  301.89   30.77
   1 -10  -4  342.88   32.78
   1 -10  -3  506.16   40.64
   1 -10  -3  442.56   39.74
   1 -10  -2  225.56   27.25
   1 -10  -2  212.56   25.88
   1 -10  -1    4.40   12.11
   1 -10  -1  -14.52   12.93
   1 -10   0  149.51   23.92
   1 -10   0  141.55   21.28
   1 -10   1  187.36   26.06
   1 -10   2   86.74   20.01
   1  -9 -12  280.98   31.15
   1  -9 -11  287.22   30.38
   1  -9 -10   -2.12   10.60
   1  -9  -9   60.02   15.03
   1  -9  -9   55.39   13.35
   1  -9  -8  385.47   33.11
   1  -9  -8  371.61   32.88
   1  -9  -7  453.65   35.89
   1  -9  -7  426.65   35.84
   1  -9  -6  141.59   18.42
   1  -9  -6  134.46   19.18
   1  -9  -6  143.93   19.91
   1  -9  -5   79.61   14.19
   1  -9  -5   67.83   14.62
   1  -9  -5  101.55   16.97
   1  -9  -4  212.92   24.65
   1  -9  -4  236.33   25.44
   1  -9  -3  847.63   56.78
   1  -9  -3  796.03   56.74
   1  -9  -2   70.95   15.64
   1  -9  -2   52.38   14.03
   1  -9  -1    5.97   11.12
   1  -9  -1   -2.17   10.63
   1  -9   0  252.97   27.11
   1  -9   0  257.96   28.39
   1  -9   1  383.06   36.41
   1  -9   1  426.57   35.94
   1  -9   2  237.60   28.48
   1  -9   3   24.71   14.25
   1  -9   4    5.05   14.71
   1  -8 -13   49.83   16.47
   1  -8 -13   46.43   14.15
   1  -8 -12  245.29   28.35
   1  -8 -12  214.64   25.56
   1  -8 -11   71.84   16.59
   1  -8 -11   75.05   15.01
   1  -8 -10    2.03   10.68
   1  -8  -9  159.09   20.96
   1  -8  -8  887.59   57.21
   1  -8  -8  812.34   55.21
   1  -8  -7  455.12   35.60
   1  -8  -7  434.38   34.95
   1  -8  -6  651.86   44.69
   1  -8  -6  673.61   45.58
   1  -8  -6  587.94   44.39
   1  -8  -5  121.83   16.52
   1  -8  -5  141.95   18.29
   1  -8  -5   98.76   16.11
   1  -8  -4  362.09   28.21
   1  -8  -4  307.00   28.90
   1  -8  -4  346.83   29.90
   1  -8  -3  222.85   23.77
   1  -8  -3  235.89   24.35
   1  -8  -2  778.89   51.27
   1  -8  -2  649.68   48.51
   1  -8  -1  171.47   20.67
   1  -8  -1  133.47   20.17
   1  -8   0   78.67   14.70
   1  -8   0   87.28   17.24
   1  -8   1  530.30   41.90
   1  -8   1  502.45   39.33
   1  -8   2  435.63   38.05
   1  -8   3  123.13   19.53
   1  -8   4   13.89   12.58
   1  -7 -13   99.38   19.22
   1  -7 -13   97.40   17.65
   1  -7 -12  242.24   28.00
   1  -7 -12  257.25   27.10
   1  -7 -11  113.25   18.90
   1  -7 -11  126.99   18.46
   1  -7 -10   42.66   13.52
   1  -7 -10   48.24   12.18
   1  -7  -9  103.77   17.42
   1  -7  -9  124.15   16.29
   1  -7  -8  833.72   52.34
   1  -7  -8  756.69   49.75
   1  -7  -8  708.06   48.42
   1  -7  -7  349.03   27.91
   1  -7  -7  314.01   26.21
   1  -7  -7  259.14   23.56
   1  -7  -6  252.76   23.34
   1  -7  -6  241.94   22.52
   1  -7  -6  219.95   22.27
   1  -7  -5  164.52   18.68
   1  -7  -5  206.34   20.70
   1  -7  -5  216.70   21.45
   1  -7  -4  781.70   50.31
   1  -7  -4  798.66   52.24
   1  -7  -4  826.70   52.87
   1  -7  -3 1636.73   90.90
   1  -7  -3 1523.72   92.86
   1  -7  -3 1723.04   94.66
   1  -7  -2  576.68   37.12
   1  -7  -2  582.01   40.89
   1  -7  -2  508.33   39.23
   1  -7  -1  481.93   37.11
   1  -7  -1  480.77   36.06
   1  -7   0   12.48    9.37
   1  -7   0   34.56   12.57
   1  -7   1  529.52   39.86
   1  -7   1  471.40   36.61
   1  -7   2  113.88   17.32
   1  -7   2  169.15   20.63
   1  -7   3  296.18   29.32
   1  -7   4   18.64   10.93
   1  -6 -13   95.85   18.98
   1  -6 -13   55.14   14.99
   1  -6 -12  270.10   29.26
   1  -6 -12  251.51   27.02
   1  -6 -11  189.79   23.17
   1  -6 -11  158.21   20.87
   1  -6 -10   16.79   10.49
   1  -6 -10   32.77   10.90
   1  -6  -9  273.01   25.96
   1  -6  -9  235.46   23.11
   1  -6  -8  551.00   38.92
   1  -6  -8  520.92   36.51
   1  -6  -8  500.01   36.42
   1  -6  -7 1008.71   60.25
   1  -6  -7  981.09   59.19
   1  -6  -7  975.37   61.33
   1  -6  -6  249.86   22.52
   1  -6  -6  218.08   20.99
   1  -6  -6  258.61   22.23
   1  -6  -6  231.48   19.99
   1  -6  -5   15.72    8.84
   1  -6  -5   25.40    8.72
   1  -6  -5   19.07    8.56
   1  -6  -5   27.98    7.19
   1  -6  -4  323.97   25.74
   1  -6  -4  349.76   27.19
   1  -6  -4  336.15   27.02
   1  -6  -4  350.62   23.88
   1  -6  -3 1659.06   91.56
   1  -6  -3 1718.09   94.14
   1  -6  -3 1611.48   93.75
   1  -6  -2 1142.92   65.89
   1  -6  -2 1209.51   70.08
   1  -6  -2 1149.65   68.71
   1  -6  -1  346.06   23.87
   1  -6  -1  292.47   26.52
   1  -6  -1  337.08   26.96
   1  -6   0    9.32    9.49
   1  -6   0   -1.47   10.11
   1  -6   1  977.08   61.66
   1  -6   1  982.50   60.22
   1  -6   2  733.89   51.10
   1  -6   2  800.37   50.15
   1  -6   3  821.11   55.15
   1  -6   4   36.35   12.27
   1  -6   5   51.30   13.90
   1  -5 -13   25.98   13.46
   1  -5 -13   34.00   13.54
   1  -5 -12  255.03   27.70
   1  -5 -12  214.06   24.69
   1  -5 -11  145.08   20.26
   1  -5 -11  163.18   20.20
   1  -5 -10   -3.62    9.35
   1  -5 -10   -4.86    8.38
   1  -5  -9   63.63   13.63
   1  -5  -9   64.00   12.61
   1  -5  -8 1111.82   66.41
   1  -5  -8 1084.76   63.51
   1  -5  -8 1043.90   64.19
   1  -5  -7  614.28   40.70
   1  -5  -7  621.54   39.08
   1  -5  -7  541.55   38.08
   1  -5  -6  566.67   38.94
   1  -5  -6  615.85   38.37
   1  -5  -6  533.09   37.32
   1  -5  -6  613.42   37.70
   1  -5  -5   67.40   11.52
   1  -5  -5   58.18    9.47
   1  -5  -5   65.63   10.94
   1  -5  -5   72.15   11.19
   1  -5  -4  822.95   48.08
   1  -5  -4  798.85   48.50
   1  -5  -4  755.18   47.95
   1  -5  -4  779.73   45.61
   1  -5  -3 1211.62   67.82
   1  -5  -3 1343.45   67.63
   1  -5  -3 1131.23   68.78
   1  -5  -3 1178.64   69.20
   1  -5  -3 1172.63   65.62
   1  -5  -2 2547.09  131.43
   1  -5  -2 2699.70  134.77
   1  -5  -2 2504.48  133.47
   1  -5  -2 2693.63  129.63
   1  -5  -2 2222.13  128.80
   1  -5  -1  752.99   44.56
   1  -5  -1  771.72   48.07
   1  -5  -1  792.94   47.73
   1  -5   0   37.06    6.46
   1  -5   0   49.72   10.65
   1  -5   0   30.59    9.92
   1  -5   1  947.24   53.59
   1  -5   1  925.44   57.55
   1  -5   1  928.25   55.97
   1  -5   2  958.89   56.63
   1  -5   2  840.85   53.64
   1  -5   3  375.46   30.94
   1  -5   3  418.60   29.88
   1  -5   4   14.08   10.88
   1  -5   5  190.14   21.54
   1  -4 -13   70.24   15.82
   1  -4 -12  302.45   32.07
   1  -4 -12  287.09   29.32
   1  -4 -11  284.91   29.37
   1  -4 -11  268.70   26.97
   1  -4 -10   96.50   16.50
   1  -4 -10  117.84   17.11
   1  -4  -9   20.47    9.53
   1  -4  -9    4.31    7.93
   1  -4  -8   78.47   13.92
   1  -4  -8   78.71   12.49
   1  -4  -7 1130.28   68.54
   1  -4  -7 1242.62   66.80
   1  -4  -7 1114.94   67.20
   1  -4  -6  343.35   26.75
   1  -4  -6  373.27   25.37
   1  -4  -6  341.26   24.94
   1  -4  -6  352.43   25.53
   1  -4  -5   27.32    8.12
   1  -4  -5   24.33    7.12
   1  -4  -5   21.65    6.92
   1  -4  -5   24.44    6.81
   1  -4  -4   74.48    9.96
   1  -4  -4   76.58    8.69
   1  -4  -4   69.97    8.72
   1  -4  -4   70.61   10.07
   1  -4  -4   74.91    9.91
   1  -4  -4   61.12    8.51
   1  -4  -3 3436.12  164.12
   1  -4  -3 3622.56  166.05
   1  -4  -3 2883.50  165.26
   1  -4  -3 2953.23  165.52
   1  -4  -3 2931.98  162.82
   1  -4  -3 3129.65  163.90
   1  -4  -3 2947.18  164.50
   1  -4  -3 3570.38  162.85
   1  -4  -2 1971.39  112.36
   1  -4  -2 2318.14  112.88
   1  -4  -2 2373.28  114.54
   1  -4  -2 2406.41  113.38
   1  -4  -2 1915.98  113.70
   1  -4  -2 2056.30  114.54
   1  -4  -2 2068.62  110.92
   1  -4  -2 2034.82  112.55
   1  -4  -2 2262.89  111.24
   1  -4  -1  502.72   28.85
   1  -4  -1  535.80   30.08
   1  -4  -1  511.55   31.83
   1  -4  -1  475.46   30.81
   1  -4  -1  504.55   27.34
   1  -4  -1  516.71   28.28
   1  -4   0   14.63    5.02
   1  -4   0   16.38    4.82
   1  -4   0   18.60    7.29
   1  -4   0   16.86    5.15
   1  -4   0   20.46    4.61
   1  -4   0   16.69    7.80
   1  -4   0   15.35    3.47
   1  -4   1 1204.64   65.62
   1  -4   1 1200.89   63.60
   1  -4   1 1155.00   68.11
   1  -4   1 1185.92   66.87
   1  -4   2 1925.82  101.32
   1  -4   2 1912.37  104.02
   1  -4   2 1834.58  101.64
   1  -4   3  505.35   34.24
   1  -4   3  467.36   31.70
   1  -4   3  464.13   31.40
   1  -4   4   67.44   10.82
   1  -4   4   67.06   12.37
   1  -4   5  227.90   22.12
   1  -3 -13   38.47   13.82
   1  -3 -12  185.18   22.96
   1  -3 -11  186.69   23.67
   1  -3 -11  228.16   23.90
   1  -3 -10  346.60   30.80
   1  -3 -10  326.66   29.24
   1  -3  -9   37.12   11.96
   1  -3  -9   27.29    9.52
   1  -3  -8   49.11   12.45
   1  -3  -8   95.54   13.21
   1  -3  -7 1150.87   64.97
   1  -3  -7 1103.28   61.79
   1  -3  -7 1020.03   63.07
   1  -3  -6 1384.93   73.89
   1  -3  -6 1253.93   73.42
   1  -3  -6 1305.94   74.61
   1  -3  -6 1450.01   76.31
   1  -3  -5  151.56   14.01
   1  -3  -5  150.12   12.76
   1  -3  -5  145.32   12.99
   1  -3  -5  149.45   13.09
   1  -3  -5  102.42    9.75
   1  -3  -4    9.93    5.61
   1  -3  -4   16.58    4.70
   1  -3  -4    9.16    4.93
   1  -3  -4   12.46    5.77
   1  -3  -4   10.74    5.31
   1  -3  -4   10.06    4.86
   1  -3  -4    4.58    4.84
   1  -3  -4    8.26    4.68
   1  -3  -3 1303.84   54.39
   1  -3  -3 1301.35   52.48
   1  -3  -3 1317.10   55.72
   1  -3  -3 1295.48   54.61
   1  -3  -3 1279.07   54.90
   1  -3  -3 1290.76   51.33
   1  -3  -3 1294.88   52.59
   1  -3  -3 1139.14   52.04
   1  -3  -2 1476.22   81.86
   1  -3  -2 1662.39   81.78
   1  -3  -2 1725.15   84.19
   1  -3  -2 1663.06   82.98
   1  -3  -2 1393.33   82.51
   1  -3  -2 1396.12   82.81
   1  -3  -2 1438.73   80.37
   1  -3  -2 1638.49   82.11
   1  -3  -2 1641.29   80.42
   1  -3  -1   24.01    4.51
   1  -3  -1   11.38    5.72
   1  -3  -1   15.71    4.62
   1  -3  -1   18.58    4.14
   1  -3  -1   17.88    6.03
   1  -3  -1    5.35    3.67
   1  -3  -1   12.49    3.11
   1  -3  -1   26.39    5.03
   1  -3   0  380.43   23.73
   1  -3   0  384.58   22.60
   1  -3   0  406.87   23.93
   1  -3   0  423.73   24.17
   1  -3   0  403.51   25.66
   1  -3   0  383.69   24.91
   1  -3   0  392.27   21.71
   1  -3   0  451.36   24.49
   1  -3   0  423.82   23.45
   1  -3   1 2595.69  130.96
   1  -3   1 2590.20  128.47
   1  -3   1 2455.23  132.23
   1  -3   1 2479.86  127.51
   1  -3   1 2362.79  130.89
   1  -3   1 2649.13  130.31
   1  -3   2 2255.47  115.50
   1  -3   2 2323.53  120.42
   1  -3   2 2296.34  118.91
   1  -3   2 2208.72  118.53
   1  -3   3 1247.02   66.45
   1  -3   3 1199.20   67.73
   1  -3   3 1194.34   65.76
   1  -3   3 1130.56   66.42
   1  -3   4   76.58   10.23
   1  -3   4   77.58   10.99
   1  -3   4   55.77   10.71
   1  -3   5    6.11    7.58
   1  -3   5   16.39    9.06
   1  -3   6  879.71   55.63
   1  -3   7  549.38   40.41
   1  -2 -13   -2.16   10.42
   1  -2 -12   95.50   16.94
   1  -2 -11  142.84   19.25
   1  -2 -10  279.59   27.29
   1  -2 -10  291.34   26.61
   1  -2  -9    4.64    8.13
   1  -2  -9   -1.45    8.19
   1  -2  -8   84.95   13.84
   1  -2  -8   75.93   12.76
   1  -2  -7  996.05   58.39
   1  -2  -7  962.43   55.53
   1  -2  -7  951.13   57.31
   1  -2  -6 1473.54   75.84
   1  -2  -6 1351.08   75.60
   1  -2  -6 1424.01   77.14
   1  -2  -6 1414.46   77.82
   1  -2  -6 1320.96   73.46
   1  -2  -5    0.84    5.54
   1  -2  -5   -0.87    2.36
   1  -2  -5    1.99    3.77
   1  -2  -5   -0.69    4.44
   1  -2  -5    1.52    4.93
   1  -2  -4   46.64    4.88
   1  -2  -4   52.91    8.02
   1  -2  -4   45.96    5.76
   1  -2  -4   42.34    7.89
   1  -2  -4   47.02    7.14
   1  -2  -4   45.57    6.55
   1  -2  -4   33.71    7.14
   1  -2  -4   52.39    7.19
   1  -2  -4   58.79    6.60
   1  -2  -4   34.01    5.63
   1  -2  -3 3566.69  173.72
   1  -2  -3 3797.90  178.00
   1  -2  -3 3098.38  176.50
   1  -2  -3 3354.47  173.44
   1  -2  -3 3703.31  175.63
   1  -2  -3 3555.66  175.77
   1  -2  -3 3584.32  174.73
   1  -2  -3 2968.57  173.37
   1  -2  -3 3708.13  175.92
   1  -2  -2 1365.00   70.66
   1  -2  -2 1358.87   69.52
   1  -2  -2 1330.46   71.60
   1  -2  -2 1301.93   70.84
   1  -2  -2 1257.10   71.08
   1  -2  -2 1321.37   69.38
   1  -2  -2 1244.41   69.49
   1  -2  -2 1466.56   68.80
   1  -2  -1 1167.37   61.73
   1  -2  -1 1294.17   62.01
   1  -2  -1 1367.11   63.80
   1  -2  -1 1349.10   63.31
   1  -2  -1 1191.69   62.90
   1  -2  -1 1146.92   63.27
   1  -2  -1 1149.27   60.48
   1  -2  -1 1047.86   61.53
   1  -2  -1 1109.61   60.61
   1  -2   0  380.24   22.37
   1  -2   0  370.06   20.63
   1  -2   0  390.43   22.28
   1  -2   0  393.24   23.26
   1  -2   0  433.58   22.14
   1  -2   0  365.51   22.39
   1  -2   0  421.17   19.77
   1  -2   0  390.91   22.01
   1  -2   0  405.38   21.21
   1  -2   1  717.70   35.85
   1  -2   1  691.31   32.89
   1  -2   1  619.26   35.90
   1  -2   1  673.49   32.31
   1  -2   1  599.34   34.80
   1  -2   2 1352.76   73.38
   1  -2   2 1349.58   69.98
   1  -2   2 1479.58   73.74
   1  -2   2 1449.30   72.94
   1  -2   2 1323.98   73.73
   1  -2   2 1368.57   70.28
   1  -2   2 1312.15   72.23
   1  -2   2 1368.03   72.78
   1  -2   2 1369.42   72.62
   1  -2   3 2601.87  124.10
   1  -2   3 2359.40  123.14
   1  -2   3 2193.15  119.65
   1  -2   3 2264.50  121.22
   1  -2   3 2596.12  123.55
   1  -2   4   58.08    8.52
   1  -2   4   58.01    9.39
   1  -2   4   59.52    9.47
   1  -2   4   49.58    7.18
   1  -2   5   28.76    7.35
   1  -2   5   22.90    8.18
   1  -2   5   18.63    7.61
   1  -2   6  441.60   30.99
   1  -2   6  361.49   28.37
   1  -2   7 1681.99   96.88
   1  -2   8  254.23   25.66
   1  -2   9   74.16   15.23
   1  -2  10   37.71   13.38
   1  -1 -13   13.14   11.16
   1  -1 -12   79.09   16.72
   1  -1 -11  322.69   30.27
   1  -1 -10  497.53   37.82
   1  -1  -9   25.08    9.99
   1  -1  -9   19.05    8.60
   1  -1  -8   20.62    9.23
   1  -1  -8   19.26    7.92
   1  -1  -7  733.14   46.66
   1  -1  -7  733.38   45.77
   1  -1  -6  268.12   19.13
   1  -1  -6  248.10   19.85
   1  -1  -6  260.00   20.94
   1  -1  -6  220.39   16.76
   1  -1  -5  187.70   15.84
   1  -1  -5  183.05   14.21
   1  -1  -5  198.58   12.24
   1  -1  -5  189.73   14.74
   1  -1  -5  202.73   15.88
   1  -1  -5  152.86   11.86
   1  -1  -5  162.18   12.59
   1  -1  -4 1770.14   86.35
   1  -1  -4 1895.41   89.96
   1  -1  -4 1804.07   88.40
   1  -1  -4 1735.70   88.69
   1  -1  -4 1812.69   89.03
   1  -1  -4 1642.20   86.30
   1  -1  -4 1727.41   86.27
   1  -1  -3 3095.72  146.04
   1  -1  -3 3118.02  145.33
   1  -1  -3 2357.86  145.89
   1  -1  -3 3005.21  145.66
   1  -1  -3 3074.84  145.23
   1  -1  -3 2755.23  143.00
   1  -1  -3 2637.53  143.04
   1  -1  -3 2892.61  142.71
   1  -1  -2 1401.60   70.11
   1  -1  -2 1289.65   73.28
   1  -1  -2 1487.50   72.06
   1  -1  -2 1478.49   72.57
   1  -1  -2 1404.88   71.32
   1  -1  -2 1363.90   70.20
   1  -1  -2 1289.89   69.79
   1  -1  -2 1505.50   72.30
   1  -1  -2 1361.95   69.33
   1  -1  -1 6182.97  303.56
   1  -1  -1 6226.28  302.85
   1  -1  -1 5694.31  304.57
   1  -1  -1 6031.06  303.97
   1  -1  -1 5824.02  304.45
   1  -1  -1 6027.27  302.61
   1  -1  -1 6294.63  302.99
   1  -1   0  280.46   16.85
   1  -1   0  312.93   15.05
   1  -1   0  302.64   15.79
   1  -1   0  285.25   16.12
   1  -1   0  291.35   16.87
   1  -1   0  323.40   16.05
   1  -1   0  289.86   15.12
   1  -1   1  183.32   12.20
   1  -1   1  174.17   12.09
   1  -1   1  151.24   11.59
   1  -1   1  150.86   10.79
   1  -1   1  163.25    9.12
   1  -1   1  176.67   10.95
   1  -1   2 1561.70   89.61
   1  -1   2 2112.86   94.24
   1  -1   2 1685.44   92.23
   1  -1   2 2108.04   94.08
   1  -1   2 1874.60   92.83
   1  -1   2 2000.25   90.91
   1  -1   2 1760.95   91.41
   1  -1   2 1782.78   92.61
   1  -1   2 2012.20   92.83
   1  -1   3 4249.28  208.66
   1  -1   3 4232.62  206.92
   1  -1   3 4376.43  208.46
   1  -1   3 3927.59  206.67
   1  -1   3 3974.97  205.18
   1  -1   3 3997.86  203.92
   1  -1   3 3965.09  205.22
   1  -1   3 4345.81  207.26
   1  -1   4  778.58   42.75
   1  -1   4  713.97   39.71
   1  -1   4  709.13   41.55
   1  -1   4  683.79   39.69
   1  -1   4  661.91   38.30
   1  -1   4  643.58   37.77
   1  -1   4  761.10   40.21
   1  -1   5  229.70   19.12
   1  -1   5  219.50   18.32
   1  -1   5  190.79   15.86
   1  -1   6  958.67   59.13
   1  -1   6  978.38   58.15
   1  -1   7  381.71   31.17
   1  -1   7  401.75   30.08
   1  -1   8  648.30   46.30
   1  -1   9   11.84   10.23
   1  -1  10  149.16   21.30
   1  -1  11   91.32   18.57
   1  -1  12  251.94   30.33
   1   0 -12  142.50   20.92
   1   0 -11  181.04   22.62
   1   0 -10  171.94   20.53
   1   0  -9   46.83   12.07
   1   0  -8  276.89   25.22
   1   0  -8  285.40   24.44
   1   0  -7  789.32   51.14
   1   0  -7  882.26   51.39
   1   0  -7  814.31   48.63
   1   0  -6  958.83   57.84
   1   0  -6 1051.18   59.98
   1   0  -6 1007.58   58.82
   1   0  -6 1052.68   57.08
   1   0  -5  352.55   23.71
   1   0  -5  360.17   22.89
   1   0  -5  323.96   23.33
   1   0  -5  295.24   19.16
   1   0  -5  333.14   22.89
   1   0  -5  304.10   19.35
   1   0  -5  343.55   21.20
   1   0  -4   25.25    4.43
   1   0  -4   25.20    6.37
   1   0  -4   21.94    4.11
   1   0  -4   11.64    5.05
   1   0  -4    8.66    5.97
   1   0  -4   17.53    2.85
   1   0  -4   20.28    6.61
   1   0  -4   14.16    5.40
   1   0  -4   14.63    3.82
   1   0  -4   17.74    3.01
   1   0  -3 1043.48   54.16
   1   0  -3 1034.59   57.47
   1   0  -3 1122.03   56.85
   1   0  -3 1042.01   53.70
   1   0  -3 1015.45   58.24
   1   0  -3  992.00   56.99
   1   0  -3 1150.98   57.48
   1   0  -3 1112.78   56.78
   1   0  -3 1027.00   54.31
   1   0  -3 1002.60   53.72
   1   0  -3 1121.03   55.06
   1   0  -2  604.01   31.21
   1   0  -2  462.52   31.58
   1   0  -2  475.79   31.03
   1   0  -2  594.20   31.64
   1   0  -2  553.07   30.79
   1   0  -2  622.27   31.83
   1   0  -2  565.94   29.14
   1   0  -1 1508.65   70.19
   1   0  -1 1489.59   71.13
   1   0  -1 1457.00   70.61
   1   0  -1 1492.17   69.58
   1   0  -1 1306.37   70.26
   1   0   0   21.46    2.54
   1   0   0   29.16    2.32
   1   0   0   18.42    2.66
   1   0   0   23.75    2.65
   1   0   0   19.49    2.84
   1   0   0   20.96    2.06
   1   0   0   19.32    2.12
   1   0   1  782.85   40.62
   1   0   1  752.86   40.58
   1   0   1  797.12   38.87
   1   0   1  792.67   39.63
   1   0   1  712.90   38.69
   1   0   1  749.96   39.75
   1   0   2 3404.99  114.69
   1   0   2 3842.71  119.89
   1   0   2  976.10  114.61
   1   0   2 3882.82  120.18
   1   0   2 3164.99  116.17
   1   0   2 3647.81  116.50
   1   0   2  970.23  114.63
   1   0   3 6340.26  288.83
   1   0   3 6691.30  293.31
   1   0   3 6345.78  291.29
   1   0   3 6826.79  293.47
   1   0   3 5882.36  289.61
   1   0   3 6429.53  290.32
   1   0   3 6073.59  288.24
   1   0   3 6610.31  291.54
   1   0   4 1116.25   54.60
   1   0   4  943.48   53.26
   1   0   4 1107.86   59.31
   1   0   4 1162.87   56.85
   1   0   4 1139.57   59.31
   1   0   4 1026.50   55.21
   1   0   4 1015.57   55.62
   1   0   4 1041.87   53.65
   1   0   4 1059.05   56.54
   1   0   4 1090.62   56.98
   1   0   5  186.84   17.09
   1   0   5  187.25   13.66
   1   0   5  162.26   16.07
   1   0   5  183.05   12.98
   1   0   5  164.84   13.25
   1   0   5  171.17   13.59
   1   0   6  793.61   50.26
   1   0   6  812.59   49.90
   1   0   7  769.71   48.53
   1   0   7  711.80   48.45
   1   0   8  632.07   45.86
   1   0   8  679.53   45.80
   1   0   9    5.80    9.66
   1   0  10   47.48   14.02
   1   0  11  105.18   19.98
   1   0  12  238.78   30.24
   1   1 -12   92.78   18.18
   1   1 -11  215.09   24.20
   1   1 -10  288.12   27.66
   1   1  -9   29.86   10.60
   1   1  -8  117.79   15.42
   1   1  -7  345.02   27.72
   1   1  -7  358.01   27.03
   1   1  -7  338.28   25.28
   1   1  -6 1231.87   74.54
   1   1  -6 1394.92   74.71
   1   1  -6 1320.32   72.90
   1   1  -5  486.15   29.44
   1   1  -5  418.73   29.02
   1   1  -5  379.67   24.72
   1   1  -5  453.96   28.63
   1   1  -5  417.01   25.18
   1   1  -5  444.57   27.31
   1   1  -4  260.08   17.36
   1   1  -4  179.60   12.54
   1   1  -4  159.44   14.52
   1   1  -4  190.40   15.99
   1   1  -4  242.91   16.19
   1   1  -4  131.42   15.12
   1   1  -4  202.09   12.97
   1   1  -4  209.42   14.58
   1   1  -3  509.92   28.12
   1   1  -3  520.41   28.43
   1   1  -3  428.35   24.34
   1   1  -3  408.71   27.56
   1   1  -3  334.24   25.34
   1   1  -3  491.34   27.23
   1   1  -3  453.48   26.99
   1   1  -3  441.69   24.51
   1   1  -3  488.17   26.28
   1   1  -2 1304.32   60.90
   1   1  -2  906.86   59.37
   1   1  -2 1139.91   57.25
   1   1  -2  986.04   59.67
   1   1  -2  847.54   57.89
   1   1  -2 1300.68   59.93
   1   1  -2 1294.84   60.43
   1   1  -2 1174.77   57.40
   1   1  -2 1286.39   58.89
   1   1  -1 3929.51   94.79
   1   1  -1 3271.95   89.33
   1   1  -1 3240.37   92.65
   1   1  -1 3747.09   92.85
   1   1  -1 3498.57   89.67
   1   1  -1 3668.64   91.34
   1   1   0 2582.79  127.23
   1   1   0 2440.34  126.04
   1   1   0 2535.17  126.04
   1   1   0 2551.45  126.86
   1   1   0 2570.27  126.18
   1   1   0 2400.37  126.71
   1   1   1  487.03   26.11
   1   1   1  471.87   25.26
   1   1   1  462.86   25.12
   1   1   1  502.68   26.71
   1   1   1  490.44   25.82
   1   1   1  444.94   24.87
   1   1   1  473.46   25.44
   1   1   1  485.21   26.23
   1   1   2  224.50   15.37
   1   1   2  220.28   13.53
   1   1   2  232.96   15.00
   1   1   2  272.91   15.85
   1   1   2  239.56   14.27
   1   1   2  254.48   15.97
   1   1   3 1660.68   83.60
   1   1   3 1499.35   80.82
   1   1   3 1744.92   84.03
   1   1   3 1675.67   84.13
   1   1   3 1586.67   81.75
   1   1   3 1645.41   83.88
   1   1   3 1457.95   81.83
   1   1   4  386.22   22.59
   1   1   4  448.70   26.86
   1   1   4  418.50   26.23
   1   1   4  383.28   20.34
   1   1   4  372.71   20.99
   1   1   4  418.93   23.77
   1   1   4  422.03   24.28
   1   1   5  589.10   34.63
   1   1   5  630.24   36.52
   1   1   5  704.11   41.67
   1   1   5  763.27   42.27
   1   1   5  663.02   35.29
   1   1   5  733.17   38.24
   1   1   5  768.48   38.93
   1   1   6 1313.41   77.49
   1   1   6 1403.16   77.86
   1   1   7 1684.85   98.91
   1   1   7 1816.34   99.34
   1   1   8  822.72   54.43
   1   1   8  823.12   53.94
   1   1   9  315.72   29.58
   1   1   9  287.87   28.12
   1   1  10   70.27   15.39
   1   1  10   81.23   16.45
   1   1  11   82.69   17.90
   1   1  12  179.42   25.78
   1   1  13   93.73   21.02
   1   2 -11  393.48   35.27
   1   2 -10  132.27   19.18
   1   2  -9   88.93   14.92
   1   2  -8    3.96    7.28
   1   2  -8   13.14    8.40
   1   2  -7  954.50   56.09
   1   2  -7  853.92   54.21
   1   2  -6  368.59   26.60
   1   2  -6  321.41   24.92
   1   2  -5 1629.73   87.03
   1   2  -5 1541.08   85.98
   1   2  -4  594.67   34.53
   1   2  -4  616.66   36.98
   1   2  -4  596.53   34.75
   1   2  -4  626.38   36.69
   1   2  -3  187.49   12.79
   1   2  -3  184.28   14.97
   1   2  -3  171.72   12.73
   1   2  -3  177.27   14.45
   1   2  -3  191.10   14.64
   1   2  -3  198.87   13.16
   1   2  -3  171.50   13.97
   1   2  -2  515.12   30.52
   1   2  -2  567.43   32.22
   1   2  -2  521.38   29.78
   1   2  -2  602.00   32.59
   1   2  -2  591.19   33.11
   1   2  -2  529.84   30.76
   1   2  -2  623.40   32.36
   1   2  -1 2344.87   45.84
   1   2  -1 2172.14   40.44
   1   2  -1 2158.03   43.57
   1   2  -1 2308.44   41.49
   1   2  -1 2227.89   43.08
   1   2   0  639.54   36.92
   1   2   0  659.36   37.77
   1   2   0  717.65   37.45
   1   2   0  734.53   38.16
   1   2   1  201.25   13.94
   1   2   1  180.69   14.04
   1   2   1  213.43   12.52
   1   2   1  190.94   12.78
   1   2   1  210.69   14.24
   1   2   1  225.66   13.32
   1   2   1  236.04   15.37
   1   2   2 1850.29   94.44
   1   2   2 1769.12   92.86
   1   2   2 1780.02   92.36
   1   2   2 1832.04   93.63
   1   2   2 1780.09   91.53
   1   2   2 1973.96   95.60
   1   2   2 1931.55   94.88
   1   2   2 1778.04   92.14
   1   2   3 2811.14  133.54
   1   2   3 2402.31  130.63
   1   2   3 2672.15  132.11
   1   2   3 2733.02  133.26
   1   2   3 2437.46  131.23
   1   2   3 2445.98  129.45
   1   2   3 3037.91  134.35
   1   2   4   13.09    4.25
   1   2   4   22.91    6.73
   1   2   4   17.49    6.80
   1   2   4   11.29    2.69
   1   2   4   19.85    6.29
   1   2   4   19.16    6.56
   1   2   4   17.56    4.03
   1   2   5  100.61    9.01
   1   2   5   95.93   11.46
   1   2   5   94.63   12.50
   1   2   5   93.35    5.78
   1   2   5   86.64    6.73
   1   2   5   94.19    5.84
   1   2   5   71.87   11.04
   1   2   5  112.37   12.58
   1   2   5   93.60    9.26
   1   2   5   79.71    8.95
   1   2   6 1391.37   75.52
   1   2   6 1464.76   80.84
   1   2   6 1435.49   80.99
   1   2   7  598.19   41.78
   1   2   7  631.41   42.29
   1   2   8  576.15   41.15
   1   2   8  544.82   40.43
   1   2   9  134.26   18.33
   1   2   9  112.95   17.76
   1   2  10   86.09   16.28
   1   2  10   47.94   14.69
   1   2  11  235.05   27.27
   1   2  11  257.03   29.88
   1   2  12  507.13   44.92
   1   2  13  200.04   28.66
   1   3  -9   24.56   10.81
   1   3  -8   -2.98    7.84
   1   3  -8    1.58    8.57
   1   3  -7  295.11   25.82
   1   3  -7  297.87   25.29
   1   3  -6 1229.49   71.71
   1   3  -6 1234.54   71.44
   1   3  -5  905.92   55.23
   1   3  -5  952.22   55.38
   1   3  -4  417.93   27.50
   1   3  -4  450.82   29.71
   1   3  -4  428.20   27.85
   1   3  -4  468.63   29.76
   1   3  -3   19.04    6.35
   1   3  -3   18.19    5.46
   1   3  -3   28.22    6.55
   1   3  -3   19.94    6.16
   1   3  -3   20.53    5.55
   1   3  -2 1552.63   73.29
   1   3  -2 1444.13   71.04
   1   3  -2 1259.98   67.74
   1   3  -2 1294.69   71.57
   1   3  -2 1478.78   73.04
   1   3  -2 1431.86   71.27
   1   3  -2 1371.81   71.85
   1   3  -1 2385.69   51.98
   1   3  -1 2045.06   47.13
   1   3  -1 1918.57   41.97
   1   3  -1 2362.84   54.04
   1   3  -1 2503.16   53.32
   1   3  -1 2222.07   42.54
   1   3  -1 2237.63   52.99
   1   3  -1 2570.53   56.18
   1   3   0   80.95    3.81
   1   3   0   78.41    3.91
   1   3   0   75.18    8.67
   1   3   0   75.83    8.16
   1   3   0  101.00    8.20
   1   3   0   97.73    8.93
   1   3   1   96.46    7.05
   1   3   1   77.79    8.69
   1   3   1   76.17    7.49
   1   3   1   80.43    9.13
   1   3   1   74.52    7.57
   1   3   1   65.58    9.05
   1   3   1   80.68   10.06
   1   3   2 2333.53  114.30
   1   3   2 2267.53  110.36
   1   3   2 2315.40  112.76
   1   3   2 2129.02  111.45
   1   3   2 2348.27  114.55
   1   3   2 2264.04  112.17
   1   3   2 2452.69  116.21
   1   3   3  833.43   44.78
   1   3   3  704.06   41.82
   1   3   3  735.45   41.81
   1   3   3  870.21   44.32
   1   3   3  694.45   40.30
   1   3   3  854.61   45.66
   1   3   3  751.54   41.38
   1   3   3  899.63   45.59
   1   3   4  326.50   21.62
   1   3   4  284.35   18.43
   1   3   4  277.21   19.53
   1   3   4  332.77   21.76
   1   3   4  254.19   15.88
   1   3   4  258.97   17.15
   1   3   4  336.49   22.08
   1   3   4  322.80   21.92
   1   3   5   81.85    8.63
   1   3   5   85.72   11.13
   1   3   5   76.31   11.43
   1   3   5   70.95    5.48
   1   3   5   72.66    7.04
   1   3   5   77.10   10.42
   1   3   5   90.46   11.42
   1   3   6  733.98   43.83
   1   3   6  629.42   43.40
   1   3   6  686.30   44.87
   1   3   6  737.32   44.52
   1   3   7  902.78   54.46
   1   3   7  832.39   55.24
   1   3   7  895.13   56.71
   1   3   7  954.98   55.64
   1   3   8  871.66   58.27
   1   3   8  955.78   59.88
   1   3   9  636.04   45.86
   1   3   9  625.69   46.04
   1   3  10   12.64   11.27
   1   3  10   14.35   11.31
   1   3  11   71.75   15.65
   1   3  11   61.65   16.19
   1   3  12  397.72   36.90
   1   3  12  320.71   34.65
   1   3  13  143.93   24.02
   1   4  -8   -1.67    8.50
   1   4  -7  147.98   18.21
   1   4  -7  147.80   18.12
   1   4  -6  297.96   26.02
   1   4  -6  314.66   26.21
   1   4  -5  860.76   54.33
   1   4  -5  917.76   54.77
   1   4  -4    6.64    7.01
   1   4  -4    1.79    6.16
   1   4  -4   10.79    6.84
   1   4  -4    0.95    5.95
   1   4  -3  188.19   15.72
   1   4  -3  188.62   17.00
   1   4  -3  170.68   15.59
   1   4  -3  178.53   16.97
   1   4  -2 2509.18  133.79
   1   4  -2 2416.22  134.50
   1   4  -2 2591.39  134.54
   1   4  -2 2781.87  135.70
   1   4  -1 2599.67  130.37
   1   4  -1 2289.12  125.48
   1   4  -1 2961.83  132.34
   1   4  -1 2750.62  131.71
   1   4  -1 2537.47  130.67
   1   4   0  579.70   32.52
   1   4   0  456.89   27.31
   1   4   0  506.28   28.26
   1   4   0  609.50   33.53
   1   4   0  620.66   33.36
   1   4   0  517.55   31.77
   1   4   0  608.78   33.55
   1   4   1  390.00   26.68
   1   4   1  388.75   25.34
   1   4   1  375.99   24.05
   1   4   1  482.71   28.14
   1   4   1  434.90   26.11
   1   4   1  426.01   27.51
   1   4   1  481.78   28.62
   1   4   2  845.44   47.78
   1   4   2  829.93   45.67
   1   4   2  749.79   42.36
   1   4   2  805.35   45.55
   1   4   2  864.49   45.66
   1   4   2  884.52   48.47
   1   4   2  878.78   46.10
   1   4   2  900.39   49.44
   1   4   3 2019.94   96.76
   1   4   3 1627.66   91.46
   1   4   3 1956.84   95.10
   1   4   3 2124.80   98.29
   1   4   3 1696.96   92.09
   1   4   3 1631.28   93.34
   1   4   3 1841.25   96.27
   1   4   3 1751.13   93.00
   1   4   4  712.87   41.48
   1   4   4  604.09   37.89
   1   4   4  633.12   37.88
   1   4   4  743.91   41.25
   1   4   4  808.85   42.90
   1   4   4  578.30   35.80
   1   4   4  685.45   38.46
   1   4   4  620.90   37.08
   1   4   4  770.17   42.35
   1   4   5  679.84   40.73
   1   4   5  574.74   37.76
   1   4   5  619.28   40.16
   1   4   5  550.04   35.06
   1   4   5  721.71   41.45
   1   4   5  729.64   41.30
   1   4   6    4.59    7.51
   1   4   6    5.14    8.50
   1   4   6    9.70    7.62
   1   4   6    2.45    7.49
   1   4   7  941.82   58.32
   1   4   7  852.62   57.62
   1   4   7  956.31   60.16
   1   4   8  719.35   46.68
   1   4   8  635.99   46.48
   1   4   8  653.24   48.28
   1   4   9  369.01   32.57
   1   4   9  416.09   34.81
   1   4  10   12.95   12.90
   1   4  10   10.06   10.24
   1   4  11  190.28   24.23
   1   4  11  147.08   21.90
   1   4  12  384.76   36.73
   1   4  12  321.56   34.94
   1   4  13  135.66   22.26
   1   4  13   69.27   19.77
   1   4  14   22.83   15.75
   1   5  -8   16.79   10.60
   1   5  -7  132.50   17.90
   1   5  -6  378.99   31.11
   1   5  -5  475.75   36.29
   1   5  -5  567.98   38.28
   1   5  -4   14.46    8.70
   1   5  -4    6.60    6.82
   1   5  -4    3.79    7.45
   1   5  -4    3.50    6.98
   1   5  -3   93.52   13.69
   1   5  -3  111.75   13.51
   1   5  -3  105.92   13.92
   1   5  -3   99.90   13.20
   1   5  -2 1037.48   61.55
   1   5  -2 1058.44   62.32
   1   5  -2 1081.55   62.43
   1   5  -2 1124.19   63.31
   1   5  -1 1800.65  101.54
   1   5  -1 2001.70  102.97
   1   5  -1 1810.26  102.19
   1   5  -1 1964.17  103.24
   1   5   0  331.15   24.14
   1   5   0  339.56   24.72
   1   5   0  300.37   24.09
   1   5   0  363.89   25.51
   1   5   1  143.09   11.61
   1   5   1  152.36   14.87
   1   5   1  134.44   14.49
   1   5   1  138.81   14.99
   1   5   1  159.71   15.99
   1   5   2 1037.31   54.74
   1   5   2 1045.79   55.07
   1   5   2 1055.06   57.68
   1   5   2 1187.21   59.12
   1   5   2 1194.11   60.01
   1   5   3  894.61   53.64
   1   5   3 1107.81   58.15
   1   5   3 1104.02   60.35
   1   5   3  973.47   55.97
   1   5   3 1129.09   61.09
   1   5   3 1241.47   62.87
   1   5   4 4707.76  223.09
   1   5   4 3897.59  217.03
   1   5   4 4478.45  221.32
   1   5   4 3904.26  216.82
   1   5   4 4034.69  217.90
   1   5   4 4906.94  223.84
   1   5   4 5491.99  226.04
   1   5   5  798.45   46.38
   1   5   5  626.37   41.53
   1   5   5  718.26   45.00
   1   5   5  897.85   47.77
   1   5   5  619.49   40.28
   1   5   5  788.34   46.64
   1   5   6   67.12   12.59
   1   5   6   77.56   13.22
   1   5   6   74.19   11.59
   1   5   6   62.64   12.91
   1   5   6   58.16   12.30
   1   5   7   94.16   14.64
   1   5   7  107.05   16.23
   1   5   7   85.76   14.13
   1   5   7   85.48   15.86
   1   5   8 1474.59   85.33
   1   5   8 1296.81   84.17
   1   5   8 1547.07   88.31
   1   5   8 1570.43   87.00
   1   5   9   57.97   13.15
   1   5   9   45.64   14.86
   1   5   9   39.55   12.42
   1   5   9   63.82   13.51
   1   5  10   50.84   15.78
   1   5  10   41.07   13.25
   1   5  11  189.75   25.16
   1   5  11  159.83   23.23
   1   5  12  270.00   31.31
   1   5  12  237.26   28.75
   1   5  13   99.33   21.08
   1   5  13   86.05   18.98
   1   5  14   42.09   17.52
   1   5  14    5.59   12.96
   1   6  -8   22.89   12.17
   1   6  -7  141.14   20.38
   1   6  -6  397.50   33.90
   1   6  -5  585.36   42.48
   1   6  -4  128.38   17.22
   1   6  -3   17.25    9.67
   1   6  -3   31.38    9.33
   1   6  -3   24.10    9.19
   1   6  -3   22.65    8.61
   1   6  -2  208.38   19.81
   1   6  -2  195.00   19.79
   1   6  -2  212.38   21.00
   1   6  -2  258.65   22.22
   1   6  -1 1334.70   80.78
   1   6  -1 1461.16   81.76
   1   6  -1 1461.80   82.15
   1   6  -1 1501.15   82.92
   1   6   0  636.86   43.08
   1   6   0  661.95   43.15
   1   6   0  715.55   44.85
   1   6   0  727.47   45.00
   1   6   1  411.09   28.58
   1   6   1  380.64   27.82
   1   6   1  329.29   27.62
   1   6   1  385.33   28.94
   1   6   2  174.42   14.89
   1   6   2  167.55   17.35
   1   6   2  175.35   18.45
   1   6   2  179.34   19.13
   1   6   3 1177.01   69.83
   1   6   3 1173.93   67.36
   1   6   3 1349.42   72.46
   1   6   3 1128.67   69.94
   1   6   4 1451.28   83.63
   1   6   4 1567.21   87.29
   1   6   4 1522.70   85.91
   1   6   4 1489.90   86.14
   1   6   5  759.96   47.83
   1   6   5  781.31   47.16
   1   6   5  770.91   48.76
   1   6   5  894.35   50.27
   1   6   6   17.47    9.12
   1   6   6    1.44    8.93
   1   6   6   -1.99    7.35
   1   6   6    1.52    9.33
   1   6   6    5.89    9.73
   1   6   7  754.45   48.95
   1   6   7  671.95   45.11
   1   6   7  698.81   48.91
   1   6   7  717.57   48.13
   1   6   7  766.76   49.65
   1   6   8  757.64   49.42
   1   6   8  676.51   47.03
   1   6   8  689.20   49.75
   1   6   8  731.91   49.92
   1   6   9  506.07   37.53
   1   6   9  404.40   34.76
   1   6   9  432.48   37.92
   1   6   9  520.42   38.18
   1   6  10   31.63   13.72
   1   6  10   22.76   10.82
   1   6  11   44.68   15.73
   1   6  11   51.06   14.54
   1   6  12  169.84   25.95
   1   6  12  198.08   25.11
   1   6  13  121.85   23.01
   1   6  13  162.71   23.71
   1   6  14   12.29   14.83
   1   6  14   30.04   15.51
   1   7  -7  106.06   18.80
   1   7  -6  108.08   17.83
   1   7  -5  364.73   32.97
   1   7  -4   80.88   15.79
   1   7  -3   39.02   12.14
   1   7  -3   35.68   10.95
   1   7  -3   42.69   11.04
   1   7  -2  197.05   20.30
   1   7  -2  213.54   22.15
   1   7  -2  170.24   20.66
   1   7  -1 1582.87   85.33
   1   7  -1 1401.76   85.19
   1   7  -1 1561.37   86.75
   1   7  -1 1347.89   83.79
   1   7   0 1228.75   72.64
   1   7   0 1196.77   71.63
   1   7   0 1286.28   74.05
   1   7   0 1177.48   72.99
   1   7   1  332.78   29.70
   1   7   1  421.02   30.30
   1   7   1  361.56   30.10
   1   7   1  387.96   29.57
   1   7   2   15.15    9.40
   1   7   2   30.49   11.44
   1   7   2   -1.47   10.69
   1   7   3  565.66   41.54
   1   7   3  624.90   43.39
   1   7   3  685.29   44.70
   1   7   4  981.44   63.50
   1   7   4  979.88   60.87
   1   7   4 1191.91   66.99
   1   7   4 1038.40   64.66
   1   7   5  271.12   27.08
   1   7   5  348.92   27.17
   1   7   5  355.10   29.81
   1   7   5  317.41   28.12
   1   7   6   85.34   15.96
   1   7   6   62.25   13.86
   1   7   6   82.26   14.75
   1   7   6   61.23   14.63
   1   7   7  135.35   19.38
   1   7   7  157.92   20.01
   1   7   7  134.82   21.23
   1   7   7  197.56   21.64
   1   7   8 1162.61   71.40
   1   7   8 1004.94   69.83
   1   7   8 1211.65   72.47
   1   7   9  196.18   22.91
   1   7   9  171.86   23.20
   1   7   9  173.06   22.67
   1   7  10   30.06   12.97
   1   7  10   20.18   10.74
   1   7  11   35.39   14.27
   1   7  11   46.98   13.52
   1   7  12  307.35   33.59
   1   7  12  232.88   27.74
   1   7  13  282.93   33.76
   1   7  13  281.18   31.16
   1   7  14   81.24   19.40
   1   7  14   97.39   19.75
   1   8  -6   77.82   17.72
   1   8  -5  288.36   30.27
   1   8  -4  199.03   24.32
   1   8  -3   30.84   11.39
   1   8  -3   18.31   10.86
   1   8  -3   25.36   12.56
   1   8  -2  168.45   20.13
   1   8  -2  184.80   22.50
   1   8  -2  175.22   22.50
   1   8  -1  498.09   36.53
   1   8  -1  448.16   36.02
   1   8   0  448.33   35.62
   1   8   0  458.53   36.40
   1   8   0  473.48   36.99
   1   8   1  500.08   36.83
   1   8   1  502.99   39.02
   1   8   1  448.99   36.91
   1   8   2  756.43   51.82
   1   8   2  851.80   54.71
   1   8   2  765.65   52.91
   1   8   3  242.64   24.76
   1   8   3  229.15   24.47
   1   8   3  248.70   25.45
   1   8   4 1565.71   94.26
   1   8   4 1541.79   95.12
   1   8   4 1764.59   97.69
   1   8   5  924.46   57.71
   1   8   5  797.39   59.00
   1   8   5  994.77   61.98
   1   8   5 1011.05   62.67
   1   8   6   20.12   11.61
   1   8   6   11.25    9.39
   1   8   6   24.62   12.55
   1   8   6   15.10   11.16
   1   8   7    1.90   10.59
   1   8   7   12.48   10.79
   1   8   7    3.95   11.03
   1   8   7    3.76   11.10
   1   8   8  590.16   45.60
   1   8   8  603.25   45.66
   1   8   8  632.43   46.99
   1   8   9  252.16   26.86
   1   8   9  212.25   26.44
   1   8   9  251.71   28.12
   1   8  10   75.63   16.82
   1   8  11   33.48   14.69
   1   8  12  222.83   29.12
   1   8  13  220.59   29.80
   1   9  -5  107.09   20.21
   1   9  -4   97.47   19.58
   1   9  -3   15.68   11.61
   1   9  -2  140.49   20.11
   1   9  -2  200.10   23.79
   1   9  -2  211.54   25.08
   1   9  -1  387.05   34.19
   1   9  -1  438.58   36.69
   1   9  -1  401.11   36.08
   1   9   0  509.88   39.36
   1   9   0  495.45   39.24
   1   9   1   60.36   14.19
   1   9   1   45.09   13.50
   1   9   1   62.64   16.20
   1   9   2   28.60   12.42
   1   9   2   29.31   11.80
   1   9   2   21.49   11.60
   1   9   3  754.59   52.98
   1   9   3  779.68   53.97
   1   9   3  759.33   54.47
   1   9   4  567.49   46.02
   1   9   4  674.13   48.50
   1   9   4  706.05   49.48
   1   9   5  381.78   35.04
   1   9   5  418.28   36.01
   1   9   5  453.59   37.67
   1   9   6   28.37   12.26
   1   9   6   37.87   14.04
   1   9   6   61.04   16.14
   1   9   7  173.73   23.42
   1   9   7  200.85   22.67
   1   9   7  206.53   24.87
   1   9   8  686.89   51.32
   1   9   8  708.83   50.37
   1   9   8  653.61   51.21
   1   9   9  736.17   53.07
   1   9   9  631.45   50.62
   1   9   9  723.84   53.78
   1   9  10  481.84   42.19
   1   9  11   20.92   13.34
   1   9  12    8.45   13.03
   1   9  13  126.29   24.24
   1  10  -3   12.65   13.53
   1  10  -2   76.27   16.56
   1  10  -2   98.57   19.10
   1  10  -2   84.89   18.81
   1  10  -1  199.23   24.96
   1  10  -1  207.87   25.92
   1  10  -1  179.79   25.35
   1  10   0  326.34   32.21
   1  10   0  329.09   33.52
   1  10   0  374.40   34.87
   1  10   1   30.97   12.30
   1  10   1   48.55   14.84
   1  10   1   29.90   13.50
   1  10   2   43.93   14.82
   1  10   2   78.24   16.19
   1  10   2   61.92   16.19
   1  10   3  281.11   30.95
   1  10   3  321.06   32.81
   1  10   3  282.05   29.73
   1  10   4  740.91   56.34
   1  10   4  813.88   57.98
   1  10   4  852.48   59.82
   1  10   5  443.77   39.37
   1  10   5  464.67   40.63
   1  10   5  500.64   42.71
   1  10   6  122.73   20.55
   1  10   6  115.83   20.16
   1  10   7   29.79   14.12
   1  10   7   35.65   13.93
   1  10   8  309.59   33.58
   1  10   8  399.38   36.90
   1  10   9  460.45   41.20
   1  10   9  471.07   40.48
   1  10   9  463.50   41.97
   1  10  10  342.29   34.66
   1  10  11   -2.65   12.74
   1  10  12  110.67   22.29
   1  10  13  223.68   30.62
   1  11  -2   19.06   14.35
   1  11  -1  124.63   20.53
   1  11  -1   94.23   20.39
   1  11  -1  125.74   23.01
   1  11   0   87.33   18.46
   1  11   0   98.40   19.70
   1  11   0   60.31   17.44
   1  11   1   68.70   18.02
   1  11   1   92.88   19.44
   1  11   1  128.58   22.46
   1  11   2    4.57   11.63
   1  11   2    7.30   11.95
   1  11   2    7.71   12.61
   1  11   3  157.00   22.64
   1  11   3  137.11   22.14
   1  11   3  119.83   22.20
   1  11   4  520.87   44.27
   1  11   4  494.70   43.84
   1  11   4  481.90   43.80
   1  11   5  249.60   30.14
   1  11   5  307.84   33.31
   1  11   5  320.95   33.49
   1  11   6  246.13   29.59
   1  11   6  266.05   30.08
   1  11   7   52.17   15.71
   1  11   7   82.39   19.40
   1  11   8  306.54   32.96
   1  11   8  295.57   33.51
   1  11   9  471.77   42.32
   1  11   9  443.45   42.29
   1  11  11   13.31   13.07
   1  11  12   25.59   15.48
   1  12   0  239.00   29.68
   1  12   0  218.56   29.66
   1  12   0  300.86   33.65
   1  12   1  109.70   20.32
   1  12   1  135.55   22.70
   1  12   1   93.27   20.72
   1  12   2   69.47   18.57
   1  12   2   67.94   17.53
   1  12   2   90.20   20.43
   1  12   3   24.19   15.86
   1  12   3    2.54   13.38
   1  12   3   13.97   13.97
   1  12   4  175.95   26.21
   1  12   4  216.42   28.85
   1  12   4  250.27   30.58
   1  12   5  174.38   25.69
   1  12   5  187.34   27.03
   1  12   6   52.67   16.89
   1  12   6   54.81   16.98
   1  12   7   21.40   15.17
   1  12   7   11.10   12.86
   1  12   8  316.61   34.97
   1  12   8  349.07   37.32
   1  12   9  285.02   33.65
   1  12   9  328.21   35.79
   1  13   4  275.62   33.87
   1  13   5  108.89   21.44
   1  13   5  107.78   22.48
   1  13   6  137.55   24.22
   1  13   6  114.11   22.79
   1  13   7   -5.69   14.47
   1  13   7  -11.81   14.22
   1  13   8  108.97   22.15
   1  13   8  107.48   21.95
   1  13   9  195.81   28.29
   1  13   9  171.83   28.50
   2 -11  -8   18.76   12.16
   2 -11  -7  150.76   21.82
   2 -11  -6  391.98   37.51
   2 -11  -6  434.43   39.55
   2 -11  -5  419.31   38.55
   2 -11  -5  331.08   34.32
   2 -11  -4  240.87   29.37
   2 -11  -4  224.21   27.40
   2 -11  -3    5.39   13.72
   2 -11  -3   -4.78   11.94
   2 -11  -2   16.50   13.03
   2 -11  -2   31.05   13.39
   2 -11  -1  174.01   23.79
   2 -10 -10  363.39   35.10
   2 -10  -9  215.90   24.97
   2 -10  -9  173.58   23.34
   2 -10  -8   42.58   13.49
   2 -10  -8   58.83   14.61
   2 -10  -7   28.51   12.16
   2 -10  -6  139.90   21.89
   2 -10  -6  211.71   24.43
   2 -10  -5  226.52   27.01
   2 -10  -5  200.77   25.31
   2 -10  -4  109.53   19.64
   2 -10  -4   99.93   18.05
   2 -10  -3    7.45   11.96
   2 -10  -3   -2.22   11.12
   2 -10  -2  258.79   29.78
   2 -10  -2  231.87   27.61
   2 -10  -1  420.77   37.59
   2 -10  -1  414.00   39.75
   2 -10   0  467.09   42.37
   2 -10   1  174.24   25.64
   2  -9 -11   76.46   17.88
   2  -9 -10  178.13   23.75
   2  -9  -9  228.64   26.57
   2  -9  -9  254.93   26.53
   2  -9  -8   19.44   11.35
   2  -9  -8   16.12    9.93
   2  -9  -7    1.82    8.91
   2  -9  -7   -6.05    8.73
   2  -9  -6  428.47   35.91
   2  -9  -6  380.18   35.74
   2  -9  -5  359.44   32.47
   2  -9  -5  278.14   28.87
   2  -9  -4  251.60   27.45
   2  -9  -4  242.81   26.19
   2  -9  -3   47.26   13.57
   2  -9  -3   30.38   12.83
   2  -9  -2  208.60   25.43
   2  -9  -2  176.63   23.03
   2  -9  -1  432.72   37.45
   2  -9  -1  445.36   39.05
   2  -9   0  481.89   38.87
   2  -9   0  424.06   39.35
   2  -9   1   46.53   14.99
   2  -9   2   32.59   13.28
   2  -9   3  286.13   32.05
   2  -8 -12    9.92   11.25
   2  -8 -11   30.06   13.54
   2  -8 -10  201.10   25.07
   2  -8  -9  260.34   26.56
   2  -8  -9  197.55   23.15
   2  -8  -8   74.53   15.06
   2  -8  -8   56.92   13.25
   2  -8  -7   -5.16    8.44
   2  -8  -7    3.66    8.29
   2  -8  -6  213.94   22.50
   2  -8  -6  227.88   24.52
   2  -8  -6  198.64   22.79
   2  -8  -5  711.36   45.85
   2  -8  -5  627.87   46.96
   2  -8  -5  639.42   47.99
   2  -8  -4  303.98   29.46
   2  -8  -4  355.83   32.07
   2  -8  -3   32.14   12.45
   2  -8  -3   47.26   12.99
   2  -8  -2  229.14   25.54
   2  -8  -2  188.27   22.69
   2  -8  -1  681.04   46.40
   2  -8  -1  567.57   46.30
   2  -8   0  718.01   51.61
   2  -8   0  783.10   54.77
   2  -8   1  140.84   19.37
   2  -8   1  136.25   20.22
   2  -8   2    4.53   11.31
   2  -8   3  217.65   26.54
   2  -8   4  203.51   26.19
   2  -7 -12   31.58   12.87
   2  -7 -11   25.05   12.60
   2  -7 -10  178.23   22.91
   2  -7  -9  201.79   23.70
   2  -7  -9  222.38   22.96
   2  -7  -8  191.85   22.02
   2  -7  -8  176.74   20.55
   2  -7  -7   30.86   11.51
   2  -7  -7   41.10   11.44
   2  -7  -6  310.49   26.54
   2  -7  -6  303.76   27.27
   2  -7  -6  294.36   27.82
   2  -7  -5 1202.90   73.39
   2  -7  -5 1259.34   75.51
   2  -7  -5 1296.59   77.16
   2  -7  -4  678.21   44.81
   2  -7  -4  685.87   47.33
   2  -7  -4  712.10   48.89
   2  -7  -3   93.81   16.19
   2  -7  -3  119.13   17.12
   2  -7  -2   88.17   15.27
   2  -7  -2   53.25   12.35
   2  -7  -1  935.88   58.11
   2  -7  -1  838.30   58.57
   2  -7   0  613.47   44.73
   2  -7   0  680.58   47.34
   2  -7   1  202.95   21.90
   2  -7   1  254.45   25.83
   2  -7   2   50.10   14.00
   2  -7   3  173.93   22.75
   2  -7   4  182.91   23.88
   2  -6 -13  116.70   19.04
   2  -6 -12   12.08   12.09
   2  -6 -12   15.77   11.34
   2  -6 -11    4.43   11.08
   2  -6 -11    3.61   10.24
   2  -6 -10  144.20   20.16
   2  -6 -10  113.18   16.98
   2  -6  -9  629.24   45.82
   2  -6  -9  604.54   42.44
   2  -6  -8   96.40   15.32
   2  -6  -8   98.36   15.14
   2  -6  -8   95.79   13.74
   2  -6  -7    6.14    7.81
   2  -6  -7    5.89    7.63
   2  -6  -6  254.54   23.68
   2  -6  -6  270.47   24.07
   2  -6  -6  258.69   24.47
   2  -6  -5 1125.01   68.64
   2  -6  -5 1244.19   70.74
   2  -6  -5 1137.76   70.79
   2  -6  -4  635.05   41.62
   2  -6  -4  643.22   43.42
   2  -6  -4  660.16   44.96
   2  -6  -3  161.61   15.69
   2  -6  -3  168.53   19.03
   2  -6  -3  130.11   16.85
   2  -6  -2  153.41   19.10
   2  -6  -2  162.21   18.35
   2  -6  -1  468.74   35.65
   2  -6  -1  546.93   38.62
   2  -6   0 1015.36   62.30
   2  -6   0 1027.06   64.49
   2  -6   1  546.54   38.39
   2  -6   1  546.66   40.32
   2  -6   2   15.51    8.24
   2  -6   2   12.20   10.17
   2  -6   3   -1.81    9.83
   2  -6   4  543.89   41.96
   2  -5 -13  251.15   30.32
   2  -5 -13  241.91   27.44
   2  -5 -12  146.26   22.68
   2  -5 -12  121.17   19.77
   2  -5 -11   -4.39    9.73
   2  -5 -11   -3.64    9.56
   2  -5 -10  206.92   23.68
   2  -5 -10  134.83   18.31
   2  -5  -9  297.10   29.03
   2  -5  -9  357.49   28.33
   2  -5  -8  642.26   42.67
   2  -5  -8  587.23   41.30
   2  -5  -8  642.21   44.44
   2  -5  -7   -1.46    9.05
   2  -5  -7    2.65    6.97
   2  -5  -7    6.84    6.97
   2  -5  -6  166.15   18.10
   2  -5  -6  145.67   17.20
   2  -5  -6  166.85   17.49
   2  -5  -6  153.19   15.31
   2  -5  -5  518.25   34.96
   2  -5  -5  493.77   35.11
   2  -5  -5  482.37   35.75
   2  -5  -5  521.97   32.44
   2  -5  -4  649.59   41.14
   2  -5  -4  665.40   42.58
   2  -5  -4  631.04   43.08
   2  -5  -3  154.78   15.09
   2  -5  -3  140.72   15.89
   2  -5  -3  161.33   17.92
   2  -5  -2  129.14   13.05
   2  -5  -2  132.80   16.03
   2  -5  -2  122.63   14.95
   2  -5  -1  268.96   23.43
   2  -5  -1  306.68   25.36
   2  -5   0 1050.75   64.43
   2  -5   0 1168.35   67.25
   2  -5   1  573.64   34.97
   2  -5   1  474.08   34.33
   2  -5   1  458.15   36.19
   2  -5   2   63.39   11.65
   2  -5   2   32.76   11.41
   2  -5   3   83.87   14.52
   2  -5   4  835.25   54.78
   2  -4 -13  130.51   22.50
   2  -4 -13  106.08   19.06
   2  -4 -12   95.32   19.01
   2  -4 -12   94.16   17.66
   2  -4 -11    2.18   10.28
   2  -4 -11   -3.67    9.00
   2  -4 -10  552.96   43.07
   2  -4 -10  532.95   39.89
   2  -4  -9  558.09   39.82
   2  -4  -9  562.71   42.31
   2  -4  -8  860.89   56.86
   2  -4  -8  920.51   55.01
   2  -4  -8  860.83   54.62
   2  -4  -7  410.65   30.71
   2  -4  -7  390.84   28.58
   2  -4  -7  367.00   28.70
   2  -4  -7  346.47   27.02
   2  -4  -6   33.42    9.99
   2  -4  -6   26.62    8.33
   2  -4  -6   37.66    8.58
   2  -4  -6   39.62    8.96
   2  -4  -5   19.58    8.44
   2  -4  -5    8.22    6.41
   2  -4  -5   15.27    7.10
   2  -4  -5   17.04    6.89
   2  -4  -4  555.09   34.42
   2  -4  -4  510.51   34.45
   2  -4  -4  530.62   35.84
   2  -4  -4  507.05   31.66
   2  -4  -3   27.39    7.20
   2  -4  -3   15.95    8.07
   2  -4  -3   21.42    7.24
   2  -4  -3   26.84    5.28
   2  -4  -2   -0.72    5.09
   2  -4  -2    2.27    7.04
   2  -4  -2    4.97    5.71
   2  -4  -1  548.10   33.10
   2  -4  -1  542.93   35.86
   2  -4  -1  598.56   37.72
   2  -4   0  607.10   36.60
   2  -4   0  653.44   40.49
   2  -4   1 1236.55   67.27
   2  -4   1 1130.26   66.31
   2  -4   1 1145.00   68.18
   2  -4   2    3.93    6.43
   2  -4   2    2.14    5.71
   2  -4   2    9.94    8.62
   2  -4   3  338.86   26.11
   2  -4   3  334.82   26.84
   2  -4   4  911.29   57.37
   2  -4   4  939.64   57.15
   2  -4   5 1399.22   81.98
   2  -3 -12   59.01   17.20
   2  -3 -12   83.28   16.55
   2  -3 -11   -2.19    9.68
   2  -3 -11    1.85    9.09
   2  -3 -10  154.05   21.48
   2  -3 -10  162.13   19.70
   2  -3  -9  414.25   32.31
   2  -3  -9  401.16   33.98
   2  -3  -8  458.96   34.97
   2  -3  -8  434.32   32.15
   2  -3  -8  455.88   32.95
   2  -3  -7  160.12   18.23
   2  -3  -7  161.18   16.41
   2  -3  -7  141.70   16.11
   2  -3  -7  141.86   15.91
   2  -3  -6   82.96   12.98
   2  -3  -6   87.39   11.54
   2  -3  -6   71.14   11.15
   2  -3  -6   85.68   11.23
   2  -3  -5  348.95   25.86
   2  -3  -5  360.97   25.35
   2  -3  -5  383.36   26.50
   2  -3  -5  326.17   23.83
   2  -3  -4 1480.62   79.54
   2  -3  -4 1419.29   79.24
   2  -3  -4 1473.35   80.40
   2  -3  -4 1407.97   77.08
   2  -3  -3 1293.09   69.27
   2  -3  -3 1298.79   66.81
   2  -3  -3 1251.31   69.84
   2  -3  -3 1205.57   70.61
   2  -3  -3 1251.43   66.78
   2  -3  -3 1228.98   66.89
   2  -3  -2  396.54   24.60
   2  -3  -2  402.35   23.65
   2  -3  -2  410.22   26.18
   2  -3  -2  392.04   25.90
   2  -3  -2  345.18   26.22
   2  -3  -2  394.84   22.25
   2  -3  -2  321.22   22.97
   2  -3  -2  398.36   21.84
   2  -3  -1  234.44   15.39
   2  -3  -1  248.57   15.93
   2  -3  -1  241.72   17.61
   2  -3  -1  189.79   17.87
   2  -3  -1  228.02   12.87
   2  -3  -1  243.82   16.02
   2  -3   0  587.68   31.55
   2  -3   0  526.98   34.19
   2  -3   0  568.34   35.93
   2  -3   0  543.13   31.85
   2  -3   1  459.49   29.64
   2  -3   1  444.37   24.78
   2  -3   1  414.11   28.32
   2  -3   1  445.55   29.90
   2  -3   2  233.21   18.86
   2  -3   2  232.32   19.18
   2  -3   2  206.38   17.03
   2  -3   3 1091.18   61.16
   2  -3   3  957.72   57.80
   2  -3   3 1111.85   61.43
   2  -3   4 1037.66   58.79
   2  -3   4  896.79   56.80
   2  -3   5  805.19   50.50
   2  -3   5  837.60   50.19
   2  -3   5  726.82   48.26
   2  -3   6  595.21   42.04
   2  -3   7   13.97    9.21
   2  -3   8  106.90   16.55
   2  -2 -12  114.32   18.96
   2  -2 -11    2.17   10.63
   2  -2 -11    1.88    8.89
   2  -2 -10  141.09   20.07
   2  -2 -10  127.37   18.21
   2  -2  -9  301.02   29.54
   2  -2  -9  328.09   27.54
   2  -2  -8  410.71   32.25
   2  -2  -8  380.60   30.02
   2  -2  -7  265.12   22.38
   2  -2  -7  292.27   25.51
   2  -2  -7  290.66   23.24
   2  -2  -6   23.74    8.28
   2  -2  -6   28.75    7.18
   2  -2  -6   11.61    6.37
   2  -2  -6   10.78    6.86
   2  -2  -5  711.77   44.33
   2  -2  -5  750.87   43.44
   2  -2  -5  689.01   43.77
   2  -2  -5  720.68   42.68
   2  -2  -4 1932.62  107.09
   2  -2  -4 2056.23  106.82
   2  -2  -4 1988.86  107.67
   2  -2  -4 2042.50  105.46
   2  -2  -3 1524.52   73.92
   2  -2  -3 1548.72   70.03
   2  -2  -3 1637.29   75.87
   2  -2  -3 1476.91   73.84
   2  -2  -3 1585.92   75.88
   2  -2  -3 1478.99   74.84
   2  -2  -3 1548.84   71.72
   2  -2  -3 1201.41   69.43
   2  -2  -3 1438.61   67.61
   2  -2  -3 1099.17   67.51
   2  -2  -2  338.45   19.93
   2  -2  -2  303.99   17.81
   2  -2  -2  303.07   20.40
   2  -2  -2  305.41   21.00
   2  -2  -2  279.30   20.88
   2  -2  -2  300.92   17.70
   2  -2  -2  246.29   17.42
   2  -2  -2  294.14   15.92
   2  -2  -1  947.64   19.88
   2  -2  -1  893.44   18.91
   2  -2  -1  879.47   22.73
   2  -2  -1  876.06   25.45
   2  -2  -1  888.17   13.02
   2  -2  -1  849.72   14.27
   2  -2   0 3262.96  155.19
   2  -2   0 3085.79  150.91
   2  -2   0 3228.62  154.30
   2  -2   0 2976.24  153.32
   2  -2   0 3138.37  152.62
   2  -2   0 2792.92  154.39
   2  -2   0 2975.43  152.48
   2  -2   0 2668.31  150.86
   2  -2   1 3336.28  158.64
   2  -2   1 3182.83  152.89
   2  -2   1 3256.65  156.32
   2  -2   1 2799.32  155.75
   2  -2   1 2711.09  157.08
   2  -2   1 3257.75  156.54
   2  -2   1 2751.99  154.74
   2  -2   2  725.93   41.45
   2  -2   2  711.47   34.75
   2  -2   2  624.65   38.34
   2  -2   2  607.07   39.99
   2  -2   2  619.86   38.28
   2  -2   3    1.14    4.17
   2  -2   3    2.84    5.64
   2  -2   3    3.88    5.80
   2  -2   3    1.66    5.64
   2  -2   4  155.28   15.27
   2  -2   4  127.82   13.96
   2  -2   4  108.16   12.68
   2  -2   5  758.43   46.30
   2  -2   5  739.01   45.57
   2  -2   5  644.95   42.39
   2  -2   6   30.62    8.85
   2  -2   6   32.18   10.08
   2  -2   7   31.60   10.06
   2  -2   8  222.37   23.80
   2  -2   9  234.69   25.80
   2  -2  10  271.59   29.15
   2  -1 -12   53.01   15.21
   2  -1 -11   27.12   11.93
   2  -1 -10    7.95    9.38
   2  -1 -10   -1.74    8.40
   2  -1  -9  456.81   37.11
   2  -1  -9  408.00   33.29
   2  -1  -8  288.81   26.53
   2  -1  -8  278.46   24.50
   2  -1  -7  335.49   28.66
   2  -1  -7  329.06   26.36
   2  -1  -7  384.77   27.31
   2  -1  -6   57.20   11.13
   2  -1  -6   35.64    8.33
   2  -1  -6   32.84    8.59
   2  -1  -6   38.40    8.85
   2  -1  -5 1367.76   73.73
   2  -1  -5 1359.28   75.19
   2  -1  -5 1262.83   73.94
   2  -1  -5 1323.39   73.25
   2  -1  -4 2598.16  134.89
   2  -1  -4 2678.29  134.03
   2  -1  -4 2322.93  134.07
   2  -1  -4 2655.48  134.83
   2  -1  -4 2739.19  133.26
   2  -1  -4 2500.36  128.63
   2  -1  -3 3170.43  145.37
   2  -1  -3 2864.90  139.44
   2  -1  -3 3085.03  144.66
   2  -1  -3 3015.13  145.60
   2  -1  -3 3051.17  143.21
   2  -1  -3 2609.57  139.39
   2  -1  -2  591.47   32.99
   2  -1  -2  560.30   29.64
   2  -1  -2  605.05   33.23
   2  -1  -2  571.10   33.97
   2  -1  -2  607.93   31.39
   2  -1  -2  546.95   29.69
   2  -1  -1 1394.70   19.18
   2  -1  -1 1397.60   25.78
   2  -1  -1 1433.65   27.61
   2  -1  -1 1345.58   28.47
   2  -1  -1 1349.78   17.41
   2  -1  -1 1431.28   23.92
   2  -1   0 1230.30   63.13
   2  -1   0 1259.79   64.03
   2  -1   0 1263.73   62.58
   2  -1   0 1220.74   65.23
   2  -1   0 1269.58   60.80
   2  -1   0 1015.99   62.67
   2  -1   0 1128.81   61.90
   2  -1   1 3428.73  167.22
   2  -1   1 3250.66  164.86
   2  -1   1 3169.90  164.37
   2  -1   1 3342.39  162.37
   2  -1   1 3089.44  165.80
   2  -1   1 3106.01  164.81
   2  -1   1 3238.86  164.11
   2  -1   2 1380.33   70.43
   2  -1   2 1416.81   68.66
   2  -1   2 1506.61   71.06
   2  -1   2 1367.04   66.99
   2  -1   2 1255.71   68.60
   2  -1   2 1251.13   64.81
   2  -1   2 1397.43   68.01
   2  -1   3    1.48    3.00
   2  -1   3    2.91    3.11
   2  -1   3   -0.85    5.33
   2  -1   3    6.01    5.56
   2  -1   3   -1.22    4.65
   2  -1   3    1.76    2.33
   2  -1   4  241.32   18.49
   2  -1   4  234.69   18.32
   2  -1   5  585.78   35.87
   2  -1   5  563.30   35.32
   2  -1   6  796.61   51.67
   2  -1   6  828.12   51.42
   2  -1   7  171.98   19.15
   2  -1   7  165.56   19.56
   2  -1   8   11.49    7.94
   2  -1   8   19.71   10.03
   2  -1   9  162.86   21.23
   2  -1  10  149.37   21.81
   2  -1  11   85.29   17.43
   2  -1  12   44.65   15.45
   2   0 -12   75.90   16.56
   2   0 -11   37.85   13.17
   2   0 -10   39.76   11.49
   2   0  -9  360.69   33.95
   2   0  -9  402.41   32.07
   2   0  -8  684.26   49.69
   2   0  -8  797.18   49.63
   2   0  -7  538.20   39.59
   2   0  -7  571.96   38.31
   2   0  -6   -1.11    6.04
   2   0  -6   15.10    7.70
   2   0  -6    1.06    6.75
   2   0  -5  474.37   32.16
   2   0  -5  454.52   30.88
   2   0  -5  487.28   30.66
   2   0  -5  449.52   27.10
   2   0  -4 3337.91  159.18
   2   0  -4 3175.75  157.67
   2   0  -4 3117.95  158.18
   2   0  -4 3173.55  156.77
   2   0  -4 3031.03  153.07
   2   0  -3 1043.58   55.49
   2   0  -3 1160.87   55.48
   2   0  -3  787.39   53.03
   2   0  -3  708.71   53.70
   2   0  -3 1043.66   55.62
   2   0  -3 1090.99   54.09
   2   0  -3 1021.08   50.39
   2   0  -2  270.39   17.23
   2   0  -2  232.54   16.02
   2   0  -2  199.51   15.30
   2   0  -2  221.27   16.67
   2   0  -2  237.53   17.00
   2   0  -2  234.26   14.99
   2   0  -2  210.93   12.42
   2   0  -1  240.37   16.26
   2   0  -1  250.87   13.33
   2   0  -1  256.69   16.21
   2   0  -1  248.19   15.85
   2   0  -1  199.31   16.10
   2   0  -1  270.41   17.40
   2   0  -1  241.91   14.85
   2   0  -1  226.95   13.28
   2   0   0 9457.20  453.08
   2   0   0 9893.36  454.06
   2   0   0 9276.42  454.15
   2   0   0 9999.00  454.98
   2   0   0 8937.91  455.10
   2   0   0 9431.52  452.83
   2   0   0 7794.16  452.77
   2   0   0 8831.70  452.52
   2   0   1   26.98    3.91
   2   0   1   25.99    5.88
   2   0   1   40.51    4.60
   2   0   1   29.19    5.82
   2   0   1   32.88    4.09
   2   0   1   29.21    5.20
   2   0   1   21.29    4.22
   2   0   2 2915.10  142.05
   2   0   2 3120.80  144.43
   2   0   2 2718.64  140.03
   2   0   2 2845.21  141.74
   2   0   2 2897.34  144.00
   2   0   2 2607.17  139.76
   2   0   2 2982.14  142.30
   2   0   2 2633.57  141.55
   2   0   3  259.86   18.35
   2   0   3  270.81   18.66
   2   0   3  228.84   13.42
   2   0   3  227.42   15.24
   2   0   3  235.44   14.54
   2   0   3  239.25   16.37
   2   0   4  498.97   29.86
   2   0   4  470.21   29.86
   2   0   4  431.73   22.99
   2   0   4  424.91   25.39
   2   0   4  413.21   25.17
   2   0   5  612.43   37.12
   2   0   5  642.98   37.69
   2   0   5  563.58   32.14
   2   0   6 1080.44   64.58
   2   0   6 1088.92   64.91
   2   0   7  137.67   16.99
   2   0   7  152.40   17.67
   2   0   8    9.93    7.99
   2   0   8   17.15    9.32
   2   0   9  599.67   44.85
   2   0   9  598.70   44.31
   2   0  10  416.45   36.60
   2   0  11  150.14   22.04
   2   0  12   10.36   11.48
   2   1 -11    4.11    9.52
   2   1 -10   20.60   10.95
   2   1  -9  304.64   28.26
   2   1  -8 1138.03   69.36
   2   1  -7  414.98   33.13
   2   1  -7  399.85   30.79
   2   1  -6   37.42   10.31
   2   1  -6   29.15   10.20
   2   1  -6   27.37    8.20
   2   1  -5  297.67   23.06
   2   1  -5  290.05   23.59
   2   1  -5  281.06   21.81
   2   1  -5  264.33   19.07
   2   1  -4 1947.19  100.40
   2   1  -4 1788.50   98.70
   2   1  -4 1954.81  100.98
   2   1  -4 1784.66   96.05
   2   1  -3 1968.15   89.60
   2   1  -3 1908.34   89.07
   2   1  -3 1516.87   81.61
   2   1  -3 1692.01   85.95
   2   1  -3 1836.59   87.33
   2   1  -3 1628.42   81.80
   2   1  -3 1822.62   84.56
   2   1  -2  575.97   33.36
   2   1  -2  576.53   32.97
   2   1  -2  513.06   30.47
   2   1  -2  479.79   31.95
   2   1  -2  570.00   33.38
   2   1  -2  577.04   31.84
   2   1  -2  530.10   29.68
   2   1  -1   24.83    4.73
   2   1  -1   31.08    3.24
   2   1  -1   22.82    5.56
   2   1  -1   25.27    3.75
   2   1  -1   26.33    6.25
   2   1  -1   25.85    5.10
   2   1  -1   35.40    3.44
   2   1  -1   21.26    4.25
   2   1   0   33.43    4.76
   2   1   0   28.13    4.28
   2   1   0   29.25    5.11
   2   1   0   17.86    3.38
   2   1   0   36.47    5.98
   2   1   0   29.87    4.88
   2   1   0   21.53    4.24
   2   1   0   32.78    5.55
   2   1   1 2647.50  147.86
   2   1   1 3067.59  148.78
   2   1   1 2692.94  147.28
   2   1   1 3137.65  148.78
   2   1   1 3007.89  147.98
   2   1   1 2971.88  147.89
   2   1   1 3017.82  148.53
   2   1   2  230.09   15.59
   2   1   2  192.75   12.73
   2   1   2  228.99   15.89
   2   1   2  216.27   13.50
   2   1   2  227.54   13.59
   2   1   2  237.44   14.61
   2   1   3    5.44    3.30
   2   1   3    5.37    2.02
   2   1   3    9.28    5.05
   2   1   3    1.21    1.61
   2   1   3    1.93    4.50
   2   1   3    7.17    2.37
   2   1   3    1.52    2.47
   2   1   4   70.76    6.03
   2   1   4   82.52   10.43
   2   1   4   74.58    5.84
   2   1   4   83.62    9.70
   2   1   4   69.15    7.23
   2   1   5 2726.10  142.11
   2   1   5 2831.47  143.39
   2   1   5 2599.02  138.06
   2   1   6 1124.29   66.18
   2   1   6 1127.36   66.75
   2   1   7  236.40   21.65
   2   1   7  177.04   19.87
   2   1   8    8.36    9.07
   2   1   8   -1.64    9.68
   2   1   9  846.70   58.00
   2   1   9  891.28   58.60
   2   1  10  316.23   30.96
   2   1  10  331.48   31.31
   2   1  11  324.03   32.81
   2   1  12   27.97   13.66
   2   1  13   46.52   14.80
   2   2 -11   10.69   10.51
   2   2 -10   29.57   12.29
   2   2  -9  183.35   21.67
   2   2  -8  719.83   48.99
   2   2  -7  263.06   24.10
   2   2  -6  107.49   12.92
   2   2  -6  146.77   15.67
   2   2  -5  535.15   34.64
   2   2  -5  489.00   31.84
   2   2  -4  605.36   38.15
   2   2  -4  565.81   36.04
   2   2  -3 1500.21   76.69
   2   2  -3 1752.80   81.85
   2   2  -3 1555.09   76.97
   2   2  -3 1580.84   79.18
   2   2  -2 1361.53   61.91
   2   2  -2  998.84   54.93
   2   2  -2  957.57   57.54
   2   2  -2  876.29   54.70
   2   2  -2 1254.95   59.27
   2   2  -2 1116.89   55.47
   2   2  -2 1259.65   57.76
   2   2  -1    2.75    3.49
   2   2  -1    9.30    5.81
   2   2  -1    3.28    3.46
   2   2  -1    2.10    1.51
   2   2  -1    1.18    4.95
   2   2  -1   -0.97    2.69
   2   2  -1    1.51    4.06
   2   2   0  220.72   14.94
   2   2   0  181.72   12.53
   2   2   0  150.63   11.35
   2   2   0  193.53   13.95
   2   2   0  173.94   12.55
   2   2   0  193.57   14.23
   2   2   1 2316.01  118.14
   2   2   1 2263.59  119.10
   2   2   1 2321.27  118.04
   2   2   1 2416.87  120.03
   2   2   1 2338.05  119.49
   2   2   1 2265.10  120.48
   2   2   2 2010.79  107.89
   2   2   2 1984.39  106.19
   2   2   2 2013.28  107.07
   2   2   2 2184.42  109.11
   2   2   2 2262.84  108.86
   2   2   3  494.53   29.32
   2   2   3  469.98   27.62
   2   2   3  435.92   25.67
   2   2   3  469.38   28.63
   2   2   3  423.17   26.43
   2   2   3  482.95   29.60
   2   2   4  219.81   17.87
   2   2   4  204.03   14.02
   2   2   4  251.82   17.44
   2   2   4  245.55   18.28
   2   2   4  206.24   15.16
   2   2   4  200.41   18.27
   2   2   5 2055.25   96.45
   2   2   5 2095.34   97.95
   2   2   6 1304.90   76.33
   2   2   6 1395.26   77.84
   2   2   7  238.91   21.93
   2   2   7  233.92   22.81
   2   2   8    3.36    8.83
   2   2   8   10.99    9.15
   2   2   9  438.89   37.15
   2   2   9  554.34   40.33
   2   2  10  571.59   43.34
   2   2  10  518.63   42.91
   2   2  11  245.42   26.57
   2   2  11  147.69   24.03
   2   2  12    4.99   12.47
   2   2  13    2.70   10.50
   2   3 -11   96.57   18.01
   2   3 -10    2.07    9.18
   2   3  -9   30.44   11.74
   2   3  -8  159.05   19.30
   2   3  -7  131.94   17.10
   2   3  -6   23.65    8.38
   2   3  -6   21.80    9.26
   2   3  -5  126.75   14.28
   2   3  -5  146.17   15.88
   2   3  -4 1014.84   59.71
   2   3  -4 1031.90   58.53
   2   3  -3 2050.28  109.72
   2   3  -3 2305.62  114.18
   2   3  -3 2121.58  110.13
   2   3  -3 2093.98  112.05
   2   3  -2  352.50   20.96
   2   3  -2  393.49   24.18
   2   3  -2  366.13   21.49
   2   3  -2  409.15   23.43
   2   3  -1  159.72   12.71
   2   3  -1  148.24   12.00
   2   3  -1  216.03   15.82
   2   3  -1  181.63   13.43
   2   3  -1  219.80   15.26
   2   3   0 1039.51   56.58
   2   3   0  912.59   53.89
   2   3   0 1282.15   59.45
   2   3   0 1202.37   58.16
   2   3   0 1044.82   56.87
   2   3   0 1075.45   58.31
   2   3   1 5663.93  298.65
   2   3   1 5964.31  295.88
   2   3   1 6212.15  300.14
   2   3   1 5628.28  298.00
   2   3   1 5722.86  298.95
   2   3   1 6333.69  300.98
   2   3   1 6132.62  299.32
   2   3   2 4130.62  203.05
   2   3   2 3605.63  200.68
   2   3   2 4128.44  200.82
   2   3   2 3933.01  204.23
   2   3   2 4040.88  200.34
   2   3   2 4020.88  199.30
   2   3   2 4090.65  203.27
   2   3   2 3841.01  200.87
   2   3   3  849.11   48.10
   2   3   3  867.01   45.01
   2   3   3  808.47   45.06
   2   3   3  914.31   47.08
   2   3   3  745.61   43.38
   2   3   3  963.04   50.02
   2   3   3  760.92   45.54
   2   3   3  920.16   49.16
   2   3   3  800.72   44.62
   2   3   4   28.06    4.19
   2   3   4   35.77    7.86
   2   3   4   34.06    8.18
   2   3   4   36.18    7.83
   2   3   4   57.49    8.49
   2   3   4   20.63    8.50
   2   3   4   32.53    7.72
   2   3   5 1339.15   72.10
   2   3   5 1310.53   69.87
   2   3   5 1314.55   71.67
   2   3   5 1458.83   73.43
   2   3   6 1641.73   85.94
   2   3   6 1322.71   79.33
   2   3   6 1555.03   84.11
   2   3   6 1602.02   86.20
   2   3   6 1668.51   86.71
   2   3   7  438.31   32.48
   2   3   7  463.66   34.11
   2   3   8    6.73    9.26
   2   3   8   -3.01    9.85
   2   3   9   89.37   16.26
   2   3   9   74.96   14.82
   2   3  10  285.54   28.92
   2   3  10  258.37   27.62
   2   3  11  202.06   24.77
   2   3  11  176.14   23.63
   2   3  12   74.16   17.28
   2   3  12   38.79   14.17
   2   3  13   21.92   12.44
   2   3  13   13.18   12.73
   2   4  -9    4.04    9.72
   2   4  -8  118.51   18.28
   2   4  -7  215.08   22.94
   2   4  -6  112.85   15.22
   2   4  -6  134.50   17.06
   2   4  -5   74.39   11.47
   2   4  -5   50.53   11.37
   2   4  -4  156.25   16.35
   2   4  -4  154.70   17.12
   2   4  -3  591.82   37.43
   2   4  -3  618.49   40.57
   2   4  -3  664.22   38.42
   2   4  -3  668.38   40.28
   2   4  -2  715.86   42.42
   2   4  -2  749.39   45.29
   2   4  -2  706.96   42.76
   2   4  -2  790.70   44.92
   2   4  -1  804.66   46.46
   2   4  -1  794.91   48.29
   2   4  -1  818.68   46.85
   2   4  -1  842.07   48.29
   2   4   0 1621.26   79.08
   2   4   0 1829.11   81.82
   2   4   0 1761.23   80.03
   2   4   0 1630.79   79.53
   2   4   0 1728.06   81.50
   2   4   1 6688.09  361.77
   2   4   1 7206.20  357.61
   2   4   1 7871.74  364.01
   2   4   1 7182.15  361.37
   2   4   1 6911.96  362.30
   2   4   1 6990.22  363.71
   2   4   1 7439.97  362.28
   2   4   2 4944.17  253.16
   2   4   2 5026.80  259.13
   2   4   2 5202.59  255.65
   2   4   2 5539.56  260.19
   2   4   2 5086.16  256.59
   2   4   2 5160.16  259.57
   2   4   2 4707.14  260.27
   2   4   2 5238.32  257.37
   2   4   3 2265.25  116.18
   2   4   3 2176.70  110.66
   2   4   3 2169.68  112.92
   2   4   3 2253.77  113.49
   2   4   3 2156.71  111.62
   2   4   3 2125.46  115.93
   2   4   3 2038.69  112.25
   2   4   3 2243.87  117.73
   2   4   4  108.89   12.90
   2   4   4  106.33   11.78
   2   4   4   89.80    7.66
   2   4   4   93.68    9.47
   2   4   4   66.51   10.95
   2   4   4   89.25    8.43
   2   4   4  114.91   13.94
   2   4   4   73.39   13.66
   2   4   5  564.31   35.53
   2   4   5  465.04   30.12
   2   4   5  503.14   31.33
   2   4   5  540.60   34.16
   2   4   5  564.40   36.16
   2   4   5  467.56   28.55
   2   4   6 1824.84  101.05
   2   4   6 1764.82   98.40
   2   4   6 1772.18  100.68
   2   4   6 1914.42  102.49
   2   4   7  957.03   56.84
   2   4   7  837.41   53.96
   2   4   7  871.37   56.36
   2   4   7  926.85   57.40
   2   4   8  158.10   19.31
   2   4   8  165.16   19.88
   2   4   8  144.46   17.85
   2   4   8  172.24   20.55
   2   4   9    9.63    9.45
   2   4   9   -1.67    8.64
   2   4  10  290.51   30.23
   2   4  10  434.14   34.98
   2   4  11  135.15   21.50
   2   4  11  124.33   20.04
   2   4  12   67.48   17.37
   2   4  12   44.97   14.56
   2   4  13    5.59   12.65
   2   4  13  -10.33   12.19
   2   4  14  186.53   26.70
   2   4  14   94.25   21.10
   2   5  -8  199.45   24.13
   2   5  -7  133.43   17.64
   2   5  -7  140.65   19.77
   2   5  -6  211.12   21.52
   2   5  -6  160.30   20.19
   2   5  -5   -5.70    7.61
   2   5  -5   -3.09    7.72
   2   5  -4  528.57   38.63
   2   5  -4  577.60   38.56
   2   5  -3  526.82   38.30
   2   5  -3  623.11   39.11
   2   5  -2  968.19   57.50
   2   5  -2 1091.05   61.09
   2   5  -2  960.52   58.02
   2   5  -2 1044.06   60.06
   2   5  -1   12.57    7.43
   2   5  -1   22.56    8.55
   2   5  -1   19.41    7.81
   2   5  -1    6.64    8.40
   2   5   0  676.96   44.26
   2   5   0  781.72   46.59
   2   5   0  798.46   45.81
   2   5   0  733.70   46.23
   2   5   1 1185.42   68.33
   2   5   1 1226.25   62.65
   2   5   1 1190.76   69.15
   2   5   1 1189.63   68.70
   2   5   1 1232.82   70.14
   2   5   2 2029.96  111.53
   2   5   2 2074.16  107.12
   2   5   2 2183.15  112.50
   2   5   2 1957.68  108.94
   2   5   2 2033.74  111.92
   2   5   2 2285.55  114.83
   2   5   3   18.50    8.22
   2   5   3   16.99    5.90
   2   5   3   27.71    3.66
   2   5   3   17.56    4.92
   2   5   3   15.76    5.34
   2   5   3   14.66    7.45
   2   5   3   16.76    9.72
   2   5   4  128.70   10.41
   2   5   4  159.51   14.02
   2   5   4  110.20   14.33
   2   5   4  121.83   10.47
   2   5   4  127.57   11.30
   2   5   4  155.44   15.96
   2   5   4  117.62   16.00
   2   5   5 1519.73   79.68
   2   5   5 1558.85   81.35
   2   5   5 1401.83   77.25
   2   5   5 1271.41   73.38
   2   5   5 1528.66   80.43
   2   5   5 1240.06   72.58
   2   5   6 1897.92  105.58
   2   5   6 1699.10  100.46
   2   5   6 1828.01  104.19
   2   5   6 2051.43  107.10
   2   5   6 2114.28  107.44
   2   5   7 2224.97  112.98
   2   5   7 2062.29  112.03
   2   5   7 2114.78  113.24
   2   5   8  166.40   20.04
   2   5   8  160.55   20.85
   2   5   8  178.76   18.79
   2   5   8  186.90   22.25
   2   5   9   10.33    9.35
   2   5   9    5.87   11.40
   2   5   9    9.60    8.69
   2   5   9   11.06   10.88
   2   5  10  247.30   26.05
   2   5  10  272.91   29.00
   2   5  10  206.28   24.33
   2   5  10  309.63   28.48
   2   5  11  486.17   40.55
   2   5  11  531.76   43.57
   2   5  12   94.37   18.91
   2   5  12  114.64   19.80
   2   5  13   -5.66   11.96
   2   5  13   -5.01   13.17
   2   5  14   27.12   14.60
   2   5  14   40.55   16.03
   2   6  -7  317.92   30.12
   2   6  -6  240.15   24.47
   2   6  -6  184.19   22.91
   2   6  -5   13.35   10.37
   2   6  -5   22.45   11.09
   2   6  -4  335.50   30.36
   2   6  -4  406.95   31.46
   2   6  -3  371.92   32.34
   2   6  -3  475.76   33.64
   2   6  -2 1064.03   66.42
   2   6  -2 1204.97   70.15
   2   6  -2 1128.45   67.66
   2   6  -2 1279.58   70.37
   2   6  -1   22.22    7.53
   2   6  -1    3.97    7.74
   2   6  -1   18.01    9.03
   2   6  -1   22.96    9.83
   2   6   0   43.33    9.63
   2   6   0   52.40   11.48
   2   6   0   77.20   13.75
   2   6   1  605.08   38.15
   2   6   1  504.79   35.59
   2   6   1  523.81   36.42
   2   6   1  519.91   37.85
   2   6   2  885.73   56.08
   2   6   2  996.18   57.66
   2   6   2  915.01   56.84
   2   6   2  952.70   58.66
   2   6   3  234.52   21.88
   2   6   3  212.26   17.40
   2   6   3  263.83   22.49
   2   6   3  271.42   24.11
   2   6   4   25.51   10.09
   2   6   4   18.36    7.65
   2   6   4    5.57    9.51
   2   6   4   12.30    9.77
   2   6   5  666.23   46.93
   2   6   5  665.02   44.47
   2   6   5  737.49   48.19
   2   6   6  480.57   35.06
   2   6   6  393.67   28.91
   2   6   6  430.17   32.53
   2   6   6  522.28   36.98
   2   6   6  524.99   36.64
   2   6   7  860.19   53.31
   2   6   7  715.87   47.19
   2   6   7  760.31   51.21
   2   6   7  848.49   53.89
   2   6   8  170.19   20.69
   2   6   8  124.75   18.24
   2   6   8  123.90   15.61
   2   6   8  148.11   20.70
   2   6   9  517.15   39.67
   2   6   9  466.44   35.68
   2   6   9  474.21   39.06
   2   6   9  506.55   40.37
   2   6  10  533.34   40.31
   2   6  10  446.72   39.54
   2   6  10  401.74   35.93
   2   6  10  593.26   42.58
   2   6  11  843.40   58.55
   2   6  11  876.43   62.18
   2   6  12  369.75   36.59
   2   6  12  296.66   31.18
   2   6  13    2.87   11.16
   2   6  13    2.43   11.69
   2   6  14   18.30   15.01
   2   6  14   28.82   13.83
   2   7  -7  135.43   20.49
   2   7  -6  195.24   23.63
   2   7  -5    1.91    9.21
   2   7  -4  120.38   18.43
   2   7  -4  147.28   20.00
   2   7  -3  716.55   52.10
   2   7  -3  850.39   53.91
   2   7  -2  345.80   28.74
   2   7  -2  354.40   30.80
   2   7  -2  396.07   30.28
   2   7  -2  379.41   31.53
   2   7  -1  308.55   26.50
   2   7  -1  330.21   28.88
   2   7  -1  317.56   27.57
   2   7  -1  352.70   29.69
   2   7   0   11.95    8.87
   2   7   0   11.57    8.43
   2   7   0   -1.42    8.61
   2   7   0    6.37    9.52
   2   7   1  515.23   38.94
   2   7   1  619.96   41.10
   2   7   1  598.09   40.67
   2   7   1  597.25   42.21
   2   7   2  171.36   19.84
   2   7   2  177.99   20.62
   2   7   2  219.44   22.85
   2   7   3  508.45   38.27
   2   7   3  576.92   39.55
   2   7   3  505.36   39.53
   2   7   4   60.08   14.29
   2   7   4   56.35   12.61
   2   7   4   39.23    8.73
   2   7   4   56.03   15.52
   2   7   5  482.58   38.40
   2   7   5  478.24   34.94
   2   7   5  630.29   42.54
   2   7   5  592.77   40.93
   2   7   6  630.42   42.94
   2   7   6  500.36   38.45
   2   7   6  638.04   44.34
   2   7   6  562.57   42.31
   2   7   7 1190.46   73.07
   2   7   7 1083.23   70.30
   2   7   7 1158.31   73.40
   2   7   7 1266.38   74.79
   2   7   8   30.15   12.56
   2   7   8   41.23   12.88
   2   7   8   26.04   12.22
   2   7   9   45.57   14.25
   2   7   9   30.23   12.33
   2   7   9   42.25   14.51
   2   7  10  670.69   49.11
   2   7  10  562.63   47.64
   2   7  10  723.71   50.88
   2   7  11  516.33   41.20
   2   7  11  580.41   46.56
   2   7  12   75.43   18.05
   2   7  12   81.01   16.07
   2   7  13   29.01   15.56
   2   7  13   28.08   12.38
   2   7  14  166.60   26.25
   2   7  14  131.68   22.19
   2   8  -6   71.33   16.35
   2   8  -5   15.32   11.71
   2   8  -4   24.89   13.34
   2   8  -3  242.91   26.85
   2   8  -2  232.00   24.39
   2   8  -2  286.51   26.57
   2   8  -2  264.21   27.48
   2   8  -1   99.73   15.30
   2   8  -1   83.85   15.18
   2   8  -1   59.30   14.99
   2   8   0   12.44    9.56
   2   8   0   11.37    9.37
   2   8   0   29.89   11.01
   2   8   0   25.73   12.06
   2   8   1  261.50   26.56
   2   8   1  325.70   28.83
   2   8   1  363.52   29.51
   2   8   1  356.39   30.87
   2   8   2  984.85   63.60
   2   8   2 1108.85   65.50
   2   8   2  964.04   65.41
   2   8   3  635.13   46.40
   2   8   3  665.43   47.37
   2   8   3  729.47   49.92
   2   8   4  120.00   18.43
   2   8   4  126.63   18.86
   2   8   4  144.41   20.86
   2   8   5  236.14   26.22
   2   8   5  325.51   30.24
   2   8   5  279.76   27.86
   2   8   6  959.69   60.37
   2   8   6  909.42   60.40
   2   8   6 1027.30   62.60
   2   8   7  843.85   57.13
   2   8   7  734.14   53.13
   2   8   7  835.88   57.60
   2   8   7  952.53   59.61
   2   8   8  295.51   29.22
   2   8   8  218.18   25.07
   2   8   8  245.02   27.83
   2   8   8  285.85   29.21
   2   8   9   34.09   13.73
   2   8   9   28.70   12.48
   2   8   9   27.18   13.27
   2   8  10  350.15   33.39
   2   8  10  281.91   31.38
   2   8  10  356.85   34.17
   2   8  11  294.45   31.99
   2   8  12  249.94   30.71
   2   8  13   38.07   15.75
   2   8  14   62.24   17.90
   2   9  -5   60.81   15.87
   2   9  -4   28.35   13.27
   2   9  -3   79.01   16.70
   2   9  -2  168.63   23.33
   2   9  -1  137.76   19.64
   2   9  -1  195.73   22.43
   2   9  -1  156.15   23.09
   2   9   0    8.89   10.36
   2   9   0   -1.90   10.93
   2   9   0    2.12   10.98
   2   9   1  312.35   29.48
   2   9   1  326.52   29.68
   2   9   1  333.89   30.34
   2   9   1  310.83   31.53
   2   9   2  762.30   53.43
   2   9   2  788.52   54.63
   2   9   2  830.51   56.98
   2   9   3  458.45   37.87
   2   9   3  526.51   40.34
   2   9   3  491.81   41.56
   2   9   4   67.14   15.19
   2   9   4   63.97   15.58
   2   9   4   70.29   16.79
   2   9   5  188.36   23.21
   2   9   5  187.32   23.63
   2   9   5  232.74   27.78
   2   9   6 1280.69   84.53
   2   9   6 1345.01   85.93
   2   9   6 1550.08   88.93
   2   9   7  612.61   49.05
   2   9   7  723.70   51.97
   2   9   7  679.37   50.71
   2   9   8  631.09   47.62
   2   9   8  625.30   47.81
   2   9   8  511.08   42.47
   2   9   8  662.97   48.97
   2   9   9   -4.58   11.85
   2   9   9    2.08   10.42
   2   9   9  -14.55   12.33
   2   9  10   68.84   17.28
   2   9  10   55.24   15.46
   2   9  10   96.04   19.41
   2   9  11  352.77   35.44
   2   9  12  136.83   23.53
   2   9  13   88.15   21.22
   2  10  -3  199.84   27.34
   2  10  -2  190.49   26.45
   2  10  -1   52.35   14.59
   2  10  -1  103.46   17.67
   2  10  -1   83.48   19.48
   2  10   0   20.07   10.78
   2  10   0   47.12   13.76
   2  10   0    7.22   12.29
   2  10   1  188.66   23.20
   2  10   1  155.87   22.23
   2  10   1  153.50   23.88
   2  10   2  577.91   43.32
   2  10   2  463.04   41.18
   2  10   2  539.87   45.29
   2  10   3  361.39   37.22
   2  10   3  391.33   35.21
   2  10   3  408.67   36.39
   2  10   4   25.62   14.07
   2  10   4   53.38   15.24
   2  10   4   26.49   14.31
   2  10   5   69.87   16.37
   2  10   5   77.18   17.52
   2  10   5   70.92   18.96
   2  10   6  433.80   39.59
   2  10   6  456.44   41.29
   2  10   6  548.30   44.15
   2  10   7  699.89   54.11
   2  10   7  719.66   55.34
   2  10   7  774.65   56.53
   2  10   8  204.67   25.51
   2  10   8  161.91   24.48
   2  10   8  214.39   27.03
   2  10   9   17.18   13.35
   2  10   9   27.49   12.66
   2  10   9   12.92   14.26
   2  10  10  118.89   20.40
   2  10  10   67.45   16.39
   2  10  10  120.76   21.13
   2  10  11  230.95   28.43
   2  10  12  307.50   34.25
   2  10  13   97.10   21.88
   2  11  -2  501.85   46.18
   2  11  -1  272.63   32.92
   2  11   0   97.90   18.84
   2  11   0  109.04   19.99
   2  11   0   88.49   19.73
   2  11   1    4.49   12.01
   2  11   1   19.07   13.52
   2  11   1   10.57   12.74
   2  11   2  125.19   20.70
   2  11   2   91.35   19.26
   2  11   2  127.01   22.76
   2  11   3  346.65   33.85
   2  11   3  325.24   34.56
   2  11   3  321.46   35.23
   2  11   4    9.40   12.56
   2  11   4   -2.45   11.58
   2  11   4   39.66   14.99
   2  11   5    2.39   11.52
   2  11   5    4.98   11.51
   2  11   5   -2.67   13.34
   2  11   6  151.91   22.68
   2  11   6  137.10   22.92
   2  11   6  156.69   24.52
   2  11   7  298.10   32.95
   2  11   7  283.83   32.34
   2  11   7  343.93   35.66
   2  11   8   89.62   20.55
   2  11   8  112.28   21.40
   2  11   9   18.38   13.59
   2  11   9    2.76   12.77
   2  11  10   99.01   20.78
   2  11  10   96.10   20.55
   2  11  11  434.45   40.46
   2  11  12  170.09   26.49
   2  12   0   34.12   14.46
   2  12   0   36.26   16.30
   2  12   0   26.44   16.02
   2  12   1   93.95   19.06
   2  12   1   72.74   20.17
   2  12   1   62.76   18.54
   2  12   2  198.07   27.06
   2  12   2  242.55   30.24
   2  12   2  234.48   31.19
   2  12   3  452.86   43.35
   2  12   3  527.02   46.21
   2  12   3  577.24   49.60
   2  12   4  199.16   28.22
   2  12   4  253.06   30.30
   2  12   4  258.04   32.49
   2  12   5   46.67   15.67
   2  12   5   53.93   17.06
   2  12   5   46.19   16.76
   2  12   6    2.64   12.24
   2  12   6    8.23   13.95
   2  12   6   -2.86   11.75
   2  12   7  156.24   25.60
   2  12   7  173.66   26.38
   2  12   8   71.25   18.04
   2  12   8   60.14   18.63
   2  12   9    5.57   12.62
   2  12   9   -2.93   14.09
   2  12  10   59.32   18.27
   2  12  10   44.66   17.29
   2  13   3  318.14   35.18
   2  13   3  318.01   35.13
   2  13   3  305.28   36.31
   2  13   4  131.73   23.47
   2  13   4  173.48   27.05
   2  13   4  120.26   23.17
   2  13   5   30.50   14.64
   2  13   5   14.44   15.48
   2  13   5   36.95   17.50
   2  13   6  108.40   22.46
   2  13   6  112.85   21.85
   2  13   7  242.58   31.21
   2  13   7  284.53   33.75
   2  13   8  263.26   33.20
   2  13   8  286.87   34.89
   2  13   9  216.53   29.75
   2  13   9  245.65   32.21
   2  13  10   44.52   18.11
   2  13  10   56.02   18.98
   3 -10  -8  162.07   23.39
   3 -10  -7  339.05   33.56
   3 -10  -6  119.42   20.94
   3 -10  -6  159.45   21.70
   3 -10  -5   -5.18   11.72
   3 -10  -5   11.51   11.08
   3 -10  -4   78.92   18.97
   3 -10  -4  105.30   19.51
   3 -10  -3  189.84   26.74
   3 -10  -3  218.60   25.91
   3 -10  -2  165.62   25.40
   3 -10  -2  208.05   24.71
   3 -10  -1   49.56   15.36
   3 -10  -1   49.27   14.39
   3  -9 -10   32.91   12.66
   3  -9  -9   -6.60   12.11
   3  -9  -9    2.18    9.42
   3  -9  -8  123.51   19.38
   3  -9  -8  129.90   19.86
   3  -9  -7  200.59   24.42
   3  -9  -6   89.55   17.64
   3  -9  -6   66.31   14.91
   3  -9  -5    2.39   10.60
   3  -9  -5    4.27    9.24
   3  -9  -4   99.51   19.56
   3  -9  -4  122.90   19.15
   3  -9  -3  529.03   42.40
   3  -9  -3  509.93   44.54
   3  -9  -2  267.55   30.02
   3  -9  -2  230.98   25.99
   3  -9  -1  246.54   28.98
   3  -9  -1  203.24   24.71
   3  -9   0   10.30   11.68
   3  -9   1   73.04   18.29
   3  -9   2  344.83   35.78
   3  -8 -11  135.76   22.52
   3  -8 -10   74.10   16.34
   3  -8  -9    6.40   10.85
   3  -8  -9    8.17    9.26
   3  -8  -8  167.81   21.97
   3  -8  -8  185.20   22.34
   3  -8  -7  156.47   20.52
   3  -8  -7  151.59   20.32
   3  -8  -6  378.78   33.49
   3  -8  -6  354.61   33.87
   3  -8  -5   10.95    9.25
   3  -8  -5    3.90    9.40
   3  -8  -4   24.32   12.46
   3  -8  -4   42.61   12.11
   3  -8  -3  147.78   21.35
   3  -8  -3  101.72   17.74
   3  -8  -2  879.22   57.52
   3  -8  -2  785.30   58.71
   3  -8  -1   59.76   15.34
   3  -8  -1   32.25   11.94
   3  -8   0   14.01   10.59
   3  -8   0    5.62   12.88
   3  -8   1  194.46   25.68
   3  -8   2  588.81   47.95
   3  -8   3  285.65   31.41
   3  -7 -11  277.96   31.29
   3  -7 -10  238.40   27.65
   3  -7  -9   29.16   11.49
   3  -7  -9    7.67    7.71
   3  -7  -8   88.15   16.48
   3  -7  -8   89.75   15.72
   3  -7  -7  158.09   20.18
   3  -7  -7  157.03   20.78
   3  -7  -7  199.56   21.92
   3  -7  -6  456.02   35.25
   3  -7  -6  446.32   36.45
   3  -7  -6  464.84   38.16
   3  -7  -5  174.65   22.39
   3  -7  -5  200.67   21.85
   3  -7  -4    2.00    9.45
   3  -7  -4   27.94   10.32
   3  -7  -3  264.70   25.81
   3  -7  -3  265.52   27.18
   3  -7  -2  420.50   34.08
   3  -7  -2  433.13   36.87
   3  -7  -1  598.73   41.89
   3  -7  -1  518.16   42.94
   3  -7   0   16.72   11.00
   3  -7   0    3.37    9.16
   3  -7   1  159.42   22.39
   3  -7   2  212.10   25.31
   3  -7   3  322.44   31.94
   3  -6 -12  169.58   25.91
   3  -6 -11  238.45   28.67
   3  -6 -10  149.26   21.80
   3  -6  -9    6.09    9.60
   3  -6  -9   14.34    9.13
   3  -6  -8  102.16   16.61
   3  -6  -8  106.12   16.42
   3  -6  -7  777.56   51.03
   3  -6  -7  701.64   49.39
   3  -6  -7  715.48   50.75
   3  -6  -6  870.40   52.88
   3  -6  -6  771.71   52.13
   3  -6  -6  721.87   52.89
   3  -6  -5  717.46   45.46
   3  -6  -5  634.01   46.14
   3  -6  -5  689.10   48.53
   3  -6  -4   67.35   11.59
   3  -6  -4   69.83   13.84
   3  -6  -4   67.20   13.38
   3  -6  -3  104.01   17.37
   3  -6  -3  176.73   18.53
   3  -6  -2  510.16   37.11
   3  -6  -2  500.01   39.34
   3  -6  -1  257.07   23.70
   3  -6  -1  266.32   26.31
   3  -6   0   53.47   12.65
   3  -6   0   63.52   13.11
   3  -6   1  320.38   26.16
   3  -6   1  221.42   25.20
   3  -6   2  321.66   29.85
   3  -6   3  281.09   28.02
   3  -6   4   57.90   14.40
   3  -5 -12   78.46   20.24
   3  -5 -12   69.99   15.88
   3  -5 -11  211.73   27.43
   3  -5 -11  242.10   25.20
   3  -5 -10  100.15   19.87
   3  -5 -10  126.62   17.18
   3  -5  -9  146.18   21.27
   3  -5  -9  162.20   19.26
   3  -5  -8  172.97   21.84
   3  -5  -8  170.10   19.40
   3  -5  -7  293.37   26.62
   3  -5  -7  282.43   25.76
   3  -5  -7  295.23   27.01
   3  -5  -6  914.59   56.67
   3  -5  -6  878.63   56.44
   3  -5  -6  873.01   57.62
   3  -5  -5  686.07   43.00
   3  -5  -5  625.25   43.01
   3  -5  -5  590.66   44.01
   3  -5  -4   43.58    9.92
   3  -5  -4   25.57   11.24
   3  -5  -4   38.81    9.79
   3  -5  -3  207.62   17.75
   3  -5  -3  196.81   19.43
   3  -5  -3  179.41   20.84
   3  -5  -2 1306.83   76.05
   3  -5  -2 1300.92   78.32
   3  -5  -1  504.28   35.29
   3  -5  -1  478.66   36.94
   3  -5   0  211.65   20.85
   3  -5   0  228.66   23.00
   3  -5   1  230.03   22.13
   3  -5   1  102.78   16.19
   3  -5   2  233.08   23.26
   3  -5   3  224.61   23.72
   3  -5   4  191.56   21.27
   3  -4 -12   28.40   14.27
   3  -4 -12   22.45   11.47
   3  -4 -11  127.65   22.28
   3  -4 -11  173.84   21.41
   3  -4 -10  175.03   23.79
   3  -4 -10  201.31   22.05
   3  -4  -9  125.91   19.43
   3  -4  -9   87.81   14.09
   3  -4  -8    3.61    9.49
   3  -4  -8   10.79    8.24
   3  -4  -8   12.03    8.39
   3  -4  -7  645.75   46.40
   3  -4  -7  688.44   45.77
   3  -4  -7  640.46   45.93
   3  -4  -7  733.27   44.24
   3  -4  -6  586.16   40.08
   3  -4  -6  593.85   39.84
   3  -4  -6  530.05   40.08
   3  -4  -6  570.80   36.58
   3  -4  -5  450.21   32.04
   3  -4  -5  456.35   32.09
   3  -4  -5  381.78   32.24
   3  -4  -4    1.09    6.90
   3  -4  -4    1.42    7.11
   3  -4  -4   17.27    7.91
   3  -4  -3  731.51   42.14
   3  -4  -3  646.82   43.01
   3  -4  -3  632.11   44.75
   3  -4  -2  907.47   51.40
   3  -4  -2  971.73   54.72
   3  -4  -2  783.64   54.72
   3  -4  -1  498.55   33.95
   3  -4  -1  499.17   36.06
   3  -4   0  213.99   17.99
   3  -4   0  152.79   18.18
   3  -4   1   98.02   14.33
   3  -4   1   54.65   11.74
   3  -4   2 1095.24   61.06
   3  -4   2 1050.81   57.13
   3  -4   3  676.06   44.56
   3  -4   3  592.50   42.51
   3  -4   4  876.33   54.24
   3  -4   4  773.36   52.67
   3  -4   5   44.20   12.21
   3  -3 -12   33.56   15.90
   3  -3 -12   37.79   12.51
   3  -3 -11  165.64   25.03
   3  -3 -11  186.10   23.43
   3  -3 -10  420.27   37.71
   3  -3 -10  397.52   33.38
   3  -3  -9   61.67   14.84
   3  -3  -9   35.52   10.64
   3  -3  -8   10.76    8.96
   3  -3  -8   -6.00    6.79
   3  -3  -8    6.82    7.94
   3  -3  -7  385.90   31.99
   3  -3  -7  413.23   30.87
   3  -3  -7  363.48   30.99
   3  -3  -7  417.84   29.56
   3  -3  -6  816.19   51.36
   3  -3  -6  787.53   50.01
   3  -3  -6  763.73   50.71
   3  -3  -6  792.27   47.94
   3  -3  -5  182.13   19.04
   3  -3  -5  203.52   18.91
   3  -3  -5  222.89   20.55
   3  -3  -5  195.12   16.72
   3  -3  -4   -3.18    6.41
   3  -3  -4    3.84    6.84
   3  -3  -4    4.44    5.94
   3  -3  -4    3.41    5.50
   3  -3  -3  398.90   27.00
   3  -3  -3  375.07   27.25
   3  -3  -3  357.67   28.73
   3  -3  -2 1830.92   92.36
   3  -3  -2 1698.57   93.72
   3  -3  -2 1578.44   95.17
   3  -3  -1  971.60   51.69
   3  -3  -1  925.87   54.05
   3  -3  -1  843.71   55.41
   3  -3   0  807.90   46.48
   3  -3   0  732.27   48.05
   3  -3   1  231.93   18.27
   3  -3   1  211.92   14.82
   3  -3   2 1009.20   50.40
   3  -3   2  880.37   45.27
   3  -3   3 1236.31   67.11
   3  -3   3  988.20   63.74
   3  -3   4  912.90   53.11
   3  -3   4  712.04   48.90
   3  -3   5  163.03   19.77
   3  -3   6  198.23   23.14
   3  -3   7  305.82   28.86
   3  -3   8  256.87   27.40
   3  -2 -12   20.62   13.14
   3  -2 -12   19.29   12.02
   3  -2 -11  157.60   23.68
   3  -2 -11  149.76   20.77
   3  -2 -10  278.08   29.70
   3  -2 -10  242.12   25.39
   3  -2  -9   50.38   14.67
   3  -2  -9   42.88   11.45
   3  -2  -8   50.43   13.56
   3  -2  -8   66.37   12.55
   3  -2  -8   49.07   11.64
   3  -2  -7  444.86   34.80
   3  -2  -7  427.46   32.44
   3  -2  -7  418.29   33.16
   3  -2  -7  446.03   31.67
   3  -2  -6 1378.22   78.02
   3  -2  -6 1363.88   76.41
   3  -2  -6 1217.23   76.14
   3  -2  -6 1302.93   74.15
   3  -2  -5  399.88   29.67
   3  -2  -5  403.24   28.76
   3  -2  -5  384.78   29.57
   3  -2  -5  382.90   26.72
   3  -2  -4  319.53   24.59
   3  -2  -4  326.01   24.13
   3  -2  -4  319.69   25.60
   3  -2  -4  310.90   21.59
   3  -2  -3  260.97   21.36
   3  -2  -3  312.68   22.62
   3  -2  -3  286.41   23.35
   3  -2  -3  316.84   19.62
   3  -2  -2 1176.13   62.40
   3  -2  -2 1147.76   63.24
   3  -2  -2 1028.58   64.07
   3  -2  -2 1111.14   59.01
   3  -2  -1 2143.77  110.50
   3  -2  -1 2158.42  109.81
   3  -2  -1 2150.28  112.40
   3  -2  -1 1979.16  113.75
   3  -2  -1 2230.36  107.49
   3  -2  -1 1924.58  109.53
   3  -2   0 1157.53   59.48
   3  -2   0 1160.95   60.62
   3  -2   0 1144.91   61.96
   3  -2   0 1089.98   63.77
   3  -2   0 1011.44   60.08
   3  -2   1  213.76   21.48
   3  -2   1  224.58   18.52
   3  -2   2 1427.13   62.81
   3  -2   2 1065.97   55.43
   3  -2   3 1987.27  109.28
   3  -2   3 2006.59  112.39
   3  -2   4  850.29   51.35
   3  -2   4  876.00   51.62
   3  -2   4  701.35   47.20
   3  -2   5  225.93   22.21
   3  -2   5  190.55   21.05
   3  -2   6   46.99   13.93
   3  -2   6   31.33   12.60
   3  -2   7  729.14   50.30
   3  -2   7  691.90   49.01
   3  -2   8  151.58   20.68
   3  -2   9   99.37   17.76
   3  -2  10    4.80   11.77
   3  -1 -12   19.80   12.33
   3  -1 -11  154.48   24.11
   3  -1 -11  149.97   20.83
   3  -1 -10  280.74   30.81
   3  -1 -10  274.22   27.16
   3  -1  -9   56.47   14.80
   3  -1  -9   62.78   13.74
   3  -1  -8   16.42   10.19
   3  -1  -8   -4.40    8.54
   3  -1  -7  301.80   28.65
   3  -1  -7  337.89   27.64
   3  -1  -7  326.82   27.76
   3  -1  -7  333.50   26.16
   3  -1  -6  775.86   50.15
   3  -1  -6  740.46   48.03
   3  -1  -6  757.32   48.72
   3  -1  -6  750.96   46.89
   3  -1  -5 1260.65   74.04
   3  -1  -5 1284.54   72.84
   3  -1  -5 1246.01   73.64
   3  -1  -5 1273.81   71.06
   3  -1  -4   48.27    9.87
   3  -1  -4   42.09    8.50
   3  -1  -4   56.26    9.99
   3  -1  -4   40.65    7.41
   3  -1  -3   61.19    9.31
   3  -1  -3   34.51    7.88
   3  -1  -3   44.58    9.00
   3  -1  -3   63.52    7.88
   3  -1  -2 1607.26   82.15
   3  -1  -2 1474.76   81.69
   3  -1  -2 1408.00   82.97
   3  -1  -2 1524.20   79.03
   3  -1  -1 5694.55  260.08
   3  -1  -1 5448.16  257.54
   3  -1  -1 5482.54  260.80
   3  -1  -1 5857.97  261.52
   3  -1  -1 5258.77  262.37
   3  -1  -1 5570.76  257.08
   3  -1  -1 4679.04  257.20
   3  -1  -1 4554.46  255.45
   3  -1   0 1554.24   75.51
   3  -1   0 1524.25   75.38
   3  -1   0 1535.94   76.90
   3  -1   0 1593.95   78.17
   3  -1   0 1437.97   78.47
   3  -1   0 1490.63   73.01
   3  -1   0 1490.92   73.93
   3  -1   1  831.53   45.02
   3  -1   1  680.93   36.57
   3  -1   1  676.37   38.37
   3  -1   1  775.92   39.85
   3  -1   1  627.35   40.17
   3  -1   1  622.95   38.22
   3  -1   1  637.74   37.28
   3  -1   2  557.32   36.33
   3  -1   2  551.00   30.36
   3  -1   2  565.96   33.12
   3  -1   3 1779.02   91.24
   3  -1   3 1628.43   87.30
   3  -1   4  873.49   52.29
   3  -1   4  909.69   52.67
   3  -1   4  770.23   48.02
   3  -1   5  263.33   22.27
   3  -1   5  185.05   20.54
   3  -1   6  226.99   22.23
   3  -1   6  201.20   22.06
   3  -1   7  241.02   24.95
   3  -1   7  196.20   23.01
   3  -1   8  641.84   47.83
   3  -1   8  691.49   48.09
   3  -1   9  106.07   17.56
   3  -1  10   13.96   11.43
   3  -1  11   25.20   13.09
   3   0 -11   58.56   14.67
   3   0 -10  114.44   20.95
   3   0 -10  108.67   17.39
   3   0  -9  167.01   23.01
   3   0  -9  148.16   19.14
   3   0  -8   14.91   10.91
   3   0  -8   30.68   10.00
   3   0  -7  136.46   18.27
   3   0  -7  110.75   16.18
   3   0  -7  148.18   16.34
   3   0  -6  963.56   60.80
   3   0  -6  942.80   59.35
   3   0  -6 1003.93   58.63
   3   0  -5 1015.04   60.04
   3   0  -5  930.59   58.25
   3   0  -5  987.72   59.26
   3   0  -5  968.16   56.95
   3   0  -4  825.85   51.46
   3   0  -4  850.72   50.87
   3   0  -4  828.29   51.56
   3   0  -4  853.46   49.32
   3   0  -3   95.92   12.11
   3   0  -3  117.87   12.20
   3   0  -3   74.69    9.82
   3   0  -3  108.32   10.32
   3   0  -3   95.91   12.72
   3   0  -2 1126.23   59.61
   3   0  -2 1089.82   59.04
   3   0  -2 1118.58   60.31
   3   0  -2 1175.16   57.21
   3   0  -1 2044.58  103.31
   3   0  -1 2087.70  107.03
   3   0  -1 2092.59  107.03
   3   0  -1 2057.65  106.50
   3   0  -1 2327.46  108.77
   3   0  -1 2033.13  108.29
   3   0  -1 2049.49  104.80
   3   0  -1 1872.38  103.20
   3   0   0 2633.67  130.64
   3   0   0 2567.15  132.46
   3   0   0 2698.16  133.03
   3   0   0 2530.69  133.83
   3   0   0 2829.34  132.48
   3   0   0 2694.88  130.67
   3   0   0 2197.10  130.23
   3   0   1   48.81    5.74
   3   0   1   44.56    8.30
   3   0   1   59.73    6.30
   3   0   1   65.23    6.83
   3   0   1   57.27    7.91
   3   0   1   37.27    5.18
   3   0   1   60.80    6.51
   3   0   2  702.94   42.63
   3   0   2  663.35   39.42
   3   0   2  723.38   42.72
   3   0   2  686.63   38.42
   3   0   2  725.02   40.91
   3   0   2  649.91   40.57
   3   0   2  759.43   39.86
   3   0   3 2178.96  118.89
   3   0   3 2444.56  119.96
   3   0   3 2108.84  113.21
   3   0   3 2394.68  116.27
   3   0   3 2187.13  115.77
   3   0   4 1274.55   73.97
   3   0   4 1475.74   75.73
   3   0   4 1238.19   69.80
   3   0   5  363.06   27.85
   3   0   5  370.93   28.43
   3   0   6   54.71   13.20
   3   0   6   17.06    9.61
   3   0   7  288.37   25.95
   3   0   7  264.97   25.69
   3   0   8  622.77   45.34
   3   0   8  624.43   45.34
   3   0   9  155.92   20.61
   3   0   9  186.54   22.35
   3   0  10   71.76   16.38
   3   0  11   85.86   17.85
   3   0  12  198.60   26.75
   3   1 -11   39.17   13.92
   3   1 -10  266.26   27.60
   3   1  -9  265.45   26.71
   3   1  -8   58.10   12.15
   3   1  -7   29.59   10.77
   3   1  -7   27.61   10.17
   3   1  -7   41.54   10.43
   3   1  -6  620.97   43.66
   3   1  -6  588.52   41.93
   3   1  -6  601.96   40.34
   3   1  -5  276.49   24.20
   3   1  -5  275.03   23.81
   3   1  -5  254.62   21.47
   3   1  -4  427.85   31.74
   3   1  -4  447.79   31.63
   3   1  -4  448.16   29.92
   3   1  -3  219.69   19.30
   3   1  -3  228.44   18.87
   3   1  -3  212.96   16.39
   3   1  -3  202.41   18.81
   3   1  -3  233.58   17.65
   3   1  -3  212.80   14.77
   3   1  -2 1282.63   71.55
   3   1  -2 1341.04   71.56
   3   1  -2 1318.30   68.66
   3   1  -2 1066.62   69.71
   3   1  -2 1400.55   72.45
   3   1  -2 1370.20   69.75
   3   1  -2 1242.60   67.19
   3   1  -1 1846.58   98.73
   3   1  -1 1770.52   96.71
   3   1  -1 2008.69   99.24
   3   1  -1 1891.50   99.58
   3   1  -1 1781.19   97.24
   3   1  -1 1909.64   96.14
   3   1   0 2083.99  111.45
   3   1   0 2096.00  110.39
   3   1   0 2135.01  112.27
   3   1   0 2153.57  110.55
   3   1   0 2198.55  110.14
   3   1   1  626.33   36.61
   3   1   1  595.74   34.38
   3   1   1  634.79   34.57
   3   1   1  557.61   34.96
   3   1   2  130.89   10.26
   3   1   2  121.99   12.48
   3   1   2  120.10   12.37
   3   1   2  142.47   11.63
   3   1   3 2131.66  104.97
   3   1   3 1682.16   98.77
   3   1   3 2266.22  105.68
   3   1   3 2174.86  101.08
   3   1   3 1753.77   99.72
   3   1   3 2292.08  102.57
   3   1   4 1978.44  106.71
   3   1   4 2255.66  108.48
   3   1   4 2063.73  101.97
   3   1   4 1789.56  101.75
   3   1   5  145.00   16.26
   3   1   5  159.02   16.17
   3   1   6  111.83   15.14
   3   1   6   76.03   12.87
   3   1   7  590.02   41.30
   3   1   7  588.42   42.77
   3   1   8  777.81   51.02
   3   1   8  701.21   50.70
   3   1   9  920.72   62.00
   3   1   9  957.76   62.99
   3   1  10   36.84   11.80
   3   1  10   60.26   13.97
   3   1  11    4.69   10.85
   3   1  11    9.49   10.27
   3   1  12  113.58   20.00
   3   2 -11   77.25   16.64
   3   2 -10  124.42   19.77
   3   2  -9  378.43   33.85
   3   2  -8  195.53   21.87
   3   2  -7  104.59   15.35
   3   2  -6  117.10   17.03
   3   2  -6   85.91   13.70
   3   2  -5 1150.84   68.90
   3   2  -5 1110.39   66.29
   3   2  -4  568.40   38.18
   3   2  -4  508.23   35.14
   3   2  -3   37.88    9.31
   3   2  -3   40.53    8.31
   3   2  -3   32.59    6.78
   3   2  -2  271.97   20.63
   3   2  -2  223.49   15.43
   3   2  -2  230.94   18.35
   3   2  -2  246.09   18.52
   3   2  -2  228.72   16.94
   3   2  -1  561.95   32.85
   3   2  -1  679.89   38.45
   3   2  -1  561.72   33.23
   3   2  -1  668.90   36.40
   3   2  -1  623.97   37.69
   3   2  -1  588.96   36.40
   3   2  -1  616.31   33.29
   3   2  -1  622.03   35.85
   3   2   0  631.62   36.97
   3   2   0  696.66   39.92
   3   2   0  645.70   38.03
   3   2   0  669.70   39.73
   3   2   0  687.12   39.35
   3   2   0  660.39   37.46
   3   2   0  739.60   39.68
   3   2   1  461.68   27.06
   3   2   1  427.01   26.23
   3   2   1  383.54   26.35
   3   2   1  443.64   26.50
   3   2   1  416.20   26.51
   3   2   1  421.49   27.03
   3   2   1  449.56   26.93
   3   2   1  435.76   27.92
   3   2   2  638.88   38.50
   3   2   2  664.46   38.39
   3   2   2  583.15   36.70
   3   2   2  691.39   38.66
   3   2   2  633.29   36.61
   3   2   2  750.15   39.84
   3   2   3 3237.18  148.77
   3   2   3 3082.34  147.48
   3   2   3 3347.74  148.67
   3   2   3 2950.25  143.81
   3   2   3 3539.14  150.16
   3   2   4 2118.95  104.63
   3   2   4 1768.90   99.43
   3   2   4 2221.97  106.16
   3   2   4 1959.86   99.08
   3   2   4 1923.45  100.99
   3   2   5 2451.18  117.81
   3   2   5 2338.20  118.61
   3   2   6   15.01    9.55
   3   2   6   32.54    8.90
   3   2   7  211.47   21.53
   3   2   7  194.86   19.96
   3   2   8  809.51   52.61
   3   2   8  770.21   53.26
   3   2   9  912.60   60.83
   3   2   9  941.92   62.28
   3   2  10  120.17   19.87
   3   2  10  139.89   20.00
   3   2  11   14.28   11.92
   3   2  11   15.99   11.64
   3   2  12  186.72   25.30
   3   2  12  150.24   23.43
   3   2  13  156.99   24.01
   3   3 -10  170.77   23.63
   3   3  -9  209.18   25.00
   3   3  -8  166.97   21.19
   3   3  -7   16.78    9.00
   3   3  -6  589.60   41.61
   3   3  -5  315.99   26.52
   3   3  -4  465.84   33.06
   3   3  -4  468.57   30.77
   3   3  -3    7.53    7.61
   3   3  -3    5.01    6.06
   3   3  -2  698.50   37.81
   3   3  -2  733.42   36.67
   3   3  -1 1139.95   59.49
   3   3  -1  968.42   52.58
   3   3  -1 1124.99   56.98
   3   3  -1 1013.33   53.00
   3   3  -1 1023.51   55.73
   3   3   0 1147.36   62.67
   3   3   0 1105.69   61.77
   3   3   0 1230.89   65.61
   3   3   0 1210.47   63.22
   3   3   0 1154.35   65.20
   3   3   1  771.53   45.92
   3   3   1  838.96   44.74
   3   3   1  825.98   47.79
   3   3   1  799.13   46.56
   3   3   1  842.47   48.59
   3   3   2   57.34    9.70
   3   3   2   56.26    7.53
   3   3   2   67.92    7.67
   3   3   2   48.96    9.15
   3   3   2   78.80   10.62
   3   3   2   50.72   10.99
   3   3   3  899.24   50.65
   3   3   3  845.57   48.96
   3   3   3  801.56   47.56
   3   3   3  898.17   51.28
   3   3   3  860.55   51.60
   3   3   4 1965.66   99.09
   3   3   4 1880.91   96.15
   3   3   4 1631.89   93.33
   3   3   4 1993.41   98.23
   3   3   4 1673.63   94.44
   3   3   4 1916.75   99.59
   3   3   5 1309.91   76.85
   3   3   5 1458.11   75.14
   3   3   5 1220.11   70.73
   3   3   5 1430.21   76.92
   3   3   5 1460.22   78.43
   3   3   6   48.28   11.29
   3   3   6   47.40    9.61
   3   3   7  541.51   37.42
   3   3   7  538.70   39.36
   3   3   8  929.65   59.10
   3   3   8  957.05   61.57
   3   3   9 1246.43   79.21
   3   3   9 1401.08   82.57
   3   3  10   79.22   16.20
   3   3  10   63.11   14.36
   3   3  11   -7.24   11.61
   3   3  11   10.98    9.94
   3   3  12  112.15   20.81
   3   3  12   77.47   17.09
   3   3  13  175.15   25.35
   3   3  13  149.78   23.06
   3   4  -9  196.36   24.92
   3   4  -8   22.16   10.48
   3   4  -7   12.89   10.30
   3   4  -6  283.86   27.24
   3   4  -5  853.20   55.03
   3   4  -4  235.27   23.10
   3   4  -4  289.11   22.48
   3   4  -3  175.66   19.34
   3   4  -3  203.18   18.10
   3   4  -2  276.65   23.47
   3   4  -2  295.85   22.93
   3   4  -1  785.31   46.69
   3   4  -1  922.68   51.17
   3   4  -1  785.29   46.97
   3   4  -1  848.76   49.89
   3   4   0 1426.29   78.06
   3   4   0 1488.58   80.83
   3   4   0 1437.12   78.42
   3   4   0 1433.83   80.75
   3   4   1 1457.06   81.96
   3   4   1 1570.66   78.37
   3   4   1 1465.87   83.76
   3   4   1 1415.15   81.53
   3   4   1 1520.00   82.54
   3   4   1 1620.48   85.54
   3   4   2   22.60    8.39
   3   4   2   19.20    4.76
   3   4   2   17.41    3.80
   3   4   2   23.02    8.98
   3   4   2   17.14    7.86
   3   4   2    6.93    8.92
   3   4   3 1413.56   74.76
   3   4   3 1250.35   69.79
   3   4   3 1446.44   72.20
   3   4   3 1510.78   77.25
   3   4   3 1429.49   75.29
   3   4   4 1120.50   71.06
   3   4   4 1392.39   76.49
   3   4   4 1323.40   71.89
   3   4   4 1297.88   71.80
   3   4   4 1537.50   75.20
   3   4   4 1495.66   77.87
   3   4   4 1474.46   78.31
   3   4   5 1689.34   94.34
   3   4   5 1708.34   90.45
   3   4   5 1581.60   88.57
   3   4   5 1680.42   92.83
   3   4   5 1827.40   95.83
   3   4   6  310.60   26.40
   3   4   6  298.63   23.19
   3   4   6  337.97   26.32
   3   4   6  310.20   27.10
   3   4   7  601.53   43.45
   3   4   7  637.67   41.51
   3   4   7  672.89   44.35
   3   4   7  598.58   44.18
   3   4   8  342.64   28.29
   3   4   8  349.74   30.69
   3   4   9  552.60   41.89
   3   4   9  660.39   46.06
   3   4  10  143.06   21.12
   3   4  10  150.31   20.14
   3   4  11   51.00   14.76
   3   4  11   19.00   10.07
   3   4  12  169.32   24.81
   3   4  12  174.90   23.62
   3   4  13  272.16   31.47
   3   4  13  211.06   27.68
   3   4  14  200.43   27.54
   3   4  14  120.72   22.19
   3   5  -9   81.12   17.14
   3   5  -8   90.89   17.80
   3   5  -7   -4.00    9.27
   3   5  -6  117.56   17.71
   3   5  -5  472.63   37.00
   3   5  -5  472.53   35.07
   3   5  -4  450.31   36.19
   3   5  -4  494.24   34.95
   3   5  -3  222.09   21.76
   3   5  -3  208.28   20.48
   3   5  -2   53.46   12.21
   3   5  -2   55.86   11.74
   3   5  -1  810.02   50.16
   3   5  -1  994.60   55.22
   3   5  -1  819.46   50.68
   3   5  -1  900.53   53.60
   3   5   0 1364.25   77.85
   3   5   0 1585.80   81.92
   3   5   0 1325.76   77.90
   3   5   0 1422.19   80.88
   3   5   1 1362.39   79.11
   3   5   1 1473.52   81.41
   3   5   1 1358.40   79.44
   3   5   1 1571.55   83.12
   3   5   2   64.66   11.16
   3   5   2   83.87    7.74
   3   5   2   64.60   11.38
   3   5   2   48.62   11.26
   3   5   2   54.50   12.73
   3   5   3  236.95   21.33
   3   5   3  236.76   15.72
   3   5   3  243.65   17.89
   3   5   3  222.20   23.81
   3   5   3  301.65   18.88
   3   5   3  248.74   22.13
   3   5   3  252.17   19.02
   3   5   4 2329.84  123.96
   3   5   4 2170.60  117.30
   3   5   4 2288.18  120.56
   3   5   4 2422.14  125.17
   3   5   4 2516.11  126.68
   3   5   4 2181.29  119.32
   3   5   5  227.00   17.25
   3   5   5  221.81   21.65
   3   5   5  190.91   22.14
   3   5   5  247.34   24.11
   3   5   6  104.63   16.40
   3   5   6  120.95   14.86
   3   5   6   98.35   11.62
   3   5   6  110.00   16.99
   3   5   7  127.16   18.42
   3   5   7  145.60   18.16
   3   5   7  160.81   16.18
   3   5   7  164.20   20.94
   3   5   8 1188.52   75.38
   3   5   8 1241.43   72.53
   3   5   8 1255.17   75.73
   3   5   8 1230.55   76.89
   3   5   9  259.30   25.83
   3   5   9  251.64   26.01
   3   5   9  208.58   22.10
   3   5   9  220.56   25.88
   3   5  10  326.62   29.71
   3   5  10  345.08   32.47
   3   5  11   -2.43   10.77
   3   5  11    8.07   10.26
   3   5  12  103.57   20.25
   3   5  12   80.60   17.37
   3   5  13  275.36   32.11
   3   5  13  218.35   27.58
   3   5  14  198.14   28.62
   3   5  14  201.97   26.63
   3   6  -8   39.50   14.68
   3   6  -7   17.41   12.19
   3   6  -6   72.78   15.57
   3   6  -5  411.04   35.31
   3   6  -5  389.68   33.02
   3   6  -4  711.44   49.81
   3   6  -4  716.91   48.76
   3   6  -3  202.99   21.77
   3   6  -3  189.41   21.32
   3   6  -2   59.77   13.51
   3   6  -2   73.68   14.37
   3   6  -1  488.72   35.72
   3   6  -1  600.60   40.34
   3   6  -1  543.10   37.06
   3   6  -1  615.99   40.09
   3   6   0  775.34   50.75
   3   6   0  910.88   54.70
   3   6   0  813.32   51.66
   3   6   0  929.06   55.23
   3   6   1  521.30   37.54
   3   6   1  636.98   40.92
   3   6   1  574.01   38.86
   3   6   1  590.59   40.96
   3   6   2   19.66    9.98
   3   6   2   15.55   11.14
   3   6   2   29.73   10.03
   3   6   2   26.81   10.77
   3   6   3  629.84   42.44
   3   6   3  654.57   37.67
   3   6   3  605.56   42.82
   3   6   3  671.85   45.75
   3   6   4  776.07   50.67
   3   6   4  774.24   46.36
   3   6   4  795.37   51.57
   3   6   4  804.25   52.91
   3   6   5  885.26   56.34
   3   6   5  856.49   52.44
   3   6   5  856.48   56.58
   3   6   5  922.06   58.52
   3   6   6   87.29   15.50
   3   6   6  104.49   14.17
   3   6   6  116.85   17.85
   3   6   6   63.81   16.45
   3   6   7  194.65   22.15
   3   6   7  172.19   19.57
   3   6   7  174.06   16.61
   3   6   7  183.42   22.11
   3   6   8  211.05   23.16
   3   6   8  185.11   21.67
   3   6   8  176.73   18.33
   3   6   8  219.50   25.05
   3   6   9  927.51   60.56
   3   6   9  784.38   54.32
   3   6   9  895.61   59.67
   3   6   9  950.75   62.02
   3   6  10  132.08   20.92
   3   6  10  158.53   21.44
   3   6  10  140.56   18.48
   3   6  10  201.74   24.67
   3   6  11   19.47   12.17
   3   6  11    7.70    9.11
   3   6  12  111.68   21.04
   3   6  12   98.48   17.56
   3   6  13  449.09   41.41
   3   6  13  317.95   34.54
   3   6  14  178.12   27.44
   3   6  14  148.66   23.32
   3   7  -6  -11.03   12.16
   3   7  -5  278.77   29.76
   3   7  -5  299.56   29.64
   3   7  -4  427.71   38.22
   3   7  -4  530.84   39.28
   3   7  -3  132.21   18.35
   3   7  -3  111.82   16.91
   3   7  -2   41.75   13.05
   3   7  -2   29.61   12.43
   3   7  -1  527.04   39.22
   3   7  -1  630.60   43.84
   3   7  -1  649.09   41.62
   3   7  -1  604.51   43.39
   3   7   0  773.60   49.48
   3   7   0  686.84   49.21
   3   7   0  790.60   52.56
   3   7   1  339.92   29.53
   3   7   1  421.96   32.40
   3   7   1  424.21   31.26
   3   7   1  344.91   32.07
   3   7   2  221.01   22.05
   3   7   2  227.85   23.15
   3   7   2  259.63   23.55
   3   7   2  226.48   24.51
   3   7   3  327.20   27.91
   3   7   3  305.20   28.10
   3   7   3  373.94   32.22
   3   7   4  495.06   37.62
   3   7   4  481.39   37.96
   3   7   4  576.22   41.95
   3   7   5  564.86   41.63
   3   7   5  546.68   37.38
   3   7   5  589.03   42.94
   3   7   5  629.08   44.79
   3   7   6   75.67   15.82
   3   7   6   73.70   12.51
   3   7   6   51.96   14.99
   3   7   6   91.67   17.16
   3   7   7    5.63   12.01
   3   7   7    4.60    9.72
   3   7   7    5.98   12.48
   3   7   7    4.03   11.72
   3   7   8  749.45   53.12
   3   7   8  714.39   50.36
   3   7   8  751.32   53.62
   3   7   9  689.96   49.84
   3   7   9  597.72   46.97
   3   7   9  708.92   51.63
   3   7  10  487.67   40.84
   3   7  10  420.81   38.78
   3   7  10  529.40   42.92
   3   7  11  129.33   21.89
   3   7  11  166.11   23.24
   3   7  11  160.80   24.30
   3   7  12   47.97   15.89
   3   7  13  225.12   29.18
   3   7  13  189.02   24.46
   3   7  14  129.66   24.01
   3   7  14  129.70   21.40
   3   8  -5  305.82   31.20
   3   8  -4  396.96   38.67
   3   8  -4  504.80   40.03
   3   8  -3  156.21   21.97
   3   8  -3  167.78   21.71
   3   8  -2   -7.73   10.95
   3   8  -2   11.92   12.16
   3   8  -1  162.97   20.89
   3   8  -1  142.05   20.78
   3   8   0  493.05   37.88
   3   8   0  581.46   41.80
   3   8   0  496.76   38.45
   3   8   0  541.58   41.90
   3   8   1  818.26   52.68
   3   8   1  747.80   53.00
   3   8   1  810.05   53.11
   3   8   1  768.84   55.11
   3   8   2   21.04   11.27
   3   8   2   11.88   12.44
   3   8   2   17.07   11.32
   3   8   2   23.62   11.41
   3   8   3   18.39   12.24
   3   8   3   26.08   11.74
   3   8   3   -6.08   11.50
   3   8   4  899.18   59.77
   3   8   4  910.92   60.27
   3   8   4  937.09   62.77
   3   8   5 1387.42   83.66
   3   8   5 1250.54   82.98
   3   8   5 1501.47   87.13
   3   8   6  216.52   25.36
   3   8   6  209.07   25.32
   3   8   6  260.31   27.67
   3   8   7  250.39   26.18
   3   8   7  167.50   19.95
   3   8   7  200.15   25.57
   3   8   7  225.51   27.54
   3   8   8  302.83   29.72
   3   8   8  239.14   25.49
   3   8   8  271.92   29.58
   3   8   8  237.47   28.62
   3   8   9  543.32   43.40
   3   8   9  459.30   39.93
   3   8   9  565.64   44.52
   3   8  10  337.36   34.99
   3   8  10  372.28   34.73
   3   8  10  392.68   37.19
   3   8  11   68.35   17.70
   3   8  11   78.56   17.18
   3   8  11   96.76   19.54
   3   8  12   50.86   15.37
   3   8  13  153.03   24.50
   3   8  14  329.98   36.89
   3   9  -5   86.38   19.27
   3   9  -4  188.51   25.49
   3   9  -3   95.16   18.55
   3   9  -2    2.11   10.34
   3   9  -2   13.61   12.50
   3   9  -1  244.14   27.21
   3   9  -1  242.34   27.69
   3   9   0  620.72   46.22
   3   9   0  648.90   48.90
   3   9   0  667.56   47.71
   3   9   0  715.70   51.97
   3   9   1  524.38   42.82
   3   9   1  621.32   45.40
   3   9   1  624.53   44.85
   3   9   1  604.68   46.74
   3   9   2  516.79   38.61
   3   9   2  460.53   38.23
   3   9   2  439.17   37.53
   3   9   2  498.60   41.51
   3   9   3   88.06   16.42
   3   9   3   68.27   16.13
   3   9   3  120.10   19.86
   3   9   4  134.15   19.81
   3   9   4  166.54   21.72
   3   9   4  154.97   24.28
   3   9   5  986.93   68.68
   3   9   5 1058.60   69.88
   3   9   5 1200.22   73.93
   3   9   6  601.95   47.38
   3   9   6  667.57   49.28
   3   9   6  651.08   50.56
   3   9   7   21.83   13.62
   3   9   7   32.10   15.09
   3   9   7   49.99   16.14
   3   9   8  104.61   19.07
   3   9   8   91.09   15.99
   3   9   8   81.55   19.27
   3   9   8  108.73   20.06
   3   9   9  574.00   45.56
   3   9   9  440.21   39.65
   3   9   9  577.33   46.83
   3   9   9  590.47   47.01
   3   9  10  362.58   36.36
   3   9  10  331.04   33.44
   3   9  10  445.12   39.71
   3   9  11   67.15   17.33
   3   9  11   54.19   15.01
   3   9  11   60.28   17.22
   3   9  12    8.05   11.34
   3   9  13   78.02   18.71
   3  10  -4  155.11   24.12
   3  10  -3   88.07   19.60
   3  10  -2    2.55   12.28
   3  10  -1   95.25   20.08
   3  10   0  420.10   37.32
   3  10   0  464.95   38.57
   3  10   0  442.76   40.62
   3  10   1  404.85   34.95
   3  10   1  345.19   34.90
   3  10   1  393.65   35.65
   3  10   1  403.61   38.68
   3  10   2  228.79   26.69
   3  10   2  222.15   26.56
   3  10   2  247.43   28.91
   3  10   3   12.51   11.66
   3  10   3    2.17   11.42
   3  10   3   17.39   15.03
   3  10   4  365.70   34.71
   3  10   4  377.58   35.51
   3  10   4  440.75   39.56
   3  10   5  955.70   68.09
   3  10   5 1064.38   70.12
   3  10   5 1079.44   72.18
   3  10   6  658.06   50.85
   3  10   6  640.29   51.29
   3  10   6  732.46   54.52
   3  10   7   91.72   19.31
   3  10   7  110.77   21.07
   3  10   7   87.79   20.08
   3  10   8   24.44   14.06
   3  10   8   20.58   13.11
   3  10   8    5.19   13.45
   3  10   9  257.95   30.32
   3  10   9  259.63   31.55
   3  10   9  293.55   32.74
   3  10  10  210.22   27.16
   3  10  10  176.97   23.50
   3  10  10  198.61   27.46
   3  10  11   64.76   17.64
   3  10  11   39.39   14.91
   3  10  11   48.96   17.59
   3  10  12   26.79   13.45
   3  10  13  149.93   24.27
   3  11  -2    5.62   13.01
   3  11  -1   52.74   16.58
   3  11   0  186.58   26.51
   3  11   1  513.87   43.77
   3  11   1  540.40   44.64
   3  11   1  533.27   47.70
   3  11   2  261.47   28.53
   3  11   2  245.32   28.60
   3  11   2  216.45   29.66
   3  11   3   -4.59   12.09
   3  11   3  -13.62   13.40
   3  11   3  -26.30   13.76
   3  11   4  165.70   23.15
   3  11   4  143.31   23.63
   3  11   5  374.10   37.31
   3  11   5  395.18   38.41
   3  11   5  496.21   43.72
   3  11   6  399.02   40.07
   3  11   6  521.97   44.38
   3  11   6  522.39   45.69
   3  11   7   10.12   12.66
   3  11   7   18.49   14.56
   3  11   7    8.33   12.86
   3  11   8   31.22   15.43
   3  11   8   21.86   15.35
   3  11   8   49.96   17.66
   3  11   9  325.31   34.99
   3  11   9  363.39   37.53
   3  11   9  280.99   34.09
   3  11  10  279.18   33.08
   3  11  10  296.29   35.29
   3  11  11  193.37   27.75
   3  11  11  194.12   28.39
   3  11  12  -15.99   13.10
   3  11  13   45.78   15.69
   3  12   0  138.24   26.14
   3  12   1  133.63   22.19
   3  12   1  157.97   24.25
   3  12   1  164.95   26.40
   3  12   2  184.49   25.56
   3  12   2  182.44   26.11
   3  12   2  178.28   28.38
   3  12   3    2.49   12.68
   3  12   3   10.40   12.28
   3  12   3    8.95   14.36
   3  12   4  151.86   23.09
   3  12   4  137.02   23.67
   3  12   5  448.39   41.84
   3  12   5  424.77   41.74
   3  12   5  486.92   45.37
   3  12   6  257.17   30.91
   3  12   6  237.08   31.06
   3  12   6  291.58   34.29
   3  12   7  113.83   22.20
   3  12   7  146.47   24.36
   3  12   7   98.06   23.03
   3  12   8   11.10   14.45
   3  12   8   46.32   17.15
   3  12   8   53.09   17.91
   3  12   9  164.75   25.37
   3  12   9  131.70   24.75
   3  12  10  273.14   32.54
   3  12  10  276.96   34.74
   3  12  11  236.85   31.57
   3  12  11  264.99   34.25
   3  13   2   55.46   17.71
   3  13   2   66.00   18.24
   3  13   3   37.51   15.02
   3  13   3   27.86   14.46
   3  13   3    6.37   15.37
   3  13   4  174.05   25.69
   3  13   4  169.85   27.14
   3  13   4  202.19   30.85
   3  13   5  132.86   23.72
   3  13   5  126.48   23.00
   3  13   5  187.68   29.37
   3  13   6  268.19   33.10
   3  13   6  283.58   33.74
   3  13   6  274.85   34.65
   3  13   7   60.26   17.77
   3  13   7   83.79   21.51
   3  13   7   34.57   16.21
   3  13   8   -2.92   14.60
   3  13   8   -3.06   13.58
   3  13   9  181.59   27.31
   3  13   9  184.93   28.76
   3  13  10  308.80   36.32
   3  13  10  352.21   38.72
   4  -9  -8  111.36   18.89
   4  -9  -7   45.84   13.71
   4  -9  -6  107.80   19.83
   4  -9  -6   88.50   18.06
   4  -9  -5  296.93   32.19
   4  -9  -5  256.56   28.40
   4  -9  -4  391.10   35.33
   4  -9  -4  392.63   37.96
   4  -9  -3  314.41   33.90
   4  -9  -3  294.28   30.14
   4  -9  -2   -5.38   12.70
   4  -9  -2   10.82   10.62
   4  -9  -1   54.25   16.22
   4  -9   0  150.39   23.99
   4  -8  -9  217.77   27.56
   4  -8  -9  297.68   29.62
   4  -8  -8  240.20   26.86
   4  -8  -7   61.90   15.08
   4  -8  -7   66.92   14.76
   4  -8  -6    9.62   10.41
   4  -8  -6    8.51    9.21
   4  -8  -5  366.55   33.34
   4  -8  -5  352.00   35.84
   4  -8  -4  320.31   30.54
   4  -8  -4  283.58   31.32
   4  -8  -3  263.50   29.81
   4  -8  -3  211.70   24.43
   4  -8  -2   12.42   11.25
   4  -8  -2   -2.00    8.25
   4  -8  -1   37.57   13.74
   4  -8  -1   43.37   12.51
   4  -8   0  237.77   28.99
   4  -8   1  237.10   28.67
   4  -8   2   74.43   17.53
   4  -7 -10   75.32   17.42
   4  -7  -9  334.94   33.07
   4  -7  -9  344.30   32.87
   4  -7  -8  358.12   34.62
   4  -7  -8  451.52   37.11
   4  -7  -7   60.70   13.54
   4  -7  -7   80.40   16.10
   4  -7  -7   56.69   13.89
   4  -7  -6   13.39   10.55
   4  -7  -6    7.90    9.34
   4  -7  -5  339.86   30.22
   4  -7  -5  281.86   31.00
   4  -7  -4  312.32   30.91
   4  -7  -4  250.41   26.31
   4  -7  -3  343.91   31.10
   4  -7  -3  401.56   36.19
   4  -7  -2   83.83   17.22
   4  -7  -2   83.93   14.80
   4  -7  -1   34.22   12.47
   4  -7  -1   28.65   10.26
   4  -7   0  119.75   19.74
   4  -7   0  133.42   17.66
   4  -7   1  329.96   33.02
   4  -7   2  129.00   20.81
   4  -7   3   -2.37    9.74
   4  -6 -10    7.33   12.65
   4  -6  -9  302.97   31.50
   4  -6  -9  304.92   29.83
   4  -6  -8   97.79   17.65
   4  -6  -8   96.09   16.22
   4  -6  -7  116.79   17.92
   4  -6  -7  104.53   17.06
   4  -6  -7  111.03   18.94
   4  -6  -6    6.71    7.92
   4  -6  -6    2.07    8.74
   4  -6  -6   -1.83    8.13
   4  -6  -5  323.09   28.79
   4  -6  -5  291.79   29.80
   4  -6  -4  346.70   29.45
   4  -6  -4  303.81   30.75
   4  -6  -3  654.27   45.36
   4  -6  -3  614.73   47.68
   4  -6  -2  112.78   17.95
   4  -6  -2  107.45   16.08
   4  -6  -1   -6.17    9.91
   4  -6  -1   -8.08    7.63
   4  -6   0  310.99   27.30
   4  -6   0  316.82   30.85
   4  -6   1  513.67   41.57
   4  -6   2   84.40   16.72
   4  -6   3   65.87   15.75
   4  -5 -11   26.15   13.58
   4  -5 -10   -4.85   11.21
   4  -5  -9  122.78   19.77
   4  -5  -9   92.04   16.09
   4  -5  -8  249.28   27.56
   4  -5  -8  328.74   28.96
   4  -5  -7   56.32   13.27
   4  -5  -7   33.86   10.49
   4  -5  -7   56.97   13.82
   4  -5  -6   31.03   10.83
   4  -5  -6   44.48   11.45
   4  -5  -6   32.79   11.94
   4  -5  -5  103.57   14.68
   4  -5  -5   96.31   16.72
   4  -5  -5   85.14   14.69
   4  -5  -4  343.02   28.36
   4  -5  -4  304.17   29.71
   4  -5  -3  517.30   37.75
   4  -5  -3  521.94   40.56
   4  -5  -2    9.20    8.55
   4  -5  -2   22.12    8.84
   4  -5  -1   42.29   12.33
   4  -5  -1   41.70   10.28
   4  -5   0  801.88   51.41
   4  -5   0  807.26   54.96
   4  -5   1  922.25   56.81
   4  -5   1  909.51   60.64
   4  -5   2  407.63   32.79
   4  -5   2  355.41   32.28
   4  -5   3   81.38   15.28
   4  -4 -11   36.67   15.36
   4  -4 -10   17.04   13.23
   4  -4  -9   70.73   16.10
   4  -4  -9   63.53   14.00
   4  -4  -8  245.33   27.06
   4  -4  -8  274.97   26.92
   4  -4  -7  296.25   28.20
   4  -4  -7  279.53   26.39
   4  -4  -7  276.33   27.65
   4  -4  -6    6.49    8.26
   4  -4  -6    4.80    6.93
   4  -4  -6    7.22    8.18
   4  -4  -5   38.75   10.28
   4  -4  -5   50.18   11.15
   4  -4  -5   43.75   11.30
   4  -4  -4  660.94   41.85
   4  -4  -4  569.62   42.15
   4  -4  -4  636.51   45.02
   4  -4  -3  729.99   43.43
   4  -4  -3  640.07   44.07
   4  -4  -3  624.36   46.22
   4  -4  -2  130.47   18.19
   4  -4  -2  162.54   17.12
   4  -4  -1   93.22   14.70
   4  -4  -1   89.97   12.90
   4  -4   0  545.66   37.00
   4  -4   0  535.81   39.80
   4  -4   1 1339.18   72.66
   4  -4   1 1136.14   74.67
   4  -4   2  223.98   22.14
   4  -4   2  157.35   19.91
   4  -4   3   64.39   13.26
   4  -4   3   59.54   12.77
   4  -4   4  127.87   17.99
   4  -4   5  534.38   41.62
   4  -3 -11  146.30   23.54
   4  -3 -11   79.04   16.49
   4  -3 -10   21.77   12.13
   4  -3 -10   17.99    9.81
   4  -3  -9   64.42   16.33
   4  -3  -9   70.89   12.91
   4  -3  -8  137.54   20.59
   4  -3  -8  157.65   19.99
   4  -3  -8  154.46   17.84
   4  -3  -7  348.72   31.00
   4  -3  -7  366.16   30.13
   4  -3  -7  308.52   29.93
   4  -3  -6   11.34    8.80
   4  -3  -6    7.65    6.94
   4  -3  -6    3.41    7.56
   4  -3  -5  187.70   19.29
   4  -3  -5  156.84   18.29
   4  -3  -5  170.43   20.23
   4  -3  -4  873.55   53.22
   4  -3  -4  891.24   53.84
   4  -3  -4  773.39   54.35
   4  -3  -3 1442.84   79.05
   4  -3  -3 1397.32   80.01
   4  -3  -3 1320.59   81.64
   4  -3  -2  264.56   22.78
   4  -3  -2  246.37   24.38
   4  -3  -1   24.61    9.52
   4  -3  -1   17.91    7.08
   4  -3   0  421.43   29.04
   4  -3   0  387.74   30.96
   4  -3   1  827.36   48.54
   4  -3   1  767.05   51.25
   4  -3   2  915.15   55.14
   4  -3   2  869.01   49.86
   4  -3   3   23.97    8.89
   4  -3   3   28.53    9.61
   4  -3   4    3.42    7.76
   4  -3   4   15.82    8.49
   4  -3   5  183.00   21.73
   4  -3   6  783.50   54.97
   4  -3   7  109.02   18.18
   4  -3   8   18.34   10.65
   4  -2 -11   42.03   16.08
   4  -2 -11   57.22   14.27
   4  -2 -10   -9.74   11.73
   4  -2 -10    5.59    8.63
   4  -2  -9  171.73   23.14
   4  -2  -9  157.70   19.60
   4  -2  -8  333.34   33.25
   4  -2  -8  367.29   32.04
   4  -2  -8  367.15   29.62
   4  -2  -7  728.33   54.06
   4  -2  -7  813.60   53.77
   4  -2  -7  799.83   54.39
   4  -2  -7  859.60   51.54
   4  -2  -6  115.97   17.47
   4  -2  -6  130.73   17.13
   4  -2  -6  108.12   16.60
   4  -2  -6  105.38   13.56
   4  -2  -5   77.18   13.62
   4  -2  -5   66.08   12.33
   4  -2  -5   83.78   14.96
   4  -2  -5   73.96   10.90
   4  -2  -4  540.38   36.29
   4  -2  -4  494.19   35.37
   4  -2  -4  487.86   37.06
   4  -2  -3 1157.23   65.35
   4  -2  -3 1087.56   65.13
   4  -2  -3 1094.69   67.30
   4  -2  -2  345.58   24.77
   4  -2  -2  326.33   25.19
   4  -2  -2  348.72   27.69
   4  -2  -1   11.65    5.78
   4  -2  -1    5.14    6.76
   4  -2  -1   -2.00    5.35
   4  -2   0  454.17   29.66
   4  -2   0  418.80   31.38
   4  -2   1 1010.54   57.90
   4  -2   1  879.29   52.70
   4  -2   1  894.92   55.88
   4  -2   2  711.38   43.36
   4  -2   2  687.06   46.34
   4  -2   3  454.68   33.52
   4  -2   3  406.08   30.64
   4  -2   4    6.44    8.60
   4  -2   4    1.22    6.40
   4  -2   5  392.57   32.82
   4  -2   6  357.71   32.20
   4  -2   6  412.65   33.55
   4  -2   7  419.93   37.06
   4  -2   7  487.91   37.93
   4  -2   8   -6.64    9.81
   4  -2   9   59.65   14.73
   4  -2  10  227.48   28.12
   4  -1 -11   92.23   21.15
   4  -1 -11  111.86   18.76
   4  -1 -10   14.79   12.58
   4  -1 -10   30.89   12.28
   4  -1  -9  294.62   30.93
   4  -1  -9  222.09   24.28
   4  -1  -8  197.77   24.51
   4  -1  -8  208.66   23.31
   4  -1  -8  203.03   21.40
   4  -1  -7  840.18   58.31
   4  -1  -7  847.30   56.92
   4  -1  -7  886.37   57.77
   4  -1  -7  892.83   55.16
   4  -1  -6   81.57   15.22
   4  -1  -6  116.13   15.84
   4  -1  -6  111.77   16.42
   4  -1  -6   92.58   12.98
   4  -1  -5   19.16    8.57
   4  -1  -5   30.44    9.05
   4  -1  -5   28.70   10.56
   4  -1  -5   27.82    7.52
   4  -1  -4  414.31   30.70
   4  -1  -4  395.94   29.46
   4  -1  -4  378.96   30.60
   4  -1  -4  382.60   26.34
   4  -1  -3 1336.79   72.55
   4  -1  -3 1260.77   71.91
   4  -1  -3 1150.15   72.83
   4  -1  -3 1246.84   68.24
   4  -1  -2  559.11   34.78
   4  -1  -2  536.80   34.69
   4  -1  -2  512.99   36.47
   4  -1  -2  510.82   31.00
   4  -1  -1  164.98   14.33
   4  -1  -1  151.91   14.42
   4  -1  -1  136.10   15.45
   4  -1   0    7.90    5.01
   4  -1   0   13.42    5.90
   4  -1   0   18.81    7.98
   4  -1   1  757.63   45.60
   4  -1   1  678.31   40.66
   4  -1   1  659.76   42.89
   4  -1   2 1005.50   56.15
   4  -1   2  854.28   49.54
   4  -1   2  843.80   52.19
   4  -1   3  242.20   22.02
   4  -1   3  224.97   19.29
   4  -1   4   67.03   13.26
   4  -1   4   63.51   10.25
   4  -1   5  463.62   35.77
   4  -1   5  464.32   35.68
   4  -1   6 1357.07   85.32
   4  -1   6 1518.65   87.04
   4  -1   7  409.28   34.91
   4  -1   7  429.98   35.48
   4  -1   8    2.04    8.16
   4  -1   8   12.64    9.55
   4  -1   9   59.53   13.99
   4  -1  10  208.15   26.41
   4  -1  11  169.93   24.21
   4   0 -11  237.73   27.35
   4   0 -10   22.17   10.48
   4   0  -9   41.31   15.23
   4   0  -9   60.56   13.67
   4   0  -8  180.89   23.79
   4   0  -8  174.12   20.51
   4   0  -7  543.80   42.49
   4   0  -7  520.29   40.51
   4   0  -7  549.42   38.88
   4   0  -6  142.23   19.42
   4   0  -6  146.48   18.16
   4   0  -6  132.36   18.11
   4   0  -6  134.86   16.23
   4   0  -5   30.34   11.37
   4   0  -5   22.88    8.97
   4   0  -5   28.74   10.60
   4   0  -5   35.67    8.80
   4   0  -4  388.80   29.31
   4   0  -4  330.66   27.55
   4   0  -4  348.38   28.76
   4   0  -4  357.11   25.43
   4   0  -3  370.12   28.74
   4   0  -3  394.61   28.41
   4   0  -3  361.82   28.77
   4   0  -3  385.59   25.66
   4   0  -2  553.66   33.74
   4   0  -2  471.50   32.62
   4   0  -2  472.79   33.78
   4   0  -2  472.28   30.09
   4   0  -1 1106.65   60.16
   4   0  -1  997.27   59.71
   4   0  -1 1033.70   61.54
   4   0  -1 1059.47   57.38
   4   0   0 1832.84   87.68
   4   0   0 1765.01   90.49
   4   0   0 1801.47   92.59
   4   0   0 1806.05   87.96
   4   0   1    5.69    6.89
   4   0   1    8.54    3.24
   4   0   1    2.82    3.89
   4   0   1    6.57    6.01
   4   0   1    5.87    2.95
   4   0   2 2865.30  143.00
   4   0   2 2629.52  136.92
   4   0   2 2672.29  139.50
   4   0   2 2569.00  136.66
   4   0   3  520.54   35.52
   4   0   3  521.48   35.38
   4   0   3  493.09   29.22
   4   0   3  480.80   31.62
   4   0   4  300.64   24.41
   4   0   4  317.39   25.19
   4   0   4  233.25   19.46
   4   0   5  327.32   27.82
   4   0   5  337.54   28.06
   4   0   6 1471.59   87.69
   4   0   6 1507.74   88.40
   4   0   7  312.48   29.17
   4   0   7  356.55   30.39
   4   0   8   59.30   12.81
   4   0   8   49.74   12.89
   4   0   9  179.90   22.36
   4   0   9  178.67   22.69
   4   0  10  297.36   29.95
   4   0  10  218.76   27.44
   4   0  11  228.99   28.41
   4   0  12  159.43   24.11
   4   1 -10   67.82   15.09
   4   1  -9   31.06   11.70
   4   1  -8  321.28   29.41
   4   1  -7  438.06   36.62
   4   1  -7  422.67   33.64
   4   1  -6  390.90   34.05
   4   1  -6  442.96   32.40
   4   1  -5  184.27   20.87
   4   1  -5  171.25   19.90
   4   1  -5  179.32   18.20
   4   1  -4   53.72   12.74
   4   1  -4   53.86   12.12
   4   1  -4   58.30   12.24
   4   1  -4   73.69   11.04
   4   1  -3  523.62   35.59
   4   1  -3  501.49   35.94
   4   1  -3  503.17   33.01
   4   1  -2  367.83   27.80
   4   1  -2  375.41   28.51
   4   1  -2  403.37   26.20
   4   1  -1  383.24   27.52
   4   1  -1  375.98   25.28
   4   1  -1  423.73   28.61
   4   1  -1  412.85   26.06
   4   1   0  118.27   12.26
   4   1   0  124.74   11.39
   4   1   0  112.22   12.73
   4   1   1 2085.99  114.87
   4   1   1 2329.32  114.43
   4   1   1 2131.24  116.09
   4   1   2 1167.38   63.55
   4   1   2 1038.46   58.84
   4   1   2 1074.94   60.47
   4   1   3  628.29   39.77
   4   1   3  568.58   34.13
   4   1   3  678.09   40.42
   4   1   3  593.69   36.06
   4   1   4   -1.27    7.00
   4   1   4   11.15    7.85
   4   1   4    4.64    4.43
   4   1   5  950.45   60.17
   4   1   5 1033.39   61.45
   4   1   6 1044.91   64.00
   4   1   6 1022.64   64.62
   4   1   7  456.70   36.22
   4   1   7  480.51   36.92
   4   1   8  220.59   24.49
   4   1   8  225.73   24.43
   4   1   9   78.39   15.96
   4   1   9   76.54   15.11
   4   1  10  105.76   18.26
   4   1  10   70.34   15.43
   4   1  11  286.59   31.73
   4   1  11  301.85   31.94
   4   1  12  190.15   25.90
   4   2 -10   24.60   12.19
   4   2  -9    6.19   10.50
   4   2  -8  138.30   19.01
   4   2  -7  372.62   34.01
   4   2  -7  314.09   29.17
   4   2  -6  300.45   29.55
   4   2  -6  305.68   26.60
   4   2  -5    1.69    8.43
   4   2  -5    4.07    7.14
   4   2  -4   93.06   15.59
   4   2  -4  116.06   14.62
   4   2  -3 1683.23   93.30
   4   2  -3 1593.33   90.20
   4   2  -2 1849.96  102.97
   4   2  -2 1792.60  102.74
   4   2  -2 1907.05  100.74
   4   2  -1  844.72   53.13
   4   2  -1  907.98   53.85
   4   2  -1  864.43   51.85
   4   2  -1  940.63   50.82
   4   2   0   13.16    5.58
   4   2   0    8.64    5.84
   4   2   0   12.44    5.94
   4   2   0   13.80    6.12
   4   2   1  546.65   35.08
   4   2   1  558.48   35.19
   4   2   1  589.10   35.18
   4   2   2 1415.75   78.28
   4   2   2 1296.84   75.66
   4   2   2 1518.08   78.66
   4   2   2 1475.36   77.07
   4   2   2 1392.70   76.32
   4   2   3  570.48   36.16
   4   2   3  512.93   32.11
   4   2   3  618.39   36.90
   4   2   3  548.86   32.94
   4   2   4    8.24    6.59
   4   2   4    4.46    6.42
   4   2   4   10.12    4.23
   4   2   5  253.85   21.98
   4   2   5  253.23   22.61
   4   2   6  976.56   62.68
   4   2   6 1118.93   65.23
   4   2   7  445.76   34.36
   4   2   7  443.64   35.18
   4   2   8  345.91   30.85
   4   2   8  420.09   33.76
   4   2   9    6.30    8.41
   4   2   9    3.89    9.01
   4   2  10  188.21   24.25
   4   2  10  166.25   21.69
   4   2  11  218.78   26.74
   4   2  11  213.46   26.39
   4   2  12  209.74   27.60
   4   2  12  221.66   27.24
   4   2  13    8.32   10.81
   4   3  -9    4.39   10.16
   4   3  -8   80.09   15.64
   4   3  -7  398.11   34.08
   4   3  -6  130.20   17.75
   4   3  -5  114.11   15.84
   4   3  -4  387.88   32.49
   4   3  -4  360.53   29.23
   4   3  -3 1684.54   94.65
   4   3  -3 1560.24   90.39
   4   3  -2 1016.07   62.47
   4   3  -2 1018.92   60.71
   4   3  -1 1316.97   76.93
   4   3  -1 1281.11   74.79
   4   3  -1 1375.17   74.33
   4   3   0  123.87   14.61
   4   3   0  107.52   10.81
   4   3   0  125.97   11.47
   4   3   0   99.22   13.00
   4   3   0  149.17   14.22
   4   3   1  881.06   51.69
   4   3   1  850.52   53.21
   4   3   1  911.71   53.25
   4   3   1  949.68   54.10
   4   3   1  950.48   52.55
   4   3   1  955.07   54.32
   4   3   2 2386.54  116.54
   4   3   2 2311.32  116.63
   4   3   2 2484.15  116.55
   4   3   2 2277.98  117.19
   4   3   2 2222.04  115.29
   4   3   2 2268.20  117.16
   4   3   2 2185.26  117.75
   4   3   3 1270.90   68.37
   4   3   3 1356.74   67.69
   4   3   3 1408.42   68.31
   4   3   3 1297.39   64.94
   4   3   3 1453.82   70.19
   4   3   4  595.79   40.19
   4   3   4  598.97   38.77
   4   3   4  666.31   40.36
   4   3   4  595.10   35.11
   4   3   4  673.11   41.77
   4   3   5   49.80   10.15
   4   3   5   46.88    9.14
   4   3   6  465.01   33.37
   4   3   6  482.18   35.18
   4   3   7  264.30   24.60
   4   3   7  217.14   21.49
   4   3   8  252.43   23.82
   4   3   8  235.61   24.97
   4   3   9    2.08    9.62
   4   3   9    7.33    9.00
   4   3  10  297.03   30.45
   4   3  10  233.40   25.78
   4   3  11  350.94   33.75
   4   3  11  368.54   35.21
   4   3  12  332.16   34.48
   4   3  12  269.98   31.08
   4   3  13   11.39   12.03
   4   3  13    2.68   11.32
   4   4  -9   -2.34   10.13
   4   4  -8  141.47   21.32
   4   4  -7  477.09   39.74
   4   4  -6  285.99   27.75
   4   4  -5   36.69   11.50
   4   4  -4   71.97   13.72
   4   4  -3  802.14   51.81
   4   4  -2 1562.81   86.81
   4   4  -2 1472.81   84.68
   4   4  -1  225.11   20.87
   4   4  -1  233.86   20.73
   4   4   0   55.68    8.65
   4   4   0   43.78    9.89
   4   4   0   55.00    8.83
   4   4   0   54.50   12.02
   4   4   1  342.51   24.51
   4   4   1  386.51   27.61
   4   4   1  345.51   25.00
   4   4   1  343.68   27.00
   4   4   2 1547.63   89.00
   4   4   2 1672.49   87.29
   4   4   2 1646.85   90.86
   4   4   2 1575.50   89.70
   4   4   2 1717.78   92.32
   4   4   3 1527.04   84.34
   4   4   3 1434.17   81.29
   4   4   3 1486.72   85.80
   4   4   3 1513.51   82.19
   4   4   3 1599.37   85.50
   4   4   4  251.59   23.22
   4   4   4  295.51   21.33
   4   4   4  279.63   21.95
   4   4   4  297.72   24.75
   4   4   4  280.12   24.98
   4   4   5  104.34   14.66
   4   4   5   74.64   11.84
   4   4   5   61.89   10.04
   4   4   5   91.03   14.74
   4   4   6  909.55   56.09
   4   4   6  810.56   51.66
   4   4   6  928.68   55.11
   4   4   6  794.84   55.51
   4   4   7  686.59   45.48
   4   4   7  720.44   48.40
   4   4   8  499.49   37.57
   4   4   8  563.98   41.02
   4   4   9   32.97   12.24
   4   4   9   27.50    9.44
   4   4  10  310.20   31.10
   4   4  10  270.54   27.29
   4   4  11  154.56   22.58
   4   4  11  174.31   22.27
   4   4  12  197.02   27.04
   4   4  12  246.27   27.12
   4   4  13   -2.88   12.17
   4   4  13   10.30   12.87
   4   5  -8   72.28   16.72
   4   5  -7  171.45   23.38
   4   5  -6  212.51   24.68
   4   5  -5   76.41   14.79
   4   5  -4  196.72   21.93
   4   5  -3  366.24   28.93
   4   5  -3  272.35   25.65
   4   5  -2 1418.67   80.22
   4   5  -2 1286.32   78.06
   4   5  -1  780.30   50.12
   4   5  -1  737.64   48.83
   4   5   0   29.95    8.43
   4   5   0   35.57   11.62
   4   5   0   44.05    9.86
   4   5   0   35.90   11.28
   4   5   1   -1.01    7.17
   4   5   1   17.26    9.13
   4   5   1    4.27    8.26
   4   5   1   -1.44    9.50
   4   5   2 1445.68   83.95
   4   5   2 1485.65   85.89
   4   5   2 1506.96   85.02
   4   5   2 1607.76   88.34
   4   5   3  435.51   27.95
   4   5   3  398.15   31.76
   4   5   3  472.15   29.49
   4   5   3  515.83   34.26
   4   5   3  499.63   35.84
   4   5   4  735.76   46.30
   4   5   4  644.20   40.87
   4   5   4  694.06   42.82
   4   5   4  795.02   47.69
   4   5   4  688.00   47.73
   4   5   5   20.70   10.16
   4   5   5   22.43    8.88
   4   5   5   25.49    6.62
   4   5   5   53.66   13.64
   4   5   5   28.14   12.38
   4   5   6  722.30   51.48
   4   5   6  742.16   47.16
   4   5   6  837.90   50.86
   4   5   6  857.01   54.10
   4   5   7 1108.46   70.70
   4   5   7 1084.95   66.08
   4   5   7 1133.54   69.83
   4   5   7 1258.21   73.41
   4   5   8  317.59   31.71
   4   5   8  359.53   28.56
   4   5   8  399.20   32.37
   4   5   8  379.32   33.87
   4   5   9    2.05    9.48
   4   5   9    9.62    8.44
   4   5  10  149.98   22.94
   4   5  10  207.26   22.05
   4   5  11  551.92   43.00
   4   5  11  546.19   45.69
   4   5  12  243.89   30.16
   4   5  12  250.34   27.78
   4   5  13   37.77   15.86
   4   5  13   34.53   12.88
   4   5  14   15.37   13.93
   4   5  14    5.32   10.67
   4   6  -8   59.37   15.60
   4   6  -7  142.13   22.14
   4   6  -6  176.43   23.90
   4   6  -5  155.28   21.47
   4   6  -4   11.48   10.24
   4   6  -3   43.09   12.47
   4   6  -3   30.84   10.88
   4   6  -2  818.92   53.76
   4   6  -2  760.85   52.12
   4   6  -1  289.91   26.33
   4   6  -1  198.68   23.72
   4   6   0   29.62   11.19
   4   6   0   47.87   10.98
   4   6   0   40.17   12.57
   4   6   1   40.48   10.67
   4   6   1   58.96   13.02
   4   6   1   57.11   11.59
   4   6   1   52.42   13.46
   4   6   2 1600.45   92.02
   4   6   2 1772.44   95.17
   4   6   2 1532.13   92.08
   4   6   2 1703.86   96.32
   4   6   3 1203.89   74.22
   4   6   3 1326.69   75.78
   4   6   3 1291.97   77.98
   4   6   4  866.87   57.68
   4   6   4  887.17   53.68
   4   6   4  947.15   59.01
   4   6   4 1073.47   62.58
   4   6   5   38.17   12.38
   4   6   5   38.94    9.16
   4   6   5   37.24   13.63
   4   6   5   60.43   14.92
   4   6   6  353.50   29.71
   4   6   6  287.22   25.67
   4   6   6  364.30   31.29
   4   6   6  299.63   29.96
   4   6   7 1043.46   69.49
   4   6   7 1049.83   63.75
   4   6   7 1129.12   68.31
   4   6   7 1279.67   73.27
   4   6   8  668.81   49.22
   4   6   8  640.35   43.64
   4   6   8  683.90   48.13
   4   6   8  746.29   51.52
   4   6   9   40.40   13.24
   4   6   9   26.28   11.38
   4   6   9   23.84    9.44
   4   6   9   25.04   13.66
   4   6  10    4.51   10.42
   4   6  10    6.75   11.04
   4   6  10    1.70    7.37
   4   6  10   -2.40   11.76
   4   6  11  355.44   33.65
   4   6  11  499.56   40.86
   4   6  12  357.45   35.70
   4   6  12  293.00   30.01
   4   6  13   35.06   15.20
   4   6  13   32.90   11.86
   4   6  14    9.31   14.65
   4   6  14   10.19   10.77
   4   7  -7   72.62   18.67
   4   7  -6  151.60   22.95
   4   7  -5  106.98   19.56
   4   7  -4   -2.11   10.16
   4   7  -3  161.91   21.44
   4   7  -3  136.35   19.74
   4   7  -2  237.55   25.98
   4   7  -2  240.58   25.62
   4   7  -1  659.58   47.46
   4   7  -1  659.47   46.99
   4   7   0   75.33   14.56
   4   7   0   36.78   12.31
   4   7   1  203.79   21.29
   4   7   1  231.08   24.54
   4   7   1  258.48   23.19
   4   7   1  230.58   25.98
   4   7   2  705.51   47.51
   4   7   2  685.22   49.30
   4   7   2  740.83   48.34
   4   7   2  740.57   51.97
   4   7   3 1472.92   86.67
   4   7   3 1497.35   87.45
   4   7   3 1496.36   90.62
   4   7   4  699.11   47.87
   4   7   4  699.08   48.70
   4   7   4  709.41   51.04
   4   7   5   63.90   13.91
   4   7   5   60.30   15.37
   4   7   5   66.79   16.52
   4   7   6  353.88   32.45
   4   7   6  366.18   28.76
   4   7   6  423.11   34.86
   4   7   6  391.91   35.38
   4   7   7 1218.51   78.45
   4   7   7 1204.99   74.53
   4   7   7 1302.67   80.29
   4   7   7 1300.58   80.65
   4   7   8  662.24   49.30
   4   7   8  658.94   46.75
   4   7   8  666.11   50.68
   4   7   9  241.79   27.47
   4   7   9  263.87   26.88
   4   7   9  249.32   29.55
   4   7  10    9.41   13.15
   4   7  10   -2.24   10.35
   4   7  10   -7.57   12.61
   4   7  11  123.28   21.87
   4   7  11  138.06   21.37
   4   7  11  144.83   23.62
   4   7  12  159.02   23.95
   4   7  13  180.87   26.22
   4   7  14    3.11   12.82
   4   8  -6   22.76   13.77
   4   8  -5  106.50   21.48
   4   8  -4    4.59   10.85
   4   8  -3   94.00   17.79
   4   8  -3   96.74   18.20
   4   8  -2  463.74   40.21
   4   8  -2  468.72   39.46
   4   8  -1  436.98   38.16
   4   8  -1  472.45   39.22
   4   8   0   52.26   13.93
   4   8   0   53.79   14.72
   4   8   1   23.61   10.52
   4   8   1   41.40   13.85
   4   8   1   35.99   11.77
   4   8   1   29.25   13.47
   4   8   2 1157.28   74.78
   4   8   2 1334.21   78.78
   4   8   2 1214.65   76.00
   4   8   2 1354.56   81.01
   4   8   3  721.45   53.37
   4   8   3  858.39   55.43
   4   8   3  913.57   59.59
   4   8   4  789.21   55.60
   4   8   4  839.05   56.93
   4   8   4  929.93   61.31
   4   8   5    3.75   10.92
   4   8   5   -1.97   11.78
   4   8   5    2.24   12.67
   4   8   6  252.92   26.83
   4   8   6  238.09   26.59
   4   8   6  243.42   28.97
   4   8   7  507.32   43.04
   4   8   7  525.47   39.54
   4   8   7  565.11   46.02
   4   8   8 1059.09   67.88
   4   8   8  868.85   61.54
   4   8   8 1062.53   69.00
   4   8   8 1008.98   68.22
   4   8   9  164.87   23.10
   4   8   9  133.10   18.98
   4   8   9  155.76   23.43
   4   8  10   14.89   11.98
   4   8  10   15.50   10.07
   4   8  10   26.52   14.19
   4   8  11  123.80   21.58
   4   8  11  115.09   19.93
   4   8  11  143.83   23.75
   4   8  12  383.61   38.15
   4   8  12  370.08   37.07
   4   8  12  324.84   37.25
   4   8  13  115.80   21.42
   4   8  14   46.44   17.69
   4   9  -4   -2.47   11.19
   4   9  -4  -12.36   14.59
   4   9  -3   14.19   11.62
   4   9  -3   12.14   12.36
   4   9  -2  239.05   28.33
   4   9  -2  233.36   28.89
   4   9  -1  306.05   31.75
   4   9  -1  297.77   32.51
   4   9   0   46.60   14.30
   4   9   0   37.13   14.52
   4   9   1   49.73   13.33
   4   9   1   80.38   17.01
   4   9   1   61.01   14.39
   4   9   1   58.01   15.93
   4   9   2  630.82   46.29
   4   9   2  660.93   48.99
   4   9   2  644.25   47.01
   4   9   2  656.14   50.66
   4   9   3  527.68   42.76
   4   9   3  604.35   44.41
   4   9   3  597.65   47.36
   4   9   4  756.28   53.26
   4   9   4  722.25   53.12
   4   9   4  787.08   57.14
   4   9   5   55.24   14.36
   4   9   5   51.40   16.06
   4   9   5   75.89   19.28
   4   9   6  177.40   23.13
   4   9   6  148.23   22.91
   4   9   6  168.64   24.68
   4   9   7  189.20   24.28
   4   9   7  223.94   26.64
   4   9   7  171.18   25.86
   4   9   8  862.56   65.23
   4   9   8 1015.00   68.63
   4   9   8 1041.57   69.59
   4   9   9  101.96   20.25
   4   9   9  116.48   18.02
   4   9   9  107.99   20.47
   4   9  10   28.57   13.53
   4   9  10   30.83   12.58
   4   9  10   41.57   16.42
   4   9  11  272.94   31.62
   4   9  11  257.85   29.50
   4   9  11  283.87   33.38
   4   9  12  147.48   24.05
   4   9  12  177.79   25.15
   4   9  12  176.30   27.72
   4   9  13  218.19   29.06
   4  10  -4   70.84   18.53
   4  10  -3   71.76   18.27
   4  10  -2  191.03   26.92
   4  10  -2  249.27   30.41
   4  10  -1  164.55   24.74
   4  10  -1  199.68   26.53
   4  10   0  250.78   29.20
   4  10   0  272.73   31.10
   4  10   1    4.46    9.87
   4  10   1   -2.57   11.89
   4  10   2  113.63   18.72
   4  10   2  142.80   21.62
   4  10   2  149.74   21.49
   4  10   2  149.60   23.19
   4  10   3  139.70   20.80
   4  10   3  155.62   21.76
   4  10   3  167.45   25.71
   4  10   4  254.08   28.44
   4  10   4  257.36   28.78
   4  10   4  303.73   33.30
   4  10   5   15.59   12.64
   4  10   5   13.95   12.82
   4  10   5   15.95   14.66
   4  10   6   50.86   16.48
   4  10   6   72.78   18.00
   4  10   7  485.68   44.11
   4  10   7  604.87   47.43
   4  10   7  555.19   48.51
   4  10   8  551.29   46.59
   4  10   8  508.90   47.00
   4  10   9  328.10   34.60
   4  10   9  285.87   33.44
   4  10   9  311.73   34.83
   4  10  10   27.26   15.04
   4  10  10   14.53   13.48
   4  10  11  121.20   22.84
   4  10  11  120.63   20.38
   4  10  12  290.83   33.73
   4  10  12  242.04   29.75
   4  10  12  314.98   36.26
   4  10  13  209.53   28.34
   4  10  13  130.68   23.86
   4  10  13  165.06   27.36
   4  11  -2  245.10   31.03
   4  11  -1  134.72   25.11
   4  11   0  150.11   23.92
   4  11   0  195.89   27.44
   4  11   1   16.67   11.94
   4  11   1   25.50   15.63
   4  11   2   26.66   12.36
   4  11   2   41.60   14.75
   4  11   2   45.11   16.93
   4  11   3  283.32   30.79
   4  11   3  310.42   31.90
   4  11   3  325.29   36.17
   4  11   4  191.94   26.20
   4  11   4  274.49   29.25
   4  11   4  252.56   31.87
   4  11   5  125.36   20.97
   4  11   5   85.39   19.18
   4  11   5   94.88   21.27
   4  11   6    7.46   11.97
   4  11   6   -7.81   12.29
   4  11   6    5.79   13.66
   4  11   7  331.71   34.53
   4  11   7  337.73   35.45
   4  11   7  307.86   35.83
   4  11   8  268.84   32.28
   4  11   8  326.05   35.04
   4  11   8  312.44   35.85
   4  11   9  124.17   22.52
   4  11   9  169.64   26.33
   4  11   9  153.32   25.93
   4  11  10   31.36   16.60
   4  11  10   -6.07   14.90
   4  11  10    2.96   14.26
   4  11  11  369.61   38.77
   4  11  11  363.22   40.07
   4  11  12  205.54   29.77
   4  11  12  190.90   29.36
   4  11  13  358.20   38.38
   4  11  13  308.44   35.46
   4  11  13  332.14   38.77
   4  12   0   98.56   22.49
   4  12   1   12.23   14.74
   4  12   2   21.52   16.20
   4  12   3  319.07   33.07
   4  12   3  346.61   35.74
   4  12   3  277.17   35.70
   4  12   4  311.01   33.46
   4  12   4  304.66   34.02
   4  12   4  361.35   39.75
   4  12   5   36.19   15.57
   4  12   5   69.91   19.59
   4  12   6    5.31   14.18
   4  12   6   -5.55   13.10
   4  12   6    3.09   14.60
   4  12   7  390.66   39.34
   4  12   7  335.75   37.83
   4  12   7  376.94   39.97
   4  12   8  309.31   35.53
   4  12   8  391.12   40.06
   4  12   8  342.95   38.49
   4  12   9  179.71   27.13
   4  12   9  178.02   27.81
   4  12   9  201.30   29.52
   4  12  10    8.95   15.73
   4  12  10   22.24   15.91
   4  12  10   37.24   18.10
   4  12  11  100.84   21.31
   4  12  11   84.77   21.82
   4  12  12  224.14   30.21
   4  12  12  213.12   32.05
   4  13   3  137.40   23.63
   4  13   3  128.97   23.05
   4  13   3  158.85   27.76
   4  13   4  194.25   27.16
   4  13   4  221.48   29.28
   4  13   4  243.27   32.98
   4  13   5   77.10   19.98
   4  13   5   34.38   15.77
   4  13   5   62.17   20.20
   4  13   6   19.73   14.87
   4  13   6   23.58   15.79
   4  13   6   35.98   18.32
   4  13   7  215.90   29.17
   4  13   7  168.99   27.75
   4  13   7  247.93   32.75
   4  13   8  309.81   35.97
   4  13   8  366.31   39.37
   4  13   8  308.40   38.14
   4  13   9  359.96   39.39
   4  13   9  294.27   37.04
   4  13   9  404.31   42.17
   4  13  10   12.40   14.65
   4  13  10   32.92   15.86
   4  13  10   -6.46   13.98
   5  -8  -7   53.71   14.60
   5  -8  -7   70.60   17.19
   5  -8  -6  447.76   40.01
   5  -8  -6  496.42   43.58
   5  -8  -5  195.60   26.23
   5  -8  -5  176.48   23.38
   5  -8  -4  124.77   21.52
   5  -8  -4  118.01   18.73
   5  -8  -3   -5.34   11.55
   5  -8  -3    4.28    9.26
   5  -8  -2  265.61   29.73
   5  -8  -2  178.01   23.01
   5  -8  -1   13.45   12.20
   5  -8   0   43.13   14.56
   5  -8   1   88.97   18.88
   5  -7  -9   67.80   16.51
   5  -7  -8    2.27    9.84
   5  -7  -7   40.01   13.12
   5  -7  -7   49.94   14.89
   5  -7  -6  416.09   37.90
   5  -7  -6  489.85   42.45
   5  -7  -5  228.58   28.53
   5  -7  -5  261.26   27.38
   5  -7  -4   59.56   16.68
   5  -7  -4   61.47   13.60
   5  -7  -3   14.94   11.55
   5  -7  -3   18.00   10.37
   5  -7  -2  127.05   20.63
   5  -7  -2   91.72   16.48
   5  -7  -1  366.41   34.36
   5  -7  -1  279.18   28.43
   5  -7   0   62.54   16.66
   5  -7   1   -7.51   11.10
   5  -7   2   -2.50   10.57
   5  -6  -9   96.92   18.90
   5  -6  -9   93.14   17.79
   5  -6  -8   15.63   11.16
   5  -6  -8   -2.19    9.70
   5  -6  -7   54.92   13.88
   5  -6  -7   40.24   13.98
   5  -6  -6  194.35   23.54
   5  -6  -6  209.09   26.07
   5  -6  -5  162.63   23.44
   5  -6  -5  180.20   21.55
   5  -6  -4   48.49   13.55
   5  -6  -4   26.74   10.19
   5  -6  -3   98.78   18.41
   5  -6  -3   62.91   14.04
   5  -6  -2  260.37   25.71
   5  -6  -2  249.87   28.66
   5  -6  -1  282.34   27.67
   5  -6  -1  359.54   33.49
   5  -6   0  270.28   29.20
   5  -6   1    2.29    9.43
   5  -6   2    9.17    9.45
   5  -5 -10   99.30   20.34
   5  -5  -9  189.38   25.75
   5  -5  -9  193.64   24.00
   5  -5  -8   -8.90   12.26
   5  -5  -8  -10.61   10.62
   5  -5  -7    4.05    9.18
   5  -5  -7    4.05    8.76
   5  -5  -7    2.25    9.26
   5  -5  -6  248.01   26.12
   5  -5  -6  266.79   26.39
   5  -5  -6  250.71   28.14
   5  -5  -5  129.99   17.84
   5  -5  -5  119.69   19.72
   5  -5  -4    4.28    9.26
   5  -5  -4    5.35    7.34
   5  -5  -3   14.80   10.37
   5  -5  -3   -1.71    7.91
   5  -5  -2  314.16   27.69
   5  -5  -2  316.30   31.16
   5  -5  -1  296.53   26.16
   5  -5  -1  286.11   29.04
   5  -5   0  407.27   30.41
   5  -5   0  303.31   31.49
   5  -5   1    2.08    8.98
   5  -5   2   31.13   11.69
   5  -5   3  311.06   30.52
   5  -4 -10  215.57   28.68
   5  -4  -9  141.65   23.21
   5  -4  -9  155.69   21.69
   5  -4  -8   85.30   17.16
   5  -4  -8   39.42   11.39
   5  -4  -7   71.54   15.02
   5  -4  -7   56.72   12.91
   5  -4  -7   62.26   15.62
   5  -4  -6  126.76   18.96
   5  -4  -6  147.76   18.89
   5  -4  -6  123.77   19.72
   5  -4  -5  301.73   26.90
   5  -4  -5  235.93   24.57
   5  -4  -5  233.49   26.64
   5  -4  -4  258.27   24.93
   5  -4  -4  245.03   26.94
   5  -4  -3    3.89    8.82
   5  -4  -3    9.52    7.04
   5  -4  -2   36.33   11.25
   5  -4  -2   63.44   11.93
   5  -4  -1  459.56   33.26
   5  -4  -1  401.98   35.20
   5  -4   0  525.27   36.32
   5  -4   0  474.28   39.11
   5  -4   1   52.21   12.72
   5  -4   2   94.71   16.18
   5  -4   3  443.66   34.85
   5  -4   3  296.43   30.21
   5  -4   4  671.95   49.78
   5  -4   5  136.57   20.36
   5  -3 -10  469.12   44.21
   5  -3  -9  173.03   25.26
   5  -3  -9  191.42   24.42
   5  -3  -8  174.74   24.35
   5  -3  -8  243.43   25.71
   5  -3  -7   -2.06   10.81
   5  -3  -7   13.39    9.57
   5  -3  -7   20.71   10.90
   5  -3  -6  324.25   29.15
   5  -3  -6  257.08   26.41
   5  -3  -6  272.15   28.25
   5  -3  -5  385.42   31.49
   5  -3  -5  337.71   30.29
   5  -3  -5  365.75   33.05
   5  -3  -4  764.08   49.97
   5  -3  -4  766.40   50.56
   5  -3  -4  726.23   52.37
   5  -3  -3   59.14   11.88
   5  -3  -3   59.60   13.85
   5  -3  -2   96.38   14.14
   5  -3  -2   71.83   13.97
   5  -3  -1  441.53   31.99
   5  -3  -1  415.77   34.11
   5  -3   0  705.24   45.23
   5  -3   0  704.17   48.46
   5  -3   1   88.17   14.51
   5  -3   1   84.41   11.70
   5  -3   2   23.52   10.56
   5  -3   2    8.23    8.40
   5  -3   3  378.29   31.81
   5  -3   3  281.44   27.33
   5  -3   4  298.26   29.06
   5  -3   5  125.52   18.52
   5  -3   6   13.32   10.50
   5  -3   7  101.51   17.98
   5  -3   8  132.76   21.38
   5  -2 -10  135.14   23.49
   5  -2  -9   53.96   16.43
   5  -2  -8   18.02   11.49
   5  -2  -8   14.41   11.02
   5  -2  -7  103.32   17.52
   5  -2  -7   76.70   15.30
   5  -2  -7   79.08   16.23
   5  -2  -6  900.29   59.03
   5  -2  -6  880.17   58.02
   5  -2  -6  820.87   58.51
   5  -2  -5 1078.01   67.30
   5  -2  -5 1056.42   66.70
   5  -2  -5 1073.51   69.05
   5  -2  -4 2098.91  110.67
   5  -2  -4 1965.02  109.97
   5  -2  -4 1763.45  110.87
   5  -2  -3  247.83   21.62
   5  -2  -3  221.76   20.93
   5  -2  -3  172.66   21.99
   5  -2  -2   12.57    7.49
   5  -2  -2    1.31    7.10
   5  -2  -2   13.00    7.68
   5  -2  -1  583.24   38.03
   5  -2  -1  526.28   39.74
   5  -2   0  551.15   36.51
   5  -2   0  539.27   39.18
   5  -2   1  274.52   21.53
   5  -2   1  264.64   24.34
   5  -2   2   -1.71    7.39
   5  -2   2    2.90    7.51
   5  -2   3  364.55   30.06
   5  -2   3  273.63   25.31
   5  -2   4  125.42   17.97
   5  -2   5  199.13   23.30
   5  -2   6    8.54    8.80
   5  -2   7  191.47   24.01
   5  -2   8   99.60   18.30
   5  -2   9  334.66   34.07
   5  -2  10   86.97   18.11
   5  -1 -10  139.14   24.86
   5  -1 -10  160.65   21.49
   5  -1  -9  137.20   22.09
   5  -1  -9  118.05   18.08
   5  -1  -8  174.18   25.21
   5  -1  -8  183.00   23.71
   5  -1  -8  233.22   23.07
   5  -1  -7    2.10   11.05
   5  -1  -7    1.94    8.41
   5  -1  -7    2.01    8.91
   5  -1  -7   -2.97    7.42
   5  -1  -6  145.81   19.87
   5  -1  -6  139.55   18.92
   5  -1  -6  141.38   19.53
   5  -1  -5  718.45   48.84
   5  -1  -5  702.41   48.22
   5  -1  -5  657.70   48.93
   5  -1  -4  330.57   28.06
   5  -1  -4  336.14   27.42
   5  -1  -4  259.95   27.35
   5  -1  -3   13.45    7.66
   5  -1  -3   17.86    8.14
   5  -1  -3   16.08    9.02
   5  -1  -2  262.47   22.59
   5  -1  -2  265.80   22.73
   5  -1  -2  264.77   24.43
   5  -1  -1 2402.00  125.06
   5  -1  -1 2345.67  125.90
   5  -1  -1 2224.40  128.12
   5  -1   0  859.38   51.54
   5  -1   0  857.12   54.37
   5  -1   1 1233.81   65.80
   5  -1   1 1041.74   67.27
   5  -1   2  146.98   13.34
   5  -1   2  124.39   17.33
   5  -1   2  112.59   15.02
   5  -1   3  113.03   16.04
   5  -1   3   79.59   12.65
   5  -1   4  110.78   16.68
   5  -1   5  421.53   35.32
   5  -1   6   -4.04    8.75
   5  -1   7   10.62    9.20
   5  -1   7    4.32    8.17
   5  -1   8  468.76   40.26
   5  -1   8  474.32   40.40
   5  -1   9  297.07   30.71
   5  -1   9  248.97   29.24
   5  -1  10   79.45   17.05
   5   0 -10  121.25   19.36
   5   0  -9  275.63   28.16
   5   0  -8  137.61   20.83
   5   0  -8  117.27   17.33
   5   0  -7   60.03   14.72
   5   0  -7   28.76   11.30
   5   0  -7   34.87   10.54
   5   0  -6  123.07   19.17
   5   0  -6  122.68   17.73
   5   0  -6  110.85   18.26
   5   0  -6  114.96   15.56
   5   0  -5  376.60   31.37
   5   0  -5  405.18   31.70
   5   0  -5  310.13   29.69
   5   0  -5  305.83   26.29
   5   0  -4  544.14   40.00
   5   0  -4  539.45   39.54
   5   0  -4  575.90   41.55
   5   0  -4  538.36   36.35
   5   0  -3    5.60    7.93
   5   0  -3    1.40    7.70
   5   0  -3    6.24    7.93
   5   0  -3    0.96    6.08
   5   0  -2   45.63   10.23
   5   0  -2   53.29   10.65
   5   0  -2   27.63    9.93
   5   0  -1  725.05   44.60
   5   0  -1  672.65   45.91
   5   0   0  954.37   56.17
   5   0   0  951.19   58.27
   5   0   1   81.76   10.66
   5   0   1   70.01   11.74
   5   0   2    8.88    8.51
   5   0   2    4.13    4.76
   5   0   2    7.98    5.17
   5   0   3  888.72   53.67
   5   0   3  747.21   48.31
   5   0   4 1205.51   73.76
   5   0   5 1775.09  106.98
   5   0   5 1972.28  108.63
   5   0   6  436.12   38.01
   5   0   6  569.68   40.78
   5   0   7   37.06   12.74
   5   0   7   38.77   12.03
   5   0   8  181.25   22.94
   5   0   8  127.97   20.18
   5   0   9  165.53   22.94
   5   0   9  154.62   22.17
   5   0  10   87.91   17.64
   5   0  10   87.09   17.64
   5   0  11   -2.73   11.25
   5   1 -10  121.53   19.59
   5   1  -9  202.21   24.13
   5   1  -8  145.36   19.22
   5   1  -7    4.27    9.91
   5   1  -7   20.51    9.43
   5   1  -6  192.68   23.53
   5   1  -6  196.26   20.80
   5   1  -5  267.42   26.82
   5   1  -5  290.74   27.58
   5   1  -5  276.60   24.17
   5   1  -4  704.39   48.86
   5   1  -4  694.68   49.26
   5   1  -4  735.39   45.96
   5   1  -3   35.05   10.79
   5   1  -3   71.78   13.00
   5   1  -3   50.57   10.00
   5   1  -2    7.91    7.67
   5   1  -2   10.05    8.02
   5   1  -2   -0.98    6.16
   5   1  -1  447.33   32.48
   5   1  -1  494.90   34.46
   5   1  -1  459.29   30.47
   5   1   0  957.29   55.93
   5   1   0  920.54   56.93
   5   1   1  274.25   21.99
   5   1   1  318.30   24.07
   5   1   2  271.52   24.04
   5   1   2  244.07   19.37
   5   1   2  284.37   21.60
   5   1   3  598.50   40.15
   5   1   3  543.90   35.83
   5   1   4 1136.23   71.00
   5   1   4 1225.75   72.09
   5   1   5 1064.78   68.31
   5   1   5 1154.94   69.48
   5   1   6  391.87   34.90
   5   1   6  441.95   35.52
   5   1   7   25.56   12.93
   5   1   7   28.69   12.19
   5   1   8  312.36   29.74
   5   1   8  270.95   29.35
   5   1   9  743.21   55.77
   5   1   9  820.02   57.18
   5   1  10  128.41   21.49
   5   1  10  153.80   22.25
   5   1  11  160.10   23.57
   5   1  11  147.24   23.07
   5   1  12   -8.41   12.70
   5   2  -9  168.90   23.28
   5   2  -8  119.30   18.86
   5   2  -7   13.73   11.26
   5   2  -7   18.45   10.04
   5   2  -6    6.28    9.28
   5   2  -6    1.67    8.50
   5   2  -5  899.35   58.54
   5   2  -5  780.13   53.29
   5   2  -4  509.52   40.57
   5   2  -4  582.56   39.02
   5   2  -3  160.56   19.26
   5   2  -3  146.73   19.02
   5   2  -3  153.76   17.02
   5   2  -2   48.76   11.12
   5   2  -2   36.46   11.13
   5   2  -2   42.29    9.94
   5   2  -1  644.09   42.96
   5   2  -1  661.89   43.91
   5   2  -1  654.26   41.33
   5   2   0 1564.59   88.88
   5   2   0 1553.92   89.33
   5   2   0 1645.13   87.97
   5   2   1 1517.49   85.74
   5   2   1 1460.46   85.66
   5   2   1 1645.09   85.35
   5   2   2  632.77   39.76
   5   2   2  570.26   35.94
   5   2   2  589.15   36.36
   5   2   2  528.74   36.32
   5   2   3  106.61   15.24
   5   2   3  115.65   15.13
   5   2   3   79.34   10.87
   5   2   4  372.63   30.58
   5   2   4  461.53   33.07
   5   2   5 1673.78   98.67
   5   2   5 1808.38  100.21
   5   2   6  109.96   17.46
   5   2   6  133.67   17.51
   5   2   7   75.49   15.20
   5   2   7   81.92   15.45
   5   2   8  262.92   27.28
   5   2   8  231.43   25.17
   5   2   9  431.01   37.70
   5   2   9  471.50   39.70
   5   2  10  134.15   20.83
   5   2  10  111.47   18.54
   5   2  11   67.99   17.48
   5   2  11   42.82   13.91
   5   2  12   61.02   15.87
   5   2  12   32.48   13.70
   5   3  -9   56.10   15.23
   5   3  -8  162.90   22.51
   5   3  -7   -2.00   10.52
   5   3  -6  114.71   19.92
   5   3  -6   98.69   16.56
   5   3  -5  224.23   26.80
   5   3  -5  287.37   26.04
   5   3  -4  897.46   57.89
   5   3  -4  765.64   53.00
   5   3  -3  415.85   34.13
   5   3  -3  396.68   31.26
   5   3  -2    3.17    8.59
   5   3  -2    1.30    7.47
   5   3  -1  568.53   38.58
   5   3  -1  498.70   36.14
   5   3   0 1560.11   88.13
   5   3   0 1487.20   87.42
   5   3   0 1597.75   87.27
   5   3   1 2568.26  141.80
   5   3   1 2528.17  141.38
   5   3   1 2676.78  141.85
   5   3   1 2868.95  141.99
   5   3   2  339.90   25.91
   5   3   2  402.67   27.45
   5   3   2  348.98   25.95
   5   3   3  130.47   15.67
   5   3   3   40.32   10.88
   5   3   3  128.26   14.68
   5   3   3   13.12    5.39
   5   3   4  711.70   47.18
   5   3   4  714.67   46.50
   5   3   5 1261.13   76.35
   5   3   5 1369.21   77.97
   5   3   6  268.03   23.71
   5   3   6  203.07   22.84
   5   3   7  149.55   19.75
   5   3   7  128.46   17.04
   5   3   8  147.15   20.88
   5   3   8   72.50   14.80
   5   3   9  351.09   32.23
   5   3   9  389.85   34.94
   5   3  10   43.43   13.72
   5   3  10   61.41   14.28
   5   3  11   96.32   18.50
   5   3  11   93.44   18.42
   5   3  12   38.96   14.56
   5   3  12   49.14   14.41
   5   3  13  141.00   23.39
   5   3  13  113.82   21.73
   5   4  -8   53.72   15.35
   5   4  -7    8.67    9.39
   5   4  -6   -2.00    9.26
   5   4  -5  432.02   36.02
   5   4  -4  283.01   27.19
   5   4  -3  575.17   41.63
   5   4  -2    5.27    9.67
   5   4  -2   -1.48    8.28
   5   4  -1  579.49   39.58
   5   4  -1  446.17   35.53
   5   4   0 1074.37   66.81
   5   4   0 1052.33   65.27
   5   4   0 1149.46   65.52
   5   4   1 1781.40  103.89
   5   4   1 2024.44  108.51
   5   4   1 2010.54  108.01
   5   4   1 1939.84  105.12
   5   4   1 2047.48  108.11
   5   4   2  138.82   14.88
   5   4   2  130.04   16.26
   5   4   2  142.88   15.57
   5   4   2  132.21   16.95
   5   4   3  103.23   13.46
   5   4   3  113.14   13.80
   5   4   3  125.00   15.02
   5   4   3   87.62   14.97
   5   4   4  393.83   31.91
   5   4   4  415.10   31.20
   5   4   4  416.23   32.67
   5   4   5 1381.54   82.41
   5   4   5 1248.42   79.17
   5   4   5 1504.60   82.04
   5   4   5 1526.76   84.23
   5   4   6  539.65   37.58
   5   4   6  530.43   38.95
   5   4   7   35.28   11.27
   5   4   7   54.52   11.39
   5   4   8   13.75    8.94
   5   4   8   21.92    8.91
   5   4   9  413.31   34.77
   5   4   9  445.61   37.81
   5   4  10  427.43   36.77
   5   4  10  455.14   39.60
   5   4  11  103.54   19.30
   5   4  11   81.66   16.23
   5   4  12  -11.12   12.03
   5   4  12    7.39    9.87
   5   4  13   62.05   17.44
   5   4  13   55.95   15.78
   5   5  -8  325.95   34.71
   5   5  -7  165.78   24.54
   5   5  -6   89.17   18.09
   5   5  -5   36.62   13.15
   5   5  -4  103.48   16.98
   5   5  -3  156.04   20.60
   5   5  -2   -1.66    8.60
   5   5  -1  482.26   36.85
   5   5   0  547.36   39.29
   5   5   0  529.73   38.80
   5   5   1  948.79   62.68
   5   5   1 1102.74   64.48
   5   5   2   38.73    9.85
   5   5   2   20.21    9.77
   5   5   2   31.36    9.75
   5   5   2   45.09   14.02
   5   5   3   60.32   11.90
   5   5   3   47.38    9.17
   5   5   3   74.65   17.38
   5   5   3   63.15   11.97
   5   5   3   61.07   14.20
   5   5   4 1273.77   77.35
   5   5   4 1355.17   74.62
   5   5   4 1300.24   75.12
   5   5   4 1306.45   78.69
   5   5   4 1363.31   80.10
   5   5   5  827.07   53.38
   5   5   5  711.59   48.33
   5   5   5  831.97   50.96
   5   5   5  886.02   54.94
   5   5   6 1040.53   63.67
   5   5   6  945.88   58.92
   5   5   6  961.31   61.06
   5   5   6 1002.54   64.29
   5   5   7  293.86   28.78
   5   5   7  260.73   24.39
   5   5   7  353.83   28.76
   5   5   7  329.67   32.08
   5   5   8  260.94   25.37
   5   5   8  353.52   30.06
   5   5   9  153.83   21.22
   5   5   9  147.77   19.33
   5   5  10 1004.96   65.11
   5   5  10  978.61   67.85
   5   5  11  202.87   26.07
   5   5  11  196.60   23.79
   5   5  12    8.31   13.84
   5   5  12   -2.34    9.12
   5   5  13   53.26   16.93
   5   5  13   43.18   14.18
   5   6  -7  107.32   20.96
   5   6  -6   -4.70   11.09
   5   6  -5  162.03   23.21
   5   6  -4  464.25   39.38
   5   6  -3  404.85   35.37
   5   6  -2  399.98   34.08
   5   6  -1   14.25   10.79
   5   6  -1   13.62   10.31
   5   6   0   10.30   10.52
   5   6   0   10.40   11.47
   5   6   1  167.86   21.32
   5   6   1  176.95   21.80
   5   6   2   -2.61    8.27
   5   6   2    1.63    9.60
   5   6   2    1.39    9.34
   5   6   2    1.78   10.23
   5   6   3  185.01   19.53
   5   6   3  155.13   21.66
   5   6   3  177.45   20.00
   5   6   3  198.47   23.60
   5   6   4  713.51   48.69
   5   6   4  751.61   50.35
   5   6   4  731.22   51.74
   5   6   5 1892.97  107.93
   5   6   5 1905.80  104.18
   5   6   5 1813.03  108.28
   5   6   5 1903.17  110.09
   5   6   6  926.43   62.96
   5   6   6  936.69   59.78
   5   6   6 1084.90   65.67
   5   6   7  247.89   26.44
   5   6   7  250.99   24.11
   5   6   7  210.61   25.74
   5   6   8   34.02   14.55
   5   6   8   28.18   11.71
   5   6   8   24.20    8.40
   5   6   8   34.10   15.54
   5   6   9  705.69   53.59
   5   6   9  656.98   47.97
   5   6   9  741.90   52.93
   5   6  10  573.35   42.31
   5   6  10  562.60   45.71
   5   6  11  436.64   36.12
   5   6  11  384.02   38.22
   5   6  12   22.06   13.08
   5   6  12   28.70   11.86
   5   6  13   26.58   14.31
   5   6  13   36.08   13.72
   5   6  14   95.83   18.75
   5   7  -6   20.19   13.52
   5   7  -5  173.40   24.73
   5   7  -4  279.25   30.67
   5   7  -3  276.80   29.45
   5   7  -2  158.94   22.25
   5   7  -1   94.72   16.96
   5   7  -1   73.70   15.22
   5   7   0  200.59   24.00
   5   7   0  192.33   23.71
   5   7   1  858.63   58.51
   5   7   1  892.78   60.24
   5   7   2  749.40   51.16
   5   7   2  820.52   54.87
   5   7   2  807.03   52.78
   5   7   2  852.76   56.63
   5   7   3  106.66   16.67
   5   7   3  104.23   19.35
   5   7   3  126.23   17.95
   5   7   3  147.05   21.93
   5   7   4   13.48   11.61
   5   7   4   10.76   10.33
   5   7   4   29.18   13.94
   5   7   5  436.02   36.98
   5   7   5  478.33   38.73
   5   7   5  551.74   41.88
   5   7   6  238.93   26.67
   5   7   6  260.24   23.21
   5   7   6  275.72   28.29
   5   7   6  232.62   27.81
   5   7   7  185.62   23.42
   5   7   7  163.48   19.40
   5   7   8  571.91   44.81
   5   7   8  521.66   40.88
   5   7   8  543.36   45.56
   5   7   9  413.76   39.27
   5   7   9  481.99   38.43
   5   7   9  457.97   41.42
   5   7  10  905.89   65.76
   5   7  10  893.15   63.90
   5   7  10 1019.91   68.72
   5   7  11  448.87   40.70
   5   7  12    2.74   11.58
   5   7  13   20.61   13.94
   5   8  -5   67.12   18.06
   5   8  -4  145.14   23.64
   5   8  -3  239.77   28.91
   5   8  -2   45.29   15.44
   5   8  -1    4.35   12.50
   5   8  -1    2.19   10.76
   5   8   0  303.56   31.02
   5   8   0  311.43   31.61
   5   8   1 1345.16   83.30
   5   8   1 1299.03   83.77
   5   8   2  210.91   23.39
   5   8   2  269.18   27.35
   5   8   2  238.15   24.44
   5   8   2  262.10   29.29
   5   8   3  679.83   49.28
   5   8   3  664.56   51.56
   5   8   3  774.70   51.72
   5   8   3  830.35   56.42
   5   8   4  206.61   24.12
   5   8   4  216.19   24.65
   5   8   4  273.85   29.13
   5   8   5  740.44   54.62
   5   8   5  801.61   56.62
   5   8   5  903.24   60.05
   5   8   6  373.99   34.44
   5   8   6  406.95   36.72
   5   8   6  424.22   38.55
   5   8   7  779.64   56.84
   5   8   7  852.37   58.95
   5   8   7  762.70   58.58
   5   8   8   20.99   12.90
   5   8   8   32.53   10.86
   5   8   8   14.93   12.27
   5   8   9   47.06   15.51
   5   8   9   63.02   14.03
   5   8   9   29.18   14.14
   5   8  10  194.82   27.12
   5   8  10  190.04   24.24
   5   8  10  245.20   30.11
   5   8  11   46.10   16.43
   5   8  11   77.33   17.04
   5   8  11   43.53   16.67
   5   8  12   11.24   12.73
   5   8  12    5.44   11.76
   5   8  12  -11.98   12.96
   5   8  13   55.58   17.25
   5   9  -4  115.35   21.34
   5   9  -3  220.31   29.17
   5   9  -2   63.53   17.38
   5   9  -2   58.93   17.31
   5   9  -1    2.35   10.64
   5   9  -1    4.89   12.65
   5   9   0  190.90   24.96
   5   9   0  159.99   24.15
   5   9   1  662.02   49.14
   5   9   1  556.68   47.69
   5   9   2  541.62   45.16
   5   9   2  575.72   47.77
   5   9   3   45.58   13.07
   5   9   3   31.83   12.60
   5   9   3   37.32   15.34
   5   9   4   25.89   12.36
   5   9   4   10.47   11.04
   5   9   4   22.68   15.26
   5   9   5  672.39   50.67
   5   9   5  661.27   51.21
   5   9   5  760.30   55.59
   5   9   6  578.92   46.88
   5   9   6  609.22   48.15
   5   9   6  647.84   51.02
   5   9   7  188.83   25.37
   5   9   7  213.41   27.24
   5   9   7  246.38   30.09
   5   9   8    4.91   10.63
   5   9   8    5.24   11.86
   5   9   8    2.71   13.06
   5   9   9   72.37   17.67
   5   9   9   82.74   20.03
   5   9  10  290.22   33.66
   5   9  10  297.75   30.24
   5   9  10  299.42   34.67
   5   9  11  158.17   25.59
   5   9  11  125.34   21.18
   5   9  11  153.95   25.36
   5   9  12   40.81   17.37
   5   9  12   69.66   16.78
   5   9  12   37.44   17.85
   5   9  13   -2.98   13.81
   5   9  13   11.58   12.23
   5   9  13   -3.18   15.32
   5  10  -3  219.41   29.19
   5  10  -2  119.08   22.89
   5  10  -2  136.03   23.55
   5  10  -1   37.72   15.35
   5  10  -1   48.45   18.62
   5  10   0   63.55   17.60
   5  10   0   74.76   19.00
   5  10   1  264.97   30.83
   5  10   1  257.94   31.18
   5  10   2  288.99   31.55
   5  10   2  285.82   33.29
   5  10   3  110.33   18.33
   5  10   3  119.67   19.94
   5  10   3  133.37   24.82
   5  10   4   62.58   14.66
   5  10   4   72.39   16.62
   5  10   4   73.88   19.63
   5  10   5  225.18   27.01
   5  10   5  224.92   28.14
   5  10   5  271.20   33.06
   5  10   6  367.62   35.37
   5  10   6  350.68   35.76
   5  10   6  385.75   39.00
   5  10   7  182.83   24.57
   5  10   7  136.22   22.90
   5  10   7  150.09   24.69
   5  10   8    5.18   10.93
   5  10   8    5.51   13.52
   5  10   8   -2.88   13.61
   5  10   9   89.30   20.52
   5  10   9  106.76   21.09
   5  10   9  140.64   24.56
   5  10  10  423.42   41.24
   5  10  10  434.09   42.94
   5  10  11  270.01   33.67
   5  10  11  299.06   36.08
   5  10  12  102.79   22.69
   5  10  12   63.17   17.54
   5  10  12  103.50   23.24
   5  10  13   -3.08   13.66
   5  10  13   -2.85   11.72
   5  10  13   -9.92   15.61
   5  11  -2   67.76   18.33
   5  11  -2   94.00   21.66
   5  11  -1   47.68   16.12
   5  11  -1   26.29   16.19
   5  11   0    7.76   12.22
   5  11   0   -2.90   14.25
   5  11   1  226.15   29.90
   5  11   1  230.92   30.34
   5  11   2  117.84   21.61
   5  11   2  123.20   24.25
   5  11   3   65.62   16.45
   5  11   3  106.19   19.30
   5  11   3   67.83   20.07
   5  11   4    4.67   10.11
   5  11   4    7.32   11.98
   5  11   4   29.54   16.27
   5  11   5   99.29   18.94
   5  11   5   66.10   17.36
   5  11   5  107.13   22.02
   5  11   6  452.59   40.60
   5  11   6  408.11   41.06
   5  11   6  446.20   43.91
   5  11   7  151.13   22.56
   5  11   7   99.08   21.17
   5  11   7  156.87   25.68
   5  11   8    2.72   12.30
   5  11   8   -2.88   13.61
   5  11   8   12.20   15.77
   5  11   9   50.87   18.25
   5  11   9   69.26   18.36
   5  11   9   27.81   16.15
   5  11  10  354.82   38.79
   5  11  10  391.23   40.83
   5  11  11  300.51   36.21
   5  11  11  382.66   40.90
   5  11  12  109.65   22.84
   5  11  12  117.38   24.56
   5  11  13  -13.68   16.80
   5  12   0   10.81   14.66
   5  12   0    9.42   15.41
   5  12   1   77.38   20.87
   5  12   1   87.99   21.38
   5  12   2  252.27   33.37
   5  12   3  129.92   25.50
   5  12   4   -2.51   12.53
   5  12   4    7.87   14.01
   5  12   4    9.49   14.33
   5  12   5   72.30   18.00
   5  12   5   46.02   16.44
   5  12   5   66.73   19.68
   5  12   6  237.68   29.70
   5  12   6  244.47   31.32
   5  12   6  287.09   34.78
   5  12   7  299.97   35.21
   5  12   7  310.39   36.20
   5  12   7  403.22   41.68
   5  12   8   31.39   15.29
   5  12   8    3.02   13.13
   5  12   8   48.23   18.50
   5  12   9    8.87   13.40
   5  12   9   12.59   14.87
   5  12   9    9.72   15.00
   5  12  10  308.45   35.50
   5  12  10  283.43   35.82
   5  12  10  273.53   35.94
   5  12  11  329.93   37.04
   5  12  11  268.84   36.28
   5  12  12   86.34   22.53
   5  13   3  494.23   49.53
   5  13   4   -2.67   12.33
   5  13   4   -2.77   11.72
   5  13   4   -3.36   14.52
   5  13   5   -5.47   13.18
   5  13   5   -8.62   13.57
   5  13   5   -3.36   16.19
   5  13   6  292.38   34.67
   5  13   6  295.57   35.11
   5  13   6  376.69   40.93
   5  13   7  197.15   29.00
   5  13   7  186.60   28.85
   5  13   7  255.79   34.01
   5  13   8   65.52   18.22
   5  13   8   34.62   17.55
   5  13   8   77.37   22.18
   5  13   9    3.07   12.31
   5  13   9   -3.26   15.09
   5  13   9   10.12   15.60
   5  13  10  164.29   27.52
   5  13  10  171.93   28.67
   5  13  10  179.06   29.43
   6  -7  -6  133.42   22.80
   6  -7  -5   13.66   10.54
   6  -7  -5    2.71   10.24
   6  -7  -4   62.07   17.18
   6  -7  -4   61.92   14.34
   6  -7  -3  210.20   27.22
   6  -7  -3  173.58   22.64
   6  -7  -2   99.35   19.03
   6  -7  -2   66.33   14.10
   6  -7  -1    8.03   11.86
   6  -7   0   82.80   19.48
   6  -6  -7  271.71   29.15
   6  -6  -7  227.46   29.00
   6  -6  -6   83.18   16.23
   6  -6  -6   75.43   17.29
   6  -6  -5   -2.17    9.83
   6  -6  -5    2.58   10.36
   6  -6  -4  100.91   17.04
   6  -6  -4   71.54   17.76
   6  -6  -3  308.41   30.74
   6  -6  -3  367.90   36.49
   6  -6  -2  135.88   21.97
   6  -6  -2  142.60   19.44
   6  -6  -1   55.10   15.02
   6  -6   0   89.84   17.88
   6  -6   1  119.08   20.60
   6  -6   2  145.26   22.25
   6  -5  -8  157.17   23.11
   6  -5  -8  168.51   23.18
   6  -5  -7  149.51   21.59
   6  -5  -7  122.99   20.53
   6  -5  -6   88.61   16.58
   6  -5  -6  121.89   21.08
   6  -5  -5    4.15    9.60
   6  -5  -5   12.27   11.12
   6  -5  -4  274.64   27.35
   6  -5  -4  231.71   28.23
   6  -5  -3  420.52   34.13
   6  -5  -3  332.70   34.88
   6  -5  -2  271.32   25.76
   6  -5  -2  220.68   27.48
   6  -5  -1   65.06   16.12
   6  -5  -1  110.50   15.97
   6  -5   0   46.01   13.41
   6  -5   1  134.94   21.11
   6  -5   2  204.20   25.01
   6  -4  -9   -2.61   12.09
   6  -4  -9   17.09   10.32
   6  -4  -8  196.47   27.04
   6  -4  -8  241.64   27.18
   6  -4  -7  354.84   34.59
   6  -4  -7  331.34   33.16
   6  -4  -7  370.94   36.31
   6  -4  -6   98.69   17.04
   6  -4  -6   95.27   18.07
   6  -4  -5   25.99   10.57
   6  -4  -5   16.31   11.27
   6  -4  -4  202.37   22.84
   6  -4  -4  209.91   25.52
   6  -4  -3  342.29   30.40
   6  -4  -3  322.99   32.70
   6  -4  -2  312.49   28.96
   6  -4  -2  390.66   34.64
   6  -4  -1   93.25   14.83
   6  -4  -1   96.54   17.35
   6  -4   0    8.46    9.16
   6  -4   0   -3.11    6.88
   6  -4   1  175.42   22.78
   6  -4   2  204.77   24.39
   6  -4   4  167.28   24.85
   6  -4   5   96.48   18.84
   6  -3  -9   39.76   15.27
   6  -3  -9   14.59   11.31
   6  -3  -8  208.41   27.17
   6  -3  -8  226.60   26.73
   6  -3  -7  547.08   43.90
   6  -3  -7  503.37   41.93
   6  -3  -7  445.63   41.52
   6  -3  -6  177.46   23.31
   6  -3  -6  179.34   21.86
   6  -3  -6  132.79   22.14
   6  -3  -5   41.03   12.38
   6  -3  -5   42.86   12.25
   6  -3  -5   44.56   14.42
   6  -3  -4  112.85   16.98
   6  -3  -4  138.31   20.19
   6  -3  -3  422.37   33.52
   6  -3  -3  359.06   34.51
   6  -3  -2  504.70   37.70
   6  -3  -2  492.70   40.53
   6  -3  -1  256.36   24.07
   6  -3  -1  269.81   27.53
   6  -3   0   23.04    9.08
   6  -3   0   19.39   11.19
   6  -3   1   47.61   12.93
   6  -3   2  507.35   40.08
   6  -3   4  168.99   25.75
   6  -3   5  211.01   27.77
   6  -3   6  411.86   38.64
   6  -3   7   92.38   18.70
   6  -3   8   91.06   18.62
   6  -2  -9    8.03   13.61
   6  -2  -9   -2.48   10.98
   6  -2  -8   22.30   12.23
   6  -2  -8   30.37   12.93
   6  -2  -7  176.51   23.87
   6  -2  -7  160.08   22.28
   6  -2  -7  148.26   22.55
   6  -2  -6   47.86   13.73
   6  -2  -6   49.61   13.78
   6  -2  -6   66.91   15.56
   6  -2  -5   -5.68   11.16
   6  -2  -5    3.83    7.67
   6  -2  -5    2.14    8.82
   6  -2  -4  122.60   17.85
   6  -2  -4  127.15   17.32
   6  -2  -4  117.29   18.61
   6  -2  -3  430.91   34.88
   6  -2  -3  462.43   38.04
   6  -2  -2  863.76   54.57
   6  -2  -2  800.71   56.72
   6  -2  -1  396.98   31.97
   6  -2  -1  469.10   36.37
   6  -2   0   33.63    8.90
   6  -2   0   42.80   11.69
   6  -2   1   95.17   13.30
   6  -2   1  116.33   16.85
   6  -2   2  639.15   45.27
   6  -2   3  485.68   39.97
   6  -2   3  444.53   35.67
   6  -2   4  137.95   23.58
   6  -2   5  103.72   20.95
   6  -2   6  203.91   26.43
   6  -2   7  415.19   38.36
   6  -2   8   58.04   15.82
   6  -2   9    5.52   11.37
   6  -1  -8   15.11   13.46
   6  -1  -8    7.21   10.89
   6  -1  -7  318.72   31.43
   6  -1  -7  263.50   30.36
   6  -1  -7  266.16   30.45
   6  -1  -6  185.67   23.83
   6  -1  -6  212.73   24.13
   6  -1  -6  147.38   23.28
   6  -1  -5  172.87   22.35
   6  -1  -5  154.49   20.69
   6  -1  -5  165.40   22.35
   6  -1  -4    3.51    9.37
   6  -1  -4   12.42    8.87
   6  -1  -4   -1.99    8.61
   6  -1  -3  139.50   18.11
   6  -1  -3  138.08   17.82
   6  -1  -3  140.42   19.86
   6  -1  -2  338.87   27.98
   6  -1  -2  302.85   28.83
   6  -1  -1   91.24   13.65
   6  -1  -1  114.30   16.61
   6  -1   0   55.51   10.42
   6  -1   0   41.44   11.76
   6  -1   1  725.37   46.40
   6  -1   1  745.33   49.62
   6  -1   2 1404.51   82.87
   6  -1   3  795.19   52.10
   6  -1   3  635.87   45.71
   6  -1   4  306.89   29.98
   6  -1   5   10.74   12.68
   6  -1   6  277.10   29.32
   6  -1   7  221.83   26.48
   6  -1   8  166.32   23.50
   6  -1   9    5.40   11.41
   6   0  -8   19.94   13.14
   6   0  -7  139.62   21.18
   6   0  -6  184.99   23.50
   6   0  -6  159.97   23.04
   6   0  -5  167.70   21.17
   6   0  -5  118.38   19.98
   6   0  -4   66.67   13.51
   6   0  -4   52.94   13.93
   6   0  -3  191.34   21.11
   6   0  -3  158.74   21.26
   6   0  -2  869.76   53.88
   6   0  -2  760.07   54.35
   6   0  -1  656.58   43.38
   6   0  -1  605.63   44.41
   6   0   0  123.45   15.21
   6   0   0  130.76   16.84
   6   0   1    3.46    5.34
   6   0   1   -1.48    7.77
   6   0   2 1295.74   76.56
   6   0   3  306.82   27.92
   6   0   3  263.17   23.48
   6   0   4   23.10   11.69
   6   0   5   24.36   11.08
   6   0   6  604.37   46.90
   6   0   7  545.50   45.39
   6   0   7  594.32   46.34
   6   0   8  686.08   53.56
   6   0   8  722.42   54.42
   6   0   9   85.02   18.31
   6   0   9   75.50   17.66
   6   0  10   13.51   11.70
   6   0  10    5.50   13.74
   6   1  -9   24.32   12.75
   6   1  -8   18.03   11.95
   6   1  -8   20.23   11.18
   6   1  -7   79.48   18.04
   6   1  -7  100.96   16.71
   6   1  -6  340.01   34.04
   6   1  -6  341.01   29.79
   6   1  -5  168.12   22.47
   6   1  -5  131.57   21.27
   6   1  -5  152.99   18.29
   6   1  -4   19.00   11.14
   6   1  -4   35.29   11.93
   6   1  -3  214.26   24.19
   6   1  -3  282.72   27.21
   6   1  -2  597.70   42.71
   6   1  -2  607.61   43.72
   6   1  -1  478.07   34.25
   6   1  -1  422.51   34.45
   6   1   0   37.78    9.73
   6   1   0   41.65   11.66
   6   1   1  418.39   30.34
   6   1   1  414.46   32.08
   6   1   2  367.11   27.06
   6   1   2  381.30   29.15
   6   1   3  840.52   54.35
   6   1   3  771.49   49.79
   6   1   4  561.43   42.02
   6   1   5   -5.71    8.98
   6   1   6   47.55   13.04
   6   1   6   52.79   13.65
   6   1   7  332.60   31.29
   6   1   7  256.37   29.03
   6   1   8  428.01   38.27
   6   1   8  416.06   38.01
   6   1   9   20.28   13.34
   6   1   9    9.93   11.01
   6   1  10   21.47   13.22
   6   1  10   26.42   12.53
   6   1  11  248.06   31.75
   6   1  11  294.54   32.82
   6   2  -9   28.03   13.67
   6   2  -8   58.75   14.96
   6   2  -7  179.63   26.14
   6   2  -7  200.65   24.04
   6   2  -6  477.23   41.53
   6   2  -6  431.49   36.03
   6   2  -5  160.92   22.13
   6   2  -5  133.47   18.47
   6   2  -4   14.08   10.58
   6   2  -4    3.10    8.53
   6   2  -3  291.68   28.00
   6   2  -3  285.66   28.64
   6   2  -3  266.82   24.49
   6   2  -2  717.43   49.36
   6   2  -2  685.95   49.07
   6   2  -2  724.61   46.51
   6   2  -1  414.20   33.26
   6   2  -1  463.12   34.83
   6   2   0  242.36   22.26
   6   2   0  237.67   23.17
   6   2   1   44.51   10.39
   6   2   1   27.02    9.53
   6   2   2  327.62   25.13
   6   2   2  296.88   25.01
   6   2   3  643.89   43.79
   6   2   3  588.34   39.65
   6   2   4  526.50   39.26
   6   2   5   32.75   11.33
   6   2   5   17.73    9.84
   6   2   6  179.60   22.59
   6   2   6  173.10   21.67
   6   2   7  382.99   34.68
   6   2   7  464.50   37.81
   6   2   8  514.09   43.29
   6   2   8  640.89   47.61
   6   2   9   22.07   10.76
   6   2   9   63.49   15.00
   6   2  10   13.10   12.39
   6   2  10   15.13   11.44
   6   2  11  166.78   23.97
   6   2  11   80.67   18.26
   6   2  12  186.64   27.02
   6   3  -8   18.72   12.54
   6   3  -7  134.91   20.81
   6   3  -6  257.94   30.41
   6   3  -6  228.92   25.89
   6   3  -5  302.47   31.56
   6   3  -5  258.75   26.98
   6   3  -4   -2.17    9.81
   6   3  -4    5.16   10.28
   6   3  -3  116.97   18.50
   6   3  -3   96.78   15.43
   6   3  -2  427.67   35.15
   6   3  -2  399.84   32.12
   6   3  -1  794.39   54.65
   6   3  -1  810.32   54.64
   6   3  -1  883.38   53.68
   6   3   0  283.00   25.81
   6   3   0  298.49   26.52
   6   3   0  296.02   24.99
   6   3   1   21.86    8.95
   6   3   1    6.78    7.80
   6   3   1    5.05    8.61
   6   3   2  231.24   21.19
   6   3   2  227.91   21.12
   6   3   3  617.20   41.51
   6   3   3  579.07   38.27
   6   3   3  561.11   38.08
   6   3   4  762.89   50.21
   6   3   4  742.99   50.01
   6   3   5   32.62   10.43
   6   3   5   45.92   10.68
   6   3   6  229.31   23.70
   6   3   6  201.44   22.10
   6   3   7  426.04   36.13
   6   3   7  482.38   38.30
   6   3   8  466.64   39.47
   6   3   8  526.24   41.60
   6   3   9   80.99   16.31
   6   3   9   66.40   15.36
   6   3  10   30.78   14.21
   6   3  10   33.44   13.25
   6   3  11  183.61   25.53
   6   3  11  168.98   23.93
   6   3  12  223.53   29.18
   6   3  12  147.80   24.05
   6   4  -8   12.37   11.22
   6   4  -7   58.03   15.30
   6   4  -6  205.14   25.43
   6   4  -5  155.63   21.28
   6   4  -4   73.80   18.43
   6   4  -4   69.71   15.19
   6   4  -3   21.45   13.01
   6   4  -3   22.83   10.54
   6   4  -2  417.10   36.22
   6   4  -2  382.91   32.49
   6   4  -1  145.58   21.29
   6   4  -1  173.24   19.37
   6   4   0  609.12   44.65
   6   4   0  614.27   42.91
   6   4   1   13.69    9.64
   6   4   1    4.34    8.76
   6   4   2  397.87   30.66
   6   4   2  386.26   30.88
   6   4   3  885.92   54.19
   6   4   3  869.64   53.09
   6   4   4  456.18   35.03
   6   4   4  528.33   36.57
   6   4   5   67.32   12.69
   6   4   5   73.61   12.77
   6   4   6  262.53   25.55
   6   4   6  221.60   23.10
   6   4   7  623.68   45.39
   6   4   7  650.68   47.18
   6   4   8  462.74   36.46
   6   4   8  414.72   36.77
   6   4   9  134.70   20.67
   6   4   9  157.55   20.78
   6   4  10    2.52   10.37
   6   4  10   13.47   10.18
   6   4  11  113.74   20.54
   6   4  11  106.72   18.98
   6   4  12  256.90   31.29
   6   4  12  213.95   27.18
   6   5  -7   74.62   18.11
   6   5  -6  345.77   35.04
   6   5  -5  332.75   33.01
   6   5  -4  132.66   20.08
   6   5  -3   44.88   13.35
   6   5  -2  244.80   25.40
   6   5  -1  248.00   25.23
   6   5   0  215.26   23.65
   6   5   1   13.06   10.47
   6   5   2  628.02   43.62
   6   5   2  588.37   42.96
   6   5   3  504.66   36.53
   6   5   3  479.67   37.89
   6   5   3  531.24   38.27
   6   5   3  542.85   39.69
   6   5   4  753.68   53.41
   6   5   4  895.78   53.44
   6   5   4  864.57   55.58
   6   5   5    1.71    9.93
   6   5   5    2.99    7.21
   6   5   5    4.09    6.82
   6   5   5    1.82    9.70
   6   5   6   78.58   14.01
   6   5   6   99.74   14.32
   6   5   7  777.97   51.57
   6   5   7  770.28   53.21
   6   5   8  443.10   36.17
   6   5   8  502.29   39.48
   6   5   9  366.75   32.83
   6   5   9  257.20   27.31
   6   5  10   34.56   13.07
   6   5  10   27.34   10.98
   6   5  11  112.15   20.65
   6   5  11   96.28   17.79
   6   5  12  137.36   22.23
   6   5  12  103.78   19.28
   6   5  13  212.17   28.22
   6   5  13  137.80   22.34
   6   6  -6  118.13   21.76
   6   6  -5  157.97   24.65
   6   6  -4   13.51   11.47
   6   6  -3    6.40   10.48
   6   6  -2  837.94   58.99
   6   6  -1  717.60   51.41
   6   6   0  880.59   59.37
   6   6   1  125.21   18.38
   6   6   2  111.64   18.19
   6   6   2  125.50   20.19
   6   6   3  261.93   24.93
   6   6   3  278.32   27.10
   6   6   3  289.37   26.50
   6   6   3  282.25   28.05
   6   6   4  460.86   35.98
   6   6   4  476.62   37.57
   6   6   4  492.29   39.18
   6   6   5   16.12   10.04
   6   6   5   15.38   12.61
   6   6   6   -1.94   10.05
   6   6   6   -3.17    7.50
   6   6   6   -2.08   10.21
   6   6   7  558.49   44.67
   6   6   7  566.84   42.38
   6   6   7  607.43   46.49
   6   6   8  484.51   39.28
   6   6   9  187.36   23.54
   6   6  10  205.55   25.13
   6   6  10  143.26   20.38
   6   6  11  176.04   24.35
   6   6  11  137.23   20.24
   6   6  12  203.68   27.12
   6   6  12  151.64   21.90
   6   6  13  247.15   30.52
   6   6  13  182.86   24.79
   6   7  -5  132.96   22.71
   6   7  -4   83.35   18.25
   6   7  -3   56.11   16.75
   6   7  -2  158.19   23.42
   6   7  -1  795.07   57.41
   6   7   0  378.97   34.71
   6   7   1    4.00   11.35
   6   7   1   12.33   11.97
   6   7   2   45.03   13.25
   6   7   2   41.68   14.22
   6   7   3 1153.15   74.20
   6   7   3 1182.14   75.58
   6   7   4 1159.63   72.36
   6   7   4 1234.53   74.24
   6   7   4 1097.89   74.93
   6   7   5  479.78   37.64
   6   7   5  428.04   37.65
   6   7   5  480.25   40.17
   6   7   6  321.15   31.25
   6   7   6  357.27   33.83
   6   7   7   81.11   16.92
   6   7   7   44.61   11.45
   6   7   7   56.45   16.41
   6   7   8   77.10   17.76
   6   7   8   92.56   15.62
   6   7   8   90.09   18.81
   6   7   9  255.94   29.23
   6   7   9  231.85   25.87
   6   7   9  228.10   29.65
   6   7  10   16.56   11.64
   6   7  11  108.37   19.92
   6   7  12  133.92   22.56
   6   7  13  394.17   40.17
   6   8  -4   47.25   16.23
   6   8  -3   10.10   12.40
   6   8  -2  247.57   29.67
   6   8  -1  371.80   35.91
   6   8   0  398.72   37.58
   6   8   1  124.95   20.20
   6   8   1  114.84   20.63
   6   8   2   66.37   16.25
   6   8   2   92.54   18.80
   6   8   3  143.94   21.63
   6   8   3  213.61   26.01
   6   8   4  729.68   54.87
   6   8   4  902.88   58.18
   6   8   4  862.31   60.52
   6   8   5  297.61   29.08
   6   8   5  285.36   29.77
   6   8   5  263.20   31.31
   6   8   6   45.25   14.80
   6   8   6   27.60   13.53
   6   8   6   47.71   17.04
   6   8   7  175.18   23.58
   6   8   7  135.94   22.35
   6   8   8  640.06   50.07
   6   8   8  590.35   49.54
   6   8   9  453.49   41.21
   6   8   9  407.63   36.92
   6   8   9  483.75   43.55
   6   8  10  168.20   25.48
   6   8  10  173.48   22.91
   6   8  10  171.16   25.93
   6   8  11   -2.84   12.85
   6   8  11    5.06   11.47
   6   8  11   -9.06   14.26
   6   8  12  112.62   21.01
   6   8  13  120.85   22.03
   6   9  -3    2.69   12.70
   6   9  -2   75.49   18.28
   6   9  -1  301.02   33.63
   6   9   0  327.92   33.72
   6   9   1   66.38   16.50
   6   9   1   71.17   18.59
   6   9   2   -2.32   12.78
   6   9   2   12.74   14.24
   6   9   3  192.98   26.04
   6   9   3  298.56   32.55
   6   9   4  631.11   49.28
   6   9   4  738.36   52.16
   6   9   4  739.19   55.62
   6   9   5  318.14   32.06
   6   9   5  352.77   33.89
   6   9   5  343.35   36.12
   6   9   6   34.04   13.77
   6   9   6   14.52   12.57
   6   9   6   26.95   15.53
   6   9   7   48.15   16.18
   6   9   7   59.13   17.57
   6   9   7   71.95   19.24
   6   9   8  538.70   46.95
   6   9   8  584.25   48.96
   6   9   9  182.88   27.12
   6   9   9  253.52   31.71
   6   9  10   92.88   21.53
   6   9  10  111.81   22.49
   6   9  11   67.45   19.78
   6   9  11   54.60   16.31
   6   9  11   47.05   19.62
   6   9  12   89.00   18.61
   6   9  12   93.72   24.42
   6   9  13  301.62   34.18
   6  10  -2   -2.74   12.43
   6  10  -1   58.65   18.03
   6  10   0  319.58   35.65
   6  10   0  324.11   36.35
   6  10   1   22.86   15.80
   6  10   1   36.15   16.46
   6  10   2   29.94   14.36
   6  10   2    5.56   13.40
   6  10   3  268.15   32.13
   6  10   4  460.30   39.37
   6  10   4  438.25   39.76
   6  10   4  502.38   45.84
   6  10   5  316.09   32.38
   6  10   5  299.00   32.51
   6  10   5  302.20   35.89
   6  10   6   36.04   14.93
   6  10   6   17.90   14.74
   6  10   6   23.10   15.48
   6  10   7  179.79   25.42
   6  10   7  175.43   26.16
   6  10   7  188.48   29.08
   6  10   8  271.78   31.64
   6  10   8  298.69   34.22
   6  10   8  282.26   34.67
   6  10   9  459.54   43.65
   6  10   9  536.36   47.72
   6  10  10  117.06   23.02
   6  10  10   90.93   21.34
   6  10  11   -9.10   14.04
   6  10  11    9.74   14.70
   6  10  12   87.52   20.66
   6  10  12   80.39   21.62
   6  10  13  116.55   22.04
   6  10  13  140.19   26.38
   6  11  -1   78.38   19.81
   6  11   0  211.10   30.36
   6  11   0  269.61   33.61
   6  11   1   94.17   21.10
   6  11   1  111.34   22.94
   6  11   2   -2.65   12.53
   6  11   2    3.01   14.47
   6  11   3  246.83   32.09
   6  11   4  288.13   36.09
   6  11   5  264.80   30.00
   6  11   5  246.41   30.51
   6  11   5  314.94   36.35
   6  11   6   35.68   14.91
   6  11   6   29.75   14.52
   6  11   6   24.64   16.78
   6  11   7  116.89   22.16
   6  11   7  127.19   22.86
   6  11   7  131.01   24.89
   6  11   8  216.80   29.05
   6  11   8  237.22   30.70
   6  11   8  231.28   32.39
   6  11   9  543.17   48.18
   6  11   9  546.20   49.73
   6  11   9  516.99   49.97
   6  11  10  166.63   26.30
   6  11  10  149.16   27.14
   6  11  11    3.14   13.58
   6  11  11    6.73   16.20
   6  11  12    9.65   14.59
   6  11  12   24.13   16.29
   6  12   1   70.45   19.34
   6  12   1   73.99   20.69
   6  12   2   12.85   15.49
   6  12   3  205.90   30.87
   6  12   4  232.88   32.93
   6  12   5  259.86   31.74
   6  12   5  287.83   33.17
   6  12   5  299.11   35.99
   6  12   6  126.24   22.26
   6  12   6  133.79   23.93
   6  12   6  153.67   27.40
   6  12   7   27.86   14.95
   6  12   7   26.63   14.85
   6  12   7   29.61   16.79
   6  12   8   60.98   18.42
   6  12   8   58.82   18.95
   6  12   8   56.46   20.29
   6  12   9  291.33   33.93
   6  12   9  227.55   32.52
   6  12   9  298.97   36.54
   6  12  10  196.30   28.43
   6  12  10  186.48   29.18
   6  12  11   -6.44   15.81
   6  12  11    6.91   15.64
   6  13   4  286.12   36.87
   6  13   5  359.57   41.07
   6  13   6  117.98   21.97
   6  13   6  121.84   23.48
   6  13   6  151.13   28.60
   6  13   7    8.71   13.15
   6  13   7    3.08   13.95
   6  13   7   -3.45   17.82
   6  13   8   87.45   20.16
   6  13   8   83.59   22.08
   6  13   8   79.70   21.85
   6  13   9  329.14   38.47
   6  13   9  351.30   39.80
   6  13   9  397.38   42.88
   7  -6  -3    6.55    8.00
   7  -6  -2   35.73   12.04
   7  -5  -6   -2.72   11.20
   7  -5  -5  100.63   18.11
   7  -5  -5   99.71   19.84
   7  -5  -4   89.93   16.94
   7  -5  -4   74.47   17.70
   7  -5  -3   56.65   13.47
   7  -5  -3   63.05   15.96
   7  -5  -2   62.24   14.05
   7  -5  -2   69.73   17.20
   7  -5  -1  157.77   23.86
   7  -5   0  336.39   35.03
   7  -5   1   89.00   18.02
   7  -4  -7    2.67   10.40
   7  -4  -6   18.80   11.11
   7  -4  -6    5.26    9.96
   7  -4  -5  375.03   34.78
   7  -4  -5  298.07   33.45
   7  -4  -4  392.96   35.30
   7  -4  -4  371.33   37.47
   7  -4  -3  138.13   19.81
   7  -4  -3  114.89   19.88
   7  -4  -2   17.35    9.66
   7  -4  -2   12.24   11.35
   7  -4  -1   47.48   12.23
   7  -4  -1   59.85   14.71
   7  -4   0  126.77   20.20
   7  -4   1   53.08   16.38
   7  -4   2    9.06   10.05
   7  -3  -7   24.49   13.09
   7  -3  -7   -5.23   11.33
   7  -3  -6   13.99   11.05
   7  -3  -6   28.14   13.48
   7  -3  -5  188.08   23.49
   7  -3  -5  172.26   24.88
   7  -3  -4  379.93   33.19
   7  -3  -4  292.41   32.62
   7  -3  -3  133.16   19.09
   7  -3  -3  182.68   23.74
   7  -3  -2   -5.54    8.55
   7  -3  -2   -2.31    9.00
   7  -3  -1   87.04   14.69
   7  -3  -1   72.17   16.01
   7  -3   0  282.77   29.47
   7  -3   1  220.68   25.53
   7  -3   2   56.62   13.58
   7  -3   5  134.96   20.86
   7  -3   6   34.81   14.18
   7  -2  -8  181.36   26.29
   7  -2  -8  158.19   23.95
   7  -2  -7   57.23   16.70
   7  -2  -7   66.87   17.27
   7  -2  -7   51.62   16.05
   7  -2  -6    9.21   12.33
   7  -2  -6   18.64    9.63
   7  -2  -6   32.59   13.42
   7  -2  -5   88.08   17.14
   7  -2  -5   99.37   19.16
   7  -2  -4  290.62   28.78
   7  -2  -4  234.35   27.83
   7  -2  -3   46.12   12.49
   7  -2  -3   38.58   13.38
   7  -2  -2    1.80    6.80
   7  -2  -2    2.19    9.71
   7  -2  -1  120.96   17.09
   7  -2  -1  148.60   20.31
   7  -2   0  276.31   25.21
   7  -2   0  224.43   26.09
   7  -2   1  310.65   30.20
   7  -2   2   48.28   12.06
   7  -2   4  187.62   24.92
   7  -2   5  502.04   43.73
   7  -2   6  227.47   28.02
   7  -2   7    2.72   11.47
   7  -1  -8  236.77   29.77
   7  -1  -7   85.26   18.40
   7  -1  -7   63.90   16.94
   7  -1  -6   -2.34    9.38
   7  -1  -6    2.47    9.90
   7  -1  -5  123.18   19.41
   7  -1  -5  118.87   20.22
   7  -1  -4   94.98   16.41
   7  -1  -4   77.48   16.80
   7  -1  -3  169.64   21.04
   7  -1  -3  163.71   22.40
   7  -1  -2    1.79    7.37
   7  -1  -2   -4.18    8.38
   7  -1  -1  106.32   15.85
   7  -1  -1  138.87   19.35
   7  -1   0  110.58   15.49
   7  -1   0  117.75   18.54
   7  -1   1  563.82   42.98
   7  -1   2   57.36   12.76
   7  -1   4  285.24   30.27
   7  -1   5  724.86   55.03
   7  -1   6  257.60   29.85
   7  -1   7  121.42   21.27
   7  -1   8   60.69   16.34
   7   0  -8  117.77   22.26
   7   0  -7  121.30   21.26
   7   0  -6   -2.42    9.96
   7   0  -6   -2.46   10.12
   7   0  -5   67.76   15.39
   7   0  -5   56.52   15.55
   7   0  -4  317.89   30.37
   7   0  -4  240.02   28.71
   7   0  -3  191.05   22.17
   7   0  -3  183.32   23.67
   7   0  -2  107.40   16.78
   7   0  -2  115.26   17.94
   7   0  -1   14.87    8.43
   7   0  -1   11.54    9.46
   7   0   0  452.87   33.21
   7   0   0  372.95   33.65
   7   0   1  316.76   26.65
   7   0   1  314.40   28.65
   7   0   2  264.59   25.12
   7   0   4  237.68   26.90
   7   0   5  489.43   41.97
   7   0   6  205.15   25.57
   7   0   7   38.09   13.90
   7   0   8   53.37   15.55
   7   0   9  134.58   22.21
   7   1  -8  126.93   23.91
   7   1  -7  130.55   22.73
   7   1  -6    2.52    9.83
   7   1  -5   72.54   15.98
   7   1  -5   63.61   16.39
   7   1  -4  607.54   46.12
   7   1  -4  534.00   45.80
   7   1  -3  545.99   42.15
   7   1  -3  498.18   42.20
   7   1  -2  247.71   26.19
   7   1  -2  276.57   28.14
   7   1  -1    1.68    8.11
   7   1  -1    1.87    8.84
   7   1   0  351.99   29.09
   7   1   0  306.48   29.44
   7   1   1  403.85   30.49
   7   1   1  343.66   30.54
   7   1   2  476.98   35.92
   7   1   4  123.96   19.40
   7   1   5  168.37   22.65
   7   1   6  245.42   27.61
   7   1   7   -2.42    9.70
   7   1   8    7.82   11.29
   7   1   8    7.68   11.09
   7   1   9  202.94   27.12
   7   1   9  159.81   24.53
   7   1  10  129.14   22.53
   7   1  10   96.73   19.96
   7   2  -8   82.02   19.98
   7   2  -7    8.35   12.05
   7   2  -6   -2.62   11.35
   7   2  -5  367.78   36.63
   7   2  -4  523.01   43.71
   7   2  -3  796.08   53.63
   7   2  -3  614.62   50.57
   7   2  -2  403.37   34.63
   7   2  -2  345.58   33.39
   7   2  -1   -7.19    8.15
   7   2  -1   -5.57    8.04
   7   2   0  359.86   30.98
   7   2   0  398.77   32.76
   7   2   1  545.03   40.51
   7   2   1  631.33   42.63
   7   2   2  532.02   38.38
   7   2   4    5.92    8.74
   7   2   5  217.81   24.54
   7   2   6   71.32   15.00
   7   2   7  120.88   19.45
   7   2   7   93.84   18.07
   7   2   8   15.15   11.20
   7   2   8   12.19   10.32
   7   2   9  171.39   24.83
   7   2   9  144.68   22.51
   7   2  10  235.26   28.73
   7   2  10  144.72   23.92
   7   2  11  148.51   24.91
   7   3  -7  161.45   25.98
   7   3  -7  151.55   22.80
   7   3  -6    8.27   12.76
   7   3  -6   10.87   11.98
   7   3  -5   20.59   14.39
   7   3  -5    4.06   10.17
   7   3  -4  272.64   30.79
   7   3  -4  267.23   27.35
   7   3  -3  363.65   35.35
   7   3  -2   14.45   11.72
   7   3  -1   15.16    9.97
   7   3  -1    1.87    8.67
   7   3   0  448.97   37.17
   7   3   0  507.14   38.22
   7   3   1  908.80   58.12
   7   3   1  878.68   57.73
   7   3   2  424.74   33.36
   7   3   2  469.54   34.30
   7   3   4   20.19    9.70
   7   3   5  236.00   25.47
   7   3   6  381.00   35.19
   7   3   6  473.19   37.99
   7   3   7  259.54   28.27
   7   3   7  226.41   26.19
   7   3   8   12.19   10.10
   7   3   8   39.12   12.72
   7   3   9  127.65   21.01
   7   3   9  114.92   19.55
   7   3  10  124.21   21.80
   7   3  10  132.21   21.30
   7   3  11  189.63   27.03
   7   3  11  154.01   24.00
   7   4  -7  156.02   23.84
   7   4  -6   37.26   13.68
   7   4  -5   26.36   12.85
   7   4  -4   48.41   17.03
   7   4  -4   51.67   13.75
   7   4  -3  473.34   41.50
   7   4  -3  402.15   35.75
   7   4  -2   48.83   15.23
   7   4  -2   62.81   13.69
   7   4  -1  -14.27   10.73
   7   4  -1   -5.24    8.59
   7   4   0  103.57   17.81
   7   4   1  408.64   34.46
   7   4   2  192.86   21.00
   7   4   2  197.38   20.06
   7   4   4   89.90   15.00
   7   4   5  766.85   52.80
   7   4   5  796.33   53.76
   7   4   6 1190.51   78.40
   7   4   6 1389.96   81.60
   7   4   7  378.42   34.65
   7   4   7  443.05   37.57
   7   4   8  135.45   20.78
   7   4   8  157.28   21.30
   7   4   9   90.25   18.36
   7   4   9   80.63   16.82
   7   4  10  311.25   33.33
   7   4  10  265.36   29.90
   7   4  11   99.96   20.90
   7   4  11  120.26   21.36
   7   4  12   41.58   14.00
   7   5  -6   30.10   14.48
   7   5  -5   11.82   12.44
   7   5  -4  118.86   19.38
   7   5  -3  337.85   33.00
   7   5  -2  172.60   22.19
   7   5  -1   30.99   11.23
   7   5   0   72.57   14.93
   7   5   1  443.44   36.01
   7   5   2  386.11   32.31
   7   5   5  197.13   22.01
   7   5   6  857.05   59.48
   7   5   6 1019.05   62.64
   7   5   7  270.44   28.17
   7   5   7  376.02   32.07
   7   5   8    6.71    9.22
   7   5   8   24.07   10.74
   7   5   9   16.94   10.31
   7   5   9   40.98   12.12
   7   5  10  626.67   49.97
   7   5  10  717.08   54.24
   7   5  11  214.95   27.65
   7   5  11  163.26   23.51
   7   5  12   94.88   20.80
   7   5  12  105.25   19.25
   7   6  -5   20.42   12.80
   7   6  -4  117.35   21.45
   7   6  -3  207.03   25.97
   7   6  -2  449.29   39.73
   7   6  -1   -2.13   10.63
   7   6   0   32.73   12.17
   7   6   1  513.90   40.92
   7   6   2  940.60   62.61
   7   6   3  362.61   32.59
   7   6   5  238.04   25.34
   7   6   5  209.65   24.61
   7   6   6  479.71   37.68
   7   6   7  230.51   24.97
   7   6   8   62.09   14.20
   7   6   9  105.32   18.57
   7   6  10  106.66   19.61
   7   6  11  237.90   29.31
   7   6  12   58.40   16.34
   7   7  -4   75.73   18.99
   7   7  -3  205.01   27.48
   7   7  -2  275.84   30.67
   7   7  -1   18.54   12.22
   7   7   0   46.75   14.90
   7   7   1  492.55   41.50
   7   7   2  968.86   65.56
   7   7   3  320.66   31.62
   7   7   4   17.90   13.72
   7   7   5  121.68   18.57
   7   7   5  145.51   20.87
   7   7   6  407.87   36.06
   7   7   6  407.11   37.03
   7   7   7  493.22   42.32
   7   7   7  504.80   43.02
   7   7   8   45.16   12.91
   7   7   9   11.30   10.47
   7   7  10  106.05   18.93
   7   7  11  136.11   21.99
   7   7  12   42.93   14.71
   7   8  -4   41.67   16.51
   7   8  -3  112.17   21.08
   7   8  -2  137.34   23.82
   7   8  -1   59.90   17.09
   7   8   0   81.76   17.62
   7   8   1  358.03   35.17
   7   8   2  263.01   29.64
   7   8   3  556.55   47.92
   7   8   3  714.75   51.70
   7   8   4   24.44   13.31
   7   8   5  136.97   20.16
   7   8   5  167.03   23.04
   7   8   5  140.99   23.58
   7   8   6  280.49   30.14
   7   8   6  269.79   29.87
   7   8   6  331.65   34.38
   7   8   7  758.21   55.44
   7   8   7  714.40   56.10
   7   8   8  101.20   19.87
   7   8   8   94.75   21.02
   7   8   9    2.68   12.38
   7   8   9    5.71   12.37
   7   8  10  138.64   21.08
   7   8  11  257.73   29.70
   7   8  12  229.78   29.17
   7   9  -2   82.48   19.16
   7   9  -1   95.73   20.94
   7   9   0   10.34   10.65
   7   9   1   98.11   20.32
   7   9   2  234.24   29.71
   7   9   3    4.87   11.72
   7   9   3    2.62   12.61
   7   9   4   15.95   12.58
   7   9   5  271.23   32.65
   7   9   6  518.73   44.25
   7   9   6  565.62   46.31
   7   9   6  559.70   48.11
   7   9   7  340.95   35.71
   7   9   7  408.13   39.07
   7   9   7  413.60   41.15
   7   9   8  262.55   30.73
   7   9   8  306.82   34.40
   7   9   9    5.54   12.54
   7   9   9    5.94   14.02
   7   9  10  173.97   26.90
   7   9  10   99.34   22.67
   7   9  11  432.68   42.84
   7   9  11  354.64   40.08
   7   9  12  303.22   33.42
   7  10  -1  182.95   27.57
   7  10   0   21.95   14.00
   7  10   1   -2.68   12.14
   7  10   2   94.91   19.85
   7  10   3   71.11   18.75
   7  10   4   -2.87   12.73
   7  10   5   55.34   17.39
   7  10   6  227.95   29.76
   7  10   6  293.38   32.12
   7  10   7  263.81   30.79
   7  10   7  265.34   32.82
   7  10   7  281.88   34.20
   7  10   8  177.90   26.00
   7  10   8  155.72   26.16
   7  10   9    8.61   12.42
   7  10   9    3.07   13.29
   7  10  10  263.27   32.50
   7  10  10  263.55   34.13
   7  10  11  373.22   40.86
   7  10  11  423.01   44.01
   7  10  12  401.14   41.92
   7  10  12  338.92   40.76
   7  11   0   28.79   15.21
   7  11   1   50.94   17.30
   7  11   2  226.05   30.67
   7  11   2  257.40   32.52
   7  11   3  421.52   42.82
   7  11   4  181.60   28.86
   7  11   5    9.32   14.68
   7  11   6  125.69   21.08
   7  11   6  126.00   23.10
   7  11   6  170.11   27.93
   7  11   7  119.04   21.03
   7  11   7   81.00   19.75
   7  11   7  102.49   24.13
   7  11   8  121.83   22.34
   7  11   8  127.21   24.65
   7  11   8   71.69   21.28
   7  11   9   11.90   14.05
   7  11   9    6.39   14.15
   7  11  10  135.75   24.96
   7  11  10  112.63   24.20
   7  11  11  239.62   32.68
   7  11  11  271.24   35.52
   7  12   2  364.09   40.95
   7  12   3  301.89   37.01
   7  12   4  163.57   27.95
   7  12   5   -3.30   15.24
   7  12   6  162.85   27.65
   7  12   7  375.96   37.60
   7  12   7  437.06   43.67
   7  12   8  232.12   30.70
   7  12   8  226.40   30.80
   7  12   8  180.85   30.00
   7  12   9   45.84   17.58
   7  12   9   84.95   21.15
   7  12   9   62.03   20.29
   7  12  10    3.18   13.78
   7  12  10    3.42   15.14
   7  13   6  159.94   28.21
   7  13   7  177.30   26.90
   7  13   7  192.48   28.83
   7  13   8  177.87   27.44
   7  13   8  225.64   31.25
   8  -4  -3   69.47   14.91
   8  -4  -2  197.48   23.75
   8  -4  -2  192.22   26.28
   8  -4  -1  146.53   23.39
   8  -4   0   87.08   17.97
   8  -4   1    7.49   10.01
   8  -3  -4   30.09   12.14
   8  -3  -4   58.82   15.49
   8  -3  -3   15.51    9.87
   8  -3  -3   31.42   12.89
   8  -3  -2  148.47   19.87
   8  -3  -2   94.58   19.64
   8  -3  -1  117.27   20.14
   8  -3   0   34.05   13.69
   8  -3   1   40.27   14.11
   8  -2  -5   95.24   18.48
   8  -2  -5   96.40   19.83
   8  -2  -4   13.89   11.78
   8  -2  -4   10.40   10.71
   8  -2  -3  104.61   17.89
   8  -2  -3   90.87   18.64
   8  -2  -2  282.51   27.74
   8  -2  -2  210.42   27.72
   8  -2  -1  313.77   29.57
   8  -2  -1  276.00   31.26
   8  -2   0  101.37   18.11
   8  -2   1    4.47    9.43
   8  -1  -6  160.05   24.37
   8  -1  -6  184.57   26.26
   8  -1  -5  152.29   23.79
   8  -1  -5  208.39   26.98
   8  -1  -4   37.05   14.62
   8  -1  -4   35.65   13.72
   8  -1  -3   37.05   13.83
   8  -1  -3   53.92   16.18
   8  -1  -2  214.23   24.35
   8  -1  -2  186.50   25.21
   8  -1  -1  338.44   30.25
   8  -1  -1  279.78   30.91
   8  -1   0  111.82   18.77
   8  -1   1   -2.11    9.13
   8  -1   6   11.06   11.40
   8   0  -6  129.68   21.90
   8   0  -6  116.13   21.44
   8   0  -5   81.17   18.18
   8   0  -5  104.41   20.08
   8   0  -4    2.38    9.78
   8   0  -4   -2.51    9.79
   8   0  -3   28.85   12.23
   8   0  -3   67.31   16.03
   8   0  -2  279.15   29.03
   8   0  -2  284.98   30.26
   8   0  -1  585.49   43.96
   8   0  -1  559.43   45.56
   8   0   0   84.24   15.41
   8   0   0   96.47   17.60
   8   0   1  186.28   23.30
   8   0   2  114.95   17.53
   8   0   5  235.09   28.94
   8   0   6   26.73   13.66
   8   0   7   85.83   18.61
   8   0   8  232.57   29.46
   8   1  -6  196.03   27.82
   8   1  -5  190.67   26.56
   8   1  -5  156.29   24.72
   8   1  -4   71.16   17.20
   8   1  -4   64.83   16.66
   8   1  -3    2.28   10.96
   8   1  -3   -4.76   11.00
   8   1  -2   90.54   16.38
   8   1  -2   67.90   15.61
   8   1  -1  378.36   33.31
   8   1  -1  326.03   32.65
   8   1   0  204.82   23.29
   8   1   0  205.32   24.13
   8   1   1    5.77    8.12
   8   1   2    1.82    7.88
   8   1   5  165.45   23.24
   8   1   6   25.60   14.56
   8   1   7   93.19   19.04
   8   1   8  260.89   30.93
   8   2  -6  108.59   22.08
   8   2  -5  186.73   26.45
   8   2  -4  111.97   20.86
   8   2  -3    9.53   11.03
   8   2  -3    2.38   10.04
   8   2  -2   70.84   16.24
   8   2  -2   85.43   17.41
   8   2  -1  331.51   31.99
   8   2  -1  331.09   32.56
   8   2   0  369.18   32.17
   8   2   0  311.89   31.32
   8   2   1   63.38   14.13
   8   2   1   58.18   13.71
   8   2   2   28.16   10.61
   8   2   5  180.23   25.04
   8   2   6   53.47   16.12
   8   2   7  185.24   25.21
   8   2   8  323.86   34.09
   8   2   9  186.29   26.30
   8   3  -6   23.87   14.69
   8   3  -5  247.46   31.45
   8   3  -4  102.86   21.01
   8   3  -3   24.89   13.15
   8   3  -2   30.10   13.38
   8   3  -1  308.34   31.52
   8   3  -1  318.91   32.05
   8   3   0  153.24   20.79
   8   3   0  135.36   20.19
   8   3   1   11.04    8.73
   8   3   1   26.03   11.00
   8   3   2   88.26   15.26
   8   3   5  249.08   28.01
   8   3   6   29.82   14.44
   8   3   7   33.61   13.51
   8   3   8  366.53   35.88
   8   3   8  295.45   32.79
   8   3   9  327.95   34.24
   8   3   9  236.40   29.60
   8   3  10   64.79   17.28
   8   3  10   30.74   13.63
   8   4  -5  119.99   23.55
   8   4  -4  122.50   23.12
   8   4  -3    2.62   11.06
   8   4  -2   91.14   19.43
   8   4  -1  223.24   27.24
   8   4   0  407.25   37.01
   8   4   1   31.43   12.68
   8   4   2   25.98   10.92
   8   4   5  273.72   28.93
   8   4   6    6.45    9.53
   8   4   7  114.92   19.17
   8   4   7   90.22   17.37
   8   4   8  288.86   31.40
   8   4   8  250.19   29.23
   8   4   9  372.36   38.25
   8   4   9  493.22   42.34
   8   4  10  103.85   19.77
   8   4  10   80.01   17.29
   8   4  11   22.43   13.28
   8   5  -5  136.32   22.24
   8   5  -4  120.85   20.14
   8   5  -3   36.79   13.85
   8   5   0  135.22   23.01
   8   5   1  104.66   19.85
   8   5   6  118.54   18.50
   8   5   7   -2.28    9.14
   8   5   7   21.05   11.42
   8   5   8  166.95   23.25
   8   5   8  165.08   22.32
   8   5   9  225.95   28.40
   8   5   9  244.26   27.98
   8   5  10   94.74   19.27
   8   5  10   78.06   18.30
   8   5  11   -8.85   12.46
   8   5  11    5.31   11.50
   8   6  -4   69.82   17.95
   8   6  -3   22.27   13.26
   8   6  -2   71.14   16.68
   8   6  -1  155.48   22.62
   8   6   0  380.95   35.70
   8   6   7   52.03   13.97
   8   6   8  257.69   28.53
   8   6   9  246.53   28.84
   8   6  10  236.47   29.30
   8   6  11   -5.72   11.78
   8   7  -3   79.43   18.79
   8   7  -2   10.22   12.31
   8   7  -1  130.60   21.92
   8   7   0  156.42   23.26
   8   7   1  156.30   22.73
   8   7   2   46.97   15.55
   8   7   9  305.30   31.89
   8   7  10   36.27   14.58
   8   7  11   -2.77   12.56
   8   8  -2    2.73   11.80
   8   8  -1   63.15   17.85
   8   8   0  292.96   33.02
   8   8   1  431.61   40.59
   8   8   2   26.62   13.19
   8   8   3    7.14   10.55
   8   8   7   12.18   11.74
   8   8   7   10.39   12.99
   8   8  11   16.11   11.37
   8   9  -1   64.10   17.15
   8   9   0  160.65   25.91
   8   9   1  209.33   28.55
   8   9   2   33.75   14.80
   8   9   5  286.30   33.37
   8   9   7   25.24   13.73
   8   9   7   16.26   13.09
   8   9   8  149.94   24.46
   8   9   8  186.49   27.26
   8   9   9  110.31   21.52
   8   9   9   75.39   21.04
   8  10   0  286.95   34.33
   8  10   1  199.40   28.55
   8  10   2   46.95   16.24
   8  10   5  288.87   34.02
   8  10   6  144.61   26.13
   8  10   8   71.93   17.89
   8  10   8   32.73   15.59
   8  10   9  212.61   29.60
   8  10   9  246.54   32.24
   8  10  10  191.70   28.37
   8  10  10  201.97   30.14
   8  11   2   34.88   16.10
   8  11   5  388.16   41.83
   8  11   6  312.50   37.17
   8  11   7  110.47   23.60
   8  11   8   -2.86   12.95
   8  11   8    3.07   13.61
   8  11   9   68.91   19.46
   8  11   9  112.40   22.90
   8  11  10  159.02   26.33
   8  11  10  204.34   30.14
   8  12   5  250.75   33.97
   8  12   6  237.58   32.66
   8  12   7    3.40   15.08
   8  12   8   -2.95   12.16
   8  12   8   15.89   15.31
   8  12   8   -3.45   16.61
   8  12   9  113.76   22.74
   8  12   9  132.21   24.92
   9  -2  -2   80.41   17.27
   9  -2  -1    5.18    9.79
   9  -2   0   77.96   17.23
   9  -1  -3  167.32   24.35
   9  -1  -2  109.45   19.13
   9  -1  -2  142.79   23.40
   9  -1  -1    2.51   10.05
   9  -1   0   43.54   14.61
   9  -1   1  239.94   27.49
   9   0  -3   96.14   18.64
   9   0  -3   95.29   19.78
   9   0  -2  180.07   24.30
   9   0  -2  185.77   25.90
   9   0  -1    2.18    9.87
   9   0  -1    2.44   11.06
   9   0   0   79.56   17.42
   9   0   1  116.45   19.55
   9   1  -4  145.90   24.13
   9   1  -4  212.32   27.48
   9   1  -3  183.24   25.39
   9   1  -3  162.33   24.72
   9   1  -2  282.11   31.89
   9   1  -2  300.95   32.74
   9   1  -1   51.25   13.55
   9   1  -1   52.69   15.05
   9   1   0   -4.57    9.88
   9   1   1   47.75   14.10
   9   2  -4   27.64   14.12
   9   2  -3  107.91   21.29
   9   2  -3  101.74   20.82
   9   2  -2  131.01   22.35
   9   2  -2  184.23   25.38
   9   2  -1    9.21   10.43
   9   2  -1   -2.37   10.25
   9   2   0   21.55   12.23
   9   2   0    6.74   10.19
   9   2   1  153.13   21.47
   9   2   6   88.67   18.30
   9   2   7  191.45   26.73
   9   3  -4   20.23   13.68
   9   3  -3   67.91   17.72
   9   3  -2  111.99   21.13
   9   3  -1   62.30   17.09
   9   3  -1   99.27   18.01
   9   3   0    4.49   10.80
   9   3   0    2.23    9.66
   9   3   1  161.71   22.38
   9   3   6  286.01   31.95
   9   3   7  301.61   33.31
   9   3   8  134.28   22.50
   9   4  -3  196.87   28.90
   9   4  -2  217.84   29.51
   9   4  -1  101.39   20.92
   9   4   0   11.74   12.36
   9   4   6  159.02   23.64
   9   4   7  172.62   25.12
   9   4   8   96.38   18.86
   9   4   9   16.26   12.82
   9   5   0   24.70   13.85
   9   5   1  177.70   24.20
   9   5   9   28.00   12.76
   9   5  10   77.68   18.12
   9   6   9    5.38   10.17
   9   6  10    2.85   10.77
   9   8  -1   49.30   16.74
   9   8   0   13.31   12.34
   9   9   0   53.63   17.07
   9   9   1   -8.27   11.94
   9   9   2   86.45   19.40
   9  10   2  143.08   24.89
  10   1   0  182.04   25.54
  10   2  -1  109.23   20.51
  10   2   0  226.23   28.18
  10   3  -1  125.66   21.60
  10   3   0  192.95   26.21
  10   4  -1   79.15   19.17
   0   0   0    0.00    0.00


TITL MM-18 in P1
REM P1 (#1 in standard setting)
CELL 0.71073   7.515293   9.854350  10.310376  62.3678  76.2050  67.7138
ZERR    9.00   0.000615   0.000766   0.000857   0.0082   0.0072   0.0075
LATT -1
SFAC C H N O Cd
UNIT 9.00 9.00 9.00 9.00 9.00
TREF
HKLF 4
END
_computing_structure_solution     'SHELXT 2014/5 (Sheldrick, 2014)'
;
_shelx_hkl_checksum              82002
_olex2_submission_special_instructions 'No special instructions were received'
_oxdiff_exptl_absorpt_empirical_details
;
Empirical correction (ABSPACK) includes:
- Absorption correction using spherical harmonics
- Frame scaling
;
_oxdiff_exptl_absorpt_empirical_full_max 1.386
_oxdiff_exptl_absorpt_empirical_full_min 0.739
loop_
_space_group_symop_operation_xyz
'x, y, z'
'-x, -y, -z'
loop_
_atom_site_label
_atom_site_type_symbol
_atom_site_fract_x
_atom_site_fract_y
_atom_site_fract_z
_atom_site_U_iso_or_equiv
_atom_site_adp_type
_atom_site_occupancy
_atom_site_site_symmetry_order
_atom_site_calc_flag
_atom_site_refinement_flags_posn
_atom_site_refinement_flags_adp
_atom_site_refinement_flags_occupancy
_atom_site_disorder_assembly
_atom_site_disorder_group
Cd1 Cd 0.79793(3) 0.51687(2) 0.88972(2) 0.01740(7) Uani 1 1 d . . . . .
O2 O 0.0717(3) 0.3252(3) 1.0571(2) 0.0213(4) Uani 1 1 d . . . . .
O3 O 0.4217(3) 0.4202(2) 0.9377(2) 0.0218(4) Uani 1 1 d . . . . .
O1 O 0.1066(3) 0.3622(3) 0.8242(2) 0.0228(5) Uani 1 1 d . . . . .
O4 O 0.7382(3) 0.2868(3) 0.9466(3) 0.0257(5) Uani 1 1 d . . . . .
N2 N 0.7694(4) 0.7331(3) 0.4111(3) 0.0243(6) Uani 1 1 d . . . . .
H2 H 0.778961 0.722579 0.331212 0.029 Uiso 1 1 calc R . . . .
N1 N 0.7410(4) 0.6719(3) 0.6512(3) 0.0204(5) Uani 1 1 d . . . . .
C5 C 0.1640(4) 0.2889(3) 0.9512(3) 0.0174(5) Uani 1 1 d . . . . .
C8 C 0.7526(4) 0.6190(4) 0.5498(3) 0.0205(6) Uani 1 1 d . . . . .
C3 C 0.5291(4) 0.1432(3) 0.9759(3) 0.0151(5) Uani 1 1 d . . . . .
C2 C 0.3426(4) 0.1414(3) 0.9789(3) 0.0151(5) Uani 1 1 d . . . . .
C9 C 0.7685(5) 0.8692(4) 0.4208(3) 0.0227(6) Uani 1 1 d . . . . .
C7 C 0.7415(5) 0.4596(4) 0.5783(4) 0.0232(6) Uani 1 1 d . . . . .
H7A H 0.790808 0.380700 0.672670 0.028 Uiso 1 1 calc R . . . .
H7B H 0.823294 0.425323 0.503682 0.028 Uiso 1 1 calc R . . . .
C6 C 0.5334(5) 0.4632(4) 0.5781(3) 0.0235(6) Uani 1 1 d . . . . .
H6A H 0.526594 0.354082 0.630019 0.028 Uiso 1 1 calc R . . . .
H6B H 0.445467 0.525443 0.630968 0.028 Uiso 1 1 calc R . . . .
C1 C 0.3147(4) -0.0017(3) 1.0041(3) 0.0166(5) Uani 1 1 d . . . . .
H1 H 0.190543 -0.003151 1.007723 0.020 Uiso 1 1 calc R . . . .
C10 C 0.7492(5) 0.8302(4) 0.5722(3) 0.0213(6) Uani 1 1 d . . . . .
C4 C 0.5658(4) 0.2939(3) 0.9530(3) 0.0168(5) Uani 1 1 d . . . . .
C11 C 0.7414(5) 0.9443(4) 0.6198(4) 0.0281(7) Uani 1 1 d . . . . .
H11 H 0.727704 0.921329 0.719278 0.034 Uiso 1 1 calc R . . . .
C12 C 0.7546(6) 1.0926(4) 0.5139(4) 0.0318(8) Uani 1 1 d . . . . .
H12 H 0.749389 1.170149 0.543434 0.038 Uiso 1 1 calc R . . . .
C14 C 0.7843(6) 1.0192(4) 0.3137(4) 0.0319(8) Uani 1 1 d . . . . .
H14 H 0.799724 1.042941 0.213994 0.038 Uiso 1 1 calc R . . . .
C13 C 0.7758(6) 1.1295(4) 0.3636(4) 0.0333(8) Uani 1 1 d . . . . .
H13 H 0.784221 1.230572 0.295983 0.040 Uiso 1 1 calc R . . . .
loop_
_atom_site_aniso_label
_atom_site_aniso_U_11
_atom_site_aniso_U_22
_atom_site_aniso_U_33
_atom_site_aniso_U_23
_atom_site_aniso_U_13
_atom_site_aniso_U_12
Cd1 0.01911(12) 0.01387(10) 0.02041(12) -0.00848(8) -0.00300(7) -0.00372(7)
O2 0.0205(11) 0.0185(10) 0.0263(12) -0.0133(9) 0.0000(8) -0.0032(8)
O3 0.0250(11) 0.0165(10) 0.0259(12) -0.0116(9) -0.0005(9) -0.0057(8)
O1 0.0205(11) 0.0210(10) 0.0235(11) -0.0093(9) -0.0077(9) 0.0007(8)
O4 0.0201(11) 0.0196(10) 0.0416(14) -0.0138(10) -0.0019(10) -0.0094(9)
N2 0.0319(15) 0.0261(13) 0.0199(13) -0.0104(11) -0.0047(11) -0.0113(11)
N1 0.0240(13) 0.0174(11) 0.0193(13) -0.0065(10) -0.0036(10) -0.0060(10)
C5 0.0171(14) 0.0127(12) 0.0239(15) -0.0088(11) -0.0019(11) -0.0045(10)
C8 0.0194(14) 0.0210(14) 0.0224(15) -0.0101(12) -0.0041(11) -0.0046(11)
C3 0.0168(13) 0.0119(11) 0.0176(13) -0.0065(10) -0.0017(10) -0.0051(10)
C2 0.0162(13) 0.0136(12) 0.0176(13) -0.0087(11) -0.0016(10) -0.0038(10)
C9 0.0271(16) 0.0220(14) 0.0189(15) -0.0067(12) -0.0047(12) -0.0081(12)
C7 0.0285(17) 0.0180(14) 0.0257(16) -0.0110(13) -0.0050(12) -0.0057(12)
C6 0.0274(17) 0.0242(15) 0.0225(16) -0.0099(13) -0.0032(12) -0.0108(13)
C1 0.0126(13) 0.0141(12) 0.0235(15) -0.0084(11) -0.0012(10) -0.0041(10)
C10 0.0231(15) 0.0205(14) 0.0202(15) -0.0076(12) -0.0034(11) -0.0067(12)
C4 0.0238(15) 0.0143(12) 0.0153(13) -0.0066(11) -0.0011(10) -0.0086(11)
C11 0.0367(19) 0.0230(15) 0.0272(18) -0.0120(14) -0.0047(14) -0.0085(13)
C12 0.039(2) 0.0197(15) 0.039(2) -0.0135(15) -0.0048(16) -0.0079(14)
C14 0.041(2) 0.0305(18) 0.0206(17) -0.0035(14) -0.0040(14) -0.0162(16)
C13 0.036(2) 0.0195(15) 0.035(2) -0.0014(14) -0.0060(15) -0.0102(14)
loop_
_atom_type_symbol
_atom_type_description
_atom_type_scat_dispersion_real
_atom_type_scat_dispersion_imag
_atom_type_scat_source
C C 0.0033 0.0016 'International Tables Vol C Tables 4.2.6.8 and 6.1.1.4'
H H 0.0000 0.0000 'International Tables Vol C Tables 4.2.6.8 and 6.1.1.4'
Cd Cd -0.8075 1.2024 'International Tables Vol C Tables 4.2.6.8 and 6.1.1.4'
N N 0.0061 0.0033 'International Tables Vol C Tables 4.2.6.8 and 6.1.1.4'
O O 0.0106 0.0060 'International Tables Vol C Tables 4.2.6.8 and 6.1.1.4'
loop_
_geom_angle_atom_site_label_1
_geom_angle_atom_site_label_2
_geom_angle_atom_site_label_3
_geom_angle
_geom_angle_site_symmetry_1
_geom_angle_site_symmetry_3
_geom_angle_publ_flag
O2 Cd1 O2 71.39(8) 2_667 1_655 ?
O3 Cd1 O2 77.14(7) 2_667 2_667 ?
O3 Cd1 O2 96.96(7) 2_667 1_655 ?
O3 Cd1 O1 150.10(8) 2_667 1_655 ?
O1 Cd1 O2 93.94(7) 1_655 2_667 ?
O1 Cd1 O2 53.34(7) 1_655 1_655 ?
O4 Cd1 O2 83.04(8) . 1_655 ?
O4 Cd1 O2 151.80(8) . 2_667 ?
O4 Cd1 O3 94.84(8) . 2_667 ?
O4 Cd1 O1 79.55(8) . 1_655 ?
N1 Cd1 O2 141.77(9) . 1_655 ?
N1 Cd1 O2 101.51(8) . 2_667 ?
N1 Cd1 O3 118.55(9) . 2_667 ?
N1 Cd1 O1 91.08(9) . 1_655 ?
N1 Cd1 O4 105.98(9) . . ?
Cd1 O2 Cd1 108.61(8) 2_667 1_455 ?
C5 O2 Cd1 87.56(17) . 1_455 ?
C5 O2 Cd1 113.83(18) . 2_667 ?
C4 O3 Cd1 129.35(19) . 2_667 ?
C5 O1 Cd1 95.51(18) . 1_455 ?
C4 O4 Cd1 117.79(19) . . ?
C8 N2 H2 125.9 . . ?
C8 N2 C9 108.3(3) . . ?
C9 N2 H2 125.9 . . ?
C8 N1 Cd1 126.1(2) . . ?
C8 N1 C10 105.7(3) . . ?
C10 N1 Cd1 125.40(19) . . ?
O2 C5 C2 119.8(3) . . ?
O1 C5 O2 122.9(3) . . ?
O1 C5 C2 117.0(3) . . ?
N2 C8 C7 121.9(3) . . ?
N1 C8 N2 111.6(3) . . ?
N1 C8 C7 126.4(3) . . ?
C2 C3 C1 119.3(2) . 2_657 ?
C2 C3 C4 121.5(2) . . ?
C1 C3 C4 119.2(2) 2_657 . ?
C3 C2 C5 124.0(2) . . ?
C1 C2 C5 116.4(2) . . ?
C1 C2 C3 119.6(2) . . ?
N2 C9 C10 105.3(3) . . ?
N2 C9 C14 132.4(3) . . ?
C14 C9 C10 122.3(3) . . ?
C8 C7 H7A 109.0 . . ?
C8 C7 H7B 109.0 . . ?
C8 C7 C6 112.9(3) . . ?
H7A C7 H7B 107.8 . . ?
C6 C7 H7A 109.0 . . ?
C6 C7 H7B 109.0 . . ?
C7 C6 H6A 108.9 . . ?
C7 C6 H6B 108.9 . . ?
C6 C6 C7 113.3(3) 2_666 . ?
C6 C6 H6A 108.9 2_666 . ?
C6 C6 H6B 108.9 2_666 . ?
H6A C6 H6B 107.7 . . ?
C3 C1 H1 119.4 2_657 . ?
C2 C1 C3 121.1(3) . 2_657 ?
C2 C1 H1 119.4 . . ?
N1 C10 C9 109.2(3) . . ?
C11 C10 N1 131.1(3) . . ?
C11 C10 C9 119.7(3) . . ?
O3 C4 C3 118.2(3) . . ?
O4 C4 O3 124.3(3) . . ?
O4 C4 C3 117.4(2) . . ?
C10 C11 H11 121.1 . . ?
C12 C11 C10 117.7(3) . . ?
C12 C11 H11 121.1 . . ?
C11 C12 H12 119.0 . . ?
C11 C12 C13 122.0(3) . . ?
C13 C12 H12 119.0 . . ?
C9 C14 H14 121.6 . . ?
C13 C14 C9 116.7(3) . . ?
C13 C14 H14 121.6 . . ?
C12 C13 H13 119.3 . . ?
C14 C13 C12 121.5(3) . . ?
C14 C13 H13 119.3 . . ?
loop_
_geom_bond_atom_site_label_1
_geom_bond_atom_site_label_2
_geom_bond_distance
_geom_bond_site_symmetry_2
_geom_bond_publ_flag
Cd1 O2 2.550(2) 1_655 ?
Cd1 O2 2.426(2) 2_667 ?
Cd1 O3 2.263(2) 2_667 ?
Cd1 O1 2.385(2) 1_655 ?
Cd1 O4 2.258(2) . ?
Cd1 N1 2.255(3) . ?
O2 C5 1.271(4) . ?
O3 C4 1.274(4) . ?
O1 C5 1.256(4) . ?
O4 C4 1.258(4) . ?
N2 H2 0.8600 . ?
N2 C8 1.362(4) . ?
N2 C9 1.387(4) . ?
N1 C8 1.341(4) . ?
N1 C10 1.403(4) . ?
C5 C2 1.521(4) . ?
C8 C7 1.491(4) . ?
C3 C2 1.401(4) . ?
C3 C1 1.405(4) 2_657 ?
C3 C4 1.514(4) . ?
C2 C1 1.399(4) . ?
C9 C10 1.409(4) . ?
C9 C14 1.406(5) . ?
C7 H7A 0.9700 . ?
C7 H7B 0.9700 . ?
C7 C6 1.551(4) . ?
C6 C6 1.548(6) 2_666 ?
C6 H6A 0.9700 . ?
C6 H6B 0.9700 . ?
C1 H1 0.9300 . ?
C10 C11 1.400(4) . ?
C11 H11 0.9300 . ?
C11 C12 1.384(5) . ?
C12 H12 0.9300 . ?
C12 C13 1.402(5) . ?
C14 H14 0.9300 . ?
C14 C13 1.378(5) . ?
C13 H13 0.9300 . ?
