#------------------------------------------------------------------------------
#$Date: 2022-01-06 23:12:42 +0200 (Thu, 06 Jan 2022) $
#$Revision: 271828 $
#$URL: file:///home/coder/svn-repositories/cod/cif/7/24/39/7243953.cif $
#------------------------------------------------------------------------------
#
# This file is available in the Crystallography Open Database (COD),
# http://www.crystallography.net/
#
# All data on this site have been placed in the public domain by the
# contributors.
#
data_7243953
loop_
_publ_author_name
'Shapiro, Nicole M.'
'Bosch, Eric'
'Unruh, Daniel K.'
'Krueger, Herman R.'
'Groeneman, Ryan H.'
_publ_section_title
;
 Iodoperchlorobenzene acts as a dual halogen-bond donor to template a [2 +
 2] cycloaddition reaction within an organic co-crystal
;
_journal_issue                   47
_journal_name_full               CrystEngComm
_journal_page_first              8265
_journal_page_last               8268
_journal_paper_doi               10.1039/D1CE01194D
_journal_volume                  23
_journal_year                    2021
_chemical_formula_moiety         'C6 Cl5 I, C12 H8 N2'
_chemical_formula_sum            'C18 H8 Cl5 I N2'
_chemical_formula_weight         556.41
_space_group_crystal_system      triclinic
_space_group_IT_number           2
_space_group_name_Hall           '-P 1'
_space_group_name_H-M_alt        'P -1'
_atom_sites_solution_hydrogens   geom
_atom_sites_solution_primary     dual
_audit_creation_date             2021-06-22
_audit_creation_method
;
Olex2 1.3-ac4
(compiled 2020.03.28 svn.rd84adfe8 for Rigaku Oxford Diffraction, GUI svn.r6032)
;
_audit_update_record
;
2021-08-31 deposited with the CCDC.	2021-11-22 downloaded from the CCDC.
;
_cell_angle_alpha                112.085(2)
_cell_angle_beta                 91.110(2)
_cell_angle_gamma                96.392(2)
_cell_formula_units_Z            1
_cell_length_a                   3.95160(10)
_cell_length_b                   11.1045(2)
_cell_length_c                   12.2703(3)
_cell_measurement_reflns_used    9836
_cell_measurement_temperature    290.00(10)
_cell_measurement_theta_max      76.7960
_cell_measurement_theta_min      3.8670
_cell_volume                     494.72(2)
_computing_cell_refinement       'CrysAlisPro 1.171.41.104a (Rigaku OD, 2021)'
_computing_data_collection       'CrysAlisPro 1.171.41.104a (Rigaku OD, 2021)'
_computing_data_reduction        'CrysAlisPro 1.171.41.104a (Rigaku OD, 2021)'
_computing_molecular_graphics    'Olex2 1.3-ac4 (Dolomanov et al., 2009)'
_computing_publication_material  'Olex2 1.3-ac4 (Dolomanov et al., 2009)'
_computing_structure_refinement  'XL  (Sheldrick, 2008)'
_computing_structure_solution    'SHELXT 2018/2 (Sheldrick, 2018)'
_diffrn_ambient_environment      air
_diffrn_ambient_temperature      290.00(10)
_diffrn_detector                 'Hybrid Pixel Array Detector'
_diffrn_detector_area_resol_mean 10.0000
_diffrn_detector_type            HyPix
_diffrn_measured_fraction_theta_full 0.993
_diffrn_measured_fraction_theta_max 0.933
_diffrn_measurement_details
;
List of Runs (angles in degrees, time in seconds):

  # Type    Start    End  Width  t~exp~   \w     \q     \k     \f   Frames
#--------------------------------------------------------------------------
  1  \w   -119.00 -35.00   0.50    0.23    --  -47.91 -45.00 155.00  168
  2  \w     35.00 120.00   0.50    0.23    --   47.91  45.00 -54.00  170
  3  \w    -24.00  53.00   0.50    0.23    --   47.91 -45.00 155.00  154
  4  \w   -163.00 -79.00   0.50    0.92    --  -91.75 -45.00 155.00  168
  5  \w    -49.00 -20.00   0.50    0.92    --  -91.75  45.00 -54.00   58
  6  \w     95.00 178.00   0.50    0.92    --  107.78  45.00 -54.00  166
  7  \w   -119.00 -73.00   0.50    0.23    --  -47.91-125.00  90.00   92
  8  \w   -119.00 -73.00   0.50    0.23    --  -47.91-125.00 -90.00   92
  9  \w    -49.00  24.00   0.50    0.23    --  -47.91  45.00 -54.00  146
 10  \w    -24.00  28.00   0.50    0.23    --  -47.91  19.00-180.00  104
 11  \w     34.00  96.00   0.50    0.23    --   47.91-125.00-180.00  124
 12  \w   -166.00 -79.00   0.50    0.92    --  -91.75 -19.00-150.00  174
 13  \w    -85.00 -19.00   0.50    0.92    --  -91.75 125.00 -30.00  132
 14  \w    -64.00 -19.00   0.50    0.92    --  -91.75  57.00 120.00   90
 15  \w   -103.00 -19.00   0.50    0.92    --  -91.75  77.00  60.00  168
 16  \w     35.00 107.00   0.50    0.92    --  107.78 -77.00 120.00  144
 17  \w     35.00  68.00   0.50    0.92    --  107.78 -57.00 -60.00   66
 18  \w     95.00 178.00   0.50    0.92    --  107.78  19.00  90.00  166
 19  \w     35.00 106.00   0.50    0.92    --  107.78 -99.00 120.00  142
 20  \w     35.00 106.00   0.50    0.92    --  107.78 -99.00-150.00  142
 21  \w     93.00 178.00   0.50    0.92    --  107.78  57.00   0.00  170
 22  \w     35.00 106.00   0.50    0.92    --  107.78 -99.00  90.00  142
 23  \w     35.00 112.00   0.50    0.92    --  107.78-125.00 120.00  154
 24  \w     35.00  68.00   0.50    0.92    --  107.78 -57.00 120.00   66
 25  \w     35.00 106.00   0.50    0.92    --  107.78 -99.00 -90.00  142
 26  \w     35.00 106.00   0.50    0.92    --  107.78 -99.00 -60.00  142
 27  \w   -121.00 -35.00   0.50    0.23    --  -47.91 -38.00-150.00  172
 28  \w   -119.00 -73.00   0.50    0.23    --  -47.91-125.00   0.00   92
 29  \w   -119.00 -25.00   0.50    0.23    --  -47.91 -77.00 -90.00  188
 30  \w     25.00 121.00   0.50    0.23    --   47.91  77.00-120.00  192
 31  \w     25.00 121.00   0.50    0.23    --   47.91  77.00  30.00  192
 32  \w     25.00 121.00   0.50    0.23    --   47.91  77.00  90.00  192
 33  \w     33.00 120.00   0.50    0.23    --   47.91  57.00  30.00  174
 34  \w     25.00 121.00   0.50    0.23    --   47.91  77.00 150.00  192
 35  \w     25.00 121.00   0.50    0.23    --   47.91  77.00 -30.00  192
 36  \w   -163.00-103.00   0.50    0.92    --  -91.75 -77.00 150.00  120
 37  \w   -163.00 -77.00   0.50    0.92    --  -91.75 -57.00   0.00  172
 38  \w   -163.00 -69.00   0.50    0.92    --  -91.75 -77.00  60.00  188
 39  \w   -163.00 -69.00   0.50    0.92    --  -91.75 -77.00-150.00  188
 40  \w   -163.00 -69.00   0.50    0.92    --  -91.75 -77.00-120.00  188
 41  \w   -163.00 -69.00   0.50    0.92    --  -91.75 -77.00 120.00  188
 42  \w   -163.00 -69.00   0.50    0.92    --  -91.75 -77.00   0.00  188
 43  \w   -163.00 -69.00   0.50    0.92    --  -91.75 -77.00 -60.00  188
 44  \w   -163.00 -69.00   0.50    0.92    --  -91.75 -77.00  90.00  188
 45  \w   -163.00 -69.00   0.50    0.92    --  -91.75 -77.00 -90.00  188
 46  \w   -163.00 -69.00   0.50    0.92    --  -91.75 -77.00 -30.00  188
 47  \w   -163.00 -77.00   0.50    0.92    --  -91.75 -57.00 150.00  172
;
_diffrn_measurement_device       'four-circle diffractometer'
_diffrn_measurement_device_type  'XtaLAB Synergy, Dualflex, HyPix'
_diffrn_measurement_method       '\w scans'
_diffrn_orient_matrix_type
'CrysAlisPro convention (1999,Acta A55,543-557)'
_diffrn_orient_matrix_UB_11      0.3597748000
_diffrn_orient_matrix_UB_12      -0.0016977000
_diffrn_orient_matrix_UB_13      0.0496193000
_diffrn_orient_matrix_UB_21      0.0483588000
_diffrn_orient_matrix_UB_22      0.1508292000
_diffrn_orient_matrix_UB_23      0.0568238000
_diffrn_orient_matrix_UB_31      -0.1510000000
_diffrn_orient_matrix_UB_32      -0.0060650000
_diffrn_orient_matrix_UB_33      0.1129112000
_diffrn_radiation_monochromator  mirror
_diffrn_radiation_probe          x-ray
_diffrn_radiation_type           'Cu K\a'
_diffrn_radiation_wavelength     1.54184
_diffrn_reflns_av_R_equivalents  0.0479
_diffrn_reflns_av_unetI/netI     0.0274
_diffrn_reflns_Laue_measured_fraction_full 0.993
_diffrn_reflns_Laue_measured_fraction_max 0.933
_diffrn_reflns_limit_h_max       4
_diffrn_reflns_limit_h_min       -4
_diffrn_reflns_limit_k_max       13
_diffrn_reflns_limit_k_min       -13
_diffrn_reflns_limit_l_max       14
_diffrn_reflns_limit_l_min       -14
_diffrn_reflns_number            10654
_diffrn_reflns_point_group_measured_fraction_full 0.993
_diffrn_reflns_point_group_measured_fraction_max 0.933
_diffrn_reflns_theta_full        67.684
_diffrn_reflns_theta_max         77.251
_diffrn_reflns_theta_min         4.332
_diffrn_source                   'micro-focus sealed X-ray tube'
_diffrn_source_type              'PhotonJet (Cu) X-ray Source'
_exptl_absorpt_coefficient_mu    18.974
_exptl_absorpt_correction_T_max  1.000
_exptl_absorpt_correction_T_min  0.439
_exptl_absorpt_correction_type   gaussian
_exptl_absorpt_process_details
;
CrysAlisPro 1.171.41.104a (Rigaku Oxford Diffraction, 2021)
Numerical absorption correction based on gaussian integration over
a multifaceted crystal model
Empirical absorption correction using spherical harmonics,
implemented in SCALE3 ABSPACK scaling algorithm.
;
_exptl_crystal_colour            'clear colourless'
_exptl_crystal_colour_lustre     clear
_exptl_crystal_colour_primary    colourless
_exptl_crystal_density_diffrn    1.868
_exptl_crystal_description       plate
_exptl_crystal_F_000             268
_exptl_crystal_recrystallization_method
'Re-crystallisation from solvent: Toluene'
_exptl_crystal_size_max          0.147
_exptl_crystal_size_mid          0.115
_exptl_crystal_size_min          0.038
_refine_diff_density_max         0.412
_refine_diff_density_min         -0.417
_refine_diff_density_rms         0.061
_refine_ls_extinction_coef       0.0018(4)
_refine_ls_extinction_expression Fc^*^=kFc[1+0.001xFc^2^\l^3^/sin(2\q)]^-1/4^
_refine_ls_extinction_method     'SHELXL-2018/3 (Sheldrick 2018)'
_refine_ls_goodness_of_fit_ref   1.075
_refine_ls_hydrogen_treatment    constr
_refine_ls_matrix_type           full
_refine_ls_number_parameters     128
_refine_ls_number_reflns         1944
_refine_ls_number_restraints     0
_refine_ls_restrained_S_all      1.075
_refine_ls_R_factor_all          0.0268
_refine_ls_R_factor_gt           0.0252
_refine_ls_shift/su_max          0.001
_refine_ls_shift/su_mean         0.000
_refine_ls_structure_factor_coef Fsqd
_refine_ls_weighting_details
'w=1/[\s^2^(Fo^2^)+(0.0318P)^2^+0.1460P] where P=(Fo^2^+2Fc^2^)/3'
_refine_ls_weighting_scheme      calc
_refine_ls_wR_factor_gt          0.0633
_refine_ls_wR_factor_ref         0.0643
_reflns_Friedel_coverage         0.000
_reflns_number_gt                1837
_reflns_number_total             1944
_reflns_threshold_expression     'I > 2\s(I)'
_cod_data_source_file            d1ce01194d2.cif
_cod_data_source_block           C6ICl5_BPA
_cod_depositor_comments
'Adding full bibliography for 7243952--7243955.cif.'
_cod_database_code               7243953
_shelx_shelxl_version_number     2018/3
_chemical_oxdiff_formula         'C18  H8  Br1  Cl5  N2  '
_chemical_oxdiff_usercomment     'C6Cl5I + BPA'
_shelx_space_group_comment
;
The symmetry employed for this shelxl refinement is uniquely defined
by the following loop, which should always be used as a source of
symmetry information in preference to the above space-group names.
They are only intended as comments.
;
_shelx_estimated_absorpt_t_max   0.533
_shelx_estimated_absorpt_t_min   0.167
_reflns_odcompleteness_completeness 99.33
_reflns_odcompleteness_iscentric 1
_reflns_odcompleteness_theta     66.97
_olex2_refinement_description
;
1. Fixed Uiso
 At 1.2 times of:
  All C(H) groups
2. Others
 Fixed Sof: I1(0.5) Cl1(0.5)
3.a Aromatic/amide H refined with riding coordinates:
 C4(H4), C5(H5), C7(H7), C8(H8)
;
_shelx_res_file
;
TITL gro21_19_auto_a.res in P-1
    gro21_19_auto.res
    created by SHELXL-2018/3 at 15:06:56 on 22-Jun-2021
REM Old TITL gro21_19_auto in P1
REM SHELXT solution in P-1: R1 0.102, Rweak 0.013, Alpha 0.054
REM <I/s> 0.000 for 0 systematic absences, Orientation as input
REM Formula found by SHELXT: C9 N Cl2 Br
CELL 1.54184 3.9516 11.1045 12.2703 112.085 91.11 96.392
ZERR 1 0.0001 0.0002 0.0003 0.002 0.002 0.002
LATT 1
SFAC C H Cl I N
UNIT 18 8 5 1 2

L.S. 10
PLAN  2
SIZE 0.038 0.115 0.147
TEMP 17
CONF
BOND
list 4
MORE -1
BOND $H
fmap 2 53
acta
REM <olex2.extras>
REM <HklSrc "%.\\gro21_19_auto.hkl">
REM </olex2.extras>

WGHT    0.031800    0.146000
EXTI    0.001812
FVAR       0.62197
PART 2
I1    4    1.195761    0.715069    0.790696    10.50000    0.05099    0.03653 =
         0.03428    0.00333    0.00389    0.00688
PART 1
CL1   3    1.211917    0.734889    0.809773    10.50000    0.05226    0.04291 =
         0.03870   -0.00851    0.00238    0.00956
PART 0
CL2   3    1.280988    1.001725    0.765519    11.00000    0.06946    0.06261 =
         0.03801    0.01696    0.01140   -0.00127
CL3   3    1.095294    1.257820    0.952596    11.00000    0.08230    0.05255 =
         0.05591    0.02559    0.00645    0.00500
C1    1    1.084631    0.883149    0.914584    11.00000    0.03904    0.04395 =
         0.03582    0.00618   -0.00127    0.00268
C2    1    1.125384    0.999978    0.895082    11.00000    0.04083    0.04717 =
         0.03310    0.01173    0.00051    0.00043
C3    1    1.041566    1.115247    0.979572    11.00000    0.04334    0.04515 =
         0.03683    0.01311   -0.00071    0.00026

N1    5    0.643355    0.541710    0.357514    11.00000    0.07826    0.03387 =
         0.06470    0.01142    0.01889    0.01304
C4    1    0.733145    0.622218    0.467851    11.00000    0.06331    0.04218 =
         0.06396    0.02424    0.01017    0.01616
AFIX  43
H4    2    0.826457    0.587902    0.518338    11.00000   -1.20000
AFIX   0
C5    1    0.696571    0.753782    0.512313    11.00000    0.05458    0.03869 =
         0.04506    0.01200    0.00526    0.00999
AFIX  43
H5    2    0.763564    0.806009    0.590527    11.00000   -1.20000
AFIX   0
C6    1    0.558624    0.806625    0.438591    11.00000    0.04663    0.03184 =
         0.04653    0.01423    0.01130    0.00769
C7    1    0.460220    0.723532    0.323219    11.00000    0.07189    0.04463 =
         0.04490    0.01682    0.00574    0.00657
AFIX  43
H7    2    0.363896    0.754646    0.270798    11.00000   -1.20000
AFIX   0
C8    1    0.508797    0.593610    0.288185    11.00000    0.08989    0.04136 =
         0.04664    0.00507    0.00989    0.00153
AFIX  43
H8    2    0.442641    0.538626    0.210615    11.00000   -1.20000
AFIX   0
C9    1    0.516901    0.943511    0.481510    11.00000    0.05297    0.03791 =
         0.04435    0.01574    0.00923    0.00994
HKLF 4




REM  gro21_19_auto_a.res in P-1
REM wR2 = 0.064252, GooF = S = 1.07459, Restrained GooF = 1.07459 for all data
REM R1 = 0.025231 for 1837 Fo > 4sig(Fo) and 0.026779 for all 1944 data
REM 128 parameters refined using 0 restraints

END

WGHT      0.0319      0.1455

REM Highest difference peak  0.412,  deepest hole -0.417,  1-sigma level  0.061
Q1    1   1.2943  0.9201  0.7615  11.00000  0.05    0.41
Q2    1   1.1870  0.8154  0.8094  11.00000  0.05    0.33
;
_shelx_res_checksum              36522
_shelx_hkl_file
;
  -4  -6  -1   13.18    1.06
  -4  -6   1    4.08    0.80
  -4  -6   2   14.76    1.42
  -4  -5  -2    6.40    0.91
  -4  -5   0   14.91    1.57
  -4  -5   0   12.07    1.37
  -4  -5   1   24.36    2.08
  -4  -5   1   21.66    1.91
  -4  -5   2    0.11    0.67
  -4  -5   2    0.11    0.33
  -4  -5   3   72.65    3.83
  -4  -5   3   59.82    3.59
  -4  -4  -4    6.22    0.79
  -4  -4  -3    4.21    0.85
  -4  -4  -2    6.08    1.18
  -4  -4  -2    7.51    1.11
  -4  -4  -1   24.38    2.23
  -4  -4  -1   21.86    2.07
  -4  -4   0   14.88    1.87
  -4  -4   0   15.51    1.81
  -4  -4   1    3.51    1.10
  -4  -4   1    1.08    0.65
  -4  -4   1    1.94    0.81
  -4  -4   2    7.62    1.39
  -4  -4   2    4.38    1.09
  -4  -4   2    6.32    1.22
  -4  -4   3    1.15    0.80
  -4  -4   3    1.71    0.85
  -4  -4   3    1.84    0.81
  -4  -4   4   24.48    2.42
  -4  -4   5    4.62    1.26
  -4  -4   6    4.02    1.25
  -4  -4   7    6.72    1.40
  -4  -3  -5   25.52    1.70
  -4  -3  -4   17.05    1.67
  -4  -3  -4   16.22    1.57
  -4  -3  -3    7.93    1.35
  -4  -3  -3    7.79    1.25
  -4  -3  -2   33.52    2.75
  -4  -3  -1    0.77    0.93
  -4  -3  -1    1.49    0.70
  -4  -3   0   81.35    4.98
  -4  -3   1    1.15    1.01
  -4  -3   1    0.57    0.85
  -4  -3   2   33.31    3.11
  -4  -3   2   36.12    3.03
  -4  -3   2   33.55    3.14
  -4  -3   3   38.41    3.43
  -4  -3   3   39.60    3.42
  -4  -3   4   18.60    2.23
  -4  -3   6    1.04    0.99
  -4  -2  -6    8.92    0.98
  -4  -2  -5    4.35    0.96
  -4  -2  -5    4.59    0.87
  -4  -2  -4   20.48    2.10
  -4  -2  -4   15.70    1.76
  -4  -2  -3   28.42    2.60
  -4  -2  -2    7.22    1.26
  -4  -2  -2    8.32    1.65
  -4  -2  -2    8.71    1.55
  -4  -2  -1   60.52    4.03
  -4  -2  -1   61.91    4.39
  -4  -2  -1   59.90    4.43
  -4  -2   0    9.06    1.79
  -4  -2   0   12.58    1.94
  -4  -2   0    8.69    1.77
  -4  -2   1   67.01    4.75
  -4  -2   1   69.45    4.63
  -4  -2   2   20.22    2.30
  -4  -2   4  137.47    7.61
  -4  -2   4  120.81    6.58
  -4  -2   4  128.87    7.25
  -4  -2   5    3.65    1.39
  -4  -2   5    3.21    1.25
  -4  -2   6   79.61    4.81
  -4  -2   7    6.64    1.42
  -4  -2   8   26.23    2.34
  -4  -1  -6    2.61    0.83
  -4  -1  -5    8.25    1.39
  -4  -1  -5    7.54    1.22
  -4  -1  -4    1.86    0.78
  -4  -1  -3    8.16    1.63
  -4  -1  -3    7.08    1.43
  -4  -1  -2   16.95    2.27
  -4  -1  -2   16.57    2.21
  -4  -1  -1    9.74    1.82
  -4  -1  -1    7.74    1.59
  -4  -1   0   64.99    4.66
  -4  -1   0   64.11    4.79
  -4  -1   1   24.28    2.67
  -4  -1   1   25.97    2.94
  -4  -1   2   18.80    2.67
  -4  -1   2   17.25    2.10
  -4  -1   2   14.43    2.37
  -4  -1   3   37.45    3.12
  -4  -1   3   34.65    3.46
  -4  -1   4    4.51    1.29
  -4  -1   5   27.76    2.66
  -4  -1   6    1.82    1.02
  -4  -1   7   59.67    3.88
  -4  -1   8   32.48    2.58
  -4   0  -7    6.90    1.08
  -4   0  -6    4.69    1.12
  -4   0  -6    3.61    0.82
  -4   0  -5   10.22    1.44
  -4   0  -4  149.82    7.46
  -4   0  -4  142.63    7.18
  -4   0  -3    2.21    1.24
  -4   0  -3    0.71    0.67
  -4   0  -2   30.80    3.09
  -4   0  -2   28.16    2.86
  -4   0  -1   55.83    4.23
  -4   0  -1   49.28    4.00
  -4   0   0   12.47    2.03
  -4   0   0   13.39    2.04
  -4   0   1    4.42    1.33
  -4   0   1    6.59    1.51
  -4   0   2    4.36    1.21
  -4   0   2    3.85    1.25
  -4   0   3   62.10    4.20
  -4   0   3   69.29    4.45
  -4   0   3   65.36    4.74
  -4   0   4   21.80    2.28
  -4   0   4   16.92    2.12
  -4   0   5    7.77    1.48
  -4   0   5    6.16    1.41
  -4   0   6   19.79    2.14
  -4   0   7    2.99    1.12
  -4   0   8    8.18    1.37
  -4   1  -8    5.62    0.85
  -4   1  -7   23.72    2.11
  -4   1  -6   42.66    2.71
  -4   1  -5   90.90    5.17
  -4   1  -5   77.90    4.46
  -4   1  -4   18.49    2.35
  -4   1  -4   18.85    2.04
  -4   1  -3   46.31    3.72
  -4   1  -3   36.36    3.10
  -4   1  -2    2.03    1.15
  -4   1  -2    3.36    1.38
  -4   1  -2    3.51    1.04
  -4   1  -1   50.86    3.77
  -4   1  -1   51.37    4.12
  -4   1  -1   49.60    3.83
  -4   1   0   99.22    5.63
  -4   1   0  105.76    5.90
  -4   1   1   11.26    1.73
  -4   1   1   12.03    1.85
  -4   1   2  107.67    5.82
  -4   1   2  115.89    6.39
  -4   1   2  117.26    6.22
  -4   1   2  116.71    6.54
  -4   1   3   -0.27    1.42
  -4   1   3    0.33    0.88
  -4   1   4   76.56    4.78
  -4   1   6   13.77    1.85
  -4   1   8    0.97    0.75
  -4   2  -8    1.98    0.68
  -4   2  -6    9.32    1.59
  -4   2  -5    0.49    0.88
  -4   2  -5    0.87    0.51
  -4   2  -4   34.35    2.74
  -4   2  -4   36.69    3.23
  -4   2  -4   34.88    2.66
  -4   2  -3    4.89    1.28
  -4   2  -3    2.27    1.19
  -4   2  -3    2.32    0.86
  -4   2  -2   32.43    2.87
  -4   2  -2   28.12    2.99
  -4   2  -2   31.05    2.71
  -4   2  -1   64.99    4.18
  -4   2  -1   56.84    3.72
  -4   2  -1   54.64    3.87
  -4   2   0   27.45    2.77
  -4   2   0   20.15    2.25
  -4   2   0   25.33    2.52
  -4   2   1   56.17    3.90
  -4   2   1   54.03    3.95
  -4   2   2    2.96    1.11
  -4   2   2    1.95    1.16
  -4   2   3  131.36    6.43
  -4   2   3  133.85    6.72
  -4   2   3  126.31    6.65
  -4   2   4  107.23    5.93
  -4   2   4  110.40    5.81
  -4   2   5   21.82    2.21
  -4   2   5   15.83    2.17
  -4   2   6   25.04    2.33
  -4   2   6   23.96    2.30
  -4   2   7    7.87    1.27
  -4   2   8   44.58    2.80
  -4   3  -8   16.70    1.73
  -4   3  -6   27.96    2.63
  -4   3  -5   13.09    1.58
  -4   3  -5   12.36    1.90
  -4   3  -4    4.77    1.22
  -4   3  -4    3.54    1.37
  -4   3  -3   16.14    1.71
  -4   3  -3   19.24    2.17
  -4   3  -3   18.37    2.28
  -4   3  -2   12.17    1.53
  -4   3  -2    6.73    1.56
  -4   3  -2   10.37    1.67
  -4   3  -2    7.51    1.59
  -4   3  -1   75.90    4.75
  -4   3  -1   81.13    4.46
  -4   3  -1   67.79    4.22
  -4   3   0   32.39    2.79
  -4   3   1    2.29    0.92
  -4   3   1    2.86    1.17
  -4   3   1    2.06    0.92
  -4   3   2   48.33    3.32
  -4   3   2   42.68    3.50
  -4   3   2   50.22    3.66
  -4   3   2   45.75    3.66
  -4   3   3    3.96    1.13
  -4   3   3    4.75    1.30
  -4   3   3    4.48    1.33
  -4   3   4   13.00    1.69
  -4   3   4   12.80    1.92
  -4   3   4   15.24    1.98
  -4   3   5    1.38    0.88
  -4   3   6   16.28    1.86
  -4   3   6   17.18    1.88
  -4   3   7   38.19    2.62
  -4   3   7   33.60    2.34
  -4   4  -9   14.34    1.26
  -4   4  -7   30.56    2.53
  -4   4  -6    1.88    1.02
  -4   4  -5   41.53    3.49
  -4   4  -5   43.90    3.45
  -4   4  -5   46.92    3.10
  -4   4  -4   41.14    3.67
  -4   4  -4   40.07    3.37
  -4   4  -4   48.67    3.34
  -4   4  -3   16.01    2.12
  -4   4  -3   26.44    2.56
  -4   4  -2   81.55    5.57
  -4   4  -2   89.42    5.27
  -4   4  -1    2.24    1.08
  -4   4  -1    4.34    1.10
  -4   4  -1    2.95    1.24
  -4   4   0   39.88    3.12
  -4   4   1   10.39    1.83
  -4   4   1    8.45    1.65
  -4   4   1    9.56    1.62
  -4   4   2   40.01    2.95
  -4   4   2   38.87    3.41
  -4   4   2   41.51    3.43
  -4   4   2   46.25    3.42
  -4   4   3   33.76    2.70
  -4   4   3   30.85    2.91
  -4   4   3   28.42    2.68
  -4   4   3   35.41    2.94
  -4   4   4    0.13    0.63
  -4   4   4    0.60    0.56
  -4   4   4    0.15    0.79
  -4   4   5   36.29    2.72
  -4   4   6    0.63    0.69
  -4   4   6   -0.21    0.61
  -4   5  -9    3.06    0.66
  -4   5  -8   23.73    1.92
  -4   5  -7    2.24    0.86
  -4   5  -7    3.93    0.97
  -4   5  -6   29.49    2.77
  -4   5  -6   29.62    2.19
  -4   5  -6   31.94    2.65
  -4   5  -5   10.13    1.49
  -4   5  -5    8.60    1.49
  -4   5  -5    8.45    1.68
  -4   5  -4   13.36    1.80
  -4   5  -3   50.98    4.14
  -4   5  -3   51.23    3.72
  -4   5  -2    3.96    1.28
  -4   5  -2    5.81    1.41
  -4   5  -1   63.71    3.90
  -4   5  -1   63.03    4.75
  -4   5   0   31.91    3.11
  -4   5   0   28.65    2.59
  -4   5   0   26.95    2.79
  -4   5   1   56.95    4.23
  -4   5   1   46.40    3.66
  -4   5   1   52.73    3.67
  -4   5   2   37.27    2.64
  -4   5   2   34.75    3.16
  -4   5   2   31.55    2.86
  -4   5   2   39.47    3.11
  -4   5   3   17.10    1.80
  -4   5   3   15.47    1.94
  -4   5   3   19.09    2.11
  -4   5   4   48.36    3.12
  -4   5   4   48.26    3.35
  -4   5   5    0.10    0.57
  -4   5   6   54.34    2.75
  -4   5   6   45.18    2.62
  -4   6  -8    1.13    0.58
  -4   6  -7    1.92    0.75
  -4   6  -7    2.02    0.74
  -4   6  -6    3.66    0.90
  -4   6  -6    3.82    1.00
  -4   6  -6    4.45    1.08
  -4   6  -5   30.75    2.47
  -4   6  -4    9.64    1.51
  -4   6  -3    3.86    1.16
  -4   6  -3    2.12    1.00
  -4   6  -2   28.27    2.86
  -4   6  -2   27.28    2.68
  -4   6  -1    0.37    0.57
  -4   6   0   63.38    4.19
  -4   6   0   54.65    3.58
  -4   6   1    2.83    0.90
  -4   6   1    0.56    0.79
  -4   6   1    0.88    0.86
  -4   6   2   14.57    1.75
  -4   6   2    9.70    1.45
  -4   6   2   10.71    1.57
  -4   6   3   49.06    2.87
  -4   6   3   52.00    3.31
  -4   6   3   43.36    3.13
  -4   6   4    1.89    0.79
  -4   6   4    1.28    0.56
  -4   6   5   17.08    1.42
  -4   7  -6   31.20    2.18
  -4   7  -5    0.66    0.74
  -4   7  -5    2.31    0.78
  -4   7  -4   19.27    2.00
  -4   7  -4   17.25    2.03
  -4   7  -3   19.53    2.09
  -4   7  -3   18.20    2.13
  -4   7  -1    8.06    1.46
  -4   7  -1   10.14    1.33
  -4   7  -1    9.57    1.49
  -4   7   0    4.24    1.14
  -4   7   0    3.31    0.95
  -4   7   0    5.68    1.14
  -4   7   1   19.78    1.94
  -4   7   1   22.27    2.06
  -4   7   2    0.85    0.67
  -4   7   2    0.11    0.50
  -4   7   3    9.54    1.22
  -4   7   4   25.22    1.62
  -4   8  -6    7.37    1.00
  -4   8  -5   67.67    3.67
  -4   8  -4    4.07    1.08
  -4   8  -3   10.82    1.55
  -4   8  -1    8.13    1.00
  -4   8  -1    8.51    1.31
  -4   8   0   29.59    2.02
  -4   8   0   30.10    2.11
  -4   8   1    3.22    0.73
  -4   8   2   50.26    2.58
  -4   9  -5    0.99    0.52
  -4   9  -4    5.22    0.90
  -4   9  -3    0.53    0.57
  -4   9  -2   25.98    1.83
  -4   9  -1   22.87    1.53
  -3 -10   4    2.05    0.50
  -3 -10   5    9.25    0.93
  -3  -9   1    4.89    0.75
  -3  -9   2   18.88    1.56
  -3  -9   3   26.52    1.93
  -3  -9   4   23.23    1.83
  -3  -9   4   12.06    1.40
  -3  -9   5   40.29    2.61
  -3  -9   6    1.34    0.66
  -3  -9   8    0.80    0.50
  -3  -8  -1    0.67    0.50
  -3  -8  -1    0.42    0.40
  -3  -8   0    2.61    0.75
  -3  -8   0    1.62    0.60
  -3  -8   1   32.66    2.51
  -3  -8   2   13.36    1.72
  -3  -8   3    1.96    0.70
  -3  -8   4   10.13    1.55
  -3  -8   4    8.04    1.35
  -3  -8   5    9.64    1.48
  -3  -8   5    5.24    1.13
  -3  -8   6   28.69    2.53
  -3  -8   7   -0.83    0.79
  -3  -8   8   18.52    1.82
  -3  -8   9   18.81    1.62
  -3  -7  -3   61.40    3.06
  -3  -7  -3   61.38    3.04
  -3  -7  -3   61.41    3.19
  -3  -7  -2    4.12    0.83
  -3  -7  -2    3.85    0.95
  -3  -7  -1   14.97    1.64
  -3  -7  -1   14.14    1.67
  -3  -7  -1   11.74    1.39
  -3  -7   0   12.71    1.68
  -3  -7   0   13.02    1.76
  -3  -7   0   12.97    1.47
  -3  -7   1   49.70    3.57
  -3  -7   1   42.92    3.33
  -3  -7   2   35.08    3.06
  -3  -7   3    2.60    0.90
  -3  -7   4   41.37    3.37
  -3  -7   4   41.93    3.45
  -3  -7   5    4.65    1.26
  -3  -7   5    2.76    1.04
  -3  -7   6   10.11    1.71
  -3  -7   7    7.16    1.40
  -3  -7   8    2.95    0.98
  -3  -7   9   19.37    1.85
  -3  -6  -5    6.15    0.83
  -3  -6  -4   42.56    2.66
  -3  -6  -4   39.58    2.50
  -3  -6  -4   45.98    2.60
  -3  -6  -4   39.42    2.63
  -3  -6  -3   -0.23    0.51
  -3  -6  -3   -0.57    0.69
  -3  -6  -3    0.88    0.60
  -3  -6  -3    0.24    0.47
  -3  -6  -2   80.99    4.51
  -3  -6  -2   84.82    4.80
  -3  -6  -2   85.88    4.83
  -3  -6  -2   88.25    4.82
  -3  -6  -1   17.85    2.05
  -3  -6  -1   17.18    1.81
  -3  -6  -1   15.61    2.07
  -3  -6  -1   15.80    1.91
  -3  -6   0   72.50    4.62
  -3  -6   0   64.35    4.50
  -3  -6   0   69.95    4.40
  -3  -6   1  108.03    6.14
  -3  -6   1  100.13    5.94
  -3  -6   1  100.68    5.70
  -3  -6   2   14.59    2.14
  -3  -6   2   15.60    1.93
  -3  -6   3   46.94    3.83
  -3  -6   3   47.07    3.39
  -3  -6   3   46.28    3.45
  -3  -6   4   18.92    2.45
  -3  -6   4   16.79    2.30
  -3  -6   4   16.64    2.06
  -3  -6   4   15.43    1.89
  -3  -6   5  230.71   10.14
  -3  -6   5  227.77   10.53
  -3  -6   5  238.93   10.44
  -3  -6   5  200.63    9.34
  -3  -6   6   64.52    4.58
  -3  -6   6   77.65    5.17
  -3  -6   7   17.13    2.16
  -3  -6   8   18.12    2.06
  -3  -6   9   14.27    2.04
  -3  -6  12   36.01    2.12
  -3  -5  -6   12.11    1.31
  -3  -5  -6   13.95    1.33
  -3  -5  -5    1.08    0.48
  -3  -5  -5    1.73    0.67
  -3  -5  -5    1.18    0.59
  -3  -5  -4   10.46    1.38
  -3  -5  -4   14.39    1.74
  -3  -5  -4   11.51    1.60
  -3  -5  -3   61.98    3.93
  -3  -5  -3   53.86    3.84
  -3  -5  -3   57.28    3.97
  -3  -5  -2   14.95    2.00
  -3  -5  -2   17.36    2.24
  -3  -5  -2   16.54    2.11
  -3  -5  -1    8.59    1.62
  -3  -5  -1    8.26    1.74
  -3  -5  -1   11.28    1.80
  -3  -5   0    1.23    0.83
  -3  -5   0    1.61    1.12
  -3  -5   0    2.21    0.97
  -3  -5   1   76.35    5.11
  -3  -5   1   69.23    4.88
  -3  -5   2   98.29    5.72
  -3  -5   2  105.25    6.25
  -3  -5   2  102.08    6.32
  -3  -5   2  111.07    6.50
  -3  -5   3    1.40    0.78
  -3  -5   3    1.71    2.06
  -3  -5   3    1.81    1.00
  -3  -5   3    1.92    1.34
  -3  -5   3   -0.42    1.21
  -3  -5   4  151.99    7.89
  -3  -5   4  138.64    7.63
  -3  -5   4  143.51    7.54
  -3  -5   5   94.49    5.93
  -3  -5   5   99.66    6.09
  -3  -5   5   90.87    5.74
  -3  -5   5   86.29    5.44
  -3  -5   6   15.06    2.18
  -3  -5   6   19.73    2.36
  -3  -5   6   20.17    2.59
  -3  -5   6   17.78    2.46
  -3  -5   7   28.31    3.03
  -3  -5   8   19.08    2.09
  -3  -4  -8   11.57    1.00
  -3  -4  -7   35.67    2.40
  -3  -4  -6    1.56    0.73
  -3  -4  -6    1.93    0.68
  -3  -4  -5   32.93    2.75
  -3  -4  -5   30.40    2.36
  -3  -4  -4    7.85    1.36
  -3  -4  -4    9.86    1.76
  -3  -4  -3   55.51    4.30
  -3  -4  -3   60.52    4.11
  -3  -4  -3   57.58    4.27
  -3  -4  -2   38.74    3.53
  -3  -4  -2   35.28    6.11
  -3  -4  -2   37.07    3.23
  -3  -4  -2   31.66    3.22
  -3  -4  -1   52.17    4.13
  -3  -4  -1   57.85    8.04
  -3  -4  -1   56.33    7.49
  -3  -4  -1   55.41    4.42
  -3  -4  -1   64.66    7.67
  -3  -4  -1   54.26    4.31
  -3  -4   0   74.17    5.28
  -3  -4   0   87.21   10.56
  -3  -4   0   82.49    9.39
  -3  -4   0   80.78    5.29
  -3  -4   0   77.08    4.68
  -3  -4   1   39.54    6.40
  -3  -4   1   40.05    7.22
  -3  -4   1   30.82    3.30
  -3  -4   1   40.78    3.57
  -3  -4   1   33.57    3.37
  -3  -4   2    7.61    1.66
  -3  -4   2    5.04    2.43
  -3  -4   2    4.73    2.69
  -3  -4   2    5.45    1.48
  -3  -4   2    6.26    1.60
  -3  -4   3    2.05    1.02
  -3  -4   3    3.09    2.22
  -3  -4   3    3.27    1.15
  -3  -4   3    2.78    1.26
  -3  -4   3    4.39    1.40
  -3  -4   4   11.29    1.93
  -3  -4   4   10.76    3.69
  -3  -4   4   10.39    1.85
  -3  -4   4    9.63    1.91
  -3  -4   4   12.19    2.09
  -3  -4   4    8.98    1.89
  -3  -4   5  108.77    6.39
  -3  -4   5   90.17   10.25
  -3  -4   5  104.96    6.15
  -3  -4   5   90.39    5.59
  -3  -4   5  100.67    6.00
  -3  -4   6   11.62    1.73
  -3  -4   6   11.32    1.99
  -3  -4   6    9.34    1.63
  -3  -4   6   13.06    2.31
  -3  -4   7    4.13    1.11
  -3  -4   7    5.22    1.63
  -3  -4   7    5.77    1.60
  -3  -4   7    7.40    1.83
  -3  -4   8   11.94    1.93
  -3  -4   9    0.35    1.05
  -3  -4   9    1.23    1.15
  -3  -4  10   27.04    2.61
  -3  -3  -8   12.91    1.32
  -3  -3  -7    4.70    0.97
  -3  -3  -7    6.29    1.11
  -3  -3  -6  108.40    5.79
  -3  -3  -6  112.06    6.09
  -3  -3  -5    4.70    1.03
  -3  -3  -5    6.73    1.52
  -3  -3  -5    6.71    1.45
  -3  -3  -4  143.39    7.82
  -3  -3  -4  141.71    7.05
  -3  -3  -4  141.61    7.45
  -3  -3  -3   77.02    4.89
  -3  -3  -3   78.07    5.49
  -3  -3  -3   90.60    9.56
  -3  -3  -3   64.75    8.65
  -3  -3  -3   89.31    5.45
  -3  -3  -3   81.51   10.13
  -3  -3  -2   22.00    2.44
  -3  -3  -2   27.64    5.23
  -3  -3  -2   31.02    5.26
  -3  -3  -2   22.30    2.70
  -3  -3  -2   23.41    5.47
  -3  -3  -2   20.09    4.08
  -3  -3  -1  131.71   13.40
  -3  -3  -1  124.72   11.23
  -3  -3  -1  112.48   11.55
  -3  -3  -1  140.57   12.02
  -3  -3  -1  143.95    7.31
  -3  -3   0   10.10    1.97
  -3  -3   0    6.35    2.54
  -3  -3   0    8.96    1.62
  -3  -3   0    9.16    1.89
  -3  -3   1  344.43   23.62
  -3  -3   1  337.03   20.63
  -3  -3   1  339.90   15.21
  -3  -3   1  359.29   14.64
  -3  -3   1  354.79   15.12
  -3  -3   2   29.28    2.94
  -3  -3   2   37.03    5.98
  -3  -3   2   25.32    5.96
  -3  -3   2   35.22    3.47
  -3  -3   2   31.76    2.98
  -3  -3   2   31.21    3.21
  -3  -3   3  204.16   10.04
  -3  -3   3  195.53    9.40
  -3  -3   3  206.17   15.39
  -3  -3   3  201.59   10.21
  -3  -3   3  215.68    9.75
  -3  -3   3  200.21    9.88
  -3  -3   4  111.02    6.32
  -3  -3   4  112.69   11.18
  -3  -3   4  118.58    7.05
  -3  -3   4  126.63    6.67
  -3  -3   4  105.20    6.47
  -3  -3   5   77.10    5.38
  -3  -3   5   71.99    8.90
  -3  -3   5   62.57    4.52
  -3  -3   5   68.59    4.66
  -3  -3   5   83.57    5.73
  -3  -3   5   65.78    4.60
  -3  -3   6   14.76    2.13
  -3  -3   6   12.60    1.97
  -3  -3   6   12.33    3.45
  -3  -3   7    2.79    1.24
  -3  -3   8  150.04    7.70
  -3  -3   9   33.32    3.05
  -3  -3   9   30.37    2.91
  -3  -3  10    0.31    0.85
  -3  -3  10   -0.16    0.92
  -3  -3  11    5.21    1.17
  -3  -3  11    3.62    1.16
  -3  -2  -8   18.04    1.68
  -3  -2  -8   19.03    1.89
  -3  -2  -7   58.05    3.81
  -3  -2  -7   62.37    4.12
  -3  -2  -6    9.93    1.78
  -3  -2  -6   10.24    1.70
  -3  -2  -5   26.28    2.97
  -3  -2  -5   28.21    2.84
  -3  -2  -4   11.68    1.94
  -3  -2  -4   10.56    1.95
  -3  -2  -4   12.83    3.71
  -3  -2  -4    9.64    3.26
  -3  -2  -4   10.91    1.50
  -3  -2  -3   41.76    3.23
  -3  -2  -3   44.83    4.06
  -3  -2  -3   44.34    7.39
  -3  -2  -3   41.40    5.71
  -3  -2  -3   41.50    6.95
  -3  -2  -3   53.72    7.11
  -3  -2  -3   47.85    3.87
  -3  -2  -2  207.04   10.36
  -3  -2  -2  213.06   17.22
  -3  -2  -2  189.50   14.03
  -3  -2  -2  160.57   13.89
  -3  -2  -2  205.82   15.82
  -3  -2  -2  210.20    9.19
  -3  -2  -1   37.01    3.08
  -3  -2  -1   43.67    4.00
  -3  -2  -1   43.50    6.65
  -3  -2  -1   38.74    3.45
  -3  -2  -1   44.56    7.48
  -3  -2  -1   38.18    5.76
  -3  -2   0  199.39    9.01
  -3  -2   0  189.36   14.08
  -3  -2   0  176.22   15.94
  -3  -2   0  189.94   14.53
  -3  -2   0  205.58    9.72
  -3  -2   1   59.31    4.14
  -3  -2   1   62.19    7.53
  -3  -2   1   78.45    9.89
  -3  -2   1   70.10    4.35
  -3  -2   1   67.11    4.77
  -3  -2   2  287.03   12.06
  -3  -2   2  270.87   20.10
  -3  -2   2  304.03   13.31
  -3  -2   2  303.77   12.29
  -3  -2   2  289.94   12.89
  -3  -2   2  271.50   11.95
  -3  -2   3   11.64    1.76
  -3  -2   3   12.20    2.09
  -3  -2   3   11.13    3.29
  -3  -2   3   15.72    2.28
  -3  -2   3   13.20    1.76
  -3  -2   3   11.73    1.78
  -3  -2   4   15.18    2.30
  -3  -2   4   10.86    3.33
  -3  -2   4   16.46    2.01
  -3  -2   4   10.86    1.83
  -3  -2   4   15.20    2.51
  -3  -2   5  505.16   20.00
  -3  -2   5  459.70   18.61
  -3  -2   5  505.58   18.93
  -3  -2   5  479.91   18.76
  -3  -2   5  487.21   26.66
  -3  -2   6    0.71    0.99
  -3  -2   6   -0.18    0.98
  -3  -2   6    0.29    1.47
  -3  -2   6    2.57    1.09
  -3  -2   6    4.38    1.67
  -3  -2   6    3.10    1.67
  -3  -2   7  164.00    8.01
  -3  -2   7  149.41    9.05
  -3  -2   7  161.29   12.05
  -3  -2   7  159.63    7.80
  -3  -2   7  149.72    8.33
  -3  -2   8   34.21    3.77
  -3  -2   8   34.03    3.15
  -3  -2   8   39.51    3.30
  -3  -2   8   36.30    3.57
  -3  -2   9  118.83    6.49
  -3  -2   9  120.75    6.88
  -3  -2  10   22.40    2.33
  -3  -2  10   21.79    2.36
  -3  -2  10   22.28    2.55
  -3  -2  11   35.81    2.70
  -3  -2  11   37.55    2.87
  -3  -1  -9   25.26    1.87
  -3  -1  -9   23.33    1.97
  -3  -1  -8    1.75    0.81
  -3  -1  -8    1.95    0.76
  -3  -1  -7   32.72    2.84
  -3  -1  -7   28.21    2.88
  -3  -1  -6   35.17    3.14
  -3  -1  -6   33.46    3.28
  -3  -1  -5   19.10    2.60
  -3  -1  -5   20.67    4.50
  -3  -1  -5   24.59    4.88
  -3  -1  -5   23.74    2.60
  -3  -1  -4   63.97    4.92
  -3  -1  -4   66.57    9.05
  -3  -1  -4   64.74    8.08
  -3  -1  -4   55.66    8.10
  -3  -1  -4   71.08    4.73
  -3  -1  -3    0.72    0.89
  -3  -1  -3    0.94    1.01
  -3  -1  -3    1.20    1.59
  -3  -1  -3    3.01    1.62
  -3  -1  -3    2.34    2.05
  -3  -1  -3    0.52    0.46
  -3  -1  -2   32.62    2.59
  -3  -1  -2   34.52    3.38
  -3  -1  -2   32.12    5.12
  -3  -1  -2   29.92    2.67
  -3  -1  -2   31.71    6.11
  -3  -1  -2   35.85    6.00
  -3  -1  -2   35.00    3.23
  -3  -1  -1   22.16    2.11
  -3  -1  -1   28.68    2.98
  -3  -1  -1   22.09    2.26
  -3  -1  -1   21.36    4.22
  -3  -1  -1   32.28    6.16
  -3  -1  -1   16.29    4.03
  -3  -1  -1   21.83    2.59
  -3  -1   0   69.01    4.02
  -3  -1   0   58.19    3.91
  -3  -1   0   52.45    6.78
  -3  -1   0   65.75    4.67
  -3  -1   0   62.32    7.34
  -3  -1   0   55.80    3.81
  -3  -1   0   64.44    4.49
  -3  -1   1  136.74    6.64
  -3  -1   1  132.76    6.71
  -3  -1   1  143.41   11.51
  -3  -1   1  138.84   12.71
  -3  -1   1  145.01    7.59
  -3  -1   1  127.32    6.49
  -3  -1   1  132.21    6.64
  -3  -1   1  144.53    7.43
  -3  -1   2  141.33    6.78
  -3  -1   2  132.79    6.81
  -3  -1   2  137.09   12.41
  -3  -1   2  148.40    7.69
  -3  -1   2  151.05    6.94
  -3  -1   2  134.47    6.76
  -3  -1   2  130.38    7.36
  -3  -1   3   17.95    4.02
  -3  -1   3   19.20    2.18
  -3  -1   3   18.41    2.03
  -3  -1   3   17.86    2.03
  -3  -1   3   15.01    1.91
  -3  -1   4   98.30    5.63
  -3  -1   4   85.77    9.27
  -3  -1   4  103.14    5.64
  -3  -1   4   98.17    5.47
  -3  -1   5   15.41    2.03
  -3  -1   5   18.55    2.13
  -3  -1   5   15.26    2.06
  -3  -1   5   17.98    2.55
  -3  -1   5   18.73    2.48
  -3  -1   5   20.13    4.48
  -3  -1   5   16.78    3.48
  -3  -1   6   83.92    6.48
  -3  -1   6   88.99    5.32
  -3  -1   6   83.27    5.16
  -3  -1   6   85.13    9.05
  -3  -1   6   79.22    8.32
  -3  -1   6   88.83    5.21
  -3  -1   7    0.72    0.91
  -3  -1   7    1.19    1.32
  -3  -1   7    1.29    0.98
  -3  -1   7    1.02    0.88
  -3  -1   8  112.23    6.35
  -3  -1   8  111.85    6.30
  -3  -1   8  115.61    6.12
  -3  -1   9   80.34    4.89
  -3  -1   9   75.14    4.87
  -3  -1  10    3.14    1.12
  -3  -1  10    2.18    1.22
  -3  -1  11   63.13    3.70
  -3  -1  11   61.50    3.87
  -3  -1  11   68.37    4.22
  -3   0  -9   -0.22    0.64
  -3   0  -9    0.12    0.46
  -3   0  -8  121.97    6.22
  -3   0  -8  120.37    6.29
  -3   0  -7   34.38    3.04
  -3   0  -7   33.78    3.13
  -3   0  -6   28.41    2.97
  -3   0  -6   24.81    4.89
  -3   0  -6   34.31    3.06
  -3   0  -5   20.79    2.57
  -3   0  -5   20.59    3.86
  -3   0  -5   22.79    2.57
  -3   0  -5   23.90    4.74
  -3   0  -5   25.22    5.20
  -3   0  -5   16.68    2.32
  -3   0  -4   88.50    5.67
  -3   0  -4   95.40    8.70
  -3   0  -4   88.08   10.47
  -3   0  -4   86.96    4.84
  -3   0  -4   83.32    9.43
  -3   0  -4   95.67    5.67
  -3   0  -3  533.25   20.36
  -3   0  -3  538.37   29.38
  -3   0  -3  506.15   25.39
  -3   0  -3  479.54   19.01
  -3   0  -3  504.32   27.03
  -3   0  -3  536.28   19.94
  -3   0  -2   45.62    2.96
  -3   0  -2   51.79    3.93
  -3   0  -2   55.64    7.02
  -3   0  -2   46.28    6.11
  -3   0  -2   43.95    3.28
  -3   0  -2   64.28    8.27
  -3   0  -2   35.87    5.89
  -3   0  -2   51.41    3.84
  -3   0  -1  137.08    6.58
  -3   0  -1  163.22    7.89
  -3   0  -1  169.52   13.45
  -3   0  -1  146.39    7.05
  -3   0  -1  150.64   11.72
  -3   0  -1  139.58   11.42
  -3   0  -1  147.44    6.90
  -3   0  -1  155.66    7.63
  -3   0   0  125.70    6.08
  -3   0   0  138.82    7.08
  -3   0   0  150.96   12.19
  -3   0   0  122.67   10.65
  -3   0   0  130.92    6.49
  -3   0   0  125.60    6.26
  -3   0   0  131.74    6.92
  -3   0   1   30.66    2.52
  -3   0   1   33.25    2.58
  -3   0   1   36.93    3.20
  -3   0   1   40.90    5.91
  -3   0   1   36.18    5.43
  -3   0   1   34.90    2.77
  -3   0   1   33.94    3.11
  -3   0   2   79.03    4.62
  -3   0   2   83.65    5.18
  -3   0   2   74.02    4.42
  -3   0   2   78.43    4.71
  -3   0   2   85.89    8.63
  -3   0   2   79.57    8.19
  -3   0   3   72.79    4.43
  -3   0   3   69.46    4.75
  -3   0   3   72.82    4.22
  -3   0   3   72.07    4.30
  -3   0   3   62.77    7.58
  -3   0   3   65.76    4.31
  -3   0   3   61.56    6.27
  -3   0   3   63.04    6.96
  -3   0   4  205.38   10.25
  -3   0   4  220.88    9.68
  -3   0   4  229.41    9.90
  -3   0   4  232.63   10.62
  -3   0   4  227.16    9.95
  -3   0   4  225.79   15.71
  -3   0   4  220.90   14.04
  -3   0   5   50.68    3.65
  -3   0   5   46.57    3.49
  -3   0   5   43.96    3.20
  -3   0   5   41.95    3.36
  -3   0   5   36.98    5.95
  -3   0   5   46.61    3.53
  -3   0   6   21.81    2.34
  -3   0   6   21.84    2.40
  -3   0   6   19.15    2.99
  -3   0   6   23.89    4.56
  -3   0   6   26.10    2.93
  -3   0   6   19.70    2.32
  -3   0   7   16.49    2.17
  -3   0   7   17.34    3.77
  -3   0   7   20.04    2.27
  -3   0   7   16.07    2.12
  -3   0   7   14.99    2.43
  -3   0   8    0.36    0.88
  -3   0   8    1.76    1.01
  -3   0   8    1.74    1.48
  -3   0   8    0.36    0.85
  -3   0   8    1.64    0.98
  -3   0   9   26.47    2.34
  -3   0   9   21.76    2.73
  -3   0   9   27.75    2.65
  -3   0   9   23.67    2.55
  -3   0   9   27.27    2.64
  -3   0  10   10.07    1.62
  -3   0  10   10.39    1.60
  -3   0  11    4.31    1.16
  -3   0  11    5.36    1.15
  -3   0  11    4.58    0.97
  -3   1 -10    3.31    0.83
  -3   1  -9   16.98    1.92
  -3   1  -9   15.62    1.62
  -3   1  -8   -0.47    0.85
  -3   1  -8    0.59    0.65
  -3   1  -7   17.39    2.06
  -3   1  -7   13.71    2.30
  -3   1  -6  140.31   12.73
  -3   1  -6  157.53    7.86
  -3   1  -6  159.42   12.09
  -3   1  -6  146.76    7.63
  -3   1  -5  162.28    7.84
  -3   1  -5  131.01   11.45
  -3   1  -5  141.66    7.44
  -3   1  -5  146.51   12.63
  -3   1  -5  138.38    6.71
  -3   1  -5  153.91   13.05
  -3   1  -4  359.35   14.18
  -3   1  -4  306.79   14.82
  -3   1  -4  361.58   21.07
  -3   1  -4  335.16   20.96
  -3   1  -4  349.44   19.25
  -3   1  -4  333.68   13.31
  -3   1  -3  114.64    6.32
  -3   1  -3  113.87   10.32
  -3   1  -3  122.15    6.34
  -3   1  -3   93.61    6.60
  -3   1  -3  119.87   10.59
  -3   1  -3  110.38    5.74
  -3   1  -3  113.84    9.75
  -3   1  -3  113.20   10.54
  -3   1  -2  219.24    9.66
  -3   1  -2  205.93    9.41
  -3   1  -2  213.31   14.83
  -3   1  -2  215.63   14.45
  -3   1  -2  194.47    8.95
  -3   1  -2  207.62   14.43
  -3   1  -2  205.38   13.91
  -3   1  -1    2.76    0.68
  -3   1  -1    3.42    1.18
  -3   1  -1    2.39    1.14
  -3   1  -1    1.80    1.58
  -3   1  -1    1.76    1.26
  -3   1  -1    3.29    1.08
  -3   1  -1    3.29    0.92
  -3   1  -1    4.75    1.10
  -3   1   0  185.82    9.64
  -3   1   0  206.39    9.33
  -3   1   0  207.64   13.47
  -3   1   0  204.15    9.02
  -3   1   0  196.59   13.90
  -3   1   0  207.56    8.85
  -3   1   0  211.75    9.47
  -3   1   1  457.66   17.48
  -3   1   1  461.35   16.78
  -3   1   1  403.86   17.56
  -3   1   1  450.11   17.01
  -3   1   2   19.98    2.13
  -3   1   2   20.03    2.32
  -3   1   2   23.08    2.22
  -3   1   2   22.77    2.39
  -3   1   2   14.14    3.59
  -3   1   2   24.97    2.43
  -3   1   2   22.13    3.63
  -3   1   2   23.60    4.44
  -3   1   3  275.33   12.76
  -3   1   3  308.11   12.62
  -3   1   3  290.38   12.84
  -3   1   3  312.49   12.47
  -3   1   3  328.33   13.13
  -3   1   3  310.62   18.84
  -3   1   3  315.41   12.66
  -3   1   3  286.00   18.16
  -3   1   3  293.11   17.02
  -3   1   4    0.81    0.82
  -3   1   4    1.78    0.89
  -3   1   4    1.69    0.95
  -3   1   4    2.05    1.94
  -3   1   4   -0.32    0.90
  -3   1   4    1.17    1.09
  -3   1   5  251.95   11.02
  -3   1   5  240.57   11.31
  -3   1   5  256.76   11.04
  -3   1   5  250.95   10.81
  -3   1   5  247.02   11.12
  -3   1   5  243.96   10.70
  -3   1   5  244.90   16.66
  -3   1   5  261.97   16.55
  -3   1   6   98.67    6.01
  -3   1   6  101.42    6.34
  -3   1   6  111.63    6.12
  -3   1   6  122.28   10.92
  -3   1   6  120.81    6.43
  -3   1   6  104.96    5.98
  -3   1   7   49.48    3.67
  -3   1   7   42.68    3.87
  -3   1   7   47.50    3.71
  -3   1   8  124.74    6.33
  -3   1   8  109.38    6.11
  -3   1   8  105.06    6.61
  -3   1   8  124.16    6.59
  -3   1   8  127.48    6.67
  -3   1   9    0.60    0.82
  -3   1   9   -0.20    1.25
  -3   1   9    1.52    1.03
  -3   1   9    0.16    0.83
  -3   1  10   33.48    2.76
  -3   1  10   30.79    2.64
  -3   1  11    1.36    0.89
  -3   1  11    0.98    0.74
  -3   2 -11    6.83    0.86
  -3   2 -10    1.21    0.77
  -3   2  -9    5.01    1.21
  -3   2  -8  100.39    6.78
  -3   2  -8  118.61    6.23
  -3   2  -7    1.59    0.78
  -3   2  -7    2.54    1.15
  -3   2  -7    3.86    1.54
  -3   2  -6   21.96    4.44
  -3   2  -6   25.94    2.71
  -3   2  -6   17.72    2.04
  -3   2  -6   24.74    4.77
  -3   2  -5   24.46    2.43
  -3   2  -5   35.12    5.76
  -3   2  -5   32.32    5.26
  -3   2  -5   27.72    4.59
  -3   2  -5   29.73    2.51
  -3   2  -4   25.45    3.29
  -3   2  -4   28.71    2.83
  -3   2  -4   33.30    5.69
  -3   2  -4   26.41    2.44
  -3   2  -4   15.98    3.94
  -3   2  -4   24.66    2.41
  -3   2  -4   25.04    4.46
  -3   2  -3   66.62    5.57
  -3   2  -3   81.76    4.98
  -3   2  -3   74.91    8.01
  -3   2  -3   83.87    8.90
  -3   2  -3   71.07    4.41
  -3   2  -3   84.98    8.32
  -3   2  -3   71.74    4.41
  -3   2  -2   27.17    2.49
  -3   2  -2   30.20    2.66
  -3   2  -2   29.42    4.93
  -3   2  -2   28.22    2.78
  -3   2  -1   76.59    8.61
  -3   2  -1   70.77    4.35
  -3   2  -1   60.96    5.14
  -3   2  -1   88.41    8.70
  -3   2  -1   72.25    4.41
  -3   2  -1   82.05    4.82
  -3   2  -1   71.11    4.18
  -3   2   0  127.98    6.37
  -3   2   0  134.32    6.81
  -3   2   0  118.95    7.47
  -3   2   0  136.62    6.64
  -3   2   0  135.77   11.37
  -3   2   0  140.97   11.38
  -3   2   1   56.67    3.78
  -3   2   1   49.34    4.29
  -3   2   1   59.10    3.62
  -3   2   1   56.45    3.83
  -3   2   1   56.43    3.84
  -3   2   1   55.04    7.00
  -3   2   1   63.25    7.47
  -3   2   2  151.69    7.24
  -3   2   2  129.96    7.80
  -3   2   2  148.77    7.00
  -3   2   2  152.40    7.40
  -3   2   2  145.13    7.23
  -3   2   2  138.57   12.03
  -3   2   2  148.07   11.01
  -3   2   2  152.99   12.28
  -3   2   3    7.50    1.51
  -3   2   3    4.54    1.35
  -3   2   3    7.24    1.58
  -3   2   3    9.83    1.59
  -3   2   3    5.36    1.20
  -3   2   3    6.67    1.48
  -3   2   3    5.54    2.69
  -3   2   3    5.40    2.15
  -3   2   3    4.35    1.92
  -3   2   4  265.22   12.41
  -3   2   4  317.46   12.60
  -3   2   4  299.74   12.12
  -3   2   4  284.93   13.18
  -3   2   4  286.72   18.45
  -3   2   4  293.79   12.28
  -3   2   4  290.63   18.46
  -3   2   5  337.04   13.53
  -3   2   5  284.99   13.33
  -3   2   5  318.19   13.08
  -3   2   5  335.03   13.51
  -3   2   5  310.54   13.94
  -3   2   5  300.75   12.82
  -3   2   5  341.55   20.31
  -3   2   6   18.48    2.45
  -3   2   6   19.32    2.39
  -3   2   6   18.96    2.43
  -3   2   6   20.22    2.34
  -3   2   6   19.56    4.57
  -3   2   6   17.67    2.21
  -3   2   6   16.13    2.35
  -3   2   7   60.12    4.21
  -3   2   7   58.06    4.06
  -3   2   8   25.27    2.56
  -3   2   8   21.53    2.39
  -3   2   8   18.00    2.10
  -3   2   8   16.72    2.38
  -3   2   9  154.21    7.12
  -3   2   9  143.02    7.03
  -3   2  10    0.26    0.87
  -3   2  10   -0.23    0.80
  -3   2  11   47.66    2.72
  -3   3 -11    5.88    0.98
  -3   3 -10   35.12    2.71
  -3   3  -9   35.84    3.04
  -3   3  -8   46.22    3.68
  -3   3  -7  103.24    6.01
  -3   3  -7   97.76    9.85
  -3   3  -6    4.43    1.95
  -3   3  -6    2.88    1.73
  -3   3  -5  118.91    7.99
  -3   3  -5  131.55    6.91
  -3   3  -5  137.41   12.14
  -3   3  -5  113.86    5.89
  -3   3  -5  113.67   10.73
  -3   3  -5  128.34   10.52
  -3   3  -5  129.65    6.25
  -3   3  -4   33.84    3.86
  -3   3  -4   36.23    3.22
  -3   3  -4   44.93    6.73
  -3   3  -4   32.24    2.61
  -3   3  -4   43.19    5.75
  -3   3  -4   37.91    2.96
  -3   3  -4   35.99    5.66
  -3   3  -3   10.84    1.44
  -3   3  -3   15.81    2.09
  -3   3  -3   10.87    3.39
  -3   3  -3   12.88    1.83
  -3   3  -3   12.47    2.42
  -3   3  -2   86.07    6.36
  -3   3  -2   91.82    5.32
  -3   3  -2  101.23   10.21
  -3   3  -2   82.99    4.69
  -3   3  -2   87.69    5.10
  -3   3  -2   88.07    9.15
  -3   3  -2   89.99    4.76
  -3   3  -1   74.57    4.81
  -3   3  -1   81.55    4.66
  -3   3  -1   83.45    6.14
  -3   3  -1   87.46    4.97
  -3   3  -1   86.03    8.99
  -3   3  -1   95.68    9.08
  -3   3  -1   79.09    4.53
  -3   3   0  306.99   12.65
  -3   3   0  326.89   14.79
  -3   3   0  338.46   19.52
  -3   3   1   59.91    4.99
  -3   3   1   68.48    4.05
  -3   3   1   61.93    4.01
  -3   3   1   50.30    7.14
  -3   3   1   72.35    4.51
  -3   3   1   59.97    6.97
  -3   3   1   74.54    8.34
  -3   3   2    1.06    0.82
  -3   3   2    2.11    1.17
  -3   3   2    1.52    1.13
  -3   3   2    2.90    2.07
  -3   3   2    0.75    0.80
  -3   3   3  116.73    6.22
  -3   3   3  111.56    7.09
  -3   3   3  108.15    6.11
  -3   3   3  124.64   11.40
  -3   3   3  105.28   10.83
  -3   3   3  114.47   10.75
  -3   3   4    0.55    0.86
  -3   3   4    0.79    0.83
  -3   3   4   -0.45    1.06
  -3   3   4   -0.26    0.83
  -3   3   4    3.64    1.75
  -3   3   4    1.68    1.04
  -3   3   4    2.51    1.56
  -3   3   4    0.77    1.65
  -3   3   5   25.57    3.12
  -3   3   5   24.87    2.74
  -3   3   5   33.82    3.13
  -3   3   5   32.93    2.90
  -3   3   6    3.26    1.14
  -3   3   6    3.55    1.28
  -3   3   6    3.81    1.38
  -3   3   6    2.84    1.23
  -3   3   6    1.94    1.17
  -3   3   7   61.06    4.21
  -3   3   7   66.97    4.41
  -3   3   8   51.10    3.78
  -3   3   8   44.39    3.31
  -3   3   8   55.27    3.90
  -3   3   8   48.26    3.64
  -3   3   9    5.41    1.22
  -3   3   9    3.62    1.09
  -3   3   9    6.63    1.26
  -3   3  10    9.59    1.13
  -3   3  10   12.41    1.42
  -3   3  10   10.34    1.20
  -3   4 -11   20.87    1.90
  -3   4 -11   20.01    2.15
  -3   4 -10   28.62    2.49
  -3   4 -10   23.91    2.78
  -3   4  -9   23.77    2.46
  -3   4  -8  106.08    6.11
  -3   4  -7    5.19    2.12
  -3   4  -6   94.43    6.91
  -3   4  -6   97.85    9.82
  -3   4  -6  100.78    5.33
  -3   4  -6  118.74   11.27
  -3   4  -5   14.49    2.60
  -3   4  -5   14.20    3.37
  -3   4  -5   14.21    4.10
  -3   4  -5   16.08    1.96
  -3   4  -5   12.10    3.18
  -3   4  -4  247.15   10.44
  -3   4  -4  222.46   15.75
  -3   4  -4  229.12   12.10
  -3   4  -3  212.52    9.95
  -3   4  -3  190.64   15.71
  -3   4  -3  227.51    9.85
  -3   4  -3  211.23   15.43
  -3   4  -3  222.51   15.31
  -3   4  -2   64.38    3.79
  -3   4  -2   66.85    8.63
  -3   4  -2   69.29    4.53
  -3   4  -2   67.12    4.44
  -3   4  -2   77.81    8.62
  -3   4  -2   70.05    5.58
  -3   4  -1  317.88   14.21
  -3   4  -1  323.92   12.66
  -3   4  -1  313.37   19.57
  -3   4  -1  279.58   18.11
  -3   4  -1  265.13   11.47
  -3   4   0    6.73    1.73
  -3   4   0    9.13    1.32
  -3   4   0   10.13    3.03
  -3   4   0   11.84    1.86
  -3   4   0   12.05    3.72
  -3   4   0    3.55    2.04
  -3   4   1  177.89    8.14
  -3   4   1  195.37   14.74
  -3   4   1  170.51    8.52
  -3   4   1  162.59   13.88
  -3   4   1  183.67    9.84
  -3   4   2   51.26    3.67
  -3   4   2   49.78    7.29
  -3   4   2   46.89    3.74
  -3   4   2   45.21    7.09
  -3   4   3  228.84   10.22
  -3   4   3  216.58   17.03
  -3   4   3  216.95   10.09
  -3   4   3  211.34   16.15
  -3   4   3  231.15   11.36
  -3   4   4  103.50    6.02
  -3   4   4   94.74    5.43
  -3   4   4   94.24   10.76
  -3   4   4   92.85   10.27
  -3   4   4  108.96    6.83
  -3   4   4   90.43    5.47
  -3   4   5    0.88    0.87
  -3   4   5    1.21    0.90
  -3   4   5    2.79    1.16
  -3   4   6   83.01    5.11
  -3   4   6   88.45    5.47
  -3   4   6   79.06    4.90
  -3   4   6   78.90    5.21
  -3   4   6   88.21    5.82
  -3   4   7    0.51    0.84
  -3   4   7    1.83    1.07
  -3   4   7    1.28    0.87
  -3   4   8    9.53    1.59
  -3   4   8    9.34    1.47
  -3   4   8    9.85    1.36
  -3   4   9   64.30    3.60
  -3   4   9   54.52    3.39
  -3   5 -11    1.63    0.79
  -3   5 -11    1.19    0.68
  -3   5 -10    6.32    1.31
  -3   5 -10    3.57    1.18
  -3   5  -9    2.64    1.14
  -3   5  -9    2.13    1.14
  -3   5  -8   29.02    3.42
  -3   5  -7   97.82    6.81
  -3   5  -6   15.05    2.68
  -3   5  -6   20.00    4.12
  -3   5  -6   22.15    2.27
  -3   5  -6   25.02    4.47
  -3   5  -5   89.75    6.46
  -3   5  -5   72.99    8.29
  -3   5  -5   92.27    5.18
  -3   5  -5   69.43    8.41
  -3   5  -4   42.82    3.81
  -3   5  -4   39.22    6.70
  -3   5  -4   44.17    6.35
  -3   5  -4   46.10    3.55
  -3   5  -4   39.47    6.30
  -3   5  -3   37.97    3.56
  -3   5  -3   41.73    4.21
  -3   5  -3   36.67    6.62
  -3   5  -3   42.13    6.08
  -3   5  -3   50.28    7.12
  -3   5  -2  112.51    6.51
  -3   5  -2  129.17    7.65
  -3   5  -2   98.33    5.86
  -3   5  -2   92.01   10.52
  -3   5  -2  122.75   10.92
  -3   5  -2  116.13   11.51
  -3   5  -1    9.67    1.67
  -3   5  -1   10.43    2.13
  -3   5   0  246.03   11.41
  -3   5   0  262.88   10.84
  -3   5   0  259.43   17.88
  -3   5   0  272.95   18.87
  -3   5   1   67.03    5.10
  -3   5   1   49.39    3.97
  -3   5   1   65.31    8.41
  -3   5   1   56.11    8.13
  -3   5   1   54.65    4.18
  -3   5   1   59.57    4.00
  -3   5   2   62.87    4.45
  -3   5   2   60.65    4.34
  -3   5   2   54.75    8.17
  -3   5   2   80.84    9.55
  -3   5   2   69.67    4.72
  -3   5   2   77.19    9.00
  -3   5   3  117.58    7.17
  -3   5   3  106.16    6.12
  -3   5   3  112.89    6.42
  -3   5   3  123.03   12.12
  -3   5   3  104.53    6.11
  -3   5   3  105.78   10.67
  -3   5   4   50.44    4.00
  -3   5   4   48.54    3.54
  -3   5   4   46.65    3.60
  -3   5   4   57.47    4.51
  -3   5   5  111.08    6.60
  -3   5   5  115.42    6.24
  -3   5   5  109.34    6.05
  -3   5   5  113.81    6.23
  -3   5   5  131.82    7.20
  -3   5   6   10.11    1.74
  -3   5   6    7.90    1.67
  -3   5   6    8.51    1.53
  -3   5   7  130.38    6.62
  -3   5   7  157.13    7.03
  -3   5   8   34.18    2.42
  -3   5   8   24.68    2.25
  -3   6 -12   16.70    1.34
  -3   6 -11   29.03    2.26
  -3   6 -10    0.28    0.79
  -3   6  -9   40.25    3.33
  -3   6  -7   13.53    1.71
  -3   6  -6    6.85    1.37
  -3   6  -6    9.56    2.67
  -3   6  -5   32.39    3.32
  -3   6  -5   25.89    4.57
  -3   6  -5   30.13    5.22
  -3   6  -5   30.95    2.94
  -3   6  -4  146.70   12.32
  -3   6  -4  161.27   13.89
  -3   6  -3   11.80    2.01
  -3   6  -3   13.09    3.69
  -3   6  -3   15.07    4.15
  -3   6  -3   13.68    3.70
  -3   6  -2    1.58    0.94
  -3   6  -2    1.53    1.43
  -3   6  -2    5.60    2.28
  -3   6  -2    5.20    2.64
  -3   6  -1   66.41    4.81
  -3   6  -1   59.74    8.78
  -3   6   0    2.78    0.96
  -3   6   0    1.99    0.98
  -3   6   0    1.70    1.30
  -3   6   1   86.31    5.23
  -3   6   1   87.89    5.65
  -3   6   1   93.55   10.22
  -3   6   1   83.65    5.51
  -3   6   1   86.44    9.99
  -3   6   2   20.12    2.36
  -3   6   2   19.74    2.42
  -3   6   2   22.55    5.19
  -3   6   2   21.47    4.75
  -3   6   2   15.44    2.24
  -3   6   3   41.97    3.53
  -3   6   3   40.10    3.42
  -3   6   3   30.41    2.88
  -3   6   4   87.45    5.28
  -3   6   4   83.84    5.43
  -3   6   4   84.78    4.89
  -3   6   5    0.45    0.67
  -3   6   5   -0.19    0.86
  -3   6   5    1.31    0.78
  -3   6   5    0.46    0.62
  -3   6   6   47.23    3.54
  -3   6   6   50.66    3.29
  -3   6   6   42.77    3.28
  -3   6   7    1.96    0.74
  -3   6   8   20.44    1.54
  -3   7 -11    2.39    0.78
  -3   7 -10   27.43    2.64
  -3   7 -10   24.25    2.31
  -3   7  -9    1.37    0.79
  -3   7  -8   67.90    4.99
  -3   7  -7   36.85    2.90
  -3   7  -6   25.24    3.04
  -3   7  -6   25.69    2.58
  -3   7  -6   24.22    2.85
  -3   7  -5   82.67    5.86
  -3   7  -4    2.28    1.16
  -3   7  -4    2.18    1.35
  -3   7  -4    0.89    0.87
  -3   7  -4    4.15    2.00
  -3   7  -3   80.18    5.78
  -3   7  -3   84.06    9.29
  -3   7  -3   86.58    5.65
  -3   7  -3   78.43    8.70
  -3   7  -2   58.91    4.47
  -3   7  -2   56.26    7.82
  -3   7  -1  227.49   11.08
  -3   7  -1  252.17   11.64
  -3   7   0   60.29    4.15
  -3   7   0   69.40    4.84
  -3   7   0   73.74    8.91
  -3   7   0   67.86    4.95
  -3   7   1    1.60    1.03
  -3   7   1    1.67    0.95
  -3   7   1    3.30    1.09
  -3   7   1    1.61    1.24
  -3   7   2   44.25    3.66
  -3   7   2   51.75    3.94
  -3   7   2   39.71    3.41
  -3   7   3    7.44    1.53
  -3   7   3    7.67    1.47
  -3   7   3    8.56    1.62
  -3   7   4   36.43    3.16
  -3   7   4   35.59    2.93
  -3   7   4   39.07    3.16
  -3   7   5   43.91    2.73
  -3   7   5   44.04    3.29
  -3   7   5   41.52    2.88
  -3   7   6    5.94    1.00
  -3   7   6    6.03    0.85
  -3   7   6    6.95    1.17
  -3   8 -11   10.48    1.31
  -3   8 -10   -0.26    0.74
  -3   8  -9   12.47    1.70
  -3   8  -9   13.64    1.83
  -3   8  -8   21.82    2.39
  -3   8  -8   19.98    1.92
  -3   8  -8   25.19    2.61
  -3   8  -7   26.75    2.43
  -3   8  -7   24.79    2.73
  -3   8  -6   12.93    2.01
  -3   8  -6   11.39    1.87
  -3   8  -5    8.20    1.73
  -3   8  -5   10.11    1.74
  -3   8  -4  361.16   15.75
  -3   8  -4  386.08   15.75
  -3   8  -3    5.95    1.44
  -3   8  -2   21.01    2.56
  -3   8  -2   20.22    2.47
  -3   8  -1   47.51    3.87
  -3   8  -1   41.59    3.59
  -3   8   0   61.89    4.32
  -3   8   0   62.26    4.33
  -3   8   0   49.19    3.68
  -3   8   1   49.47    3.70
  -3   8   1   57.23    3.99
  -3   8   1   52.87    3.94
  -3   8   1   50.00    3.72
  -3   8   2   -0.63    0.89
  -3   8   2    0.48    0.65
  -3   8   2    0.33    0.71
  -3   8   3  146.07    7.30
  -3   8   3  156.09    7.25
  -3   8   3  165.25    7.47
  -3   8   4   26.84    2.14
  -3   8   4   24.67    2.23
  -3   8   4   29.54    2.22
  -3   8   5   28.40    2.04
  -3   8   5   26.56    2.09
  -3   8   6   13.64    1.11
  -3   9 -10    2.03    0.69
  -3   9  -9    8.52    1.22
  -3   9  -9    5.91    1.11
  -3   9  -8   37.47    2.92
  -3   9  -8   42.39    2.73
  -3   9  -8   38.71    3.02
  -3   9  -7   12.08    1.67
  -3   9  -7    9.55    1.54
  -3   9  -7   10.81    1.58
  -3   9  -6   19.85    2.28
  -3   9  -6   20.39    2.28
  -3   9  -5   29.41    2.80
  -3   9  -5   27.31    2.71
  -3   9  -4    0.54    0.64
  -3   9  -4    0.53    0.71
  -3   9  -3    8.80    1.51
  -3   9  -3    6.15    1.32
  -3   9  -2    1.53    0.90
  -3   9  -2    0.86    0.77
  -3   9  -1   65.06    4.28
  -3   9  -1   72.44    4.52
  -3   9   0   67.97    3.95
  -3   9   0   73.34    4.46
  -3   9   0   71.38    4.38
  -3   9   0   75.25    4.44
  -3   9   1    0.68    0.65
  -3   9   1    1.91    0.75
  -3   9   1    0.93    0.59
  -3   9   1    0.98    0.72
  -3   9   2   62.88    3.62
  -3   9   2   60.00    3.61
  -3   9   2   64.60    3.70
  -3   9   3   -0.09    0.37
  -3   9   3    0.18    0.38
  -3   9   3    0.98    0.59
  -3   9   4   40.96    2.31
  -3   9   4   37.78    2.25
  -3  10  -9   26.22    1.79
  -3  10  -8    1.65    0.62
  -3  10  -8    1.68    0.66
  -3  10  -7   14.46    1.66
  -3  10  -7   17.85    1.80
  -3  10  -6    1.96    0.78
  -3  10  -6    1.71    0.66
  -3  10  -5   35.17    2.77
  -3  10  -5   36.10    2.69
  -3  10  -4   21.02    2.13
  -3  10  -4   20.53    2.00
  -3  10  -3    1.92    0.81
  -3  10  -2   36.99    2.76
  -3  10  -2   35.27    2.61
  -3  10  -1   -0.11    0.44
  -3  10  -1    0.61    0.55
  -3  10  -1    0.90    0.76
  -3  10   0   47.33    2.82
  -3  10   0   47.78    2.76
  -3  10   0   43.52    2.90
  -3  10   1   11.87    1.15
  -3  10   1   16.55    1.41
  -3  10   1   16.28    1.48
  -3  10   2    6.01    0.74
  -3  11  -7    0.07    0.48
  -3  11  -6   12.70    1.33
  -3  11  -6   16.76    1.53
  -3  11  -5    6.14    0.95
  -3  11  -5    6.69    1.11
  -3  11  -4   24.20    1.94
  -3  11  -3   33.37    2.34
  -3  11  -3   40.20    2.53
  -3  11  -2    3.06    0.71
  -3  11  -2    6.83    0.99
  -3  11  -1   75.90    3.40
  -3  12  -5   22.93    1.45
  -2 -12   6    0.20    0.32
  -2 -11   2    0.21    0.30
  -2 -11   3   27.64    1.97
  -2 -11   4    0.81    0.43
  -2 -11   5    2.97    0.80
  -2 -11   6   31.11    2.21
  -2 -11   7    0.26    0.59
  -2 -11   8    9.28    1.16
  -2 -11   9    6.04    0.86
  -2 -11  10   22.35    1.51
  -2 -10  -2   11.48    0.96
  -2 -10  -1   15.08    1.32
  -2 -10  -1   14.95    1.25
  -2 -10   0   25.48    1.82
  -2 -10   0   28.16    1.98
  -2 -10   1    6.33    1.04
  -2 -10   1    7.59    1.08
  -2 -10   2   77.46    4.17
  -2 -10   2   77.15    4.06
  -2 -10   3   14.65    1.62
  -2 -10   3   12.51    1.47
  -2 -10   4   44.24    3.11
  -2 -10   4   39.58    2.68
  -2 -10   5    7.43    1.28
  -2 -10   6   39.27    2.96
  -2 -10   6   35.48    2.81
  -2 -10   7  105.93    5.38
  -2 -10   7   99.81    5.07
  -2 -10   8    1.23    0.83
  -2 -10   8    0.62    0.64
  -2 -10   9   39.71    2.72
  -2 -10   9   32.68    2.30
  -2 -10  10    1.81    0.75
  -2  -9  -4   12.02    1.05
  -2  -9  -3    2.70    0.64
  -2  -9  -3    3.31    0.71
  -2  -9  -2    7.06    1.07
  -2  -9  -1   39.32    2.66
  -2  -9  -1   37.41    2.45
  -2  -9   0    0.13    0.43
  -2  -9   0    0.35    0.60
  -2  -9   0    0.47    0.70
  -2  -9   0    0.24    0.42
  -2  -9   1   62.97    3.68
  -2  -9   1   65.23    3.97
  -2  -9   1   67.24    4.04
  -2  -9   1   57.11    3.79
  -2  -9   2    6.36    1.24
  -2  -9   2    6.27    1.02
  -2  -9   2    5.84    1.29
  -2  -9   2    5.52    1.13
  -2  -9   3  128.00    6.53
  -2  -9   3  122.13    6.44
  -2  -9   3  121.99    6.24
  -2  -9   4   74.63    4.66
  -2  -9   4   70.15    4.31
  -2  -9   5   39.83    3.29
  -2  -9   5   42.20    3.06
  -2  -9   6   92.82    5.46
  -2  -9   6   96.70    5.37
  -2  -9   6   89.35    4.84
  -2  -9   7   -0.51    1.17
  -2  -9   7    0.91    0.88
  -2  -9   8   26.82    2.72
  -2  -9   8   26.28    2.47
  -2  -9   9   -0.26    0.74
  -2  -9  10   83.56    4.43
  -2  -9  11   44.47    2.86
  -2  -9  12    4.98    0.88
  -2  -8  -5   29.09    1.85
  -2  -8  -4    1.08    0.53
  -2  -8  -4    1.50    0.65
  -2  -8  -3    1.36    0.59
  -2  -8  -3    1.21    0.65
  -2  -8  -2    1.72    0.69
  -2  -8  -2    0.81    0.69
  -2  -8  -2    2.20    0.79
  -2  -8  -2    1.74    0.58
  -2  -8  -1  188.87    8.42
  -2  -8  -1  191.12    8.57
  -2  -8  -1  193.52    8.36
  -2  -8   0    2.75    1.03
  -2  -8   0    0.73    0.75
  -2  -8   0    0.90    0.67
  -2  -8   1   14.31    1.73
  -2  -8   1   17.00    2.05
  -2  -8   1   15.45    1.99
  -2  -8   1   13.66    1.83
  -2  -8   2   88.85    5.20
  -2  -8   2   70.37    4.83
  -2  -8   2   91.19    8.61
  -2  -8   2   82.14    5.06
  -2  -8   3    6.23    1.47
  -2  -8   3    4.76    1.32
  -2  -8   3    4.64    2.04
  -2  -8   3    3.39    1.16
  -2  -8   4    7.74    1.57
  -2  -8   4    2.41    2.12
  -2  -8   4    4.07    1.27
  -2  -8   4    5.57    1.41
  -2  -8   4    4.94    1.16
  -2  -8   5    8.76    1.46
  -2  -8   6   27.42    2.90
  -2  -8   6   22.70    2.56
  -2  -8   6   23.46    2.42
  -2  -8   7   43.71    3.55
  -2  -8   8    1.56    1.04
  -2  -8   9   20.56    2.28
  -2  -8  10   25.61    2.63
  -2  -8  10   21.35    2.27
  -2  -8  11    8.57    1.48
  -2  -8  11    7.60    1.25
  -2  -8  12   26.21    2.27
  -2  -8  12   36.32    2.56
  -2  -8  13    0.89    0.50
  -2  -7  -7   32.62    1.84
  -2  -7  -6    7.57    0.92
  -2  -7  -6    6.32    0.98
  -2  -7  -6    5.87    0.86
  -2  -7  -5   28.81    2.22
  -2  -7  -5   29.81    2.35
  -2  -7  -5   24.57    2.04
  -2  -7  -4   64.48    3.93
  -2  -7  -4   60.96    3.80
  -2  -7  -3  156.34    7.47
  -2  -7  -3  150.48    7.20
  -2  -7  -3  157.07    7.48
  -2  -7  -3  145.48    6.86
  -2  -7  -2  217.19    9.02
  -2  -7  -2  201.95    9.38
  -2  -7  -2  204.75    9.22
  -2  -7  -2  226.61    9.75
  -2  -7  -2  196.61    9.10
  -2  -7  -1   11.69    1.64
  -2  -7  -1   14.39    1.98
  -2  -7  -1   11.56    1.75
  -2  -7  -1   14.70    1.80
  -2  -7  -1   14.94    3.45
  -2  -7  -1   16.13    2.09
  -2  -7   0   59.30    3.99
  -2  -7   0   54.29    3.82
  -2  -7   0   55.05    3.73
  -2  -7   0   66.75    7.55
  -2  -7   0   55.19    3.96
  -2  -7   1    9.21    1.56
  -2  -7   1    8.31    1.64
  -2  -7   1   10.55    1.57
  -2  -7   1    9.40    1.42
  -2  -7   1    9.03    1.62
  -2  -7   1    9.87    2.85
  -2  -7   2  113.86   10.86
  -2  -7   2  128.27    6.74
  -2  -7   2  134.13    7.02
  -2  -7   2  130.45    6.93
  -2  -7   2  118.64    6.09
  -2  -7   2  122.51    6.06
  -2  -7   2  129.37   11.81
  -2  -7   2  123.36    6.73
  -2  -7   3  174.42    8.62
  -2  -7   3  175.94   13.87
  -2  -7   3  188.30    8.91
  -2  -7   3  176.34   14.54
  -2  -7   3  169.19    8.66
  -2  -7   3  194.26    9.07
  -2  -7   4    2.72    0.98
  -2  -7   4    2.51    1.01
  -2  -7   5  121.25    6.77
  -2  -7   5  120.17    6.62
  -2  -7   5  132.11   12.62
  -2  -7   5  117.12    6.76
  -2  -7   6   10.19    1.79
  -2  -7   6    9.78    1.81
  -2  -7   6   10.73    1.69
  -2  -7   7   41.14    3.61
  -2  -7   7   55.00    4.33
  -2  -7   7   48.13    3.98
  -2  -7   8   13.46    2.15
  -2  -7   8   11.63    1.92
  -2  -7   8   13.19    2.20
  -2  -7   9    7.70    1.57
  -2  -7  10   44.18    3.46
  -2  -7  10   48.51    3.88
  -2  -7  11    3.04    1.23
  -2  -7  11    5.63    1.21
  -2  -7  12    1.20    0.89
  -2  -7  13    0.71    0.58
  -2  -6  -7    1.44    0.53
  -2  -6  -7    0.97    0.61
  -2  -6  -7    0.96    0.38
  -2  -6  -6   68.59    3.98
  -2  -6  -6   61.21    3.84
  -2  -6  -6   62.10    3.65
  -2  -6  -5   49.37    3.57
  -2  -6  -5   47.76    3.54
  -2  -6  -5   54.00    3.55
  -2  -6  -4   15.05    1.92
  -2  -6  -4   11.49    1.54
  -2  -6  -4   11.64    1.71
  -2  -6  -3   59.19    4.08
  -2  -6  -3   53.28    3.95
  -2  -6  -3   50.26    6.72
  -2  -6  -3   45.90    3.54
  -2  -6  -2    1.88    0.75
  -2  -6  -2    1.51    0.96
  -2  -6  -2    2.37    1.02
  -2  -6  -2    3.70    1.78
  -2  -6  -2    2.65    0.98
  -2  -6  -1  317.20   13.05
  -2  -6  -1  297.52   12.36
  -2  -6  -1  281.87   18.65
  -2  -6  -1  303.98   12.66
  -2  -6  -1  321.00   19.92
  -2  -6  -1  280.16   12.46
  -2  -6   0   87.46    5.47
  -2  -6   0   94.22    5.34
  -2  -6   0   80.32    9.04
  -2  -6   0   89.28    5.23
  -2  -6   0   86.49    9.51
  -2  -6   0   85.52    5.27
  -2  -6   1  138.04    6.83
  -2  -6   1  122.82    6.89
  -2  -6   1  144.05   12.19
  -2  -6   1  136.73    7.07
  -2  -6   2  345.72   14.47
  -2  -6   2  356.98   21.65
  -2  -6   2  360.21   14.72
  -2  -6   2  378.84   14.99
  -2  -6   2  357.36   14.12
  -2  -6   2  337.18   21.22
  -2  -6   2  337.64   14.51
  -2  -6   3   61.83    3.91
  -2  -6   3   69.03    4.61
  -2  -6   3   65.11    4.43
  -2  -6   3   57.24    7.67
  -2  -6   3   68.94    4.59
  -2  -6   4  128.46    6.73
  -2  -6   4  124.30    6.77
  -2  -6   4  104.71    5.68
  -2  -6   4  133.33   12.00
  -2  -6   4  118.11    6.54
  -2  -6   5   35.59    3.21
  -2  -6   5   36.98    3.35
  -2  -6   5   35.37    3.14
  -2  -6   6  584.79   21.68
  -2  -6   6  547.96   21.57
  -2  -6   6  537.31   21.30
  -2  -6   7  280.05   12.24
  -2  -6   7  272.17   12.54
  -2  -6   7  271.70   11.76
  -2  -6   8   46.93    3.87
  -2  -6   8   47.80    3.61
  -2  -6   8   47.58    4.05
  -2  -6   9   34.08    3.04
  -2  -6   9   35.50    3.38
  -2  -6  10   33.76    3.23
  -2  -6  10   32.98    2.90
  -2  -6  11   56.72    4.00
  -2  -6  11   50.05    3.58
  -2  -6  12    4.47    1.11
  -2  -6  12    2.70    0.95
  -2  -6  13   42.09    2.72
  -2  -5  -8   16.07    1.60
  -2  -5  -7   11.03    1.58
  -2  -5  -7   13.25    1.45
  -2  -5  -6    4.14    1.06
  -2  -5  -6   -0.28    0.70
  -2  -5  -5   47.17    3.66
  -2  -5  -5   40.24    3.24
  -2  -5  -5   37.94    2.98
  -2  -5  -4    2.40    0.99
  -2  -5  -4    4.38    1.34
  -2  -5  -4    4.00    1.04
  -2  -5  -4    2.35    2.23
  -2  -5  -4    4.73    2.08
  -2  -5  -3   54.22    7.66
  -2  -5  -3   60.38    4.28
  -2  -5  -3   69.83    4.68
  -2  -5  -3   60.02    8.01
  -2  -5  -3   52.78    3.96
  -2  -5  -2  164.91    7.36
  -2  -5  -2  155.40    7.88
  -2  -5  -2  151.35    7.84
  -2  -5  -2  142.43   12.64
  -2  -5  -2  143.70    7.52
  -2  -5  -1   36.98    6.10
  -2  -5  -1   39.21    3.08
  -2  -5  -1   43.62    3.50
  -2  -5  -1   40.53    3.36
  -2  -5  -1   36.83    6.21
  -2  -5  -1   39.42    3.30
  -2  -5   0   15.41    2.06
  -2  -5   0   12.51    1.72
  -2  -5   0   15.78    1.98
  -2  -5   0   15.91    4.17
  -2  -5   0   14.72    2.02
  -2  -5   1    7.75    1.47
  -2  -5   1   10.47    1.58
  -2  -5   1    9.83    1.68
  -2  -5   1    7.94    1.42
  -2  -5   1   11.43    3.33
  -2  -5   1    9.99    3.08
  -2  -5   1   11.73    3.37
  -2  -5   2  226.36    9.72
  -2  -5   2  215.28    9.54
  -2  -5   2  224.13   15.29
  -2  -5   2  209.15    9.45
  -2  -5   2  211.11   15.38
  -2  -5   2  175.50   13.80
  -2  -5   3  297.51   12.33
  -2  -5   3  300.86   12.02
  -2  -5   3  276.37   11.67
  -2  -5   3  270.44   11.63
  -2  -5   3  259.95   17.19
  -2  -5   3  283.11   18.69
  -2  -5   3  271.38   11.99
  -2  -5   4   18.04    2.16
  -2  -5   4   16.22    1.93
  -2  -5   4   17.46    1.95
  -2  -5   4   16.01    2.12
  -2  -5   4   15.04    3.93
  -2  -5   4   13.46    3.75
  -2  -5   4   14.64    2.02
  -2  -5   5  213.57    9.27
  -2  -5   5  208.83    9.80
  -2  -5   5  218.12    9.72
  -2  -5   5  198.60    9.00
  -2  -5   5  215.59    9.84
  -2  -5   6  137.06    6.63
  -2  -5   6  128.67    6.83
  -2  -5   6  119.70    6.77
  -2  -5   6  134.91    6.55
  -2  -5   6  134.96    7.21
  -2  -5   6  151.08    7.24
  -2  -5   7   51.30    3.50
  -2  -5   7   46.89    3.87
  -2  -5   7   48.21    3.71
  -2  -5   8   22.81    2.67
  -2  -5   8   26.35    2.46
  -2  -5   8   24.72    2.61
  -2  -5   9   14.56    1.88
  -2  -5   9   14.09    2.09
  -2  -5   9   15.75    2.13
  -2  -5   9   14.03    2.09
  -2  -5   9   16.70    2.21
  -2  -5  10  282.30   12.05
  -2  -5  10  286.77   11.72
  -2  -5  10  272.90   12.01
  -2  -5  10  275.96   12.01
  -2  -5  10  269.74   11.93
  -2  -5  11   11.35    1.68
  -2  -5  11   14.04    1.91
  -2  -5  11   12.87    1.89
  -2  -5  12   33.37    2.67
  -2  -5  12   30.32    2.52
  -2  -4  -9   31.74    2.40
  -2  -4  -9   36.70    2.43
  -2  -4  -8   55.88    3.74
  -2  -4  -7   73.78    4.77
  -2  -4  -7   69.91    4.15
  -2  -4  -6  162.42    7.59
  -2  -4  -6  146.55    7.19
  -2  -4  -5    1.42    0.90
  -2  -4  -5    2.13    0.81
  -2  -4  -4  142.02    7.34
  -2  -4  -4  145.85    7.74
  -2  -4  -4  142.52   13.07
  -2  -4  -4  131.86   12.13
  -2  -4  -4  140.31    7.06
  -2  -4  -3   10.73    1.72
  -2  -4  -3   14.60    2.07
  -2  -4  -3   10.84    3.66
  -2  -4  -3   18.98    4.39
  -2  -4  -3   14.26    1.91
  -2  -4  -2  289.33   17.56
  -2  -4  -2  309.89   12.06
  -2  -4  -2  299.46   12.84
  -2  -4  -2  321.98   13.24
  -2  -4  -2  298.76   19.02
  -2  -4  -2  292.71   12.48
  -2  -4  -1  172.01   12.46
  -2  -4  -1  182.27    8.00
  -2  -4  -1  183.14    8.66
  -2  -4  -1  177.61    8.76
  -2  -4  -1  174.19   13.51
  -2  -4  -1  191.36   13.74
  -2  -4  -1  185.87    8.47
  -2  -4   0  151.15   11.43
  -2  -4   0  168.49    7.43
  -2  -4   0  164.23    7.98
  -2  -4   0  162.01    8.00
  -2  -4   0  184.88   13.10
  -2  -4   0  164.36   12.53
  -2  -4   0  154.47    7.65
  -2  -4   1  301.07   12.47
  -2  -4   1  311.40   11.95
  -2  -4   1  280.32   12.32
  -2  -4   1  313.48   18.04
  -2  -4   1  260.21   16.27
  -2  -4   2   23.95    2.14
  -2  -4   2   18.39    2.04
  -2  -4   2   21.20    2.23
  -2  -4   2   17.62    3.73
  -2  -4   2   17.09    2.16
  -2  -4   3   22.15    2.31
  -2  -4   3   21.74    2.18
  -2  -4   3   27.33    2.31
  -2  -4   3   28.93    2.62
  -2  -4   4    3.28    0.86
  -2  -4   4    3.81    0.98
  -2  -4   4    0.58    1.52
  -2  -4   4    3.14    0.93
  -2  -4   4    1.95    0.94
  -2  -4   4    2.01    1.01
  -2  -4   4    2.69    0.83
  -2  -4   5  123.46    6.13
  -2  -4   5  111.17    5.86
  -2  -4   5  106.90    9.89
  -2  -4   5  117.79    6.14
  -2  -4   5  119.99    8.55
  -2  -4   5  115.27    6.29
  -2  -4   6  152.80    7.18
  -2  -4   6  140.91    6.91
  -2  -4   6  150.78    7.87
  -2  -4   6  143.61    6.95
  -2  -4   6  132.76   11.54
  -2  -4   6  140.82    7.10
  -2  -4   6  152.73    7.31
  -2  -4   6  147.38    7.22
  -2  -4   6  118.64    6.94
  -2  -4   6  136.98   10.01
  -2  -4   7   61.91    4.33
  -2  -4   7   70.31    3.97
  -2  -4   7   64.98    4.35
  -2  -4   7   77.68    5.22
  -2  -4   7   56.55    4.06
  -2  -4   7   68.50    4.30
  -2  -4   7   62.94    6.93
  -2  -4   8    9.13    1.72
  -2  -4   8   11.20    1.54
  -2  -4   8    9.78    1.64
  -2  -4   8    8.48    1.64
  -2  -4   8   10.34    1.67
  -2  -4   8    8.55    2.73
  -2  -4   9    2.64    1.18
  -2  -4   9    3.38    1.20
  -2  -4   9    1.12    1.05
  -2  -4   9    2.34    1.23
  -2  -4   9    3.55    1.18
  -2  -4   9    3.92    1.07
  -2  -4  10    3.18    1.29
  -2  -4  10    4.01    1.28
  -2  -4  10    4.16    1.35
  -2  -4  10    3.10    1.16
  -2  -4  10    3.41    1.12
  -2  -4  10    2.05    1.21
  -2  -4  11   60.13    4.06
  -2  -4  11   61.10    4.23
  -2  -4  11   64.95    4.52
  -2  -4  11   68.67    4.20
  -2  -4  11   64.24    4.03
  -2  -4  12    0.15    0.82
  -2  -4  12   -0.49    0.86
  -2  -4  12    0.30    0.83
  -2  -4  12    0.48    0.69
  -2  -3 -10   33.14    2.33
  -2  -3 -10   31.32    2.14
  -2  -3  -9   36.41    2.92
  -2  -3  -8   22.95    2.52
  -2  -3  -7   36.37    2.91
  -2  -3  -7   44.03    3.70
  -2  -3  -6   18.63    2.10
  -2  -3  -6   19.98    4.57
  -2  -3  -6   21.76    2.23
  -2  -3  -6   19.30    2.51
  -2  -3  -5  388.89   15.75
  -2  -3  -5  376.42   22.44
  -2  -3  -5  376.51   23.21
  -2  -3  -5  396.13   15.48
  -2  -3  -5  408.36   16.54
  -2  -3  -4   49.52    3.72
  -2  -3  -4   47.52    6.75
  -2  -3  -4   63.55    7.93
  -2  -3  -4   51.98    3.61
  -2  -3  -3  561.96   20.59
  -2  -3  -3  540.57   25.32
  -2  -3  -3  522.27   27.47
  -2  -3  -3  520.84   19.97
  -2  -3  -2  243.30   10.34
  -2  -3  -2  230.33   16.35
  -2  -3  -2  232.60   13.93
  -2  -3  -2  235.83   10.61
  -2  -3  -2  220.31   14.80
  -2  -3  -2  231.30   15.65
  -2  -3  -2  221.96    9.80
  -2  -3  -1   57.28    3.75
  -2  -3  -1   52.33    3.07
  -2  -3  -1   49.75    6.82
  -2  -3  -1   44.03    5.40
  -2  -3  -1   52.11    3.87
  -2  -3  -1   49.29    6.15
  -2  -3  -1   63.68    7.26
  -2  -3  -1   53.53    3.52
  -2  -3   0  340.72   12.85
  -2  -3   0  350.32   13.58
  -2  -3   0  340.11   13.97
  -2  -3   0  321.81   18.58
  -2  -3   0  328.45   18.53
  -2  -3   0  339.72   20.24
  -2  -3   0  335.71   17.42
  -2  -3   1   65.68    3.68
  -2  -3   1   72.41    4.15
  -2  -3   1   74.99    4.54
  -2  -3   1   70.57    7.25
  -2  -3   1   60.84    6.88
  -2  -3   1   81.67    8.49
  -2  -3   1   77.53    6.89
  -2  -3   2  853.51   29.08
  -2  -3   2  803.31   29.50
  -2  -3   2  843.76   28.64
  -2  -3   2  765.86   30.16
  -2  -3   2  811.64   37.11
  -2  -3   2  790.16   33.80
  -2  -3   3  348.97   14.02
  -2  -3   3  361.56   13.36
  -2  -3   3  331.93   15.39
  -2  -3   3  364.24   20.90
  -2  -3   3  333.98   17.90
  -2  -3   4  524.73   25.29
  -2  -3   4  548.69   20.73
  -2  -3   4  531.76   23.05
  -2  -3   4  575.06   20.33
  -2  -3   5  288.74   11.08
  -2  -3   5  268.61   10.85
  -2  -3   5  247.66   15.49
  -2  -3   5  262.70   11.30
  -2  -3   5  261.60   10.65
  -2  -3   5  257.39   10.99
  -2  -3   5  267.94   14.13
  -2  -3   6  144.18    6.91
  -2  -3   6  151.65    7.03
  -2  -3   6  143.24   11.36
  -2  -3   6  149.79    7.50
  -2  -3   6  128.13    9.70
  -2  -3   6  162.51    7.14
  -2  -3   6  149.85    6.85
  -2  -3   6  145.29    7.15
  -2  -3   7  152.25    7.31
  -2  -3   7  161.51    7.93
  -2  -3   7  158.78    7.83
  -2  -3   7  171.00    7.17
  -2  -3   7  162.72   11.60
  -2  -3   7  166.10    7.61
  -2  -3   7  161.68    7.65
  -2  -3   8   34.86    3.15
  -2  -3   8   35.86    3.14
  -2  -3   8   34.44    2.63
  -2  -3   8   37.21    2.91
  -2  -3   8   26.91    4.79
  -2  -3   8   35.08    2.92
  -2  -3   9  300.15   12.91
  -2  -3   9  302.82   12.88
  -2  -3   9  300.53   12.05
  -2  -3   9  305.48   12.27
  -2  -3   9  282.17   18.37
  -2  -3   9  288.51   12.38
  -2  -3   9  293.84   12.56
  -2  -3  10   40.77    3.68
  -2  -3  10   49.83    3.92
  -2  -3  10   49.85    3.45
  -2  -3  10   47.89    3.37
  -2  -3  10   54.43    7.43
  -2  -3  10   53.62    3.84
  -2  -3  11    5.17    1.40
  -2  -3  11    4.05    1.41
  -2  -3  11    3.44    1.06
  -2  -3  11    4.35    1.07
  -2  -3  11    6.30    1.30
  -2  -3  11    3.38    1.24
  -2  -3  12   -0.16    0.91
  -2  -3  12    1.37    0.99
  -2  -3  12    1.32    0.89
  -2  -3  13    6.48    1.33
  -2  -3  13    6.87    1.19
  -2  -2 -10   16.77    1.83
  -2  -2  -9   21.54    2.40
  -2  -2  -8    1.87    0.92
  -2  -2  -7   81.10    9.04
  -2  -2  -7   85.03    4.79
  -2  -2  -7   80.40    5.48
  -2  -2  -6  173.89    8.24
  -2  -2  -6  191.85   14.33
  -2  -2  -6  177.30   14.54
  -2  -2  -6  180.16    8.24
  -2  -2  -6  182.50    9.23
  -2  -2  -5   14.67    1.86
  -2  -2  -5   17.80    3.98
  -2  -2  -5   13.79    4.09
  -2  -2  -5   15.61    1.88
  -2  -2  -5   19.79    2.48
  -2  -2  -4   22.80    2.23
  -2  -2  -4   22.67    2.59
  -2  -2  -4   16.57    3.97
  -2  -2  -4   24.09    2.22
  -2  -2  -3    5.87    1.08
  -2  -2  -3    6.35    1.41
  -2  -2  -3    3.79    0.96
  -2  -2  -3    4.85    2.35
  -2  -2  -3    4.35    2.27
  -2  -2  -3    4.11    1.66
  -2  -2  -2   98.77    5.00
  -2  -2  -2   85.28    5.41
  -2  -2  -2  104.00    9.14
  -2  -2  -2   86.15    7.99
  -2  -2  -2   98.90    7.62
  -2  -2  -1  579.23   20.83
  -2  -2  -1  612.10   27.80
  -2  -2  -1  604.98   27.12
  -2  -2  -1  607.50   29.51
  -2  -2  -1  593.74   25.59
  -2  -2  -1  624.90   21.66
  -2  -2   0   10.53    1.12
  -2  -2   0   11.20    1.31
  -2  -2   0    8.84    2.56
  -2  -2   0   10.07    2.72
  -2  -2   0    7.80    2.10
  -2  -2   0   13.07    3.36
  -2  -2   1  637.24   29.68
  -2  -2   1  626.86   26.37
  -2  -2   1  629.02   21.73
  -2  -2   1  631.06   22.11
  -2  -2   1  633.19   22.79
  -2  -2   1  627.82   27.59
  -2  -2   1  545.10   26.65
  -2  -2   1  598.56   22.78
  -2  -2   2  171.41    7.04
  -2  -2   2  163.38    7.42
  -2  -2   2  160.28    6.70
  -2  -2   2  144.97    8.03
  -2  -2   2  169.25   12.24
  -2  -2   3  927.99   37.45
  -2  -2   3  977.29   40.31
  -2  -2   3  923.34   35.19
  -2  -2   3  957.87   32.71
  -2  -2   3  938.71   33.20
  -2  -2   4   20.89    2.06
  -2  -2   4   21.75    3.45
  -2  -2   5   48.55    3.14
  -2  -2   5   54.81    5.96
  -2  -2   5   50.09    3.49
  -2  -2   5   53.17    3.45
  -2  -2   6  878.72   30.12
  -2  -2   6  833.28   31.76
  -2  -2   6  827.51   30.11
  -2  -2   6  846.06   29.88
  -2  -2   6  858.23   30.51
  -2  -2   6  853.84   30.32
  -2  -2   6  866.17   35.38
  -2  -2   6  885.63   36.40
  -2  -2   7    4.87    1.20
  -2  -2   7    4.35    0.99
  -2  -2   7    5.13    1.07
  -2  -2   7    7.01    2.40
  -2  -2   7    4.39    1.04
  -2  -2   7    3.61    0.99
  -2  -2   8  189.66    8.11
  -2  -2   8  176.79    8.05
  -2  -2   8  181.07    8.70
  -2  -2   8  187.35    7.96
  -2  -2   8  182.88   13.35
  -2  -2   8  179.29    8.35
  -2  -2   9   72.12    4.14
  -2  -2   9   69.33    4.10
  -2  -2   9   65.77    4.67
  -2  -2   9   69.64    8.30
  -2  -2   9   72.72    4.48
  -2  -2  10  197.65    8.66
  -2  -2  10  193.24    8.76
  -2  -2  10  209.94    9.88
  -2  -2  10  204.33    9.72
  -2  -2  10  185.27   14.89
  -2  -2  10  204.74    9.17
  -2  -2  10  213.32    9.56
  -2  -2  11   79.45    4.97
  -2  -2  11   77.31    4.59
  -2  -2  11   85.83    5.34
  -2  -2  11   82.84    5.25
  -2  -2  12   47.77    3.46
  -2  -2  12   46.96    3.61
  -2  -2  12   51.39    3.72
  -2  -2  13  101.58    5.09
  -2  -2  13  111.19    5.46
  -2  -2  13  107.56    5.52
  -2  -1 -11   81.36    4.25
  -2  -1 -10  105.24    5.73
  -2  -1  -9    0.20    0.67
  -2  -1  -8   76.81    5.40
  -2  -1  -8   87.24    9.46
  -2  -1  -8   86.70    9.85
  -2  -1  -8   86.26    4.77
  -2  -1  -7    1.55    1.87
  -2  -1  -7    2.13    1.87
  -2  -1  -7    1.14    0.88
  -2  -1  -7    1.45    0.81
  -2  -1  -6  217.75   15.63
  -2  -1  -6  204.59   14.81
  -2  -1  -6  218.57    9.36
  -2  -1  -6  216.81   10.44
  -2  -1  -5   71.79    4.09
  -2  -1  -5   78.75    6.65
  -2  -1  -5   77.50    5.15
  -2  -1  -5   81.43    8.49
  -2  -1  -5   76.35    4.32
  -2  -1  -4   12.78    2.57
  -2  -1  -4   16.24    1.64
  -2  -1  -4   14.95    2.08
  -2  -1  -4   19.46    3.78
  -2  -1  -4   16.90    1.76
  -2  -1  -3  347.93   14.05
  -2  -1  -3  330.16   12.78
  -2  -1  -3  347.18   17.86
  -2  -1  -3  365.37   18.76
  -2  -1  -3  325.06   16.18
  -2  -1  -2   41.97    3.22
  -2  -1  -2   43.56    2.70
  -2  -1  -2   43.36    5.08
  -2  -1  -2   43.55    5.35
  -2  -1  -2   44.03    4.61
  -2  -1  -1  126.98    6.33
  -2  -1  -1  135.00    8.73
  -2  -1  -1  132.00    5.70
  -2  -1  -1  126.63    8.92
  -2  -1  -1  132.59    9.55
  -2  -1  -1  118.99   10.34
  -2  -1  -1  133.07    8.53
  -2  -1   0  117.46    5.66
  -2  -1   0  111.83    8.16
  -2  -1   0  101.37    8.24
  -2  -1   0  115.27    9.68
  -2  -1   0  100.83    7.50
  -2  -1   0  113.03    5.03
  -2  -1   1  933.83   34.62
  -2  -1   1  938.76   37.26
  -2  -1   1  883.90   35.04
  -2  -1   1  909.00   30.16
  -2  -1   1  836.40   31.51
  -2  -1   2   56.93    3.10
  -2  -1   2   52.20    4.22
  -2  -1   2   58.85    6.18
  -2  -1   3  515.73   18.78
  -2  -1   3  522.20   22.89
  -2  -1   3  582.75   25.15
  -2  -1   3  503.75   21.50
  -2  -1   3  537.58   19.36
  -2  -1   4   11.29    2.64
  -2  -1   4    9.11    2.08
  -2  -1   4   13.01    2.12
  -2  -1   4   10.74    1.43
  -2  -1   5   42.26    2.70
  -2  -1   5   44.10    3.20
  -2  -1   5   39.44    4.69
  -2  -1   5   41.30    4.87
  -2  -1   6    6.02    1.08
  -2  -1   6   21.55    1.95
  -2  -1   6   16.87    1.89
  -2  -1   6    6.51    1.20
  -2  -1   6    4.65    1.03
  -2  -1   6    5.81    1.62
  -2  -1   6    5.46    1.85
  -2  -1   7  252.30   10.54
  -2  -1   7  246.01   10.62
  -2  -1   7  257.65   15.74
  -2  -1   7  253.27   10.76
  -2  -1   7  247.66   10.27
  -2  -1   7  253.61   11.02
  -2  -1   8   -0.46    0.83
  -2  -1   8    0.66    1.24
  -2  -1   8    1.24    0.87
  -2  -1   8    0.59    0.59
  -2  -1   8    0.38    0.99
  -2  -1   8   -0.13    0.62
  -2  -1   9  162.15    7.73
  -2  -1   9  160.26    7.29
  -2  -1   9  154.67    8.03
  -2  -1  10  114.61    6.09
  -2  -1  10  114.97    6.37
  -2  -1  10  112.87    6.53
  -2  -1  11    1.37    0.96
  -2  -1  11    2.33    0.91
  -2  -1  11    2.30    1.15
  -2  -1  12   62.57    3.96
  -2  -1  12   59.15    4.16
  -2  -1  12   63.80    4.24
  -2  -1  13   -0.40    0.55
  -2  -1  13   -0.12    0.88
  -2  -1  13    0.38    0.77
  -2   0 -11   57.12    3.55
  -2   0 -10   10.88    1.69
  -2   0  -9  164.01    7.44
  -2   0  -9  157.35    8.20
  -2   0  -8    9.93    1.85
  -2   0  -8   11.42    1.65
  -2   0  -8   10.07    3.39
  -2   0  -8   11.75    3.78
  -2   0  -7  402.75   16.86
  -2   0  -7  426.47   15.99
  -2   0  -7  407.34   23.34
  -2   0  -7  383.32   22.25
  -2   0  -6  196.21   11.80
  -2   0  -6  192.14    9.33
  -2   0  -6  194.54    8.54
  -2   0  -6  182.57   13.71
  -2   0  -6  196.94   13.76
  -2   0  -5  120.36    6.54
  -2   0  -5  119.22    8.69
  -2   0  -5  120.98   10.13
  -2   0  -5  125.60    5.99
  -2   0  -4   89.13    7.87
  -2   0  -4   95.80    8.30
  -2   0  -4   94.79    5.31
  -2   0  -4   94.07    7.35
  -2   0  -4   91.13    6.79
  -2   0  -3  600.39   24.21
  -2   0  -3  565.16   20.48
  -2   0  -3  525.60   19.25
  -2   0  -3  591.77   24.90
  -2   0  -3  558.86   24.92
  -2   0  -3  554.99   23.27
  -2   0  -2 2030.88   70.30
  -2   0  -2 1995.62   70.72
  -2   0  -2 2085.92   70.26
  -2   0  -2 1860.64   65.86
  -2   0  -2 1986.25   69.35
  -2   0  -1  213.48   12.00
  -2   0  -1  203.90   11.34
  -2   0  -1  198.07   11.44
  -2   0  -1  218.88    8.74
  -2   0  -1  189.24   10.92
  -2   0   0  317.58   14.48
  -2   0   0  301.93   11.38
  -2   0   0  313.04   14.60
  -2   0   0  313.35   15.87
  -2   0   1  197.81    7.95
  -2   0   1  181.25    7.36
  -2   0   1  183.51   10.26
  -2   0   1  201.69   11.50
  -2   0   2   36.39    2.26
  -2   0   2   42.28    4.44
  -2   0   2   36.19    4.27
  -2   0   2   34.94    3.63
  -2   0   2   37.22    2.55
  -2   0   3  440.30   20.20
  -2   0   3  455.41   19.71
  -2   0   3  487.76   20.03
  -2   0   3  435.08   16.59
  -2   0   4  168.96    7.58
  -2   0   4  193.67   11.04
  -2   0   4  182.91   10.78
  -2   0   4  168.84   10.36
  -2   0   5  710.70   25.46
  -2   0   5  720.09   25.09
  -2   0   5  678.68   25.23
  -2   0   5  745.52   29.83
  -2   0   5  675.48   30.06
  -2   0   6   93.91    4.77
  -2   0   6   89.35    5.16
  -2   0   6   94.52    4.96
  -2   0   6   98.74    4.99
  -2   0   6   95.37    4.98
  -2   0   6   70.30    5.43
  -2   0   6   89.20    5.04
  -2   0   6   73.43    6.84
  -2   0   6   92.44    8.45
  -2   0   7   91.73    4.94
  -2   0   7   92.44    5.56
  -2   0   7   89.94    5.26
  -2   0   7   89.96    5.12
  -2   0   7  102.64    5.45
  -2   0   8   10.90    1.71
  -2   0   8   10.38    1.92
  -2   0   8   10.89    1.51
  -2   0   8    8.42    1.56
  -2   0   8   10.19    1.54
  -2   0   9    3.36    1.21
  -2   0   9    5.89    1.67
  -2   0   9    2.35    1.89
  -2   0   9    6.35    1.32
  -2   0  10   45.35    3.85
  -2   0  10   50.02    4.15
  -2   0  10   50.78    3.62
  -2   0  10   54.25    3.98
  -2   0  11   15.85    2.10
  -2   0  11   11.50    2.15
  -2   0  11   14.32    1.91
  -2   0  12    9.36    1.57
  -2   0  12   10.33    1.55
  -2   0  13    2.84    0.88
  -2   0  13    1.91    0.59
  -2   1 -12    2.08    0.86
  -2   1 -10   94.40    5.30
  -2   1 -10   92.67    4.93
  -2   1  -9    6.33    2.56
  -2   1  -9    5.85    2.23
  -2   1  -9    4.18    1.12
  -2   1  -9    3.43    1.07
  -2   1  -8   20.31    4.63
  -2   1  -8   22.45    4.52
  -2   1  -8   22.01    2.26
  -2   1  -8   19.81    2.37
  -2   1  -7    6.41    2.40
  -2   1  -7    6.79    2.54
  -2   1  -7    8.34    1.45
  -2   1  -7    7.07    1.44
  -2   1  -6  121.83    6.31
  -2   1  -6  116.29   10.11
  -2   1  -5  345.78   17.26
  -2   1  -5  327.42   13.15
  -2   1  -5  318.04   15.58
  -2   1  -5  343.25   18.24
  -2   1  -5  322.87   17.65
  -2   1  -4  169.81    7.60
  -2   1  -4  186.93   11.20
  -2   1  -4  157.43    9.71
  -2   1  -4  178.68   11.25
  -2   1  -4  170.72   11.12
  -2   1  -3 1170.51   42.44
  -2   1  -3 1048.20   37.34
  -2   1  -3 1102.69   41.88
  -2   1  -3 1120.31   41.98
  -2   1  -3 1077.49   40.91
  -2   1  -2  435.57   15.60
  -2   1  -2  443.62   20.82
  -2   1  -2  431.57   18.99
  -2   1  -2  430.88   18.96
  -2   1  -2  405.26   18.70
  -2   1  -2  392.79   16.46
  -2   1  -1  340.25   16.18
  -2   1  -1  379.84   16.49
  -2   1  -1  357.70   13.47
  -2   1  -1  367.83   16.93
  -2   1  -1  385.93   17.61
  -2   1   0   79.68    5.56
  -2   1   0   69.76    4.55
  -2   1   0   81.21    4.00
  -2   1   0   79.90    6.49
  -2   1   0   89.77    6.47
  -2   1   0   84.05    6.43
  -2   1   1  832.49   27.63
  -2   1   1  894.36   32.70
  -2   1   1  781.26   27.04
  -2   1   1  861.90   31.31
  -2   1   2 1295.45   44.82
  -2   1   2 1408.41   49.29
  -2   1   2 1329.78   48.48
  -2   1   2 1307.51   49.17
  -2   1   3   18.01    1.76
  -2   1   3   17.00    2.94
  -2   1   3   20.96    2.08
  -2   1   3   23.87    3.48
  -2   1   4  618.83   22.41
  -2   1   4  582.97   21.09
  -2   1   4  565.87   26.40
  -2   1   4  653.03   27.01
  -2   1   4  660.28   26.40
  -2   1   5    2.77    1.28
  -2   1   5    2.02    0.59
  -2   1   5    1.26    0.76
  -2   1   5    2.03    0.77
  -2   1   5    2.56    1.24
  -2   1   5    0.52    1.24
  -2   1   5    2.47    1.00
  -2   1   6  526.88   19.67
  -2   1   6  552.42   20.89
  -2   1   6  555.65   20.65
  -2   1   6  552.30   20.18
  -2   1   6  503.05   19.48
  -2   1   6  584.85   27.19
  -2   1   6  552.53   20.28
  -2   1   6  560.89   20.28
  -2   1   7  256.37   10.89
  -2   1   7  260.71   11.72
  -2   1   7  267.97   11.36
  -2   1   7  249.37   10.53
  -2   1   7  275.67   11.38
  -2   1   7  279.01   11.55
  -2   1   8   74.81    4.37
  -2   1   8   72.42    5.12
  -2   1   8   80.35    5.01
  -2   1   8   70.56    4.18
  -2   1   8   79.49    4.84
  -2   1   8   77.83    4.97
  -2   1   9  227.95   11.02
  -2   1   9  219.25   10.54
  -2   1   9  208.74   16.40
  -2   1   9  243.02   10.38
  -2   1  10    3.17    1.08
  -2   1  10    4.02    1.24
  -2   1  10    1.57    1.37
  -2   1  11   51.00    3.75
  -2   1  11   47.32    3.93
  -2   1  11   55.21    3.98
  -2   1  12    0.76    0.68
  -2   1  12    2.37    0.91
  -2   1  12    3.62    1.14
  -2   1  13   35.69    2.17
  -2   2 -11   -0.11    0.58
  -2   2 -10   98.44    5.30
  -2   2  -9   11.67    3.26
  -2   2  -9    8.79    2.86
  -2   2  -9    9.20    1.53
  -2   2  -9    9.56    1.44
  -2   2  -8   12.49    1.66
  -2   2  -8    7.34    2.55
  -2   2  -8   13.86    3.67
  -2   2  -8   17.41    4.15
  -2   2  -7  352.33   18.40
  -2   2  -7  312.17   12.80
  -2   2  -7  337.42   19.50
  -2   2  -6    2.58    0.77
  -2   2  -6    2.49    1.93
  -2   2  -6    2.27    1.62
  -2   2  -6    2.22    1.79
  -2   2  -5   25.48    2.10
  -2   2  -5   24.83    4.02
  -2   2  -5   24.73    3.49
  -2   2  -5   28.51    4.30
  -2   2  -5   26.21    4.10
  -2   2  -4   98.01    4.75
  -2   2  -4  109.08    8.37
  -2   2  -4  105.64    8.05
  -2   2  -4   95.79    7.66
  -2   2  -4   84.58    6.86
  -2   2  -3  309.08   12.05
  -2   2  -3  353.41   17.15
  -2   2  -3  339.37   15.96
  -2   2  -3  334.85   13.56
  -2   2  -3  320.60   15.92
  -2   2  -3  311.58   15.41
  -2   2  -2  130.46    5.77
  -2   2  -2  133.34    7.97
  -2   2  -2  148.89    8.68
  -2   2  -2  139.26    7.04
  -2   2  -1  111.73    4.88
  -2   2  -1  112.88    6.92
  -2   2  -1  114.74    6.99
  -2   2  -1  111.48    6.05
  -2   2   0  123.68    5.39
  -2   2   0  130.40    8.69
  -2   2   0  128.75    7.24
  -2   2   0  123.11    6.76
  -2   2   0  113.76    6.40
  -2   2   1  139.02    8.95
  -2   2   1  132.35    5.73
  -2   2   1  121.69    6.65
  -2   2   2  131.54    5.87
  -2   2   2  121.56    8.98
  -2   2   2  128.18    6.72
  -2   2   2  132.15    9.02
  -2   2   2  136.71    9.16
  -2   2   3  255.23   10.32
  -2   2   3  274.56   10.66
  -2   2   3  263.61   14.79
  -2   2   3  234.55   14.44
  -2   2   3  269.50   11.49
  -2   2   3  288.15   14.73
  -2   2   4    5.37    1.30
  -2   2   4    2.57    0.73
  -2   2   4    5.57    2.08
  -2   2   4    4.15    1.67
  -2   2   5  523.07   23.72
  -2   2   5  523.84   19.49
  -2   2   5  547.34   19.78
  -2   2   5  508.59   20.51
  -2   2   5  492.35   25.63
  -2   2   5  525.45   26.15
  -2   2   5  522.28   19.94
  -2   2   5  539.76   19.48
  -2   2   6  509.85   19.16
  -2   2   6  532.55   19.52
  -2   2   6  524.69   19.47
  -2   2   6  497.23   20.15
  -2   2   6  500.02   19.08
  -2   2   6  510.30   19.22
  -2   2   6  472.53   19.56
  -2   2   7    5.07    1.21
  -2   2   7    7.19    1.62
  -2   2   7    5.02    1.31
  -2   2   7   10.15    3.47
  -2   2   7    5.36    1.20
  -2   2   7    6.72    1.46
  -2   2   7    7.14    1.45
  -2   2   8   74.38    4.47
  -2   2   8   68.24    5.15
  -2   2   8   81.92    5.14
  -2   2   8   67.61    4.45
  -2   2   8   75.12    4.88
  -2   2   8   89.51    5.37
  -2   2   9   37.34    3.65
  -2   2   9   36.59    3.39
  -2   2   9   38.86    3.00
  -2   2   9   42.36    3.42
  -2   2  10  175.18    8.63
  -2   2  10  188.53    8.27
  -2   2  11   14.84    1.87
  -2   2  11   12.44    2.00
  -2   2  11   13.41    1.88
  -2   2  12   89.94    4.60
  -2   2  12   89.21    4.37
  -2   2  12   78.14    4.20
  -2   3 -13   33.56    2.83
  -2   3 -11   81.66    4.56
  -2   3 -10   80.76    4.80
  -2   3  -9  113.39    9.89
  -2   3  -9  118.55   11.06
  -2   3  -9  109.37   10.96
  -2   3  -8  128.38   10.43
  -2   3  -8   90.75    9.82
  -2   3  -7  147.99   11.46
  -2   3  -7  163.16   12.46
  -2   3  -7  169.52   12.79
  -2   3  -6  573.13   26.39
  -2   3  -6  561.11   26.54
  -2   3  -6  542.11   26.07
  -2   3  -6  515.46   23.55
  -2   3  -5    0.47    0.71
  -2   3  -5    0.99    1.40
  -2   3  -5    0.76    1.01
  -2   3  -4  403.39   16.05
  -2   3  -4  373.35   19.01
  -2   3  -4  360.67   18.29
  -2   3  -3   54.50    2.93
  -2   3  -3   62.73    5.67
  -2   3  -3   54.23    4.91
  -2   3  -3   56.77    4.07
  -2   3  -2   95.69    7.78
  -2   3  -2   83.99    6.26
  -2   3  -2   72.93    5.18
  -2   3  -2   84.47    5.20
  -2   3  -1  239.19   13.86
  -2   3  -1  246.34   11.71
  -2   3  -1  241.56   10.80
  -2   3   0  291.05   11.16
  -2   3   0  325.44   15.68
  -2   3   0  297.23   12.41
  -2   3   0  310.74   12.81
  -2   3   1 1006.24   39.03
  -2   3   1  976.25   33.63
  -2   3   1 1007.31   35.34
  -2   3   1 1065.24   39.64
  -2   3   1  939.11   34.37
  -2   3   2   83.10    6.93
  -2   3   2   82.24    7.52
  -2   3   2   82.17    5.15
  -2   3   2   82.59    4.64
  -2   3   3    5.66    1.11
  -2   3   3    4.01    2.05
  -2   3   3    4.58    1.78
  -2   3   4  106.15    8.52
  -2   3   4  104.66    5.62
  -2   3   4  106.91    5.45
  -2   3   4  101.83    6.12
  -2   3   4  107.05    9.98
  -2   3   4   96.08    5.39
  -2   3   5    8.11    1.56
  -2   3   5    6.27    1.52
  -2   3   5    6.80    1.22
  -2   3   5   10.12    1.64
  -2   3   5    7.03    1.36
  -2   3   6   57.56    4.15
  -2   3   6   56.82    7.82
  -2   3   6   54.00    4.18
  -2   3   6   58.35    4.00
  -2   3   6   57.38    4.11
  -2   3   7   11.73    1.97
  -2   3   7   10.09    1.80
  -2   3   7   11.28    3.75
  -2   3   7    9.68    1.71
  -2   3   7   10.89    1.81
  -2   3   7    9.71    1.91
  -2   3   7   10.64    1.86
  -2   3   8  117.37    6.50
  -2   3   8  111.38    6.56
  -2   3   8  109.69    6.22
  -2   3   8  103.59    6.22
  -2   3   8  102.16    5.71
  -2   3   8  116.40    6.88
  -2   3   9   52.84    3.93
  -2   3   9   60.68    4.42
  -2   3   9   55.02    3.82
  -2   3   9   46.52    4.12
  -2   3   9   53.30    4.10
  -2   3  10    2.03    0.91
  -2   3  10    3.22    1.19
  -2   3  10    2.85    1.04
  -2   3  11   14.85    1.76
  -2   3  11   13.50    1.79
  -2   3  11   14.18    1.66
  -2   4 -12   16.79    1.72
  -2   4 -11    0.28    0.74
  -2   4  -9   55.22    7.51
  -2   4  -9   67.34    7.70
  -2   4  -8   27.37    5.19
  -2   4  -8   39.09    5.93
  -2   4  -7  281.82   17.63
  -2   4  -7  272.52   17.22
  -2   4  -6    1.11    1.46
  -2   4  -6    0.59    1.09
  -2   4  -5  205.06   13.00
  -2   4  -5  181.15   11.90
  -2   4  -5  189.16   13.32
  -2   4  -4   85.86    7.05
  -2   4  -4   92.00    7.84
  -2   4  -3  760.60   31.23
  -2   4  -3  706.45   29.31
  -2   4  -2  758.71   33.50
  -2   4  -2  778.00   32.36
  -2   4  -2  772.93   31.09
  -2   4  -2  847.36   33.21
  -2   4  -1  148.63   10.16
  -2   4  -1  137.43   10.18
  -2   4  -1  140.82    7.16
  -2   4  -1  132.95    7.89
  -2   4  -1  134.72    9.52
  -2   4   0  478.42   18.40
  -2   4   0  456.00   16.75
  -2   4   1   53.74    6.06
  -2   4   1   45.35    3.47
  -2   4   1   40.15    4.79
  -2   4   2  527.08   20.30
  -2   4   2  504.82   25.53
  -2   4   2  518.38   19.96
  -2   4   3  131.92    7.19
  -2   4   3  139.53    6.52
  -2   4   3  125.14   11.17
  -2   4   3  125.21    6.87
  -2   4   4  348.55   14.71
  -2   4   4  357.76   15.03
  -2   4   4  349.08   19.00
  -2   4   4  372.17   14.40
  -2   4   4  387.80   22.02
  -2   4   4  328.55   14.01
  -2   4   5  372.72   15.17
  -2   4   5  391.59   15.68
  -2   4   5  333.92   14.83
  -2   4   5  382.70   15.88
  -2   4   6   29.34    3.16
  -2   4   6   36.37    3.34
  -2   4   6   29.01    5.76
  -2   4   6   27.83    2.92
  -2   4   6   30.06    3.10
  -2   4   6   28.72    2.78
  -2   4   6   28.80    3.06
  -2   4   7  138.27    7.38
  -2   4   7  121.76    7.10
  -2   4   7  106.32   11.62
  -2   4   7  128.02    6.97
  -2   4   7  119.78    7.06
  -2   4   7  116.61    6.64
  -2   4   8    7.27    1.66
  -2   4   8    6.07    1.50
  -2   4   8    8.05    1.59
  -2   4   8    8.20    1.60
  -2   4   8   10.71    1.97
  -2   4   8    8.71    1.45
  -2   4   9   30.98    2.92
  -2   4   9   42.62    3.52
  -2   4   9   39.34    3.10
  -2   4   9   38.89    3.14
  -2   4   9   40.97    3.40
  -2   4  10   72.34    4.15
  -2   4  10   62.20    3.74
  -2   4  11    4.88    0.84
  -2   4  11    3.51    0.76
  -2   5 -13    0.14    0.54
  -2   5 -12    7.33    1.57
  -2   5 -12    5.87    1.16
  -2   5 -11   32.56    3.44
  -2   5  -9   11.86    3.32
  -2   5  -8   -0.74    1.79
  -2   5  -8   -0.73    1.27
  -2   5  -8    3.67    1.77
  -2   5  -7   98.87   10.29
  -2   5  -7  109.51   10.04
  -2   5  -7  118.82   10.75
  -2   5  -7  106.64    6.63
  -2   5  -6  282.93   18.11
  -2   5  -6  254.62   16.15
  -2   5  -6  286.88   17.54
  -2   5  -6  266.88   12.40
  -2   5  -6  287.32   11.19
  -2   5  -5   77.69    5.20
  -2   5  -5   74.42    6.95
  -2   5  -5   81.42    7.98
  -2   5  -5   71.16    6.92
  -2   5  -5   79.00    4.40
  -2   5  -5   85.29    7.61
  -2   5  -4  102.66    9.93
  -2   5  -4  123.46    9.52
  -2   5  -4  102.66    7.85
  -2   5  -4  123.01    9.00
  -2   5  -3   73.28    4.82
  -2   5  -3   63.24    4.58
  -2   5  -3   69.98    6.59
  -2   5  -3   62.17    6.27
  -2   5  -2   83.61    8.18
  -2   5  -2   87.81    6.91
  -2   5  -2   84.46    7.51
  -2   5  -1  230.86   14.23
  -2   5  -1  250.33   10.82
  -2   5   0    3.30    1.14
  -2   5   0    0.95    0.87
  -2   5   1  884.78   31.61
  -2   5   1  834.04   37.70
  -2   5   1  850.21   31.52
  -2   5   1  831.54   37.15
  -2   5   1  867.38   30.79
  -2   5   2   76.32    5.09
  -2   5   2   77.13    5.07
  -2   5   2   73.26    8.54
  -2   5   3   84.56    5.68
  -2   5   3   97.05   10.23
  -2   5   3  100.32    5.92
  -2   5   4  197.37    9.36
  -2   5   4  204.16    9.95
  -2   5   4  207.70    9.78
  -2   5   5  149.79    8.09
  -2   5   5  146.99    7.50
  -2   5   5  157.93    8.12
  -2   5   6  124.03    7.12
  -2   5   6  122.74    6.76
  -2   5   6  108.13    6.16
  -2   5   6  120.33    6.61
  -2   5   6  113.01    6.86
  -2   5   7   64.73    4.73
  -2   5   7   54.43    4.44
  -2   5   7   66.68    4.55
  -2   5   7   70.54    4.57
  -2   5   7   55.87    4.08
  -2   5   8  204.68   10.63
  -2   5   8  199.48   10.37
  -2   5   8  257.45   10.77
  -2   5   8  287.03   10.92
  -2   5   8  268.08   10.60
  -2   5   9   36.22    2.88
  -2   5   9   41.23    3.26
  -2   5   9   53.28    3.23
  -2   5   9   46.02    2.94
  -2   5   9   46.85    3.10
  -2   5  10   12.01    1.22
  -2   6 -13    7.08    1.27
  -2   6 -13    6.77    0.99
  -2   6 -12    1.61    0.84
  -2   6 -11   80.10    5.43
  -2   6 -10  134.49    7.75
  -2   6  -9    1.19    1.15
  -2   6  -9    2.45    1.52
  -2   6  -9    0.79    0.85
  -2   6  -8  103.68   11.11
  -2   6  -8  105.73   10.91
  -2   6  -8  108.09   10.31
  -2   6  -8  115.54    6.94
  -2   6  -7   79.35    5.42
  -2   6  -7   82.61    7.50
  -2   6  -7   67.34    8.70
  -2   6  -7   56.61    7.26
  -2   6  -7   70.84    8.49
  -2   6  -7   86.41    4.64
  -2   6  -6   33.30    3.44
  -2   6  -6   37.39    4.94
  -2   6  -6   32.20    5.50
  -2   6  -6   32.89    4.88
  -2   6  -6   47.57    6.03
  -2   6  -6   40.83    3.09
  -2   6  -5   18.77    4.62
  -2   6  -5   24.35    3.80
  -2   6  -5   16.78    3.78
  -2   6  -5   20.72    3.70
  -2   6  -4  138.94    7.70
  -2   6  -4  141.38    7.55
  -2   6  -4  162.22   11.01
  -2   6  -4  148.39   11.52
  -2   6  -3  473.81   23.57
  -2   6  -3  495.06   25.07
  -2   6  -2   55.63    4.07
  -2   6  -2   31.70    5.28
  -2   6  -2   41.51    3.13
  -2   6  -2   44.31    3.68
  -2   6  -2   59.48    6.64
  -2   6  -2   36.92    5.80
  -2   6  -1   31.22    2.99
  -2   6  -1   19.87    3.89
  -2   6  -1   28.78    4.79
  -2   6  -1   30.09    2.93
  -2   6  -1   23.42    4.75
  -2   6   0   29.91    5.25
  -2   6   0   27.44    2.94
  -2   6   1   26.78    2.78
  -2   6   1   20.49    4.51
  -2   6   1   28.58    2.96
  -2   6   2  182.28    8.82
  -2   6   2  170.14    8.89
  -2   6   2  159.78   14.10
  -2   6   3   16.96    2.23
  -2   6   3   13.85    2.19
  -2   6   4   22.06    2.71
  -2   6   4   32.73    3.16
  -2   6   4   27.82    3.10
  -2   6   5  163.84    8.34
  -2   6   5  156.46   13.73
  -2   6   5  183.59    8.98
  -2   6   6    0.87    0.94
  -2   6   6   -0.37    0.69
  -2   6   6    1.35    0.80
  -2   6   6    0.87    0.85
  -2   6   7   82.37    5.09
  -2   6   7   85.07    4.50
  -2   6   7   75.85    4.68
  -2   6   7   69.52    4.88
  -2   6   7   64.26    4.70
  -2   6   8    1.08    0.65
  -2   6   8    1.27    0.71
  -2   6   8    0.61    0.77
  -2   6   8    2.19    0.81
  -2   6   9   32.25    1.93
  -2   6   9   43.64    2.66
  -2   7 -13    0.91    0.63
  -2   7 -13    1.48    0.60
  -2   7 -11   99.86    5.93
  -2   7 -10   14.10    2.15
  -2   7  -9   70.68    8.91
  -2   7  -9   72.14    5.14
  -2   7  -9   70.28    8.90
  -2   7  -8   -0.88    1.65
  -2   7  -8   -0.23    1.07
  -2   7  -8    2.24    1.39
  -2   7  -8    3.36    1.81
  -2   7  -7  203.73   16.36
  -2   7  -7  197.05   15.00
  -2   7  -6  144.19   13.78
  -2   7  -6  191.84   12.77
  -2   7  -6  147.79   13.16
  -2   7  -6  184.75    9.10
  -2   7  -5  131.81    7.31
  -2   7  -5  128.95   10.38
  -2   7  -5  144.22   11.99
  -2   7  -4   87.56    9.69
  -2   7  -4  110.34   10.60
  -2   7  -4   91.31    8.69
  -2   7  -3    2.23    1.18
  -2   7  -3    2.68    1.14
  -2   7  -3    3.14    1.07
  -2   7  -3    4.57    2.95
  -2   7  -3    3.14    1.65
  -2   7  -2  299.17   17.93
  -2   7  -2  346.79   14.17
  -2   7  -2  315.79   19.24
  -2   7  -2  324.39   13.75
  -2   7  -2  303.54   13.00
  -2   7  -1   68.88    4.91
  -2   7  -1   54.05    7.84
  -2   7  -1   69.70    8.24
  -2   7  -1   71.48    4.43
  -2   7   0  310.82   13.15
  -2   7   0  260.08   18.61
  -2   7   0  270.98   12.05
  -2   7   0  303.53   12.74
  -2   7   1  226.86   10.29
  -2   7   1  272.96   11.54
  -2   7   2    1.81    1.09
  -2   7   2    1.00    0.74
  -2   7   2    0.18    0.67
  -2   7   3   92.87    5.78
  -2   7   3   86.92    5.34
  -2   7   4   11.35    1.96
  -2   7   4   11.89    1.84
  -2   7   4    6.32    1.68
  -2   7   5  172.64    8.47
  -2   7   5  170.47    8.10
  -2   7   5  146.23    8.10
  -2   7   6   44.76    3.47
  -2   7   6   43.82    3.30
  -2   7   6   41.72    3.47
  -2   7   7   11.01    1.45
  -2   7   7   11.05    1.59
  -2   7   7    7.95    1.39
  -2   7   8   17.34    1.52
  -2   7   8   20.53    1.75
  -2   8 -13    5.14    0.91
  -2   8 -12    5.50    1.24
  -2   8 -12    7.66    1.20
  -2   8 -11    9.34    1.56
  -2   8 -10   33.76    3.14
  -2   8  -9    0.61    0.79
  -2   8  -8   41.59    6.55
  -2   8  -8   37.88    6.31
  -2   8  -8   31.81    3.28
  -2   8  -7   21.59    5.55
  -2   8  -7   25.72    2.86
  -2   8  -7   27.00    5.20
  -2   8  -7   23.03    2.57
  -2   8  -7   28.51    5.15
  -2   8  -6   41.99    6.77
  -2   8  -6   30.35    3.11
  -2   8  -6   33.61    5.68
  -2   8  -6   36.50    5.18
  -2   8  -5   20.24    2.45
  -2   8  -5   18.00    4.70
  -2   8  -5   20.72    4.17
  -2   8  -5   17.62    4.33
  -2   8  -4    2.51    1.06
  -2   8  -4    2.25    0.99
  -2   8  -4    1.71    1.84
  -2   8  -4    5.45    2.08
  -2   8  -3  863.98   30.64
  -2   8  -3  863.14   31.06
  -2   8  -3  795.66   38.35
  -2   8  -3  848.91   37.32
  -2   8  -2   49.60    3.62
  -2   8  -2   36.43    6.18
  -2   8  -2   34.37    6.52
  -2   8  -1   29.70    2.75
  -2   8  -1   33.29    2.98
  -2   8  -1   29.78    5.63
  -2   8  -1   19.38    5.02
  -2   8   0   70.44    8.88
  -2   8   0   69.02    4.53
  -2   8   1  161.90    8.31
  -2   8   1  166.73   13.85
  -2   8   1  172.29    8.32
  -2   8   1  163.04    8.00
  -2   8   2  106.35    5.98
  -2   8   2  121.30    6.35
  -2   8   2  107.49    5.99
  -2   8   3   -0.36    0.87
  -2   8   3    1.02    0.66
  -2   8   3    0.47    0.61
  -2   8   4  243.16   10.71
  -2   8   5   36.38    2.96
  -2   8   6   37.04    2.74
  -2   8   6   38.76    2.77
  -2   8   7   24.94    1.84
  -2   8   7   25.47    1.83
  -2   9 -13    1.15    0.53
  -2   9 -10    3.52    1.05
  -2   9  -7   50.52    3.84
  -2   9  -6   74.91    8.89
  -2   9  -6   78.90    5.09
  -2   9  -6   84.83    5.23
  -2   9  -6   92.13    9.49
  -2   9  -5  101.91   10.92
  -2   9  -5   94.16    5.63
  -2   9  -5   96.45    5.69
  -2   9  -5   90.70    9.22
  -2   9  -4   17.27    2.20
  -2   9  -4   19.81    2.27
  -2   9  -4   20.21    4.16
  -2   9  -3    0.89    0.72
  -2   9  -3    1.05    0.75
  -2   9  -2   42.23    6.89
  -2   9  -2   30.89    2.82
  -2   9  -2   30.88    2.87
  -2   9  -2   36.82    6.10
  -2   9  -1    6.11    1.25
  -2   9   0   69.15    4.36
  -2   9   0   66.85    4.31
  -2   9   1  121.10    6.33
  -2   9   1  128.76    6.44
  -2   9   2    2.13    0.82
  -2   9   2    1.00    0.80
  -2   9   3   69.57    4.16
  -2   9   4   -0.23    0.62
  -2   9   4    0.37    0.54
  -2   9   5   62.21    3.45
  -2   9   5   69.63    3.63
  -2   9   6   30.68    1.92
  -2   9   6   29.56    1.82
  -2  10 -10   21.17    1.99
  -2  10  -9   25.11    2.35
  -2  10  -9   25.48    2.20
  -2  10  -8   64.35    4.44
  -2  10  -8   61.98    4.10
  -2  10  -8   58.86    3.80
  -2  10  -7    4.15    1.19
  -2  10  -7    5.05    1.40
  -2  10  -7    3.06    0.86
  -2  10  -7    3.00    1.07
  -2  10  -6   84.42    4.93
  -2  10  -6   73.62    4.51
  -2  10  -5    0.20    0.75
  -2  10  -5    1.94    0.87
  -2  10  -4   71.27    4.81
  -2  10  -4   62.95    4.04
  -2  10  -4   67.80    4.33
  -2  10  -3   55.59    4.19
  -2  10  -3   50.68    3.49
  -2  10  -3   54.67    3.79
  -2  10  -2   10.90    1.80
  -2  10  -2   12.13    1.64
  -2  10  -2    9.67    1.39
  -2  10  -1   41.80    3.49
  -2  10  -1   41.39    2.96
  -2  10  -1   44.52    3.21
  -2  10   0   -0.17    0.64
  -2  10   0    0.24    0.44
  -2  10   1  112.16    5.98
  -2  10   1  108.72    5.21
  -2  10   2   26.46    2.38
  -2  10   2   23.47    1.92
  -2  10   3   14.94    1.39
  -2  10   3   13.94    1.53
  -2  10   3   14.32    1.47
  -2  10   4   16.30    1.30
  -2  10   4   19.41    1.53
  -2  10   4   18.86    1.58
  -2  11 -10   12.88    1.50
  -2  11  -9    3.77    0.96
  -2  11  -9    3.79    0.83
  -2  11  -8    9.27    1.46
  -2  11  -8    6.60    1.10
  -2  11  -7   94.60    5.43
  -2  11  -7   91.09    5.01
  -2  11  -6    5.93    1.22
  -2  11  -6    7.06    1.18
  -2  11  -5   21.27    2.29
  -2  11  -5   23.20    2.17
  -2  11  -4   12.74    1.74
  -2  11  -4   12.54    1.56
  -2  11  -3   50.38    3.62
  -2  11  -3   52.02    3.34
  -2  11  -2  106.90    5.43
  -2  11  -2   90.25    5.24
  -2  11  -1    9.57    1.45
  -2  11   0  128.38    6.14
  -2  11   1   10.58    1.18
  -2  11   1    8.86    1.19
  -2  11   2   18.43    1.45
  -2  11   2   16.55    1.47
  -2  12  -9    7.88    1.01
  -2  12  -8    0.98    0.48
  -2  12  -7    3.65    0.81
  -2  12  -6   15.09    1.60
  -2  12  -5    0.11    0.43
  -2  12  -5    1.08    0.79
  -2  12  -4   34.83    2.54
  -2  12  -3   40.43    2.71
  -2  12  -2    7.92    1.08
  -2  12  -2    9.40    1.15
  -2  12  -1   15.94    1.48
  -1 -13   3    0.93    0.35
  -1 -13   4   15.43    1.22
  -1 -12   0    4.34    0.60
  -1 -12   1   10.54    1.02
  -1 -12   1   11.17    1.08
  -1 -12   2    0.64    0.39
  -1 -12   3   12.14    1.23
  -1 -12   4   52.00    3.01
  -1 -12   4   45.00    2.53
  -1 -12   4   52.34    2.96
  -1 -12   5    2.99    0.75
  -1 -12   5    3.90    0.72
  -1 -12   5    1.84    0.63
  -1 -12   6    5.70    0.87
  -1 -12   6    5.53    0.89
  -1 -12   7    0.82    0.40
  -1 -12   7   -0.07    0.51
  -1 -12   7    1.22    0.51
  -1 -12   8   60.86    3.08
  -1 -12   9   26.43    1.76
  -1 -12  10    0.40    0.38
  -1 -11  -2    0.26    0.40
  -1 -11  -1   73.91    3.48
  -1 -11  -1   65.06    3.32
  -1 -11  -1   74.41    3.64
  -1 -11   0   42.29    2.66
  -1 -11   0   39.99    2.43
  -1 -11   0   43.98    2.72
  -1 -11   1    1.13    0.55
  -1 -11   1    1.16    0.50
  -1 -11   1    1.47    0.48
  -1 -11   1    1.07    0.61
  -1 -11   2   14.61    1.59
  -1 -11   2   13.60    1.63
  -1 -11   2   13.18    1.46
  -1 -11   3    2.44    0.74
  -1 -11   3    1.66    0.72
  -1 -11   4  106.98    5.48
  -1 -11   4  107.03    5.56
  -1 -11   4  109.22    5.45
  -1 -11   5    3.34    0.93
  -1 -11   5    3.53    0.91
  -1 -11   5    2.56    0.87
  -1 -11   5    3.95    0.99
  -1 -11   6   15.28    1.72
  -1 -11   6   13.60    1.67
  -1 -11   7   28.59    2.38
  -1 -11   7   28.27    2.39
  -1 -11   7   30.42    2.48
  -1 -11   8    4.11    0.89
  -1 -11   9   13.50    1.58
  -1 -11  10    3.10    0.83
  -1 -11  11   34.60    2.27
  -1 -11  12   18.02    1.38
  -1 -10  -4   82.06    3.73
  -1 -10  -3    7.64    0.85
  -1 -10  -3    7.69    0.99
  -1 -10  -3    9.03    1.18
  -1 -10  -2   56.31    3.23
  -1 -10  -2   61.26    3.44
  -1 -10  -1   20.81    1.96
  -1 -10  -1   22.70    2.01
  -1 -10  -1   23.65    2.12
  -1 -10   0   36.41    2.81
  -1 -10   0   34.21    2.45
  -1 -10   0   33.72    2.61
  -1 -10   0   36.43    2.83
  -1 -10   1  144.72    6.75
  -1 -10   1  133.22    6.50
  -1 -10   1  127.22    6.20
  -1 -10   1  122.69    6.18
  -1 -10   2   42.01    3.25
  -1 -10   2   41.20    3.08
  -1 -10   2   41.09    3.07
  -1 -10   2   41.85    2.96
  -1 -10   2   40.28    2.92
  -1 -10   3  130.50    6.45
  -1 -10   3  133.61    6.55
  -1 -10   3  139.77    6.72
  -1 -10   3  128.03    6.18
  -1 -10   4   26.24    2.64
  -1 -10   4   29.54    2.48
  -1 -10   4   31.67    2.75
  -1 -10   4   27.77    2.60
  -1 -10   4   28.99    2.24
  -1 -10   5  106.28    5.94
  -1 -10   5  107.86    5.94
  -1 -10   6    1.01    0.77
  -1 -10   6    2.78    0.90
  -1 -10   6    2.95    1.06
  -1 -10   6    1.76    0.89
  -1 -10   7   21.93    2.31
  -1 -10   7   26.25    2.50
  -1 -10   7   26.97    2.60
  -1 -10   7   23.78    2.72
  -1 -10   7   27.58    2.72
  -1 -10   8  259.61   10.75
  -1 -10   8  267.98   10.72
  -1 -10   9    0.13    0.51
  -1 -10   9   -0.15    0.78
  -1 -10  10   41.97    3.13
  -1 -10  11    0.37    0.78
  -1 -10  12   25.90    2.11
  -1 -10  13    0.42    0.52
  -1 -10  13    0.44    0.54
  -1  -9  -6   16.51    1.17
  -1  -9  -5   10.34    1.11
  -1  -9  -5   10.45    1.19
  -1  -9  -4   12.78    1.50
  -1  -9  -3   44.07    3.15
  -1  -9  -3   49.68    3.34
  -1  -9  -3   50.44    3.05
  -1  -9  -2   -0.14    0.54
  -1  -9  -1   25.75    2.42
  -1  -9  -1   21.82    1.96
  -1  -9   0   46.73    3.36
  -1  -9   0   42.33    3.26
  -1  -9   0   41.65    5.46
  -1  -9   0   41.84    3.04
  -1  -9   1    0.81    0.65
  -1  -9   1    1.06    0.59
  -1  -9   1    0.62    0.71
  -1  -9   1    1.32    0.72
  -1  -9   1    1.27    0.96
  -1  -9   2   46.46    3.56
  -1  -9   2   43.71    3.32
  -1  -9   2   44.63    3.28
  -1  -9   2   45.77    3.35
  -1  -9   2   38.85    5.94
  -1  -9   2   42.05    3.18
  -1  -9   3    7.43    1.33
  -1  -9   3    5.85    1.19
  -1  -9   3    5.08    1.08
  -1  -9   3    6.06    1.29
  -1  -9   3    6.99    2.61
  -1  -9   4  222.28    9.54
  -1  -9   4  227.57   10.32
  -1  -9   4  224.25    9.68
  -1  -9   4  237.41   10.24
  -1  -9   4  229.03   16.03
  -1  -9   4  218.37   10.05
  -1  -9   5  191.73    8.95
  -1  -9   5  177.54    7.92
  -1  -9   5  189.80    8.91
  -1  -9   6   30.18    2.95
  -1  -9   6   27.75    2.79
  -1  -9   6   30.22    2.82
  -1  -9   6   28.62    5.21
  -1  -9   7  196.85    9.41
  -1  -9   7  207.90   15.29
  -1  -9   7  207.67    9.55
  -1  -9   7  201.19    9.33
  -1  -9   8    7.69    1.45
  -1  -9   8    7.14    1.38
  -1  -9   8    9.23    1.78
  -1  -9   8    8.98    1.94
  -1  -9   9   35.88    2.89
  -1  -9   9   35.44    3.38
  -1  -9  10    0.96    0.97
  -1  -9  10    0.36    0.99
  -1  -9  10   -0.19    1.00
  -1  -9  11  121.60    6.28
  -1  -9  11  107.50    6.19
  -1  -9  12   60.16    3.73
  -1  -9  12   44.21    3.42
  -1  -9  13    1.59    0.84
  -1  -9  13    1.40    0.81
  -1  -9  14   26.72    1.81
  -1  -9  14   27.01    1.84
  -1  -8  -7   59.16    2.83
  -1  -8  -6    3.33    0.72
  -1  -8  -6    3.28    0.76
  -1  -8  -5  109.39    5.37
  -1  -8  -5  102.24    4.96
  -1  -8  -4   37.85    2.71
  -1  -8  -4   42.32    3.16
  -1  -8  -4   37.37    2.96
  -1  -8  -3    2.02    0.70
  -1  -8  -3    2.49    1.03
  -1  -8  -3    2.75    0.84
  -1  -8  -2    4.32    1.07
  -1  -8  -2    3.40    0.82
  -1  -8  -2    3.91    1.86
  -1  -8  -2    3.21    0.97
  -1  -8  -1   28.18    2.69
  -1  -8  -1   30.51    2.71
  -1  -8  -1   26.90    2.62
  -1  -8  -1   25.30    2.32
  -1  -8  -1   30.47    2.45
  -1  -8  -1   26.87    4.40
  -1  -8   0  387.47   14.95
  -1  -8   0  393.31   15.36
  -1  -8   0  397.28   15.45
  -1  -8   0  362.60   15.21
  -1  -8   0  372.07   14.56
  -1  -8   0  401.17   21.33
  -1  -8   0  390.06   14.99
  -1  -8   1   21.71    2.29
  -1  -8   1   24.69    2.52
  -1  -8   1   23.88    2.22
  -1  -8   1   25.35    2.41
  -1  -8   1   25.50    2.39
  -1  -8   1   21.56    4.28
  -1  -8   1   25.38    2.47
  -1  -8   2   62.71    4.10
  -1  -8   2   62.75    4.06
  -1  -8   2   58.60    3.93
  -1  -8   2   68.85    7.74
  -1  -8   2   64.91    4.19
  -1  -8   3  137.35    6.84
  -1  -8   3  134.08    6.63
  -1  -8   3  130.05    6.56
  -1  -8   3  136.79    6.84
  -1  -8   3  135.24   11.53
  -1  -8   3  134.65    6.87
  -1  -8   4    1.30    0.77
  -1  -8   4    0.55    0.59
  -1  -8   4    0.18    0.65
  -1  -8   4    0.72    0.60
  -1  -8   4    0.66    0.71
  -1  -8   4   -0.70    1.06
  -1  -8   5    7.16    1.42
  -1  -8   5    4.05    0.90
  -1  -8   5    6.68    1.37
  -1  -8   5    8.18    1.45
  -1  -8   5    2.88    1.74
  -1  -8   6    7.04    1.47
  -1  -8   6    2.99    1.98
  -1  -8   6    6.16    1.30
  -1  -8   6    7.25    1.47
  -1  -8   7   46.87    3.82
  -1  -8   7   52.00    7.10
  -1  -8   7   49.51    3.70
  -1  -8   7   44.87    3.61
  -1  -8   8   64.44    4.79
  -1  -8   8   67.11    7.97
  -1  -8   8   72.18    4.56
  -1  -8   8   69.44    4.52
  -1  -8   9    7.64    1.72
  -1  -8   9    4.87    1.11
  -1  -8  10   13.32    2.17
  -1  -8  10   10.53    2.05
  -1  -8  11   15.04    2.26
  -1  -8  11   18.38    2.42
  -1  -8  12   15.36    2.14
  -1  -8  12   15.26    2.04
  -1  -8  13   33.99    2.66
  -1  -8  13   22.80    2.36
  -1  -8  14    0.47    0.67
  -1  -8  14    0.46    0.64
  -1  -7  -8   54.91    2.70
  -1  -7  -7   16.62    1.59
  -1  -7  -7   13.17    1.48
  -1  -7  -6   66.97    4.02
  -1  -7  -6   68.36    4.07
  -1  -7  -6   68.69    4.14
  -1  -7  -5    5.69    1.15
  -1  -7  -5    4.88    1.21
  -1  -7  -5    4.94    1.15
  -1  -7  -4   33.50    2.64
  -1  -7  -4   37.26    3.15
  -1  -7  -4   33.71    2.87
  -1  -7  -4   33.52    5.51
  -1  -7  -4   39.18    3.21
  -1  -7  -3  341.38   13.49
  -1  -7  -3  330.09   13.84
  -1  -7  -3  333.17   13.54
  -1  -7  -3  344.46   20.06
  -1  -7  -3  334.49   13.90
  -1  -7  -2  336.76   13.69
  -1  -7  -2  337.85   13.53
  -1  -7  -2  351.04   20.30
  -1  -7  -2  341.94   13.15
  -1  -7  -1  559.05   25.75
  -1  -7  -1  545.19   19.36
  -1  -7  -1  472.84   24.29
  -1  -7  -1  538.36   19.99
  -1  -7  -1  549.78   19.87
  -1  -7  -1  488.95   19.70
  -1  -7  -1  512.90   19.30
  -1  -7  -1  509.52   26.40
  -1  -7  -1  504.75   19.29
  -1  -7   0   48.21    6.10
  -1  -7   0   53.43    3.51
  -1  -7   0   53.53    5.92
  -1  -7   0   58.14    3.83
  -1  -7   0   57.53    3.83
  -1  -7   0   45.34    3.49
  -1  -7   0   53.72    3.35
  -1  -7   0   55.89    3.38
  -1  -7   0   44.90    6.36
  -1  -7   0   48.68    3.43
  -1  -7   1  281.34   11.53
  -1  -7   1  280.32   15.74
  -1  -7   1  292.68   11.61
  -1  -7   1  276.30   11.75
  -1  -7   1  279.65   11.84
  -1  -7   1  260.79   11.47
  -1  -7   1  294.86   11.50
  -1  -7   1  293.87   17.13
  -1  -7   1  284.97   11.61
  -1  -7   2    3.83    1.04
  -1  -7   2    5.53    1.10
  -1  -7   2    4.93    1.09
  -1  -7   2    8.71    1.37
  -1  -7   2    4.62    1.07
  -1  -7   2    6.61    2.51
  -1  -7   2    3.31    1.61
  -1  -7   2    4.40    1.03
  -1  -7   2    5.38    1.23
  -1  -7   3  262.85   15.18
  -1  -7   3  271.74   11.30
  -1  -7   3  267.83   11.23
  -1  -7   3  282.79   11.46
  -1  -7   3  270.82   11.36
  -1  -7   3  296.43   17.25
  -1  -7   3  259.40   11.29
  -1  -7   4  486.85   18.23
  -1  -7   4  440.26   17.59
  -1  -7   4  508.59   18.25
  -1  -7   4  461.85   18.08
  -1  -7   4  460.04   18.21
  -1  -7   5    4.38    1.17
  -1  -7   5    4.08    1.10
  -1  -7   5    3.05    0.94
  -1  -7   5    4.03    2.17
  -1  -7   5    3.87    0.89
  -1  -7   6  147.39    7.29
  -1  -7   6  132.28    6.36
  -1  -7   6  132.41   11.55
  -1  -7   6  141.41    7.10
  -1  -7   7   20.34    2.47
  -1  -7   7   23.17    2.65
  -1  -7   7   23.93    2.67
  -1  -7   7   18.83    2.15
  -1  -7   7   18.77    4.24
  -1  -7   7   20.68    2.27
  -1  -7   8  142.96   12.15
  -1  -7   8  154.21    8.16
  -1  -7   8  152.22    7.46
  -1  -7   9   46.92    3.92
  -1  -7  10   28.56    3.14
  -1  -7  10   31.98    3.24
  -1  -7  10   31.16    3.13
  -1  -7  11   68.28    4.77
  -1  -7  11   61.22    4.55
  -1  -7  11   64.07    4.58
  -1  -7  12    5.92    1.44
  -1  -7  12    4.04    1.36
  -1  -7  13    1.34    0.94
  -1  -7  14    5.85    1.14
  -1  -6  -9   12.58    1.04
  -1  -6  -9   17.42    1.42
  -1  -6  -8    2.18    0.69
  -1  -6  -8    2.45    0.69
  -1  -6  -8    2.25    0.78
  -1  -6  -7   16.58    1.90
  -1  -6  -7   15.66    1.78
  -1  -6  -7   14.01    1.82
  -1  -6  -6    0.34    0.77
  -1  -6  -6    1.15    0.66
  -1  -6  -6    0.69    0.72
  -1  -6  -5  235.66   10.84
  -1  -6  -5  238.07   10.84
  -1  -6  -5  231.31   16.30
  -1  -6  -5  269.36   11.10
  -1  -6  -4   95.28    5.60
  -1  -6  -4  108.26    5.89
  -1  -6  -4   94.70    9.70
  -1  -6  -4   79.43    8.42
  -1  -6  -4   97.02    5.19
  -1  -6  -3   28.65    2.68
  -1  -6  -3   31.87    2.82
  -1  -6  -3   20.80    4.55
  -1  -6  -3   28.82    4.60
  -1  -6  -3   28.94    2.50
  -1  -6  -2   53.57    3.27
  -1  -6  -2   42.89    5.78
  -1  -6  -2   51.50    3.70
  -1  -6  -2   54.78    3.59
  -1  -6  -2   52.10    3.62
  -1  -6  -2   47.53    6.51
  -1  -6  -2   45.86    5.73
  -1  -6  -2   52.03    5.84
  -1  -6  -1    6.97    1.27
  -1  -6  -1    8.46    1.30
  -1  -6  -1    7.70    1.25
  -1  -6  -1    5.95    2.32
  -1  -6  -1    5.73    2.08
  -1  -6  -1    6.61    1.11
  -1  -6  -1    4.57    1.83
  -1  -6  -1    3.62    1.68
  -1  -6   0  523.09   25.02
  -1  -6   0  541.26   19.49
  -1  -6   0  555.35   19.98
  -1  -6   0  538.31   19.91
  -1  -6   0  499.28   24.30
  -1  -6   0  530.96   19.51
  -1  -6   0  530.08   19.43
  -1  -6   0  534.51   19.33
  -1  -6   0  550.25   26.19
  -1  -6   0  542.24   23.61
  -1  -6   0  502.05   19.48
  -1  -6   1  304.97   12.13
  -1  -6   1  291.56   11.79
  -1  -6   1  305.90   12.27
  -1  -6   1  305.99   11.90
  -1  -6   1  310.99   16.33
  -1  -6   1  297.82   11.77
  -1  -6   1  289.64   11.43
  -1  -6   1  301.56   17.22
  -1  -6   1  283.73   14.78
  -1  -6   1  283.16   16.63
  -1  -6   2  114.13    5.90
  -1  -6   2  111.59    5.69
  -1  -6   2  117.34    5.71
  -1  -6   2  107.52    9.15
  -1  -6   2  108.24    8.57
  -1  -6   2  112.36    5.58
  -1  -6   2  106.13    5.52
  -1  -6   3  658.34   24.44
  -1  -6   3  690.78   24.64
  -1  -6   3  679.19   24.67
  -1  -6   3  667.28   30.68
  -1  -6   3  688.89   24.54
  -1  -6   3  695.88   29.82
  -1  -6   4  119.18    6.02
  -1  -6   4  104.50    5.44
  -1  -6   4  115.90    5.90
  -1  -6   4  117.83    9.82
  -1  -6   4  105.16    5.61
  -1  -6   5  254.22   10.76
  -1  -6   5  270.60   11.02
  -1  -6   5  251.01   10.38
  -1  -6   5  270.97   11.21
  -1  -6   5  263.41   16.26
  -1  -6   5  245.64   10.93
  -1  -6   6   42.98    2.84
  -1  -6   6   43.92    3.16
  -1  -6   6   41.22    3.33
  -1  -6   6   44.59    6.01
  -1  -6   6   39.61    3.10
  -1  -6   7  781.03   29.41
  -1  -6   7  791.88   29.18
  -1  -6   7  833.31   28.82
  -1  -6   7  891.41   29.67
  -1  -6   7  782.98   35.82
  -1  -6   7  766.78   28.77
  -1  -6   7  788.10   29.14
  -1  -6   8  541.22   20.08
  -1  -6   8  562.06   26.36
  -1  -6   8  524.29   20.38
  -1  -6   8  551.05   20.86
  -1  -6   8  564.75   21.18
  -1  -6   8  549.51   20.84
  -1  -6   9   42.64    3.36
  -1  -6   9   43.74    3.59
  -1  -6   9   46.12    3.18
  -1  -6   9   45.99    3.62
  -1  -6  10   44.10    3.74
  -1  -6  10   49.99    3.61
  -1  -6  10   44.85    3.20
  -1  -6  10   46.69    3.67
  -1  -6  10   53.14    3.96
  -1  -6  11   52.33    4.02
  -1  -6  11   53.81    4.09
  -1  -6  12  143.41    7.83
  -1  -6  12  140.76    7.29
  -1  -6  12  141.26    7.28
  -1  -6  13    4.39    1.27
  -1  -6  13    4.85    1.29
  -1  -6  14   51.09    3.32
  -1  -5  -9   98.39    4.64
  -1  -5  -9   90.17    4.47
  -1  -5  -8   22.29    2.21
  -1  -5  -8   24.24    2.21
  -1  -5  -8   23.43    2.36
  -1  -5  -7   48.12    3.65
  -1  -5  -7   47.18    3.59
  -1  -5  -7   56.56    4.05
  -1  -5  -6   41.80    3.58
  -1  -5  -6   46.74    3.55
  -1  -5  -6   45.95    6.96
  -1  -5  -6   44.83    6.29
  -1  -5  -6   45.13    6.31
  -1  -5  -5   85.08    5.20
  -1  -5  -5   77.23    8.82
  -1  -5  -5   69.03    8.10
  -1  -5  -5   75.01    8.36
  -1  -5  -5   78.78    4.98
  -1  -5  -4   95.73    5.43
  -1  -5  -4   87.49    5.24
  -1  -5  -4   89.66    9.29
  -1  -5  -4   72.14    8.08
  -1  -5  -4   93.97    9.09
  -1  -5  -4   87.52    4.76
  -1  -5  -3    7.39    1.38
  -1  -5  -3    6.80    1.31
  -1  -5  -3    6.57    2.42
  -1  -5  -3    8.71    2.82
  -1  -5  -3    8.83    2.89
  -1  -5  -3   10.70    1.40
  -1  -5  -2  167.74    7.24
  -1  -5  -2  170.87    7.57
  -1  -5  -2  173.70    7.88
  -1  -5  -2  170.85    7.83
  -1  -5  -2  156.63   10.93
  -1  -5  -2  141.93   11.38
  -1  -5  -2  159.29   12.06
  -1  -5  -2  171.20   11.04
  -1  -5  -1  227.69    9.53
  -1  -5  -1  225.75   13.42
  -1  -5  -1  235.22    9.53
  -1  -5  -1  220.08   12.63
  -1  -5  -1  229.07   14.19
  -1  -5  -1  221.53   14.00
  -1  -5  -1  220.79    9.19
  -1  -5   0  106.50    8.36
  -1  -5   0  102.83    5.01
  -1  -5   0   97.49    5.18
  -1  -5   0  106.47    5.37
  -1  -5   0   97.12    4.90
  -1  -5   0  104.17    4.90
  -1  -5   0  108.64    5.12
  -1  -5   0   94.25    8.27
  -1  -5   0  113.55    8.98
  -1  -5   0   97.43    7.17
  -1  -5   0   98.64    8.08
  -1  -5   1   61.98    3.65
  -1  -5   1   63.91    6.16
  -1  -5   1   65.29    3.88
  -1  -5   1   66.20    3.70
  -1  -5   1   67.00    3.88
  -1  -5   1   66.35    3.68
  -1  -5   1   76.25    7.07
  -1  -5   1   64.96    5.37
  -1  -5   1   61.08    6.41
  -1  -5   2  142.63    6.56
  -1  -5   2  138.27    6.44
  -1  -5   2  137.62    6.44
  -1  -5   2  150.34    6.75
  -1  -5   2  144.51   10.14
  -1  -5   2  142.67    6.44
  -1  -5   2  142.84    9.76
  -1  -5   3  523.31   19.16
  -1  -5   3  522.95   19.03
  -1  -5   3  509.96   19.06
  -1  -5   3  531.22   23.95
  -1  -5   4  482.45   17.79
  -1  -5   4  492.98   18.06
  -1  -5   4  508.65   18.29
  -1  -5   4  456.49   23.02
  -1  -5   4  480.95   18.01
  -1  -5   5   99.53    4.86
  -1  -5   5  109.18    5.19
  -1  -5   5  101.28    5.26
  -1  -5   5  103.67    8.65
  -1  -5   5  103.80    5.19
  -1  -5   6  257.24   10.12
  -1  -5   6  260.00   10.38
  -1  -5   6  283.36   10.90
  -1  -5   6  251.07   14.78
  -1  -5   6  250.97   10.59
  -1  -5   6  250.82   10.37
  -1  -5   7   83.32    4.71
  -1  -5   7   82.46    4.53
  -1  -5   7   88.62    7.56
  -1  -5   7   86.67    4.75
  -1  -5   7   84.25    4.36
  -1  -5   8   84.13    4.54
  -1  -5   8   77.24    4.69
  -1  -5   8   88.06    4.91
  -1  -5   8   86.87    4.87
  -1  -5   8   78.38    4.56
  -1  -5   8   84.28    4.70
  -1  -5   8   81.02    6.77
  -1  -5   9   47.09    3.23
  -1  -5   9   43.91    3.40
  -1  -5   9   45.77    3.44
  -1  -5   9   45.89    3.48
  -1  -5   9   45.37    3.28
  -1  -5  10   32.91    3.09
  -1  -5  10   34.31    2.75
  -1  -5  10   33.71    2.99
  -1  -5  10   30.86    2.92
  -1  -5  10   32.20    2.96
  -1  -5  10   31.52    2.72
  -1  -5  11  207.81    9.67
  -1  -5  11  207.37    9.00
  -1  -5  11  200.28    9.50
  -1  -5  11  221.79    9.73
  -1  -5  11  201.03    9.57
  -1  -5  11  194.57    9.02
  -1  -5  12   25.16    2.67
  -1  -5  12   23.77    2.58
  -1  -5  12   25.97    2.65
  -1  -5  12   24.54    2.63
  -1  -5  12   28.53    3.20
  -1  -5  12   22.13    2.20
  -1  -5  13   18.78    2.16
  -1  -5  13   23.93    2.37
  -1  -5  13   22.17    2.35
  -1  -5  14   32.38    2.58
  -1  -4 -10   91.21    4.83
  -1  -4  -9    2.68    0.92
  -1  -4  -9    2.55    0.72
  -1  -4  -9    2.85    0.97
  -1  -4  -8   95.39    5.38
  -1  -4  -8  100.58    5.98
  -1  -4  -7  117.18   10.58
  -1  -4  -7  119.79   11.31
  -1  -4  -7  112.35   11.15
  -1  -4  -7  124.59    6.55
  -1  -4  -6  158.30   12.55
  -1  -4  -6  158.87   13.21
  -1  -4  -6  166.78   13.08
  -1  -4  -6  165.66    8.06
  -1  -4  -5  374.45   21.89
  -1  -4  -5  414.14   22.36
  -1  -4  -5  419.90   22.95
  -1  -4  -5  443.68   16.84
  -1  -4  -4   -0.54    1.43
  -1  -4  -4    1.18    1.42
  -1  -4  -4    1.64    1.44
  -1  -4  -4    1.10    0.72
  -1  -4  -3  392.51   15.05
  -1  -4  -3  426.66   15.70
  -1  -4  -3  400.26   15.70
  -1  -4  -3  395.69   20.74
  -1  -4  -3  352.86   19.19
  -1  -4  -3  403.54   20.31
  -1  -4  -3  420.12   18.65
  -1  -4  -2   20.95    1.69
  -1  -4  -2   19.15    1.83
  -1  -4  -2   24.84    2.19
  -1  -4  -2   22.39    2.14
  -1  -4  -2   20.41    3.87
  -1  -4  -2   19.35    3.28
  -1  -4  -2   22.30    3.73
  -1  -4  -2   25.11    3.44
  -1  -4  -1 1013.43   34.77
  -1  -4  -1  997.24   35.13
  -1  -4  -1 1029.10   35.33
  -1  -4  -1  987.70   40.21
  -1  -4  -1  993.04   38.70
  -1  -4  -1 1035.58   41.03
  -1  -4  -1 1043.34   39.47
  -1  -4  -1 1041.06   35.44
  -1  -4   0  628.19   26.39
  -1  -4   0  587.79   26.67
  -1  -4   0  608.79   26.50
  -1  -4   0  637.54   24.86
  -1  -4   0  637.55   27.16
  -1  -4   0  666.81   27.60
  -1  -4   1  333.73   15.75
  -1  -4   1  336.56   16.06
  -1  -4   1  312.37   15.50
  -1  -4   2  646.66   26.47
  -1  -4   2  595.81   23.19
  -1  -4   2  641.25   26.72
  -1  -4   2  612.57   26.12
  -1  -4   3   -0.41    0.89
  -1  -4   4  144.26    9.14
  -1  -4   4  127.01    5.69
  -1  -4   4  132.89    5.86
  -1  -4   5   17.39    1.54
  -1  -4   5   18.54    1.67
  -1  -4   5   15.89    2.69
  -1  -4   5   17.34    1.53
  -1  -4   5   18.44    3.02
  -1  -4   6  622.14   21.20
  -1  -4   6  599.50   20.98
  -1  -4   6  601.72   25.15
  -1  -4   6  600.34   25.68
  -1  -4   6  585.38   21.30
  -1  -4   6  579.40   21.07
  -1  -4   7  115.63    5.76
  -1  -4   7  112.50    5.55
  -1  -4   7  114.49    5.55
  -1  -4   7  129.25    8.01
  -1  -4   7  104.53    8.57
  -1  -4   8   91.03    5.00
  -1  -4   8   84.97    4.63
  -1  -4   8   84.16    4.78
  -1  -4   8   94.51    4.92
  -1  -4   8   88.12    4.84
  -1  -4   8   84.94    4.62
  -1  -4   8   90.94    4.62
  -1  -4   8   89.84    8.34
  -1  -4   9    9.42    1.45
  -1  -4   9    8.16    1.50
  -1  -4   9   11.76    1.65
  -1  -4   9    9.82    1.52
  -1  -4   9    8.29    1.35
  -1  -4   9   10.27    1.51
  -1  -4  10   11.24    1.80
  -1  -4  10   12.21    1.71
  -1  -4  10   12.24    1.89
  -1  -4  10   11.43    1.76
  -1  -4  10   12.34    1.68
  -1  -4  10    9.71    1.64
  -1  -4  11    4.11    1.29
  -1  -4  11    3.94    1.32
  -1  -4  11    2.47    0.93
  -1  -4  11    4.07    1.32
  -1  -4  11    3.28    1.01
  -1  -4  11    2.69    1.11
  -1  -4  12  141.87    7.13
  -1  -4  12  132.01    7.38
  -1  -4  12  128.07    6.47
  -1  -4  12  143.42    6.77
  -1  -4  12  128.25    6.96
  -1  -4  12  144.05    7.13
  -1  -4  12  139.17    7.04
  -1  -4  13   -0.46    0.79
  -1  -4  13    1.49    1.03
  -1  -4  14    5.30    1.09
  -1  -3 -11   17.83    1.79
  -1  -3 -10    4.07    1.10
  -1  -3 -10    4.97    1.00
  -1  -3  -9   89.29    5.00
  -1  -3  -9   97.49    5.83
  -1  -3  -8   92.65    9.59
  -1  -3  -8   82.73    9.21
  -1  -3  -8   92.66    9.07
  -1  -3  -8   78.71    4.91
  -1  -3  -8   92.28    5.76
  -1  -3  -7   23.28    2.44
  -1  -3  -7   20.21    4.20
  -1  -3  -7   25.93    5.11
  -1  -3  -7   23.20    4.61
  -1  -3  -6   59.81    4.13
  -1  -3  -6   69.37    7.59
  -1  -3  -6   66.33    7.60
  -1  -3  -6   69.29    7.47
  -1  -3  -5   55.33    3.84
  -1  -3  -5   65.05    6.75
  -1  -3  -5   60.69    6.52
  -1  -3  -5   53.89    6.46
  -1  -3  -4 1069.52   37.19
  -1  -3  -4 1096.29   43.06
  -1  -3  -4 1015.92   41.68
  -1  -3  -4 1071.27   42.19
  -1  -3  -3  274.35   10.92
  -1  -3  -3  245.36   13.52
  -1  -3  -3  268.83   14.36
  -1  -3  -3  268.37   14.84
  -1  -3  -3  273.97   12.80
  -1  -3  -2 1010.57   35.54
  -1  -3  -2 1029.24   38.95
  -1  -3  -2 1036.00   39.58
  -1  -3  -2 1021.42   38.65
  -1  -3  -2 1030.01   40.13
  -1  -3  -2 1051.24   38.21
  -1  -3  -2 1032.67   35.73
  -1  -3  -1  712.34   27.84
  -1  -3  -1  735.42   27.67
  -1  -3  -1  726.89   28.52
  -1  -3  -1  669.03   26.90
  -1  -3  -1  664.09   28.62
  -1  -3   0  190.53   10.13
  -1  -3   0  211.93   10.42
  -1  -3   0  180.99    9.00
  -1  -3   1  597.02   26.27
  -1  -3   1  669.79   25.50
  -1  -3   1  658.39   25.42
  -1  -3   1  622.15   22.79
  -1  -3   1  628.52   26.19
  -1  -3   1  643.53   26.21
  -1  -3   2  197.71   11.19
  -1  -3   2  195.93    8.93
  -1  -3   2  186.24   10.98
  -1  -3   3 1985.52   68.73
  -1  -3   3 1991.73   67.50
  -1  -3   3 1887.98   69.99
  -1  -3   3 1952.46   69.11
  -1  -3   4  496.23   20.05
  -1  -3   4  512.55   20.63
  -1  -3   4  468.00   21.08
  -1  -3   5  447.46   18.99
  -1  -3   5  464.76   18.66
  -1  -3   6  458.98   21.26
  -1  -3   6  490.08   18.39
  -1  -3   6  497.51   19.98
  -1  -3   7  223.01    9.90
  -1  -3   7  221.80   12.84
  -1  -3   7  210.43    8.78
  -1  -3   8  408.74   14.80
  -1  -3   8  380.78   14.60
  -1  -3   8  369.53   14.60
  -1  -3   8  386.38   14.53
  -1  -3   8  375.36   15.84
  -1  -3   8  375.99   14.52
  -1  -3   8  364.28   14.33
  -1  -3   9    5.69    1.22
  -1  -3   9    6.31    1.23
  -1  -3   9    5.44    1.25
  -1  -3   9    8.69    1.42
  -1  -3   9    8.05    2.75
  -1  -3   9    5.01    1.12
  -1  -3   9    6.96    1.25
  -1  -3  10  523.27   19.61
  -1  -3  10  527.01   19.80
  -1  -3  10  532.03   19.66
  -1  -3  10  521.97   19.52
  -1  -3  10  458.15   26.27
  -1  -3  10  497.19   19.56
  -1  -3  10  499.44   19.21
  -1  -3  11   51.34    3.59
  -1  -3  11   54.27    3.92
  -1  -3  11   56.54    3.91
  -1  -3  11   57.21    3.94
  -1  -3  11   49.45    3.85
  -1  -3  11   51.51    3.78
  -1  -3  12   22.60    2.42
  -1  -3  12   22.90    2.22
  -1  -3  12   24.63    2.47
  -1  -3  12   20.67    2.29
  -1  -3  12   26.45    2.66
  -1  -3  12   22.92    2.46
  -1  -3  13    1.57    0.89
  -1  -3  13    1.56    0.84
  -1  -3  14   20.59    2.00
  -1  -2 -12   13.29    1.39
  -1  -2 -11    2.37    0.87
  -1  -2 -10    4.01    1.15
  -1  -2  -9  102.68    6.23
  -1  -2  -9   94.79    9.93
  -1  -2  -9   95.47   10.05
  -1  -2  -8   80.43    8.94
  -1  -2  -8   83.95    8.62
  -1  -2  -8   68.03    8.30
  -1  -2  -8   82.12    4.84
  -1  -2  -7    1.93    1.55
  -1  -2  -7    2.81    1.71
  -1  -2  -7    1.26    1.66
  -1  -2  -7    0.64    0.69
  -1  -2  -6  166.39   11.44
  -1  -2  -6  163.63   11.75
  -1  -2  -6  168.81   12.06
  -1  -2  -6  174.43    7.96
  -1  -2  -5  477.96   22.57
  -1  -2  -5  517.22   23.58
  -1  -2  -5  510.20   22.81
  -1  -2  -5  489.53   18.49
  -1  -2  -4    0.34    0.82
  -1  -2  -4    0.40    1.35
  -1  -2  -4    0.36    1.22
  -1  -2  -4   -0.12    0.62
  -1  -2  -3    7.75    2.07
  -1  -2  -3    9.89    2.22
  -1  -2  -3    8.83    1.77
  -1  -2  -3    7.28    1.71
  -1  -2  -3    8.30    1.42
  -1  -2  -2   22.67    2.66
  -1  -2  -2   17.63    2.21
  -1  -2  -2   17.71    2.27
  -1  -2  -2   23.23    2.94
  -1  -2  -1  337.48   14.01
  -1  -2  -1  320.13   13.68
  -1  -2  -1  314.65   13.07
  -1  -2   0  554.54   20.40
  -1  -2   0  563.63   20.40
  -1  -2   0  530.26   21.72
  -1  -2   1  258.22   13.53
  -1  -2   1  285.09   12.42
  -1  -2   1  290.43   12.42
  -1  -2   1  300.82   11.09
  -1  -2   1  256.70   13.22
  -1  -2   1  283.63   13.27
  -1  -2   2 1303.05   44.47
  -1  -2   2 1265.06   47.05
  -1  -2   3  229.55   10.48
  -1  -2   3  235.72   10.21
  -1  -2   3  225.12   11.63
  -1  -2   3  218.17   10.69
  -1  -2   4 1169.30   41.16
  -1  -2   4 1150.86   41.65
  -1  -2   4 1151.04   42.03
  -1  -2   5  392.60   17.06
  -1  -2   5  388.15   17.16
  -1  -2   6  218.32   11.87
  -1  -2   7  963.86   33.22
  -1  -2   8   18.57    1.84
  -1  -2   8   20.93    2.05
  -1  -2   8   17.84    1.81
  -1  -2   8   17.08    2.31
  -1  -2   8   19.61    3.60
  -1  -2   8   17.98    1.81
  -1  -2   8   17.73    1.76
  -1  -2   9  230.11    9.49
  -1  -2   9  222.54    9.76
  -1  -2   9  225.58    9.43
  -1  -2   9  221.17   11.05
  -1  -2   9  221.12   14.91
  -1  -2   9  208.76    9.39
  -1  -2   9  208.37    9.28
  -1  -2  10   28.93    2.62
  -1  -2  10   28.01    2.77
  -1  -2  10   27.69    2.59
  -1  -2  10   27.44    3.43
  -1  -2  10   27.97    2.64
  -1  -2  10   27.63    2.52
  -1  -2  11  150.25    7.81
  -1  -2  11  153.34    7.67
  -1  -2  11  154.88    7.53
  -1  -2  11  168.78    8.12
  -1  -2  11  157.25    7.71
  -1  -2  11  163.52    8.11
  -1  -2  11  166.94    7.72
  -1  -2  12  143.09    7.29
  -1  -2  12  143.10    6.89
  -1  -2  12  156.16    7.66
  -1  -2  12  147.52    7.38
  -1  -2  12  139.87    7.12
  -1  -2  13   27.13    2.46
  -1  -2  13   29.13    2.68
  -1  -2  14   94.09    4.83
  -1  -1 -12   52.28    3.31
  -1  -1 -11    3.45    1.07
  -1  -1 -10  234.58   10.88
  -1  -1  -9  369.72   15.32
  -1  -1  -9  328.51   21.21
  -1  -1  -9  349.77   20.03
  -1  -1  -9  345.01   20.87
  -1  -1  -8    3.25    1.71
  -1  -1  -8    2.06    1.65
  -1  -1  -8    4.01    1.95
  -1  -1  -7  265.18   11.15
  -1  -1  -7  286.41   16.52
  -1  -1  -7  280.21   15.85
  -1  -1  -6    9.22    1.36
  -1  -1  -6   11.08    2.57
  -1  -1  -6    7.14    2.19
  -1  -1  -5  897.05   32.28
  -1  -1  -5  858.54   30.91
  -1  -1  -5  896.63   35.01
  -1  -1  -5  956.01   35.89
  -1  -1  -4  129.58    8.16
  -1  -1  -4  129.97    8.48
  -1  -1  -4  133.85    6.92
  -1  -1  -3    7.33    1.65
  -1  -1  -3    8.50    1.44
  -1  -1  -2  525.28   21.52
  -1  -1  -2  556.11   20.79
  -1  -1  -2  568.88   20.81
  -1  -1  -1  188.71    9.40
  -1  -1  -1  188.21    8.62
  -1  -1  -1  195.66    8.71
  -1  -1   0  433.16   15.23
  -1  -1   0  407.74   16.61
  -1  -1   0  440.19   17.75
  -1  -1   0  454.62   17.26
  -1  -1   0  448.58   16.88
  -1  -1   0  447.07   16.95
  -1  -1   1 1000.79   33.74
  -1  -1   1  928.86   34.52
  -1  -1   1 1027.19   36.22
  -1  -1   1  913.81   35.35
  -1  -1   1 1060.98   35.54
  -1  -1   2 3663.58  128.43
  -1  -1   2 3919.24  127.49
  -1  -1   2 3840.79  126.98
  -1  -1   3  127.48    6.57
  -1  -1   3  125.44    6.55
  -1  -1   3  120.47    5.54
  -1  -1   4  556.15   20.06
  -1  -1   4  554.41   20.64
  -1  -1   5    7.59    1.57
  -1  -1   5    5.35    1.56
  -1  -1   6   40.43    3.11
  -1  -1   7    8.31    2.36
  -1  -1   7    6.14    0.89
  -1  -1   7    9.34    1.62
  -1  -1   7    7.53    1.08
  -1  -1   8  279.02   10.81
  -1  -1   8  270.00   10.80
  -1  -1   8  286.81   11.48
  -1  -1   8  273.75   11.24
  -1  -1   8  269.60   12.45
  -1  -1   8  293.29   16.49
  -1  -1   8  244.13   10.39
  -1  -1   8  273.72   10.97
  -1  -1   8  277.94   10.97
  -1  -1   9    0.53    0.76
  -1  -1   9    0.53    0.89
  -1  -1   9    0.69    0.78
  -1  -1   9    1.09    1.14
  -1  -1   9    1.40    0.62
  -1  -1   9    0.64    1.20
  -1  -1   9    2.56    0.87
  -1  -1   9    0.73    0.70
  -1  -1  10  111.07    6.06
  -1  -1  10  122.60    6.68
  -1  -1  10  121.46    6.05
  -1  -1  10  120.65    7.73
  -1  -1  10  132.98   11.83
  -1  -1  10  116.63    6.30
  -1  -1  10  111.57    6.09
  -1  -1  11  124.21    6.77
  -1  -1  11  108.77    6.09
  -1  -1  11  113.60    6.33
  -1  -1  11  119.30    6.19
  -1  -1  12    2.37    1.13
  -1  -1  12    3.35    1.02
  -1  -1  12    2.39    0.83
  -1  -1  13   43.15    3.21
  -1  -1  13   43.48    3.31
  -1  -1  14    0.32    0.71
  -1  -1  14    0.77    0.58
  -1   0 -12   15.23    1.78
  -1   0 -11   37.32    3.32
  -1   0 -10   84.52    9.85
  -1   0 -10   94.31    9.63
  -1   0 -10  109.97    9.68
  -1   0 -10   90.16    5.87
  -1   0  -9   32.44    5.41
  -1   0  -9   34.15    5.27
  -1   0  -8  482.68   24.14
  -1   0  -8  434.74   22.53
  -1   0  -7   20.26    3.53
  -1   0  -7   20.41    3.79
  -1   0  -6  520.87   24.20
  -1   0  -6  521.35   23.55
  -1   0  -6  558.88   21.67
  -1   0  -5  843.94   33.85
  -1   0  -5  877.03   34.61
  -1   0  -5  902.14   32.53
  -1   0  -4  359.43   16.23
  -1   0  -4  372.04   14.40
  -1   0  -4  377.38   15.42
  -1   0  -3  240.00   11.14
  -1   0  -3  235.64   10.00
  -1   0  -3  245.02   10.71
  -1   0  -2 1280.06   45.48
  -1   0  -2 1233.13   44.55
  -1   0  -2 1389.90   45.32
  -1   0  -1 9999.00  324.02
  -1   0  -1 9997.53  324.08
  -1   0  -1 9818.07  323.78
  -1   0  -1 9646.96  324.04
  -1   0   0   63.65    4.46
  -1   0   0   64.24    3.92
  -1   0   0   64.94    3.71
  -1   0   1  164.45    8.00
  -1   0   1  171.19    6.93
  -1   0   1  168.80    7.23
  -1   0   2  226.96    9.68
  -1   0   2  215.57    9.48
  -1   0   3  300.35   12.92
  -1   0   3  330.13   12.90
  -1   0   4  487.87   19.30
  -1   0   4  481.92   17.89
  -1   0   5   71.63    4.41
  -1   0   6 1208.38   40.74
  -1   0   6 1240.78   40.78
  -1   0   6 1169.15   40.69
  -1   0   6 1285.56   46.19
  -1   0   6 1096.97   41.92
  -1   0   6 1245.36   40.98
  -1   0   7  143.21    6.43
  -1   0   7  128.89    5.89
  -1   0   7  119.01    6.89
  -1   0   7  132.67    5.98
  -1   0   8  189.85    8.41
  -1   0   8  175.63    7.75
  -1   0   8  169.21    7.52
  -1   0   8  175.77   12.63
  -1   0   8  165.05    9.04
  -1   0   8  174.84    7.79
  -1   0   8  188.09    8.12
  -1   0   8  179.18    7.93
  -1   0   8  181.49    7.68
  -1   0   9   18.92    1.95
  -1   0   9   17.90    2.04
  -1   0   9   17.93    2.34
  -1   0   9   21.41    2.41
  -1   0   9   21.76    4.49
  -1   0   9   19.08    1.98
  -1   0   9   23.78    2.91
  -1   0   9   19.63    2.14
  -1   0   9   18.77    2.14
  -1   0  10   44.38    3.75
  -1   0  10   41.68    3.57
  -1   0  10   33.72    2.90
  -1   0  10   42.68    6.27
  -1   0  10   43.83    3.42
  -1   0  10   39.47    3.22
  -1   0  11   73.65    5.03
  -1   0  11   68.82    4.59
  -1   0  11   65.48    4.36
  -1   0  12    7.73    1.56
  -1   0  12    6.50    1.25
  -1   0  13    9.37    1.54
  -1   0  14    0.69    0.58
  -1   0  14    0.14    0.42
  -1   1 -12   16.52    1.85
  -1   1 -11   -0.36    0.71
  -1   1 -10   32.86    5.71
  -1   1 -10   37.17    5.32
  -1   1 -10   31.71    3.08
  -1   1  -9  221.72   14.33
  -1   1  -9  195.40   14.56
  -1   1  -8   14.98    3.27
  -1   1  -8   13.61    3.22
  -1   1  -7   16.42    3.39
  -1   1  -7   23.85    3.75
  -1   1  -7   15.21    2.58
  -1   1  -6   46.97    4.92
  -1   1  -6   45.14    5.07
  -1   1  -6   43.24    4.24
  -1   1  -5  555.31   22.88
  -1   1  -5  539.77   19.97
  -1   1  -4  564.37   22.20
  -1   1  -4  538.26   22.19
  -1   1  -4  543.94   20.26
  -1   1  -3  164.93    8.52
  -1   1  -2 1908.57   67.22
  -1   1  -2 1928.61   67.15
  -1   1  -2 2111.71   67.84
  -1   1  -1  684.19   24.74
  -1   1  -1  688.97   25.05
  -1   1  -1  742.87   25.36
  -1   1   0   38.71    2.12
  -1   1   0   36.32    2.33
  -1   1   0   39.76    2.76
  -1   1   1  798.74   26.96
  -1   1   1  784.18   28.51
  -1   1   2 1623.44   56.26
  -1   1   3 2370.69   87.13
  -1   1   3 2659.27   85.83
  -1   1   4    1.62    1.16
  -1   1   4    2.20    0.78
  -1   1   5 1018.27   35.55
  -1   1   5 1035.10   35.81
  -1   1   5 1057.53   39.53
  -1   1   5 1008.31   35.01
  -1   1   6   23.56    1.89
  -1   1   6   24.58    2.06
  -1   1   6   25.56    3.81
  -1   1   6   23.55    1.98
  -1   1   6   25.34    2.44
  -1   1   6   23.16    1.90
  -1   1   7  762.32   26.94
  -1   1   7  763.72   27.20
  -1   1   7  782.89   27.18
  -1   1   7  760.69   26.88
  -1   1   7  708.61   26.56
  -1   1   7  801.02   27.81
  -1   1   7  819.09   27.51
  -1   1   7  749.42   33.04
  -1   1   7  737.71   26.97
  -1   1   7  721.51   27.86
  -1   1   8  442.26   16.71
  -1   1   8  433.34   16.17
  -1   1   8  414.80   16.38
  -1   1   8  434.36   16.49
  -1   1   8  419.90   22.76
  -1   1   8  414.75   17.34
  -1   1   8  412.42   16.45
  -1   1   8  419.43   17.19
  -1   1   8  439.87   17.01
  -1   1   9   51.85    3.77
  -1   1   9   53.39    3.78
  -1   1   9   48.79    3.35
  -1   1   9   49.55    4.13
  -1   1   9   51.56    7.04
  -1   1   9   47.43    3.60
  -1   1   9   54.14    4.07
  -1   1  10  265.15   11.38
  -1   1  10  245.58   11.13
  -1   1  10  250.73   11.09
  -1   1  10  271.51   11.85
  -1   1  11    7.57    1.46
  -1   1  11    7.04    1.49
  -1   1  11    8.70    1.54
  -1   1  11   12.07    2.02
  -1   1  12   55.93    3.62
  -1   1  12   65.53    4.41
  -1   1  12   56.91    4.13
  -1   1  13    0.25    0.74
  -1   2 -11   96.00    9.95
  -1   2 -10    3.19    1.70
  -1   2 -10    8.98    3.02
  -1   2 -10    7.59    1.40
  -1   2  -9  415.60   22.63
  -1   2  -9  391.26   21.28
  -1   2  -9  385.74   15.39
  -1   2  -8    7.82    2.45
  -1   2  -8    2.92    1.79
  -1   2  -8    7.55    2.06
  -1   2  -7  153.35   10.31
  -1   2  -7  143.29    9.47
  -1   2  -6  507.99   23.33
  -1   2  -6  574.76   23.49
  -1   2  -5    2.83    1.31
  -1   2  -5    3.27    1.49
  -1   2  -5    3.35    1.43
  -1   2  -4   34.36    2.88
  -1   2  -3  107.85    5.88
  -1   2  -2  737.67   27.85
  -1   2   1  134.65    7.43
  -1   2   1  144.91    7.25
  -1   2   2   29.35    3.40
  -1   2   2   36.35    3.11
  -1   2   3  340.55   16.49
  -1   2   4  341.65   13.96
  -1   2   4  346.37   16.35
  -1   2   4  325.41   13.00
  -1   2   4  334.37   12.70
  -1   2   5    1.69    1.64
  -1   2   5    1.04    0.64
  -1   2   5    1.30    0.63
  -1   2   5    0.85    0.54
  -1   2   6  492.43   18.36
  -1   2   6  487.64   18.71
  -1   2   6  486.07   18.59
  -1   2   6  492.07   18.66
  -1   2   6  480.13   23.69
  -1   2   6  506.75   19.08
  -1   2   6  537.72   18.90
  -1   2   7  541.97   20.57
  -1   2   7  565.68   21.06
  -1   2   7  562.02   20.90
  -1   2   7  532.85   20.45
  -1   2   7  567.57   21.46
  -1   2   7  580.64   21.14
  -1   2   7  556.66   20.84
  -1   2   7  518.75   26.53
  -1   2   7  539.19   20.76
  -1   2   8    3.29    1.14
  -1   2   8    4.23    1.11
  -1   2   8    3.82    1.08
  -1   2   8    6.36    1.44
  -1   2   8    6.40    1.50
  -1   2   8    1.35    1.09
  -1   2   9   56.12    4.07
  -1   2   9   49.93    3.49
  -1   2   9   50.05    3.84
  -1   2   9   45.95    3.79
  -1   2   9   44.74    6.42
  -1   2   9   51.21    4.18
  -1   2  10   50.39    3.91
  -1   2  10   51.45    3.93
  -1   2  10   51.64    3.99
  -1   2  10   46.10    4.22
  -1   2  10   51.12    4.23
  -1   2  11  154.69    7.55
  -1   2  11  143.61    7.35
  -1   2  11  156.75    7.52
  -1   2  11  151.29    7.93
  -1   2  12   28.85    2.65
  -1   2  13   62.79    3.35
  -1   2  13   58.51    3.29
  -1   3 -11   26.94    4.67
  -1   3 -11   30.11    5.33
  -1   3 -10  122.09   10.90
  -1   3 -10  119.91   11.29
  -1   3  -9  221.52   15.03
  -1   3  -9  240.07   16.08
  -1   3  -8  274.66   16.08
  -1   3  -8  264.10   15.22
  -1   3  -7  186.88   12.03
  -1   3  -6  192.70   11.92
  -1   3  -6  209.81    9.77
  -1   3  -6  228.01   12.68
  -1   3  -5 2518.06   85.38
  -1   3  -5 2479.38   87.90
  -1   3  -3  856.58   30.23
  -1   3  -3  734.34   30.74
  -1   3  -2  162.35    6.45
  -1   3  -2  190.06    9.18
  -1   3  -2  172.69    9.27
  -1   3  -1  595.48   23.74
  -1   3  -1  647.34   24.04
  -1   3  -1  596.46   23.35
  -1   3   0  627.39   24.07
  -1   3   0  645.62   24.75
  -1   3   1  853.68   30.47
  -1   3   1  762.93   28.74
  -1   3   2 1902.57   68.52
  -1   3   3  156.82   10.84
  -1   3   3  165.84    7.53
  -1   3   3  172.42    7.55
  -1   3   4   23.32    1.95
  -1   3   4   19.53    2.03
  -1   3   4   20.36    2.08
  -1   3   5   30.37    2.73
  -1   3   5   30.96    2.47
  -1   3   5   28.60    2.61
  -1   3   6   48.47    3.43
  -1   3   6   45.91    3.74
  -1   3   6   57.28    3.85
  -1   3   6   43.37    5.89
  -1   3   6   44.75    3.51
  -1   3   7  107.81    5.87
  -1   3   7  109.07    5.97
  -1   3   7  109.94    6.28
  -1   3   7   90.70    6.17
  -1   3   7   81.76    8.92
  -1   3   7  104.01    6.03
  -1   3   8    0.84    0.87
  -1   3   8    2.11    0.97
  -1   3   8    1.60    1.05
  -1   3   8    2.67    1.17
  -1   3   8    1.13    0.97
  -1   3   8   -0.25    0.94
  -1   3   9   63.28    4.62
  -1   3   9   64.30    4.15
  -1   3   9   71.63    4.75
  -1   3   9   60.69    4.53
  -1   3   9   57.93    4.71
  -1   3  10   51.54    4.00
  -1   3  10   53.39    3.99
  -1   3  10   64.42    4.33
  -1   3  10   52.26    4.21
  -1   3  10   48.45    4.29
  -1   3  11    0.72    0.65
  -1   3  11   -0.44    0.77
  -1   3  11   -0.18    0.85
  -1   3  11    1.85    1.12
  -1   3  12   11.99    1.47
  -1   3  12   11.80    1.52
  -1   4 -11   19.84    4.08
  -1   4 -11   18.77    4.26
  -1   4 -10    3.49    1.99
  -1   4 -10    3.92    2.24
  -1   4  -9  262.23   16.97
  -1   4  -9  262.84   16.37
  -1   4  -8  238.89   15.14
  -1   4  -7   81.22    7.77
  -1   4  -6  565.20   22.90
  -1   4  -5   11.92    2.19
  -1   4  -5   10.06    2.85
  -1   4  -4  368.98   16.62
  -1   4  -3  256.75   11.82
  -1   4  -3  262.10   12.79
  -1   4  -3  241.78   10.39
  -1   4  -2 1435.94   52.47
  -1   4  -2 1512.73   51.68
  -1   4  -1 1988.68   70.98
  -1   4  -1 2058.56   70.48
  -1   4   0  315.28   15.50
  -1   4   0  338.56   15.88
  -1   4   1  407.76   16.60
  -1   4   1  467.28   19.70
  -1   4   2   61.50    5.56
  -1   4   2   58.60    6.23
  -1   4   3  851.45   32.74
  -1   4   3  822.19   29.26
  -1   4   3  816.00   29.16
  -1   4   3  813.23   35.18
  -1   4   4  173.80    9.84
  -1   4   4  181.79    8.21
  -1   4   4  170.85    7.97
  -1   4   5  280.11   11.82
  -1   4   5  275.18   11.91
  -1   4   6  645.42   23.03
  -1   4   6  524.13   22.85
  -1   4   6  598.11   23.03
  -1   4   6  526.78   28.31
  -1   4   6  662.71   23.18
  -1   4   7   51.29    3.93
  -1   4   7   46.32    3.86
  -1   4   7   41.71    3.94
  -1   4   7   40.56    3.83
  -1   4   7   40.90    6.00
  -1   4   7   52.42    4.04
  -1   4   8  142.82    8.28
  -1   4   8  172.84    8.48
  -1   4   8  175.45    8.63
  -1   4   8  152.26    8.64
  -1   4   8  142.34    8.28
  -1   4   8  165.93    8.43
  -1   4   9    4.88    1.28
  -1   4   9    5.26    1.45
  -1   4   9    3.14    0.95
  -1   4   9    4.29    1.36
  -1   4   9    3.35    1.19
  -1   4   9    5.38    1.51
  -1   4  10  101.11    5.99
  -1   4  10  130.89    6.39
  -1   4  10  127.17    6.72
  -1   4  10  107.19    6.26
  -1   4  11   38.05    2.62
  -1   4  11   47.59    3.15
  -1   4  11   40.27    2.93
  -1   4  12    4.79    0.68
  -1   4  12    5.12    0.74
  -1   5 -11   57.90    7.34
  -1   5 -10   61.95    7.83
  -1   5 -10   60.20    7.45
  -1   5  -9    0.70    1.51
  -1   5  -9   -0.75    1.61
  -1   5  -8   29.40    5.37
  -1   5  -6  231.13   12.36
  -1   5  -6  214.35   10.90
  -1   5  -5  647.45   26.75
  -1   5  -5  606.89   24.77
  -1   5  -4  184.21    7.78
  -1   5  -4  178.20    9.75
  -1   5  -3   95.38    5.96
  -1   5  -3   88.83    6.40
  -1   5  -2    4.78    1.12
  -1   5  -2    4.99    1.52
  -1   5  -2    4.38    1.50
  -1   5  -1   72.08    6.23
  -1   5  -1   97.50    7.26
  -1   5   0  379.13   13.97
  -1   5   0  364.92   13.57
  -1   5   0  357.23   13.67
  -1   5   0  352.64   17.63
  -1   5   0  354.33   18.04
  -1   5   1    9.21    1.43
  -1   5   1   13.93    3.06
  -1   5   1    9.72    2.70
  -1   5   1   11.33    1.41
  -1   5   1    9.66    1.47
  -1   5   2  922.01   32.14
  -1   5   2  934.84   31.76
  -1   5   2  869.41   31.87
  -1   5   3  258.16   11.31
  -1   5   3  277.23   11.06
  -1   5   3  246.92   11.12
  -1   5   4  180.08    8.53
  -1   5   4  154.13    7.98
  -1   5   4  166.30    8.22
  -1   5   4  173.17    8.07
  -1   5   5  194.42    9.50
  -1   5   5  180.75    9.16
  -1   5   5  196.09    9.10
  -1   5   5  185.09    9.22
  -1   5   6  225.82   10.30
  -1   5   6  213.47   10.05
  -1   5   6  181.10   13.65
  -1   5   6  205.43   10.06
  -1   5   6  174.71    9.55
  -1   5   7  139.24    7.61
  -1   5   7  147.95    7.87
  -1   5   7  149.85    7.99
  -1   5   7  140.68    7.82
  -1   5   7  119.79    7.47
  -1   5   8   53.48    4.12
  -1   5   8   46.70    3.94
  -1   5   8   51.13    4.03
  -1   5   8   37.89    3.67
  -1   5   8   44.03    3.74
  -1   5   9  185.15    8.41
  -1   5   9  165.07    8.22
  -1   5   9  167.66    7.99
  -1   5   9  170.94    8.01
  -1   5  10   48.92    3.22
  -1   5  10   45.70    3.15
  -1   5  10   45.42    3.04
  -1   5  10   46.77    3.11
  -1   5  11    9.69    1.06
  -1   5  11    9.39    1.02
  -1   6 -14   50.02    3.25
  -1   6 -11    7.16    2.58
  -1   6 -11    9.66    3.28
  -1   6 -11    8.15    2.66
  -1   6 -10  198.52   16.20
  -1   6 -10  242.32   17.08
  -1   6 -10  216.58   16.33
  -1   6  -9  427.03   24.05
  -1   6  -9  392.20   23.78
  -1   6  -6  127.93    9.63
  -1   6  -6  121.45    6.11
  -1   6  -6  116.83    8.04
  -1   6  -5  115.41   10.40
  -1   6  -5  141.62   10.36
  -1   6  -5  137.68    6.52
  -1   6  -5  137.56    8.91
  -1   6  -4   52.13    6.42
  -1   6  -4   63.04    5.02
  -1   6  -4   61.95    5.69
  -1   6  -3  375.43   15.03
  -1   6  -3  375.69   14.49
  -1   6  -3  383.22   17.61
  -1   6  -3  375.62   18.29
  -1   6  -2  560.52   26.54
  -1   6  -2  626.65   22.34
  -1   6  -2  613.59   26.55
  -1   6  -2  636.89   27.44
  -1   6  -1  205.81   12.46
  -1   6  -1  250.14   10.06
  -1   6  -1  262.36   10.50
  -1   6  -1  221.63   13.78
  -1   6  -1  243.12   14.59
  -1   6   0  201.83    8.91
  -1   6   0  202.74    8.49
  -1   6   0  204.30    8.86
  -1   6   0  176.91    9.73
  -1   6   0  201.74   13.28
  -1   6   1    2.91    1.98
  -1   6   1    3.93    1.09
  -1   6   1    7.84    2.51
  -1   6   1    3.48    0.98
  -1   6   2   81.01    5.08
  -1   6   2   88.32    4.77
  -1   6   2   82.38    5.03
  -1   6   3  368.00   15.62
  -1   6   3  388.86   15.06
  -1   6   3  381.24   15.61
  -1   6   4    9.00    1.49
  -1   6   4   11.24    1.91
  -1   6   4    8.98    2.86
  -1   6   4    9.45    1.77
  -1   6   4    8.43    1.65
  -1   6   5    6.13    1.57
  -1   6   5    7.47    2.33
  -1   6   5    7.33    1.43
  -1   6   5    2.57    1.12
  -1   6   5    5.18    1.40
  -1   6   5    5.83    1.46
  -1   6   6  163.48    8.54
  -1   6   6  153.27    8.26
  -1   6   6  150.12    7.94
  -1   6   6  172.29    8.31
  -1   6   6  150.27    8.21
  -1   6   7    2.14    1.17
  -1   6   7    2.63    1.00
  -1   6   7    1.01    0.84
  -1   6   7    0.20    0.78
  -1   6   7    1.85    1.09
  -1   6   7    2.54    1.09
  -1   6   8   45.61    3.49
  -1   6   8   48.33    3.54
  -1   6   8   37.64    3.33
  -1   6   8   38.71    3.19
  -1   6   9    8.46    1.27
  -1   6   9    7.83    1.28
  -1   6   9    7.30    1.31
  -1   6  10   48.49    2.62
  -1   6  10   53.96    2.73
  -1   6  10   48.22    2.61
  -1   7 -13   34.56    2.73
  -1   7 -12   10.55    1.70
  -1   7 -11   76.94    4.93
  -1   7 -10  188.42    8.90
  -1   7 -10  167.92   14.85
  -1   7  -9   26.84    2.71
  -1   7  -9   24.13    5.51
  -1   7  -8  113.20    6.12
  -1   7  -7    0.48    0.64
  -1   7  -7   -0.59    1.54
  -1   7  -6  457.26   18.06
  -1   7  -6  501.22   26.13
  -1   7  -5  513.99   26.21
  -1   7  -5  496.83   19.00
  -1   7  -5  535.42   23.78
  -1   7  -4  162.82    7.44
  -1   7  -4  156.30   10.06
  -1   7  -4  159.65   11.04
  -1   7  -4  158.79    7.99
  -1   7  -3  220.45   13.41
  -1   7  -3  229.84    9.71
  -1   7  -3  245.34   14.64
  -1   7  -2   59.23    6.42
  -1   7  -2   50.56    3.39
  -1   7  -2   58.86    3.95
  -1   7  -2   58.19    6.70
  -1   7  -1  723.39   26.08
  -1   7  -1  709.59   25.46
  -1   7  -1  705.64   25.24
  -1   7  -1  731.16   26.18
  -1   7  -1  634.39   31.21
  -1   7  -1  684.99   32.16
  -1   7   0   91.38    5.29
  -1   7   0   86.31    5.17
  -1   7   1  325.45   20.19
  -1   7   1  348.03   17.71
  -1   7   1  321.32   20.52
  -1   7   1  369.10   14.95
  -1   7   1  367.85   14.19
  -1   7   1  376.36   14.96
  -1   7   2  260.24   11.35
  -1   7   2  289.35   12.32
  -1   7   2  283.10   12.14
  -1   7   3    2.52    0.80
  -1   7   3    1.06    0.89
  -1   7   3    1.42    0.84
  -1   7   4   84.64    5.65
  -1   7   4   93.56    5.21
  -1   7   4   84.67    5.51
  -1   7   5    3.25    1.21
  -1   7   5    2.70    1.08
  -1   7   5    0.19    0.79
  -1   7   5    3.59    1.11
  -1   7   5    2.03    1.05
  -1   7   6  260.92   12.24
  -1   7   6  289.86   12.33
  -1   7   6  297.97   11.91
  -1   7   6  282.26   12.09
  -1   7   6  283.34   12.05
  -1   7   7   52.85    3.69
  -1   7   7   55.73    3.86
  -1   7   7   52.85    3.64
  -1   7   7   59.44    3.79
  -1   7   8   19.16    2.00
  -1   7   8   21.58    1.94
  -1   7   8   20.18    1.86
  -1   7   8   22.35    1.83
  -1   7   8   20.13    1.85
  -1   7   9   15.09    1.19
  -1   7   9   17.57    1.32
  -1   7   9   18.84    1.46
  -1   8 -12    0.81    0.60
  -1   8 -11    5.62    1.24
  -1   8 -10   24.38    2.50
  -1   8 -10   26.41    5.34
  -1   8  -9   67.38    4.39
  -1   8  -9   74.84    9.41
  -1   8  -7   90.94    9.52
  -1   8  -7   82.86    4.92
  -1   8  -6   -0.74    1.39
  -1   8  -6    0.46    0.50
  -1   8  -5   42.74    5.38
  -1   8  -4   35.07    5.25
  -1   8  -4   31.09    4.40
  -1   8  -4   29.69    2.50
  -1   8  -4   32.15    4.96
  -1   8  -3   27.52    4.41
  -1   8  -3   26.19    2.26
  -1   8  -3   24.08    2.61
  -1   8  -3   29.26    4.71
  -1   8  -2  780.10   28.46
  -1   8  -2  822.90   29.50
  -1   8  -2  810.79   29.51
  -1   8  -2  847.39   35.70
  -1   8  -2  796.79   36.16
  -1   8  -1  221.97   15.82
  -1   8  -1  200.40    8.92
  -1   8  -1  210.05    9.77
  -1   8  -1  223.02    9.91
  -1   8   0   35.17    5.88
  -1   8   0   38.26    3.24
  -1   8   0   32.13    2.59
  -1   8   0   32.96    3.09
  -1   8   1   72.71    8.40
  -1   8   1   65.41    4.58
  -1   8   1   70.67    4.14
  -1   8   1   69.39    4.80
  -1   8   2  181.65    8.96
  -1   8   2  187.66    8.21
  -1   8   2  175.24    8.97
  -1   8   3  277.71   12.16
  -1   8   3  283.02   11.73
  -1   8   3  265.73   12.23
  -1   8   4    2.07    0.91
  -1   8   4    3.15    1.07
  -1   8   4    1.60    0.85
  -1   8   4    1.40    1.04
  -1   8   5  251.49   10.79
  -1   8   5  245.98   10.88
  -1   8   5  234.72   10.38
  -1   8   5  242.54   10.35
  -1   8   5  245.62    9.94
  -1   8   6   31.80    2.63
  -1   8   6   29.37    2.50
  -1   8   6   33.76    2.77
  -1   8   6   29.90    2.21
  -1   8   6   32.36    2.48
  -1   8   6   27.75    2.44
  -1   8   7   42.84    2.78
  -1   8   7   42.94    2.75
  -1   8   7   38.10    2.32
  -1   8   7   47.53    2.64
  -1   8   8   20.68    1.55
  -1   9 -13   37.87    2.92
  -1   9  -8    8.50    1.84
  -1   9  -8    8.06    2.76
  -1   9  -7  247.29   17.10
  -1   9  -7  228.58   16.76
  -1   9  -6   75.51    8.96
  -1   9  -6   58.93    7.71
  -1   9  -5  227.42   16.53
  -1   9  -5  214.95   15.00
  -1   9  -4  137.55   12.27
  -1   9  -4  121.25    6.82
  -1   9  -3   11.44    1.84
  -1   9  -3   14.75    2.09
  -1   9  -2    3.82    2.33
  -1   9  -2    4.60    1.31
  -1   9  -2    5.46    1.07
  -1   9  -2    4.68    1.37
  -1   9  -1  114.68   10.94
  -1   9  -1  102.87    6.05
  -1   9  -1  104.92    9.99
  -1   9  -1  106.93    6.21
  -1   9   0   33.08    5.56
  -1   9   0   30.78    2.96
  -1   9   0   30.24    3.04
  -1   9   1   63.66    4.45
  -1   9   1   61.80    4.49
  -1   9   2  113.41    6.23
  -1   9   2  106.98    6.27
  -1   9   3    3.22    0.99
  -1   9   3    4.11    1.03
  -1   9   3    4.05    0.95
  -1   9   3    4.38    1.13
  -1   9   4   39.02    3.09
  -1   9   4   45.15    3.10
  -1   9   4   40.78    2.86
  -1   9   4   44.26    3.32
  -1   9   5    0.12    0.47
  -1   9   5    0.13    0.61
  -1   9   5    1.67    0.67
  -1   9   5    0.62    0.50
  -1   9   6   57.77    3.10
  -1   9   6   59.93    3.09
  -1   9   6   57.80    3.25
  -1  10  -7  183.91   14.59
  -1  10  -6   18.48    2.30
  -1  10  -6   22.27    4.64
  -1  10  -6   20.74    2.47
  -1  10  -5  178.26    8.91
  -1  10  -5  178.88    8.96
  -1  10  -4    1.13    0.86
  -1  10  -4    0.29    0.54
  -1  10  -4    0.58    0.86
  -1  10  -3  188.20    9.15
  -1  10  -3  188.27    8.47
  -1  10  -3  219.93   15.78
  -1  10  -3  201.46    9.42
  -1  10  -2   55.46    4.05
  -1  10  -2   57.26    6.57
  -1  10  -2   56.62    7.65
  -1  10  -2   55.78    4.23
  -1  10  -1   19.62    2.21
  -1  10  -1   15.28    2.17
  -1  10   0   54.61    3.86
  -1  10   0   52.45    3.99
  -1  10   1    2.07    0.93
  -1  10   1    1.94    1.04
  -1  10   2  163.75    7.63
  -1  10   2  145.66    7.19
  -1  10   2  156.21    7.02
  -1  10   3   33.16    2.67
  -1  10   3   34.12    2.54
  -1  10   3   29.31    2.29
  -1  10   4   16.55    1.70
  -1  10   4   17.27    1.61
  -1  10   4   18.84    1.59
  -1  10   5   11.74    1.23
  -1  11 -11   10.37    1.38
  -1  11 -10    4.23    1.02
  -1  11  -9   14.64    1.86
  -1  11  -8   20.77    2.38
  -1  11  -7   36.25    3.04
  -1  11  -7   37.19    3.23
  -1  11  -6  105.96    5.81
  -1  11  -6  105.14    5.99
  -1  11  -5   15.89    1.98
  -1  11  -5   17.05    1.87
  -1  11  -5   19.76    2.24
  -1  11  -4   28.96    2.65
  -1  11  -4   30.60    2.89
  -1  11  -3    5.94    1.26
  -1  11  -3    7.12    1.38
  -1  11  -2   57.89    3.89
  -1  11  -2   65.53    4.30
  -1  11  -1  144.79    6.89
  -1  11  -1  142.21    7.13
  -1  11   0    6.96    1.33
  -1  11   0    6.96    1.18
  -1  11   0    7.93    1.13
  -1  11   1  142.44    6.73
  -1  11   1  147.74    6.54
  -1  11   1  141.46    6.16
  -1  11   2    6.33    1.07
  -1  11   2    7.17    1.01
  -1  11   2    6.36    0.88
  -1  11   3   11.20    1.19
  -1  11   4   15.07    1.14
  -1  12 -10   15.46    1.42
  -1  12  -9   12.95    1.40
  -1  12  -8    7.08    1.08
  -1  12  -8    6.33    1.14
  -1  12  -7    0.70    0.50
  -1  12  -7    0.13    0.58
  -1  12  -6   10.51    1.37
  -1  12  -6   10.54    1.49
  -1  12  -5   23.60    2.08
  -1  12  -5   21.69    2.16
  -1  12  -4    0.70    0.50
  -1  12  -4    0.14    0.58
  -1  12  -3   36.87    2.61
  -1  12  -3   37.59    2.85
  -1  12  -2   40.33    2.69
  -1  12  -2   42.60    2.94
  -1  12  -1    4.41    0.80
  -1  12  -1    5.25    0.97
  -1  12   0   11.83    1.18
  -1  12   0   12.26    1.35
  -1  13  -8    4.01    0.76
  -1  13  -7   45.81    2.76
  -1  13  -6   27.45    2.05
  -1  13  -5    0.74    0.49
  -1  13  -4   12.47    1.33
  -1  13  -3   17.06    1.51
   0 -13   3    7.91    0.86
   0 -13   3    8.11    0.89
   0 -13   4    0.96    0.43
   0 -13   4    0.66    0.42
   0 -13   4    1.05    0.41
   0 -13   4    0.53    0.34
   0 -13   5   29.90    1.98
   0 -13   5   29.73    2.00
   0 -13   5   24.93    1.86
   0 -13   6   64.55    3.27
   0 -13   6   59.23    3.22
   0 -13   7    1.72    0.52
   0 -13   7    0.83    0.44
   0 -13   8   26.31    1.79
   0 -13   8   30.61    1.96
   0 -13   9   13.08    1.16
   0 -13  10   11.80    1.01
   0 -12  -1    4.44    0.66
   0 -12  -1    5.21    0.80
   0 -12   0    8.34    1.01
   0 -12   1   18.14    1.45
   0 -12   1   24.38    1.93
   0 -12   2   25.28    1.89
   0 -12   2   24.77    2.13
   0 -12   2   27.87    1.98
   0 -12   2   25.17    2.04
   0 -12   3    1.33    0.54
   0 -12   3    0.55    0.43
   0 -12   3    2.27    0.65
   0 -12   4   19.51    1.84
   0 -12   4   19.80    1.83
   0 -12   4   17.61    1.77
   0 -12   5   38.95    2.73
   0 -12   5   35.96    2.56
   0 -12   5   38.67    2.77
   0 -12   6    2.26    0.66
   0 -12   6    1.78    0.70
   0 -12   7    4.67    1.06
   0 -12   7    4.34    0.92
   0 -12   8    2.85    0.77
   0 -12   8    1.46    0.63
   0 -12   8    1.82    0.86
   0 -12   9   53.44    3.06
   0 -12   9   61.24    3.46
   0 -12  10   49.10    2.92
   0 -12  11    0.71    0.52
   0 -12  12    2.27    0.53
   0 -11  -2  101.32    4.79
   0 -11  -2  111.95    5.07
   0 -11  -1    2.50    0.75
   0 -11  -1    3.98    1.00
   0 -11   0  127.62    5.71
   0 -11   0  141.25    6.38
   0 -11   1   53.13    3.17
   0 -11   1   46.77    3.05
   0 -11   1   56.19    3.68
   0 -11   2    1.45    0.68
   0 -11   2    1.65    0.91
   0 -11   2    1.29    0.64
   0 -11   2    1.03    0.66
   0 -11   2    1.75    0.67
   0 -11   3   22.88    2.25
   0 -11   3   23.91    2.25
   0 -11   3   25.39    2.29
   0 -11   4   11.06    1.60
   0 -11   4   11.03    1.61
   0 -11   4   12.35    1.66
   0 -11   4   12.29    1.66
   0 -11   5  133.32    6.75
   0 -11   5  129.54    6.46
   0 -11   5  136.41    6.72
   0 -11   6   38.01    3.10
   0 -11   6   36.94    2.81
   0 -11   7   40.10    3.14
   0 -11   7   37.67    2.69
   0 -11   7   43.20    3.35
   0 -11   7   38.62    3.01
   0 -11   8   26.73    2.51
   0 -11   8   22.59    1.99
   0 -11   8   23.94    2.23
   0 -11   9    9.62    1.41
   0 -11   9    7.80    1.26
   0 -11   9    9.18    1.25
   0 -11   9   12.46    1.73
   0 -11  10    0.82    0.63
   0 -11  10    1.99    0.93
   0 -11  11    1.69    0.58
   0 -11  11    1.24    0.83
   0 -11  12   21.35    1.74
   0 -11  12   14.99    1.26
   0 -11  13   13.53    1.20
   0 -10  -4   24.54    1.89
   0 -10  -4   22.33    1.64
   0 -10  -3  134.16    6.18
   0 -10  -3  129.77    5.87
   0 -10  -3  126.04    5.87
   0 -10  -2   11.79    1.64
   0 -10  -2    8.86    1.25
   0 -10  -2    9.66    1.42
   0 -10  -1   58.41    3.93
   0 -10  -1   53.38    3.69
   0 -10  -1   58.28    3.53
   0 -10   0   23.26    2.31
   0 -10   0   20.42    1.94
   0 -10   0   22.80    2.04
   0 -10   0   22.70    2.06
   0 -10   0   19.68    1.95
   0 -10   1   43.64    3.41
   0 -10   1   42.83    3.09
   0 -10   1   37.25    2.88
   0 -10   1   39.98    2.81
   0 -10   1   43.54    5.57
   0 -10   2  269.78   11.41
   0 -10   2  280.00   11.59
   0 -10   2  274.55   11.30
   0 -10   2  244.83   10.38
   0 -10   2  269.97   11.18
   0 -10   2  291.68   17.39
   0 -10   3   26.77    2.58
   0 -10   3   30.65    2.76
   0 -10   3   31.84    2.86
   0 -10   3   27.85    2.64
   0 -10   3   28.13    4.97
   0 -10   4  193.16    9.05
   0 -10   4  189.31    8.86
   0 -10   4  202.59   14.53
   0 -10   4  194.87    8.93
   0 -10   5   42.12    3.35
   0 -10   5   40.46    3.26
   0 -10   5   35.56    3.03
   0 -10   6  234.68   10.38
   0 -10   6  229.92   10.03
   0 -10   6  231.08   16.04
   0 -10   6  235.61    9.81
   0 -10   7    3.77    0.90
   0 -10   7    5.37    1.27
   0 -10   7    2.99    0.96
   0 -10   7    2.77    1.50
   0 -10   7    3.63    1.17
   0 -10   8   18.13    2.18
   0 -10   8   23.40    2.31
   0 -10   8   20.03    2.12
   0 -10   8   24.44    2.70
   0 -10   8   20.89    2.38
   0 -10   9  262.46   10.89
   0 -10   9  262.91   11.42
   0 -10   9  260.37   10.93
   0 -10   9  269.44   11.66
   0 -10  10    0.67    0.79
   0 -10  10    2.05    1.09
   0 -10  10    0.81    0.82
   0 -10  11   24.49    2.16
   0 -10  11   19.46    2.20
   0 -10  12    1.92    0.82
   0 -10  12    3.15    1.05
   0 -10  13   39.14    2.62
   0 -10  13   42.30    2.41
   0 -10  14    3.59    0.64
   0  -9  -6    3.28    0.67
   0  -9  -5   23.64    2.00
   0  -9  -5   24.07    1.99
   0  -9  -5   23.64    1.81
   0  -9  -4   11.37    1.58
   0  -9  -4    7.98    1.27
   0  -9  -4    9.61    1.32
   0  -9  -3   52.11    3.61
   0  -9  -3   43.48    3.22
   0  -9  -3   44.55    3.30
   0  -9  -2   78.66    4.79
   0  -9  -2   72.06    4.52
   0  -9  -2   75.31    4.50
   0  -9  -1   14.35    1.58
   0  -9  -1   15.06    1.79
   0  -9  -1    9.59    1.55
   0  -9  -1   12.20    1.85
   0  -9  -1   11.53    1.43
   0  -9  -1   13.43    3.25
   0  -9  -1   12.30    1.47
   0  -9   0   90.55    4.90
   0  -9   0   88.78    4.96
   0  -9   0   92.89    5.36
   0  -9   0   89.12    4.93
   0  -9   0   90.24    9.17
   0  -9   0   94.77    8.74
   0  -9   1   16.79    1.90
   0  -9   1   15.72    1.77
   0  -9   1   18.21    2.14
   0  -9   1   16.36    1.94
   0  -9   1   12.13    3.48
   0  -9   1   16.14    3.62
   0  -9   2    2.31    0.72
   0  -9   2    3.41    0.98
   0  -9   2    4.42    1.20
   0  -9   2    4.97    1.24
   0  -9   2    3.56    0.99
   0  -9   2    3.84    2.39
   0  -9   2    2.78    1.00
   0  -9   2    3.74    2.01
   0  -9   3   62.94    4.04
   0  -9   3   60.75    4.05
   0  -9   3   58.40    4.06
   0  -9   3   56.81    3.99
   0  -9   3   51.50    6.70
   0  -9   3   57.40    3.99
   0  -9   4   86.86    5.06
   0  -9   4   82.08    4.98
   0  -9   4   82.20    5.05
   0  -9   4   82.30    5.00
   0  -9   4   79.32    8.52
   0  -9   4   83.47    5.04
   0  -9   5  134.76    6.89
   0  -9   5  136.46    7.03
   0  -9   5  137.40    6.53
   0  -9   6  343.50   13.68
   0  -9   6  298.52   12.96
   0  -9   6  342.07   13.53
   0  -9   6  325.00   19.72
   0  -9   6  313.59   12.93
   0  -9   7   10.76    1.50
   0  -9   7   10.73    1.79
   0  -9   7    9.83    1.64
   0  -9   7   10.73    1.69
   0  -9   7   11.86    3.29
   0  -9   8  143.73    7.58
   0  -9   8  148.59    7.39
   0  -9   8  138.99   11.82
   0  -9   8  142.30    7.22
   0  -9   8  141.14    7.68
   0  -9   9    4.99    1.19
   0  -9   9    4.36    1.05
   0  -9   9    4.61    1.31
   0  -9   9    3.85    1.39
   0  -9  10   72.28    4.49
   0  -9  10   69.33    4.73
   0  -9  11   -0.32    0.86
   0  -9  11   -0.54    1.03
   0  -9  11   -0.14    0.81
   0  -9  12   94.94    5.18
   0  -9  12   95.60    5.39
   0  -9  13   40.78    2.97
   0  -9  13   42.88    2.90
   0  -9  14    1.01    0.63
   0  -8  -7   20.95    1.71
   0  -8  -7   18.79    1.48
   0  -8  -6  157.02    6.66
   0  -8  -6  134.38    6.04
   0  -8  -6  142.80    6.63
   0  -8  -5    0.76    0.56
   0  -8  -5    0.87    0.80
   0  -8  -5    0.47    0.47
   0  -8  -4  278.89   11.56
   0  -8  -4  317.57   12.47
   0  -8  -4  293.00   12.01
   0  -8  -4  286.45   12.16
   0  -8  -3   68.06    4.43
   0  -8  -3   84.35    4.89
   0  -8  -3   66.75    8.01
   0  -8  -3   69.31    4.52
   0  -8  -3   70.91    4.08
   0  -8  -2   15.27    1.96
   0  -8  -2   19.21    2.13
   0  -8  -1   11.90    1.68
   0  -8  -1   11.71    1.46
   0  -8  -1   10.34    1.62
   0  -8  -1   11.53    1.75
   0  -8  -1   11.74    1.49
   0  -8  -1   13.06    3.46
   0  -8  -1   15.44    3.10
   0  -8   0  175.33    8.18
   0  -8   0  192.54    8.20
   0  -8   0  178.86    8.50
   0  -8   0  180.73    8.17
   0  -8   0  182.23   12.68
   0  -8   0  187.93    8.26
   0  -8   1  533.68   19.62
   0  -8   1  525.02   19.44
   0  -8   1  499.32   19.16
   0  -8   1  523.37   19.79
   0  -8   1  516.99   19.57
   0  -8   1  556.11   26.44
   0  -8   1  541.48   25.49
   0  -8   2   86.32    4.79
   0  -8   2   82.16    4.64
   0  -8   2   74.12    4.20
   0  -8   2   79.28    4.72
   0  -8   2   78.20    4.71
   0  -8   2   82.91    4.77
   0  -8   2   91.43    8.75
   0  -8   2   66.02    7.48
   0  -8   3   70.30    4.39
   0  -8   3   74.75    4.55
   0  -8   3   81.07    4.72
   0  -8   3   80.20    4.71
   0  -8   3   74.25    7.69
   0  -8   3   74.93    4.55
   0  -8   4   91.09    5.08
   0  -8   4   96.47    5.36
   0  -8   4   84.51    8.78
   0  -8   4   78.75    4.91
   0  -8   4   94.31    5.13
   0  -8   5    6.11    1.31
   0  -8   5    4.36    2.02
   0  -8   5    4.98    1.20
   0  -8   6  102.85    5.67
   0  -8   6  101.57    5.60
   0  -8   6   91.41    5.23
   0  -8   6  105.86    5.43
   0  -8   6   92.95    5.67
   0  -8   6  111.30    9.89
   0  -8   6   94.36    5.35
   0  -8   7   29.22    2.73
   0  -8   7   26.57    2.34
   0  -8   7   27.84    2.79
   0  -8   7   28.22    2.72
   0  -8   7   25.81    4.71
   0  -8   7   35.73    3.00
   0  -8   7   26.95    2.62
   0  -8   8   84.36    5.11
   0  -8   8   79.34    4.91
   0  -8   8   78.91    5.14
   0  -8   8   88.62    8.65
   0  -8   8   76.71    4.89
   0  -8   8   70.45    5.01
   0  -8   9   52.75    3.95
   0  -8   9   49.34    4.06
   0  -8   9   44.17    3.31
   0  -8   9   53.42    3.97
   0  -8   9   53.75    4.12
   0  -8  10    1.07    1.02
   0  -8  10    0.58    0.90
   0  -8  10    1.18    1.12
   0  -8  10    0.42    0.96
   0  -8  11    3.30    1.17
   0  -8  11    5.82    1.43
   0  -8  11    3.39    1.33
   0  -8  11    2.88    1.20
   0  -8  12    6.91    1.36
   0  -8  12    6.86    1.53
   0  -8  12    7.70    1.62
   0  -8  12    6.67    1.59
   0  -8  13   17.86    2.08
   0  -8  13   16.24    1.96
   0  -8  13   18.10    2.18
   0  -8  14   22.02    2.02
   0  -7  -8   63.56    3.53
   0  -7  -8   65.86    3.51
   0  -7  -7  145.52    6.94
   0  -7  -7  162.48    6.99
   0  -7  -7  154.19    7.13
   0  -7  -6    8.95    1.45
   0  -7  -6    7.61    1.41
   0  -7  -6    5.00    1.25
   0  -7  -6    7.24    1.18
   0  -7  -5   76.53    4.49
   0  -7  -5   70.37    8.36
   0  -7  -5   70.80    4.64
   0  -7  -4    0.74    1.77
   0  -7  -4    1.92    0.94
   0  -7  -4    2.27    0.89
   0  -7  -3   90.44    5.12
   0  -7  -3   79.12    4.82
   0  -7  -3   75.37    7.45
   0  -7  -3   82.34    9.20
   0  -7  -3   71.01    4.66
   0  -7  -2  495.13   18.96
   0  -7  -2  486.94   18.96
   0  -7  -2  502.45   19.10
   0  -7  -2  522.51   26.05
   0  -7  -2  495.49   23.94
   0  -7  -2  501.03   23.13
   0  -7  -1  243.21    9.59
   0  -7  -1  211.16    9.63
   0  -7  -1  237.00    9.41
   0  -7  -1  217.51    9.82
   0  -7  -1  227.93    9.94
   0  -7  -1  220.95    9.43
   0  -7  -1  239.69   15.28
   0  -7  -1  218.73   13.81
   0  -7  -1  240.05   13.89
   0  -7   0  847.87   29.63
   0  -7   0  818.86   29.74
   0  -7   0  826.01   30.02
   0  -7   0  839.42   29.76
   0  -7   0  862.45   29.80
   0  -7   0  869.95   36.67
   0  -7   0  873.21   35.54
   0  -7   1  128.56    6.13
   0  -7   1  123.91    6.10
   0  -7   1  122.39    5.88
   0  -7   1  125.95    6.01
   0  -7   1  126.84    9.69
   0  -7   2  525.18   19.29
   0  -7   2  511.67   18.85
   0  -7   2  518.30   19.43
   0  -7   2  525.13   19.44
   0  -7   2  531.09   19.48
   0  -7   2  518.56   24.94
   0  -7   2  542.11   24.88
   0  -7   3   11.47    1.55
   0  -7   3   14.99    3.18
   0  -7   3   12.17    1.63
   0  -7   3   15.92    3.52
   0  -7   3   14.61    1.66
   0  -7   3   15.59    1.80
   0  -7   4  602.52   21.76
   0  -7   4  549.17   27.48
   0  -7   4  576.24   21.44
   0  -7   5  697.35   24.98
   0  -7   5  657.54   25.12
   0  -7   5  712.14   31.26
   0  -7   5  700.39   25.08
   0  -7   6    5.20    1.00
   0  -7   6    5.51    1.21
   0  -7   6    4.79    1.10
   0  -7   6    5.00    1.17
   0  -7   6    5.78    2.33
   0  -7   6    4.83    1.19
   0  -7   7  154.96    7.33
   0  -7   7  153.15    7.29
   0  -7   7  158.97   11.93
   0  -7   7  142.59    7.18
   0  -7   7  140.13    7.23
   0  -7   7  138.62    7.34
   0  -7   8   36.59    2.99
   0  -7   8   38.01    3.24
   0  -7   8   42.00    5.58
   0  -7   8   41.15    3.33
   0  -7   9  241.07   10.46
   0  -7   9  213.48   10.51
   0  -7   9  254.17   11.25
   0  -7   9  246.20   10.75
   0  -7   9  233.29   10.66
   0  -7   9  240.72   10.46
   0  -7  10   80.03    5.21
   0  -7  10   69.33    4.71
   0  -7  10   78.87    5.14
   0  -7  10   87.56    5.28
   0  -7  10   85.95    5.17
   0  -7  11   31.33    3.03
   0  -7  11   33.60    3.09
   0  -7  11   28.24    2.77
   0  -7  11   32.20    3.17
   0  -7  12   49.71    3.84
   0  -7  12   51.03    3.80
   0  -7  12   46.86    3.88
   0  -7  12   48.10    3.52
   0  -7  13    1.56    0.89
   0  -7  13    0.49    1.00
   0  -7  13    1.21    0.99
   0  -7  14    1.67    0.90
   0  -7  14    1.21    0.86
   0  -6  -9    6.88    1.16
   0  -6  -9   10.61    1.27
   0  -6  -8    9.22    1.47
   0  -6  -8    7.41    1.29
   0  -6  -7   34.22    2.96
   0  -6  -6    4.91    1.08
   0  -6  -6    3.32    1.13
   0  -6  -6    6.37    1.33
   0  -6  -5   28.52    2.55
   0  -6  -5   25.56    5.16
   0  -6  -5   24.12    2.65
   0  -6  -5   31.56    2.81
   0  -6  -4  489.38   18.15
   0  -6  -4  453.62   17.77
   0  -6  -4  429.85   25.04
   0  -6  -4  446.61   22.72
   0  -6  -3  129.55    6.54
   0  -6  -3  123.42   10.96
   0  -6  -3  126.61    9.80
   0  -6  -3  130.97    6.55
   0  -6  -2   17.31    1.96
   0  -6  -2   18.24    2.00
   0  -6  -2   17.79    1.96
   0  -6  -2   18.37    1.71
   0  -6  -2   11.92    3.01
   0  -6  -2   13.16    3.63
   0  -6  -2   17.22    1.69
   0  -6  -2   18.74    3.14
   0  -6  -1  150.37    6.43
   0  -6  -1  145.04    6.76
   0  -6  -1  143.26    6.85
   0  -6  -1  156.08    6.56
   0  -6  -1  135.67    6.40
   0  -6  -1  142.01   10.76
   0  -6  -1  129.20    7.79
   0  -6  -1  153.42   10.16
   0  -6  -1  142.04    9.67
   0  -6   0  230.93    9.30
   0  -6   0  219.37    9.07
   0  -6   0  221.44    9.43
   0  -6   0  224.60    9.23
   0  -6   0  213.02   10.72
   0  -6   0  222.34    9.18
   0  -6   0  246.48   14.13
   0  -6   0  228.95   13.03
   0  -6   0  246.30   13.41
   0  -6   1  568.76   20.12
   0  -6   1  566.81   20.24
   0  -6   1  564.85   20.31
   0  -6   1  537.47   21.57
   0  -6   1  540.54   20.29
   0  -6   1  578.92   25.60
   0  -6   1  600.37   25.33
   0  -6   2  532.90   19.23
   0  -6   2  543.20   19.35
   0  -6   2  523.44   19.26
   0  -6   2  488.06   20.22
   0  -6   2  522.45   19.29
   0  -6   2  540.64   24.48
   0  -6   2  572.52   24.32
   0  -6   3   86.54    4.51
   0  -6   3   87.36    4.53
   0  -6   3   84.41    4.59
   0  -6   3   78.64    7.38
   0  -6   3   77.81    7.33
   0  -6   4  413.75   14.96
   0  -6   4  368.52   14.69
   0  -6   4  409.59   15.02
   0  -6   4  404.21   19.67
   0  -6   5   98.36    5.14
   0  -6   5   95.95    5.28
   0  -6   5  112.04    8.72
   0  -6   5  101.93    5.26
   0  -6   6  325.59   12.30
   0  -6   6  311.79   13.07
   0  -6   6  336.96   13.04
   0  -6   6  321.39   12.41
   0  -6   6  366.18   18.49
   0  -6   6  321.92   12.90
   0  -6   7   14.18    1.68
   0  -6   7    8.48    2.52
   0  -6   7   13.37    1.64
   0  -6   7   13.47    1.73
   0  -6   7   13.96    1.61
   0  -6   7   13.37    1.70
   0  -6   8  696.23   25.78
   0  -6   8  694.72   25.29
   0  -6   8  720.34   25.60
   0  -6   8  741.49   25.83
   0  -6   8  651.72   30.52
   0  -6   8  715.73   25.80
   0  -6   8  664.90   25.07
   0  -6   8  754.74   25.88
   0  -6   9  487.49   18.29
   0  -6   9  453.27   18.02
   0  -6   9  437.59   17.59
   0  -6   9  475.11   18.04
   0  -6   9  451.83   17.28
   0  -6   9  478.83   17.97
   0  -6  10   16.81    2.15
   0  -6  10   11.78    1.81
   0  -6  10   13.89    1.92
   0  -6  10   11.47    1.59
   0  -6  10   13.33    1.97
   0  -6  10   10.63    1.80
   0  -6  11   55.12    4.28
   0  -6  11   49.04    3.93
   0  -6  11   47.15    3.61
   0  -6  11   53.20    4.00
   0  -6  11   46.71    3.35
   0  -6  11   55.51    3.98
   0  -6  12   54.16    4.20
   0  -6  12   50.50    3.95
   0  -6  12   46.46    3.49
   0  -6  12   43.05    3.66
   0  -6  12   46.22    3.62
   0  -6  13  124.94    6.84
   0  -6  13  142.84    6.81
   0  -6  13  123.06    6.63
   0  -6  14    0.25    0.83
   0  -6  14    0.87    0.73
   0  -5 -10   71.55    3.70
   0  -5  -9    6.83    1.19
   0  -5  -8  169.89    8.16
   0  -5  -7  105.66    5.57
   0  -5  -7   90.16   10.56
   0  -5  -7   85.62    5.49
   0  -5  -6  106.68    5.81
   0  -5  -6   99.14    5.96
   0  -5  -6   89.01    8.89
   0  -5  -6  108.78   11.12
   0  -5  -6  106.14    5.56
   0  -5  -5  134.04   12.00
   0  -5  -5  133.86   10.58
   0  -5  -5  134.64    6.81
   0  -5  -5  136.59    6.73
   0  -5  -4  275.38   18.08
   0  -5  -4  298.58   16.74
   0  -5  -4  295.85   12.32
   0  -5  -4  318.87   12.48
   0  -5  -3  292.30   16.94
   0  -5  -3  265.44   15.01
   0  -5  -3  260.89   11.14
   0  -5  -3  292.17   13.71
   0  -5  -2    2.39    1.48
   0  -5  -2    1.05    1.49
   0  -5  -2    2.49    0.79
   0  -5  -2    0.65    0.71
   0  -5  -1  289.80   16.16
   0  -5  -1  298.44   15.24
   0  -5  -1  300.78   11.98
   0  -5  -1  329.52   15.24
   0  -5   0  102.43    5.08
   0  -5   0   99.58    6.19
   0  -5   0  115.42    7.76
   0  -5   0   99.40    5.68
   0  -5   0  107.36    8.16
   0  -5   0  112.92    7.68
   0  -5   1  145.20    7.70
   0  -5   1  171.11   10.00
   0  -5   1  160.46   10.10
   0  -5   1  168.55    9.99
   0  -5   2  114.86    6.41
   0  -5   2  128.36    8.50
   0  -5   2  121.64    8.58
   0  -5   4  787.59   32.26
   0  -5   5  452.21   20.55
   0  -5   5  405.77   15.84
   0  -5   5  431.85   16.16
   0  -5   6  170.29    8.00
   0  -5   6  204.40    8.33
   0  -5   6  205.25    8.97
   0  -5   6  201.84   12.05
   0  -5   6  196.93    8.06
   0  -5   6  189.53    8.14
   0  -5   7  171.77    7.13
   0  -5   7  159.94    6.91
   0  -5   7  162.26    7.30
   0  -5   7  156.65   10.42
   0  -5   7  148.80    7.13
   0  -5   8   18.77    1.70
   0  -5   8   18.75    1.96
   0  -5   8   23.02    2.11
   0  -5   8   17.46    2.00
   0  -5   8   20.41    2.17
   0  -5   9   75.99    4.66
   0  -5   9   74.67    4.17
   0  -5   9   79.32    4.56
   0  -5   9   79.28    4.41
   0  -5   9   70.72    4.49
   0  -5   9   71.63    4.80
   0  -5  10   80.73    5.04
   0  -5  10   79.81    4.54
   0  -5  10   87.33    4.98
   0  -5  10   82.83    4.81
   0  -5  10   72.58    5.48
   0  -5  10   88.78    5.23
   0  -5  10   79.37    5.40
   0  -5  11   45.82    3.60
   0  -5  11   41.76    3.08
   0  -5  11   41.76    3.37
   0  -5  11   41.82    3.55
   0  -5  11   37.26    3.14
   0  -5  11   42.39    3.91
   0  -5  12   99.10    5.35
   0  -5  12  107.19    5.88
   0  -5  12   99.93    5.88
   0  -5  12   94.99    5.95
   0  -5  13   12.54    1.83
   0  -5  13   15.11    2.07
   0  -5  13   15.92    2.33
   0  -5  14   13.42    1.73
   0  -5  14   15.42    1.93
   0  -4 -11  106.52    5.16
   0  -4 -10    0.37    0.57
   0  -4  -9  168.49    8.03
   0  -4  -8   11.34    1.84
   0  -4  -8    9.81    3.61
   0  -4  -7  345.52   21.86
   0  -4  -7  354.54   13.91
   0  -4  -6  185.13   12.52
   0  -4  -6  155.89   13.41
   0  -4  -6  180.96    8.31
   0  -4  -6  178.51    8.13
   0  -4  -5  173.99   13.25
   0  -4  -5  190.88   11.69
   0  -4  -5  193.94   12.29
   0  -4  -4  707.85   31.34
   0  -4  -4  723.66   29.60
   0  -4  -4  738.71   29.26
   0  -4  -4  665.93   24.94
   0  -4  -3    1.44    1.50
   0  -4  -3    0.95    1.02
   0  -4  -3    4.51    1.58
   0  -4  -3    2.76    1.01
   0  -4  -3    2.26    0.86
   0  -4  -2  622.03   28.11
   0  -4  -2  654.49   27.00
   0  -4  -2  655.13   27.06
   0  -4  -2  732.99   26.63
   0  -4  -1  146.72    9.47
   0  -4  -1  139.38    8.51
   0  -4  -1  145.17    8.73
   0  -4  -1  147.07    8.42
   0  -4   0 2233.71   81.44
   0  -4   0 2366.18   80.84
   0  -4   0 2364.23   80.85
   0  -4   1 1320.91   46.60
   0  -4   1 1354.87   49.21
   0  -4   1 1423.53   49.01
   0  -4   1 1408.70   49.10
   0  -4   1 1312.99   45.23
   0  -4   2  391.91   15.62
   0  -4   2  420.03   17.94
   0  -4   2  389.13   17.77
   0  -4   3  719.94   28.66
   0  -4   4    6.21    1.70
   0  -4   5  391.59   18.00
   0  -4   6   68.15    4.20
   0  -4   6   62.43    3.59
   0  -4   6   64.91    5.56
   0  -4   7  710.84   25.63
   0  -4   7  667.68   24.23
   0  -4   7  683.16   24.70
   0  -4   7  693.90   26.69
   0  -4   8  230.40    9.37
   0  -4   8  222.63    9.15
   0  -4   8  207.55    9.18
   0  -4   8  218.73    9.79
   0  -4   9   10.45    1.57
   0  -4   9    9.75    1.32
   0  -4   9    8.95    1.44
   0  -4   9    9.86    1.54
   0  -4   9   10.62    1.46
   0  -4   9    9.31    1.69
   0  -4  10   12.82    1.85
   0  -4  10   10.58    1.63
   0  -4  10   12.34    1.58
   0  -4  10   10.68    1.61
   0  -4  10   10.60    2.09
   0  -4  10   11.50    1.77
   0  -4  10   13.32    2.14
   0  -4  11   41.54    3.13
   0  -4  11   43.52    3.39
   0  -4  11   39.85    3.36
   0  -4  11   37.24    3.09
   0  -4  11   39.10    3.43
   0  -4  11   38.41    3.92
   0  -4  12    8.01    1.39
   0  -4  12    8.42    1.70
   0  -4  12    8.37    1.61
   0  -4  12   12.29    2.23
   0  -4  12    7.64    1.67
   0  -4  13   89.80    4.85
   0  -4  13   93.78    5.26
   0  -4  13   83.44    5.38
   0  -4  14    0.15    0.66
   0  -3 -12    2.51    0.72
   0  -3 -10   18.16    2.09
   0  -3  -9    4.54    2.19
   0  -3  -9    3.46    1.10
   0  -3  -8  125.74   12.31
   0  -3  -8  121.82   10.39
   0  -3  -7   87.16    9.42
   0  -3  -7   90.95    8.28
   0  -3  -6   17.76    1.94
   0  -3  -6   21.28    3.67
   0  -3  -6   21.92    3.46
   0  -3  -5   54.70    5.38
   0  -3  -5   56.67    5.25
   0  -3  -4  138.47    8.74
   0  -3  -4  149.71    8.75
   0  -3  -3 1711.81   66.98
   0  -3  -3 1900.07   66.03
   0  -3  -3 1858.19   65.77
   0  -3  -3 1968.93   64.71
   0  -3  -2  612.03   26.54
   0  -3  -2  679.43   25.84
   0  -3  -2  655.07   25.61
   0  -3  -2  699.35   25.25
   0  -3  -1 1091.90   39.02
   0  -3  -1 1036.14   39.67
   0  -3  -1 1088.38   39.08
   0  -3  -1 1079.91   38.74
   0  -3   0 1131.40   40.88
   0  -3   0 1169.70   40.25
   0  -3   0 1048.98   39.85
   0  -3   1  342.27   14.51
   0  -3   1  340.54   14.58
   0  -3   1  341.86   14.29
   0  -3   1  337.58   12.88
   0  -3   1  316.29   11.82
   0  -3   2  956.72   34.73
   0  -3   3   41.67    3.88
   0  -3   4 2969.20  101.31
   0  -3   5  188.97    9.60
   0  -3   6  221.87    8.73
   0  -3   6  233.30   10.17
   0  -3   6  227.88    9.20
   0  -3   6  218.89    8.92
   0  -3   7  423.76   17.36
   0  -3   7  460.92   17.05
   0  -3   7  456.49   16.66
   0  -3   7  438.70   16.28
   0  -3   8  317.45   12.03
   0  -3   8  304.55   11.83
   0  -3   8  287.61   11.91
   0  -3   8  307.50   12.86
   0  -3   9  258.62   10.92
   0  -3   9  269.90   10.83
   0  -3   9  264.57   10.72
   0  -3   9  272.48   10.57
   0  -3   9  256.85   11.04
   0  -3   9  258.83   10.66
   0  -3   9  265.79   12.08
   0  -3  10   25.61    2.55
   0  -3  10   25.78    2.23
   0  -3  10   24.76    2.44
   0  -3  10   24.58    2.29
   0  -3  10   24.93    2.53
   0  -3  10   21.34    2.29
   0  -3  10   22.65    2.92
   0  -3  11  473.64   18.93
   0  -3  11  482.22   18.04
   0  -3  11  477.56   18.48
   0  -3  11  486.24   18.38
   0  -3  12   43.21    3.66
   0  -3  12   44.94    3.07
   0  -3  12   49.51    3.59
   0  -3  12   42.08    3.25
   0  -3  13   28.77    2.81
   0  -3  13   26.51    2.38
   0  -3  14    5.65    1.23
   0  -2 -12  103.14    5.37
   0  -2 -10   10.08    1.66
   0  -2  -9    9.59    2.60
   0  -2  -8  267.46   15.96
   0  -2  -7  250.19   13.43
   0  -2  -7  239.73   14.10
   0  -2  -6    1.90    1.29
   0  -2  -6    1.93    1.10
   0  -2  -5  235.88   11.64
   0  -2  -5  239.25   12.24
   0  -2  -4  669.93   25.55
   0  -2  -4  670.23   26.04
   0  -2  -3    5.14    0.93
   0  -2  -3    3.83    1.24
   0  -2  -3    6.49    1.34
   0  -2  -2   41.56    3.09
   0  -2  -2   39.11    3.15
   0  -2  -2   35.22    2.78
   0  -2  -1  192.18    8.45
   0  -2  -1  191.62    8.46
   0  -2  -1  177.41    8.30
   0  -2   0 1003.85   33.52
   0  -2   0  958.54   33.39
   0  -2   1  257.83   11.63
   0  -2   1  279.07   10.50
   0  -2   1  290.09    9.90
   0  -2   2  182.53    8.53
   0  -2   3  320.28   13.20
   0  -2   4   88.86    4.92
   0  -2   5  674.45   25.97
   0  -2   5  663.71   23.48
   0  -2   6  580.67   22.96
   0  -2   6  539.16   19.73
   0  -2   6  533.61   19.06
   0  -2   7   75.23    4.04
   0  -2   7   73.32    3.78
   0  -2   7   59.68    4.22
   0  -2   7   69.41    6.19
   0  -2   7   68.21    3.51
   0  -2   7   69.21    4.32
   0  -2   7   74.27    3.83
   0  -2   8  826.13   29.25
   0  -2   8  817.32   28.53
   0  -2   8  840.30   34.67
   0  -2   8  799.59   28.78
   0  -2   9   20.92    2.07
   0  -2   9   24.21    2.17
   0  -2   9   19.44    2.10
   0  -2   9   20.76    1.98
   0  -2   9   20.58    2.29
   0  -2  10  214.39    9.43
   0  -2  10  223.84    9.53
   0  -2  10  212.01    9.48
   0  -2  10  208.69   11.01
   0  -2  10  212.05    9.80
   0  -2  11    3.65    1.12
   0  -2  11    2.69    1.00
   0  -2  11    4.60    1.33
   0  -2  11    2.76    1.40
   0  -2  11    1.58    0.95
   0  -2  12  120.76    6.03
   0  -2  12  110.57    6.05
   0  -2  12  120.24    7.66
   0  -2  12  111.40    6.52
   0  -2  13  105.44    5.40
   0  -2  13   98.44    5.81
   0  -2  13  102.05    6.57
   0  -2  14   10.43    1.51
   0  -1 -13   43.71    2.76
   0  -1 -10   16.01    3.41
   0  -1 -10   16.17    4.13
   0  -1 -10   14.47    1.94
   0  -1  -9  319.59   21.16
   0  -1  -9  363.65   19.50
   0  -1  -8  655.74   31.83
   0  -1  -8  667.46   29.40
   0  -1  -7    7.93    1.90
   0  -1  -7   10.74    2.49
   0  -1  -6  818.40   31.41
   0  -1  -6  832.50   32.51
   0  -1  -5   37.68    3.41
   0  -1  -5   35.96    3.68
   0  -1  -4 2277.94   75.39
   0  -1  -4 2294.93   77.47
   0  -1  -4 2294.94   78.23
   0  -1  -3  592.83   19.08
   0  -1  -3  543.69   18.80
   0  -1  -3  561.75   20.59
   0  -1  -3  567.87   21.09
   0  -1  -2  366.21   12.12
   0  -1  -2  344.12   12.71
   0  -1  -2  365.51   13.42
   0  -1  -2  351.20   13.67
   0  -1  -1   24.20    1.78
   0  -1  -1   28.86    1.86
   0  -1  -1   26.51    1.86
   0  -1   0  275.72   10.40
   0  -1   0  279.56   10.46
   0  -1   1 1234.74   41.04
   0  -1   2  746.18   25.86
   0  -1   3 1966.84   66.60
   0  -1   3 2109.39   67.86
   0  -1   4  999.71   32.06
   0  -1   4  867.27   29.19
   0  -1   5  172.99    8.88
   0  -1   6   13.70    1.29
   0  -1   6   11.62    1.55
   0  -1   6   13.37    2.36
   0  -1   6   13.04    1.29
   0  -1   7   79.64    4.08
   0  -1   7   83.69    4.31
   0  -1   7   76.14    6.48
   0  -1   7   70.51    3.85
   0  -1   7   75.65    4.71
   0  -1   7   78.91    4.11
   0  -1   8  121.50    5.93
   0  -1   8  113.20    5.51
   0  -1   8  121.49    5.90
   0  -1   8  119.61    6.08
   0  -1   8  122.32    9.37
   0  -1   8  115.13    6.78
   0  -1   8  112.20    5.59
   0  -1   8  109.08    5.51
   0  -1   8  125.00    5.84
   0  -1   8  130.13    6.02
   0  -1   8  121.74    5.74
   0  -1   9  104.25    5.66
   0  -1   9   97.14    5.76
   0  -1   9   97.93    5.24
   0  -1   9  110.12    5.67
   0  -1   9  105.43    5.51
   0  -1   9   96.77    5.29
   0  -1   9  100.21    6.59
   0  -1   9   99.97    5.37
   0  -1   9  100.13    5.57
   0  -1  10    2.71    1.04
   0  -1  10    3.33    1.14
   0  -1  10    3.25    1.16
   0  -1  10    4.07    1.57
   0  -1  10    3.57    1.13
   0  -1  11   59.16    4.10
   0  -1  11   54.83    3.95
   0  -1  11   49.82    4.73
   0  -1  11   50.86    4.09
   0  -1  12   52.94    3.75
   0  -1  12   48.68    3.62
   0  -1  12   49.63    4.53
   0  -1  12   48.80    3.98
   0  -1  13    1.22    0.76
   0  -1  13    1.72    0.78
   0  -1  13    1.73    0.91
   0  -1  13    1.40    0.83
   0  -1  14   28.64    2.36
   0   0 -13    0.71    0.61
   0   0 -10   44.11    7.01
   0   0 -10   51.11    6.23
   0   0  -9  137.22   10.78
   0   0  -8   74.32    6.31
   0   0  -8   80.55    7.34
   0   0  -7  978.52   37.29
   0   0  -7  994.29   38.83
   0   0  -6   11.67    2.27
   0   0  -6   15.83    2.32
   0   0  -5  352.77   13.86
   0   0  -5  354.79   14.76
   0   0  -5  357.57   15.53
   0   0  -4 1483.83   49.15
   0   0  -4 1385.22   50.25
   0   0  -4 1437.31   49.73
   0   0  -3  458.21   16.55
   0   0  -3  459.12   16.85
   0   0  -2  206.33    7.94
   0   0   2  216.99    8.02
   0   0   2  223.37    8.42
   0   0   3  480.83   16.99
   0   0   3  476.20   17.61
   0   0   4 1514.56   52.26
   0   0   5  356.99   15.20
   0   0   6   13.57    1.37
   0   0   6   11.16    2.16
   0   0   6   13.72    1.36
   0   0   6   13.76    1.76
   0   0   6   14.04    1.43
   0   0   7 1034.17   34.50
   0   0   7 1009.72   34.51
   0   0   7 1036.40   39.04
   0   0   7  987.25   34.38
   0   0   7  927.39   35.44
   0   0   7  971.45   34.53
   0   0   8   76.64    4.64
   0   0   8   88.29    4.74
   0   0   8   84.15    4.69
   0   0   8   66.02    6.78
   0   0   8   71.29    4.36
   0   0   8   76.31    5.36
   0   0   8   73.90    4.23
   0   0   8   86.16    4.69
   0   0   9  120.41    6.95
   0   0   9  146.07    7.25
   0   0   9  142.96    6.83
   0   0   9  146.94    7.45
   0   0   9  149.67    7.22
   0   0   9  137.86    8.13
   0   0   9  117.96   10.10
   0   0   9  137.98    6.99
   0   0   9  147.60    6.59
   0   0   9  143.86    7.22
   0   0  10   49.73    3.96
   0   0  10   46.98    3.75
   0   0  10   48.49    3.73
   0   0  10   54.36    4.72
   0   0  10   48.68    3.90
   0   0  11   48.80    3.82
   0   0  11   54.93    4.52
   0   0  11   43.43    3.83
   0   0  12   74.50    4.80
   0   0  12   75.34    4.76
   0   0  12   74.70    5.14
   0   0  12   81.91    5.17
   0   0  13    1.55    0.83
   0   0  13    3.48    0.97
   0   0  13    2.24    0.99
   0   1 -11   62.89    8.31
   0   1 -11   44.10    6.02
   0   1 -10    1.26    1.36
   0   1  -9   91.45    7.59
   0   1  -9  108.72    9.24
   0   1  -8  102.86    7.60
   0   1  -8  110.50    8.77
   0   1  -7   67.57    5.57
   0   1  -7   70.04    6.26
   0   1  -7   82.55    5.56
   0   1  -6   13.18    2.15
   0   1  -6   23.17    2.61
   0   1  -5  157.11    8.17
   0   1  -5  168.14    8.32
   0   1  -4  983.58   32.51
   0   1  -3 2325.94   76.84
   0   1  -2  975.52   33.26
   0   1  -1 1331.58   44.51
   0   1  -1 1342.69   44.18
   0   1   0  243.35    9.47
   0   1   1   25.62    1.65
   0   1   1   23.83    1.94
   0   1   2  346.83   13.19
   0   1   2  370.78   13.30
   0   1   3  657.43   23.54
   0   1   3  573.49   22.15
   0   1   3  585.84   22.79
   0   1   3  665.23   21.24
   0   1   4 2443.27   82.05
   0   1   4 2402.41   80.87
   0   1   5   47.27    4.08
   0   1   5   45.45    2.69
   0   1   6  825.79   32.76
   0   1   6  800.12   30.21
   0   1   6  880.45   29.66
   0   1   6  857.72   29.57
   0   1   7    7.97    1.30
   0   1   7    6.26    1.20
   0   1   7    8.82    1.36
   0   1   7    8.43    1.56
   0   1   7    8.65    2.09
   0   1   7   10.46    1.50
   0   1   7    6.83    1.15
   0   1   8  750.35   26.45
   0   1   8  687.14   26.17
   0   1   8  706.26   27.22
   0   1   8  755.48   26.60
   0   1   8  735.30   25.80
   0   1   8  738.40   26.41
   0   1   9  396.41   16.24
   0   1   9  375.01   15.99
   0   1   9  421.07   17.10
   0   1   9  416.44   16.36
   0   1   9  398.73   16.68
   0   1   9  389.58   15.40
   0   1   9  406.01   16.29
   0   1  10   16.43    2.30
   0   1  10   15.81    2.36
   0   1  10   16.05    2.26
   0   1  10   18.30    2.49
   0   1  10   18.91    2.35
   0   1  10   13.78    1.76
   0   1  10   16.46    2.27
   0   1  11  159.68    8.70
   0   1  11  175.78    8.67
   0   1  11  173.70    8.64
   0   1  11  178.86    8.91
   0   1  12    9.16    1.58
   0   1  12   10.78    1.71
   0   1  12    9.98    1.76
   0   1  13   54.71    3.25
   0   1  13   47.47    3.16
   0   1  13   58.55    3.63
   0   2 -11    2.77    1.49
   0   2 -10  195.85   14.10
   0   2  -9   20.41    3.45
   0   2  -9   26.95    4.55
   0   2  -8  838.56   32.35
   0   2  -8  766.39   33.73
   0   2  -8  798.38   32.56
   0   2  -7   80.99    6.30
   0   2  -7   76.43    6.07
   0   2  -6  537.19   22.40
   0   2  -5  750.34   26.20
   0   2  -4   96.79    5.11
   0   2  -3  383.17   15.27
   0   2  -2  233.83    9.05
   0   2  -2  222.40    8.36
   0   2  -1  273.59   10.89
   0   2   0  883.63   31.93
   0   2   1  164.18    8.18
   0   2   2   30.99    2.51
   0   2   2   29.14    2.82
   0   2   3    4.78    1.47
   0   2   3    4.87    1.08
   0   2   3    4.54    1.04
   0   2   4  701.57   25.92
   0   2   4  662.24   24.74
   0   2   5  241.42    9.86
   0   2   5  254.69    9.89
   0   2   5  242.66   12.08
   0   2   5  245.13    9.88
   0   2   5  246.76   10.70
   0   2   6    1.37    0.69
   0   2   6    0.94    0.60
   0   2   6    1.46    0.73
   0   2   6    0.95    0.71
   0   2   7  234.11   10.52
   0   2   7  258.48   10.49
   0   2   8  311.73   13.41
   0   2   8  315.53   13.48
   0   2   8  320.75   13.64
   0   2   8  321.08   13.50
   0   2   9    7.41    1.54
   0   2   9    4.35    1.17
   0   2   9    3.51    1.32
   0   2   9    2.25    1.33
   0   2   9    5.26    1.22
   0   2   9    5.16    1.42
   0   2  10   14.46    2.12
   0   2  10   12.57    2.08
   0   2  10   10.24    2.09
   0   2  10   10.88    1.71
   0   2  10   13.06    1.74
   0   2  10   12.76    2.08
   0   2  11   31.34    3.21
   0   2  11   36.62    3.30
   0   2  11   41.45    3.54
   0   2  12   92.00    5.34
   0   2  12   96.58    5.30
   0   2  12  109.14    5.69
   0   2  13   10.87    1.18
   0   2  13   13.36    1.25
   0   3 -11  432.87   24.46
   0   3 -10   17.98    3.67
   0   3 -10   28.63    5.02
   0   3  -9  232.87   14.09
   0   3  -9  243.54   14.29
   0   3  -8  277.53   15.22
   0   3  -8  296.99   15.84
   0   3  -7  410.37   19.66
   0   3  -6  226.41   10.14
   0   3  -6  254.09   10.64
   0   3  -5  209.40    8.99
   0   3  -5  196.06    7.57
   0   3  -5  220.90   10.04
   0   3  -4 3805.01  121.86
   0   3  -4 3540.30  120.49
   0   3  -4 3766.02  123.55
   0   3  -3   44.87    2.89
   0   3  -3   39.10    3.91
   0   3  -2  863.77   31.03
   0   3  -2  871.64   32.93
   0   3  -1  366.22   15.75
   0   3  -1  352.17   14.92
   0   3   0 1119.04   41.23
   0   3   1 1025.87   38.20
   0   3   2  616.66   22.98
   0   3   2  557.62   23.43
   0   3   3 1771.49   65.58
   0   3   3 1832.51   62.92
   0   3   4  152.57    6.86
   0   3   4  154.56    6.89
   0   3   4  157.31    6.87
   0   3   4  154.05    8.20
   0   3   4  168.03   10.61
   0   3   5   43.27    4.43
   0   3   5   52.99    3.47
   0   3   5   55.45    3.51
   0   3   5   50.88    3.42
   0   3   6   20.67    2.24
   0   3   6   21.24    2.04
   0   3   6   21.02    2.21
   0   3   6   21.01    2.22
   0   3   7  100.94    5.41
   0   3   7   94.22    5.71
   0   3   7  101.47    5.86
   0   3   8  136.59    7.65
   0   3   8  144.75    7.83
   0   3   8  161.11    8.20
   0   3   9    4.22    1.43
   0   3   9    5.18    1.40
   0   3   9    3.98    1.15
   0   3   9    6.49    1.60
   0   3  10   23.90    2.58
   0   3  10   20.76    2.17
   0   3  10   26.93    2.91
   0   3  11   34.66    3.00
   0   3  11   22.39    2.49
   0   3  12    2.89    0.80
   0   3  12    2.78    0.80
   0   3  12    3.29    0.92
   0   4 -11   41.90    6.50
   0   4 -10    8.21    2.63
   0   4 -10   13.80    3.60
   0   4 -10   14.36    3.30
   0   4  -9   11.29    2.97
   0   4  -9   11.77    3.06
   0   4  -8  203.19   13.52
   0   4  -5  444.21   19.71
   0   4  -4    2.86    1.49
   0   4  -4    2.89    0.85
   0   4  -4    4.98    1.55
   0   4  -3  721.59   26.93
   0   4  -3  709.63   29.19
   0   4  -2  401.89   18.60
   0   4  -2  408.43   17.14
   0   4  -2  413.60   18.10
   0   4  -1 1549.91   56.18
   0   4   0 2360.95   83.33
   0   4   0 2353.80   82.95
   0   4   1  137.21    8.22
   0   4   1  132.05    9.28
   0   4   1  148.78    9.25
   0   4   2  660.68   26.50
   0   4   2  631.40   27.25
   0   4   2  669.29   23.65
   0   4   3    1.79    1.01
   0   4   3    1.51    1.53
   0   4   3    2.85    0.93
   0   4   3    2.31    0.89
   0   4   3    1.58    0.67
   0   4   4  773.00   27.20
   0   4   4  788.16   27.05
   0   4   4  746.94   27.02
   0   4   4  765.88   26.78
   0   4   4  683.87   29.22
   0   4   5  208.50    9.13
   0   4   5  214.99    9.27
   0   4   5  204.50    9.23
   0   4   6  199.77    9.34
   0   4   6  199.90    9.51
   0   4   6  206.85    9.65
   0   4   7  359.97   14.92
   0   4   7  351.04   15.03
   0   4   8   12.28    1.97
   0   4   8   10.57    1.92
   0   4   8   10.52    2.07
   0   4   8   12.23    2.04
   0   4   9  165.13    8.15
   0   4   9  179.85    8.81
   0   4   9  170.34    8.24
   0   4   9  153.43    8.55
   0   4  10    0.57    0.65
   0   4  10    0.63    0.72
   0   4  10   -0.19    0.98
   0   4  11  109.84    5.57
   0   4  12   36.08    2.05
   0   4  12   36.26    1.98
   0   5 -11   40.59    6.60
   0   5 -11   34.55    5.43
   0   5 -10   81.84    8.94
   0   5 -10   69.45    8.10
   0   5  -9   57.59    7.37
   0   5  -8   19.94    4.28
   0   5  -6  187.60   11.72
   0   5  -5  419.37   20.35
   0   5  -4  751.02   30.85
   0   5  -4  812.28   32.65
   0   5  -3  277.58   14.41
   0   5  -3  292.26   15.50
   0   5  -2  153.85    9.71
   0   5  -2  145.23    9.99
   0   5  -1  192.59   11.46
   0   5   0  115.35    8.54
   0   5   0   98.61    5.06
   0   5   1  325.52   12.43
   0   5   1  293.99   15.12
   0   5   1  319.91   17.21
   0   5   1  302.47   11.94
   0   5   1  292.43   12.14
   0   5   2    2.18    1.56
   0   5   2    2.09    0.93
   0   5   2    3.67    1.58
   0   5   2    3.67    0.93
   0   5   2    2.37    0.76
   0   5   3  254.31   14.76
   0   5   3  241.00   16.49
   0   5   3  269.33   14.57
   0   5   3  292.60   12.11
   0   5   3  299.55   11.73
   0   5   3  288.44   11.92
   0   5   4  336.75   13.97
   0   5   4  350.76   13.64
   0   5   4  318.18   13.66
   0   5   4  337.48   13.34
   0   5   5  161.84    7.92
   0   5   5  146.81    7.22
   0   5   5  144.13    7.30
   0   5   5  149.19    7.63
   0   5   6  110.20    6.30
   0   5   6  121.34    6.60
   0   5   6  110.85    6.57
   0   5   7   95.25    5.73
   0   5   7   95.50    5.91
   0   5   8  190.85    9.56
   0   5   8  200.97    9.07
   0   5   8  169.93    9.27
   0   5   8  179.58    8.83
   0   5   9    8.65    1.42
   0   5   9    8.40    1.59
   0   5   9    7.40    1.33
   0   5   9    8.56    1.64
   0   5   9    9.57    1.75
   0   5  10   85.62    4.60
   0   5  10   78.38    4.47
   0   5  10   76.16    4.46
   0   5  11   21.98    1.64
   0   6 -11   64.04    7.67
   0   6 -11   64.07    7.98
   0   6 -10   14.09    4.11
   0   6  -9  460.28   26.21
   0   6  -8  627.47   31.55
   0   6  -6  328.21   16.32
   0   6  -6  350.12   18.66
   0   6  -5   99.40    7.60
   0   6  -5   90.83    8.36
   0   6  -4  384.65   18.90
   0   6  -4  417.73   20.68
   0   6  -3   85.10    7.18
   0   6  -3   80.63    7.64
   0   6  -2  589.91   24.81
   0   6  -2  514.07   19.16
   0   6  -1  593.42   26.55
   0   6  -1  563.69   20.77
   0   6  -1  558.97   20.39
   0   6   0  212.75    9.37
   0   6   0  225.15   13.87
   0   6   0  207.65   10.47
   0   6   0  216.37    9.07
   0   6   0  220.84    9.41
   0   6   1  155.33   11.03
   0   6   1  142.47    6.75
   0   6   1  146.64    7.07
   0   6   1  147.93    7.18
   0   6   1  153.85   10.24
   0   6   2   18.39    1.97
   0   6   2   19.37    2.16
   0   6   2   20.96    3.53
   0   6   2   14.73    2.04
   0   6   3  128.08    7.01
   0   6   3  134.15    6.70
   0   6   3  135.80    7.04
   0   6   3  145.08    9.91
   0   6   3  129.98   11.44
   0   6   3  112.51    8.86
   0   6   3  136.95    6.51
   0   6   4  493.07   18.77
   0   6   4  477.07   19.31
   0   6   4  503.04   19.05
   0   6   4  492.71   19.64
   0   6   5   28.09    2.39
   0   6   5   28.51    2.75
   0   6   5   31.30    2.89
   0   6   5   27.15    2.88
   0   6   5   34.11    3.33
   0   6   6    5.47    1.31
   0   6   6    5.64    1.33
   0   6   6    4.76    1.19
   0   6   6    5.71    1.53
   0   6   7   35.54    3.02
   0   6   7   37.55    3.51
   0   6   7   33.36    2.98
   0   6   8    7.23    1.34
   0   6   8   10.73    1.71
   0   6   8    8.84    1.43
   0   6   8    9.01    1.59
   0   6   8    9.20    1.63
   0   6   9    9.63    1.45
   0   6   9    9.11    1.26
   0   6   9   10.56    1.50
   0   6   9   11.25    1.51
   0   6   9   10.64    1.35
   0   6  10    6.30    0.92
   0   6  10    7.83    0.96
   0   7 -11   27.40    5.14
   0   7 -11   32.25    5.86
   0   7 -10   64.35    8.89
   0   7  -9  198.40   15.85
   0   7  -8   46.48    6.18
   0   7  -8   40.11    6.42
   0   7  -6    4.50    1.92
   0   7  -6    3.07    2.09
   0   7  -5  673.16   29.33
   0   7  -5  708.33   32.02
   0   7  -4  616.79   27.72
   0   7  -4  651.38   29.89
   0   7  -3   14.49    3.16
   0   7  -3   13.38    3.35
   0   7  -3   15.70    1.75
   0   7  -2  496.00   18.69
   0   7  -2  515.19   19.17
   0   7  -1  128.30    6.52
   0   7  -1  124.38    6.12
   0   7  -1  127.79    8.27
   0   7  -1  134.67   10.58
   0   7  -1  138.50   10.98
   0   7   0  843.26   31.01
   0   7   0  849.05   30.51
   0   7   0  869.70   30.96
   0   7   0  866.21   36.29
   0   7   1  224.14   10.24
   0   7   1  251.79   15.92
   0   7   1  228.90   14.06
   0   7   1  224.70    9.77
   0   7   1  229.47   10.12
   0   7   2  549.91   25.87
   0   7   2  465.52   23.93
   0   7   2  533.06   20.34
   0   7   2  523.77   19.66
   0   7   2  518.97   20.07
   0   7   3   89.20    5.60
   0   7   3   89.54    9.61
   0   7   3   88.72    5.13
   0   7   3   81.98    5.28
   0   7   3   87.36    4.95
   0   7   4    1.94    1.14
   0   7   4    0.97    0.78
   0   7   4    1.19    0.73
   0   7   4    1.98    0.85
   0   7   4    0.64    0.79
   0   7   5   91.77    5.75
   0   7   5   81.70    5.03
   0   7   5   86.34    5.30
   0   7   5   86.01    5.03
   0   7   6    8.98    1.69
   0   7   6    8.98    1.51
   0   7   6    9.07    1.46
   0   7   7  177.44    7.96
   0   7   7  168.95    8.06
   0   7   7  163.78    8.06
   0   7   7  163.20    7.55
   0   7   8   78.27    4.09
   0   7   8   74.49    4.15
   0   7   8   66.57    3.81
   0   7   8   72.72    4.19
   0   7   8   72.52    3.85
   0   7   9   15.97    1.36
   0   7   9   19.91    1.52
   0   8 -10    1.71    1.30
   0   8  -9   45.64    7.07
   0   8  -8   79.19    8.69
   0   8  -7   25.07    4.94
   0   8  -6   85.26    5.07
   0   8  -6   79.08    8.56
   0   8  -5    4.14    2.21
   0   8  -5    3.40    1.94
   0   8  -4   82.67    8.04
   0   8  -4   97.92    9.66
   0   8  -4   85.95    4.91
   0   8  -3   64.23    4.35
   0   8  -3   72.64    6.95
   0   8  -3   61.77    3.98
   0   8  -2   86.53    5.15
   0   8  -2   81.85    8.83
   0   8  -2   96.65    9.01
   0   8  -2   78.92    4.62
   0   8  -2   76.72    6.74
   0   8  -1  510.90   19.31
   0   8  -1  526.46   19.80
   0   8  -1  513.74   19.89
   0   8  -1  506.64   25.23
   0   8   0  182.00    8.35
   0   8   0  197.29    8.92
   0   8   0  208.30   14.53
   0   8   0  184.29   12.78
   0   8   0  174.02    8.85
   0   8   1   12.62    2.85
   0   8   1    7.80    2.88
   0   8   1    8.64    1.60
   0   8   1    9.81    1.50
   0   8   1   12.82    1.93
   0   8   2   18.76    1.98
   0   8   2   19.67    2.15
   0   8   2   20.12    2.32
   0   8   2   20.27    2.48
   0   8   3   75.91    4.50
   0   8   3   77.22    4.62
   0   8   3   73.72    4.86
   0   8   3   77.41    5.16
   0   8   4  287.94   12.00
   0   8   4  311.57   12.38
   0   8   4  303.54   12.46
   0   8   4  302.77   12.72
   0   8   4  323.18   13.34
   0   8   5    0.57    0.61
   0   8   5   -0.14    0.60
   0   8   5    0.18    0.73
   0   8   5    0.85    0.82
   0   8   5    0.93    0.68
   0   8   6  164.07    7.72
   0   8   6  153.49    7.05
   0   8   6  169.00    7.41
   0   8   6  170.93    7.69
   0   8   7   20.11    1.65
   0   8   7   20.13    1.76
   0   8   7   24.98    2.02
   0   8   7   20.71    1.85
   0   8   7   23.44    2.02
   0   8   8   38.07    2.06
   0   8   8   45.62    2.35
   0   9  -9    3.34    1.09
   0   9  -8  132.10   11.76
   0   9  -8  144.80   12.56
   0   9  -7    5.80    2.48
   0   9  -7    9.29    2.98
   0   9  -6  302.63   18.55
   0   9  -5  127.77   10.11
   0   9  -5  122.05    6.86
   0   9  -5  128.66   10.62
   0   9  -4   72.67    4.93
   0   9  -4   74.14    7.94
   0   9  -4   79.99    4.64
   0   9  -3   51.94    3.62
   0   9  -3   63.59    4.33
   0   9  -3   54.45    7.04
   0   9  -2    3.18    1.05
   0   9  -2    4.69    1.02
   0   9  -2    6.32    2.36
   0   9  -2    4.49    2.29
   0   9  -2    3.61    1.23
   0   9  -1   21.08    4.63
   0   9  -1   15.60    1.86
   0   9  -1   17.62    2.15
   0   9  -1   13.48    3.94
   0   9  -1   13.52    3.41
   0   9  -1   15.88    2.18
   0   9   0   98.20    9.51
   0   9   0   96.94    9.77
   0   9   0   92.28    8.74
   0   9   0   84.06    4.91
   0   9   0   88.77    5.40
   0   9   0  100.09    5.80
   0   9   1   11.12    1.73
   0   9   1   10.74    1.53
   0   9   1   11.48    3.38
   0   9   1   11.88    1.49
   0   9   1   10.49    1.88
   0   9   2   79.31    4.28
   0   9   2   69.97    4.30
   0   9   2   77.02    4.74
   0   9   2   72.31    4.93
   0   9   3   48.47    3.25
   0   9   3   46.98    3.12
   0   9   3   49.24    3.23
   0   9   3   45.56    3.38
   0   9   3   49.85    3.79
   0   9   4   11.03    1.33
   0   9   4    9.65    1.30
   0   9   4   13.32    1.81
   0   9   5   26.44    2.31
   0   9   5   23.71    1.87
   0   9   5   24.37    1.92
   0   9   5   24.74    2.16
   0   9   6    2.43    0.70
   0   9   6    1.87    0.52
   0   9   6    2.54    0.72
   0   9   6    2.71    0.70
   0   9   7   24.61    1.45
   0  10  -8   19.89    2.10
   0  10  -7    5.07    1.42
   0  10  -7    9.33    2.79
   0  10  -7    7.35    2.39
   0  10  -6  222.64   14.76
   0  10  -6  222.58   15.83
   0  10  -6  203.87    9.66
   0  10  -6  189.87    8.79
   0  10  -5   32.96    4.80
   0  10  -5   26.09    5.29
   0  10  -5   30.20    2.99
   0  10  -5   30.73    2.61
   0  10  -4  155.54    7.46
   0  10  -4  171.93   13.34
   0  10  -4  170.05   12.62
   0  10  -4  176.80    8.46
   0  10  -3   30.80    5.71
   0  10  -3   27.67    2.45
   0  10  -3   27.71    2.75
   0  10  -3   26.95    4.83
   0  10  -3   28.99    5.05
   0  10  -3   30.39    2.98
   0  10  -2  294.05   18.30
   0  10  -2  269.42   17.04
   0  10  -2  255.65   16.66
   0  10  -2  256.43   10.68
   0  10  -2  253.73   11.28
   0  10  -2  262.78   11.63
   0  10  -1   47.39    6.63
   0  10  -1   46.93    5.84
   0  10  -1   39.06    2.91
   0  10  -1   40.74    3.31
   0  10  -1   44.50    3.58
   0  10   0   20.20    2.01
   0  10   0   22.12    2.56
   0  10   1   56.63    3.83
   0  10   1   61.16    4.20
   0  10   2   11.31    1.43
   0  10   2    9.26    1.37
   0  10   2   12.31    1.73
   0  10   3  137.57    6.61
   0  10   4   24.25    1.89
   0  10   4   22.99    1.98
   0  10   5   11.59    1.05
   0  10   5   11.30    1.17
   0  11 -12   14.98    1.55
   0  11 -11    1.08    0.61
   0  11 -10   -0.14    0.62
   0  11  -9    8.66    1.48
   0  11  -8   23.60    2.45
   0  11  -7   32.14    2.93
   0  11  -6   36.66    3.15
   0  11  -5  122.78    6.47
   0  11  -5  121.00    6.51
   0  11  -4   11.81    1.68
   0  11  -4   12.62    1.86
   0  11  -3   24.89    2.39
   0  11  -3   22.39    2.42
   0  11  -2    1.47    0.76
   0  11  -2    1.50    0.93
   0  11  -1   54.06    3.57
   0  11  -1   53.89    3.79
   0  11   0  127.08    6.08
   0  11   0  133.97    6.54
   0  11   1    4.30    0.86
   0  11   1    1.04    0.74
   0  11   2   98.58    4.52
   0  11   2  105.67    5.04
   0  11   3    2.17    0.48
   0  11   3    2.15    0.59
   0  12 -11    0.08    0.38
   0  12 -10   35.84    2.48
   0  12  -9   43.07    2.93
   0  12  -8    3.73    0.92
   0  12  -8    2.60    0.83
   0  12  -7    2.87    0.91
   0  12  -7    3.29    0.90
   0  12  -6    2.28    0.78
   0  12  -6    1.63    0.82
   0  12  -5   27.18    2.36
   0  12  -5   26.50    2.37
   0  12  -4   15.42    1.73
   0  12  -4   17.62    1.89
   0  12  -3    1.00    0.57
   0  12  -3    1.31    0.66
   0  12  -2   24.37    1.96
   0  12  -2   24.51    2.18
   0  12  -1   19.63    1.81
   0  12   0    7.37    1.08
   0  12   0    8.63    1.02
   0  12   1    3.74    0.67
   0  13  -8   26.77    1.91
   0  13  -7    0.61    0.44
   0  13  -7    0.43    0.46
   0  13  -6   40.10    2.54
   0  13  -6   50.87    2.80
   0  13  -5   25.23    1.92
   0  13  -4    0.86    0.52
   0  13  -3    7.40    0.97
   1 -13   1    9.30    0.93
   1 -13   3   17.31    1.30
   1 -13   3   13.66    1.23
   1 -13   3   16.31    1.31
   1 -13   4   13.46    1.21
   1 -13   4   10.73    1.17
   1 -13   4   11.63    1.22
   1 -13   5    0.38    0.35
   1 -13   5    0.56    0.44
   1 -13   5    1.08    0.46
   1 -13   7   47.18    2.68
   1 -13   7   47.84    2.64
   1 -13   8    2.94    0.59
   1 -13   8    2.91    0.58
   1 -13   9   22.79    1.52
   1 -12  -2   32.19    1.74
   1 -12   0   13.41    1.32
   1 -12   1    4.71    0.85
   1 -12   1    5.31    0.77
   1 -12   1    5.91    0.86
   1 -12   1    5.69    0.83
   1 -12   2   43.19    2.74
   1 -12   2   41.51    2.64
   1 -12   2   38.10    2.54
   1 -12   3   40.76    2.74
   1 -12   3   37.00    2.52
   1 -12   3   36.51    2.61
   1 -12   4    0.25    0.51
   1 -12   4    0.23    0.52
   1 -12   4    0.09    0.33
   1 -12   5   21.76    2.09
   1 -12   5   26.85    2.37
   1 -12   5   25.92    2.19
   1 -12   5   23.04    1.92
   1 -12   6   13.71    1.55
   1 -12   6   10.23    1.34
   1 -12   7    0.23    0.48
   1 -12   7    0.63    0.57
   1 -12   7    0.48    0.45
   1 -12   8    8.11    1.15
   1 -12   8    7.27    1.05
   1 -12   8    5.96    1.03
   1 -12   9   14.14    1.34
   1 -12   9   14.92    1.43
   1 -12   9   12.73    1.26
   1 -12  10   18.35    1.61
   1 -12  11   39.10    2.19
   1 -11  -3   10.55    1.09
   1 -11  -2    6.44    0.96
   1 -11  -1  134.50    5.70
   1 -11   0    6.40    1.05
   1 -11   0    7.46    1.34
   1 -11   0    6.40    1.15
   1 -11   0    5.68    0.97
   1 -11   1  137.78    6.56
   1 -11   1  140.47    6.65
   1 -11   1  148.67    6.61
   1 -11   1  138.08    6.42
   1 -11   2   56.58    3.76
   1 -11   2   54.20    3.57
   1 -11   2   59.72    3.75
   1 -11   2   60.64    3.76
   1 -11   3    5.53    1.15
   1 -11   3    4.70    1.00
   1 -11   3    3.76    1.02
   1 -11   4   35.06    2.91
   1 -11   4   27.93    2.39
   1 -11   4   35.37    2.89
   1 -11   4   30.94    2.67
   1 -11   5   22.40    2.32
   1 -11   6  111.10    5.87
   1 -11   6  103.93    5.83
   1 -11   6  112.81    6.00
   1 -11   6  115.67    5.67
   1 -11   7   44.78    3.33
   1 -11   7   38.14    3.26
   1 -11   7   46.37    3.34
   1 -11   7   46.24    3.26
   1 -11   8   20.73    2.08
   1 -11   8   27.05    2.34
   1 -11   8   20.54    2.05
   1 -11   8   22.44    2.20
   1 -11   9   15.88    1.67
   1 -11   9   16.68    1.76
   1 -11   9   16.25    1.72
   1 -11  10    6.03    1.03
   1 -11  10    6.16    1.25
   1 -11  11   11.10    1.20
   1 -11  11   15.45    1.60
   1 -11  12    0.78    0.56
   1 -10  -4   15.46    1.47
   1 -10  -4   14.85    1.33
   1 -10  -3   29.62    2.38
   1 -10  -3   25.58    1.98
   1 -10  -3   28.92    2.30
   1 -10  -2  132.79    6.02
   1 -10  -2  139.43    6.58
   1 -10  -1    1.77    0.65
   1 -10  -1    1.97    0.66
   1 -10  -1    2.51    0.80
   1 -10   0   43.19    3.26
   1 -10   0   48.59    3.56
   1 -10   0   50.65    3.30
   1 -10   0   49.93    3.31
   1 -10   1   16.66    1.88
   1 -10   1   13.24    1.81
   1 -10   1   15.97    1.92
   1 -10   1   13.41    3.83
   1 -10   1   15.22    1.84
   1 -10   1   19.85    3.70
   1 -10   2   56.34    3.78
   1 -10   2   47.24    3.54
   1 -10   2   59.07    4.19
   1 -10   2   47.64    3.65
   1 -10   2   51.40    6.58
   1 -10   2   51.18    3.69
   1 -10   3  190.03    8.60
   1 -10   3  170.46    8.58
   1 -10   3  187.74    8.44
   1 -10   3  178.31   13.58
   1 -10   3  185.46    8.67
   1 -10   4   -0.14    0.54
   1 -10   4    0.68    0.91
   1 -10   4    0.18    0.72
   1 -10   4    1.36    1.64
   1 -10   4    0.71    0.66
   1 -10   5  181.74    8.01
   1 -10   6   19.49    2.26
   1 -10   6   18.05    2.18
   1 -10   6   18.88    2.27
   1 -10   6   15.24    4.06
   1 -10   6   15.84    2.24
   1 -10   7  192.55    8.89
   1 -10   7  178.63    8.73
   1 -10   7  192.32    8.77
   1 -10   7  197.31   14.11
   1 -10   7  185.58    8.57
   1 -10   8   10.66    1.58
   1 -10   8    7.52    1.39
   1 -10   8    6.53    1.41
   1 -10   8    7.34    1.37
   1 -10   9   40.05    2.93
   1 -10   9   38.79    2.99
   1 -10   9   37.12    2.96
   1 -10  10  119.82    5.94
   1 -10  11    0.65    0.69
   1 -10  11    2.90    0.99
   1 -10  12   10.30    1.20
   1 -10  12   10.11    1.40
   1 -10  13   -0.35    0.59
   1  -9  -6   50.64    2.78
   1  -9  -6   50.65    2.70
   1  -9  -5    0.75    0.53
   1  -9  -5    0.42    0.40
   1  -9  -5    0.21    0.46
   1  -9  -4   38.30    2.78
   1  -9  -4   36.71    2.84
   1  -9  -3    2.66    0.91
   1  -9  -3    3.24    0.89
   1  -9  -2   95.48    5.16
   1  -9  -2  113.79    5.94
   1  -9  -2   96.07    5.60
   1  -9  -2   99.65    5.27
   1  -9  -1   58.45    3.67
   1  -9  -1   58.41    3.68
   1  -9  -1   68.15    4.47
   1  -9  -1   56.98    3.85
   1  -9  -1   49.83    7.16
   1  -9  -1   56.54    3.63
   1  -9   0   29.71    2.61
   1  -9   0   25.38    2.21
   1  -9   0   30.89    2.66
   1  -9   0   29.34    2.73
   1  -9   0   33.78    3.05
   1  -9   0   25.15    2.54
   1  -9   0   27.67    5.34
   1  -9   0   37.05    5.29
   1  -9   1  101.50    5.65
   1  -9   1  100.72    5.60
   1  -9   1  101.90    5.70
   1  -9   1  105.94    6.04
   1  -9   1   96.18    5.64
   1  -9   1  125.61   11.18
   1  -9   1  100.64    9.53
   1  -9   2    2.76    0.99
   1  -9   2    5.02    1.14
   1  -9   2    3.21    1.07
   1  -9   2    3.66    2.09
   1  -9   2    7.13    2.61
   1  -9   2    3.28    1.06
   1  -9   3    8.66    1.56
   1  -9   3    8.92    1.61
   1  -9   3    9.55    1.46
   1  -9   3    8.04    2.81
   1  -9   3   11.34    1.80
   1  -9   4  121.70    6.11
   1  -9   4  127.70   11.24
   1  -9   4  124.93   11.92
   1  -9   4  117.70    6.50
   1  -9   5  216.15    9.71
   1  -9   5  204.57    8.94
   1  -9   5  210.35    9.76
   1  -9   5  208.87   15.06
   1  -9   5  210.67    9.79
   1  -9   6   48.21    4.02
   1  -9   6   61.31    4.24
   1  -9   6   61.67    4.15
   1  -9   6   56.26    7.25
   1  -9   6   57.13    4.12
   1  -9   7  217.93    9.97
   1  -9   7  209.70    9.93
   1  -9   7  236.34   10.02
   1  -9   7  205.34   15.15
   1  -9   7  211.64    9.72
   1  -9   8    7.18    1.35
   1  -9   8    7.30    2.38
   1  -9   8    6.26    1.38
   1  -9   8    6.51    1.51
   1  -9   8    6.93    1.36
   1  -9   9   28.27    2.48
   1  -9   9   30.65    2.65
   1  -9   9   25.43    2.51
   1  -9   9   28.73    2.70
   1  -9  10   -0.15    0.93
   1  -9  10    0.37    1.07
   1  -9  11   62.79    3.90
   1  -9  11   59.88    4.13
   1  -9  12    0.45    0.67
   1  -9  12    0.56    0.83
   1  -9  13   37.47    2.38
   1  -9  13   43.31    2.79
   1  -8  -7   37.58    2.49
   1  -8  -7   37.32    2.26
   1  -8  -6   27.60    2.30
   1  -8  -6   26.33    2.18
   1  -8  -5  202.53    9.26
   1  -8  -5  202.60    9.24
   1  -8  -4    2.90    1.04
   1  -8  -4    0.85    0.69
   1  -8  -4    2.73    0.95
   1  -8  -3  220.41    9.87
   1  -8  -3  235.59   10.67
   1  -8  -3  240.95   10.42
   1  -8  -2  159.20    7.72
   1  -8  -2  178.71    8.34
   1  -8  -2  156.05    8.09
   1  -8  -2  161.33    7.77
   1  -8  -2  175.58    7.59
   1  -8  -1   58.85    3.83
   1  -8  -1   57.07    3.80
   1  -8  -1   70.47    4.48
   1  -8  -1   54.13    3.95
   1  -8  -1   66.80    6.94
   1  -8  -1   64.34    3.94
   1  -8   0   29.06    2.41
   1  -8   0   31.05    2.68
   1  -8   0   28.12    2.73
   1  -8   0   34.52    3.03
   1  -8   0   25.54    2.62
   1  -8   0   33.33    5.12
   1  -8   0   36.28    2.89
   1  -8   1  213.40    9.17
   1  -8   1  201.61    9.07
   1  -8   1  203.95    9.37
   1  -8   1  181.72    8.96
   1  -8   1  214.40   14.20
   1  -8   1  196.02    9.03
   1  -8   2  768.87   27.73
   1  -8   2  792.89   27.65
   1  -8   2  746.72   27.97
   1  -8   2  723.13   27.70
   1  -8   2  784.46   35.06
   1  -8   2  770.40   27.85
   1  -8   3   25.85    2.34
   1  -8   3   32.85    2.79
   1  -8   3   23.01    4.53
   1  -8   3   25.67    2.63
   1  -8   3   20.20    2.33
   1  -8   4   36.87    2.76
   1  -8   4   33.40    3.04
   1  -8   5   37.58    2.74
   1  -8   5   38.73    3.19
   1  -8   5   45.14    3.45
   1  -8   5   45.00    3.39
   1  -8   5   35.45    5.68
   1  -8   5   37.42    3.23
   1  -8   6    0.56    0.83
   1  -8   6    0.72    0.69
   1  -8   6    0.68    0.71
   1  -8   6    1.35    1.63
   1  -8   6   -0.18    0.82
   1  -8   6    1.95    1.01
   1  -8   7   95.55    5.92
   1  -8   7   91.67    5.57
   1  -8   7   94.59    5.94
   1  -8   7  104.22    5.68
   1  -8   7  114.14   10.28
   1  -8   7  100.76    5.75
   1  -8   8    7.83    2.44
   1  -8   8    5.70    1.26
   1  -8   8    5.15    1.15
   1  -8   8    6.16    1.54
   1  -8   8    5.06    1.15
   1  -8   8    2.84    1.24
   1  -8   8    4.38    1.22
   1  -8   9   70.60    4.33
   1  -8   9   66.20    4.84
   1  -8   9   70.67    4.39
   1  -8   9   82.10    4.69
   1  -8  10   28.98    2.66
   1  -8  10   29.38    2.66
   1  -8  10   23.65    2.70
   1  -8  10   30.23    3.02
   1  -8  11    4.87    1.33
   1  -8  11    4.77    1.23
   1  -8  11    5.68    1.29
   1  -8  11    2.83    1.23
   1  -8  12    2.13    0.98
   1  -8  12    2.05    0.86
   1  -8  12    1.57    0.96
   1  -8  13    0.75    0.82
   1  -8  13    0.51    0.84
   1  -8  13   -0.50    0.72
   1  -7  -8   15.85    1.63
   1  -7  -7   45.14    3.06
   1  -7  -6  238.07   10.27
   1  -7  -5    3.51    1.07
   1  -7  -5    1.62    0.83
   1  -7  -5    1.59    2.10
   1  -7  -4   80.40    9.49
   1  -7  -4   92.51    5.34
   1  -7  -3   -0.76    1.41
   1  -7  -3   -0.53    0.00
   1  -7  -3    1.58    0.93
   1  -7  -2  272.79   10.71
   1  -7  -2  261.56   11.28
   1  -7  -2  254.52   10.66
   1  -7  -2  244.28   14.63
   1  -7  -2  235.55   16.91
   1  -7  -2  254.67   14.83
   1  -7  -1  340.79   13.37
   1  -7  -1  354.02   13.85
   1  -7  -1  307.14   13.19
   1  -7  -1  355.43   17.36
   1  -7  -1  343.56   20.18
   1  -7  -1  328.51   18.20
   1  -7   0   76.22    4.58
   1  -7   0   73.34    4.50
   1  -7   0   78.71    4.78
   1  -7   0   91.14    6.92
   1  -7   0   76.68    8.28
   1  -7   0   71.80    7.43
   1  -7   1  634.68   22.72
   1  -7   1  589.75   22.60
   1  -7   1  630.29   21.85
   1  -7   1  610.42   22.87
   1  -7   1  604.41   28.56
   1  -7   1  591.98   22.61
   1  -7   2   39.95    3.27
   1  -7   2   45.57    3.42
   1  -7   2   49.00    3.34
   1  -7   2   49.20    3.56
   1  -7   2   51.52    6.71
   1  -7   2   48.63    6.12
   1  -7   3  235.81    9.47
   1  -7   3  217.52   14.68
   1  -7   3  221.86    9.29
   1  -7   3  233.65   15.54
   1  -7   3  209.83    9.84
   1  -7   4  161.87    7.54
   1  -7   4  152.85    6.87
   1  -7   4  155.85    7.54
   1  -7   4  149.91    7.13
   1  -7   4  140.34   11.94
   1  -7   4  154.73    7.61
   1  -7   5  555.05   20.29
   1  -7   5  545.61   20.05
   1  -7   5  546.15   20.12
   1  -7   5  515.96   19.86
   1  -7   5  519.03   26.27
   1  -7   5  486.99   20.06
   1  -7   6  507.58   19.86
   1  -7   6  502.91   19.71
   1  -7   6  554.25   19.81
   1  -7   6  542.91   19.87
   1  -7   6  495.19   19.78
   1  -7   6  540.72   26.68
   1  -7   6  503.92   19.11
   1  -7   7    0.17    0.76
   1  -7   7    2.05    0.81
   1  -7   7    0.20    0.95
   1  -7   7    0.84    0.72
   1  -7   7    0.34    0.67
   1  -7   7    0.63    1.18
   1  -7   7    0.69    0.72
   1  -7   8  135.31    6.51
   1  -7   8  112.70    5.97
   1  -7   8  128.16    7.19
   1  -7   8  108.92    6.00
   1  -7   8  112.03    6.39
   1  -7   8  123.92   10.43
   1  -7   8  118.34    6.00
   1  -7   9   33.12    3.57
   1  -7   9   30.85    2.64
   1  -7   9   29.51    2.70
   1  -7   9   31.95    2.70
   1  -7   9   29.64    2.92
   1  -7  10  195.83    8.76
   1  -7  10  194.85    8.63
   1  -7  10  181.24    8.67
   1  -7  10  185.29    9.09
   1  -7  10  178.72    8.82
   1  -7  11   82.67    5.01
   1  -7  11   78.03    4.71
   1  -7  11   77.13    4.87
   1  -7  11   84.60    5.32
   1  -7  11   82.73    5.11
   1  -7  12   13.44    1.79
   1  -7  12   13.87    2.03
   1  -7  12   12.50    1.67
   1  -7  12   11.30    1.78
   1  -7  13   40.09    2.96
   1  -7  13   35.40    2.60
   1  -7  13   32.78    2.76
   1  -7  13   36.05    3.02
   1  -7  14    0.37    0.55
   1  -6  -9    7.00    1.14
   1  -6  -8   34.53    2.55
   1  -6  -8   38.45    3.03
   1  -6  -7    0.63    0.66
   1  -6  -6  138.78   13.04
   1  -6  -6  149.70   12.00
   1  -6  -5    7.14    1.40
   1  -6  -5    4.98    1.37
   1  -6  -5    5.04    2.87
   1  -6  -5   10.21    2.84
   1  -6  -4    7.89    3.41
   1  -6  -4   13.73    3.24
   1  -6  -4    9.55    1.64
   1  -6  -3  366.69   19.36
   1  -6  -3  354.10   14.09
   1  -6  -2   72.52    4.11
   1  -6  -2   65.94    4.07
   1  -6  -2   76.06    8.21
   1  -6  -2   79.47    7.25
   1  -6  -2   80.21    7.05
   1  -6  -2   69.46    4.36
   1  -6  -1    4.17    2.13
   1  -6  -1    3.81    1.65
   1  -6  -1    1.89    1.44
   1  -6  -1    4.76    1.05
   1  -6   0  221.18   12.19
   1  -6   0  198.10   13.58
   1  -6   1  207.30    9.20
   1  -6   1  241.59   14.52
   1  -6   2  715.82   28.11
   1  -6   2  656.90   30.74
   1  -6   3  337.35   13.60
   1  -6   3  362.20   20.06
   1  -6   3  377.62   13.81
   1  -6   4   61.24    3.72
   1  -6   4   66.14    7.27
   1  -6   4   60.55    5.47
   1  -6   4   52.15    3.62
   1  -6   4   52.85    3.38
   1  -6   4   53.71    3.63
   1  -6   5  151.12    9.59
   1  -6   5  120.73    6.37
   1  -6   5  140.59    6.68
   1  -6   5  136.72    6.64
   1  -6   5  134.14    6.44
   1  -6   6  115.38    5.78
   1  -6   6  120.17    5.97
   1  -6   6  109.53    6.04
   1  -6   6  107.93    5.82
   1  -6   6  121.23   10.18
   1  -6   6  115.70    6.12
   1  -6   7  242.84   10.27
   1  -6   7  229.18    9.98
   1  -6   7  227.98    9.91
   1  -6   7  234.87   10.63
   1  -6   7  226.19    9.52
   1  -6   7  249.77   15.34
   1  -6   7  236.33    9.57
   1  -6   7  231.03    9.89
   1  -6   8   -0.83    0.73
   1  -6   8    0.76    0.64
   1  -6   8    0.29    0.56
   1  -6   8    0.64    0.85
   1  -6   8    0.55    0.59
   1  -6   9  435.20   17.92
   1  -6   9  416.56   16.71
   1  -6   9  422.88   16.58
   1  -6   9  406.52   16.32
   1  -6   9  430.39   16.19
   1  -6  10  255.85   12.10
   1  -6  10  238.75   10.65
   1  -6  10  237.63   10.06
   1  -6  10  223.70   10.28
   1  -6  10  220.93   10.52
   1  -6  10  234.37   10.40
   1  -6  11    2.99    1.12
   1  -6  11    5.00    1.31
   1  -6  11    3.83    1.26
   1  -6  11    3.42    1.14
   1  -6  11    3.10    1.26
   1  -6  12   29.06    2.89
   1  -6  12   29.10    2.57
   1  -6  12   24.64    2.70
   1  -6  12   25.93    2.64
   1  -6  13   31.44    2.88
   1  -6  13   30.37    2.48
   1  -6  13   31.14    2.82
   1  -6  14   63.45    3.85
   1  -6  14   59.09    3.75
   1  -5 -10   39.99    2.67
   1  -5  -9  144.27    7.11
   1  -5  -8   42.27    3.20
   1  -5  -7  115.09   10.89
   1  -5  -7  119.33   12.19
   1  -5  -7   98.61    5.94
   1  -5  -6  189.37   15.88
   1  -5  -5  165.09   14.11
   1  -5  -4  150.54    7.24
   1  -5  -4  154.84   12.98
   1  -5  -3  241.44   15.95
   1  -5  -3  240.37   14.75
   1  -5  -3  233.51   12.93
   1  -5  -2  839.96   35.12
   1  -5  -2  863.80   36.92
   1  -5  -1   12.35    3.10
   1  -5  -1   10.45    2.44
   1  -5   0  362.60   17.02
   1  -5   0  333.26   18.10
   1  -5   1   91.54    6.78
   1  -5   1   79.80    7.52
   1  -5   2    4.67    2.08
   1  -5   2    4.95    1.71
   1  -5   4  190.32    7.74
   1  -5   4  175.25    7.67
   1  -5   5  551.04   25.48
   1  -5   5  563.99   20.68
   1  -5   5  560.38   20.70
   1  -5   5  584.84   20.42
   1  -5   5  555.17   20.06
   1  -5   5  568.67   20.78
   1  -5   6  200.84    8.36
   1  -5   6  206.96    8.52
   1  -5   6  190.54    8.49
   1  -5   6  206.52    9.06
   1  -5   6  194.28    8.20
   1  -5   6  208.36    8.72
   1  -5   7   47.68    3.18
   1  -5   7   49.60    5.83
   1  -5   7   46.35    3.13
   1  -5   7   44.13    3.11
   1  -5   8   27.47    2.56
   1  -5   8   29.51    3.03
   1  -5   8   33.16    2.59
   1  -5   8   31.16    2.35
   1  -5   8   29.70    2.62
   1  -5   8   27.08    2.50
   1  -5   9    1.07    0.90
   1  -5   9    0.93    0.75
   1  -5   9    1.33    0.86
   1  -5   9    0.31    0.84
   1  -5   9    0.78    0.85
   1  -5  10   58.82    4.92
   1  -5  10   53.51    4.16
   1  -5  10   53.40    3.55
   1  -5  10   47.72    3.71
   1  -5  10   51.32    3.75
   1  -5  10   46.57    3.72
   1  -5  11   54.86    4.33
   1  -5  11   51.04    3.60
   1  -5  11   57.17    3.98
   1  -5  11   48.22    3.87
   1  -5  12   11.56    1.94
   1  -5  12    9.55    1.77
   1  -5  12    7.81    1.46
   1  -5  12    8.69    1.61
   1  -5  13   53.03    4.06
   1  -5  13   49.17    3.69
   1  -5  14    1.19    0.74
   1  -5  14    1.52    0.75
   1  -4 -11   30.84    2.18
   1  -4 -10  103.63    5.57
   1  -4  -8  144.19   13.81
   1  -4  -7   40.82    7.03
   1  -4  -6  580.54   30.76
   1  -4  -5  258.17   17.44
   1  -4  -4  165.38   12.56
   1  -4  -3  653.29   23.26
   1  -4  -3  733.47   31.00
   1  -4  -2   62.65    6.68
   1  -4  -2   63.55    6.12
   1  -4  -1  389.66   18.42
   1  -4  -1  455.75   20.63
   1  -4  -1  408.78   19.28
   1  -4   0  303.74   14.61
   1  -4   0  274.95   15.08
   1  -4   1 1705.10   61.85
   1  -4   1 1689.63   61.87
   1  -4   1 1809.17   63.49
   1  -4   2 1219.05   46.98
   1  -4   2 1344.91   48.14
   1  -4   4  300.97   15.32
   1  -4   5    8.96    1.07
   1  -4   5    8.22    1.08
   1  -4   5    6.55    1.15
   1  -4   5    6.82    2.41
   1  -4   5    8.72    1.04
   1  -4   6  487.77   17.24
   1  -4   6  472.94   17.37
   1  -4   6  464.95   16.89
   1  -4   6  463.20   17.19
   1  -4   7   61.33    3.69
   1  -4   7   58.84    6.04
   1  -4   7   63.80    3.51
   1  -4   7   60.87    3.94
   1  -4   7   63.83    3.84
   1  -4   8  253.48   10.67
   1  -4   8  249.56   11.46
   1  -4   8  245.27   10.28
   1  -4   8  251.06    9.96
   1  -4   8  247.22   10.37
   1  -4   8  247.73   10.88
   1  -4   9  273.47   10.87
   1  -4   9  252.55   11.10
   1  -4   9  271.46   11.98
   1  -4   9  266.90   11.35
   1  -4  10    2.57    1.51
   1  -4  10    2.81    1.18
   1  -4  10    3.43    1.08
   1  -4  10    0.99    0.85
   1  -4  11   19.11    2.66
   1  -4  11   21.44    2.24
   1  -4  11   18.83    2.20
   1  -4  11   22.05    2.49
   1  -4  12   23.73    2.92
   1  -4  12   20.08    2.18
   1  -4  12   20.75    2.44
   1  -4  13   34.16    3.36
   1  -4  13   33.35    2.97
   1  -4  14   25.41    2.52
   1  -4  14   24.33    2.23
   1  -3 -11    0.89    0.61
   1  -3  -9   61.32    8.67
   1  -3  -8   -0.93    1.41
   1  -3  -7  105.43   10.97
   1  -3  -6   44.31    6.60
   1  -3  -5   32.81    5.18
   1  -3  -4   19.56    3.70
   1  -3  -3  166.05   10.82
   1  -3  -3  164.38    7.58
   1  -3  -3  138.64    8.52
   1  -3  -2 1770.64   65.80
   1  -3  -2 1850.37   60.79
   1  -3  -2 1716.69   63.16
   1  -3  -1  669.75   27.08
   1  -3  -1  611.08   26.22
   1  -3  -1  638.40   24.87
   1  -3   0  525.04   22.85
   1  -3   0  556.33   21.63
   1  -3   0  546.02   22.76
   1  -3   1  523.37   20.72
   1  -3   1  508.62   21.69
   1  -3   2  181.21    9.43
   1  -3   2  164.82    9.79
   1  -3   3  724.73   27.62
   1  -3   3  689.19   28.96
   1  -3   4    4.20    1.98
   1  -3   4    5.47    1.65
   1  -3   5 2149.53   69.67
   1  -3   5 2043.57   73.97
   1  -3   6  181.32    7.82
   1  -3   6  191.00    7.72
   1  -3   6  198.28    8.48
   1  -3   6  185.95    7.46
   1  -3   6  187.85    8.14
   1  -3   6  188.95    7.66
   1  -3   7  183.71    7.94
   1  -3   7  177.43    8.47
   1  -3   7  177.66    7.61
   1  -3   7  171.17    7.23
   1  -3   7  182.90    8.28
   1  -3   7  178.54    7.62
   1  -3   8  267.66   10.90
   1  -3   8  250.40   11.85
   1  -3   8  267.53   10.45
   1  -3   8  269.97   10.87
   1  -3   8  255.11   10.27
   1  -3   8  276.26   11.79
   1  -3   9  235.23   10.63
   1  -3   9  230.60   10.26
   1  -3   9  233.93   11.56
   1  -3   9  235.33    9.84
   1  -3   9  253.18   11.41
   1  -3  10  131.90    7.18
   1  -3  10  115.62    6.63
   1  -3  10  116.05    7.46
   1  -3  10  133.03    6.35
   1  -3  10  128.39    7.66
   1  -3  11   25.27    2.73
   1  -3  11   27.54    2.56
   1  -3  11   30.13    3.09
   1  -3  11   30.64    3.51
   1  -3  12  197.14   10.44
   1  -3  12  201.82    9.53
   1  -3  13   23.38    2.45
   1  -3  14    9.07    1.33
   1  -2  -9   59.55    8.30
   1  -2  -8    4.28    2.44
   1  -2  -7  531.44   28.01
   1  -2  -6  478.69   24.47
   1  -2  -5    9.64    2.64
   1  -2  -4  288.57   12.99
   1  -2  -4  330.83   16.32
   1  -2  -4  303.91   12.31
   1  -2  -3  313.46   13.57
   1  -2  -3  337.11   16.04
   1  -2  -3  323.23   12.24
   1  -2  -2   32.61    2.86
   1  -2  -2   25.88    3.44
   1  -2  -2   25.17    1.38
   1  -2  -1  121.07    6.31
   1  -2  -1  110.31    7.41
   1  -2   0  225.23   10.03
   1  -2   0  228.03   10.93
   1  -2   1  485.17   19.39
   1  -2   1  539.07   19.86
   1  -2   2  701.51   27.09
   1  -2   2  784.86   27.39
   1  -2   3   92.59    5.63
   1  -2   4   31.15    3.17
   1  -2   4   29.43    4.18
   1  -2   5    3.06    0.74
   1  -2   5    1.99    1.70
   1  -2   5    3.60    1.44
   1  -2   6  514.18   18.67
   1  -2   6  484.77   17.75
   1  -2   6  484.40   17.45
   1  -2   6  537.60   18.80
   1  -2   6  483.30   17.77
   1  -2   7  132.45    6.90
   1  -2   7  126.85    6.01
   1  -2   7  129.16    5.67
   1  -2   7  141.76    7.03
   1  -2   7  134.94    6.16
   1  -2   8    5.93    1.18
   1  -2   8    4.56    1.04
   1  -2   8    5.50    1.07
   1  -2   8    3.63    1.27
   1  -2   8    5.56    1.21
   1  -2   8    5.65    0.93
   1  -2   8    5.62    1.02
   1  -2   9  405.94   15.94
   1  -2   9  421.87   16.48
   1  -2   9  389.73   15.84
   1  -2   9  388.94   15.28
   1  -2   9  415.76   17.29
   1  -2  10    6.85    1.57
   1  -2  10    7.91    1.72
   1  -2  10    6.75    1.43
   1  -2  10    6.36    1.41
   1  -2  11   95.45    5.87
   1  -2  11  102.52    6.34
   1  -2  12    5.50    1.39
   1  -2  13   77.32    4.76
   1  -2  13   80.19    5.28
   1  -2  14   33.89    2.54
   1  -1 -10  250.44   18.96
   1  -1  -9   49.70    7.69
   1  -1  -8  382.80   22.64
   1  -1  -7  657.10   31.08
   1  -1  -6   19.43    3.71
   1  -1  -6   20.96    2.58
   1  -1  -5 1018.44   38.42
   1  -1  -5  934.71   34.30
   1  -1  -4    1.50    0.56
   1  -1  -4    2.31    1.33
   1  -1  -4    3.22    0.92
   1  -1  -3 2406.79   82.66
   1  -1  -3 2369.33   79.15
   1  -1  -3 2418.04   80.40
   1  -1  -2 1508.67   52.60
   1  -1  -2 1473.46   50.85
   1  -1  -1  741.98   25.78
   1  -1  -1  708.05   27.53
   1  -1  -1  759.60   26.46
   1  -1   0   40.29    2.77
   1  -1   0   36.93    2.63
   1  -1   0   33.37    2.68
   1  -1   1  733.89   24.15
   1  -1   1  615.53   24.41
   1  -1   2 1826.94   63.36
   1  -1   2 1833.03   62.75
   1  -1   2 1910.38   65.00
   1  -1   3  161.44    7.79
   1  -1   3  182.58   10.01
   1  -1   4  567.15   22.60
   1  -1   4  561.86   24.79
   1  -1   4  565.59   21.39
   1  -1   5  514.85   18.21
   1  -1   5  513.91   19.97
   1  -1   6   43.06    2.90
   1  -1   6   42.52    2.65
   1  -1   6   40.66    3.05
   1  -1   6   39.70    2.36
   1  -1   6   40.68    3.19
   1  -1   6   40.17    2.67
   1  -1   7   21.70    2.13
   1  -1   7   20.10    1.79
   1  -1   7   22.13    1.95
   1  -1   7   16.96    2.09
   1  -1   7   19.27    1.65
   1  -1   7   21.51    2.02
   1  -1   8   19.38    2.21
   1  -1   8   19.48    2.06
   1  -1   8   15.30    1.74
   1  -1   8   13.23    1.99
   1  -1   8   14.47    1.82
   1  -1   8   15.92    1.71
   1  -1   8   16.81    1.64
   1  -1   9  229.14   10.20
   1  -1   9  220.21   10.43
   1  -1   9  217.70    9.34
   1  -1   9  224.68   11.34
   1  -1   9  221.19    9.97
   1  -1  10   37.58    3.57
   1  -1  10   36.08    2.81
   1  -1  10   37.71    3.03
   1  -1  10   40.21    3.46
   1  -1  10   36.60    3.97
   1  -1  11   -0.23    0.87
   1  -1  11    0.27    0.52
   1  -1  11    0.42    0.63
   1  -1  11    0.57    0.96
   1  -1  11    0.60    0.78
   1  -1  12   23.45    2.83
   1  -1  12   22.78    2.48
   1  -1  13    4.41    1.20
   1  -1  13    6.51    1.26
   1   0 -10   25.00    5.42
   1   0  -9   26.14    5.12
   1   0  -8  145.95   12.14
   1   0  -7  117.71    9.76
   1   0  -7  122.21    7.77
   1   0  -6 1144.59   41.48
   1   0  -5   71.82    4.06
   1   0  -4  436.55   15.93
   1   0  -4  411.69   14.36
   1   0  -3  292.69   11.62
   1   0  -3  298.32   12.66
   1   0  -3  287.92   10.23
   1   0  -2  208.09    8.57
   1   0  -2  192.04    7.74
   1   0  -2  210.24    8.93
   1   0  -2  189.97    9.84
   1   0  -1  157.54    7.85
   1   0  -1  152.89    6.42
   1   0  -1  148.96    6.57
   1   0   0   58.96    3.58
   1   0   1 8549.48  303.44
   1   0   1 9413.66  302.67
   1   0   1 9468.98  302.27
   1   0   2 1215.25   41.96
   1   0   3  211.62    9.44
   1   0   3  215.36   10.51
   1   0   3  226.14    9.48
   1   0   4  353.89   16.13
   1   0   4  381.25   13.86
   1   0   4  367.21   14.58
   1   0   5  836.66   29.93
   1   0   5  820.34   29.04
   1   0   5  842.57   29.29
   1   0   5  828.92   28.84
   1   0   5  840.93   28.90
   1   0   5  861.75   32.92
   1   0   5  866.22   29.05
   1   0   6  516.05   18.84
   1   0   6  515.92   18.61
   1   0   6  529.17   19.12
   1   0   6  532.01   18.70
   1   0   6  457.00   18.98
   1   0   6  562.91   23.33
   1   0   6  507.62   18.23
   1   0   6  531.16   18.86
   1   0   6  513.52   19.87
   1   0   7   21.53    2.22
   1   0   7   20.02    1.96
   1   0   7   18.38    1.92
   1   0   7   17.95    2.06
   1   0   7   19.33    1.67
   1   0   7   19.75    2.03
   1   0   7   22.67    2.67
   1   0   7   19.54    2.03
   1   0   8  460.31   18.37
   1   0   8  458.19   18.05
   1   0   8  462.09   17.90
   1   0   8  471.75   17.53
   1   0   8  465.63   19.34
   1   0   9   31.13    2.95
   1   0   9   28.84    2.61
   1   0   9   31.37    3.16
   1   0   9   32.97    3.63
   1   0  10  102.26    6.11
   1   0  10  101.92    5.53
   1   0  10   97.56    5.79
   1   0  10   92.36    6.08
   1   0  10  105.79    6.92
   1   0  11   39.26    3.52
   1   0  11   39.85    3.04
   1   0  11   39.32    3.18
   1   0  11   43.89    3.64
   1   0  11   45.60    4.10
   1   0  12   15.80    2.10
   1   0  12   16.77    2.13
   1   0  13   49.31    3.35
   1   1 -11  127.64   12.57
   1   1 -10  125.13   12.19
   1   1  -9    3.03    2.00
   1   1  -8  257.70   13.87
   1   1  -5    7.55    1.21
   1   1  -4  496.62   17.60
   1   1  -3  114.88    5.35
   1   1  -2 3771.45  123.05
   1   1  -2 3616.46  123.94
   1   1  -1 1075.08   37.02
   1   1  -1 1028.84   36.70
   1   1   0  477.48   17.43
   1   1   0  416.88   17.10
   1   1   1  216.97    9.59
   1   1   1  198.86    9.43
   1   1   3    5.93    1.63
   1   1   3    8.00    1.82
   1   1   4  127.16    6.37
   1   1   4  135.60    8.20
   1   1   4  119.57    5.51
   1   1   5  923.61   31.61
   1   1   5  876.01   31.03
   1   1   5  903.99   31.37
   1   1   5  910.66   35.47
   1   1   5  924.95   33.00
   1   1   5  873.32   30.77
   1   1   5  919.97   31.29
   1   1   6   12.66    1.60
   1   1   6    8.89    1.31
   1   1   6    7.34    1.20
   1   1   6   10.71    1.54
   1   1   6   12.95    1.88
   1   1   6   12.12    1.31
   1   1   6   10.04    1.42
   1   1   6   11.53    2.66
   1   1   7  291.77   12.31
   1   1   7  295.93   12.58
   1   1   7  292.26   12.05
   1   1   7  309.25   12.21
   1   1   7  271.89   11.31
   1   1   7  304.14   12.30
   1   1   7  300.11   13.25
   1   1   7  304.53   12.11
   1   1   8    1.23    0.80
   1   1   8    0.91    0.90
   1   1   8    1.26    0.99
   1   1   8    2.72    1.19
   1   1   8    2.16    0.90
   1   1   9  389.98   15.97
   1   1   9  377.99   15.48
   1   1   9  399.48   16.82
   1   1   9  374.30   16.04
   1   1  10  228.47   10.92
   1   1  10  255.18   11.55
   1   1  10  261.39   11.54
   1   1  10  242.94   11.58
   1   1  10  233.58   10.63
   1   1  11    3.77    1.17
   1   1  11    2.07    0.91
   1   1  11    1.90    0.86
   1   1  11    3.75    1.18
   1   1  12   58.74    3.98
   1   2 -11  140.74   13.14
   1   2 -10   16.06    4.00
   1   2  -9  195.17   12.67
   1   2  -5  376.05   14.87
   1   2  -4 1150.07   40.61
   1   2  -3  223.02   10.19
   1   2  -3  220.74    9.95
   1   2  -2 1309.31   46.55
   1   2  -2 1331.37   45.49
   1   2  -1  280.31   12.98
   1   2  -1  315.82   12.04
   1   2   0  549.19   21.68
   1   2   0  545.78   21.93
   1   2   1  294.09   14.82
   1   2   1  319.37   13.49
   1   2   2   17.39    2.59
   1   2   2   23.06    3.50
   1   2   3    9.37    1.22
   1   2   3    9.00    2.31
   1   2   3    9.02    2.00
   1   2   4    0.49    0.56
   1   2   4    2.34    0.73
   1   2   4    0.47    0.54
   1   2   4    0.73    0.68
   1   2   4    1.45    1.10
   1   2   4    0.44    0.57
   1   2   4    0.71    0.57
   1   2   5  508.85   18.68
   1   2   5  499.53   18.76
   1   2   5  478.87   18.23
   1   2   5  488.92   17.96
   1   2   5  512.14   18.45
   1   2   5  493.94   21.65
   1   2   5  483.61   22.64
   1   2   6  182.74    8.44
   1   2   6  177.84    8.03
   1   2   6  164.85   11.39
   1   2   6  164.63    7.44
   1   2   6  168.06    8.02
   1   2   6  181.25    8.71
   1   2   7    0.99    0.77
   1   2   7    0.90    0.70
   1   2   7    1.92    0.90
   1   2   7    3.17    1.04
   1   2   7    0.89    0.74
   1   2   7    1.83    0.66
   1   2   8   92.54    5.71
   1   2   8   90.38    5.65
   1   2   8   90.81    5.83
   1   2   8   82.19    5.48
   1   2   8   93.98    5.69
   1   2   9   98.48    5.93
   1   2   9  107.80    6.56
   1   2   9  100.88    6.18
   1   2   9   97.85    5.95
   1   2   9  110.16    6.48
   1   2  10    4.98    1.40
   1   2  10    3.18    1.27
   1   2  10    3.56    1.06
   1   2  10    4.79    1.26
   1   2  11    1.88    0.77
   1   2  11    2.19    0.94
   1   2  11    1.97    0.94
   1   2  12   15.03    1.69
   1   3 -11   41.16    6.73
   1   3 -10  428.64   22.69
   1   3  -6  488.02   20.23
   1   3  -5  427.87   18.50
   1   3  -4  495.03   20.67
   1   3  -4  482.31   18.67
   1   3  -3 1868.36   63.35
   1   3  -3 1922.99   66.53
   1   3  -3 1884.22   65.72
   1   3  -2  208.18   11.04
   1   3  -2  207.95   10.52
   1   3  -1  629.99   22.42
   1   3  -1  635.82   25.65
   1   3   0  203.62   11.03
   1   3   2 1079.40   41.54
   1   3   2 1071.77   40.44
   1   3   2 1033.47   36.27
   1   3   3  266.95   10.90
   1   3   3  271.76   10.55
   1   3   3  271.38   10.88
   1   3   3  256.32   14.29
   1   3   3  265.06   10.41
   1   3   3  262.26   10.37
   1   3   4 1073.69   36.95
   1   3   4 1045.97   36.43
   1   3   4 1047.20   36.82
   1   3   4 1071.78   41.87
   1   3   4 1015.49   36.15
   1   3   4 1051.81   36.37
   1   3   4 1065.25   40.49
   1   3   5   54.13    3.45
   1   3   5   58.86    3.81
   1   3   5   57.62    3.94
   1   3   5   54.36    3.88
   1   3   5   62.40    3.94
   1   3   5   45.17    5.53
   1   3   5   51.08    6.07
   1   3   6   65.70    3.99
   1   3   6   69.94    4.52
   1   3   6   65.73    4.43
   1   3   6   60.58    6.59
   1   3   6   65.86    4.47
   1   3   6   61.44    4.33
   1   3   7   20.59    2.09
   1   3   7   22.15    2.52
   1   3   7   21.05    2.45
   1   3   7   26.11    2.81
   1   3   7   20.44    2.46
   1   3   7   26.72    2.79
   1   3   8   94.39    5.91
   1   3   8   84.04    5.27
   1   3   8   94.53    5.83
   1   3   8   86.98    5.54
   1   3   8   83.75    5.28
   1   3   8   98.12    6.14
   1   3   9  106.46    6.29
   1   3   9   92.02    5.32
   1   3   9   89.57    5.77
   1   3   9  110.56    6.46
   1   3  10    6.45    1.38
   1   3  10    4.04    1.07
   1   3  10    5.89    1.43
   1   3  10    8.78    1.60
   1   3  11   20.10    1.99
   1   3  11   17.61    1.73
   1   3  11   18.89    2.03
   1   4 -10   12.97    3.23
   1   4  -8   72.31    6.33
   1   4  -7  120.64    9.22
   1   4  -7  114.05    8.06
   1   4  -6  592.44   25.65
   1   4  -6  584.89   24.63
   1   4  -5   15.46    2.62
   1   4  -4  111.15    8.32
   1   4  -4  120.14    7.85
   1   4  -3    2.32    1.13
   1   4  -3    1.88    1.40
   1   4  -2  638.64   26.80
   1   4  -2  624.38   26.62
   1   4  -1  314.24   16.06
   1   4   0  606.77   21.92
   1   4   1 1024.56   35.77
   1   4   1 1040.83   41.38
   1   4   1 1000.29   40.42
   1   4   2   19.22    2.05
   1   4   2   26.34    4.15
   1   4   2   19.82    3.86
   1   4   2   20.65    2.06
   1   4   2   19.75    1.94
   1   4   3  393.37   15.14
   1   4   3  380.85   15.24
   1   4   3  395.31   15.55
   1   4   3  402.82   19.69
   1   4   3  380.16   20.11
   1   4   3  400.50   20.62
   1   4   3  390.48   14.94
   1   4   3  386.04   14.73
   1   4   4    1.10    1.45
   1   4   4    3.43    2.04
   1   4   4    0.97    0.74
   1   4   4    1.83    0.80
   1   4   4    0.84    0.80
   1   4   4    1.52    0.79
   1   4   5  401.19   22.09
   1   4   5  437.82   17.17
   1   4   5  444.90   17.29
   1   4   5  434.77   16.69
   1   4   5  435.20   16.83
   1   4   5  446.32   16.73
   1   4   6  162.34    8.61
   1   4   6  161.48    7.65
   1   4   6  156.07    7.88
   1   4   6  156.01    7.62
   1   4   6  162.60    8.02
   1   4   6  167.23    8.39
   1   4   7  143.83    7.62
   1   4   7  138.72    7.69
   1   4   7  123.27    6.32
   1   4   7  131.42    6.95
   1   4   7  121.13    6.57
   1   4   7  128.03    7.29
   1   4   8  111.93    6.85
   1   4   8  120.13    6.90
   1   4   8  115.79    6.75
   1   4   9    4.27    1.22
   1   4   9    1.43    1.01
   1   4   9    2.94    1.10
   1   4  10   99.98    5.14
   1   4  10   88.13    5.03
   1   4  10   88.58    4.82
   1   4  10   98.96    5.27
   1   5  -8   76.47    7.05
   1   5  -7  100.17    8.76
   1   5  -7   77.52    7.60
   1   5  -7   79.85    7.07
   1   5  -6  247.69   14.72
   1   5  -6  253.67   14.05
   1   5  -5  104.11    8.49
   1   5  -5  100.18    7.97
   1   5  -4  458.19   21.54
   1   5  -4  427.98   20.84
   1   5  -3  484.08   22.70
   1   5  -2  146.22   10.03
   1   5  -2  111.61    9.53
   1   5  -1   59.04    3.46
   1   5  -1   60.81    6.37
   1   5   0   97.37    5.05
   1   5   0  104.61    5.43
   1   5   1  218.01    9.74
   1   5   1  206.37   13.53
   1   5   1  210.51    9.31
   1   5   1  231.80    9.57
   1   5   2  167.69   11.99
   1   5   2  162.15    8.00
   1   5   2  164.73   12.00
   1   5   2  163.43    7.70
   1   5   2  166.99    7.77
   1   5   3    8.67    1.46
   1   5   3    8.53    1.46
   1   5   3    7.24    2.53
   1   5   3   12.23    2.65
   1   5   3   12.27    3.18
   1   5   3    9.55    1.53
   1   5   3    7.65    1.23
   1   5   4   76.61    8.23
   1   5   4   77.10    8.46
   1   5   4   90.25    5.18
   1   5   4   89.65    5.38
   1   5   4   83.35    5.00
   1   5   4   81.19    4.75
   1   5   5   72.14    4.70
   1   5   5   90.12    5.49
   1   5   5   75.98    8.16
   1   5   5   80.74    5.53
   1   5   5   75.97    4.80
   1   5   5   82.56    4.84
   1   5   6   42.52    3.71
   1   5   6   40.20    3.23
   1   5   6   51.23    3.63
   1   5   6   45.91    4.03
   1   5   7   59.51    4.45
   1   5   7   54.51    4.25
   1   5   7   53.84    4.15
   1   5   7   54.64    3.82
   1   5   7   44.87    3.99
   1   5   8   21.42    2.40
   1   5   8   20.73    2.42
   1   5   8   24.03    2.57
   1   5   8   22.39    2.51
   1   5   9  109.24    5.62
   1   5   9   94.21    5.23
   1   5   9  107.56    5.44
   1   5  10    4.22    0.76
   1   5  10    5.98    0.98
   1   5  10    5.73    0.92
   1   6  -7  862.90   36.87
   1   6  -7  770.94   35.46
   1   6  -6   38.28    5.72
   1   6  -6   41.87    5.90
   1   6  -5  258.30   16.48
   1   6  -5  254.99   15.57
   1   6  -4  101.59    8.93
   1   6  -4  108.80    9.38
   1   6  -3  632.08   23.10
   1   6  -3  662.90   29.37
   1   6  -2  106.81    5.37
   1   6  -2  108.58    9.27
   1   6  -2   95.73    9.21
   1   6  -1  274.87   11.53
   1   6  -1  265.50   11.09
   1   6   0  506.30   25.56
   1   6   0  505.42   19.15
   1   6   0  520.76   24.97
   1   6   0  483.21   18.65
   1   6   1    6.67    2.53
   1   6   1    5.85    1.31
   1   6   1    7.70    1.36
   1   6   1    4.54    1.15
   1   6   1    7.10    2.55
   1   6   1    8.13    2.94
   1   6   2   59.75    6.86
   1   6   2   57.89    7.22
   1   6   2   50.07    6.56
   1   6   2   47.25    3.48
   1   6   2   50.46    3.73
   1   6   3   27.28    5.02
   1   6   3   31.79    5.33
   1   6   3   29.66    2.87
   1   6   3   28.19    2.60
   1   6   3   29.20    2.71
   1   6   3   26.61    2.32
   1   6   4   96.78    5.46
   1   6   4   95.79    5.93
   1   6   4   97.64    9.71
   1   6   4   95.58    8.98
   1   6   4  115.78    6.51
   1   6   4  100.30    5.70
   1   6   4  101.27    5.36
   1   6   5  256.05   11.33
   1   6   5  247.54   11.48
   1   6   5  220.25   10.39
   1   6   5  256.04   10.46
   1   6   6    0.19    0.77
   1   6   6    0.28    0.65
   1   6   6    0.69    0.68
   1   6   6   -0.21    0.93
   1   6   7   17.40    2.13
   1   6   7   17.20    2.09
   1   6   7   13.49    1.95
   1   6   8    3.22    0.87
   1   6   8    1.81    0.77
   1   6   8    2.11    0.90
   1   6   8    2.50    0.89
   1   6   9   17.96    1.61
   1   6   9   14.28    1.40
   1   6   9   15.34    1.53
   1   7  -8  156.85   12.60
   1   7  -8  187.19   13.54
   1   7  -7   20.40    4.10
   1   7  -7   15.75    4.21
   1   7  -6  160.72   12.21
   1   7  -6  146.93   12.27
   1   7  -5    5.53    2.30
   1   7  -5   13.20    3.59
   1   7  -4  452.11   23.14
   1   7  -4  402.42   22.59
   1   7  -4  448.14   24.03
   1   7  -4  422.88   16.51
   1   7  -3  247.45   15.90
   1   7  -3  258.90   16.32
   1   7  -3  241.93   16.51
   1   7  -3  236.90   10.27
   1   7  -2    3.71    0.98
   1   7  -2    3.22    2.41
   1   7  -2    4.42    1.21
   1   7  -1  284.30   17.81
   1   7  -1  250.99   11.16
   1   7  -1  301.82   17.90
   1   7  -1  275.45   17.03
   1   7  -1  275.02   11.68
   1   7   0   52.17    6.72
   1   7   0   56.26    7.24
   1   7   0   54.66    3.76
   1   7   0   52.50    3.74
   1   7   1  545.01   27.73
   1   7   1  512.31   26.68
   1   7   1  558.30   27.14
   1   7   1  539.75   19.90
   1   7   1  502.41   20.03
   1   7   2  361.71   19.39
   1   7   2  312.87   19.16
   1   7   2  323.70   13.58
   1   7   2  311.98   13.03
   1   7   2  328.43   13.41
   1   7   3  322.94   13.38
   1   7   3  349.37   14.26
   1   7   3  353.35   19.83
   1   7   3  329.18   20.40
   1   7   3  336.84   13.86
   1   7   3  347.78   14.61
   1   7   4   37.86    3.33
   1   7   4   37.07    5.61
   1   7   4   37.35    3.44
   1   7   4   39.43    3.16
   1   7   5    4.25    1.23
   1   7   5    5.41    1.32
   1   7   5    4.74    1.05
   1   7   5    5.06    0.99
   1   7   6   73.06    4.63
   1   7   6   79.49    4.68
   1   7   7   19.29    1.88
   1   7   7   18.32    1.89
   1   7   7   17.60    1.79
   1   7   8   64.56    3.28
   1   7   8   59.74    3.17
   1   7   8   57.65    3.21
   1   8  -8   71.36    7.93
   1   8  -8   75.40    8.03
   1   8  -7   36.57    6.03
   1   8  -7   38.29    5.82
   1   8  -7   51.95    6.91
   1   8  -6    7.29    2.84
   1   8  -6    5.92    2.56
   1   8  -6    6.82    2.75
   1   8  -5    8.13    3.29
   1   8  -5    7.45    1.43
   1   8  -5    8.68    3.14
   1   8  -5    8.82    2.93
   1   8  -4    0.74    1.58
   1   8  -4   -0.67    2.28
   1   8  -4   -0.67    1.03
   1   8  -4    0.16    0.72
   1   8  -3  134.52   11.47
   1   8  -3  119.89   10.80
   1   8  -3  114.60    6.21
   1   8  -2   62.52    7.84
   1   8  -2   70.07    4.57
   1   8  -2   53.17    3.93
   1   8  -2   71.22    8.11
   1   8  -1   31.23    5.46
   1   8  -1   22.45    2.40
   1   8  -1   27.89    5.03
   1   8   0  367.15   21.24
   1   8   0  356.99   20.96
   1   8   0  366.05   14.44
   1   8   0  354.94   14.68
   1   8   1   22.36    4.39
   1   8   1   23.68    2.52
   1   8   1   26.08    2.42
   1   8   2    3.01    0.99
   1   8   2    4.41    1.34
   1   8   2    0.70    1.99
   1   8   2    3.21    1.55
   1   8   2    4.85    1.30
   1   8   3    1.56    0.82
   1   8   3    1.16    0.81
   1   8   3    1.41    0.82
   1   8   4   41.48    3.24
   1   8   4   45.99    3.51
   1   8   4   39.07    2.97
   1   8   5  117.18    6.00
   1   8   5  116.30    5.87
   1   8   6    3.16    0.78
   1   8   6    4.73    0.91
   1   8   6    2.57    0.75
   1   8   7   66.85    3.24
   1   9  -8   12.81    3.18
   1   9  -8   12.45    3.17
   1   9  -8    9.67    1.65
   1   9  -7  165.57   13.58
   1   9  -7  195.98   13.48
   1   9  -7  209.47   14.95
   1   9  -7  171.09    8.38
   1   9  -6   18.45    4.18
   1   9  -6   30.53    5.18
   1   9  -6   32.22    5.58
   1   9  -6   23.27    2.43
   1   9  -5  178.22   13.18
   1   9  -5  182.05   13.92
   1   9  -5  174.95   13.99
   1   9  -5  160.78    8.00
   1   9  -4  257.85   17.05
   1   9  -4  209.03    9.68
   1   9  -4  227.38   15.54
   1   9  -4  222.10   15.68
   1   9  -4  214.11   10.21
   1   9  -3    8.94    3.01
   1   9  -3    6.41    1.35
   1   9  -3    6.56    1.50
   1   9  -2   47.80    6.70
   1   9  -2   41.33    6.49
   1   9  -2   48.39    6.93
   1   9  -2   42.66    3.39
   1   9  -1   -0.69    0.75
   1   9  -1   -0.69    1.67
   1   9  -1    2.81    1.51
   1   9  -1    1.03    0.65
   1   9  -1    0.17    0.66
   1   9   0   53.33    6.49
   1   9   0   54.28    6.83
   1   9   0   38.55    3.46
   1   9   0   44.90    3.45
   1   9   0   41.99    3.06
   1   9   1   25.63    2.51
   1   9   1   18.57    2.36
   1   9   1   22.85    2.33
   1   9   2    0.93    0.74
   1   9   2    0.17    0.79
   1   9   2    0.73    0.72
   1   9   3   46.77    3.27
   1   9   3   46.02    3.39
   1   9   3   45.80    3.13
   1   9   4   12.99    1.51
   1   9   4   13.06    1.35
   1   9   4   13.25    1.62
   1   9   5    7.74    1.04
   1   9   5    9.49    1.16
   1   9   5   10.11    1.12
   1   9   6   13.76    1.17
   1  10 -10   30.52    2.45
   1  10  -9   -0.14    0.52
   1  10  -8  212.53    9.32
   1  10  -7   21.61    2.21
   1  10  -6    1.39    0.71
   1  10  -5   97.96    5.44
   1  10  -5   95.75    5.73
   1  10  -4   28.88    2.62
   1  10  -4   25.50    2.72
   1  10  -3  106.30    5.78
   1  10  -2   36.26    2.80
   1  10  -2   36.65    2.98
   1  10  -1  131.36    6.55
   1  10  -1  128.52    6.80
   1  10   0   34.35    2.77
   1  10   0   35.13    3.01
   1  10   1   25.36    2.25
   1  10   1   23.64    2.18
   1  10   1   25.11    2.37
   1  10   2   53.50    3.39
   1  10   2   62.45    3.49
   1  10   2   60.99    3.67
   1  10   3    6.85    1.00
   1  10   3    6.30    0.90
   1  11  -9    8.43    1.16
   1  11  -8    4.56    0.91
   1  11  -8    3.15    0.98
   1  11  -7   21.76    2.05
   1  11  -7   25.08    2.44
   1  11  -6   10.82    1.44
   1  11  -6   13.25    1.79
   1  11  -5    3.73    0.89
   1  11  -4   91.09    4.69
   1  11  -4   89.45    4.84
   1  11  -3    1.13    0.65
   1  11  -2   12.22    1.46
   1  11  -2   13.35    1.63
   1  11  -2   11.71    1.64
   1  11  -1    0.77    0.52
   1  11  -1    1.39    0.71
   1  11  -1    0.90    0.64
   1  11   0   40.61    2.60
   1  11   0   42.28    2.72
   1  11   0   38.29    2.74
   1  11   1   70.79    3.49
   1  11   1   72.84    3.56
   1  11   1   63.01    3.52
   1  12  -9   26.27    2.00
   1  12  -8   51.57    3.13
   1  12  -7    1.19    0.60
   1  12  -6    5.23    0.85
   1  12  -6    6.83    0.94
   1  12  -5    3.24    0.72
   1  12  -5    3.03    0.74
   1  12  -4   40.93    2.58
   1  12  -4   43.37    2.91
   1  12  -3   10.67    1.13
   1  12  -3   13.29    1.34
   1  12  -3    9.86    1.29
   1  12  -2    0.56    0.40
   1  12  -2    1.15    0.52
   1  12  -2    0.71    0.45
   1  12  -1   11.26    1.14
   2 -13   8   21.63    1.34
   2 -12   0    0.12    0.37
   2 -12   1   12.55    1.13
   2 -12   1   13.56    1.24
   2 -12   2    6.18    0.88
   2 -12   2    6.76    0.92
   2 -12   2    7.13    0.99
   2 -12   3   45.43    2.96
   2 -12   3   47.34    2.76
   2 -12   3   47.78    2.79
   2 -12   3   42.87    2.73
   2 -12   4   39.68    2.73
   2 -12   4   34.45    2.40
   2 -12   4   36.90    2.49
   2 -12   5    0.10    0.52
   2 -12   5    0.10    0.35
   2 -12   6   14.91    1.46
   2 -12   6   12.61    1.43
   2 -12   6   15.04    1.45
   2 -12   7    4.44    0.79
   2 -12   7    4.26    0.73
   2 -12   7    2.93    0.74
   2 -12   9    8.29    1.05
   2 -12  10   14.00    1.17
   2 -11  -2   13.96    1.14
   2 -11  -2   13.55    1.21
   2 -11  -1    8.59    1.01
   2 -11  -1    8.20    1.03
   2 -11   0  114.44    5.31
   2 -11   0  108.74    5.35
   2 -11   0  119.02    5.24
   2 -11   0  117.28    5.13
   2 -11   1    7.49    1.09
   2 -11   1    8.73    1.39
   2 -11   1    8.00    1.14
   2 -11   1    7.32    1.14
   2 -11   1    8.19    1.22
   2 -11   2   77.88    4.03
   2 -11   2   84.55    4.47
   2 -11   2   83.95    4.46
   2 -11   2   76.74    4.46
   2 -11   3   52.32    3.39
   2 -11   3   54.61    3.49
   2 -11   3   46.22    3.33
   2 -11   4   12.73    1.62
   2 -11   4   12.35    1.58
   2 -11   4    8.41    1.39
   2 -11   5   26.71    2.31
   2 -11   5   22.17    2.18
   2 -11   6    5.77    1.07
   2 -11   6    6.00    1.17
   2 -11   6    4.55    0.97
   2 -11   7  103.39    5.17
   2 -11   7  109.30    5.39
   2 -11   7  101.80    5.14
   2 -11   8    5.08    0.92
   2 -11   8    6.77    1.10
   2 -11   9    4.42    1.03
   2 -11  10   17.41    1.67
   2 -11  11    6.17    0.92
   2 -10  -4   14.13    1.30
   2 -10  -2   21.74    1.86
   2 -10  -2   23.33    2.07
   2 -10  -2   23.59    2.04
   2 -10  -1   94.09    4.69
   2 -10  -1  101.18    5.11
   2 -10  -1   88.72    4.90
   2 -10   0    0.40    0.61
   2 -10   0    0.13    0.52
   2 -10   0    0.25    0.59
   2 -10   0   -0.29    0.67
   2 -10   1   33.77    2.71
   2 -10   1   37.10    3.06
   2 -10   1   35.12    2.88
   2 -10   1   39.54    3.03
   2 -10   2    9.49    1.33
   2 -10   2   10.72    1.83
   2 -10   2    9.93    1.64
   2 -10   2   10.23    1.60
   2 -10   2   15.35    1.91
   2 -10   3   57.36    3.45
   2 -10   3   62.23    4.42
   2 -10   3   56.12    3.99
   2 -10   3   56.30    4.06
   2 -10   4   64.76    4.38
   2 -10   4   65.02    4.35
   2 -10   5    2.32    0.98
   2 -10   5    1.84    0.85
   2 -10   6   85.92    4.97
   2 -10   6   83.39    5.10
   2 -10   6   80.61    4.87
   2 -10   7    5.47    1.14
   2 -10   7    4.35    1.11
   2 -10   7    3.69    0.94
   2 -10   8   65.04    3.90
   2 -10   8   76.54    4.33
   2 -10   9   26.51    2.50
   2 -10  10   25.42    2.31
   2 -10  11   50.97    3.17
   2 -10  12    1.43    0.69
   2  -9  -5   58.95    3.28
   2  -9  -4    0.48    0.48
   2  -9  -3   58.43    3.55
   2  -9  -2    1.32    0.58
   2  -9  -2    0.59    0.65
   2  -9  -2    2.21    0.81
   2  -9  -1  100.88    5.83
   2  -9  -1  107.00    5.64
   2  -9  -1  114.77    5.66
   2  -9  -1   99.86    5.74
   2  -9   0   56.34    3.95
   2  -9   0   60.35    7.81
   2  -9   0   50.81    3.81
   2  -9   0   61.50    4.01
   2  -9   1    4.60    1.10
   2  -9   1    4.87    1.29
   2  -9   1    3.36    1.62
   2  -9   1    4.17    1.15
   2  -9   2   28.91    2.52
   2  -9   2   26.79    2.81
   2  -9   2   26.89    2.76
   2  -9   2   25.92    2.77
   2  -9   2   28.64    5.41
   2  -9   3    2.49    1.22
   2  -9   3    0.78    0.53
   2  -9   3    0.19    0.80
   2  -9   3    2.23    2.26
   2  -9   3    1.01    1.00
   2  -9   3   -0.80    2.28
   2  -9   3    0.89    0.99
   2  -9   4   20.55    2.43
   2  -9   4   20.13    2.40
   2  -9   5   90.48    5.49
   2  -9   5   86.92    5.59
   2  -9   5   89.09    9.64
   2  -9   5   88.04    5.14
   2  -9   5   92.52    5.47
   2  -9   6   89.08    5.28
   2  -9   6   94.28    5.67
   2  -9   6   91.75    9.74
   2  -9   6   80.24    5.14
   2  -9   6   84.77    5.18
   2  -9   7   61.66    4.14
   2  -9   7   68.57    4.58
   2  -9   7   67.78    4.22
   2  -9   7   61.38    4.41
   2  -9   8   54.07    3.62
   2  -9   8   60.21    4.38
   2  -9   8   64.08    4.14
   2  -9   9    6.59    1.49
   2  -9   9    4.15    1.32
   2  -9  10    3.22    1.17
   2  -9  11    1.05    0.92
   2  -9  12   16.87    1.78
   2  -8  -6   35.22    2.30
   2  -8  -6   25.55    2.14
   2  -8  -5   25.46    2.21
   2  -8  -5   25.48    2.41
   2  -8  -4  179.13    7.97
   2  -8  -4  178.57    8.49
   2  -8  -3    0.89    0.66
   2  -8  -2   88.57    9.75
   2  -8  -2   98.26    5.18
   2  -8  -2   89.57    5.19
   2  -8  -1  156.34    7.60
   2  -8  -1  165.20   13.61
   2  -8  -1  159.63   12.24
   2  -8  -1  144.67    7.56
   2  -8   0   58.82    4.30
   2  -8   0   62.59    4.43
   2  -8   0   54.66    7.21
   2  -8   0   70.79    8.62
   2  -8   1   25.32    2.56
   2  -8   1   30.04    5.50
   2  -8   2   40.89    3.17
   2  -8   3  707.78   28.05
   2  -8   3  751.26   36.93
   2  -8   3  773.83   26.81
   2  -8   4    3.47    1.17
   2  -8   4    3.90    1.21
   2  -8   5   15.33    2.20
   2  -8   5   17.13    2.22
   2  -8   6   34.84    3.17
   2  -8   6   33.32    3.30
   2  -8   6   34.50    6.01
   2  -8   6   35.63    3.07
   2  -8   7   25.85    2.55
   2  -8   7   23.25    4.57
   2  -8   7   27.19    2.85
   2  -8   7   26.13    2.44
   2  -8   8   31.03    2.64
   2  -8   8   36.95    3.11
   2  -8   8   34.43    3.31
   2  -8   9   -0.22    0.87
   2  -8   9   -0.17    1.04
   2  -8  10   45.95    3.93
   2  -8  10   39.45    3.28
   2  -8  11    8.58    1.52
   2  -8  12    6.04    1.22
   2  -7  -8   17.36    1.49
   2  -7  -7    7.64    1.17
   2  -7  -7    7.15    1.19
   2  -7  -5  106.33    6.16
   2  -7  -3   81.90    9.25
   2  -7  -3   67.82    4.46
   2  -7  -3   92.36    9.12
   2  -7  -2    0.34    0.79
   2  -7  -2    0.76    1.64
   2  -7   0  287.27   18.73
   2  -7   1   66.99    7.48
   2  -7   1   72.71    8.70
   2  -7   2  328.40   18.79
   2  -7   3    3.99    0.96
   2  -7   3    3.28    1.12
   2  -7   3    0.76    1.82
   2  -7   4  115.49    9.96
   2  -7   4   88.87    5.11
   2  -7   5  112.47    6.28
   2  -7   5  108.41    6.04
   2  -7   6  161.51    8.51
   2  -7   6  189.54    8.57
   2  -7   6  177.36    8.73
   2  -7   7  221.42   10.72
   2  -7   7  236.22   10.57
   2  -7   7  229.22   10.79
   2  -7   7  242.03   10.42
   2  -7   8   -0.23    0.92
   2  -7   8    0.37    0.92
   2  -7   8    0.55    0.73
   2  -7   9   85.56    5.05
   2  -7   9   76.32    4.98
   2  -7  10   13.06    1.89
   2  -7  10   15.20    1.99
   2  -7  11   91.05    5.41
   2  -7  11   92.16    5.30
   2  -7  12   41.77    3.10
   2  -7  12   42.40    3.04
   2  -6  -9   35.02    2.31
   2  -6  -8    1.07    0.60
   2  -6  -7   56.52    4.03
   2  -6  -5  175.28   14.23
   2  -6  -5  160.02   13.57
   2  -6  -4   19.64    4.70
   2  -6  -4   29.71    5.24
   2  -6  -3   18.28    4.44
   2  -6  -3   14.99    3.82
   2  -6  -2  151.60   12.96
   2  -6  -2  186.18   13.92
   2  -6  -1   18.27    2.09
   2  -6  -1   20.01    4.29
   2  -6   0   25.73    2.49
   2  -6   0   27.82    2.51
   2  -6   0   18.86    4.09
   2  -6   0   25.60    4.98
   2  -6   1   19.27    2.11
   2  -6   1   22.62    4.52
   2  -6   1   23.60    2.33
   2  -6   1   22.52    4.52
   2  -6   2   38.08    3.05
   2  -6   2   42.93    5.97
   2  -6   2   36.60    2.60
   2  -6   2   43.06    6.02
   2  -6   3  398.45   21.95
   2  -6   3  404.73   15.00
   2  -6   3  371.92   15.39
   2  -6   4  120.68    6.47
   2  -6   4  138.91   11.54
   2  -6   4  129.41    6.27
   2  -6   5   18.71    2.16
   2  -6   5   20.14    1.80
   2  -6   6   34.15    2.59
   2  -6   6   38.09    3.01
   2  -6   6   31.44    2.93
   2  -6   6   30.39    2.68
   2  -6   6   33.20    5.85
   2  -6   6   31.78    2.99
   2  -6   7   84.28    5.33
   2  -6   7   72.33    4.63
   2  -6   7   73.51    4.59
   2  -6   7   73.66    4.40
   2  -6   8  105.22    6.62
   2  -6   8  117.76    6.23
   2  -6   8  112.79    6.04
   2  -6   8  116.27    5.89
   2  -6   8  110.02    5.97
   2  -6   9    1.14    0.66
   2  -6   9    0.17    0.75
   2  -6   9    0.65    0.92
   2  -6  10  131.09    6.77
   2  -6  10  122.13    6.78
   2  -6  10  140.09    6.86
   2  -6  11   90.68    6.06
   2  -6  11   85.54    5.10
   2  -6  11   89.17    5.22
   2  -6  11   90.44    5.10
   2  -6  12    2.75    0.93
   2  -6  12    2.62    0.93
   2  -6  13   10.12    1.27
   2  -5  -9   36.82    2.64
   2  -5  -6   98.44   10.76
   2  -5  -6  128.06   12.22
   2  -5  -5  135.21   12.47
   2  -5  -5  144.37   13.24
   2  -5  -4  165.81   13.78
   2  -5  -4  181.29   14.57
   2  -5  -3   72.86    8.57
   2  -5  -3   70.19    4.28
   2  -5  -3   90.91    9.52
   2  -5  -2   63.13    3.98
   2  -5  -2   72.90    8.11
   2  -5  -2   68.48    4.10
   2  -5  -2   64.90    7.11
   2  -5  -2   82.33    8.81
   2  -5  -1  739.66   25.82
   2  -5  -1  731.38   33.21
   2  -5  -1  702.17   25.71
   2  -5  -1  664.38   31.29
   2  -5  -1  759.86   34.12
   2  -5   0    1.67    0.74
   2  -5   0    0.52    1.25
   2  -5   0    1.53    0.77
   2  -5   1  204.71    8.86
   2  -5   1  216.24   13.96
   2  -5   1  203.30    8.81
   2  -5   1  214.84   13.47
   2  -5   2   76.38    8.27
   2  -5   2   76.14    4.10
   2  -5   2   81.84    4.50
   2  -5   2   81.16    4.48
   2  -5   2   74.44    7.45
   2  -5   3   58.20    3.59
   2  -5   3   61.86    3.84
   2  -5   3   54.45    6.55
   2  -5   3   64.72    3.87
   2  -5   4  108.76    5.74
   2  -5   4  112.47    5.01
   2  -5   4  107.67    5.28
   2  -5   4  105.60   10.29
   2  -5   4  110.87    5.66
   2  -5   4  107.03    5.64
   2  -5   4   93.16    8.96
   2  -5   5   78.14    9.04
   2  -5   5   69.99    4.44
   2  -5   5   73.81    4.47
   2  -5   5   69.95    3.85
   2  -5   6  240.35   10.13
   2  -5   6  258.65   10.43
   2  -5   6  211.86   17.14
   2  -5   6  246.86   11.00
   2  -5   6  255.24   10.27
   2  -5   6  246.84   10.20
   2  -5   6  243.65   10.76
   2  -5   7  109.72    6.34
   2  -5   7  105.76    5.58
   2  -5   7  107.69    5.48
   2  -5   7   94.96    5.39
   2  -5   7   96.41    5.33
   2  -5   7  107.58    5.60
   2  -5   8   -0.17    0.67
   2  -5   8    0.69    0.65
   2  -5   8    0.64    0.71
   2  -5   8    1.63    1.03
   2  -5   9    8.00    1.88
   2  -5   9    7.99    1.47
   2  -5   9    6.29    1.40
   2  -5   9    8.13    1.48
   2  -5   9    7.03    1.45
   2  -5  10    1.51    0.93
   2  -5  10    0.99    0.88
   2  -5  10    0.86    0.78
   2  -5  10    1.41    1.06
   2  -5  11   30.74    3.41
   2  -5  11   35.07    2.94
   2  -5  11   31.10    2.78
   2  -5  11   28.61    2.88
   2  -5  12    5.09    1.16
   2  -5  12    5.75    1.20
   2  -5  13    0.62    0.48
   2  -5  13    0.21    0.55
   2  -4  -7  136.14   12.70
   2  -4  -7  124.91   12.70
   2  -4  -6   25.86    5.60
   2  -4  -6   26.52    5.55
   2  -4  -5  323.83   20.91
   2  -4  -5  351.34   22.46
   2  -4  -4  310.51   19.71
   2  -4  -4  364.08   21.86
   2  -4  -4  317.27   12.64
   2  -4  -3  112.45    5.41
   2  -4  -3  102.19    9.81
   2  -4  -3  100.75    5.17
   2  -4  -3   97.16    8.30
   2  -4  -2  463.53   24.76
   2  -4  -2  470.09   17.07
   2  -4  -2  439.40   23.23
   2  -4  -2  460.33   16.99
   2  -4  -2  438.94   21.65
   2  -4  -1   36.66    5.27
   2  -4  -1   43.50    6.15
   2  -4  -1   48.34    3.01
   2  -4  -1   49.24    5.49
   2  -4   0  435.36   21.06
   2  -4   0  393.41   22.27
   2  -4   0  434.50   15.93
   2  -4   0  426.51   20.47
   2  -4   1  121.77    5.48
   2  -4   1  125.46    5.50
   2  -4   1  134.01    9.29
   2  -4   1  125.82    5.79
   2  -4   1  111.53    8.74
   2  -4   2  665.78   24.40
   2  -4   2  674.18   32.02
   2  -4   2  734.57   24.71
   2  -4   2  699.42   29.09
   2  -4   2  689.24   24.24
   2  -4   3  716.07   24.76
   2  -4   3  678.01   24.68
   2  -4   3  717.44   24.80
   2  -4   3  666.21   29.78
   2  -4   3  677.83   24.31
   2  -4   4   81.77    4.47
   2  -4   4   75.80    8.67
   2  -4   4   85.61    4.71
   2  -4   4   78.49    4.04
   2  -4   4   92.32    4.68
   2  -4   4   92.05    7.99
   2  -4   4   78.00    4.19
   2  -4   5  166.22    7.51
   2  -4   5  179.24   14.52
   2  -4   5  185.59    8.37
   2  -4   5  172.55    7.97
   2  -4   5  192.61    8.14
   2  -4   5  183.49   12.47
   2  -4   6   -0.12    0.66
   2  -4   6    0.15    0.57
   2  -4   6    1.11    0.65
   2  -4   6    0.23    0.67
   2  -4   6   -0.18    0.78
   2  -4   6   -0.13    0.61
   2  -4   6   -0.88    1.65
   2  -4   6    0.15    0.65
   2  -4   7  276.85   11.02
   2  -4   7  266.57   11.07
   2  -4   7  271.59   11.33
   2  -4   7  267.32   11.00
   2  -4   7  264.99   11.59
   2  -4   8   35.31    3.53
   2  -4   8   36.01    2.82
   2  -4   8   31.97    2.78
   2  -4   8   29.39    2.83
   2  -4   8   32.64    2.73
   2  -4   8   32.11    3.08
   2  -4   9   69.82    5.38
   2  -4   9   68.48    4.29
   2  -4   9   64.01    4.30
   2  -4   9   59.81    4.44
   2  -4   9   65.34    4.14
   2  -4   9   78.43    5.10
   2  -4  10  122.08    7.50
   2  -4  10  115.75    6.09
   2  -4  10  113.93    6.26
   2  -4  10  112.75    6.84
   2  -4  10  115.45    6.64
   2  -4  11    0.24    1.06
   2  -4  11    1.34    0.95
   2  -4  11    1.08    0.87
   2  -4  11    1.63    0.94
   2  -4  12   16.47    2.13
   2  -4  12   14.43    1.83
   2  -4  13    1.52    0.73
   2  -3  -8  130.53   13.40
   2  -3  -7    5.23    2.97
   2  -3  -7    7.25    3.35
   2  -3  -6   53.84    8.36
   2  -3  -6   59.70    8.13
   2  -3  -5    6.84    1.12
   2  -3  -5    6.60    3.06
   2  -3  -5    7.16    3.20
   2  -3  -4   87.77    8.90
   2  -3  -4   84.61    7.13
   2  -3  -3    5.61    2.26
   2  -3  -3    5.81    0.94
   2  -3  -3    2.34    1.20
   2  -3  -2   66.94    6.92
   2  -3  -2   77.59    3.95
   2  -3  -2   79.91    6.69
   2  -3  -1  878.10   34.91
   2  -3  -1  856.53   34.38
   2  -3   0  275.14   10.21
   2  -3   0  297.90   14.17
   2  -3   0  263.56   10.25
   2  -3   0  279.03   14.24
   2  -3   1  211.55    8.39
   2  -3   1  209.76    8.19
   2  -3   1  202.88   11.69
   2  -3   2   66.80    3.69
   2  -3   2   71.04    3.53
   2  -3   3   50.25    3.21
   2  -3   3   49.80    2.91
   2  -3   3   49.09    5.22
   2  -3   3   52.20    3.12
   2  -3   3   51.89    2.82
   2  -3   4  336.20   12.96
   2  -3   4  351.92   13.68
   2  -3   4  354.11   13.24
   2  -3   4  341.42   12.97
   2  -3   4  358.88   13.32
   2  -3   4  333.32   17.44
   2  -3   5    0.64    0.61
   2  -3   5    0.46    0.48
   2  -3   5    0.74    1.78
   2  -3   5    2.37    1.44
   2  -3   5    0.84    0.67
   2  -3   6  503.68   18.91
   2  -3   6  514.42   18.59
   2  -3   6  527.81   18.49
   2  -3   6  497.89   19.66
   2  -3   6  500.04   28.47
   2  -3   6  507.59   18.62
   2  -3   6  489.75   18.74
   2  -3   6  486.02   24.11
   2  -3   7  167.23    8.44
   2  -3   7  149.70    7.14
   2  -3   7  162.72    7.15
   2  -3   7  148.62    7.54
   2  -3   7  153.82    7.18
   2  -3   7  164.48    8.17
   2  -3   8  108.47    6.87
   2  -3   8  115.66    5.79
   2  -3   8  112.95    5.89
   2  -3   8   98.21    5.99
   2  -3   8  111.51    5.73
   2  -3   8  116.13    6.77
   2  -3   9  118.61    7.33
   2  -3   9  113.32    5.94
   2  -3   9  110.43    6.11
   2  -3   9  110.72    6.49
   2  -3   9  113.08    5.89
   2  -3   9  115.93    7.07
   2  -3  10   65.37    5.23
   2  -3  10   73.34    4.63
   2  -3  10   65.76    4.85
   2  -3  10   83.41    5.65
   2  -3  11   74.58    5.22
   2  -3  11   89.67    5.82
   2  -3  11   83.55    4.98
   2  -3  12    3.32    1.15
   2  -3  12    2.33    0.95
   2  -3  13   41.00    3.03
   2  -2  -8   70.68   10.00
   2  -2  -7    6.86    2.62
   2  -2  -7    6.44    3.06
   2  -2  -6  403.64   23.37
   2  -2  -6  367.11   24.59
   2  -2  -5  456.73   23.83
   2  -2  -5  403.07   25.06
   2  -2  -4    3.38    1.82
   2  -2  -4    3.02    2.15
   2  -2  -4    3.91    1.63
   2  -2  -4    4.52    0.83
   2  -2  -3  220.20   15.26
   2  -2  -3  223.64   13.66
   2  -2  -3  250.13   12.78
   2  -2  -2  105.91    7.64
   2  -2  -2  114.93    7.81
   2  -2  -2  110.29    9.59
   2  -2  -1  120.85    7.34
   2  -2  -1  100.27    8.99
   2  -2  -1  124.49    8.03
   2  -2   0  113.68    5.04
   2  -2   0  110.85    7.53
   2  -2   1  102.68    4.55
   2  -2   1  107.73    8.84
   2  -2   1  105.43    4.86
   2  -2   2  141.19   10.42
   2  -2   2  141.53    8.78
   2  -2   2  126.21    5.49
   2  -2   3  311.57   17.25
   2  -2   3  288.12   11.36
   2  -2   3  270.57   10.75
   2  -2   3  310.01   14.87
   2  -2   3  288.83   10.82
   2  -2   4   96.69    7.42
   2  -2   4   92.60    9.05
   2  -2   4   86.22    4.44
   2  -2   5   21.85    1.81
   2  -2   5   23.72    2.12
   2  -2   5   20.98    2.31
   2  -2   5   25.03    2.06
   2  -2   5   23.47    3.69
   2  -2   5   24.09    2.01
   2  -2   6    2.32    0.77
   2  -2   6    1.82    0.68
   2  -2   6    1.15    0.73
   2  -2   6    1.54    1.01
   2  -2   6    2.23    0.83
   2  -2   6    3.74    1.42
   2  -2   6    1.68    0.79
   2  -2   7  324.60   13.33
   2  -2   7  319.92   12.69
   2  -2   7  311.72   12.51
   2  -2   7  333.04   14.17
   2  -2   7  311.10   12.70
   2  -2   7  310.02   12.62
   2  -2   7  344.57   14.33
   2  -2   8   15.75    2.18
   2  -2   8   10.34    2.07
   2  -2   8   11.54    1.72
   2  -2   8   12.80    1.73
   2  -2   8   11.75    1.70
   2  -2   8   14.12    2.26
   2  -2   8   13.11    1.71
   2  -2   9    8.18    1.78
   2  -2   9    9.28    1.55
   2  -2   9    8.30    1.39
   2  -2   9    7.03    1.88
   2  -2  10   94.75    5.93
   2  -2  10   99.96    5.53
   2  -2  10   81.54    4.70
   2  -2  10   88.63    6.28
   2  -2  11    0.20    0.83
   2  -2  11   -0.71    0.99
   2  -2  11    0.32    0.73
   2  -2  12   20.12    2.00
   2  -1  -9  149.44   14.86
   2  -1  -8   35.26    7.11
   2  -1  -7  156.59   14.82
   2  -1  -6  416.65   22.44
   2  -1  -6  339.81   22.89
   2  -1  -5    1.15    1.86
   2  -1  -5    3.75    2.14
   2  -1  -5    1.66    0.95
   2  -1  -4  472.26   23.88
   2  -1  -4  511.88   26.46
   2  -1  -3   12.51    2.38
   2  -1  -3   18.90    3.76
   2  -1  -3   15.76    2.64
   2  -1  -2 1185.25   41.29
   2  -1  -2 1169.99   43.07
   2  -1  -2 1075.50   45.49
   2  -1  -1  763.95   29.10
   2  -1  -1  768.77   30.09
   2  -1  -1  766.84   32.27
   2  -1   0   75.92    5.61
   2  -1   0   69.63    5.67
   2  -1   0   74.46    3.76
   2  -1   1  355.15   12.83
   2  -1   1  344.11   17.69
   2  -1   1  318.29   15.57
   2  -1   1  331.71   12.27
   2  -1   2  381.66   14.18
   2  -1   2  383.53   14.10
   2  -1   2  395.40   14.63
   2  -1   2  442.17   20.38
   2  -1   2  383.20   18.06
   2  -1   2  411.92   16.65
   2  -1   2  383.29   17.61
   2  -1   3  949.52   33.39
   2  -1   3  963.55   33.20
   2  -1   3 1038.89   38.68
   2  -1   3 1009.64   37.64
   2  -1   4  165.75   12.07
   2  -1   4  162.49    7.50
   2  -1   4  156.03    6.54
   2  -1   4  157.01    9.83
   2  -1   4  149.33    6.90
   2  -1   5  289.06   15.46
   2  -1   5  276.19   11.49
   2  -1   5  308.49   12.19
   2  -1   5  317.92   12.76
   2  -1   5  321.52   19.31
   2  -1   5  311.65   17.26
   2  -1   5  305.73   11.71
   2  -1   6  107.39    5.87
   2  -1   6  107.65    5.29
   2  -1   6  110.31    5.18
   2  -1   6  102.21    5.36
   2  -1   6  104.43    5.36
   2  -1   6  111.10    6.39
   2  -1   7    8.98    1.41
   2  -1   7    9.11    1.44
   2  -1   7    7.54    1.82
   2  -1   7    8.92    1.41
   2  -1   7    7.84    1.72
   2  -1   7    7.78    1.57
   2  -1   8   18.96    2.15
   2  -1   8   15.97    2.09
   2  -1   8   23.15    2.23
   2  -1   8   19.82    2.91
   2  -1   8   25.39    2.95
   2  -1   9    3.98    1.12
   2  -1   9    3.74    1.26
   2  -1   9    2.25    1.14
   2  -1   9    4.23    1.21
   2  -1   9    3.06    0.99
   2  -1  10   91.26    5.45
   2  -1  10   99.19    6.14
   2  -1  11   28.06    2.55
   2  -1  11   24.23    2.64
   2  -1  11   28.39    3.00
   2  -1  12    2.74    0.91
   2  -1  12    2.77    0.84
   2   0  -9    4.19    2.26
   2   0  -8    6.82    3.15
   2   0  -7   76.04    9.48
   2   0  -6   68.45    8.27
   2   0  -5  638.19   25.62
   2   0  -5  575.63   29.15
   2   0  -4  171.77    9.82
   2   0  -4  153.77   11.45
   2   0  -3  407.51   20.09
   2   0  -3  391.46   17.77
   2   0  -3  398.80   16.18
   2   0  -2   32.12    4.35
   2   0  -2   37.52    3.95
   2   0  -2   26.08    2.99
   2   0  -1  207.63   11.78
   2   0  -1  185.27   10.29
   2   0  -1  180.40    9.84
   2   0   0  280.43   14.61
   2   0   0  264.17   13.17
   2   0   0  273.00   13.41
   2   0   1  185.08    7.55
   2   0   1  181.93    7.38
   2   0   1  197.62    7.98
   2   0   1  183.51   10.60
   2   0   1  190.71   10.47
   2   0   2 1792.53   61.32
   2   0   2 1850.07   61.06
   2   0   2 1870.65   67.50
   2   0   2 1787.07   64.81
   2   0   2 1850.41   66.28
   2   0   2 1836.45   65.26
   2   0   3  526.40   22.53
   2   0   3  535.66   19.12
   2   0   3  486.33   18.43
   2   0   3  581.61   25.39
   2   0   3  556.83   19.56
   2   0   3  526.19   23.82
   2   0   3  520.76   18.73
   2   0   4   93.81    4.88
   2   0   4   88.27    8.55
   2   0   4   82.51    4.97
   2   0   4   82.73    4.33
   2   0   4   91.75    7.04
   2   0   5  119.86    8.50
   2   0   5  108.82    5.53
   2   0   5  110.55    5.96
   2   0   5  112.02    5.31
   2   0   5  112.41    6.32
   2   0   5  114.64    9.76
   2   0   5  121.42    5.69
   2   0   6  182.45    8.43
   2   0   6  194.31    9.07
   2   0   6  186.79    9.27
   2   0   6  183.02    8.12
   2   0   6  195.81   13.92
   2   0   6  190.20    8.34
   2   0   7  405.60   15.73
   2   0   7  398.82   16.02
   2   0   7  409.81   15.69
   2   0   7  390.80   16.68
   2   0   8   10.79    1.69
   2   0   8    8.85    1.69
   2   0   8   10.75    1.99
   2   0   8   10.91    1.77
   2   0   8    9.62    2.07
   2   0   8    8.32    1.49
   2   0   9  156.71    8.59
   2   0   9  165.87    8.03
   2   0   9  169.71    8.33
   2   0   9  150.93    7.39
   2   0   9  160.26    9.02
   2   0  10    9.94    1.68
   2   0  10    7.08    1.66
   2   0  10   11.68    1.82
   2   0  10    7.61    1.74
   2   0  11   57.21    3.77
   2   0  11   59.70    4.15
   2   0  11   59.37    3.98
   2   1  -9  122.04   12.13
   2   1  -8   -0.83    1.99
   2   1  -7  217.07   15.58
   2   1  -6    5.02    1.66
   2   1  -6    4.96    2.50
   2   1  -5   42.58    4.46
   2   1  -5   40.56    5.40
   2   1  -4    8.54    1.98
   2   1  -4    6.79    2.25
   2   1  -3  494.21   22.01
   2   1  -3  487.21   20.99
   2   1  -3  466.54   19.60
   2   1  -2   58.19    5.18
   2   1  -2   48.75    4.44
   2   1  -1  868.49   33.52
   2   1  -1  795.46   32.32
   2   1  -1  868.22   33.19
   2   1   0  109.20    5.00
   2   1   0  109.11    7.82
   2   1   0  104.46    7.50
   2   1   0  104.01    7.29
   2   1   0  100.80    4.63
   2   1   1  124.10    5.73
   2   1   1  115.98    8.00
   2   1   1  133.85    9.03
   2   1   1  126.72    8.69
   2   1   1  131.08    8.54
   2   1   1  115.44    5.31
   2   1   2   41.76    2.57
   2   1   2   42.76    2.92
   2   1   2   39.93    4.44
   2   1   2   42.56    5.05
   2   1   2   43.35    3.06
   2   1   2   44.11    5.06
   2   1   2   39.67    2.63
   2   1   3  298.69   12.09
   2   1   3  329.72   12.80
   2   1   3  322.82   15.84
   2   1   3  334.20   17.64
   2   1   3  336.18   13.03
   2   1   3  294.27   16.03
   2   1   3  316.51   12.23
   2   1   4   17.27    3.01
   2   1   4   13.72    1.62
   2   1   4   14.69    1.87
   2   1   4   12.20    1.80
   2   1   4   14.50    3.48
   2   1   4   14.73    1.70
   2   1   5   66.52    4.22
   2   1   5   69.18    4.72
   2   1   5   73.29    4.05
   2   1   5   64.16    7.56
   2   1   5   74.00    4.28
   2   1   6  202.21    9.40
   2   1   6  200.74    9.01
   2   1   6  207.36    9.84
   2   1   6  202.43   15.05
   2   1   6  215.51    9.27
   2   1   7    0.46    0.93
   2   1   7    1.81    0.87
   2   1   7    0.56    0.67
   2   1   7    0.96    0.83
   2   1   7    1.80    1.18
   2   1   7    0.16    0.75
   2   1   8   78.78    5.61
   2   1   8   81.63    5.06
   2   1   8   85.40    5.45
   2   1   8   83.51    4.94
   2   1   8   82.72    5.85
   2   1   9    0.53    0.78
   2   1   9    0.88    0.97
   2   1   9    1.81    0.97
   2   1   9    0.23    0.81
   2   1   9    0.55    0.69
   2   1  10  124.37    6.21
   2   1  10  109.93    6.21
   2   1  10  113.25    6.30
   2   1  10  106.34    6.21
   2   1  11   91.90    4.65
   2   1  11   81.82    4.53
   2   2  -8  166.95   12.97
   2   2  -7    4.73    2.02
   2   2  -6  840.56   35.11
   2   2  -6  805.86   32.81
   2   2  -5   49.19    5.38
   2   2  -5   46.18    4.94
   2   2  -4   22.74    3.41
   2   2  -4   15.55    2.50
   2   2  -3  925.33   35.14
   2   2  -3  884.49   34.80
   2   2  -2  165.38    9.44
   2   2  -2  146.82    9.48
   2   2  -1  635.00   26.03
   2   2  -1  622.10   25.88
   2   2  -1  594.28   21.18
   2   2   0   10.93    1.46
   2   2   0    9.85    2.52
   2   2   0   10.84    2.54
   2   2   0   10.12    2.19
   2   2   0    9.52    1.19
   2   2   1  607.04   21.17
   2   2   1  538.64   20.42
   2   2   1  582.88   24.60
   2   2   1  605.14   26.24
   2   2   1  572.51   20.50
   2   2   2   95.23    7.50
   2   2   2   87.62    4.97
   2   2   2   80.59    4.51
   2   2   2   91.99    7.63
   2   2   2   93.82    5.16
   2   2   2   94.33    8.31
   2   2   2   89.62    4.63
   2   2   3    3.67    0.99
   2   2   3    5.33    1.25
   2   2   3    2.95    0.99
   2   2   3    3.29    1.68
   2   2   3    4.97    1.90
   2   2   4   24.31    2.33
   2   2   4   20.01    1.86
   2   2   4   18.50    2.23
   2   2   4   20.07    2.09
   2   2   4   24.53    4.55
   2   2   5   14.17    1.91
   2   2   5   12.67    2.08
   2   2   5   13.42    1.68
   2   2   5   16.28    2.07
   2   2   5   19.43    4.26
   2   2   5   13.90    1.91
   2   2   6  205.52    9.49
   2   2   6  182.37    8.68
   2   2   6  195.13    9.69
   2   2   6  180.93   14.63
   2   2   6  184.57    8.80
   2   2   7   87.20    5.72
   2   2   7   75.13    4.88
   2   2   7   79.82    4.94
   2   2   7   82.63    5.62
   2   2   7   79.29    5.39
   2   2   8    2.36    1.03
   2   2   8    3.07    1.08
   2   2   8   -0.45    0.99
   2   2   8    1.29    0.86
   2   2   8    1.25    0.75
   2   2   8    2.09    0.74
   2   2   9   22.70    2.40
   2   2   9   21.43    2.47
   2   2   9   22.02    2.45
   2   2   9   18.93    2.30
   2   2  10   18.80    2.12
   2   2  10   19.70    1.94
   2   2  10   14.31    1.71
   2   3  -6  140.27    9.84
   2   3  -5  247.32   12.98
   2   3  -4  499.14   22.32
   2   3  -3  322.81   16.47
   2   3  -3  320.20   14.61
   2   3  -2  805.81   32.57
   2   3  -2  801.91   32.50
   2   3  -2  757.66   26.72
   2   3  -2  759.11   29.41
   2   3  -1   67.21    6.67
   2   3  -1   61.81    6.41
   2   3  -1   67.51    3.68
   2   3  -1   64.16    3.75
   2   3   0  345.96   13.48
   2   3   0  330.44   12.97
   2   3   0  334.47   18.13
   2   3   0  319.21   12.72
   2   3   1   46.90    3.53
   2   3   1   51.09    3.41
   2   3   1   42.62    4.66
   2   3   1   48.31    6.29
   2   3   1   49.46    3.29
   2   3   2  226.15   10.38
   2   3   2  243.03   10.32
   2   3   2  227.14   10.01
   2   3   2  225.44   14.79
   2   3   2  230.05    9.85
   2   3   3  516.02   19.88
   2   3   3  524.16   19.95
   2   3   3  532.65   25.10
   2   3   3  519.28   26.91
   2   3   3  505.17   24.19
   2   3   4   55.27    4.07
   2   3   4   52.98    4.18
   2   3   4   49.08    3.68
   2   3   4   56.73    7.64
   2   3   4   51.09    3.74
   2   3   5  393.32   16.93
   2   3   5  428.17   16.97
   2   3   5  417.98   16.12
   2   3   5  394.61   24.03
   2   3   5  390.39   16.19
   2   3   6   19.01    2.55
   2   3   6   18.86    2.13
   2   3   6   19.18    2.58
   2   3   6   21.39    2.37
   2   3   6   21.12    2.42
   2   3   6   20.21    2.52
   2   3   6   24.26    4.81
   2   3   7   40.43    3.62
   2   3   7   39.98    3.68
   2   3   7   40.60    3.33
   2   3   7   35.23    3.14
   2   3   7   35.85    3.25
   2   3   7   29.88    2.87
   2   3   8   20.18    2.31
   2   3   8   20.80    2.32
   2   3   8   24.38    2.72
   2   3   8   19.40    2.02
   2   3   8   21.48    2.32
   2   3   8   15.00    1.82
   2   3   9   40.00    3.00
   2   3   9   42.89    3.38
   2   3  10   35.24    2.58
   2   4  -9    6.82    2.22
   2   4  -8   10.85    3.13
   2   4  -7   66.08    7.18
   2   4  -6  158.98   11.55
   2   4  -5  106.90    9.13
   2   4  -5  121.44    9.17
   2   4  -4    2.05    1.56
   2   4  -4    3.50    2.01
   2   4  -3   21.10    1.91
   2   4  -3   24.92    4.25
   2   4  -3   21.46    2.10
   2   4  -2   23.13    2.06
   2   4  -2   20.74    4.01
   2   4  -2   17.34    3.76
   2   4  -2   17.49    1.95
   2   4  -1  272.21   11.41
   2   4  -1  272.80   16.86
   2   4  -1  275.07   11.17
   2   4   0  159.44    7.81
   2   4   0  162.53   12.74
   2   4   0  174.84    7.78
   2   4   0  162.15    8.01
   2   4   1  172.72    8.32
   2   4   1  181.31    8.18
   2   4   2  305.91   12.86
   2   4   2  287.39   12.37
   2   4   2  299.36   19.22
   2   4   2  309.30   18.25
   2   4   2  298.60   12.52
   2   4   3   14.98    2.23
   2   4   3   13.89    3.13
   2   4   3   13.61    1.78
   2   4   3   14.77    2.14
   2   4   3   14.11    3.89
   2   4   4  142.34    7.77
   2   4   4  135.46    7.65
   2   4   4  152.70   13.50
   2   4   4  139.20    7.41
   2   4   5    1.92    0.88
   2   4   5    1.54    1.11
   2   4   5    2.28    1.04
   2   4   5    2.67    0.96
   2   4   5    1.73    1.09
   2   4   6  168.47    8.25
   2   4   6  171.96    8.90
   2   4   6  165.76    8.54
   2   4   6  175.16    8.05
   2   4   6  158.51    8.18
   2   4   6  169.44    8.19
   2   4   7   79.48    4.84
   2   4   7   82.88    5.37
   2   4   7   74.02    4.77
   2   4   7   74.83    4.62
   2   4   7   75.94    4.52
   2   4   8   49.91    3.41
   2   4   8   54.12    3.82
   2   4   9   31.89    2.27
   2   4   9   33.94    2.56
   2   5  -9   20.52    4.08
   2   5  -8   20.80    4.36
   2   5  -7   62.27    7.45
   2   5  -6  137.40   11.10
   2   5  -6  119.51   10.14
   2   5  -5  209.11   14.37
   2   5  -5  208.14   14.30
   2   5  -4   19.76    4.15
   2   5  -4   20.46    4.22
   2   5  -4   16.41    1.78
   2   5  -3  239.57   16.46
   2   5  -3  257.43   10.83
   2   5  -3  270.67   11.20
   2   5  -2  197.07   14.56
   2   5  -2  203.49    8.84
   2   5  -2  185.98    8.83
   2   5  -1    9.51    1.58
   2   5  -1    7.92    3.01
   2   5  -1    7.26    1.41
   2   5   0   11.94    1.85
   2   5   0   12.24    1.82
   2   5   0   12.32    3.84
   2   5   0   13.53    3.90
   2   5   1   34.69    3.29
   2   5   1   39.65    3.42
   2   5   1   35.30    5.95
   2   5   1   43.05    3.48
   2   5   2  148.00    7.89
   2   5   2  158.60    8.10
   2   5   2  145.34    7.19
   2   5   2  136.54   12.77
   2   5   2  150.71   12.11
   2   5   2  154.91    7.86
   2   5   3   48.47    6.62
   2   5   3   59.27    8.01
   2   5   3   61.34    4.56
   2   5   3   62.44    4.65
   2   5   4    3.29    1.17
   2   5   4    1.56    1.10
   2   5   4    2.74    1.17
   2   5   5   50.26    3.61
   2   5   5   41.30    3.75
   2   5   5   44.78    3.58
   2   5   5   41.74    3.11
   2   5   5   42.46    3.57
   2   5   6    0.15    0.74
   2   5   6    2.17    1.00
   2   5   6    1.08    0.80
   2   5   6    0.48    0.71
   2   5   7   11.26    1.47
   2   5   7   13.42    1.83
   2   5   8   14.29    1.42
   2   5   8   15.97    1.71
   2   5   9    6.29    0.79
   2   6  -6  476.31   25.56
   2   6  -5   42.82    6.34
   2   6  -4  117.71    6.24
   2   6  -4  106.57    5.83
   2   6  -4   98.05   10.19
   2   6  -3   57.75    4.12
   2   6  -3   57.58    3.95
   2   6  -3   52.38    7.38
   2   6  -2  331.51   13.89
   2   6  -2  339.11   13.86
   2   6  -2  327.92   20.75
   2   6  -1  122.81    6.79
   2   6  -1  123.89   11.76
   2   6  -1  127.25   11.85
   2   6  -1  126.14    6.73
   2   6   0   82.55    5.25
   2   6   0   76.16    5.12
   2   6   0   77.62    8.91
   2   6   0   81.12    5.16
   2   6   1  302.52   12.97
   2   6   1  288.89   12.79
   2   6   1  281.29   11.96
   2   6   1  313.09   20.10
   2   6   1  323.36   19.45
   2   6   1  289.29   12.63
   2   6   2    2.18    1.03
   2   6   2    1.05    1.04
   2   6   2    4.82    1.96
   2   6   2    1.99    1.24
   2   6   2    4.05    2.46
   2   6   3   52.25    3.97
   2   6   3   53.87    7.20
   2   6   3   48.87    4.02
   2   6   3   43.16    3.65
   2   6   4   11.82    1.96
   2   6   4   11.05    1.83
   2   6   4   13.17    1.85
   2   6   5   54.52    3.59
   2   6   5   53.46    3.94
   2   6   5   45.37    3.45
   2   6   5   50.64    3.50
   2   6   6   60.43    3.61
   2   6   6   61.20    3.59
   2   6   6   58.50    3.74
   2   6   6   66.10    4.09
   2   6   7    1.00    0.52
   2   6   7    1.02    0.55
   2   7  -8   12.37    3.35
   2   7  -7   46.37    7.08
   2   7  -7   58.42    7.55
   2   7  -6   12.21    3.83
   2   7  -6   11.74    3.46
   2   7  -6    9.25    3.52
   2   7  -5  110.88    6.26
   2   7  -5  109.21   10.80
   2   7  -4    1.29    0.99
   2   7  -4    2.47    0.99
   2   7  -4    3.06    2.47
   2   7  -3  155.78    8.04
   2   7  -3  162.85    7.89
   2   7  -3  158.68   13.72
   2   7  -3  152.69   13.25
   2   7  -2  110.57    6.38
   2   7  -2  100.54   10.91
   2   7  -2  111.16   11.24
   2   7  -2  117.44    6.34
   2   7  -1    8.97    1.67
   2   7  -1   12.66    1.95
   2   7  -1    9.78    1.73
   2   7  -1   16.42    4.06
   2   7  -1    9.78    3.35
   2   7  -1    8.77    3.34
   2   7   0   53.15    4.04
   2   7   0   52.66    4.12
   2   7   0   55.89    7.53
   2   7   0   59.84    8.00
   2   7   0   46.79    7.01
   2   7   0   52.03    4.01
   2   7   1   10.35    1.78
   2   7   1   14.19    2.03
   2   7   1   10.24    1.81
   2   7   1   12.57    3.21
   2   7   1   15.69    3.54
   2   7   1   18.85    4.16
   2   7   2  215.18    9.86
   2   7   2  189.74    9.23
   2   7   3  143.71    7.20
   2   7   3  149.16    7.38
   2   7   3  151.96    7.70
   2   7   4   66.81    3.88
   2   7   4   69.86    4.15
   2   7   4   73.68    4.53
   2   7   5   26.68    2.17
   2   7   5   27.97    2.13
   2   7   5   30.13    2.54
   2   7   6    6.41    1.02
   2   7   6    6.22    0.95
   2   8  -6   29.45    5.61
   2   8  -6   33.28    5.36
   2   8  -6   26.98    5.06
   2   8  -6   27.13    2.74
   2   8  -5    7.41    2.95
   2   8  -5    8.00    1.58
   2   8  -5    4.66    2.79
   2   8  -5   11.98    3.23
   2   8  -5    8.96    1.47
   2   8  -4    4.82    1.20
   2   8  -4    9.09    2.95
   2   8  -4    3.88    2.21
   2   8  -4    6.86    2.72
   2   8  -4    5.00    1.27
   2   8  -3    5.71    1.23
   2   8  -3    3.57    1.15
   2   8  -3    3.78    2.82
   2   8  -3    4.64    2.50
   2   8  -2   82.38    4.96
   2   8  -2   80.37    5.11
   2   8  -2   76.47    5.04
   2   8  -2  102.79   10.06
   2   8  -2   68.99    8.47
   2   8  -2   53.52    7.92
   2   8  -1   14.47    2.00
   2   8  -1   14.77    1.97
   2   8  -1   13.47    2.04
   2   8   0    1.19    0.78
   2   8   0    3.76    1.14
   2   8   0    2.43    0.97
   2   8   1  187.72    8.64
   2   8   1  189.04    8.74
   2   8   1  183.99    8.87
   2   8   2    1.34    0.70
   2   8   2    2.82    0.95
   2   8   3    0.63    0.65
   2   8   3    2.04    0.83
   2   8   4    0.76    0.53
   2   8   4    0.47    0.58
   2   8   5   28.79    2.05
   2   9 -10   76.70    4.07
   2   9  -9    0.13    0.60
   2   9  -8   24.31    2.35
   2   9  -7    0.47    0.69
   2   9  -6   86.80    5.17
   2   9  -5   37.58    2.87
   2   9  -5   39.22    3.22
   2   9  -4   59.19    3.94
   2   9  -4   63.63    4.31
   2   9  -3  121.19    6.26
   2   9  -3  110.47    5.95
   2   9  -3  108.31    6.19
   2   9  -2    5.35    1.17
   2   9  -2    4.09    1.13
   2   9  -2    5.26    1.21
   2   9  -1   55.29    3.78
   2   9  -1   57.93    3.85
   2   9  -1   59.09    4.05
   2   9   0    0.13    0.56
   2   9   0    0.14    0.69
   2   9   0    0.62    0.67
   2   9   1   34.15    2.51
   2   9   1   39.02    2.85
   2   9   1   41.73    3.06
   2   9   2    8.96    1.24
   2   9   2    8.88    1.28
   2   9   3    2.67    0.67
   2   9   3    2.27    0.66
   2  10  -9   24.55    2.00
   2  10  -8    1.14    0.63
   2  10  -7   70.88    4.15
   2  10  -6   29.51    2.53
   2  10  -5    7.80    1.29
   2  10  -5    6.57    1.10
   2  10  -5    7.64    1.31
   2  10  -4   38.38    2.90
   2  10  -4   38.76    2.77
   2  10  -4   41.20    3.02
   2  10  -3   11.74    1.55
   2  10  -3   12.48    1.54
   2  10  -3   10.78    1.55
   2  10  -2   67.72    3.93
   2  10  -2   78.07    4.16
   2  10  -2   70.49    4.22
   2  10  -1    6.47    0.98
   2  10  -1    8.31    1.23
   2  10  -1    5.62    1.08
   2  10   0   27.41    2.11
   2  10   0   24.71    2.10
   2  10   1   12.76    1.36
   2  11  -7    0.82    0.54
   2  11  -7    0.35    0.41
   2  11  -6   20.27    1.76
   2  11  -6   20.48    1.76
   2  11  -5    1.63    0.65
   2  11  -5    1.67    0.60
   2  11  -4    1.00    0.54
   2  11  -4    0.78    0.50
   2  11  -4    0.67    0.48
   2  11  -3   25.79    2.01
   2  11  -3   27.91    1.92
   2  11  -2    0.34    0.35
   2  11  -2    0.07    0.40
   3 -11   1   58.97    2.99
   3 -11   2    5.13    0.80
   3 -11   2    3.23    0.68
   3 -11   3   30.25    2.08
   3 -11   3   34.97    2.23
   3 -11   3   31.01    2.11
   3 -11   4   22.55    1.76
   3 -11   4   24.01    1.86
   3 -11   4   22.08    1.71
   3 -11   5    5.68    0.84
   3 -11   6   11.67    1.22
   3 -11   6    9.30    0.94
   3 -11   7    0.31    0.39
   3 -10  -1   10.64    1.20
   3 -10   0   38.26    2.47
   3 -10   0   38.63    2.37
   3 -10   0   35.03    2.51
   3 -10   1    0.54    0.51
   3 -10   1    0.21    0.48
   3 -10   2   29.27    2.35
   3 -10   2   30.70    2.43
   3 -10   2   22.89    2.15
   3 -10   3    3.30    0.92
   3 -10   3    4.73    0.99
   3 -10   4   20.40    1.94
   3 -10   4   20.79    2.08
   3 -10   4   18.95    1.87
   3 -10   5   27.40    2.27
   3 -10   5   30.93    2.52
   3 -10   5   29.02    2.22
   3 -10   6    1.99    0.76
   3 -10   6    2.04    0.73
   3 -10   6    2.21    0.68
   3 -10   7   16.21    1.59
   3 -10   7   14.75    1.45
   3 -10   8    0.86    0.64
   3 -10   9   20.02    1.47
   3  -9  -3    0.08    0.34
   3  -9  -3   -0.08    0.35
   3  -9  -2   53.97    2.97
   3  -9  -2   57.57    3.15
   3  -9  -1    1.14    0.51
   3  -9  -1    1.65    0.64
   3  -9  -1    1.53    0.68
   3  -9   0   55.62    3.69
   3  -9   0   54.64    3.60
   3  -9   1   53.19    3.75
   3  -9   1   52.63    3.69
   3  -9   2   -0.17    0.69
   3  -9   2    0.52    0.67
   3  -9   2    0.48    0.75
   3  -9   3    5.05    1.33
   3  -9   3    8.34    1.42
   3  -9   4    0.49    0.70
   3  -9   4    0.59    0.63
   3  -9   5   26.52    2.51
   3  -9   5   28.85    2.74
   3  -9   5   23.30    2.23
   3  -9   6   16.95    1.83
   3  -9   6   19.52    1.98
   3  -9   6   18.14    1.92
   3  -9   6   18.39    2.12
   3  -9   7    8.32    1.41
   3  -9   7   10.90    1.43
   3  -9   7   11.30    1.51
   3  -9   8   34.49    2.74
   3  -9   8   37.08    2.56
   3  -9   9    7.83    1.16
   3  -9  10    1.97    0.65
   3  -8  -5   21.24    1.71
   3  -8  -4   17.97    1.79
   3  -8  -3  126.09    6.25
   3  -8  -3  133.24    5.92
   3  -8  -2    1.42    0.66
   3  -8  -2    0.42    0.64
   3  -8  -1   39.78    3.18
   3  -8   0   47.15    3.31
   3  -8   4  294.89   13.26
   3  -8   4  325.05   13.12
   3  -8   5    6.56    1.41
   3  -8   5    8.99    1.46
   3  -8   5    6.56    1.21
   3  -8   6   12.23    1.61
   3  -8   6   15.25    1.89
   3  -8   6    9.95    1.75
   3  -8   6   10.40    1.65
   3  -8   7   24.45    2.46
   3  -8   7   20.73    2.02
   3  -8   8   22.82    2.39
   3  -8   8   20.07    1.94
   3  -8   9   14.90    1.93
   3  -8   9   15.35    1.63
   3  -8  10    0.40    0.56
   3  -8  10   -0.25    0.59
   3  -7  -6    6.24    1.02
   3  -7   1  171.12    8.01
   3  -7   2   62.60    8.29
   3  -7   3   92.75   10.09
   3  -7   3   67.16    4.19
   3  -7   4    6.37    2.42
   3  -7   4    1.60    0.79
   3  -7   5   66.85    3.90
   3  -7   5   58.32    4.21
   3  -7   5   67.69    4.24
   3  -7   6   27.52    2.72
   3  -7   6   27.22    2.34
   3  -7   6   22.62    2.49
   3  -7   7   32.95    3.09
   3  -7   7   31.13    2.57
   3  -7   8   68.71    4.69
   3  -7   8   67.73    3.95
   3  -7   9    0.64    0.78
   3  -7  10   23.82    2.42
   3  -7  10   24.26    1.96
   3  -6  -7    2.14    0.74
   3  -6  -2   13.93    1.95
   3  -6  -1   79.72    5.09
   3  -6  -1   93.89    9.67
   3  -6  -1   72.88    4.86
   3  -6  -1   85.85   10.25
   3  -6   0    2.81    1.14
   3  -6   0    0.88    1.90
   3  -6   0    1.56    2.22
   3  -6   0    1.85    1.06
   3  -6   1   55.29    4.07
   3  -6   1   51.59    3.98
   3  -6   1   62.60    8.83
   3  -6   2    1.92    1.01
   3  -6   2    0.95    0.92
   3  -6   2    0.70    0.60
   3  -6   3   14.44    4.36
   3  -6   3   13.49    2.07
   3  -6   3   11.97    1.70
   3  -6   4  133.22    7.16
   3  -6   4  129.16    6.73
   3  -6   5   32.51    6.45
   3  -6   5   21.10    2.60
   3  -6   5   32.97    5.88
   3  -6   5   29.46    2.84
   3  -6   6    5.01    1.27
   3  -6   6    6.31    1.17
   3  -6   7   11.27    1.88
   3  -6   7   10.70    1.53
   3  -6   8   40.99    3.65
   3  -6   8   35.97    2.75
   3  -6   9   33.12    3.30
   3  -6   9   38.97    2.73
   3  -6  11   24.37    2.31
   3  -5  -8   21.86    2.01
   3  -5  -4   41.67    3.32
   3  -5  -3   93.48    5.54
   3  -5  -3   94.70    5.43
   3  -5  -2   61.24    4.26
   3  -5  -2   58.42    4.08
   3  -5  -1   54.93    8.36
   3  -5  -1   47.33    3.63
   3  -5  -1   47.04    3.61
   3  -5  -1   47.35    6.82
   3  -5   0  245.37   18.71
   3  -5   0  241.88   10.71
   3  -5   0  237.00   10.55
   3  -5   0  229.57   16.31
   3  -5   1   11.44    4.24
   3  -5   1   10.28    1.46
   3  -5   1    9.46    3.34
   3  -5   1   12.31    1.84
   3  -5   2  113.69    5.87
   3  -5   2  109.67    6.19
   3  -5   2  105.88    6.06
   3  -5   3   31.54    2.88
   3  -5   3   39.41    3.31
   3  -5   3   41.54    7.44
   3  -5   3   34.16    3.09
   3  -5   3   39.25    6.29
   3  -5   4   29.18    2.96
   3  -5   4   42.83    3.40
   3  -5   4   39.81    6.45
   3  -5   4   34.76    3.19
   3  -5   4   39.08    3.10
   3  -5   5   80.89   10.58
   3  -5   5   74.74    4.94
   3  -5   5   67.17    4.38
   3  -5   5   71.69    4.81
   3  -5   6   19.39    2.21
   3  -5   6   16.86    1.91
   3  -5   6   19.21    1.92
   3  -5   6   20.17    2.54
   3  -5   6   18.61    5.13
   3  -5   6   19.39    4.30
   3  -5   6   14.44    2.11
   3  -5   7   79.24    5.46
   3  -5   7   82.92    4.48
   3  -5   7   80.55    4.64
   3  -5   7   80.80    4.75
   3  -5   8   24.75    2.27
   3  -5   8   28.14    2.51
   3  -5   8   26.37    2.45
   3  -5   9    1.14    0.66
   3  -5   9    2.34    1.15
   3  -5   9    2.53    0.88
   3  -5  10    4.85    1.02
   3  -5  11    3.01    0.90
   3  -4  -5    1.08    0.68
   3  -4  -4   88.06    4.98
   3  -4  -4   85.22    5.07
   3  -4  -3  202.26    8.89
   3  -4  -3  177.43   13.68
   3  -4  -3  184.39    8.81
   3  -4  -2   40.32    3.24
   3  -4  -2   50.97    6.75
   3  -4  -2   43.69    3.43
   3  -4  -1  149.18    7.38
   3  -4  -1  145.48   12.14
   3  -4   0    6.21    1.36
   3  -4   0    8.00    2.88
   3  -4   0    6.93    1.20
   3  -4   1  252.95   10.99
   3  -4   1  251.42   16.58
   3  -4   1  262.99   10.56
   3  -4   1  248.72   10.68
   3  -4   2   63.87    4.22
   3  -4   2   59.56    3.77
   3  -4   2   55.05    3.90
   3  -4   3  194.99    9.03
   3  -4   3  194.74    9.07
   3  -4   3  183.50   14.08
   3  -4   3  197.72    8.63
   3  -4   3  184.29    8.94
   3  -4   4  207.13    9.47
   3  -4   4  203.06    9.69
   3  -4   4  210.67    9.56
   3  -4   4  186.18   14.71
   3  -4   4  202.76    9.08
   3  -4   5    8.01    1.53
   3  -4   5   11.62    1.48
   3  -4   5   15.48    2.07
   3  -4   5   16.57    3.82
   3  -4   5   10.45    1.66
   3  -4   5   10.20    1.85
   3  -4   6   90.74    5.12
   3  -4   6   91.23    5.57
   3  -4   6  101.84    6.18
   3  -4   6   80.20   11.02
   3  -4   6   98.95    5.62
   3  -4   7    0.47    0.63
   3  -4   7    0.32    0.83
   3  -4   7    0.91    0.73
   3  -4   7    0.58    0.70
   3  -4   8   83.49    5.00
   3  -4   8   81.19    5.22
   3  -4   8   98.87    6.20
   3  -4   8   90.72    5.16
   3  -4   9   17.46    2.09
   3  -4   9   16.73    2.39
   3  -4   9   18.33    2.02
   3  -4  10   24.00    2.40
   3  -4  10   26.18    2.71
   3  -4  10   27.47    2.42
   3  -4  11   18.06    1.82
   3  -3  -6    2.57    0.87
   3  -3  -5   23.95    2.38
   3  -3  -5   30.21    6.51
   3  -3  -4    1.05    1.60
   3  -3  -4    3.68    1.62
   3  -3  -4    0.15    0.73
   3  -3  -3   97.13    5.37
   3  -3  -3   89.68    8.95
   3  -3  -2    2.84    2.89
   3  -3  -2    1.85    0.83
   3  -3  -2    1.85    1.76
   3  -3  -1   52.62    8.15
   3  -3  -1   60.04    3.99
   3  -3  -1   55.93    6.88
   3  -3  -1   58.02    3.63
   3  -3   0  283.55   17.31
   3  -3   0  306.45   12.01
   3  -3   0  289.98   11.29
   3  -3   0  264.31   11.46
   3  -3   1   65.18    7.67
   3  -3   1   79.97    4.76
   3  -3   1   78.24    4.31
   3  -3   1   74.13    9.53
   3  -3   1   72.73    4.53
   3  -3   2   65.30    7.87
   3  -3   2   88.30    5.01
   3  -3   2   79.05    4.48
   3  -3   2   69.58    9.31
   3  -3   2   79.59    4.90
   3  -3   3    9.96    2.97
   3  -3   3   12.61    1.79
   3  -3   3   10.60    1.73
   3  -3   3    8.97    3.75
   3  -3   3   10.83    1.52
   3  -3   4   28.01    2.69
   3  -3   4   29.82    2.45
   3  -3   4   32.04    2.87
   3  -3   4   31.75    5.44
   3  -3   4   29.82    3.04
   3  -3   4   36.27    6.78
   3  -3   4   30.67    2.66
   3  -3   5  112.08    6.74
   3  -3   5  117.21    6.36
   3  -3   5  115.22   10.94
   3  -3   5  109.63    5.89
   3  -3   5  124.33    6.22
   3  -3   6    2.43    0.97
   3  -3   6    3.03    2.88
   3  -3   6    1.54    1.03
   3  -3   7   87.70    5.21
   3  -3   7   83.61    5.04
   3  -3   7   85.42    5.60
   3  -3   7   84.26    5.88
   3  -3   8   44.60    3.48
   3  -3   8   44.31    3.36
   3  -3   8   35.73    3.52
   3  -3   8   43.65    3.98
   3  -3   9   31.83    2.85
   3  -3   9   28.68    2.57
   3  -3   9   35.59    3.18
   3  -3   9   28.49    3.08
   3  -3  10   30.69    2.82
   3  -3  10   26.37    2.64
   3  -3  11    8.38    1.27
   3  -2  -6   18.65    4.77
   3  -2  -5  290.84   11.45
   3  -2  -5  200.82   18.14
   3  -2  -4  292.77   11.82
   3  -2  -4  276.69   16.94
   3  -2  -4  251.77   19.51
   3  -2  -3    7.14    2.41
   3  -2  -2  141.60   11.21
   3  -2  -2  134.97    6.45
   3  -2  -1   41.80    6.83
   3  -2  -1   49.58    3.34
   3  -2  -1   40.07    5.70
   3  -2   0  121.60   11.86
   3  -2   0  122.22    5.75
   3  -2   0  108.03    9.82
   3  -2   1   64.71    4.27
   3  -2   1   66.42    3.88
   3  -2   2   25.54    2.09
   3  -2   2   23.67    4.52
   3  -2   2   25.45    2.62
   3  -2   2   29.25    5.66
   3  -2   2   23.97    2.20
   3  -2   3   69.63    4.75
   3  -2   3   66.56    7.77
   3  -2   3   67.73    4.02
   3  -2   3   69.41    4.21
   3  -2   4   24.79    2.37
   3  -2   4   29.02    2.73
   3  -2   4   21.46    4.41
   3  -2   4   28.40    2.95
   3  -2   4   31.69    6.34
   3  -2   4   25.29    2.48
   3  -2   5   25.40    2.50
   3  -2   5   25.16    2.57
   3  -2   5   30.63    5.14
   3  -2   5   29.72    6.22
   3  -2   5   25.59    2.55
   3  -2   6   23.10    2.47
   3  -2   6   17.72    2.52
   3  -2   6   16.58    2.04
   3  -2   7    2.13    1.25
   3  -2   7    3.64    1.22
   3  -2   7    0.50    0.93
   3  -2   7    2.05    0.98
   3  -2   8   93.64    6.33
   3  -2   8  103.51    5.70
   3  -2   8  101.45    5.99
   3  -2   9    6.15    1.21
   3  -2   9    4.10    1.24
   3  -2   9    4.79    1.28
   3  -2   9    4.47    1.17
   3  -2  10    1.00    0.84
   3  -2  10    1.02    0.68
   3  -2  11    7.57    1.21
   3  -2  11   11.38    1.31
   3  -1  -6   89.18   10.75
   3  -1  -5  223.95   17.30
   3  -1  -4    1.74    1.65
   3  -1  -3  290.97   16.97
   3  -1  -3  260.17   18.43
   3  -1  -3  272.06   11.22
   3  -1  -2   20.55    4.60
   3  -1  -2   17.31    2.01
   3  -1  -2   21.54    4.05
   3  -1  -1  426.20   16.29
   3  -1  -1  432.62   23.98
   3  -1  -1  413.16   15.52
   3  -1  -1  402.76   21.76
   3  -1   0  188.43    8.62
   3  -1   0  182.25   14.25
   3  -1   0  192.04   13.19
   3  -1   0  178.33    7.89
   3  -1   1    2.22    0.73
   3  -1   1    1.79    1.92
   3  -1   1    3.84    1.16
   3  -1   1    5.09    1.65
   3  -1   1    5.14    2.37
   3  -1   1    3.29    0.93
   3  -1   2  157.04   13.72
   3  -1   2  192.45   13.40
   3  -1   2  164.65    7.72
   3  -1   2  183.70    7.95
   3  -1   3   99.84   10.77
   3  -1   3  109.28    6.31
   3  -1   3  103.92    9.73
   3  -1   3   94.60    5.37
   3  -1   3  103.60    5.53
   3  -1   4  309.96   21.35
   3  -1   4  332.12   19.79
   3  -1   4  324.78   13.67
   3  -1   4  351.67   13.69
   3  -1   5  128.00    7.67
   3  -1   5  137.83    6.95
   3  -1   5  137.91   11.30
   3  -1   5  132.59    7.10
   3  -1   5  139.29    6.97
   3  -1   6  129.00    7.05
   3  -1   6  129.59    7.78
   3  -1   7   17.76    2.30
   3  -1   7   15.96    2.05
   3  -1   7   19.19    2.67
   3  -1   7   15.11    2.44
   3  -1   8    0.23    0.93
   3  -1   8    0.31    0.82
   3  -1   8    1.04    0.95
   3  -1   8    0.58    0.78
   3  -1   9   16.89    2.09
   3  -1   9   17.16    1.89
   3  -1   9   15.50    2.19
   3  -1  10    4.45    1.08
   3  -1  10    2.72    0.93
   3   0  -7   19.44    4.41
   3   0  -6   19.83    4.49
   3   0  -5   39.71    2.99
   3   0  -5   36.84    5.37
   3   0  -4  209.61   15.60
   3   0  -4  209.77   14.14
   3   0  -3   60.44    6.96
   3   0  -2   70.93    8.19
   3   0  -2   75.53    4.67
   3   0  -2   71.51    7.58
   3   0  -1   24.42    4.16
   3   0  -1   33.67    5.21
   3   0  -1   25.99    5.06
   3   0  -1   29.76    2.30
   3   0  -1   31.43    2.88
   3   0   0  115.99    5.81
   3   0   0  116.71   10.71
   3   0   0  124.33    6.64
   3   0   0  120.68    9.91
   3   0   0  125.02    9.84
   3   0   0  126.35    5.94
   3   0   1  136.37    6.66
   3   0   1  144.63   11.41
   3   0   1  127.92   11.44
   3   0   1  145.81    7.43
   3   0   1  137.27   10.42
   3   0   1  119.74   10.63
   3   0   1  140.97    6.65
   3   0   2   41.54    3.22
   3   0   2   45.68    6.30
   3   0   2   46.59    3.81
   3   0   2   43.24    6.61
   3   0   2   42.31    6.04
   3   0   2   46.02    3.28
   3   0   3  485.94   19.09
   3   0   3  486.58   25.43
   3   0   3  482.10   26.43
   3   0   3  511.94   18.98
   3   0   4   97.51    5.77
   3   0   4   94.38    9.22
   3   0   4   89.91    6.11
   3   0   4   77.87    9.58
   3   0   4   95.32   10.09
   3   0   4   98.35    5.49
   3   0   5   20.39    2.72
   3   0   5   19.45    2.17
   3   0   5   20.46    2.46
   3   0   6   25.62    2.68
   3   0   6   28.64    2.96
   3   0   6   24.62    2.99
   3   0   7   34.41    3.34
   3   0   7   32.72    2.69
   3   0   7   32.58    2.94
   3   0   7   29.62    3.35
   3   0   7   29.07    3.10
   3   0   8  116.68    6.12
   3   0   8  118.79    6.62
   3   0   9   -0.23    0.63
   3   0  10   40.42    2.82
   3   0  10   42.71    2.86
   3   1  -6   96.47    9.37
   3   1  -5   11.41    3.25
   3   1  -4  100.69    9.26
   3   1  -4   78.33    8.46
   3   1  -3   14.06    3.64
   3   1  -3   19.63    4.26
   3   1  -2  127.78   10.77
   3   1  -2  136.24   11.18
   3   1  -2  125.74    9.89
   3   1  -2  145.38   11.18
   3   1  -2  129.10    6.23
   3   1  -1  116.51    6.18
   3   1  -1  136.86   11.31
   3   1  -1  116.71   10.03
   3   1  -1  138.11   10.73
   3   1  -1  135.80    6.21
   3   1  -1  135.39   10.96
   3   1  -1  134.14    7.09
   3   1   0   57.99    3.90
   3   1   0   65.86    7.37
   3   1   0   59.37    4.40
   3   1   0   57.82    7.08
   3   1   0   61.69    7.15
   3   1   0   59.61    3.78
   3   1   1   22.91    4.69
   3   1   1   18.53    2.20
   3   1   1   21.86    4.53
   3   1   1   17.21    4.07
   3   1   1   21.48    2.21
   3   1   2   28.92    2.85
   3   1   2   26.98    5.09
   3   1   2   29.70    3.14
   3   1   2   24.14    4.94
   3   1   2   29.26    2.67
   3   1   3   -0.79    1.20
   3   1   3    0.59    0.85
   3   1   3    2.66    1.75
   3   1   3    0.94    1.10
   3   1   3    0.69    1.97
   3   1   3    1.36    1.05
   3   1   4   60.89    4.78
   3   1   4   59.59    7.02
   3   1   4   65.65    4.41
   3   1   4   60.87    4.58
   3   1   5   17.12    2.46
   3   1   5   19.61    2.54
   3   1   5   19.17    2.06
   3   1   5   18.16    4.31
   3   1   6   33.00    3.35
   3   1   6   31.68    2.75
   3   1   6   32.18    2.97
   3   1   6   30.71    3.10
   3   1   7   34.29    3.26
   3   1   7   33.21    2.93
   3   1   7   30.32    3.18
   3   1   7   35.24    2.83
   3   1   8    2.07    0.91
   3   1   8    2.57    0.91
   3   1   8    1.02    0.70
   3   1   9   23.38    2.21
   3   1   9   24.89    2.24
   3   2  -6    3.70    1.63
   3   2  -5  454.02   24.27
   3   2  -4   18.07    3.92
   3   2  -4   16.34    4.08
   3   2  -3   11.73    3.30
   3   2  -3    8.60    1.44
   3   2  -3    7.98    3.05
   3   2  -2  268.31   11.43
   3   2  -2  277.16   17.23
   3   2  -2  282.35   16.80
   3   2  -2  260.67   10.77
   3   2  -2  285.73   17.69
   3   2  -1   55.54    4.01
   3   2  -1   62.71    7.49
   3   2  -1   68.94    7.76
   3   2  -1   58.05    3.73
   3   2   0  179.73    8.84
   3   2   0  186.20   14.10
   3   2   0  181.90   12.69
   3   2   0  205.51   14.71
   3   2   0  187.61    8.49
   3   2   1   40.77    3.47
   3   2   1   36.73    5.96
   3   2   1   36.30    5.35
   3   2   1   36.94    3.60
   3   2   1   35.53    6.00
   3   2   1   40.01    3.21
   3   2   2  189.55    9.43
   3   2   2  182.02   14.07
   3   2   2  182.30    9.61
   3   2   2  196.56   15.67
   3   2   2  200.58    9.11
   3   2   3   49.18    4.09
   3   2   3   41.31    5.94
   3   2   3   44.95    4.08
   3   2   3   47.92    3.78
   3   2   3   53.40    7.85
   3   2   4   12.07    2.01
   3   2   4    7.52    1.79
   3   2   4   10.80    1.62
   3   2   4   13.43    2.04
   3   2   5   23.66    2.41
   3   2   5   28.55    2.88
   3   2   5   26.23    3.01
   3   2   6    6.99    1.73
   3   2   6    9.38    1.75
   3   2   6    9.28    1.66
   3   2   6    9.04    1.49
   3   2   7   64.37    4.09
   3   2   7   63.86    4.31
   3   2   7   63.30    4.00
   3   2   8   22.65    2.11
   3   2   8   17.99    1.78
   3   2   8   16.28    1.86
   3   2   8   18.90    1.80
   3   3  -7    6.60    2.38
   3   3  -6   12.40    3.26
   3   3  -6   13.37    3.24
   3   3  -5   64.55    7.95
   3   3  -5   65.64    4.29
   3   3  -4  110.03   10.51
   3   3  -4  112.21   10.69
   3   3  -4  104.22    5.96
   3   3  -3  189.34   14.27
   3   3  -3  164.29   12.82
   3   3  -3  202.00   14.91
   3   3  -3  188.01    8.95
   3   3  -2   30.27    5.38
   3   3  -2   31.91    3.08
   3   3  -2   28.31    5.47
   3   3  -2   30.28    2.62
   3   3  -2   43.48    6.57
   3   3  -1  319.77   13.86
   3   3  -1  337.16   20.61
   3   3  -1  322.57   13.21
   3   3   0   11.16    3.65
   3   3   0   11.59    1.98
   3   3   0   10.50    3.44
   3   3   0   10.19    2.08
   3   3   0    7.06    2.94
   3   3   0   11.15    1.75
   3   3   1  129.03    7.21
   3   3   1  120.50   11.38
   3   3   1  115.72    7.09
   3   3   1  109.52   10.83
   3   3   1  121.50   12.25
   3   3   1  123.08    6.63
   3   3   2   22.52    2.83
   3   3   2   26.27    4.76
   3   3   2   22.44    2.72
   3   3   2   20.97    2.54
   3   3   2   16.94    4.65
   3   3   3   74.27    5.41
   3   3   3   85.11    4.91
   3   3   3   74.94    5.09
   3   3   3   73.87    5.14
   3   3   4  142.63    7.98
   3   3   4  133.73    7.31
   3   3   4  153.56    7.74
   3   3   4  143.75    7.23
   3   3   5    3.92    1.08
   3   3   6  103.22    5.76
   3   3   6  105.10    5.80
   3   3   6  105.41    5.64
   3   3   7    4.98    1.08
   3   3   7    5.49    1.01
   3   3   7    4.71    0.98
   3   3   7    4.82    1.07
   3   4  -6   20.59    4.28
   3   4  -6   16.07    3.87
   3   4  -6   10.83    1.80
   3   4  -5  109.34   10.83
   3   4  -5  100.43    6.05
   3   4  -4    7.15    2.72
   3   4  -4   10.70    1.84
   3   4  -4   11.14    3.65
   3   4  -3    3.67    1.77
   3   4  -3    2.69    1.20
   3   4  -3    1.61    2.30
   3   4  -2    4.88    1.44
   3   4  -2    7.36    1.49
   3   4  -1   32.40    3.30
   3   4  -1   30.02    5.89
   3   4  -1   36.97    6.61
   3   4  -1   33.88    3.04
   3   4   0   69.42    5.15
   3   4   0   76.77    9.20
   3   4   0   80.62    5.47
   3   4   0   63.84    8.45
   3   4   0   68.85    9.20
   3   4   0   87.57    5.26
   3   4   1   45.33    4.04
   3   4   1   58.22    7.41
   3   4   1   50.55    4.10
   3   4   1   53.26    8.13
   3   4   1   52.07    4.08
   3   4   2   29.29    2.82
   3   4   2   29.82    3.22
   3   4   2   29.87    3.09
   3   4   3   47.94    4.12
   3   4   3   57.21    4.00
   3   4   3   53.15    4.16
   3   4   3   53.63    3.86
   3   4   4    9.84    1.59
   3   4   5   32.40    2.93
   3   4   5   31.30    2.71
   3   4   5   36.69    2.98
   3   4   5   27.04    2.57
   3   4   6    1.16    0.61
   3   4   6    1.59    0.65
   3   4   6    2.40    0.83
   3   4   6    1.20    0.69
   3   4   7   32.68    2.26
   3   5  -7   23.14    2.48
   3   5  -6   16.87    2.22
   3   5  -5  115.70   11.29
   3   5  -5   80.85    5.37
   3   5  -4  141.68   13.48
   3   5  -4  126.14    7.15
   3   5  -3    2.47    1.54
   3   5  -3    1.24    0.89
   3   5  -3    0.88    2.12
   3   5  -3    0.63    0.70
   3   5  -3    5.23    2.81
   3   5  -2   92.11    5.92
   3   5  -2  110.80   11.42
   3   5  -2   96.51    5.67
   3   5  -1   55.68    4.38
   3   5  -1   50.37    7.40
   3   5  -1   66.87    8.78
   3   5  -1   55.70    7.89
   3   5  -1   58.84    4.31
   3   5   0    0.64    0.97
   3   5   0    0.16    0.70
   3   5   0    2.35    1.05
   3   5   0    0.39    0.87
   3   5   0    1.81    1.38
   3   5   1   10.92    1.77
   3   5   1    9.76    1.85
   3   5   1    7.64    1.45
   3   5   1    8.19    1.75
   3   5   2   16.39    1.98
   3   5   2   15.02    2.22
   3   5   2   20.13    2.42
   3   5   2   16.79    2.08
   3   5   3   57.66    3.99
   3   5   3   50.01    3.60
   3   5   4   14.64    1.83
   3   5   4   10.63    1.47
   3   5   4   11.78    1.63
   3   5   5    0.24    0.54
   3   5   5    1.96    0.72
   3   5   5    1.62    0.66
   3   6  -8   20.27    2.15
   3   6  -7   17.98    2.17
   3   6  -6   75.02    4.87
   3   6  -5  201.84    9.59
   3   6  -4   15.24    2.15
   3   6  -3   38.05    3.14
   3   6  -3   37.21    3.40
   3   6  -2   12.95    1.90
   3   6  -2   13.40    2.05
   3   6  -1   93.70    5.54
   3   6  -1   92.57    5.70
   3   6  -1   84.63    5.01
   3   6  -1   94.24    5.50
   3   6   0   58.48    4.02
   3   6   0   63.48    4.45
   3   6   0   55.73    4.07
   3   6   0   54.62    3.81
   3   6   1   13.44    1.93
   3   6   1   18.20    2.03
   3   6   2   85.28    4.94
   3   6   2   82.47    4.70
   3   6   3    0.41    0.63
   3   6   3    0.13    0.58
   3   6   3   -0.24    0.63
   3   6   4   37.38    2.62
   3   6   4   42.19    2.66
   3   7  -8    2.30    0.83
   3   7  -7    9.39    1.50
   3   7  -6   10.22    1.63
   3   7  -5    2.52    1.03
   3   7  -4   40.52    3.40
   3   7  -3    3.25    0.99
   3   7  -3    0.87    0.84
   3   7  -2   28.03    2.59
   3   7  -2   33.49    2.84
   3   7  -2   36.36    3.10
   3   7  -1   37.81    2.91
   3   7  -1   40.39    3.30
   3   7  -1   39.94    3.09
   3   7  -1   38.01    2.88
   3   7   0   11.97    1.65
   3   7   0   10.94    1.48
   3   7   1   14.66    1.74
   3   7   1   16.40    1.78
   3   7   1   12.70    1.53
   3   7   2    5.17    1.01
   3   7   2    3.88    0.94
   3   7   2    4.34    0.89
   3   7   3   54.80    3.08
   3   8  -8   15.08    1.62
   3   8  -7    0.72    0.61
   3   8  -6   22.56    2.20
   3   8  -5    6.66    1.33
   3   8  -4    7.78    1.33
   3   8  -3    0.71    0.61
   3   8  -3    0.96    0.66
   3   8  -3    0.56    0.67
   3   8  -2   10.73    1.55
   3   8  -2   13.94    1.51
   3   8  -1   30.58    2.29
   3   8  -1   25.16    2.03
   3   8   0    2.60    0.75
   3   8   0    2.17    0.67
   3   8   0    1.04    0.54
   3   8   1    2.13    0.64
   3   8   1    1.05    0.53
   3   9  -7   15.75    1.55
   3   9  -6    1.26    0.60
   3   9  -5   31.24    2.25
   3   9  -5   33.25    2.41
   3   9  -4   16.61    1.66
   3   9  -2   20.39    1.70
   4  -8   0   22.96    1.90
   4  -8   0   22.77    1.85
   4  -8   1    5.96    1.05
   4  -8   1    6.85    1.10
   4  -8   1    7.56    1.06
   4  -8   2    8.34    1.29
   4  -8   2   10.86    1.35
   4  -8   3    7.18    1.32
   4  -8   3    9.34    1.23
   4  -8   4    4.33    0.93
   4  -8   4    3.99    0.80
   4  -8   5   52.32    3.10
   4  -7  -2    0.29    0.54
   4  -7   4   14.50    1.66
   4  -7   5    0.58    0.49
   4  -6   1    0.16    0.73
   4  -6   2   24.71    2.50
   4  -6   3    2.38    0.71
   4  -6   4   10.99    1.45
   4  -6   5   26.02    2.29
   4  -6   6    2.24    0.84
   4  -6   7    1.39    0.68
   4  -5  -2   29.14    2.58
   4  -5  -2   32.64    2.80
   4  -5  -1   44.35    3.33
   4  -5  -1   41.38    3.32
   4  -5   0   29.96    2.76
   4  -5   1   53.32    3.87
   4  -5   1   48.74    3.75
   4  -5   2    2.88    1.10
   4  -5   2    4.81    1.06
   4  -5   3   38.12    3.23
   4  -5   3   40.28    3.05
   4  -5   4    7.85    1.44
   4  -5   4   12.80    1.71
   4  -5   5   10.23    1.55
   4  -5   6   27.66    2.52
   4  -5   7    3.46    0.94
   4  -4  -4    0.26    0.59
   4  -4  -3   27.67    2.45
   4  -4  -3   29.87    2.69
   4  -4  -2   38.27    3.15
   4  -4  -2   40.63    3.24
   4  -4  -1    8.82    1.60
   4  -4  -1    6.61    1.43
   4  -4   0   38.61    3.28
   4  -4   1    3.00    1.24
   4  -4   1    2.62    1.03
   4  -4   1    2.70    0.90
   4  -4   2   80.59    4.95
   4  -4   2   73.76    4.62
   4  -4   3   25.21    2.56
   4  -4   3   20.20    2.28
   4  -4   3   21.90    2.33
   4  -4   4   35.68    3.11
   4  -4   4   39.61    3.22
   4  -4   5   34.63    2.99
   4  -4   5   44.73    3.38
   4  -4   6    1.61    0.85
   4  -4   7   21.94    2.27
   4  -4   8   -0.12    0.52
   4  -3  -5    0.25    0.70
   4  -3  -4    9.96    1.46
   4  -3  -4   12.29    1.71
   4  -3  -3    4.53    1.16
   4  -3  -3    3.70    1.17
   4  -3  -2   46.03    3.53
   4  -3  -2   44.78    3.59
   4  -3  -1    3.13    1.13
   4  -3  -1    2.87    0.86
   4  -3   0   24.95    2.64
   4  -3   0   28.91    2.77
   4  -3   0   22.28    2.32
   4  -3   1   71.75    4.72
   4  -3   1   70.01    4.53
   4  -3   2   10.09    1.74
   4  -3   2   11.99    1.83
   4  -3   2   10.19    1.75
   4  -3   3   15.13    2.01
   4  -3   3   15.82    2.13
   4  -3   3   17.49    1.95
   4  -3   3   18.30    2.28
   4  -3   4    4.14    1.21
   4  -3   4    3.81    1.11
   4  -3   4    2.78    1.10
   4  -3   5    8.70    1.49
   4  -3   5   11.16    1.64
   4  -3   5    9.93    1.48
   4  -3   5   11.62    1.83
   4  -3   6   24.49    2.24
   4  -3   6   23.04    2.10
   4  -3   6   24.74    2.56
   4  -3   7    0.95    0.48
   4  -3   7   -0.15    0.73
   4  -2  -6   16.98    1.77
   4  -2  -5   15.44    1.91
   4  -2  -4   97.93    5.35
   4  -2  -3  115.05    6.18
   4  -2  -2    2.07    0.97
   4  -2  -2    2.31    0.80
   4  -2  -1   48.45    3.75
   4  -2  -1   43.67    3.36
   4  -2   0   22.27    2.58
   4  -2   0   22.71    2.44
   4  -2   1   52.42    3.53
   4  -2   1   53.69    4.03
   4  -2   2   29.25    2.83
   4  -2   2   30.05    2.97
   4  -2   2   30.61    2.64
   4  -2   2   32.45    3.08
   4  -2   3    1.07    0.81
   4  -2   3    2.62    1.03
   4  -2   3    2.47    0.99
   4  -2   3    3.56    1.26
   4  -2   4   28.33    2.77
   4  -2   4   33.93    2.75
   4  -2   4   32.09    3.11
   4  -2   5    0.97    0.73
   4  -2   5    0.16    0.61
   4  -2   6    9.56    1.46
   4  -2   6   10.35    1.55
   4  -2   6   10.32    1.65
   4  -2   6    7.55    1.17
   4  -2   7    9.09    1.29
   4  -2   7    8.01    1.36
   4  -1  -6   12.01    1.62
   4  -1  -5   25.17    2.30
   4  -1  -4   75.42    4.61
   4  -1  -3   -0.70    0.58
   4  -1  -3    0.85    0.96
   4  -1  -2   94.23    5.53
   4  -1  -2  112.73    6.20
   4  -1  -1    8.87    1.60
   4  -1   0   82.40    5.30
   4  -1   1   44.88    3.87
   4  -1   1   48.96    3.42
   4  -1   1   47.66    3.85
   4  -1   2    2.48    1.16
   4  -1   2    3.37    1.05
   4  -1   2    3.65    1.18
   4  -1   3   33.01    3.33
   4  -1   3   40.71    3.14
   4  -1   3   38.20    3.30
   4  -1   4   13.79    1.64
   4  -1   4   17.66    2.05
   4  -1   4   19.42    2.10
   4  -1   5   85.06    4.64
   4  -1   5   72.21    4.72
   4  -1   5   68.00    4.83
   4  -1   5   72.98    4.16
   4  -1   6   51.49    3.29
   4  -1   6   44.53    3.33
   4  -1   6   44.17    3.38
   4  -1   6   45.97    3.03
   4  -1   7   20.66    1.95
   4   0  -7    2.07    0.75
   4   0  -5    4.39    1.14
   4   0  -4   17.25    2.14
   4   0  -4   15.00    1.81
   4   0  -1    5.49    1.41
   4   0   0   10.39    1.49
   4   0   0   10.50    1.92
   4   0   1   48.70    3.36
   4   0   1   38.01    3.66
   4   0   2   30.05    2.64
   4   0   2   24.77    2.26
   4   0   2   26.47    2.97
   4   0   3    1.95    0.97
   4   0   3    1.32    0.92
   4   0   3    0.95    0.69
   4   0   4  143.87    6.72
   4   0   4  121.99    6.30
   4   0   4  130.66    7.12
   4   0   5   10.64    1.53
   4   0   5    9.09    1.53
   4   0   5   10.40    1.64
   4   0   5    8.86    1.36
   4   0   6    4.30    0.91
   4   0   6    3.68    0.89
   4   0   6    3.17    0.88
   4   0   6    2.86    0.84
   4   1  -4    2.45    0.95
   4   1  -3   37.27    3.27
   4   1  -2   13.65    2.05
   4   1   0   56.68    3.70
   4   1   0   57.08    4.50
   4   1   1    7.03    1.39
   4   1   1    7.21    1.27
   4   1   1    7.56    1.72
   4   1   2   14.83    1.92
   4   1   2   14.97    1.83
   4   1   3    7.40    1.36
   4   1   3    6.19    1.30
   4   1   3    8.60    1.50
   4   1   3    8.67    1.68
   4   1   4    3.46    1.07
   4   1   4    2.27    0.96
   4   1   4    3.17    0.96
   4   1   5    7.22    1.25
   4   1   5    9.27    1.41
   4   1   5    7.52    1.24
   4   1   5    7.73    1.26
   4   1   6    2.79    0.70
   4   2  -6   66.76    3.98
   4   2  -5    3.30    1.06
   4   2  -4  113.62    6.39
   4   2  -3   16.49    2.25
   4   2  -2   17.00    2.41
   4   2   0   11.49    1.99
   4   2   0   12.29    1.62
   4   2   0    9.07    1.49
   4   2   1   63.08    3.97
   4   2   1   51.33    3.76
   4   2   2    9.22    1.68
   4   2   2    7.10    1.35
   4   2   2    7.23    1.38
   4   2   3   22.03    2.35
   4   2   3   28.24    2.51
   4   2   3   27.43    2.50
   4   2   4   14.23    1.66
   4   2   4   16.59    1.84
   4   2   4   16.49    1.80
   4   2   5    5.86    0.99
   4   2   5    5.88    0.99
   4   2   5    4.03    0.87
   4   3  -6    0.43    0.65
   4   3  -5    0.84    0.85
   4   3  -4   10.10    1.75
   4   3  -3   37.99    3.45
   4   3  -2   34.88    3.32
   4   3  -1    0.14    0.58
   4   3   0   73.80    4.22
   4   3   0   60.47    4.12
   4   3   1    1.32    0.95
   4   3   1    0.41    0.74
   4   3   1    1.78    0.81
   4   3   2   28.91    2.54
   4   3   2   26.87    2.41
   4   3   2   30.80    2.62
   4   3   3    8.15    1.20
   4   3   3   10.08    1.36
   4   3   3    8.55    1.29
   4   3   4   14.60    1.51
   4   3   4   13.61    1.45
   4   3   4   15.26    1.56
   4   4  -6    2.51    0.95
   4   4  -5    3.64    1.16
   4   4  -4   16.76    2.16
   4   4  -3    1.19    0.97
   4   4  -2    5.20    1.12
   4   4  -1    2.14    0.79
   4   4   0   14.43    1.79
   4   4   0   12.25    1.49
   4   4   0   13.48    1.67
   4   4   1   19.15    1.94
   4   4   1   19.07    1.83
   4   4   1   18.57    1.91
   4   4   2    8.12    1.15
   4   4   2    7.65    1.14
   4   5  -6   11.52    1.49
   4   5  -5    4.96    1.11
   4   5  -4   23.76    2.34
   4   5  -3   48.98    3.08
   4   5  -2    0.11    0.48
   4   5  -1   20.70    1.94
   4   5  -1   18.77    1.82
   4   5   0   13.08    1.43
   4   5   0   11.76    1.39
   4   5   1    0.80    0.48
   4   6  -5   13.63    1.45
   0   0   0    0.00    0.00


TITL gro21_19_auto in P1
REM P1 (#1 in standard setting)
CELL 1.54184   3.951633  11.104515  12.270348 112.0851  91.1101  96.3920
ZERR    1.00   0.000088   0.000248   0.000317   0.0023   0.0019   0.0018
LATT -1
SFAC C H N Cl Br
UNIT 18.00 8.00 2.00 5.00 1.00
REM  CrysAlisPro recorded range (K): Min=290.0; max=290.0; aver:290.0
TEMP 17
SIZE 0.04 0.12 0.15
TREF
HKLF 4
END
_computing_structure_solution     'SHELXT 2018/2 (Sheldrick, 2018)'
;
_shelx_hkl_checksum              983
_olex2_exptl_crystal_mounting_method 'MiTeGen 75 micron MicroLoop'
_olex2_submission_original_sample_id gro21_19
_olex2_submission_special_instructions 'No special instructions were received'
_oxdiff_diffrn_reflns_filtered   923
_oxdiff_exptl_absorpt_empirical_details
;
Empirical correction (ABSPACK) includes:
- Absorption correction using spherical harmonics
- Frame scaling
- Detector area scaling
;
_oxdiff_exptl_absorpt_empirical_full_max 1.429
_oxdiff_exptl_absorpt_empirical_full_min 0.749
loop_
_space_group_symop_operation_xyz
'x, y, z'
'-x, -y, -z'
loop_
_atom_site_label
_atom_site_type_symbol
_atom_site_fract_x
_atom_site_fract_y
_atom_site_fract_z
_atom_site_U_iso_or_equiv
_atom_site_adp_type
_atom_site_occupancy
_atom_site_site_symmetry_order
_atom_site_calc_flag
_atom_site_refinement_flags_posn
_atom_site_refinement_flags_adp
_atom_site_refinement_flags_occupancy
_atom_site_disorder_assembly
_atom_site_disorder_group
I1 I 1.1958(6) 0.71507(18) 0.79070(17) 0.0435(2) Uani 0.5 1 d . . P A 2
Cl1 Cl 1.212(2) 0.7349(7) 0.8098(7) 0.0514(13) Uani 0.5 1 d . . P A 1
Cl2 Cl 1.28099(18) 1.00172(7) 0.76552(5) 0.05802(19) Uani 1 1 d . . . . .
Cl3 Cl 1.0953(2) 1.25782(7) 0.95260(6) 0.0624(2) Uani 1 1 d . . . . .
C1 C 1.0846(6) 0.8831(2) 0.9146(2) 0.0425(5) Uani 1 1 d . . . . .
C2 C 1.1254(6) 1.0000(2) 0.8951(2) 0.0419(5) Uani 1 1 d . . . . .
C3 C 1.0416(6) 1.1152(2) 0.9796(2) 0.0430(5) Uani 1 1 d . . . . .
N1 N 0.6434(7) 0.5417(2) 0.3575(2) 0.0604(6) Uani 1 1 d . . . . .
C4 C 0.7331(7) 0.6222(2) 0.4679(3) 0.0544(6) Uani 1 1 d . . . . .
H4 H 0.826457 0.587902 0.518338 0.065 Uiso 1 1 calc R U . . .
C5 C 0.6966(7) 0.7538(2) 0.5123(2) 0.0469(5) Uani 1 1 d . . . . .
H5 H 0.763564 0.806009 0.590527 0.056 Uiso 1 1 calc R U . . .
C6 C 0.5586(6) 0.8066(2) 0.4386(2) 0.0415(5) Uani 1 1 d . . . . .
C7 C 0.4602(8) 0.7235(3) 0.3232(2) 0.0539(6) Uani 1 1 d . . . . .
H7 H 0.363896 0.754646 0.270798 0.065 Uiso 1 1 calc R U . . .
C8 C 0.5088(9) 0.5936(3) 0.2882(3) 0.0632(8) Uani 1 1 d . . . . .
H8 H 0.442641 0.538626 0.210615 0.076 Uiso 1 1 calc R U . . .
C9 C 0.5169(6) 0.9435(2) 0.4815(2) 0.0446(5) Uani 1 1 d . . . . .
loop_
_atom_site_aniso_label
_atom_site_aniso_U_11
_atom_site_aniso_U_22
_atom_site_aniso_U_33
_atom_site_aniso_U_23
_atom_site_aniso_U_13
_atom_site_aniso_U_12
I1 0.0510(3) 0.0365(5) 0.0343(5) 0.0033(5) 0.0039(4) 0.0069(3)
Cl1 0.0523(13) 0.043(2) 0.039(2) -0.0085(13) 0.0024(12) 0.0096(13)
Cl2 0.0695(4) 0.0626(4) 0.0380(3) 0.0170(3) 0.0114(3) -0.0013(3)
Cl3 0.0823(5) 0.0525(3) 0.0559(4) 0.0256(3) 0.0065(3) 0.0050(3)
C1 0.0390(11) 0.0440(11) 0.0358(11) 0.0062(9) -0.0013(9) 0.0027(9)
C2 0.0408(12) 0.0472(12) 0.0331(11) 0.0117(9) 0.0005(9) 0.0004(9)
C3 0.0433(12) 0.0452(11) 0.0368(12) 0.0131(9) -0.0007(9) 0.0003(9)
N1 0.0783(16) 0.0339(10) 0.0647(14) 0.0114(10) 0.0189(12) 0.0130(10)
C4 0.0633(16) 0.0422(12) 0.0640(16) 0.0242(12) 0.0102(13) 0.0162(11)
C5 0.0546(14) 0.0387(11) 0.0451(13) 0.0120(10) 0.0053(11) 0.0100(10)
C6 0.0466(12) 0.0318(10) 0.0465(12) 0.0142(9) 0.0113(10) 0.0077(9)
C7 0.0719(17) 0.0446(12) 0.0449(13) 0.0168(11) 0.0057(12) 0.0066(12)
C8 0.090(2) 0.0414(13) 0.0466(15) 0.0051(11) 0.0099(14) 0.0015(13)
C9 0.0530(13) 0.0379(10) 0.0444(12) 0.0157(9) 0.0092(10) 0.0099(9)
loop_
_atom_type_symbol
_atom_type_description
_atom_type_scat_dispersion_real
_atom_type_scat_dispersion_imag
_atom_type_scat_source
C C 0.0181 0.0091 'International Tables Vol C Tables 4.2.6.8 and 6.1.1.4'
H H 0.0000 0.0000 'International Tables Vol C Tables 4.2.6.8 and 6.1.1.4'
Cl Cl 0.3639 0.7018 'International Tables Vol C Tables 4.2.6.8 and 6.1.1.4'
I I -0.3257 6.8362 'International Tables Vol C Tables 4.2.6.8 and 6.1.1.4'
N N 0.0311 0.0180 'International Tables Vol C Tables 4.2.6.8 and 6.1.1.4'
loop_
_exptl_crystal_face_index_h
_exptl_crystal_face_index_k
_exptl_crystal_face_index_l
_exptl_crystal_face_perp_dist
0 -7 1 0.0213
-1 0 7 0.0629
0 6 0 0.0112
0 7 -2 0.0177
-2 2 -6 0.0544
-2 -2 4 0.0628
1 -2 7 0.0582
2 0 1 0.0481
1 2 -7 0.0618
0 7 -4 0.0285
-2 6 -3 0.0394
1 3 4 0.0308
loop_
_geom_angle_atom_site_label_1
_geom_angle_atom_site_label_2
_geom_angle_atom_site_label_3
_geom_angle
_geom_angle_site_symmetry_1
_geom_angle_site_symmetry_3
_geom_angle_publ_flag
C2 C1 I1 120.65(19) . . ?
C2 C1 Cl1 121.3(3) . . ?
C3 C1 I1 120.70(19) 2_777 . ?
C3 C1 Cl1 120.0(3) 2_777 . ?
C3 C1 C2 118.6(2) 2_777 . ?
C1 C2 Cl2 119.91(18) . . ?
C3 C2 Cl2 119.51(19) . . ?
C3 C2 C1 120.6(2) . . ?
C1 C3 Cl3 119.86(19) 2_777 . ?
C2 C3 Cl3 119.35(18) . . ?
C2 C3 C1 120.8(2) . 2_777 ?
C8 N1 C4 116.4(2) . . ?
N1 C4 H4 118.0 . . ?
N1 C4 C5 124.0(3) . . ?
C5 C4 H4 118.0 . . ?
C4 C5 H5 120.6 . . ?
C4 C5 C6 118.9(2) . . ?
C6 C5 H5 120.6 . . ?
C5 C6 C7 117.9(2) . . ?
C5 C6 C9 120.6(2) . . ?
C7 C6 C9 121.5(2) . . ?
C6 C7 H7 120.8 . . ?
C8 C7 C6 118.3(3) . . ?
C8 C7 H7 120.8 . . ?
N1 C8 C7 124.5(3) . . ?
N1 C8 H8 117.8 . . ?
C7 C8 H8 117.8 . . ?
C9 C9 C6 179.1(4) 2_676 . ?
loop_
_geom_bond_atom_site_label_1
_geom_bond_atom_site_label_2
_geom_bond_distance
_geom_bond_site_symmetry_2
_geom_bond_publ_flag
I1 C1 2.015(3) . ?
Cl1 C1 1.799(8) . ?
Cl2 C2 1.722(2) . ?
Cl3 C3 1.727(3) . ?
C1 C2 1.398(4) . ?
C1 C3 1.395(3) 2_777 ?
C2 C3 1.390(3) . ?
N1 C4 1.326(4) . ?
N1 C8 1.326(4) . ?
C4 H4 0.9300 . ?
C4 C5 1.380(3) . ?
C5 H5 0.9300 . ?
C5 C6 1.382(4) . ?
C6 C7 1.387(4) . ?
C6 C9 1.440(3) . ?
C7 H7 0.9300 . ?
C7 C8 1.379(4) . ?
C8 H8 0.9300 . ?
C9 C9 1.187(5) 2_676 ?
loop_
_geom_torsion_atom_site_label_1
_geom_torsion_atom_site_label_2
_geom_torsion_atom_site_label_3
_geom_torsion_atom_site_label_4
_geom_torsion
_geom_torsion_site_symmetry_1
_geom_torsion_site_symmetry_2
_geom_torsion_site_symmetry_3
_geom_torsion_site_symmetry_4
_geom_torsion_publ_flag
I1 C1 C2 Cl2 -1.5(3) . . . . ?
I1 C1 C2 C3 178.59(18) . . . . ?
Cl1 C1 C2 Cl2 3.2(4) . . . . ?
Cl1 C1 C2 C3 -176.8(4) . . . . ?
Cl2 C2 C3 Cl3 0.0(3) . . . . ?
Cl2 C2 C3 C1 -179.92(17) . . . 2_777 ?
C1 C2 C3 Cl3 179.97(17) . . . . ?
C1 C2 C3 C1 0.0(4) . . . 2_777 ?
C3 C1 C2 Cl2 179.92(17) 2_777 . . . ?
C3 C1 C2 C3 0.0(4) 2_777 . . . ?
N1 C4 C5 C6 -0.1(4) . . . . ?
C4 N1 C8 C7 0.4(5) . . . . ?
C4 C5 C6 C7 0.7(4) . . . . ?
C4 C5 C6 C9 -179.9(2) . . . . ?
C5 C6 C7 C8 -0.7(4) . . . . ?
C6 C7 C8 N1 0.2(5) . . . . ?
C8 N1 C4 C5 -0.5(4) . . . . ?
C9 C6 C7 C8 179.8(3) . . . . ?
loop_
_exptl_oxdiff_crystal_face_indexfrac_h
_exptl_oxdiff_crystal_face_indexfrac_k
_exptl_oxdiff_crystal_face_indexfrac_l
_exptl_oxdiff_crystal_face_x
_exptl_oxdiff_crystal_face_y
_exptl_oxdiff_crystal_face_z
-0.3042 -6.8688 1.4771 -0.0245 -0.9668 0.2544
-0.9300 0.1820 6.9642 0.0107 0.3782 0.9257
0.0362 6.4373 0.4743 0.0256 0.9996 0.0090
0.3580 6.8982 -1.8752 0.0240 0.9512 -0.3076
-1.5887 1.7183 -6.0647 -0.8754 -0.1623 -0.4553
-2.2092 -1.5461 4.0311 -0.5922 -0.1110 0.7981
0.9926 -2.1638 7.2419 0.7201 0.1332 0.6809
2.4799 -0.1105 1.3218 0.9580 0.1784 -0.2246
1.1833 2.3957 -7.1239 0.0682 0.0138 -0.9976
-0.4238 7.1545 -3.7448 -0.3504 0.8458 -0.4022
-1.6223 6.0452 -2.6047 -0.7232 0.6853 -0.0858
1.1156 3.2679 3.8932 0.5890 0.7681 0.2513
