#------------------------------------------------------------------------------
#$Date: 2021-10-06 18:00:11 +0300 (Wed, 06 Oct 2021) $
#$Revision: 269695 $
#$URL: file:///home/coder/svn-repositories/cod/cif/7/24/33/7243309.cif $
#------------------------------------------------------------------------------
#
# This file is available in the Crystallography Open Database (COD),
# http://www.crystallography.net/
#
# All data on this site have been placed in the public domain by the
# contributors.
#
data_7243309
loop_
_publ_author_name
'Peloquin, Andrew J.'
'McMillen, Colin D.'
'Pennington, William T.'
_publ_section_title
;
 One dimensional halogen bond design: Br&#x22EF;N versus I&#x22EF;N with
 fluoroarenes
;
_journal_issue                   35
_journal_name_full               CrystEngComm
_journal_page_first              6098
_journal_page_last               6106
_journal_paper_doi               10.1039/D1CE00864A
_journal_volume                  23
_journal_year                    2021
_chemical_formula_moiety         'Br2 C6 F4, C12 H12 N2'
_chemical_formula_sum            'C18 H12 Br2 F4 N2'
_chemical_formula_weight         492.110
_space_group_crystal_system      triclinic
_space_group_IT_number           2
_space_group_name_Hall           '-P 1'
_space_group_name_H-M_alt        'P -1'
_symmetry_Int_Tables_number      2
_audit_creation_date             2021-05-25
_audit_creation_method
;
Olex2 1.3
(compiled 2020.11.12 svn.r5f609507 for OlexSys, GUI svn.r6272)
;
_audit_update_record
;
2021-06-27 deposited with the CCDC.	2021-08-02 downloaded from the CCDC.
;
_cell_angle_alpha                82.848(3)
_cell_angle_beta                 82.965(3)
_cell_angle_gamma                75.554(3)
_cell_formula_units_Z            1
_cell_length_a                   6.8796(6)
_cell_length_b                   7.4209(6)
_cell_length_c                   9.2086(8)
_cell_measurement_reflns_used    8219
_cell_measurement_temperature    100(2)
_cell_measurement_theta_max      27.59
_cell_measurement_theta_min      2.85
_cell_volume                     449.67(7)
_computing_cell_refinement       'Bruker SAINT'
_computing_data_collection       'Bruker APEX3'
_computing_data_reduction        'Bruker SAINT'
_computing_molecular_graphics    'Olex2 1.3 (Dolomanov et al., 2009)'
_computing_publication_material  'Olex2 1.3 (Dolomanov et al., 2009)'
_computing_structure_refinement  'SHELXL-2016/6 (Sheldrick, 2016)'
_computing_structure_solution    'SHELXT 2014/5 (Sheldrick, 2014)'
_diffrn_ambient_temperature      100.0
_diffrn_measured_fraction_theta_full 0.9982
_diffrn_measured_fraction_theta_max 0.9938
_diffrn_measurement_device_type  'Bruker D8 Venture Photon 100'
_diffrn_measurement_method       '\f and \w scans'
_diffrn_radiation_type           MoK\a
_diffrn_radiation_wavelength     0.71073
_diffrn_reflns_av_R_equivalents  0.0305
_diffrn_reflns_av_unetI/netI     0.0214
_diffrn_reflns_Laue_measured_fraction_full 0.9982
_diffrn_reflns_Laue_measured_fraction_max 0.9938
_diffrn_reflns_limit_h_max       8
_diffrn_reflns_limit_h_min       -8
_diffrn_reflns_limit_k_max       9
_diffrn_reflns_limit_k_min       -9
_diffrn_reflns_limit_l_max       12
_diffrn_reflns_limit_l_min       -11
_diffrn_reflns_number            10929
_diffrn_reflns_point_group_measured_fraction_full 0.9982
_diffrn_reflns_point_group_measured_fraction_max 0.9938
_diffrn_reflns_theta_full        25.2417
_diffrn_reflns_theta_max         27.59
_diffrn_reflns_theta_min         2.85
_diffrn_source                   'Incoatec I\mS'
_diffrn_source_current           1.0
_diffrn_source_power             0.05
_diffrn_source_voltage           50.0
_exptl_absorpt_coefficient_mu    4.549
_exptl_absorpt_correction_T_max  0.7456
_exptl_absorpt_correction_T_min  0.6445
_exptl_absorpt_correction_type   multi-scan
_exptl_absorpt_process_details
;
SADABS-2014/5 (Bruker,2014/5) was used for absorption correction.
wR2(int) was 0.0595 before and 0.0436 after correction.
The Ratio of minimum to maximum transmission is 0.8644.
The \l/2 correction factor is Not present.
;
_exptl_crystal_density_diffrn    1.817
_exptl_crystal_density_meas      ?
_exptl_crystal_density_method    'not measured'
_exptl_crystal_description       block
_exptl_crystal_F_000             239.726
_exptl_crystal_size_max          0.21
_exptl_crystal_size_mid          0.17
_exptl_crystal_size_min          0.12
_exptl_transmission_factor_max   'not measured'
_exptl_transmission_factor_min   'not measured'
_refine_diff_density_max         1.0561
_refine_diff_density_min         -0.4087
_refine_diff_density_rms         0.1124
_refine_ls_d_res_high            0.7672
_refine_ls_d_res_low             7.1519
_refine_ls_goodness_of_fit_ref   1.0540
_refine_ls_hydrogen_treatment    constr
_refine_ls_matrix_type           full
_refine_ls_number_constraints    10
_refine_ls_number_parameters     119
_refine_ls_number_reflns         2068
_refine_ls_number_restraints     0
_refine_ls_restrained_S_all      1.0540
_refine_ls_R_factor_all          0.0294
_refine_ls_R_factor_gt           0.0258
_refine_ls_shift/su_max          0.0001
_refine_ls_shift/su_mean         0.0000
_refine_ls_structure_factor_coef Fsqd
_refine_ls_weighting_details
'w=1/[\s^2^(Fo^2^)+(0.0295P)^2^+1.1283P] where P=(Fo^2^+2Fc^2^)/3'
_refine_ls_weighting_scheme      calc
_refine_ls_wR_factor_gt          0.0682
_refine_ls_wR_factor_ref         0.0720
_reflns_Friedel_coverage         0.0
_reflns_limit_h_max              8
_reflns_limit_h_min              -8
_reflns_limit_k_max              9
_reflns_limit_k_min              -9
_reflns_limit_l_max              12
_reflns_limit_l_min              0
_reflns_number_gt                1917
_reflns_number_total             2068
_reflns_threshold_expression     I>=2u(I)
_iucr_refine_instructions_details
;
TITL d8-5221_a.res in P-1
REM Old TITL d8-5221 in P1
REM SHELXT solution in P-1
REM R1 0.053, Rweak 0.008, Alpha 0.042, Orientation as input
REM Formula found by SHELXT: C9 N F2 Br
CELL 0.71073 6.8796 7.4209 9.2086 82.848 82.965 75.554
ZERR 1 0.0006 0.0006 0.0008 0.003 0.003 0.003
LATT 1
SFAC C H Br F N
UNIT 18 12 2 4 2

L.S. 20
PLAN  5
SIZE 0.17 0.12 0.21
TEMP -173.15
CONF
BOND $H
LIST 4
MORE -1
fmap 2
acta 
WGHT 0.029501 1.128269
FVAR 0.89841
REM <olex2.extras>
REM <HklSrc "%.\\d8-5221_a.hkl">
REM </olex2.extras>

Br1   3     0.75488  0.41693  0.58716  11.00000  0.01813  0.01475  0.02218 =
 -0.00396 -0.00070 -0.00202 
F1    4     0.96909  0.29669  0.29190  11.00000  0.02743  0.01588  0.01887 =
 0.00421 -0.00237 -0.00453 
F2    4     1.16670 -0.04346  0.22007  11.00000  0.02490  0.02257  0.01471 =
 -0.00317  0.00277 -0.00384 
N1    5     0.52260  0.80716  0.64346  11.00000  0.01984  0.01827  0.01760 =
 -0.00214 -0.00101 -0.00429 
C1    1     0.89605  0.17880  0.53752  11.00000  0.01334  0.01471  0.02132 =
 -0.00406 -0.00217 -0.00301 
C2    1     0.98318  0.15148  0.39603  11.00000  0.01667  0.01804  0.01662 =
 0.00304 -0.00438 -0.00775 
C3    1     1.08491 -0.02334  0.35926  11.00000  0.01375  0.02018  0.01464 =
 -0.00303  0.00059 -0.00561 
C4    1     0.46455  0.77815  0.78681  11.00000  0.02862  0.01758  0.01971 =
 0.00074 -0.00189 -0.00475 
AFIX 43
H4    2     0.49944  0.65395  0.83260  11.00000 -1.20000 
AFIX 0
C5    1     0.35710  0.91702  0.87272  11.00000  0.02780  0.02483  0.01452 =
 -0.00009  0.00062 -0.00586 
AFIX 43
H5    2     0.32064  0.88772  0.97419  11.00000 -1.20000 
AFIX 0
C6    1     0.30304  1.10046  0.80847  11.00000  0.01817  0.02106  0.01807 =
 -0.00416 -0.00068 -0.00277 
C7    1     0.36194  1.13290  0.65973  11.00000  0.01823  0.01773  0.01811 =
 -0.00115 -0.00291 -0.00354 
AFIX 43
H7    2     0.32949  1.25612  0.61180  11.00000 -1.20000 
AFIX 0
C8    1     0.46932  0.98377  0.58026  11.00000  0.01398  0.01576  0.01558 =
 -0.00254 -0.00139 -0.00355 
C9    1     0.18577  1.25824  0.89554  11.00000  0.03534  0.02632  0.02164 =
 -0.00587 -0.00028 -0.00003 
AFIX 137
H9a   2     0.24919  1.36430  0.87405  11.00000 -1.50000 
H9b   2     0.04695  1.29680  0.86844  11.00000 -1.50000 
H9c   2     0.18486  1.21628  1.00077  11.00000 -1.50000 
AFIX 0
HKLF 4

END
Q1 1 0.583333 0.56 0.75 11 0.05 1.06
Q2 1 1.083333 0.08 0.25 11 0.05 0.94
Q3 1 0.416667 0.76 0.90625 11 0.05 0.91
Q4 1 1.25 -0.08 0.09375 11 0.05 0.8
Q5 1 0.916667 0.24 0.40625 11 0.05 0.73

  REM The information below was added by Olex2.
  REM
  REM R1 = 0.0258 for 1917 Fo > 4sig(Fo) and 0.0294 for all 2068 data
  REM 119 parameters refined using 0 restraints
  REM Highest difference peak 1.0561, deepest hole -0.4087
  REM Mean Shift 0.0000, Max Shift 0.0001.

  REM +++ Tabular Listing of Refinement Information +++
  REM R1_all = 0.0294
  REM R1_gt = 0.0258
  REM wR_ref = 0.0720
  REM GOOF = 1.0540
  REM Shift_max = 0.0001
  REM Shift_mean = 0.0000
  REM Reflections_all = 2068
  REM Reflections_gt = 1917
  REM Parameters = 119
  REM Hole = -0.4087
  REM Peak = 1.0561
  REM Flack = n/a
;
_cod_data_source_file            d1ce00864a2.cif
_cod_data_source_block           Br2F4bz_44Me222bipy
_cod_depositor_comments
;
The following automatic conversions were performed:

data item '_exptl_crystal_density_meas' value 'not measured' was
changed to '?' -- the value is perceived as not measured.

Automatic conversion script
Id: cif_fix_values 7556 2019-12-06 15:28:31Z antanas 

 Adding full bibliography for 7243307--7243335.cif.
;
_cod_database_code               7243309
_olex2_refinement_description
;
1.a Aromatic/amide H refined with riding coordinates:
 C4(H4), C5(H5), C7(H7)
1.b Idealised Me refined as rotating group:
 C9(H9a,H9b,H9c)
;
_iucr_refine_fcf_details
;
data_d8-5221_a
_computing_structure_refinement   'SHELXL-2016/6 (Sheldrick, 2016)'
_shelx_refln_list_code            4
loop_
  _space_group_symop_id
  _space_group_symop_operation_xyz
  1  x,y,z
  2  -x,-y,-z

_space_group_crystal_system       triclinic
_space_group_IT_number            2
_space_group_name_H-M_alt         'P -1'
_space_group_name_Hall            '-P 1'
_symmetry_space_group_name_H-M    'P -1'
_symmetry_space_group_name_Hall   '-P 1'
_symmetry_Int_Tables_number       2
_cell_length_a                    6.8796(6)
_cell_length_b                    7.4209(6)
_cell_length_c                    9.2086(8)
_cell_angle_alpha                 82.848(3)
_cell_angle_beta                  82.965(3)
_cell_angle_gamma                 75.554(3)
_cell_volume                      449.67(7)
loop_
  _refln_index_h
  _refln_index_k
  _refln_index_l
  _refln_F_squared_calc
  _refln_F_squared_meas
  _refln_F_squared_sigma
  _refln_F_squared_weight
  _refln_observed_status
-8 -5 1 124.951 144.238 22.232 10.506 o
-8 -5 2 304.884 297.344 13.870 11.267 o
-8 -4 1 323.625 300.253 27.700 5.707 o
-8 -4 2 243.201 260.634 13.298 13.499 o
-8 -4 3 93.269 75.400 9.356 35.851 o
-8 -3 1 2.484 4.001 3.882 374.342 o
-8 -3 2 158.022 138.420 9.134 25.181 o
-8 -3 3 301.738 300.346 12.594 11.961 o
-8 -2 1 13.682 5.033 2.484 374.285 o
-8 -2 2 37.063 25.978 4.163 123.472 o
-8 -2 3 284.963 279.597 10.216 13.993 o
-8 -2 4 468.985 448.833 26.428 4.913 o
-8 -1 1 182.709 197.249 7.146 23.553 o
-8 -1 2 0.341 0.567 3.067 699.359 o
-8 -1 3 3.696 -2.693 5.669 197.818 o
-8 0 1 498.836 489.687 12.685 7.394 o
-8 0 2 389.816 393.047 9.721 10.333 o
-8 0 3 4.568 0.497 3.655 406.609 o
-8 1 1 293.351 267.596 12.579 12.558 o
-8 1 2 129.123 123.663 7.932 31.306 o
-7 -7 1 133.987 129.600 22.797 10.092 o
-7 -6 1 69.456 69.381 7.680 48.816 o
-7 -6 2 40.843 47.365 13.877 28.461 o
-7 -6 3 32.375 28.334 8.616 62.751 o
-7 -5 1 24.196 18.100 3.849 171.616 o
-7 -5 2 58.033 50.452 8.304 51.452 o
-7 -5 3 525.929 510.240 16.711 6.264 o
-7 -5 4 698.324 700.988 18.375 4.451 o
-7 -4 1 416.515 437.435 12.783 8.664 o
-7 -4 2 0.275 -0.045 2.434 1126.290 o
-7 -4 3 36.320 47.761 12.277 34.995 o
-7 -4 4 69.173 60.057 8.470 46.001 o
-7 -4 5 91.018 83.128 9.315 35.737 o
-7 -3 1 330.395 338.178 14.368 10.179 o
-7 -3 2 193.069 191.662 8.521 21.440 o
-7 -3 3 7.822 4.263 2.946 426.330 o
-7 -3 4 22.763 19.025 3.237 196.484 o
-7 -3 5 188.278 177.058 9.818 20.667 o
-7 -2 1 286.752 314.078 6.588 15.236 o
-7 -2 2 349.653 357.766 8.512 11.950 o
-7 -2 3 329.561 335.948 8.299 12.819 o
-7 -2 4 34.831 35.405 4.275 117.361 o
-7 -2 5 211.831 211.140 10.126 18.167 o
-7 -2 6 296.731 266.841 17.691 9.756 o
-7 -1 1 413.681 396.789 9.562 9.915 o
-7 -1 2 838.698 815.631 10.178 4.206 o
-7 -1 3 189.787 205.690 6.656 23.217 o
-7 -1 4 4.017 -0.451 3.057 558.330 o
-7 -1 5 46.514 41.968 6.136 76.597 o
-7 -1 6 7.648 -1.751 10.195 62.958 o
-7 0 1 133.568 142.189 5.231 34.975 o
-7 0 2 328.966 320.481 7.134 13.507 o
-7 0 3 854.379 801.094 12.861 4.020 o
-7 0 4 728.859 715.855 12.265 4.848 o
-7 0 5 84.570 71.026 8.382 41.575 o
-7 0 6 2.526 3.805 7.457 117.189 o
-7 1 1 11.303 8.202 2.077 431.939 o
-7 1 2 7.059 6.619 3.241 376.603 o
-7 1 3 20.474 10.048 3.675 209.718 o
-7 1 4 249.238 281.066 10.306 15.077 o
-7 1 5 295.124 285.782 20.347 8.448 o
-7 2 1 311.204 299.939 17.749 9.283 o
-7 2 2 28.738 25.664 3.860 147.487 o
-7 2 3 217.562 226.374 11.690 16.149 o
-7 2 4 226.282 216.898 14.062 14.016 o
-7 3 1 271.857 267.043 11.844 13.578 o
-7 3 2 267.208 266.555 9.516 15.221 o
-7 3 3 19.111 -1.097 5.079 171.372 o
-6 -8 1 0.430 -2.507 2.887 797.705 o
-6 -7 1 81.242 84.001 9.571 36.324 o
-6 -7 2 56.262 52.732 7.074 60.156 o
-6 -7 3 62.854 73.720 13.426 26.659 o
-6 -6 1 576.787 575.656 12.076 6.365 o
-6 -6 2 203.493 212.460 8.792 19.887 o
-6 -6 3 95.677 90.949 8.440 37.318 o
-6 -6 4 72.911 58.471 9.900 38.620 o
-6 -6 5 99.468 86.619 22.797 10.879 o
-6 -5 2 521.068 532.411 15.118 6.514 o
-6 -5 3 171.002 175.302 18.688 12.126 o
-6 -5 4 31.075 19.210 4.242 140.301 o
-6 -5 5 115.412 97.001 11.359 26.295 o
-6 -5 6 93.903 88.768 13.929 22.617 o
-6 -4 1 299.543 293.570 10.134 13.401 o
-6 -4 2 272.381 264.381 12.035 13.480 o
-6 -4 3 566.085 579.444 15.117 5.978 o
-6 -4 4 541.646 540.131 10.991 7.004 o
-6 -4 5 75.210 76.953 6.210 53.517 o
-6 -4 6 143.364 141.347 23.664 9.352 o
-6 -3 1 216.630 206.391 8.163 19.921 o
-6 -3 2 757.130 746.569 12.582 4.596 o
-6 -3 3 575.286 612.236 12.238 6.205 o
-6 -3 4 197.850 208.651 7.050 22.118 o
-6 -3 5 74.749 67.525 4.838 63.039 o
-6 -3 6 39.269 27.369 4.474 113.363 o
-6 -3 7 85.722 71.991 9.424 37.119 o
-6 -2 1 203.719 215.153 5.358 23.000 o
-6 -2 2 1.876 6.388 1.975 894.114 o
-6 -2 3 415.392 403.045 8.397 10.132 o
-6 -2 4 681.820 684.408 11.588 5.273 o
-6 -2 5 180.541 178.770 7.016 24.632 o
-6 -2 6 12.149 10.839 4.023 234.037 o
-6 -2 7 1.410 2.356 3.774 426.688 o
-6 -1 1 198.755 210.760 5.309 23.598 o
-6 -1 2 72.983 69.659 3.548 70.358 o
-6 -1 3 119.865 106.649 3.946 43.874 o
-6 -1 4 593.115 580.618 13.757 5.978 o
-6 -1 5 845.288 793.994 19.279 3.630 o
-6 -1 6 370.248 356.783 10.643 10.754 o
-6 -1 7 147.896 129.874 18.102 13.671 o
-6 0 1 549.601 525.490 8.210 7.398 o
-6 0 2 322.313 322.107 6.912 13.768 o
-6 0 3 4.683 5.286 1.915 751.104 o
-6 0 4 2.213 3.835 2.378 787.753 o
-6 0 5 112.425 106.233 6.049 40.232 o
-6 0 6 508.603 530.963 12.388 7.140 o
-6 0 7 236.155 242.531 15.630 12.280 o
-6 1 1 669.775 683.884 9.596 5.531 o
-6 1 2 914.969 875.290 16.436 3.462 o
-6 1 3 689.359 673.967 13.243 5.099 o
-6 1 4 3.700 -1.594 2.091 964.823 o
-6 1 5 287.308 314.298 10.036 13.507 o
-6 1 6 314.611 318.851 12.046 11.736 o
-6 1 7 208.850 210.165 9.860 18.596 o
-6 2 1 520.428 489.599 11.715 7.354 o
-6 2 2 709.170 681.843 13.516 4.937 o
-6 2 3 246.824 246.001 7.908 17.550 o
-6 2 4 8.478 12.234 2.949 349.662 o
-6 2 5 5.024 -3.219 3.103 514.760 o
-6 2 6 32.610 26.165 5.186 111.281 o
-6 3 1 64.259 52.738 4.411 76.075 o
-6 3 2 140.111 152.125 7.197 29.715 o
-6 3 3 376.928 414.243 10.084 10.265 o
-6 3 4 452.450 457.098 13.108 8.000 o
-6 3 5 154.142 145.333 12.123 20.470 o
-6 3 6 4.109 3.087 4.936 241.328 o
-6 4 1 1.440 2.104 3.430 506.459 o
-6 4 2 89.321 119.812 8.868 34.625 o
-6 4 3 328.450 337.761 13.533 10.580 o
-6 4 4 594.421 612.794 17.570 5.313 o
-6 5 1 256.014 241.997 14.197 12.789 o
-6 5 2 1.483 -8.975 6.938 140.253 o
-5 -8 1 384.900 387.691 16.280 8.324 o
-5 -8 2 238.878 233.903 9.981 16.596 o
-5 -8 3 48.897 48.739 9.601 46.247 o
-5 -7 1 179.782 183.364 6.761 24.812 o
-5 -7 2 438.479 457.527 10.748 8.748 o
-5 -7 3 404.338 412.522 16.557 7.871 o
-5 -7 4 107.294 106.722 12.221 24.655 o
-5 -7 5 0.102 7.987 15.920 26.927 o
-5 -6 1 151.786 168.587 6.488 28.637 o
-5 -6 2 364.444 362.692 11.261 10.586 o
-5 -6 3 699.915 686.190 15.867 4.741 o
-5 -6 4 525.420 532.089 15.781 6.357 o
-5 -6 5 37.532 34.535 5.298 98.054 o
-5 -6 6 0.105 -0.263 6.078 186.611 o
-5 -5 1 0.425 1.847 1.966 1415.450 o
-5 -5 2 205.183 191.533 8.831 20.354 o
-5 -5 3 116.632 111.789 9.071 30.898 o
-5 -5 4 79.424 76.618 23.100 11.008 o
-5 -5 5 198.682 222.359 20.347 10.096 o
-5 -5 6 113.606 104.005 10.768 27.508 o
-5 -5 7 20.610 16.430 4.168 175.447 o
-5 -4 1 282.829 280.237 7.809 15.409 o
-5 -4 2 22.731 23.685 3.286 185.374 o
-5 -4 3 88.872 96.844 5.334 49.692 o
-5 -4 4 1006.010 986.544 17.055 3.019 o
-5 -4 5 1373.810 1417.790 23.691 1.815 o
-5 -4 6 454.361 423.001 12.735 8.278 o
-5 -4 7 32.830 38.378 4.956 106.703 o
-5 -4 8 10.267 3.735 8.231 89.795 o
-5 -3 1 1625.680 1600.550 18.892 1.549 o
-5 -3 2 812.471 871.780 16.098 3.836 o
-5 -3 3 24.245 19.002 2.938 200.499 o
-5 -3 4 148.792 162.348 5.885 30.289 o
-5 -3 5 179.309 181.499 6.603 25.124 o
-5 -3 6 167.090 178.110 11.647 19.530 o
-5 -3 7 136.507 138.329 13.380 19.732 o
-5 -3 8 139.911 145.841 11.949 21.561 o
-5 -2 1 985.162 965.177 9.346 3.412 o
-5 -2 2 620.605 613.079 11.186 5.981 o
-5 -2 3 297.734 327.561 7.471 14.233 o
-5 -2 4 1.243 0.708 1.648 1762.770 o
-5 -2 5 63.946 53.046 5.132 70.814 o
-5 -2 6 325.900 322.690 10.036 12.357 o
-5 -2 7 519.891 518.860 15.341 6.539 o
-5 -2 8 250.853 241.045 10.751 15.410 o
-5 -1 1 625.197 587.728 7.547 6.426 o
-5 -1 2 506.090 538.129 7.995 7.855 o
-5 -1 3 548.591 536.965 8.175 7.351 o
-5 -1 4 612.008 617.992 9.446 6.223 o
-5 -1 5 54.112 56.830 4.972 77.243 o
-5 -1 6 487.273 476.378 11.696 7.796 o
-5 -1 7 564.714 556.851 12.825 6.434 o
-5 -1 8 224.526 221.805 9.882 17.556 o
-5 -1 9 240.211 239.836 12.062 14.807 o
-5 0 1 188.996 247.626 5.325 22.912 o
-5 0 2 896.669 841.173 9.924 3.924 o
-5 0 3 1761.070 1747.820 15.685 1.406 o
-5 0 4 284.481 303.360 9.107 14.255 o
-5 0 5 17.601 19.620 2.888 236.171 o
-5 0 6 51.446 55.691 6.378 67.226 o
-5 0 7 33.172 29.821 4.885 113.381 o
-5 0 8 220.114 229.047 10.927 16.669 o
-5 0 9 80.818 79.871 7.945 43.283 o
-5 1 1 79.189 83.433 3.425 63.767 o
-5 1 2 352.718 366.368 8.986 11.611 o
-5 1 3 690.592 670.581 11.045 5.311 o
-5 1 4 1568.840 1551.540 36.614 1.321 o
-5 1 5 1100.660 1080.440 18.949 2.622 o
-5 1 6 88.296 96.745 6.182 46.597 o
-5 1 7 0.873 0.137 2.544 961.928 o
-5 1 8 89.915 111.558 17.655 16.084 o
-5 2 1 242.501 221.060 4.640 20.603 o
-5 2 2 0.491 0.732 2.259 1201.720 o
-5 2 3 3.018 1.310 1.817 1138.180 o
-5 2 4 47.499 41.474 4.080 99.002 o
-5 2 5 458.009 512.243 18.759 6.359 o
-5 2 6 460.134 485.535 13.633 7.627 o
-5 2 7 83.173 84.954 8.325 40.652 o
-5 2 8 13.521 6.378 4.847 190.977 o
-5 3 1 548.283 542.409 7.757 7.378 o
-5 3 2 516.156 508.507 12.068 7.236 o
-5 3 3 64.313 59.584 4.503 73.108 o
-5 3 4 389.107 422.552 9.565 10.121 o
-5 3 5 404.340 418.064 9.548 9.896 o
-5 3 6 324.456 308.114 8.556 13.241 o
-5 3 7 266.138 276.231 20.360 8.835 o
-5 4 1 576.496 599.990 12.601 6.194 o
-5 4 2 447.810 443.055 11.251 8.599 o
-5 4 3 363.262 370.124 10.328 10.872 o
-5 4 4 10.132 8.097 2.884 362.359 o
-5 4 5 215.710 193.689 12.336 16.251 o
-5 4 6 414.585 389.801 13.280 8.873 o
-5 5 1 607.815 570.199 12.067 6.137 o
-5 5 2 724.954 812.967 17.357 4.193 o
-5 5 3 237.678 247.629 11.512 15.183 o
-5 5 4 60.282 39.878 8.600 50.502 o
-5 5 5 40.385 52.165 8.108 58.820 o
-5 6 1 15.938 17.637 3.725 211.031 o
-5 6 2 67.959 44.712 9.410 43.272 o
-5 6 3 464.652 443.681 31.694 4.056 o
-4 -9 1 182.861 166.787 12.272 18.261 o
-4 -8 1 138.250 143.784 8.831 27.290 o
-4 -8 2 31.710 25.309 6.111 96.640 o
-4 -8 3 298.160 321.979 19.354 8.619 o
-4 -8 4 348.155 349.412 13.230 10.248 o
-4 -7 1 174.726 173.132 8.255 23.731 o
-4 -7 2 0.211 0.495 2.292 1233.960 o
-4 -7 3 284.386 284.831 9.026 14.605 o
-4 -7 4 462.826 436.749 10.485 8.615 o
-4 -7 5 259.920 253.435 18.398 10.053 o
-4 -7 6 159.999 183.853 18.950 12.053 o
-4 -6 1 662.520 646.117 11.351 5.544 o
-4 -6 2 81.102 94.922 6.088 49.286 o
-4 -6 3 45.989 48.325 4.596 91.143 o
-4 -6 4 99.175 98.886 12.714 24.497 o
-4 -6 5 227.130 236.640 13.319 14.290 o
-4 -6 6 584.992 611.123 22.630 4.640 o
-4 -6 7 102.229 80.585 9.009 35.205 o
-4 -5 1 356.289 375.315 7.403 11.943 o
-4 -5 2 1121.780 1081.190 13.747 2.754 o
-4 -5 3 332.413 354.406 10.034 11.819 o
-4 -5 4 224.423 239.816 10.567 16.585 o
-4 -5 5 141.297 149.249 10.016 24.604 o
-4 -5 6 199.993 220.170 10.093 18.555 o
-4 -5 7 375.984 388.860 10.963 10.232 o
-4 -5 8 76.060 64.058 7.185 50.259 o
-4 -4 1 1208.280 1218.970 13.945 2.432 o
-4 -4 2 1181.410 1165.470 17.038 2.449 o
-4 -4 3 1009.380 991.076 16.020 3.050 o
-4 -4 4 227.890 240.673 7.198 19.154 o
-4 -4 5 109.633 112.721 5.805 40.824 o
-4 -4 6 249.774 231.926 21.631 8.692 o
-4 -4 7 161.562 174.825 8.587 24.240 o
-4 -4 8 286.621 298.758 12.612 12.323 o
-4 -3 1 587.544 570.269 10.491 6.510 o
-4 -3 2 729.496 727.707 10.482 4.953 o
-4 -3 3 476.735 436.260 8.913 8.757 o
-4 -3 4 817.343 864.196 13.715 3.989 o
-4 -3 5 767.728 778.974 14.876 4.291 o
-4 -3 6 95.481 99.484 6.697 42.577 o
-4 -3 7 290.570 284.576 12.619 12.395 o
-4 -3 8 337.445 338.624 15.106 9.747 o
-4 -3 9 249.233 244.827 11.407 14.917 o
-4 -2 1 24.291 35.117 2.251 185.580 o
-4 -2 2 516.469 544.865 9.449 7.481 o
-4 -2 3 1511.210 1501.910 15.989 1.755 o
-4 -2 4 1055.410 1068.780 13.105 2.946 o
-4 -2 5 300.322 306.435 8.457 14.034 o
-4 -2 6 97.919 101.091 7.441 39.347 o
-4 -2 7 41.837 35.527 4.833 99.300 o
-4 -2 8 194.668 199.026 9.214 20.338 o
-4 -2 9 193.922 182.765 11.656 18.086 o
-4 -1 1 716.521 727.308 7.323 5.243 o
-4 -1 2 304.281 338.535 5.135 14.719 o
-4 -1 3 4.135 3.866 1.229 1134.600 o
-4 -1 4 837.104 774.359 10.272 4.301 o
-4 -1 5 1230.180 1220.240 17.256 2.309 o
-4 -1 6 239.631 251.695 6.315 18.851 o
-4 -1 7 4.762 6.066 3.382 398.748 o
-4 -1 8 0.228 -2.728 2.778 875.773 o
-4 -1 9 38.666 31.680 4.573 109.545 o
-4 0 1 2923.180 2862.690 19.985 0.627 o
-4 0 2 304.354 325.415 5.693 14.757 o
-4 0 3 279.157 273.362 4.962 17.086 o
-4 0 4 311.038 284.688 5.584 15.293 o
-4 0 5 1024.720 965.064 14.423 3.111 o
-4 0 6 1215.440 1209.120 17.381 2.340 o
-4 0 7 475.086 454.843 9.544 8.524 o
-4 0 8 186.130 203.890 6.716 23.504 o
-4 0 9 40.904 36.042 4.370 106.661 o
-4 1 1 332.105 367.969 5.688 13.194 o
-4 1 2 834.881 813.592 11.601 4.149 o
-4 1 3 413.803 412.400 8.022 10.168 o
-4 1 4 31.481 34.427 3.343 141.784 o
-4 1 5 5.624 3.455 2.079 699.603 o
-4 1 6 215.284 219.943 8.260 19.524 o
-4 1 7 764.330 798.776 16.611 4.124 o
-4 1 8 325.757 333.159 11.399 11.629 o
-4 1 9 89.568 88.430 10.771 30.898 o
-4 2 1 1221.170 1168.310 12.759 2.484 o
-4 2 2 1035.590 1053.770 12.854 3.023 o
-4 2 3 1349.520 1324.870 15.634 2.078 o
-4 2 4 982.695 979.250 20.085 2.940 o
-4 2 5 2.784 2.836 2.105 909.131 o
-4 2 6 522.222 559.388 15.514 6.322 o
-4 2 7 528.050 546.096 13.101 6.756 o
-4 2 8 266.155 241.704 13.580 12.949 o
-4 2 9 193.781 182.391 11.917 17.814 o
-4 3 1 221.060 212.641 4.855 22.192 o
-4 3 2 972.462 923.441 12.060 3.420 o
-4 3 3 1340.480 1319.910 14.963 2.108 o
-4 3 4 345.332 334.421 7.824 12.598 o
-4 3 5 3.922 4.239 1.907 843.132 o
-4 3 6 0.167 -1.093 3.154 685.841 o
-4 3 7 70.513 70.759 9.691 38.831 o
-4 3 8 156.474 147.804 9.183 24.837 o
-4 3 9 161.756 154.135 17.994 13.146 o
-4 4 1 29.622 27.894 3.701 146.353 o
-4 4 2 163.991 159.321 7.708 26.003 o
-4 4 3 229.234 217.842 9.316 17.925 o
-4 4 4 565.124 679.526 15.766 5.544 o
-4 4 5 568.354 572.035 13.264 6.275 o
-4 4 6 164.964 167.658 6.308 27.536 o
-4 4 7 1.153 2.383 3.156 588.994 o
-4 4 8 294.861 294.464 20.116 8.499 o
-4 5 1 101.480 104.091 5.989 43.048 o
-4 5 2 17.114 9.928 2.917 273.000 o
-4 5 3 167.239 195.661 8.120 23.617 o
-4 5 4 482.057 466.533 11.696 7.915 o
-4 5 5 825.282 836.990 17.140 3.780 o
-4 5 6 501.800 523.033 17.578 6.232 o
-4 5 7 87.298 77.246 9.263 37.010 o
-4 6 1 485.508 466.517 10.954 8.028 o
-4 6 2 319.325 328.267 10.273 12.345 o
-4 6 3 0.031 -1.226 3.968 437.998 o
-4 6 4 123.753 108.798 11.099 25.635 o
-4 6 5 271.237 270.637 18.204 9.853 o
-4 7 1 435.002 482.218 22.104 5.884 o
-4 7 2 499.204 553.568 15.025 6.627 o
-4 7 3 163.696 171.453 13.085 18.041 o
-3 -9 1 248.818 238.962 13.698 13.358 o
-3 -9 2 122.635 113.872 8.812 30.676 o
-3 -8 1 476.978 501.358 12.957 7.508 o
-3 -8 2 235.744 241.704 11.495 15.366 o
-3 -8 3 80.634 63.433 9.076 40.217 o
-3 -8 4 4.387 1.582 5.322 214.367 o
-3 -8 5 23.117 15.480 4.632 153.405 o
-3 -7 1 793.459 756.657 17.906 3.986 o
-3 -7 2 625.765 590.446 19.205 4.971 o
-3 -7 3 374.103 385.223 13.558 9.407 o
-3 -7 4 57.006 57.542 6.384 63.893 o
-3 -7 5 11.535 5.509 2.868 362.527 o
-3 -7 6 11.670 9.352 4.060 239.169 o
-3 -6 1 111.532 98.979 6.537 39.728 o
-3 -6 2 328.674 335.361 24.698 6.404 o
-3 -6 3 675.491 691.978 15.816 4.857 o
-3 -6 4 626.815 634.043 14.063 5.516 o
-3 -6 5 139.122 149.336 6.198 31.848 o
-3 -6 6 3.125 2.187 2.743 645.408 o
-3 -6 7 109.065 96.389 8.780 33.706 o
-3 -5 1 390.387 411.158 8.794 10.419 o
-3 -5 2 379.194 380.189 8.506 11.036 o
-3 -5 3 761.320 774.387 12.456 4.517 o
-3 -5 4 1238.170 1234.180 14.254 2.358 o
-3 -5 5 737.768 757.454 15.422 4.429 o
-3 -5 6 24.894 29.580 3.763 154.832 o
-3 -5 7 0.369 -3.510 2.155 1404.040 o
-3 -5 8 206.083 217.865 10.843 17.581 o
-3 -4 1 31.259 19.321 2.204 190.388 o
-3 -4 2 18.634 15.847 2.150 277.724 o
-3 -4 3 476.482 494.292 8.587 8.418 o
-3 -4 4 229.917 229.297 5.142 20.836 o
-3 -4 5 130.325 117.591 4.888 38.381 o
-3 -4 6 231.251 240.651 11.354 15.658 o
-3 -4 7 127.277 142.155 6.192 34.069 o
-3 -4 8 19.590 12.058 4.793 162.568 o
-3 -4 9 77.313 78.066 8.697 41.025 o
-3 -3 1 1687.280 1605.090 15.271 1.534 o
-3 -3 2 286.059 275.505 5.488 16.511 o
-3 -3 3 6.825 13.488 1.940 491.957 o
-3 -3 4 108.769 128.764 6.393 37.809 o
-3 -3 5 1553.730 1565.670 23.151 1.568 o
-3 -3 6 2181.930 2233.510 22.880 0.958 o
-3 -3 7 623.822 614.864 12.337 5.814 o
-3 -3 8 26.506 32.152 10.937 45.345 o
-3 -3 9 30.689 14.843 5.973 106.435 o
-3 -3 10 58.430 65.160 6.584 60.066 o
-3 -2 1 1265.610 1260.860 12.701 2.320 o
-3 -2 2 3287.060 3143.990 35.254 0.492 o
-3 -2 3 1423.650 1490.110 22.615 1.744 o
-3 -2 4 150.200 154.017 5.363 31.453 o
-3 -2 5 378.763 405.827 11.960 9.710 o
-3 -2 6 332.528 316.714 7.970 13.134 o
-3 -2 7 226.414 239.045 8.132 18.538 o
-3 -2 8 147.790 171.096 6.812 28.430 o
-3 -2 9 143.935 144.829 8.536 27.229 o
-3 -2 10 1.786 -4.071 3.394 537.141 o
-3 -1 1 2634.540 2588.540 16.363 0.751 o
-3 -1 2 1683.760 1612.900 13.799 1.548 o
-3 -1 3 953.834 931.172 10.118 3.544 o
-3 -1 4 353.176 381.406 6.875 12.102 o
-3 -1 5 6.170 8.548 2.575 475.523 o
-3 -1 6 129.342 122.392 4.263 39.353 o
-3 -1 7 445.225 442.820 9.730 8.995 o
-3 -1 8 644.131 647.502 12.083 5.587 o
-3 -1 9 322.662 335.690 9.045 12.702 o
-3 -1 10 20.133 8.254 3.164 242.510 o
-3 0 1 658.637 603.755 6.523 6.157 o
-3 0 2 1304.410 1245.640 14.755 2.225 o
-3 0 3 665.805 634.655 6.925 5.948 o
-3 0 4 637.924 611.472 8.457 6.136 o
-3 0 5 849.622 827.407 10.875 4.098 o
-3 0 6 74.081 85.131 4.800 59.527 o
-3 0 7 825.203 793.794 12.325 4.189 o
-3 0 8 844.580 839.749 15.891 3.791 o
-3 0 9 275.680 268.255 9.453 14.934 o
-3 0 10 274.581 289.099 8.693 15.057 o
-3 1 1 19.765 25.988 1.592 250.365 o
-3 1 2 404.434 505.014 9.048 9.298 o
-3 1 3 1402.290 1335.350 14.302 2.020 o
-3 1 4 2954.070 2900.490 24.410 0.605 o
-3 1 5 311.332 318.396 7.932 13.748 o
-3 1 6 70.402 73.278 3.711 69.977 o
-3 1 7 43.290 45.578 3.991 102.606 o
-3 1 8 81.287 77.649 5.612 54.215 o
-3 1 9 292.565 308.884 8.865 14.037 o
-3 1 10 85.118 64.847 6.482 50.877 o
-3 2 1 1822.680 2081.400 16.491 1.234 o
-3 2 2 54.080 61.201 4.687 78.114 o
-3 2 3 676.446 684.309 10.639 5.394 o
-3 2 4 1146.990 1134.140 13.980 2.635 o
-3 2 5 2351.030 2305.010 22.331 0.876 o
-3 2 6 1290.890 1273.240 18.549 2.138 o
-3 2 7 64.579 75.946 5.481 62.096 o
-3 2 8 0.366 -5.615 2.158 1400.380 o
-3 2 9 131.539 130.683 5.238 36.259 o
-3 2 10 485.009 480.524 11.617 7.815 o
-3 3 1 1367.450 1274.300 14.024 2.120 o
-3 3 2 278.721 256.629 6.858 16.555 o
-3 3 3 46.468 42.320 2.772 114.514 o
-3 3 4 6.750 4.596 1.728 703.170 o
-3 3 5 80.573 76.935 4.990 57.601 o
-3 3 6 598.343 668.159 11.495 5.905 o
-3 3 7 534.105 539.535 11.020 7.077 o
-3 3 8 78.730 74.240 8.352 42.616 o
-3 3 9 37.317 33.834 5.253 99.359 o
-3 3 10 36.248 10.575 5.316 114.805 o
-3 4 1 467.344 463.095 8.871 8.708 o
-3 4 2 680.115 652.950 9.551 5.570 o
-3 4 3 596.773 571.497 10.984 6.362 o
-3 4 4 110.690 93.457 6.450 40.731 o
-3 4 5 551.102 605.246 12.851 6.342 o
-3 4 6 567.519 566.908 22.854 4.789 o
-3 4 7 392.396 366.386 13.189 9.398 o
-3 4 8 304.520 313.695 12.639 11.726 o
-3 4 9 78.102 82.305 7.730 44.581 o
-3 5 1 617.165 638.735 11.432 5.882 o
-3 5 2 795.915 834.931 13.816 4.129 o
-3 5 3 556.105 540.932 17.117 5.859 o
-3 5 4 377.166 365.858 12.822 9.770 o
-3 5 5 2.108 -0.666 2.859 707.851 o
-3 5 6 347.787 341.603 10.836 11.296 o
-3 5 7 541.853 548.012 14.383 6.408 o
-3 5 8 195.596 172.990 7.841 22.691 o
-3 6 1 272.626 255.056 8.034 16.160 o
-3 6 2 882.630 836.073 13.479 3.807 o
-3 6 3 1000.120 1109.370 16.011 2.926 o
-3 6 4 259.828 271.919 10.591 14.683 o
-3 6 5 41.242 41.227 6.674 74.643 o
-3 6 6 23.964 26.693 5.173 124.764 o
-3 6 7 115.452 93.330 8.589 33.554 o
-3 7 1 2.869 -1.861 3.684 439.116 o
-3 7 2 44.019 52.421 6.065 75.478 o
-3 7 3 102.996 101.959 10.694 28.862 o
-3 7 4 574.336 562.763 53.082 1.845 o
-3 7 5 308.343 255.642 17.552 9.733 o
-2 -9 1 48.017 41.761 5.309 84.398 o
-2 -9 2 189.917 186.067 11.488 18.383 o
-2 -8 1 0.156 -1.966 2.042 1611.720 o
-2 -8 2 381.616 349.356 35.681 3.814 o
-2 -8 3 279.065 296.679 16.363 10.468 o
-2 -8 4 180.209 203.240 14.325 15.423 o
-2 -8 5 260.961 249.809 15.170 11.952 o
-2 -7 1 104.218 102.673 6.535 40.859 o
-2 -7 2 169.557 150.237 8.657 24.484 o
-2 -7 3 82.878 79.925 9.412 36.977 o
-2 -7 4 479.899 473.576 11.770 7.883 o
-2 -7 5 515.193 536.711 17.313 6.132 o
-2 -7 6 162.133 149.948 8.114 25.977 o
-2 -6 1 1171.350 1164.900 16.819 2.474 o
-2 -6 2 237.581 241.881 8.350 17.753 o
-2 -6 3 3.515 2.088 1.976 940.666 o
-2 -6 4 524.108 557.846 19.030 5.683 o
-2 -6 5 767.357 762.565 12.905 4.483 o
-2 -6 6 359.102 359.147 11.237 10.732 o
-2 -6 7 162.243 156.422 14.413 16.808 o
-2 -6 8 97.000 89.332 24.401 9.733 o
-2 -5 1 1590.180 1496.590 18.075 1.644 o
-2 -5 2 1043.680 1043.830 14.799 2.946 o
-2 -5 3 46.231 48.381 4.731 89.404 o
-2 -5 4 18.808 18.728 2.588 245.017 o
-2 -5 5 131.808 128.007 7.628 31.357 o
-2 -5 6 344.525 330.114 10.045 11.815 o
-2 -5 7 809.940 790.839 16.765 3.948 o
-2 -5 8 122.350 111.934 7.218 34.797 o
-2 -5 9 32.566 25.153 4.244 130.948 o
-2 -4 1 1037.350 1050.320 13.345 3.006 o
-2 -4 2 402.718 401.589 7.207 10.680 o
-2 -4 3 1638.480 1617.410 24.282 1.455 o
-2 -4 4 411.452 417.520 8.457 10.058 o
-2 -4 5 411.578 398.281 9.704 9.899 o
-2 -4 6 213.705 217.992 7.461 20.397 o
-2 -4 7 300.806 314.986 10.222 13.022 o
-2 -4 8 473.607 485.085 11.092 8.031 o
-2 -4 9 75.939 65.968 6.293 54.773 o
-2 -3 1 414.951 437.181 9.154 9.653 o
-2 -3 2 2192.470 2191.630 23.994 0.955 o
-2 -3 3 1782.100 1797.210 18.033 1.349 o
-2 -3 4 1525.100 1505.400 18.518 1.700 o
-2 -3 5 244.980 253.977 6.395 18.460 o
-2 -3 6 261.176 246.892 7.161 17.364 o
-2 -3 7 422.079 429.818 9.771 9.443 o
-2 -3 8 217.887 232.576 8.004 19.262 o
-2 -3 9 315.222 335.654 10.814 12.107 o
-2 -3 10 255.612 281.979 10.489 14.723 o
-2 -2 1 529.522 554.914 5.674 7.752 o
-2 -2 2 1448.320 1396.030 18.582 1.846 o
-2 -2 3 1338.290 1294.200 13.611 2.156 o
-2 -2 4 611.686 543.074 10.184 6.457 o
-2 -2 5 957.813 964.918 12.175 3.396 o
-2 -2 6 819.904 845.776 11.832 4.131 o
-2 -2 7 88.901 87.420 5.713 49.631 o
-2 -2 8 423.533 388.452 12.053 9.119 o
-2 -2 9 419.668 451.734 12.236 8.673 o
-2 -2 10 287.174 293.385 17.129 9.974 o
-2 -1 1 6.869 9.195 0.856 734.158 o
-2 -1 2 0.441 2.607 0.798 3542.000 o
-2 -1 3 1272.630 1298.380 15.231 2.224 o
-2 -1 4 2322.620 2383.960 20.862 0.879 o
-2 -1 5 1437.130 1435.520 16.093 1.879 o
-2 -1 6 346.191 359.010 7.773 12.275 o
-2 -1 7 87.986 84.673 4.608 54.899 o
-2 -1 8 34.686 23.761 3.454 144.536 o
-2 -1 9 304.810 311.768 8.235 13.915 o
-2 -1 10 256.612 217.781 21.929 8.555 o
-2 -1 11 46.463 45.538 7.055 66.610 o
-2 0 1 2044.320 1938.960 12.693 1.163 o
-2 0 2 1092.050 1072.290 11.811 2.891 o
-2 0 3 349.056 382.532 5.351 12.606 o
-2 0 4 6.673 5.076 1.182 826.468 o
-2 0 5 1140.480 1083.450 12.917 2.734 o
-2 0 6 1702.390 1710.320 18.560 1.440 o
-2 0 7 237.981 268.826 7.197 17.917 o
-2 0 8 2.423 3.846 2.077 910.237 o
-2 0 9 8.147 2.726 2.832 454.257 o
-2 0 10 51.595 47.973 4.759 84.543 o
-2 0 11 214.486 213.492 13.517 14.879 o
-2 1 1 2963.050 2817.270 30.089 0.596 o
-2 1 2 5211.710 5151.070 72.549 0.200 o
-2 1 3 397.088 413.799 5.956 10.949 o
-2 1 4 692.833 706.851 8.666 5.374 o
-2 1 5 560.848 548.089 8.174 7.163 o
-2 1 6 1441.040 1404.990 15.267 1.907 o
-2 1 7 1357.910 1336.570 17.003 2.031 o
-2 1 8 443.356 441.335 9.836 9.009 o
-2 1 9 179.156 171.575 7.131 24.912 o
-2 1 10 72.972 90.384 9.261 38.365 o
-2 1 11 233.517 258.142 10.178 16.171 o
-2 2 1 4168.210 4159.290 25.723 0.338 o
-2 2 2 298.651 316.212 6.036 14.994 o
-2 2 3 1094.760 1092.300 13.545 2.809 o
-2 2 4 330.707 318.219 9.395 12.571 o
-2 2 5 97.008 101.457 3.360 52.790 o
-2 2 6 13.272 14.301 1.902 360.879 o
-2 2 7 310.573 326.841 7.385 13.872 o
-2 2 8 843.200 921.994 17.622 3.543 o
-2 2 9 341.542 364.890 9.836 11.569 o
-2 2 10 73.952 91.187 12.205 28.264 o
-2 2 11 4.562 -4.890 2.927 575.347 o
-2 3 1 241.634 282.272 5.793 18.268 o
-2 3 2 1692.890 1640.350 15.768 1.508 o
-2 3 3 1272.880 1252.210 15.976 2.244 o
-2 3 4 1502.650 1436.450 20.371 1.730 o
-2 3 5 1014.580 997.793 15.083 3.068 o
-2 3 6 2.800 2.426 1.497 1311.540 o
-2 3 7 687.730 710.667 14.592 4.870 o
-2 3 8 673.752 688.671 11.282 5.338 o
-2 3 9 272.901 269.419 8.452 15.618 o
-2 3 10 174.802 193.836 7.499 23.888 o
-2 4 1 155.093 132.531 4.952 32.898 o
-2 4 2 371.639 373.541 6.940 11.732 o
-2 4 3 1278.480 1247.340 13.471 2.294 o
-2 4 4 1883.720 1825.150 18.620 1.262 o
-2 4 5 364.860 327.107 9.104 11.741 o
-2 4 6 19.241 23.630 5.033 140.800 o
-2 4 7 5.442 7.926 2.391 538.504 o
-2 4 8 111.169 115.967 5.084 42.083 o
-2 4 9 163.877 142.640 7.314 27.434 o
-2 4 10 159.670 161.517 7.814 26.141 o
-2 5 1 155.792 149.916 5.345 31.014 o
-2 5 2 6.770 2.278 1.513 835.926 o
-2 5 3 272.092 275.339 6.281 16.742 o
-2 5 4 301.990 315.403 8.665 13.745 o
-2 5 5 637.380 756.375 12.755 5.211 o
-2 5 6 533.922 503.855 13.703 6.787 o
-2 5 7 131.483 121.227 5.901 35.683 o
-2 5 8 0.585 -2.597 2.837 813.917 o
-2 5 9 337.749 353.756 14.361 9.928 o
-2 6 1 898.602 910.060 17.655 3.388 o
-2 6 2 79.062 83.562 5.745 53.323 o
-2 6 3 58.248 53.796 4.136 82.280 o
-2 6 4 242.806 243.962 14.391 12.961 o
-2 6 5 560.735 538.749 14.703 6.240 o
-2 6 6 864.793 866.526 19.755 3.422 o
-2 6 7 517.133 479.068 22.069 5.407 o
-2 6 8 74.997 56.941 8.408 45.249 o
-2 7 1 364.306 361.943 17.273 8.388 o
-2 7 2 483.946 457.266 10.508 8.196 o
-2 7 3 286.296 320.312 8.946 14.014 o
-2 7 4 2.210 2.460 3.087 569.932 o
-2 7 5 178.461 154.506 8.595 23.697 o
-2 7 6 342.394 314.952 14.839 9.970 o
-2 7 7 68.359 39.445 6.125 64.698 o
-2 8 1 276.146 270.272 11.627 13.546 o
-2 8 2 514.857 556.404 17.505 6.027 o
-2 8 3 544.426 578.625 16.061 5.986 o
-2 8 4 136.183 157.265 10.361 24.087 o
-1 -9 1 207.339 214.587 12.476 16.043 o
-1 -9 2 96.204 100.196 11.431 27.743 o
-1 -8 1 513.540 555.020 13.259 6.820 o
-1 -8 2 314.719 314.781 10.414 12.565 o
-1 -8 3 145.478 124.217 9.723 25.839 o
-1 -8 4 0.026 1.365 3.079 689.872 o
-1 -8 5 150.585 148.543 9.784 24.287 o
-1 -7 1 299.632 296.044 9.956 13.456 o
-1 -7 2 674.131 691.981 15.251 4.926 o
-1 -7 3 321.646 366.851 9.543 12.126 o
-1 -7 4 78.486 69.040 5.232 58.885 o
-1 -7 5 0.062 -5.595 2.480 1114.740 o
-1 -7 6 41.521 35.096 5.377 92.491 o
-1 -7 7 413.426 435.362 16.624 7.632 o
-1 -6 1 918.756 927.084 14.773 3.459 o
-1 -6 2 1265.890 1241.090 16.662 2.248 o
-1 -6 3 824.810 774.276 14.276 4.103 o
-1 -6 4 442.037 444.853 14.394 7.870 o
-1 -6 5 42.549 42.657 6.001 80.668 o
-1 -6 6 31.325 23.208 4.096 138.773 o
-1 -6 7 22.845 15.147 4.799 149.310 o
-1 -6 8 198.848 198.986 11.163 18.015 o
-1 -5 1 2.790 7.016 1.818 857.471 o
-1 -5 2 265.684 266.733 6.595 17.046 o
-1 -5 3 470.533 454.318 9.082 8.683 o
-1 -5 4 798.852 793.908 12.895 4.267 o
-1 -5 5 706.600 687.495 13.726 4.916 o
-1 -5 6 140.586 132.801 8.150 28.942 o
-1 -5 7 9.309 8.333 3.211 336.680 o
-1 -5 8 177.201 153.599 11.486 19.854 o
-1 -5 9 54.565 41.849 6.214 70.779 o
-1 -4 1 2139.090 2257.420 21.143 0.982 o
-1 -4 2 573.144 614.887 9.939 6.510 o
-1 -4 3 604.717 612.182 12.071 5.998 o
-1 -4 4 1193.440 1147.430 21.108 2.316 o
-1 -4 5 1691.030 1681.860 20.349 1.440 o
-1 -4 6 811.318 841.416 14.745 3.990 o
-1 -4 7 8.439 11.963 4.134 246.564 o
-1 -4 8 5.026 1.601 2.497 649.737 o
-1 -4 9 268.677 279.941 11.047 13.983 o
-1 -4 10 407.358 454.369 18.361 7.120 o
-1 -3 1 536.933 472.376 6.772 8.046 o
-1 -3 2 6.272 4.869 1.301 835.090 o
-1 -3 3 86.890 112.307 4.467 50.995 o
-1 -3 4 867.278 822.054 12.960 3.921 o
-1 -3 5 333.428 353.184 8.330 12.477 o
-1 -3 6 144.915 147.189 6.043 31.493 o
-1 -3 7 192.882 207.748 7.331 22.210 o
-1 -3 8 96.397 100.886 7.020 41.101 o
-1 -3 9 12.618 8.469 3.638 265.464 o
-1 -3 10 106.662 105.337 8.534 34.114 o
-1 -2 1 4601.650 4925.800 46.117 0.258 o
-1 -2 2 2245.830 2154.160 21.136 0.957 o
-1 -2 3 203.765 207.644 5.165 23.445 o
-1 -2 4 3.331 6.348 1.396 1007.330 o
-1 -2 5 143.267 120.087 4.965 35.687 o
-1 -2 6 1741.920 1763.740 23.538 1.331 o
-1 -2 7 2584.800 2680.270 26.783 0.717 o
-1 -2 8 689.559 681.486 12.614 5.137 o
-1 -2 9 14.911 17.097 3.361 236.936 o
-1 -2 10 58.932 53.082 9.061 46.293 o
-1 -2 11 73.655 72.960 7.050 50.337 o
-1 -1 1 4424.660 4357.760 42.977 0.292 o
-1 -1 2 1408.900 1390.110 13.689 1.984 o
-1 -1 3 4481.550 4408.390 35.001 0.293 o
-1 -1 4 2023.020 2044.980 23.692 1.073 o
-1 -1 5 373.939 394.299 6.916 11.445 o
-1 -1 6 621.783 668.945 18.934 4.826 o
-1 -1 7 450.040 442.929 12.243 8.329 o
-1 -1 8 231.719 277.669 9.043 16.702 o
-1 -1 9 117.323 141.452 5.907 36.353 o
-1 -1 10 107.399 111.019 7.719 35.907 o
-1 -1 11 7.985 4.279 3.389 360.951 o
-1 0 1 66.382 66.511 1.190 86.130 o
-1 0 2 4701.360 4535.950 42.293 0.268 o
-1 0 3 2075.460 1986.000 15.541 1.116 o
-1 0 4 1212.760 1158.280 13.798 2.485 o
-1 0 5 321.496 347.765 9.921 12.206 o
-1 0 6 53.060 48.154 3.408 96.026 o
-1 0 7 193.920 203.198 6.429 23.227 o
-1 0 8 485.164 476.250 10.313 8.101 o
-1 0 9 591.355 607.117 12.287 6.092 o
-1 0 10 300.212 301.047 12.731 11.916 o
-1 0 11 12.306 12.997 3.945 231.488 o
-1 1 1 165.137 152.374 4.006 31.386 o
-1 1 2 1492.980 1425.560 10.625 1.891 o
-1 1 3 1922.390 1801.390 15.032 1.272 o
-1 1 4 692.895 699.294 10.751 5.232 o
-1 1 5 553.831 492.294 8.182 7.540 o
-1 1 6 767.292 746.061 10.572 4.691 o
-1 1 7 73.521 71.035 4.821 62.878 o
-1 1 8 980.976 978.209 14.933 3.191 o
-1 1 9 943.655 929.658 15.328 3.350 o
-1 1 10 273.458 303.055 9.414 14.447 o
-1 1 11 243.726 261.709 14.431 12.692 o
-1 2 1 5.986 6.122 0.927 897.567 o
-1 2 2 251.614 269.496 4.441 18.767 o
-1 2 3 691.780 806.994 9.006 5.046 o
-1 2 4 1482.980 1441.830 12.867 1.866 o
-1 2 5 3434.510 3392.920 27.152 0.467 o
-1 2 6 254.625 254.862 6.825 17.694 o
-1 2 7 134.284 126.757 4.955 36.677 o
-1 2 8 23.029 19.443 2.745 211.993 o
-1 2 9 125.584 157.820 7.666 30.197 o
-1 2 10 289.876 324.357 9.834 13.393 o
-1 2 11 70.617 66.882 9.464 40.157 o
-1 3 1 2535.550 2485.920 20.003 0.788 o
-1 3 2 2273.500 2663.240 20.974 0.845 o
-1 3 3 11.855 11.739 1.364 451.105 o
-1 3 4 885.079 865.669 9.044 3.959 o
-1 3 5 1414.170 1410.960 17.785 1.893 o
-1 3 6 2610.530 2561.650 23.073 0.741 o
-1 3 7 1156.590 1155.820 14.459 2.580 o
-1 3 8 31.268 33.690 4.167 126.863 o
-1 3 9 7.006 8.610 2.427 478.054 o
-1 3 10 147.751 161.721 7.690 27.488 o
-1 3 11 451.337 451.848 12.145 8.279 o
-1 4 1 1328.230 1454.520 16.497 2.001 o
-1 4 2 1679.220 1567.730 15.623 1.555 o
-1 4 3 232.212 215.661 5.265 21.047 o
-1 4 4 143.904 143.248 3.921 35.343 o
-1 4 5 24.267 20.822 2.120 222.523 o
-1 4 6 107.538 111.432 4.119 46.030 o
-1 4 7 551.952 605.758 9.647 6.781 o
-1 4 8 450.065 469.129 9.071 8.873 o
-1 4 9 53.951 53.757 6.477 65.615 o
-1 4 10 57.150 41.293 7.362 60.041 o
-1 5 1 3102.320 3046.120 26.696 0.554 o
-1 5 2 474.103 464.086 8.520 8.672 o
-1 5 3 632.455 618.191 9.860 6.015 o
-1 5 4 468.419 435.498 7.749 9.110 o
-1 5 5 149.630 133.590 5.511 32.695 o
-1 5 6 591.723 643.504 9.829 6.243 o
-1 5 7 594.700 605.148 10.001 6.359 o
-1 5 8 364.337 351.621 8.062 11.826 o
-1 5 9 267.285 266.116 10.241 14.760 o
-1 5 10 49.095 41.768 5.439 82.127 o
-1 6 1 31.768 25.155 2.989 160.468 o
-1 6 2 707.918 706.331 14.099 4.823 o
-1 6 3 808.496 846.007 15.479 3.942 o
-1 6 4 508.420 529.544 10.866 7.421 o
-1 6 5 289.807 305.833 8.135 14.543 o
-1 6 6 0.570 0.749 2.262 1185.730 o
-1 6 7 405.127 403.604 9.753 9.952 o
-1 6 8 543.163 550.725 11.607 6.842 o
-1 6 9 165.503 153.674 8.678 24.643 o
-1 7 1 6.266 5.667 2.303 567.198 o
-1 7 2 336.050 311.915 10.229 12.155 o
-1 7 3 958.365 925.793 18.060 3.174 o
-1 7 4 1047.410 1142.610 16.434 2.762 o
-1 7 5 225.059 223.983 8.794 18.431 o
-1 7 6 18.325 9.926 5.468 145.049 o
-1 7 7 6.276 -2.637 4.238 304.340 o
-1 7 8 138.713 141.723 11.652 22.256 o
-1 8 1 82.101 86.245 7.584 43.782 o
-1 8 2 16.953 13.949 4.023 200.782 o
-1 8 3 74.411 91.361 13.018 26.029 o
-1 8 4 121.096 119.070 7.371 34.059 o
-1 8 5 544.155 550.486 15.831 6.131 o
-1 8 6 249.256 231.524 12.211 14.536 o
-1 9 1 222.754 209.304 12.802 15.296 o
0 -9 1 17.892 13.684 4.206 189.102 o
0 -9 2 257.754 297.474 14.835 11.713 o
0 -8 1 2.212 1.529 2.353 888.055 o
0 -8 2 91.519 95.169 7.153 42.306 o
0 -8 3 263.437 277.651 18.171 9.935 o
0 -8 4 208.091 177.043 10.650 18.641 o
0 -8 5 82.535 77.269 13.319 25.192 o
0 -7 1 335.664 355.721 17.829 8.569 o
0 -7 2 5.979 8.233 2.814 444.170 o
0 -7 3 597.554 588.683 16.328 5.548 o
0 -7 4 353.234 343.441 9.611 11.633 o
0 -7 5 183.674 204.732 11.141 18.624 o
0 -7 6 257.350 248.598 15.450 11.867 o
0 -6 1 104.624 103.106 4.738 46.251 o
0 -6 2 70.153 70.966 4.650 65.542 o
0 -6 3 136.872 112.690 5.694 35.941 o
0 -6 4 134.298 139.692 6.127 33.338 o
0 -6 5 577.198 567.325 16.983 5.650 o
0 -6 6 579.266 611.888 15.368 5.732 o
0 -6 7 147.686 141.021 10.017 24.419 o
0 -6 8 1.852 -12.083 3.978 401.160 o
0 -5 1 2793.900 2723.390 26.850 0.656 o
0 -5 2 1351.740 1330.700 16.676 2.050 o
0 -5 3 219.938 239.771 6.816 19.922 o
0 -5 4 11.962 11.382 2.229 376.109 o
0 -5 5 702.526 680.384 16.970 4.627 o
0 -5 6 993.242 950.367 17.818 3.062 o
0 -5 7 389.165 355.082 18.855 7.624 o
0 -5 8 124.609 115.056 11.132 25.233 o
0 -5 9 72.938 56.830 9.093 42.410 o
0 -4 1 868.772 828.949 11.515 3.982 o
0 -4 2 2162.760 2032.750 20.493 1.028 o
0 -4 3 1260.890 1252.720 15.173 2.282 o
0 -4 4 11.686 10.267 1.984 413.719 o
0 -4 5 1.136 -0.116 2.116 1295.080 o
0 -4 6 115.894 113.717 8.584 32.105 o
0 -4 7 388.441 403.866 12.939 9.256 o
0 -4 8 813.794 866.149 18.151 3.697 o
0 -4 9 113.350 119.760 11.042 26.182 o
0 -4 10 25.157 25.618 7.678 78.439 o
0 -3 1 1703.820 1696.890 21.033 1.415 o
0 -3 2 1554.410 1585.290 15.957 1.664 o
0 -3 3 389.379 352.578 6.884 11.578 o
0 -3 4 1583.250 1545.510 19.785 1.602 o
0 -3 5 350.443 337.221 7.704 12.469 o
0 -3 6 523.375 506.455 10.050 7.521 o
0 -3 7 244.006 249.632 7.428 17.933 o
0 -3 8 328.262 376.280 15.245 9.541 o
0 -3 9 452.090 476.973 17.269 6.893 o
0 -3 10 60.114 62.438 9.498 42.606 o
0 -2 1 124.551 122.407 3.144 42.392 o
0 -2 2 623.094 691.600 10.958 5.700 o
0 -2 3 2941.870 2839.400 30.535 0.597 o
0 -2 4 1918.410 1942.310 20.681 1.185 o
0 -2 5 1621.970 1594.740 18.906 1.555 o
0 -2 6 199.323 187.560 6.150 23.696 o
0 -2 7 386.592 377.707 9.294 10.672 o
0 -2 8 537.347 579.549 12.278 6.658 o
0 -2 9 236.497 262.665 7.592 17.866 o
0 -2 10 268.618 299.746 9.037 14.881 o
0 -2 11 200.524 191.942 19.193 11.046 o
0 -1 1 860.510 899.526 7.776 4.039 o
0 -1 2 728.120 711.505 8.272 5.162 o
0 -1 3 2073.330 2069.450 35.772 0.939 o
0 -1 4 1715.370 1560.190 17.570 1.503 o
0 -1 5 622.040 606.047 10.568 6.067 o
0 -1 6 848.166 828.408 13.505 3.951 o
0 -1 7 601.688 621.187 14.694 5.643 o
0 -1 8 50.049 61.070 4.615 81.823 o
0 -1 9 444.390 454.149 13.198 8.092 o
0 -1 10 385.371 415.096 10.978 9.833 o
0 -1 11 258.983 306.015 10.541 14.195 o
0 0 2 22.503 20.449 1.251 259.727 o
0 0 3 33.549 59.085 2.379 126.387 o
0 0 4 1915.650 1926.280 17.220 1.219 o
0 0 5 2394.380 2443.050 21.751 0.837 o
0 0 6 1395.030 1448.250 15.982 1.926 o
0 0 7 289.483 283.305 6.906 15.562 o
0 0 8 58.837 60.910 4.184 78.723 o
0 0 9 18.254 13.701 2.752 258.746 o
0 0 10 331.851 342.795 12.940 10.727 o
0 0 11 252.302 258.644 9.467 15.953 o
0 1 0 328.518 308.248 4.347 14.634 o
0 1 1 1005.150 968.271 6.921 3.410 o
0 1 2 1818.750 1734.130 12.668 1.390 o
0 1 3 928.720 913.606 8.752 3.711 o
0 1 4 194.180 209.989 4.522 24.662 o
0 1 5 17.780 10.508 1.550 346.550 o
0 1 6 1087.520 1060.730 13.206 2.874 o
0 1 7 1578.430 1552.030 18.177 1.627 o
0 1 8 184.604 207.790 6.557 23.642 o
0 1 9 7.779 4.301 2.079 584.039 o
0 1 10 29.124 28.714 3.246 157.095 o
0 1 11 53.991 40.532 7.099 63.732 o
0 2 0 244.915 239.819 3.723 20.332 o
0 2 1 1482.190 1411.720 10.352 1.916 o
0 2 2 2811.110 2640.610 17.527 0.690 o
0 2 3 5475.350 5360.970 32.884 0.210 o
0 2 4 341.391 360.963 6.312 12.846 o
0 2 5 814.229 818.513 9.760 4.332 o
0 2 6 713.767 697.772 10.567 5.125 o
0 2 7 1529.700 1465.890 17.367 1.734 o
0 2 8 1113.280 1090.680 15.242 2.715 o
0 2 9 308.791 296.330 8.694 13.814 o
0 2 10 122.001 116.451 6.212 36.998 o
0 2 11 89.362 100.050 6.073 46.286 o
0 3 0 3.156 2.570 0.918 1648.140 o
0 3 1 3462.540 3538.160 25.022 0.456 o
0 3 2 4703.020 4683.860 27.443 0.274 o
0 3 3 354.860 374.589 5.424 12.539 o
0 3 4 953.431 949.080 9.916 3.522 o
0 3 5 169.325 166.222 4.250 29.700 o
0 3 6 154.575 168.254 4.637 30.964 o
0 3 7 31.591 32.155 2.923 152.557 o
0 3 8 323.242 333.775 8.935 12.759 o
0 3 9 686.842 734.878 14.664 4.804 o
0 3 10 266.344 266.249 9.704 15.137 o
0 3 11 44.576 42.964 4.851 92.216 o
0 4 0 161.407 172.169 4.446 30.084 o
0 4 1 51.034 57.950 2.431 100.745 o
0 4 2 421.442 430.085 7.123 10.067 o
0 4 3 1701.610 1654.160 14.405 1.507 o
0 4 4 1154.390 1144.860 11.914 2.663 o
0 4 5 1139.090 1104.090 12.982 2.712 o
0 4 6 734.569 731.842 9.962 4.950 o
0 4 7 1.081 1.414 1.613 1750.190 o
0 4 8 629.201 660.447 11.618 5.696 o
0 4 9 626.295 626.603 12.133 5.778 o
0 4 10 234.505 224.251 8.741 18.008 o
0 4 11 118.295 92.379 14.807 19.544 o
0 5 0 1149.870 1126.130 13.600 2.648 o
0 5 1 542.078 586.849 8.218 7.151 o
0 5 2 63.196 51.857 2.727 89.082 o
0 5 3 445.026 443.958 8.210 9.320 o
0 5 4 1209.440 1200.270 14.550 2.433 o
0 5 5 1774.700 1718.980 16.676 1.397 o
0 5 6 313.288 300.616 7.691 14.069 o
0 5 7 39.550 40.353 3.291 120.898 o
0 5 8 26.843 22.428 2.568 193.066 o
0 5 9 123.721 134.994 8.384 30.263 o
0 5 10 126.796 124.301 8.530 30.206 o
0 6 0 832.858 915.983 13.324 3.853 o
0 6 1 282.923 283.655 6.089 16.202 o
0 6 2 128.511 131.075 5.529 36.148 o
0 6 3 0.202 1.616 1.690 1910.400 o
0 6 4 324.668 334.877 9.850 12.317 o
0 6 5 307.147 328.044 9.051 13.229 o
0 6 6 529.668 625.488 11.046 6.706 o
0 6 7 383.472 360.022 8.131 11.273 o
0 6 8 73.000 75.218 5.273 59.687 o
0 6 9 6.379 4.408 3.175 416.961 o
0 7 0 816.546 818.398 13.479 4.100 o
0 7 1 1409.210 1401.360 17.684 1.907 o
0 7 2 767.721 770.318 15.758 4.239 o
0 7 3 43.603 46.169 5.306 86.312 o
0 7 4 102.449 87.623 6.161 44.210 o
0 7 5 276.292 293.715 9.382 14.526 o
0 7 6 505.100 499.512 11.371 7.529 o
0 7 7 687.358 695.958 21.831 4.136 o
0 7 8 407.198 410.662 12.441 9.082 o
0 8 0 191.220 194.137 6.693 23.513 o
0 8 1 628.724 636.222 12.731 5.657 o
0 8 2 335.713 340.242 9.533 12.112 o
0 8 3 363.942 371.971 11.010 10.598 o
0 8 4 177.980 203.264 10.603 19.570 o
0 8 5 7.372 7.008 4.399 250.479 o
0 8 6 181.442 139.987 22.924 9.347 o
0 8 7 318.333 328.461 12.147 11.502 o
0 9 0 0.803 0.341 4.809 289.546 o
0 9 1 7.620 5.729 4.622 235.832 o
0 9 2 252.231 240.221 12.875 13.830 o
0 9 3 462.714 558.057 15.320 6.870 o
0 9 4 464.515 498.240 14.937 7.219 o
1 -8 0 671.247 651.905 19.200 4.595 o
1 -8 1 995.353 1033.840 20.932 2.808 o
1 -8 2 205.372 186.956 9.158 20.127 o
1 -8 3 75.437 85.598 11.398 30.803 o
1 -8 4 13.261 11.091 4.152 219.145 o
1 -7 0 155.339 156.623 7.101 27.934 o
1 -7 1 572.190 584.235 13.190 6.206 o
1 -7 2 586.041 637.176 13.294 5.885 o
1 -7 3 308.618 288.163 9.927 13.327 o
1 -7 4 123.385 112.055 8.531 31.373 o
1 -7 5 2.644 -2.386 5.498 214.424 o
1 -7 6 178.621 179.424 13.322 16.966 o
1 -6 0 27.430 27.306 3.015 169.951 o
1 -6 1 29.406 35.950 3.796 135.663 o
1 -6 2 321.825 310.623 7.894 13.564 o
1 -6 3 681.051 701.856 12.840 5.105 o
1 -6 4 333.051 351.728 8.633 12.391 o
1 -6 5 57.513 55.201 9.381 44.616 o
1 -6 6 4.377 -0.504 3.355 474.572 o
1 -6 7 59.078 58.398 9.451 43.520 o
1 -6 8 418.554 467.539 15.556 7.699 o
1 -5 0 981.877 1044.390 13.441 3.159 o
1 -5 1 271.004 245.607 7.168 16.948 o
1 -5 2 1201.170 1230.290 17.179 2.352 o
1 -5 3 1503.020 1474.250 18.254 1.745 o
1 -5 4 861.700 816.233 16.885 3.706 o
1 -5 5 387.858 390.272 11.861 9.720 o
1 -5 6 17.660 11.885 3.139 248.303 o
1 -5 7 51.101 42.496 5.137 83.393 o
1 -5 8 34.112 22.351 4.407 127.268 o
1 -5 9 195.283 183.133 12.269 17.351 o
1 -4 0 1057.290 1043.360 12.310 2.999 o
1 -4 1 302.689 270.519 6.126 15.660 o
1 -4 2 55.069 55.065 3.810 87.124 o
1 -4 3 407.716 442.621 8.845 9.806 o
1 -4 4 533.932 503.300 14.038 6.728 o
1 -4 5 721.658 717.856 16.431 4.502 o
1 -4 6 551.534 537.661 15.600 6.164 o
1 -4 7 101.069 94.122 19.265 14.067 o
1 -4 8 12.310 10.493 3.827 246.978 o
1 -4 9 201.168 201.998 12.857 16.143 o
1 -4 10 54.879 67.087 10.152 40.023 o
1 -3 0 1912.160 1948.670 18.470 1.204 o
1 -3 1 663.106 642.794 9.265 5.750 o
1 -3 2 1883.260 2088.470 20.689 1.162 o
1 -3 3 473.520 491.475 10.232 8.167 o
1 -3 4 626.381 655.878 14.517 5.393 o
1 -3 5 1255.000 1207.800 25.175 2.051 o
1 -3 6 1719.000 1746.180 23.799 1.350 o
1 -3 7 679.509 673.629 17.935 4.650 o
1 -3 8 1.036 -2.638 2.590 922.464 o
1 -3 9 15.142 9.490 3.161 275.169 o
1 -3 10 273.205 279.400 13.645 12.276 o
1 -2 0 1516.420 1434.780 10.954 1.852 o
1 -2 1 6540.120 6306.600 45.164 0.151 o
1 -2 2 518.286 428.280 6.921 8.567 o
1 -2 3 5.003 5.280 2.734 521.520 o
1 -2 4 158.623 200.449 6.146 26.734 o
1 -2 5 1002.540 950.234 14.769 3.177 o
1 -2 6 366.155 351.434 10.913 10.789 o
1 -2 7 134.443 129.459 6.350 33.618 o
1 -2 8 108.574 101.772 9.226 32.146 o
1 -2 9 44.875 36.163 4.338 102.031 o
1 -2 10 4.470 1.494 3.250 476.517 o
1 -2 11 99.861 91.620 7.833 38.564 o
1 -1 0 1188.010 1169.370 13.841 2.521 o
1 -1 1 2938.740 2931.260 45.798 0.535 o
1 -1 2 4470.420 4658.640 44.619 0.276 o
1 -1 3 1936.360 1873.150 19.252 1.207 o
1 -1 4 74.313 70.570 4.563 64.018 o
1 -1 5 54.957 58.385 4.760 77.883 o
1 -1 6 162.039 131.545 6.873 28.944 o
1 -1 7 1429.190 1466.830 24.251 1.717 o
1 -1 8 2139.510 2201.570 30.218 0.932 o
1 -1 9 586.397 581.628 18.027 5.386 o
1 -1 10 7.141 5.280 3.174 395.517 o
1 -1 11 77.988 71.032 6.648 51.338 o
1 0 0 63.047 62.610 1.208 91.045 o
1 0 1 761.378 789.276 8.456 4.738 o
1 0 2 4863.750 4793.900 34.823 0.255 o
1 0 3 1165.630 1108.360 11.037 2.699 o
1 0 4 3508.610 3455.410 27.949 0.451 o
1 0 5 1466.270 1498.040 17.411 1.786 o
1 0 6 402.824 400.713 8.547 10.349 o
1 0 7 657.805 704.385 12.392 5.282 o
1 0 8 467.088 455.588 9.356 8.668 o
1 0 9 166.026 181.272 6.846 26.028 o
1 0 10 72.226 78.527 5.968 55.580 o
1 0 11 56.833 50.895 6.784 62.495 o
1 1 0 301.092 383.501 5.033 14.098 o
1 1 1 39.999 35.666 1.015 150.750 o
1 1 2 156.533 140.814 2.549 35.044 o
1 1 3 3871.830 3788.280 25.195 0.387 o
1 1 4 1867.910 1822.130 13.901 1.311 o
1 1 5 992.697 916.693 10.949 3.410 o
1 1 6 192.383 220.831 6.237 22.865 o
1 1 7 89.367 83.519 4.847 53.643 o
1 1 8 246.052 253.981 6.987 18.025 o
1 1 9 410.241 408.402 10.183 9.703 o
1 1 10 400.482 402.484 9.320 10.166 o
1 1 11 202.415 208.327 9.472 19.367 o
1 1 12 3.775 21.805 12.018 44.410 o
1 2 0 2415.270 2358.920 18.920 0.857 o
1 2 1 862.760 879.877 7.161 4.093 o
1 2 2 52.631 51.904 1.714 107.208 o
1 2 3 1364.190 1290.890 9.674 2.181 o
1 2 4 1891.630 1836.430 32.086 1.115 o
1 2 5 665.207 690.677 8.381 5.637 o
1 2 6 308.519 279.332 5.380 15.567 o
1 2 7 459.792 446.263 8.000 9.112 o
1 2 8 40.386 35.304 3.518 120.479 o
1 2 9 841.908 835.696 12.686 4.011 o
1 2 10 763.400 756.116 12.604 4.540 o
1 2 11 222.741 223.091 10.544 17.021 o
1 3 0 6094.220 5906.810 38.923 0.173 o
1 3 1 1380.550 1340.580 10.498 2.106 o
1 3 2 20.604 19.340 1.538 270.980 o
1 3 3 449.758 480.731 6.469 9.270 o
1 3 4 621.077 668.276 8.854 6.008 o
1 3 5 1218.000 1156.890 11.888 2.520 o
1 3 6 2475.180 2428.850 22.111 0.810 o
1 3 7 154.171 150.262 5.309 31.258 o
1 3 8 130.011 129.011 5.571 35.982 o
1 3 9 4.402 1.915 2.114 811.429 o
1 3 10 125.344 130.348 6.681 34.201 o
1 3 11 214.652 218.007 9.170 18.769 o
1 4 0 741.744 781.466 8.838 4.844 o
1 4 1 1588.830 1530.060 13.430 1.687 o
1 4 2 1882.510 1889.920 14.789 1.270 o
1 4 3 1424.000 1693.330 13.891 1.773 o
1 4 4 0.444 1.076 1.122 3456.240 o
1 4 5 807.039 806.665 9.721 4.395 o
1 4 6 1264.630 1224.640 12.916 2.349 o
1 4 7 2031.120 2042.640 24.192 1.065 o
1 4 8 818.338 807.329 12.918 4.152 o
1 4 9 9.157 7.421 2.324 456.157 o
1 4 10 20.559 17.424 3.509 199.275 o
1 4 11 126.853 141.941 8.992 28.220 o
1 5 0 381.221 369.725 7.039 11.527 o
1 5 1 964.501 977.193 11.058 3.400 o
1 5 2 1093.060 1227.350 12.945 2.679 o
1 5 3 1282.340 1226.150 13.846 2.297 o
1 5 4 137.571 120.258 4.399 37.711 o
1 5 5 165.835 159.494 4.733 29.975 o
1 5 6 56.587 65.016 3.836 81.458 o
1 5 7 107.661 108.453 4.667 44.948 o
1 5 8 364.582 412.656 9.595 10.667 o
1 5 9 276.519 288.946 8.682 14.998 o
1 5 10 23.717 14.281 3.412 196.135 o
1 6 0 193.499 189.349 5.717 24.534 o
1 6 1 934.041 989.445 12.024 3.439 o
1 6 2 2785.880 2669.230 22.590 0.679 o
1 6 3 428.443 429.768 7.770 9.807 o
1 6 4 429.358 417.752 8.819 9.656 o
1 6 5 253.134 244.912 7.520 17.549 o
1 6 6 161.967 152.733 5.938 29.209 o
1 6 7 485.051 511.432 11.423 7.676 o
1 6 8 461.367 473.023 9.005 8.696 o
1 6 9 261.302 241.907 10.310 15.339 o
1 6 10 179.918 185.014 8.834 22.165 o
1 7 0 43.745 43.105 4.015 103.278 o
1 7 1 3.551 0.660 1.741 1159.520 o
1 7 2 6.539 2.646 1.815 748.311 o
1 7 3 604.489 618.645 10.782 6.132 o
1 7 4 600.381 614.290 12.684 5.944 o
1 7 5 337.413 326.969 10.809 11.695 o
1 7 6 161.454 185.034 6.940 26.152 o
1 7 7 5.898 11.030 3.221 363.384 o
1 7 8 346.352 346.674 8.818 12.053 o
1 7 9 415.749 421.158 12.219 8.946 o
1 8 0 399.116 387.899 10.980 9.830 o
1 8 1 86.797 89.941 5.154 52.176 o
1 8 2 14.889 13.905 2.466 304.407 o
1 8 3 317.375 301.659 7.467 14.020 o
1 8 4 782.781 736.247 13.627 4.417 o
1 8 5 824.720 883.825 18.512 3.605 o
1 8 6 154.082 148.862 12.339 20.062 o
1 8 7 4.867 4.858 4.024 318.370 o
1 9 0 829.866 866.775 20.443 3.479 o
1 9 1 512.858 503.085 14.887 6.755 o
1 9 2 53.002 49.459 5.885 72.384 o
1 9 3 29.890 22.248 7.064 84.868 o
1 9 4 83.379 79.688 7.200 45.931 o
1 9 5 112.023 109.109 11.445 25.871 o
2 -8 0 3.101 1.467 3.936 375.735 o
2 -8 1 7.935 6.839 3.961 284.491 o
2 -8 2 38.120 21.958 4.882 111.964 o
2 -8 3 276.946 260.346 9.445 15.032 o
2 -7 0 555.827 559.298 12.191 6.597 o
2 -7 1 142.640 146.266 13.752 18.699 o
2 -7 2 8.589 9.323 3.187 342.096 o
2 -7 3 122.936 129.316 6.606 34.825 o
2 -7 4 265.440 279.925 11.317 13.911 o
2 -7 5 195.887 180.566 11.535 18.180 o
2 -6 0 1473.920 1464.450 21.885 1.718 o
2 -6 1 731.997 748.667 14.687 4.541 o
2 -6 2 294.591 305.741 8.540 14.186 o
2 -6 3 16.309 15.219 2.885 260.338 o
2 -6 4 680.549 587.446 37.463 2.759 o
2 -6 5 356.947 348.955 25.646 5.921 o
2 -6 6 151.636 141.578 11.809 21.197 o
2 -6 7 185.075 170.911 12.047 18.327 o
2 -5 0 385.374 375.540 8.489 10.961 o
2 -5 1 916.874 1021.160 13.171 3.394 o
2 -5 2 73.248 66.803 4.555 65.561 o
2 -5 3 24.723 26.181 3.315 172.770 o
2 -5 4 60.995 47.075 5.210 73.890 o
2 -5 5 157.664 165.124 8.478 25.130 o
2 -5 6 505.080 500.465 14.008 7.013 o
2 -5 7 482.188 516.005 29.270 4.250 o
2 -5 8 99.254 106.780 8.383 35.590 o
2 -4 0 666.851 701.116 10.620 5.403 o
2 -4 1 1179.070 1149.470 12.527 2.591 o
2 -4 2 2495.830 2487.070 23.064 0.789 o
2 -4 3 1097.460 1089.220 21.277 2.530 o
2 -4 4 146.131 163.479 7.482 27.915 o
2 -4 5 24.317 29.285 3.606 161.043 o
2 -4 6 676.037 679.032 14.171 5.066 o
2 -4 7 954.121 955.613 18.669 3.113 o
2 -4 8 336.935 344.126 17.918 8.590 o
2 -4 9 73.560 91.967 12.720 26.852 o
2 -3 0 145.226 172.460 4.707 31.838 o
2 -3 1 250.200 252.231 5.013 19.032 o
2 -3 2 828.267 814.756 10.621 4.231 o
2 -3 3 1901.970 1783.670 19.719 1.254 o
2 -3 4 1093.380 1133.570 19.201 2.574 o
2 -3 5 2.293 0.486 1.701 1437.650 o
2 -3 6 7.135 6.831 2.278 524.638 o
2 -3 7 64.069 51.995 5.762 66.366 o
2 -3 8 333.331 350.023 11.929 11.059 o
2 -3 9 600.054 619.158 15.966 5.486 o
2 -3 10 77.403 68.231 5.974 55.539 o
2 -2 0 2811.880 2818.850 23.908 0.649 o
2 -2 1 9.681 7.199 1.150 607.078 o
2 -2 2 1906.240 1916.940 16.064 1.236 o
2 -2 3 1512.170 1542.590 15.249 1.741 o
2 -2 4 321.178 293.552 7.594 13.973 o
2 -2 5 1071.130 1042.820 15.768 2.846 o
2 -2 6 161.545 146.612 6.581 28.629 o
2 -2 7 457.353 468.625 12.064 8.119 o
2 -2 8 199.483 211.492 8.721 20.218 o
2 -2 9 267.731 275.394 8.202 15.851 o
2 -2 10 319.392 337.742 9.819 12.427 o
2 -2 11 36.952 21.565 11.338 41.783 o
2 -1 0 1136.230 1094.610 9.036 2.826 o
2 -1 1 169.437 159.119 3.100 31.274 o
2 -1 2 20.444 18.830 1.357 280.300 o
2 -1 3 734.933 764.738 10.768 4.800 o
2 -1 4 2145.140 2144.880 20.959 1.006 o
2 -1 5 1483.350 1516.930 19.329 1.725 o
2 -1 6 1174.570 1126.510 15.815 2.535 o
2 -1 7 94.460 91.453 4.073 53.286 o
2 -1 8 350.385 345.980 12.503 10.531 o
2 -1 9 511.878 522.180 9.755 7.611 o
2 -1 10 208.288 216.119 10.418 17.933 o
2 -1 11 177.439 168.419 8.328 23.606 o
2 0 0 841.283 781.878 6.225 4.448 o
2 0 1 333.856 373.484 3.959 13.489 o
2 0 2 559.874 646.015 7.510 6.759 o
2 0 3 258.648 262.647 5.535 18.046 o
2 0 4 1486.160 1495.840 14.761 1.804 o
2 0 5 1354.960 1263.190 16.340 2.101 o
2 0 6 589.824 557.365 15.828 5.778 o
2 0 7 519.445 512.071 9.202 7.670 o
2 0 8 309.390 325.144 7.932 13.704 o
2 0 9 14.955 8.463 2.489 332.641 o
2 0 10 352.308 352.235 8.405 11.990 o
2 0 11 260.892 281.324 23.501 7.535 o
2 1 0 4926.130 4941.230 23.618 0.253 o
2 1 2 4169.610 4233.100 32.074 0.328 o
2 1 3 12.149 17.131 1.219 400.856 o
2 1 4 154.511 141.617 5.230 31.912 o
2 1 5 1372.500 1377.390 28.073 1.735 o
2 1 6 1730.300 1727.210 32.948 1.225 o
2 1 7 983.064 987.116 12.804 3.261 o
2 1 8 163.698 160.660 5.974 28.513 o
2 1 9 32.708 30.143 3.878 133.191 o
2 1 10 4.704 0.759 2.713 617.223 o
2 1 11 259.116 272.256 8.337 16.169 o
2 2 0 1065.510 1079.520 8.573 3.033 o
2 2 1 24.314 22.325 1.348 238.283 o
2 2 2 829.055 819.078 7.361 4.374 o
2 2 3 1158.230 1064.670 14.766 2.662 o
2 2 4 274.263 272.867 4.947 17.329 o
2 2 5 38.182 44.801 2.741 126.744 o
2 2 6 44.521 43.773 2.722 116.953 o
2 2 7 790.468 747.515 13.766 4.346 o
2 2 8 948.062 915.212 14.256 3.412 o
2 2 9 111.580 116.166 5.218 41.620 o
2 2 10 10.721 3.708 2.660 416.316 o
2 2 11 48.368 45.530 4.116 95.408 o
2 3 0 164.387 148.103 4.064 31.709 o
2 3 1 403.042 412.466 5.791 10.871 o
2 3 2 908.939 886.468 8.224 3.855 o
2 3 3 1843.460 1780.460 14.908 1.336 o
2 3 4 3078.660 2914.420 21.896 0.583 o
2 3 5 163.336 196.869 5.054 27.748 o
2 3 6 509.264 525.503 9.362 7.685 o
2 3 7 641.140 635.883 10.139 5.854 o
2 3 8 1225.790 1200.300 16.190 2.362 o
2 3 9 686.360 653.468 12.094 5.292 o
2 3 10 165.147 155.469 6.864 27.345 o
2 3 11 57.080 47.719 9.923 42.670 o
2 4 0 913.169 886.680 11.923 3.686 o
2 4 1 3.214 4.671 1.033 1315.180 o
2 4 2 2204.630 2233.410 18.233 0.973 o
2 4 3 3031.640 3022.990 29.050 0.564 o
2 4 4 463.786 480.882 7.715 8.844 o
2 4 5 551.244 517.786 8.827 7.340 o
2 4 6 55.799 51.772 3.643 89.374 o
2 4 7 155.973 173.992 6.467 27.920 o
2 4 8 51.289 49.553 4.487 86.801 o
2 4 9 246.809 264.125 7.301 17.541 o
2 4 10 422.198 444.345 12.996 8.484 o
2 4 11 153.946 140.988 9.475 24.841 o
2 5 0 698.045 641.047 12.000 5.267 o
2 5 1 78.338 83.493 3.188 65.127 o
2 5 2 0.588 -0.007 1.045 4500.390 o
2 5 3 427.689 426.383 8.353 9.720 o
2 5 4 1263.390 1249.890 12.887 2.329 o
2 5 5 792.066 757.407 10.479 4.543 o
2 5 6 620.153 635.521 10.910 5.931 o
2 5 7 372.909 351.604 9.234 11.242 o
2 5 8 0.870 0.078 2.436 1043.670 o
2 5 9 417.576 444.825 11.195 9.028 o
2 5 10 431.740 434.934 11.702 8.763 o
2 6 0 2177.980 2124.380 21.861 0.990 o
2 6 1 857.978 833.326 10.679 4.060 o
2 6 2 318.002 393.493 6.980 12.830 o
2 6 3 6.123 2.200 1.501 896.586 o
2 6 4 399.126 392.164 7.974 10.655 o
2 6 5 842.253 850.646 16.206 3.759 o
2 6 6 1177.340 1132.540 14.255 2.567 o
2 6 7 205.369 209.057 10.674 17.981 o
2 6 8 44.382 42.870 4.093 101.689 o
2 6 9 47.245 47.472 6.373 71.990 o
2 6 10 100.843 104.302 9.890 31.123 o
2 7 0 121.655 125.487 8.673 30.421 o
2 7 1 547.136 608.625 10.983 6.633 o
2 7 2 135.720 143.839 5.216 34.528 o
2 7 3 69.526 67.514 4.142 69.798 o
2 7 4 1.515 3.336 2.147 985.488 o
2 7 5 268.938 254.739 8.643 15.933 o
2 7 6 238.175 242.651 6.910 18.764 o
2 7 7 329.085 370.553 15.311 9.546 o
2 7 8 209.870 204.981 10.442 18.096 o
2 7 9 28.543 7.522 3.726 179.024 o
2 8 0 291.073 306.802 9.897 13.580 o
2 8 1 680.303 683.707 14.563 4.987 o
2 8 2 1016.990 1013.890 15.320 3.031 o
2 8 3 497.110 498.804 9.338 7.993 o
2 8 4 14.218 11.818 2.801 298.528 o
2 8 5 111.741 102.009 8.691 33.181 o
2 8 6 242.141 248.804 9.122 16.812 o
2 8 7 363.294 344.006 14.571 9.518 o
2 9 0 0.067 -3.541 3.113 709.255 o
2 9 1 182.790 166.467 9.067 22.307 o
2 9 2 524.095 502.374 13.329 6.954 o
2 9 3 251.417 250.562 13.466 13.296 o
2 9 4 207.074 201.430 10.690 18.063 o
2 9 5 72.925 100.497 15.616 20.177 o
3 -7 0 100.272 106.771 6.450 41.535 o
3 -7 1 664.554 678.581 15.337 5.005 o
3 -7 2 907.077 933.991 19.019 3.250 o
3 -7 3 162.151 156.147 6.276 28.497 o
3 -7 4 44.592 40.691 7.751 62.482 o
3 -6 0 1.350 1.221 2.602 837.839 o
3 -6 1 190.078 188.814 10.346 19.606 o
3 -6 2 610.142 605.969 20.992 4.764 o
3 -6 3 519.166 578.405 15.139 6.338 o
3 -6 4 231.335 226.697 15.951 12.343 o
3 -6 5 73.968 46.233 10.370 37.500 o
3 -6 6 9.837 -2.170 7.636 105.075 o
3 -5 0 67.107 60.761 4.369 71.889 o
3 -5 1 61.792 58.387 6.488 60.738 o
3 -5 2 10.966 9.569 2.519 377.665 o
3 -5 3 270.003 265.590 10.118 14.757 o
3 -5 4 477.839 450.740 12.733 7.829 o
3 -5 5 245.850 272.746 11.279 14.659 o
3 -5 6 34.214 28.999 3.836 132.142 o
3 -5 7 11.075 7.284 3.448 299.817 o
3 -5 8 64.675 59.977 6.850 56.813 o
3 -4 0 2388.920 2364.790 23.422 0.846 o
3 -4 1 635.494 697.574 10.858 5.603 o
3 -4 2 243.837 235.501 6.723 18.784 o
3 -4 3 1073.080 1068.790 14.528 2.855 o
3 -4 4 1335.690 1316.990 19.706 2.016 o
3 -4 5 674.943 638.025 16.007 4.984 o
3 -4 6 259.327 275.148 9.184 15.564 o
3 -4 7 2.938 0.318 2.460 823.993 o
3 -4 8 58.851 55.223 6.560 62.252 o
3 -4 9 37.804 34.521 4.429 111.053 o
3 -3 0 1224.860 1306.560 16.656 2.261 o
3 -3 1 785.248 755.546 9.993 4.612 o
3 -3 2 161.432 150.906 5.240 30.385 o
3 -3 3 92.334 102.479 3.625 53.505 o
3 -3 4 457.391 469.303 8.810 8.818 o
3 -3 5 462.393 456.333 10.988 8.377 o
3 -3 6 501.752 522.625 10.803 7.542 o
3 -3 7 304.174 307.446 9.281 13.501 o
3 -3 8 45.753 43.323 5.347 85.223 o
3 -3 9 9.836 14.207 3.226 297.006 o
3 -3 10 160.737 151.777 12.409 19.534 o
3 -2 0 2260.730 2279.570 18.455 0.937 o
3 -2 1 1602.970 1582.780 14.960 1.628 o
3 -2 2 405.770 405.781 7.002 10.625 o
3 -2 3 1014.990 1066.230 11.053 3.121 o
3 -2 4 179.115 175.187 6.059 26.083 o
3 -2 5 479.759 484.236 12.289 7.713 o
3 -2 6 857.678 835.249 13.368 3.909 o
3 -2 7 1316.950 1337.580 18.125 2.064 o
3 -2 8 438.894 440.086 15.994 7.513 o
3 -2 9 2.310 -1.996 4.938 264.393 o
3 -2 10 22.539 10.815 6.210 115.357 o
3 -1 0 30.355 38.226 2.183 160.938 o
3 -1 1 1294.430 1250.420 10.551 2.318 o
3 -1 2 3553.350 3463.620 26.094 0.447 o
3 -1 3 418.849 369.835 6.616 10.812 o
3 -1 4 2.064 1.315 1.157 2039.130 o
3 -1 5 189.687 203.133 8.112 21.744 o
3 -1 6 740.331 728.193 15.800 4.450 o
3 -1 7 291.746 288.952 10.555 13.462 o
3 -1 8 101.143 111.600 7.658 37.095 o
3 -1 9 38.674 28.917 7.619 69.696 o
3 -1 10 10.154 10.085 5.136 182.251 o
3 -1 11 0.898 4.544 5.281 228.164 o
3 0 0 82.673 83.396 2.519 65.245 o
3 0 1 1000.840 1050.920 9.801 3.220 o
3 0 2 2010.880 1975.920 13.389 1.168 o
3 0 3 2278.060 2582.000 19.133 0.866 o
3 0 4 1168.480 1137.170 14.732 2.567 o
3 0 5 14.045 11.797 2.043 357.387 o
3 0 6 122.314 139.808 5.425 36.684 o
3 0 7 152.914 163.511 6.143 29.326 o
3 0 8 916.643 889.154 16.339 3.441 o
3 0 9 1292.160 1346.030 21.589 2.009 o
3 0 10 388.950 351.531 18.897 7.631 o
3 0 11 3.092 0.898 4.226 336.565 o
3 1 0 95.084 80.144 2.079 61.105 o
3 1 1 54.343 56.894 2.053 99.911 o
3 1 2 1105.210 1124.440 9.658 2.851 o
3 1 3 2396.150 2458.280 20.448 0.839 o
3 1 4 793.892 784.291 9.486 4.526 o
3 1 5 1726.970 1654.560 26.671 1.340 o
3 1 6 580.326 614.748 12.406 6.133 o
3 1 7 258.475 260.394 7.966 16.676 o
3 1 8 485.407 488.424 12.603 7.561 o
3 1 9 351.859 353.120 9.098 11.743 o
3 1 10 83.675 83.010 5.727 51.930 o
3 1 11 33.755 32.117 4.696 114.216 o
3 2 0 1551.430 1553.980 10.628 1.744 o
3 2 1 151.390 281.897 3.917 25.748 o
3 2 2 2.068 0.838 0.736 2861.230 o
3 2 3 271.903 224.275 3.990 19.091 o
3 2 4 1937.100 1982.680 23.464 1.138 o
3 2 5 1241.300 1184.700 16.002 2.353 o
3 2 6 569.694 557.934 11.332 6.608 o
3 2 7 80.146 106.208 6.444 46.480 o
3 2 8 80.838 79.978 7.918 43.385 o
3 2 9 229.250 232.460 12.099 15.269 o
3 2 10 270.324 289.651 15.243 11.300 o
3 2 11 206.489 168.598 12.910 16.522 o
3 3 0 2554.760 2906.830 19.966 0.717 o
3 3 1 1219.970 1225.550 10.955 2.469 o
3 3 2 394.958 400.649 5.675 11.195 o
3 3 3 0.706 0.395 0.879 4755.640 o
3 3 4 767.388 734.286 9.442 4.796 o
3 3 5 1263.000 1266.280 13.753 2.298 o
3 3 6 517.345 537.609 8.603 7.638 o
3 3 7 133.043 130.869 4.426 37.518 o
3 3 8 187.384 180.201 7.088 23.924 o
3 3 9 12.305 12.572 3.500 262.008 o
3 3 10 547.937 514.417 29.539 3.995 o
3 3 11 474.529 442.538 22.412 5.695 o
3 4 0 483.625 448.895 7.692 8.792 o
3 4 1 3247.420 3171.700 24.693 0.520 o
3 4 2 899.702 856.464 10.396 3.861 o
3 4 3 18.598 24.088 1.817 258.600 o
3 4 4 391.768 410.039 7.520 10.740 o
3 4 5 463.491 503.650 8.306 8.582 o
3 4 6 751.939 711.722 10.908 4.841 o
3 4 7 1284.530 1292.450 18.709 2.129 o
3 4 8 61.313 56.697 4.874 73.249 o
3 4 9 96.435 102.190 5.467 46.276 o
3 4 10 0.980 -1.785 2.663 882.314 o
3 4 11 87.198 85.291 8.071 40.797 o
3 5 0 1495.080 1501.510 16.738 1.762 o
3 5 1 669.825 686.708 10.893 5.406 o
3 5 2 969.102 902.167 11.422 3.491 o
3 5 3 1005.400 1004.170 12.349 3.190 o
3 5 4 598.106 784.550 10.435 5.601 o
3 5 5 5.485 5.942 1.731 736.236 o
3 5 6 550.689 585.049 10.581 6.764 o
3 5 7 850.513 852.059 16.970 3.677 o
3 5 8 1227.930 1219.410 20.581 2.220 o
3 5 9 463.635 455.384 11.157 8.329 o
3 5 10 1.401 6.121 3.574 428.124 o
3 6 0 9.757 11.336 2.134 425.174 o
3 6 1 365.233 381.095 8.496 11.330 o
3 6 2 664.609 663.602 10.272 5.575 o
3 6 3 638.863 720.304 11.556 5.435 o
3 6 4 683.961 629.343 10.475 5.541 o
3 6 5 53.830 45.967 4.533 85.698 o
3 6 6 121.296 130.311 6.411 35.462 o
3 6 7 57.949 60.066 4.644 76.128 o
3 6 8 79.815 85.345 5.719 52.875 o
3 6 9 175.735 173.755 8.066 23.880 o
3 6 10 124.181 108.722 7.720 33.496 o
3 7 0 497.984 473.852 12.237 7.579 o
3 7 1 99.724 98.181 5.470 45.924 o
3 7 2 652.048 698.696 10.465 5.523 o
3 7 3 1796.370 1776.390 19.166 1.335 o
3 7 4 317.638 318.254 8.273 13.414 o
3 7 5 233.300 225.921 7.661 18.899 o
3 7 6 88.804 85.831 8.138 40.157 o
3 7 7 134.416 123.380 7.143 32.370 o
3 7 8 314.788 339.668 10.969 11.999 o
3 7 9 275.931 267.925 11.152 13.881 o
3 8 0 197.990 186.048 7.431 22.511 o
3 8 1 37.584 30.861 4.109 119.416 o
3 8 2 1.363 1.322 2.821 728.391 o
3 8 3 8.440 10.893 2.468 415.891 o
3 8 4 381.414 384.954 8.935 10.812 o
3 8 5 343.962 331.577 9.210 12.146 o
3 8 6 160.973 154.993 6.814 27.876 o
3 8 7 64.540 79.241 7.010 52.457 o
3 9 0 341.786 350.052 14.775 9.725 o
3 9 1 212.182 205.792 11.752 16.706 o
3 9 2 33.166 26.174 5.740 100.743 o
3 9 3 23.790 22.404 5.242 127.293 o
3 9 4 228.561 199.561 15.201 13.291 o
3 9 5 501.500 460.273 13.890 7.269 o
4 -7 0 222.802 229.995 17.238 11.602 o
4 -7 1 1.445 -11.043 3.639 482.172 o
4 -7 2 17.423 18.392 5.453 138.084 o
4 -6 0 312.926 319.127 9.478 12.995 o
4 -6 1 368.267 395.740 12.594 9.751 o
4 -6 2 70.674 68.160 7.520 49.488 o
4 -6 3 15.858 12.946 2.828 276.448 o
4 -6 4 117.854 97.993 16.965 16.289 o
4 -6 5 199.247 194.211 12.243 16.982 o
4 -5 0 776.201 778.712 15.236 4.227 o
4 -5 1 1168.100 1136.720 34.370 1.891 o
4 -5 2 494.819 493.542 10.202 7.898 o
4 -5 3 185.520 208.644 7.234 22.810 o
4 -5 4 19.282 15.777 2.933 235.552 o
4 -5 5 567.348 552.885 12.418 6.491 o
4 -5 6 286.958 276.333 11.541 13.212 o
4 -5 7 100.228 94.433 8.745 35.283 o
4 -4 0 136.025 130.206 5.711 34.617 o
4 -4 1 338.019 336.127 7.588 12.856 o
4 -4 2 743.243 811.727 13.525 4.434 o
4 -4 3 40.118 34.291 3.679 119.349 o
4 -4 4 2.859 2.465 2.318 816.790 o
4 -4 5 11.374 3.748 2.482 426.540 o
4 -4 6 141.198 146.007 6.907 30.488 o
4 -4 7 328.817 343.634 12.092 11.146 o
4 -4 8 296.071 304.233 16.093 10.252 o
4 -3 0 193.404 177.731 5.404 25.364 o
4 -3 1 562.195 590.313 9.796 6.738 o
4 -3 2 936.687 932.678 11.733 3.534 o
4 -3 3 1611.970 1599.220 16.162 1.597 o
4 -3 4 631.790 652.124 10.613 5.815 o
4 -3 5 70.572 72.455 5.910 57.726 o
4 -3 6 33.667 36.035 3.886 125.568 o
4 -3 7 488.932 484.310 12.281 7.612 o
4 -3 8 692.388 683.278 21.516 4.176 o
4 -3 9 231.300 225.406 16.045 12.292 o
4 -2 0 74.566 122.106 5.328 50.236 o
4 -2 1 170.344 189.140 4.489 28.017 o
4 -2 2 272.098 271.434 5.916 17.011 o
4 -2 3 631.185 606.146 8.533 6.206 o
4 -2 4 1118.020 1074.720 11.198 2.842 o
4 -2 5 688.104 693.680 11.334 5.228 o
4 -2 6 0.784 -2.456 2.226 1245.690 o
4 -2 7 19.193 15.983 3.992 188.366 o
4 -2 8 25.478 22.050 4.638 139.600 o
4 -2 9 219.990 228.543 12.357 15.442 o
4 -2 10 336.082 374.219 20.679 7.452 o
4 -1 0 2154.330 2099.180 19.900 1.019 o
4 -1 1 1260.970 1286.120 12.780 2.304 o
4 -1 2 10.503 11.271 1.747 451.714 o
4 -1 3 1336.600 1346.140 13.927 2.114 o
4 -1 4 1063.660 1070.380 11.870 2.962 o
4 -1 5 220.468 225.739 9.215 18.244 o
4 -1 6 527.950 520.781 14.282 6.659 o
4 -1 7 35.841 22.600 4.661 119.020 o
4 -1 8 307.844 307.235 14.106 10.992 o
4 -1 9 124.690 119.686 10.420 26.512 o
4 0 0 2024.290 1960.370 16.442 1.147 o
4 0 1 589.329 589.787 7.398 6.758 o
4 0 2 111.582 108.270 3.328 47.202 o
4 0 3 2.991 4.224 0.989 1431.120 o
4 0 4 599.037 595.238 11.142 6.226 o
4 0 5 1182.910 1213.580 23.318 2.208 o
4 0 6 893.256 890.106 15.981 3.534 o
4 0 7 611.444 600.996 13.245 5.839 o
4 0 8 26.879 22.552 3.856 156.528 o
4 0 9 241.532 241.000 9.065 17.048 o
4 0 10 367.933 344.696 16.309 8.797 o
4 0 11 143.478 148.872 25.646 8.224 o
4 1 0 1501.480 1508.470 11.889 1.815 o
4 1 1 581.464 524.008 6.771 7.230 o
4 1 2 68.174 81.647 2.741 73.415 o
4 1 3 194.294 245.085 5.439 22.521 o
4 1 4 28.373 30.673 3.471 151.266 o
4 1 5 777.623 791.602 11.531 4.462 o
4 1 6 737.872 738.024 11.473 4.803 o
4 1 7 400.600 406.581 13.816 8.787 o
4 1 8 260.197 259.700 10.807 14.728 o
4 1 9 124.837 120.742 7.635 32.760 o
4 1 10 1.859 -0.052 3.519 501.254 o
4 1 11 212.744 203.777 8.863 19.541 o
4 2 0 39.732 28.808 1.920 151.688 o
4 2 1 2428.220 2515.210 16.715 0.832 o
4 2 2 9866.530 12124.400 57.741 0.061 o
4 2 3 1871.600 1919.950 14.898 1.267 o
4 2 4 1.604 2.399 0.964 2271.770 o
4 2 5 160.177 144.051 4.222 32.380 o
4 2 6 843.945 894.711 15.162 3.742 o
4 2 7 988.313 1017.160 17.986 2.982 o
4 2 8 528.161 537.524 15.990 6.275 o
4 2 9 70.865 84.369 7.110 49.158 o
4 2 10 12.232 7.189 3.871 255.957 o
4 2 11 1.001 3.041 5.623 206.127 o
4 3 0 244.940 263.580 4.272 19.376 o
4 3 1 711.296 723.524 7.850 5.257 o
4 3 2 197.592 171.517 4.526 26.099 o
4 3 3 580.707 586.101 7.732 6.824 o
4 3 4 532.123 486.321 7.921 7.864 o
4 3 5 62.233 69.742 3.396 78.302 o
4 3 6 1.272 0.500 1.326 2377.560 o
4 3 7 57.352 61.343 5.837 66.889 o
4 3 8 417.549 431.400 14.607 8.177 o
4 3 9 412.671 398.745 11.017 9.507 o
4 3 10 48.170 42.664 9.828 45.828 o
4 3 11 10.360 11.855 4.467 213.823 o
4 4 0 170.062 205.029 4.588 27.109 o
4 4 1 117.731 116.091 3.491 44.182 o
4 4 2 385.904 391.015 6.529 11.311 o
4 4 3 582.718 585.237 8.482 6.728 o
4 4 4 920.517 883.764 10.127 3.743 o
4 4 5 1243.050 1183.400 14.091 2.398 o
4 4 6 51.546 84.781 4.269 74.846 o
4 4 7 265.574 276.996 8.099 15.965 o
4 4 8 412.765 410.996 9.351 9.863 o
4 4 9 775.447 792.710 17.746 3.999 o
4 4 10 343.829 333.400 12.067 10.957 o
4 5 0 539.952 552.524 9.071 7.242 o
4 5 1 303.354 297.244 6.042 15.166 o
4 5 2 18.486 20.041 2.050 266.091 o
4 5 3 1135.450 1144.690 12.666 2.685 o
4 5 4 1490.580 1475.030 15.287 1.804 o
4 5 5 351.362 384.674 8.159 11.711 o
4 5 6 278.190 256.321 7.809 16.046 o
4 5 7 7.159 3.344 2.286 580.550 o
4 5 8 118.803 125.439 7.509 33.587 o
4 5 9 46.035 45.392 4.801 90.210 o
4 5 10 145.740 133.420 9.887 25.119 o
4 6 0 887.708 866.517 13.918 3.709 o
4 6 1 366.006 338.748 8.237 11.881 o
4 6 2 33.144 33.075 2.965 146.612 o
4 6 3 10.713 12.681 2.193 389.161 o
4 6 4 330.877 334.994 6.913 13.317 o
4 6 5 701.043 699.038 18.122 4.470 o
4 6 6 437.863 435.740 14.686 7.893 o
4 6 7 272.220 257.095 8.499 15.851 o
4 6 8 138.663 132.242 7.505 30.487 o
4 6 9 1.454 -7.475 3.433 536.188 o
4 7 0 800.987 797.882 17.970 3.876 o
4 7 1 1279.870 1276.180 19.342 2.132 o
4 7 2 501.902 492.280 11.812 7.520 o
4 7 3 172.144 211.166 5.691 25.478 o
4 7 4 3.384 -0.168 1.926 1103.810 o
4 7 5 285.410 281.719 7.532 15.432 o
4 7 6 453.604 453.154 12.106 8.252 o
4 7 7 608.286 598.642 17.954 5.219 o
4 7 8 96.520 89.033 7.414 40.935 o
4 8 0 95.454 85.979 10.299 31.744 o
4 8 1 105.300 108.619 9.451 31.510 o
4 8 2 252.654 295.506 11.826 13.732 o
4 8 3 40.956 42.407 5.182 91.981 o
4 8 4 22.822 18.683 2.783 213.618 o
4 8 5 3.300 4.932 2.438 671.130 o
4 8 6 156.604 148.453 9.227 24.727 o
4 8 7 138.873 138.487 10.188 24.929 o
4 9 0 1.380 -2.151 4.595 311.828 o
4 9 1 204.190 216.900 12.055 16.515 o
4 9 2 434.689 400.027 14.153 8.287 o
4 9 3 571.495 545.658 17.054 5.748 o
4 9 4 253.460 250.424 13.390 13.295 o
4 9 5 1.771 4.156 4.738 272.491 o
5 -6 0 0.939 0.371 3.623 494.327 o
5 -6 1 98.947 101.375 9.072 33.943 o
5 -6 2 501.183 508.125 12.802 7.251 o
5 -6 3 629.860 571.845 25.009 4.215 o
5 -5 0 170.793 160.915 7.456 25.681 o
5 -5 1 0.349 -0.445 3.577 529.165 o
5 -5 2 165.023 162.273 10.068 22.287 o
5 -5 3 488.115 488.276 11.279 7.802 o
5 -5 4 360.685 379.611 10.691 10.700 o
5 -5 5 136.137 127.650 9.692 26.587 o
5 -4 0 389.956 369.335 11.859 9.860 o
5 -4 1 78.789 77.712 5.136 57.459 o
5 -4 2 75.157 71.289 5.732 57.114 o
5 -4 3 5.269 5.705 2.103 654.240 o
5 -4 4 173.292 171.607 6.426 26.351 o
5 -4 5 236.560 243.057 12.237 14.738 o
5 -4 6 128.857 136.444 8.506 29.319 o
5 -4 7 15.793 10.033 8.602 76.919 o
5 -3 0 392.150 400.517 9.196 10.373 o
5 -3 1 1348.660 1292.200 17.358 2.068 o
5 -3 2 267.205 337.649 9.427 14.087 o
5 -3 3 175.311 185.792 6.062 25.939 o
5 -3 4 717.780 711.907 13.130 4.844 o
5 -3 5 901.377 888.748 15.359 3.545 o
5 -3 6 416.068 414.411 11.952 9.066 o
5 -3 7 130.177 120.507 11.172 24.490 o
5 -3 8 0.358 -8.839 4.203 385.204 o
5 -2 0 798.907 789.662 11.881 4.344 o
5 -2 1 789.017 829.058 11.165 4.344 o
5 -2 2 433.344 416.364 8.134 9.758 o
5 -2 3 60.182 60.897 3.527 82.442 o
5 -2 4 87.560 93.959 4.859 52.409 o
5 -2 5 348.378 378.615 14.336 9.571 o
5 -2 6 311.894 272.032 11.871 12.437 o
5 -2 7 279.479 289.034 13.838 11.911 o
5 -2 8 115.185 99.318 10.388 28.497 o
5 -2 9 13.108 9.220 6.242 131.794 o
5 -1 0 1062.690 1172.930 12.528 2.820 o
5 -1 1 1433.140 1432.430 16.092 1.886 o
5 -1 2 984.933 954.700 11.039 3.372 o
5 -1 3 244.315 242.679 6.189 18.922 o
5 -1 4 395.298 375.762 7.193 11.107 o
5 -1 5 32.108 26.416 4.942 116.479 o
5 -1 6 276.188 276.114 15.414 11.222 o
5 -1 7 448.590 451.887 18.398 6.760 o
5 -1 8 774.304 752.251 22.445 3.672 o
5 -1 9 227.385 211.292 18.873 10.634 o
5 0 0 5.063 7.806 1.553 751.899 o
5 0 1 96.851 107.676 4.171 49.508 o
5 0 2 797.386 748.137 8.819 4.637 o
5 0 3 1472.940 1439.810 13.726 1.868 o
5 0 4 211.399 196.440 4.730 23.630 o
5 0 5 0.827 0.646 2.517 959.252 o
5 0 6 143.136 146.340 7.075 29.924 o
5 0 7 424.476 443.289 12.327 8.641 o
5 0 8 167.429 157.984 9.263 23.445 o
5 0 9 49.355 34.334 9.540 48.389 o
5 0 10 8.267 5.140 6.784 127.396 o
5 1 0 202.104 182.863 4.547 25.138 o
5 1 1 54.050 53.770 3.045 95.037 o
5 1 2 619.378 653.026 8.034 6.156 o
5 1 3 1074.720 1091.370 11.040 2.932 o
5 1 4 1026.510 1207.630 12.450 2.867 o
5 1 5 533.326 522.062 10.227 7.301 o
5 1 6 2.159 4.146 2.393 774.511 o
5 1 7 123.430 137.534 7.046 33.132 o
5 1 8 127.128 134.691 6.810 33.326 o
5 1 9 468.835 458.504 11.237 8.225 o
5 1 10 624.538 635.251 16.398 5.229 o
5 2 0 1143.360 1120.850 11.321 2.728 o
5 2 1 51.657 51.161 2.830 100.969 o
5 2 2 50.301 53.264 3.036 99.577 o
5 2 3 735.125 739.662 9.470 4.959 o
5 2 4 1300.210 1367.680 12.895 2.171 o
5 2 5 457.320 452.161 8.087 9.088 o
5 2 6 632.446 610.470 10.392 5.989 o
5 2 7 181.213 187.960 6.935 24.291 o
5 2 8 143.324 136.523 7.499 29.686 o
5 2 9 277.846 268.898 11.588 13.541 o
5 2 10 186.538 208.829 12.189 17.262 o
5 3 0 843.071 823.692 9.627 4.197 o
5 3 1 617.692 580.722 8.181 6.463 o
5 3 2 34.218 127.299 4.485 70.900 o
5 3 3 6.396 8.323 1.356 703.197 o
5 3 4 199.690 197.350 5.266 24.104 o
5 3 5 904.902 918.765 11.551 3.675 o
5 3 6 606.739 592.159 11.953 6.074 o
5 3 7 263.009 255.262 10.199 15.120 o
5 3 8 27.097 33.219 4.286 132.881 o
5 3 9 55.963 49.115 6.087 68.990 o
5 3 10 150.478 157.537 12.799 19.373 o
5 4 0 981.166 974.802 9.951 3.390 o
5 4 1 1281.750 1423.510 12.872 2.157 o
5 4 2 524.012 551.414 7.600 7.619 o
5 4 3 120.888 124.786 4.473 40.431 o
5 4 4 10.392 6.928 1.861 494.782 o
5 4 5 391.616 395.916 8.356 10.665 o
5 4 6 621.317 631.327 13.340 5.651 o
5 4 7 287.735 319.171 7.880 14.514 o
5 4 8 48.075 40.782 5.241 85.513 o
5 4 9 56.518 30.119 4.761 88.008 o
5 4 10 2.653 5.352 5.425 206.484 o
5 5 0 39.984 34.711 3.070 128.334 o
5 5 1 296.734 292.706 6.232 15.417 o
5 5 2 1383.920 1372.020 13.086 2.040 o
5 5 3 416.900 425.280 8.226 9.946 o
5 5 4 9.511 10.440 1.988 457.023 o
5 5 5 283.967 272.475 7.743 15.547 o
5 5 6 319.523 325.307 9.357 12.788 o
5 5 7 358.100 349.877 8.094 11.985 o
5 5 8 534.185 523.861 10.891 7.176 o
5 5 9 12.764 11.704 3.093 291.420 o
5 6 0 209.931 217.491 8.194 19.958 o
5 6 1 800.257 808.960 14.246 4.135 o
5 6 2 487.786 482.376 10.206 8.051 o
5 6 3 480.256 469.302 9.601 8.347 o
5 6 4 437.966 428.192 10.589 9.006 o
5 6 5 225.831 303.358 10.388 15.454 o
5 6 6 12.120 7.523 3.214 308.792 o
5 6 7 299.851 286.165 8.758 14.221 o
5 6 8 459.186 454.899 12.288 8.128 o
5 6 9 617.016 602.439 14.856 5.582 o
5 7 0 25.960 23.221 3.079 180.437 o
5 7 1 26.531 27.708 3.631 156.316 o
5 7 2 274.562 276.670 8.936 15.137 o
5 7 3 364.342 360.217 8.500 11.582 o
5 7 4 271.922 315.864 8.551 14.763 o
5 7 5 279.443 269.040 9.438 14.800 o
5 7 6 12.994 9.341 3.148 296.219 o
5 7 7 68.392 65.545 7.271 51.972 o
5 7 8 34.616 29.239 4.968 110.254 o
5 8 0 390.555 380.009 11.266 9.954 o
5 8 1 214.191 199.104 8.830 19.622 o
5 8 2 42.630 31.342 4.758 101.870 o
5 8 3 365.850 369.859 11.248 10.496 o
5 8 4 914.338 886.273 15.132 3.519 o
5 8 5 180.526 187.048 10.377 20.148 o
5 8 6 100.828 87.901 7.325 40.475 o
5 9 1 91.732 100.970 14.107 22.014 o
5 9 2 25.670 25.405 4.369 142.375 o
5 9 3 6.798 -6.478 5.269 210.005 o
6 -5 0 370.826 361.596 12.111 10.169 o
6 -5 1 212.513 212.577 9.018 19.165 o
6 -5 2 182.115 161.869 9.757 21.599 o
6 -4 0 88.933 93.760 6.007 47.519 o
6 -4 1 524.559 511.800 15.030 6.588 o
6 -4 2 719.505 686.722 19.615 4.261 o
6 -4 3 256.702 256.967 7.958 16.830 o
6 -4 4 90.151 100.851 5.528 47.993 o
6 -4 5 16.091 7.733 3.818 232.271 o
6 -3 0 47.629 51.768 4.120 92.902 o
6 -3 1 91.806 90.615 8.245 38.722 o
6 -3 2 206.575 208.284 7.599 21.009 o
6 -3 3 426.600 447.632 9.051 9.401 o
6 -3 4 16.433 10.660 2.539 300.325 o
6 -3 5 1.751 -5.450 2.570 871.663 o
6 -3 6 0.784 -8.955 4.314 359.802 o
6 -2 0 94.835 94.788 4.056 52.628 o
6 -2 1 147.480 144.100 5.889 31.622 o
6 -2 2 389.266 425.144 10.062 9.953 o
6 -2 3 574.698 562.327 10.749 6.625 o
6 -2 4 825.428 812.994 11.846 4.176 o
6 -2 5 296.803 294.652 10.963 13.020 o
6 -2 6 20.478 12.647 6.366 113.306 o
6 -2 7 30.662 32.536 9.735 52.764 o
6 -2 8 280.711 271.773 15.848 10.936 o
6 -1 0 633.610 608.429 9.402 6.092 o
6 -1 1 17.651 64.008 3.638 134.032 o
6 -1 2 153.228 159.094 5.645 30.308 o
6 -1 3 228.878 232.850 6.268 20.014 o
6 -1 4 346.092 348.947 9.087 11.931 o
6 -1 5 513.299 500.261 13.157 7.101 o
6 -1 6 331.150 329.982 12.148 11.215 o
6 -1 7 0.681 -4.681 3.984 421.563 o
6 -1 8 14.906 8.286 8.297 82.920 o
6 0 0 250.257 284.901 6.399 17.445 o
6 0 1 863.906 856.394 11.309 3.957 o
6 0 2 459.576 459.721 8.188 8.977 o
6 0 3 13.812 14.361 2.021 344.630 o
6 0 4 691.586 700.264 10.070 5.295 o
6 0 5 587.312 599.485 14.967 5.778 o
6 0 6 118.553 143.895 8.578 29.916 o
6 0 7 187.275 177.305 9.096 21.605 o
6 0 8 1.899 1.319 4.657 292.467 o
6 0 9 170.594 162.968 11.616 19.787 o
6 1 0 1323.090 1330.600 14.270 2.140 o
6 1 1 991.265 973.468 12.079 3.285 o
6 1 2 325.772 322.305 6.851 13.681 o
6 1 3 48.993 43.229 2.982 108.058 o
6 1 4 16.964 15.735 2.259 287.596 o
6 1 5 350.151 351.478 9.187 11.769 o
6 1 6 598.842 597.162 12.978 5.981 o
6 1 7 438.224 450.088 11.743 8.560 o
6 1 8 247.578 234.750 9.776 16.385 o
6 1 9 4.337 1.258 3.637 407.028 o
6 2 0 446.655 441.279 8.183 9.321 o
6 2 1 810.050 821.253 10.003 4.332 o
6 2 2 304.571 304.038 6.398 14.855 o
6 2 3 23.433 21.102 2.126 226.282 o
6 2 4 23.772 65.138 3.685 120.798 o
6 2 5 1.050 3.351 1.927 1198.300 o
6 2 6 354.128 355.417 9.682 11.452 o
6 2 7 306.218 310.772 8.653 13.692 o
6 2 8 184.800 188.404 7.233 23.634 o
6 2 9 110.407 112.427 12.784 23.064 o
6 3 0 46.069 64.834 3.468 94.055 o
6 3 1 82.269 79.518 3.694 62.126 o
6 3 2 1157.560 1182.990 12.963 2.590 o
6 3 3 3554.570 4264.760 37.309 0.380 o
6 3 4 760.899 766.187 10.118 4.702 o
6 3 5 0.823 -1.318 1.674 2019.210 o
6 3 6 103.025 123.952 7.904 35.045 o
6 3 7 479.862 484.817 12.060 7.757 o
6 3 8 478.630 430.077 21.867 5.824 o
6 3 9 224.512 225.242 12.378 15.325 o
6 4 0 169.466 166.236 5.176 28.609 o
6 4 1 125.778 134.678 5.263 36.865 o
6 4 2 329.730 330.219 6.805 13.459 o
6 4 3 176.654 186.272 5.527 26.403 o
6 4 4 294.746 318.399 7.535 14.454 o
6 4 5 184.933 171.131 6.204 25.561 o
6 4 6 11.629 8.011 2.094 425.362 o
6 4 7 3.520 1.305 2.664 674.624 o
6 4 8 38.758 32.239 5.234 98.913 o
6 4 9 166.348 166.998 12.999 18.128 o
6 5 0 574.199 552.933 16.798 5.747 o
6 5 1 46.570 91.226 3.903 78.627 o
6 5 2 71.673 80.322 4.025 65.692 o
6 5 3 237.099 250.416 6.243 19.068 o
6 5 4 326.306 328.549 7.177 13.450 o
6 5 5 384.190 376.118 10.474 10.360 o
6 5 6 424.488 402.458 14.062 8.426 o
6 5 7 8.758 16.256 2.887 326.703 o
6 5 8 125.249 121.654 6.468 35.391 o
6 5 9 214.635 195.156 11.124 17.432 o
6 6 0 223.560 246.561 8.124 18.499 o
6 6 1 234.500 247.741 7.194 18.620 o
6 6 2 72.420 70.363 4.380 66.043 o
6 6 3 31.699 29.156 2.693 161.072 o
6 6 4 537.811 528.724 9.063 7.393 o
6 6 5 624.743 630.141 13.768 5.579 o
6 6 6 176.358 186.199 8.166 23.223 o
6 6 7 110.901 97.593 6.933 38.796 o
6 6 8 0.221 0.776 3.505 542.033 o
6 7 0 344.952 324.623 9.368 12.144 o
6 7 1 386.240 369.021 10.621 10.339 o
6 7 2 135.326 134.598 6.838 32.122 o
6 7 3 8.301 3.093 2.413 520.757 o
6 7 4 20.237 19.247 2.868 222.599 o
6 7 5 189.243 170.170 8.306 22.689 o
6 7 6 309.173 298.430 13.617 11.297 o
6 7 7 191.489 170.222 9.771 20.736 o
6 8 0 98.358 91.852 10.317 30.974 o
6 8 1 441.642 413.513 25.606 5.289 o
6 8 2 616.825 614.860 20.045 4.839 o
6 8 3 248.612 243.325 12.588 14.097 o
6 8 4 81.779 97.679 7.123 44.401 o
6 8 5 10.144 -3.452 2.459 503.599 o
7 -3 0 323.514 308.995 12.291 11.533 o
7 -3 1 171.574 168.830 7.818 24.758 o
7 -3 2 68.846 70.754 6.172 57.235 o
7 -3 3 59.353 56.196 8.219 50.686 o
7 -3 4 5.825 7.637 3.140 402.851 o
7 -2 0 346.710 339.634 8.146 12.378 o
7 -2 1 259.710 251.332 7.440 17.155 o
7 -2 2 606.796 593.259 11.418 6.137 o
7 -2 3 84.449 123.347 7.425 39.860 o
7 -2 4 113.369 112.716 6.319 38.649 o
7 -2 5 392.675 401.383 15.241 8.478 o
7 -2 6 478.418 442.446 18.962 6.425 o
7 -1 0 158.823 164.298 6.112 28.655 o
7 -1 1 378.962 370.398 8.809 11.051 o
7 -1 2 359.129 392.266 10.267 10.754 o
7 -1 3 186.200 171.600 6.159 25.477 o
7 -1 4 14.950 16.609 3.100 252.923 o
7 -1 5 67.100 47.319 7.509 54.038 o
7 -1 6 190.923 210.335 14.271 15.008 o
7 -1 7 163.858 149.885 11.629 20.504 o
7 0 0 69.462 71.256 4.527 66.542 o
7 0 1 573.481 604.265 10.237 6.517 o
7 0 2 721.894 724.820 11.228 4.947 o
7 0 3 472.954 477.840 9.257 8.453 o
7 0 4 134.059 129.578 5.067 36.255 o
7 0 5 133.591 118.922 9.180 28.322 o
7 0 6 2.977 4.276 5.089 232.150 o
7 0 7 122.283 112.679 12.715 22.401 o
7 1 0 86.219 122.438 5.460 46.326 o
7 1 1 12.869 15.194 2.640 306.671 o
7 1 2 110.162 110.308 4.843 43.617 o
7 1 3 383.851 372.784 8.031 11.156 o
7 1 4 526.993 512.902 10.066 7.444 o
7 1 5 67.938 74.950 5.545 60.415 o
7 1 6 2.226 -4.091 4.497 315.419 o
7 1 7 85.826 61.215 7.614 45.808 o
7 1 8 196.725 196.220 10.743 18.629 o
7 2 0 224.701 228.110 5.968 20.632 o
7 2 1 46.291 37.835 2.905 116.827 o
7 2 2 41.248 47.719 4.477 97.764 o
7 2 3 323.540 349.261 7.645 13.055 o
7 2 4 482.870 498.434 8.662 8.293 o
7 2 5 393.462 463.504 8.030 10.070 o
7 2 6 195.969 186.136 7.650 22.410 o
7 2 7 0.144 1.622 3.096 670.427 o
7 2 8 80.267 81.988 7.805 43.772 o
7 3 0 472.090 452.457 8.567 8.774 o
7 3 1 425.219 419.340 7.965 9.912 o
7 3 2 10.017 13.310 2.452 370.155 o
7 3 3 33.831 32.081 4.149 124.035 o
7 3 4 372.882 386.450 7.429 11.419 o
7 3 5 667.458 646.941 9.529 5.681 o
7 3 6 212.113 205.465 9.704 18.704 o
7 3 7 196.271 180.900 9.255 20.737 o
7 3 8 45.166 39.031 6.550 74.142 o
7 4 0 667.824 673.071 9.934 5.551 o
7 4 1 414.207 414.662 8.279 10.078 o
7 4 2 246.997 226.105 7.145 18.569 o
7 4 3 2.528 44.411 4.118 192.975 o
7 4 4 13.768 13.644 2.896 287.351 o
7 4 5 96.857 105.968 5.648 45.063 o
7 4 6 362.550 375.090 8.542 11.441 o
7 4 7 239.169 239.394 12.307 14.660 o
7 4 8 94.133 79.019 14.143 22.467 o
7 5 0 196.444 199.411 8.397 21.113 o
7 5 1 502.408 510.041 9.106 7.899 o
7 5 2 567.385 609.523 10.141 6.560 o
7 5 3 196.423 207.534 5.843 23.433 o
7 5 4 26.381 25.711 3.667 158.614 o
7 5 5 13.714 3.834 3.903 255.014 o
7 5 6 159.866 153.139 6.858 28.023 o
7 5 7 244.559 225.459 8.072 18.023 o
7 6 0 5.012 4.905 3.407 400.521 o
7 6 1 26.927 24.914 3.470 163.438 o
7 6 2 125.920 136.185 6.290 34.529 o
7 6 3 491.126 501.037 12.691 7.414 o
7 6 4 154.640 161.118 6.839 28.186 o
7 6 5 8.847 4.655 3.192 370.497 o
7 6 6 175.343 170.543 7.658 24.588 o
7 7 0 42.400 44.525 6.818 71.404 o
7 7 1 102.999 82.890 7.331 40.526 o
7 7 2 375.950 364.321 11.676 10.209 o
7 7 3 254.111 236.859 8.101 17.290 o
7 7 4 197.947 194.182 7.208 22.461 o
7 7 5 165.409 138.676 8.025 26.337 o
8 -2 0 14.561 -0.159 7.372 105.663 o
8 -2 1 43.055 47.084 4.396 97.109 o
8 -1 0 208.370 190.663 8.658 20.373 o
8 -1 1 28.681 26.537 3.802 147.943 o
8 -1 2 86.102 77.180 6.047 50.656 o
8 -1 3 215.076 215.295 9.207 18.782 o
8 -1 4 280.384 269.298 9.659 14.632 o
8 0 0 346.663 344.716 9.225 11.916 o
8 0 1 258.486 246.893 9.133 16.173 o
8 0 2 1.853 21.218 3.091 363.798 o
8 0 3 109.070 106.776 6.155 40.566 o
8 0 4 142.938 135.804 7.808 29.178 o
8 0 5 143.882 145.560 9.655 25.180 o
8 1 0 287.817 266.617 7.448 15.670 o
8 1 1 127.900 140.471 6.222 34.041 o
8 1 2 297.137 295.325 8.572 14.255 o
8 1 3 148.523 137.892 6.499 30.824 o
8 1 4 11.155 7.489 3.289 312.450 o
8 1 5 303.524 319.314 12.494 11.759 o
8 1 6 251.293 243.834 11.399 14.871 o
8 2 0 100.058 103.800 5.487 45.050 o
8 2 1 525.093 520.516 11.636 7.161 o
8 2 2 396.987 399.142 8.917 10.374 o
8 2 3 142.037 142.226 7.048 30.354 o
8 2 4 18.757 7.553 2.880 271.546 o
8 2 5 16.140 11.152 2.232 321.338 o
8 2 6 168.653 172.453 9.675 22.252 o
8 3 0 127.768 116.031 7.907 32.038 o
8 3 1 231.245 239.492 10.970 15.991 o
8 3 2 359.212 371.086 8.952 11.424 o
8 3 3 102.379 111.100 6.121 41.636 o
8 3 4 24.187 13.486 2.665 224.741 o
8 3 5 0.182 11.807 3.124 481.413 o
8 3 6 4.914 -0.016 3.606 413.385 o
8 4 0 80.556 81.467 10.865 32.133 o
8 4 1 34.113 28.266 3.416 141.379 o
8 4 2 67.389 75.347 6.171 56.915 o
8 4 3 528.929 534.943 12.309 6.936 o
8 4 4 1313.160 1474.310 30.009 1.698 o
8 4 5 291.322 256.230 10.047 14.258 o
8 4 6 0.263 -3.922 2.027 1604.130 o
8 5 0 93.108 84.246 10.921 30.288 o
8 5 1 32.506 25.344 4.433 126.939 o
8 5 2 61.131 70.063 5.278 66.573 o
8 5 3 132.110 144.612 7.319 30.910 o
8 5 4 78.548 93.420 6.577 48.124 o
8 5 5 104.968 109.902 7.006 38.535 o
8 6 0 257.043 233.892 14.223 12.847 o
8 6 1 219.413 203.452 16.311 12.617 o
8 6 2 10.637 21.076 4.028 213.700 o
8 6 3 37.488 53.253 7.058 69.339 o
;
_olex2_submission_special_instructions 'No special instructions were received'
loop_
_space_group_symop_id
_space_group_symop_operation_xyz
1 x,y,z
2 -x,-y,-z
loop_
_atom_site_label
_atom_site_type_symbol
_atom_site_fract_x
_atom_site_fract_y
_atom_site_fract_z
_atom_site_U_iso_or_equiv
_atom_site_adp_type
_atom_site_occupancy
_atom_site_refinement_flags_posn
Br1 Br 0.75488(4) 0.41693(4) 0.58716(3) 0.01861(10) Uani 1.000000 .
F1 F 0.9691(3) 0.2967(2) 0.29190(18) 0.0213(3) Uani 1.000000 .
F2 F 1.1667(3) -0.0435(2) 0.22007(17) 0.0213(4) Uani 1.000000 .
N1 N 0.5226(4) 0.8072(3) 0.6435(3) 0.0186(5) Uani 1.000000 .
C1 C 0.8961(4) 0.1788(4) 0.5375(3) 0.0163(5) Uani 1.000000 .
C2 C 0.9832(4) 0.1515(4) 0.3960(3) 0.0166(5) Uani 1.000000 .
C3 C 1.0849(4) -0.0233(4) 0.3593(3) 0.0160(5) Uani 1.000000 .
C4 C 0.4645(5) 0.7781(4) 0.7868(3) 0.0224(6) Uani 1.000000 .
H4 H 0.4994(5) 0.6540(4) 0.8326(3) 0.0268(7) Uiso 1.000000 R
C5 C 0.3571(5) 0.9170(4) 0.8727(3) 0.0228(6) Uani 1.000000 .
H5 H 0.3206(5) 0.8877(4) 0.9742(3) 0.0274(7) Uiso 1.000000 R
C6 C 0.3030(4) 1.1005(4) 0.8085(3) 0.0193(5) Uani 1.000000 .
C7 C 0.3619(4) 1.1329(4) 0.6597(3) 0.0181(5) Uani 1.000000 .
H7 H 0.3295(4) 1.2561(4) 0.6118(3) 0.0217(6) Uiso 1.000000 R
C8 C 0.4693(4) 0.9838(4) 0.5803(3) 0.0150(5) Uani 1.000000 .
C9 C 0.1858(5) 1.2582(5) 0.8955(3) 0.0290(7) Uani 1.000000 .
H9a H 0.249(2) 1.3643(14) 0.874(2) 0.0435(10) Uiso 1.000000 GR
H9b H 0.0470(12) 1.297(2) 0.868(2) 0.0435(10) Uiso 1.000000 GR
H9c H 0.185(3) 1.2163(12) 1.0008(4) 0.0435(10) Uiso 1.000000 GR
loop_
_atom_site_aniso_label
_atom_site_aniso_U_11
_atom_site_aniso_U_22
_atom_site_aniso_U_33
_atom_site_aniso_U_12
_atom_site_aniso_U_13
_atom_site_aniso_U_23
Br1 0.01813(15) 0.01475(14) 0.02218(15) -0.00202(10) -0.00070(10) -0.00396(10)
F1 0.0274(9) 0.0159(8) 0.0189(8) -0.0045(7) -0.0024(7) 0.0042(6)
F2 0.0249(8) 0.0226(8) 0.0147(8) -0.0038(7) 0.0028(6) -0.0032(6)
N1 0.0198(11) 0.0183(11) 0.0176(11) -0.0043(9) -0.0010(9) -0.0021(9)
C1 0.0133(12) 0.0147(12) 0.0213(13) -0.0030(9) -0.0022(10) -0.0041(10)
C2 0.0167(12) 0.0180(13) 0.0166(12) -0.0077(10) -0.0044(10) 0.0030(10)
C3 0.0138(12) 0.0202(13) 0.0146(12) -0.0056(10) 0.0006(10) -0.0030(10)
C4 0.0286(15) 0.0176(13) 0.0197(14) -0.0047(11) -0.0019(11) 0.0007(11)
C5 0.0278(15) 0.0248(15) 0.0145(13) -0.0059(12) 0.0006(11) -0.0001(11)
C6 0.0182(13) 0.0211(14) 0.0181(13) -0.0028(10) -0.0007(11) -0.0042(11)
C7 0.0182(13) 0.0177(13) 0.0181(13) -0.0035(10) -0.0029(10) -0.0012(10)
C8 0.0140(12) 0.0158(12) 0.0156(13) -0.0036(10) -0.0014(10) -0.0025(10)
C9 0.0353(17) 0.0263(16) 0.0216(15) -0.0000(13) -0.0003(13) -0.0059(12)
loop_
_atom_type_symbol
_atom_type_scat_dispersion_real
_atom_type_scat_dispersion_imag
_atom_type_scat_Cromer_Mann_a1
_atom_type_scat_Cromer_Mann_a2
_atom_type_scat_Cromer_Mann_a3
_atom_type_scat_Cromer_Mann_a4
_atom_type_scat_Cromer_Mann_b1
_atom_type_scat_Cromer_Mann_b2
_atom_type_scat_Cromer_Mann_b3
_atom_type_scat_Cromer_Mann_b4
_atom_type_scat_Cromer_Mann_c
_atom_type_scat_source
_atom_type_scat_dispersion_source
H 0.00000 0.00000 0.49300 0.32291 0.14019 0.04081 10.51090 26.12570 3.14236
57.79970 0.0030380000826
'International Tables Volume C Table 6.1.1.4 (pp. 500-502)'
'Henke, Gullikson and Davis, At. Data and Nucl. Data Tables, 1993, 54, 2'
C 0.00347 0.00161 2.31000 1.02000 1.58860 0.86500 20.84390 10.20750 0.56870
51.65120 0.215599998832
'International Tables Volume C Table 6.1.1.4 (pp. 500-502)'
'Henke, Gullikson and Davis, At. Data and Nucl. Data Tables, 1993, 54, 2'
F 0.01794 0.01033 3.53920 2.64120 1.51700 1.02430 10.28250 4.29440 0.26150
26.14760 0.277599990368
'International Tables Volume C Table 6.1.1.4 (pp. 500-502)'
'Henke, Gullikson and Davis, At. Data and Nucl. Data Tables, 1993, 54, 2'
Br -0.28346 2.55990 17.17890 5.23580 5.63770 3.98510 2.17230 16.57960 0.26090
41.43280 2.95569992065
'International Tables Volume C Table 6.1.1.4 (pp. 500-502)'
'Henke, Gullikson and Davis, At. Data and Nucl. Data Tables, 1993, 54, 2'
N 0.00653 0.00323 12.21260 3.13220 2.01250 1.16630 0.00570 9.89330 28.99750
0.58260 -11.5290002823
'International Tables Volume C Table 6.1.1.4 (pp. 500-502)'
'Henke, Gullikson and Davis, At. Data and Nucl. Data Tables, 1993, 54, 2'
loop_
_diffrn_refln_index_h
_diffrn_refln_index_k
_diffrn_refln_index_l
_diffrn_refln_intensity_net
_diffrn_refln_intensity_u
-1 0 0 47.8 2.7
-1 0 0 50.69 3.2
-1 0 0 47 2.8
-1 0 0 55.49 3.1
-1 0 0 51.89 3
-1 0 0 51.49 2.7
1 0 0 47.7 3
1 0 0 52.59 2.8
1 0 0 49.8 3.2
-2 0 0 615.44 14.8
-2 0 0 632.44 15.4
-2 0 0 646.94 16.2
-2 0 0 632.14 17.1
-2 0 0 611.44 13.4
-2 0 0 639.44 16.4
-2 0 0 623.94 16.6
2 0 0 666.23 17.3
2 0 0 614.34 16.6
2 0 0 640.04 16.4
-3 0 0 73.09 6.2
-3 0 0 57.19 6.5
-3 0 0 69.49 5.8
-3 0 0 76.39 5.9
-3 0 0 68.89 6.4
-3 0 0 67.19 4.7
3 0 0 59.19 6.6
3 0 0 62.39 7.9
3 0 0 62.19 6.3
-4 0 0 1517.35 36.1
-4 0 0 1561.94 34.8
-4 0 0 1627.64 38.4
-4 0 0 1623.64 39
-4 0 0 1621.94 40.4
-4 0 0 1532.45 37.6
-4 0 0 1560.24 31.6
4 0 0 1609.14 39.7
4 0 0 1609.74 38.8
-5 0 0 8.5 5.7
-5 0 0 4.7 4.3
-5 0 0 6.9 3.3
-5 0 0 7.2 5.3
-5 0 0 4.3 2.5
-5 0 0 4.3 3.8
-5 0 0 8.4 4.2
-5 0 0 8.8 3.4
5 0 0 5.1 4.4
-6 0 0 227.18 14.9
-6 0 0 244.08 14.3
-6 0 0 236.48 13
-6 0 0 221.48 15.6
-6 0 0 226.28 11.6
-6 0 0 212.28 16.6
-6 0 0 241.58 17.7
-6 0 0 224.58 16.2
-7 0 0 69.19 12.1
-7 0 0 54.89 11.9
-7 0 0 54.19 7.7
-7 0 0 80.89 12.8
-7 0 0 65.39 12.3
-7 0 0 42.8 8.4
-7 0 0 50.49 9.9
-7 0 0 50.79 9.4
-8 0 0 265.17 24.4
-8 0 0 278.77 22.2
-8 0 0 253.87 24.6
-8 0 0 278.87 16.7
-8 0 0 263.37 18.3
-8 0 0 286.07 14.8
-8 0 0 312.67 25.5
-8 1 0 141.59 15
-8 1 0 162.18 15.1
-8 1 0 140.49 18.3
-8 1 0 168.68 11
-8 1 0 132.79 14.6
-7 1 0 111.19 15
-7 1 0 166.68 16.3
-7 1 0 123.39 9.3
-7 1 0 130.49 15
-7 1 0 135.79 12.4
-7 1 0 127.39 12.8
-7 1 0 140.69 15.3
6 -1 0 488.15 25.5
6 -1 0 496.05 33
-6 1 0 479.05 20.6
-6 1 0 510.55 24.6
-6 1 0 509.85 24
-6 1 0 485.85 24.9
-6 1 0 478.35 16.4
-6 1 0 488.95 25.1
-6 1 0 499.05 21.1
5 -1 0 992.9 33.4
5 -1 0 917.31 32.9
-5 1 0 986.2 45.1
-5 1 0 988 32.6
-5 1 0 926.51 27.7
-5 1 0 938.81 30.8
-5 1 0 921.31 27.4
-5 1 0 938.21 32.5
-5 1 0 945.21 23
4 -1 0 1665.63 43.5
4 -1 0 1628.74 41.8
-4 1 0 1667.03 37.2
-4 1 0 1710.43 40.6
-4 1 0 1727.43 41.8
-4 1 0 1638.24 42.6
-4 1 0 1731.43 37.2
-4 1 0 1770.32 42.6
3 -1 0 35 4.6
3 -1 0 29.6 5.5
3 -1 0 26.9 5.5
-3 1 0 31.9 4.9
-3 1 0 32.7 5.2
-3 1 0 35.7 5.6
-3 1 0 27.4 5.3
-3 1 0 26 4
2 -1 0 881.71 22.4
2 -1 0 877.61 18.3
2 -1 0 888.91 23.5
2 -1 0 894.01 19.9
-2 1 0 902.71 22.9
-2 1 0 908.31 19.9
-2 1 0 859.91 18.3
-2 1 0 859.21 22
1 -1 0 975.9 21
1 -1 0 933.81 18.4
1 -1 0 978.2 20.3
1 -1 0 923.51 16
-1 1 0 935.01 16.1
-1 1 0 866.61 19.4
-1 1 0 967.2 17.7
-1 1 0 974.1 18.5
0 -1 0 246.78 6.6
0 -1 0 260.47 6.7
0 -1 0 235.28 5.8
0 1 0 242.68 5.9
0 1 0 258.17 6.6
0 1 0 253.17 6.6
-1 -1 0 315.07 8.3
-1 -1 0 303.07 6
-1 -1 0 315.87 6.5
-1 -1 0 292.67 10
1 1 0 318.97 6.5
1 1 0 299.67 8.6
-2 -1 0 3919.11 64.49
-2 -1 0 3879.41 62.09
-2 -1 0 3883.21 63.09
-2 -1 0 4001.7 65.59
-2 -1 0 4031.2 59.89
-2 -1 0 4027.9 65.59
2 1 0 4127.59 65.09
2 1 0 3970.9 59.39
2 1 0 3962.3 63.09
2 1 0 4015.1 65.79
2 1 0 4050.29 62.59
-3 -1 0 61.69 6
-3 -1 0 69.49 6.6
-3 -1 0 69.29 6.1
-3 -1 0 64.59 5.4
-3 -1 0 63.29 5
-3 -1 0 70.59 6.3
-3 -1 0 58.19 4
3 1 0 69.69 5.7
3 1 0 70.09 6.2
3 1 0 65.29 7.3
3 1 0 57.99 5
-4 -1 0 1186.58 29.6
-4 -1 0 1252.37 33.9
-4 -1 0 1219.88 25.4
-4 -1 0 1212.58 31.4
-4 -1 0 1218.48 27.6
-4 -1 0 1198.18 31.2
-4 -1 0 1173.78 31.7
4 1 0 1265.37 33.1
4 1 0 1266.97 30.9
4 1 0 1181.88 31.8
-5 -1 0 134.29 9.2
-5 -1 0 154.18 10.9
-5 -1 0 134.09 12.6
-5 -1 0 154.88 11.7
-5 -1 0 139.59 11.6
-5 -1 0 155.38 12.4
-5 -1 0 152.98 9.1
-5 -1 0 160.28 11.5
5 1 0 137.89 12.1
-6 -1 0 1053.59 31.9
-6 -1 0 1025.2 28.5
-6 -1 0 1067.59 35.5
-6 -1 0 1095.19 35.5
-6 -1 0 1081.19 27.4
-6 -1 0 1103.69 33.6
-6 -1 0 1090.39 37.6
-6 -1 0 1093.79 35.1
-7 -1 0 95.99 9.7
-7 -1 0 71.29 12.2
-7 -1 0 125.49 14.4
-7 -1 0 102.79 11.9
-7 -1 0 93.69 13.1
-7 -1 0 82.69 11.2
-7 -1 0 108.79 9.9
-7 -1 0 97.79 13.5
-8 -1 0 226.98 14
-8 -1 0 207.98 16.3
-8 -1 0 198.68 18.4
-8 -1 0 247.18 21.9
-8 -1 0 205.08 20.7
-8 -1 0 219.98 19.6
-8 -1 0 207.18 17.3
-8 -1 0 208.98 13.5
-8 2 0 -6.2 7.5
-8 2 0 5.7 7.2
7 -2 0 258.57 22.3
-7 2 0 280.07 17.6
-7 2 0 266.87 17.7
-7 2 0 277.17 13.1
-7 2 0 246.58 19.7
-7 2 0 286.07 12.6
6 -2 0 78.99 12.9
6 -2 0 83.89 12.9
-6 2 0 89.79 11.3
-6 2 0 84.89 12
-6 2 0 83.39 9.3
-6 2 0 68.89 7.6
-6 2 0 75.59 10.1
-6 2 0 66.89 12.1
-6 2 0 68.39 6.9
5 -2 0 647.44 28.2
5 -2 0 604.44 28.4
-5 2 0 603.84 24.6
-5 2 0 640.24 21.2
-5 2 0 639.94 27.4
-5 2 0 658.13 23.4
-5 2 0 658.53 27.3
4 -2 0 86.49 11
4 -2 0 81.29 9.3
4 -2 0 111.69 8.9
-4 2 0 102.49 8.8
-4 2 0 102.69 7.4
-4 2 0 107.39 10.9
-4 2 0 84.19 9.1
3 -2 0 1871.91 43.7
3 -2 0 1836.52 38.9
3 -2 0 1859.31 45.6
-3 2 0 1877.01 38.8
-3 2 0 1869.71 42.9
-3 2 0 1796.92 34.5
-3 2 0 1800.72 35.5
2 -2 0 2320.47 46.4
2 -2 0 2203.58 37.1
2 -2 0 2285.17 42.9
-2 2 0 2332.77 42.9
-2 2 0 2225.18 45.6
-2 2 0 2299.67 40.6
1 -2 0 1165.38 24
1 -2 0 1153.48 19.1
1 -2 0 1116.39 25.4
1 -2 0 1148.99 24.3
-1 2 0 1182.68 24.4
-1 2 0 1162.98 23.3
-1 2 0 1174.58 25.4
0 -2 0 193.88 6.8
0 -2 0 197.98 7.8
0 -2 0 195.88 7.7
0 2 0 182.08 6.8
0 2 0 200.98 7.6
0 2 0 192.38 7.7
-1 -2 0 1877.81 34.5
-1 -2 0 1910.61 35
1 2 0 1922.71 34.8
1 2 0 1851.71 34.6
1 2 0 1947.41 32.1
-2 -2 0 836.52 15.2
-2 -2 0 881.41 20.9
-2 -2 0 907.01 16.7
-2 -2 0 888.21 21.8
2 2 0 879.71 20.8
2 2 0 855.61 20.7
2 2 0 876.21 21.6
2 2 0 851.31 21.5
-3 -2 0 1243.18 28.9
-3 -2 0 1216.68 24.5
-3 -2 0 1234.88 30.2
-3 -2 0 1294.57 28.8
-3 -2 0 1278.67 22.8
-3 -2 0 1268.57 30.5
3 2 0 1257.67 29.2
3 2 0 1223.58 28
3 2 0 1248.38 22.8
3 2 0 1279.27 30.8
-4 -2 0 24.1 3.2
-4 -2 0 33 6
-4 -2 0 20.5 4
-4 -2 0 20.8 4.8
-4 -2 0 16.3 4.4
-4 -2 0 23.7 5.3
4 2 0 17 3.7
4 2 0 31 6.1
4 2 0 25.5 6
-5 -2 0 893.21 30.2
-5 -2 0 914.81 29
-5 -2 0 899.91 29.6
-5 -2 0 931.21 25.9
-5 -2 0 928.41 21.2
-5 -2 0 894.71 30.9
-5 -2 0 889.31 25.8
5 2 0 886.71 29.2
5 2 0 871.51 30
-6 -2 0 345.47 16.3
-6 -2 0 347.97 20.5
-6 -2 0 340.67 19.6
-6 -2 0 363.46 19.9
-6 -2 0 374.46 16.8
-6 -2 0 358.86 21.5
-6 -2 0 367.36 17.3
6 2 0 342.37 19.6
-7 -2 0 190.58 14.5
-7 -2 0 173.38 12.5
-7 -2 0 195.88 15
-7 -2 0 160.78 16.5
-7 -2 0 189.08 10.7
-7 -2 0 181.98 15.8
-7 -2 0 212.98 17.5
-7 -2 0 185.58 16.1
7 2 0 154.38 15.9
-8 -2 0 60.89 14.7
-8 -2 0 99.59 11
-8 -2 0 83.99 8.2
-8 -2 0 73.39 11.7
-8 -2 0 93.69 15.1
-8 -2 0 74.89 14.1
-8 -2 0 79.99 12.4
7 -3 0 266.37 23.3
-7 3 0 300.97 21.1
-7 3 0 234.58 11.3
-7 3 0 238.18 17.4
-7 3 0 244.78 12.6
6 -3 0 58.59 13.2
6 -3 0 45.3 10.9
-6 3 0 29.5 6
-6 3 0 45.1 10.2
-6 3 0 57.89 10.3
-6 3 0 41.5 5.9
-6 3 0 37.2 8.6
-6 3 0 28.3 9.2
5 -3 0 310.17 20.5
5 -3 0 323.67 17.5
5 -3 0 337.97 22.3
-5 3 0 296.67 13.3
-5 3 0 362.56 19.4
-5 3 0 328.77 17.3
4 -3 0 150.18 13.6
4 -3 0 141.59 14.1
4 -3 0 146.49 11
-4 3 0 150.98 11.1
-4 3 0 135.99 8.6
-4 3 0 143.59 12.6
-4 3 0 139.29 13
3 -3 0 1083.19 29.2
3 -3 0 998.8 31.8
3 -3 0 1097.59 35.1
-3 3 0 1046.9 25.2
-3 3 0 1025 33.4
-3 3 0 1070.29 28.8
2 -3 0 137.19 9.9
2 -3 0 134.89 8.9
2 -3 0 157.48 11.9
-2 3 0 141.39 9.3
-2 3 0 144.09 7.9
-2 3 0 121.79 9.2
1 -3 0 1551.14 33.5
1 -3 0 1572.74 34.4
1 -3 0 1524.15 33.1
-1 3 0 1647.54 34.2
-1 3 0 1598.54 33.5
-1 3 0 1543.75 32
0 -3 0 3.4 1.8
0 -3 0 0.8 1.8
0 -3 0 1.7 1.8
0 3 0 3 1.9
0 3 0 1 2.1
0 3 0 2.4 1.6
-1 -3 0 4744.23 79.69
-1 -3 0 4818.42 71.29
-1 -3 0 4734.03 78.69
1 3 0 4710.03 78.99
1 3 0 4818.82 75.99
1 3 0 4762.22 78.09
-2 -3 0 131.49 8.1
-2 -3 0 111.39 7.7
2 3 0 113.09 7.7
2 3 0 121.79 8.1
2 3 0 119.39 5.9
-3 -3 0 2356.66 48.8
-3 -3 0 2336.47 48.7
-3 -3 0 2312.87 39.6
-3 -3 0 2385.46 47.9
3 3 0 2339.77 49
3 3 0 2323.87 47.2
3 3 0 2331.37 40
3 3 0 2401.36 47.4
-4 -3 0 222.58 12.4
-4 -3 0 211.18 8.5
-4 -3 0 202.88 7.6
-4 -3 0 202.58 12.7
-4 -3 0 229.28 13.5
4 3 0 214.48 7.9
4 3 0 219.18 12.7
4 3 0 212.18 11.9
4 3 0 215.38 13.5
-5 -3 0 652.13 15.7
-5 -3 0 667.83 23.3
-5 -3 0 660.83 25.8
-5 -3 0 659.53 25.9
-5 -3 0 662.23 19.1
5 3 0 672.13 23.1
5 3 0 686.63 25
5 3 0 675.73 26.2
-6 -3 0 54.69 9.2
-6 -3 0 70.09 10.2
-6 -3 0 41.2 6.7
-6 -3 0 49.3 5.1
-6 -3 0 59.99 10.8
-6 -3 0 55.09 8
6 3 0 53.29 9.9
6 3 0 43.2 9.5
-7 -3 0 374.86 21.6
-7 -3 0 376.26 17.9
-7 -3 0 371.56 19.4
-7 -3 0 378.06 23.7
-7 -3 0 355.76 12.3
-7 -3 0 340.47 30.7
-7 -3 0 350.56 25.7
7 3 0 369.46 22.2
-8 -3 0 110.69 14.1
-8 -3 0 78.19 11.4
-8 -3 0 123.29 17.8
-8 -3 0 92.79 11.7
-8 -3 0 86.69 10.5
8 3 0 77.99 14.7
6 -4 0 77.19 15.7
6 -4 0 72.69 15
6 -4 0 74.89 14.3
-6 4 0 92.09 13.4
-6 4 0 59.09 11.5
-6 4 0 75.49 7.9
5 -4 0 302.87 22
5 -4 0 289.27 22.2
-5 4 0 293.37 26.6
-5 4 0 300.67 13.6
4 -4 0 100.09 14
4 -4 0 117.99 15.5
4 -4 0 108.79 11
-4 4 0 106.39 8.6
-4 4 0 99.09 10.8
-4 4 0 99.89 11.6
3 -4 0 1900.41 53.19
3 -4 0 1934.41 49.5
3 -4 0 1949.41 45.6
-3 4 0 1921.51 48.3
-3 4 0 1882.01 40.1
-3 4 0 1874.81 44.5
2 -4 0 539.15 21.5
2 -4 0 566.74 25
2 -4 0 574.24 20.5
-2 4 0 600.24 21
-2 4 0 552.44 21.1
-2 4 0 559.24 18.4
1 -4 0 847.02 24.8
1 -4 0 861.51 25
1 -4 0 830.52 24.5
-1 4 0 839.82 24.1
-1 4 0 852.41 24.8
-1 4 0 824.02 23
0 -4 0 135.59 9
0 -4 0 141.69 8.2
0 -4 0 129.19 9.3
0 4 0 144.99 8
0 4 0 140.79 9.7
0 4 0 137.89 8.9
-1 -4 0 630.54 20.8
-1 -4 0 621.34 20.2
-1 -4 0 636.74 15.1
1 4 0 644.44 20.4
1 4 0 614.64 18.2
1 4 0 637.34 20.2
1 4 0 628.54 19.5
-2 -4 0 704.03 22.7
-2 -4 0 729.03 22.3
2 4 0 723.73 18.7
2 4 0 696.13 22.2
2 4 0 720.83 22.6
-3 -4 0 353.26 16.2
-3 -4 0 362.16 16.3
-3 -4 0 365.26 15.8
3 4 0 383.36 16.5
3 4 0 360.66 11.9
3 4 0 348.67 16.6
-4 -4 0 160.78 12
-4 -4 0 168.18 11.8
-4 -4 0 174.58 7.8
-4 -4 0 158.38 12.3
4 4 0 160.28 11.5
4 4 0 133.89 13.2
4 4 0 167.68 7.8
4 4 0 173.08 12.9
-5 -4 0 772.42 18.3
-5 -4 0 786.42 18.4
-5 -4 0 808.52 29.9
-5 -4 0 759.02 27.1
-5 -4 0 761.92 29
5 4 0 842.32 28.5
5 4 0 829.32 27.8
5 4 0 771.12 18.3
5 4 0 785.22 29.7
-6 -4 0 134.69 7
-6 -4 0 133.69 8.7
-6 -4 0 144.19 12.7
6 4 0 128.49 12.3
6 4 0 119.69 12.6
6 4 0 143.69 14.8
-7 -4 0 556.84 24.9
-7 -4 0 538.25 27.9
-7 -4 0 531.85 28.4
-7 -4 0 494.45 27.2
-7 -4 0 553.84 19.7
-7 -4 0 538.95 14.2
7 4 0 541.85 28.8
7 4 0 580.74 27.5
-8 -4 0 63.39 11.2
8 4 0 69.19 14.1
6 -5 0 267.97 25.8
-6 5 0 295.27 33
-6 5 0 300.37 13.4
-6 5 0 283.97 20.1
5 -5 0 126.39 15.9
5 -5 0 112.69 15.3
5 -5 0 154.38 18.8
-5 5 0 130.89 24.6
-5 5 0 128.09 10.1
-5 5 0 131.89 14
4 -5 0 649.74 30.8
4 -5 0 638.94 33.2
-4 5 0 627.84 32.1
-4 5 0 637.54 26.4
-4 5 0 607.74 21.1
3 -5 0 65.69 9.4
3 -5 0 45.4 11.1
3 -5 0 47.3 10.1
-3 5 0 46.4 8.4
-3 5 0 34.2 6.3
-3 5 0 55.59 9.2
2 -5 0 303.87 17.3
2 -5 0 303.97 20.7
2 -5 0 304.17 16.5
-2 5 0 310.17 16.7
-2 5 0 302.37 14.6
-2 5 0 294.47 16.5
1 -5 0 824.62 27
1 -5 0 873.91 27.8
1 -5 0 817.82 26.3
-1 5 0 846.52 25.7
-1 5 0 873.71 26
-1 5 0 817.72 26.8
0 -5 0 925.11 31.3
0 -5 0 920.61 28.4
0 -5 0 909.81 24.9
0 5 0 913.71 23.9
0 5 0 882.61 27.6
0 5 0 903.31 27.1
-1 -5 0 305.77 15.8
-1 -5 0 302.97 11.2
1 5 0 297.67 15
1 5 0 309.97 15.6
1 5 0 280.97 14.2
1 5 0 292.57 13.5
-2 -5 0 548.55 30.1
-2 -5 0 505.15 20.9
2 5 0 500.25 25.9
2 5 0 507.25 17.1
2 5 0 537.75 20.6
-3 -5 0 1269.57 34.6
-3 -5 0 1232.48 35.4
-3 -5 0 1187.38 33.6
3 5 0 1177.18 27.7
3 5 0 1230.18 34.9
3 5 0 1191.18 34.6
-4 -5 0 445.56 20.1
-4 -5 0 453.45 21
-4 -5 0 452.75 21.2
4 5 0 420.96 20.1
4 5 0 442.06 14.7
4 5 0 444.66 21.3
4 5 0 465.15 20.5
-5 -5 0 29.7 8
-5 -5 0 25.3 6.2
-5 -5 0 35.3 8.1
5 5 0 22.4 6.1
5 5 0 31.1 7.6
5 5 0 24.6 4.6
5 5 0 33.7 8.3
-6 -5 0 444.66 23
6 5 0 442.96 24.8
6 5 0 450.65 22.8
-7 -5 0 128.89 17
-7 -5 0 162.38 16.7
-7 -5 0 163.68 15.5
-7 -5 0 169.08 16.7
7 5 0 171.38 16.5
7 5 0 161.18 17.4
-8 -5 0 79.49 16.9
-8 -5 0 73.29 13.5
8 5 0 83.19 14.8
8 5 0 38.9 10.1
5 -6 0 2 7.2
-5 6 0 0.7 5.6
-5 6 0 -0.9 3.9
4 -6 0 262.77 21.5
4 -6 0 242.68 18.1
4 -6 0 272.77 23.8
-4 6 0 265.67 14.7
-4 6 0 252.67 19.9
-4 6 0 249.38 18.4
3 -6 0 -0.6 4.8
3 -6 0 6.9 6.2
-3 6 0 2 5.1
-3 6 0 -1.4 2.9
2 -6 0 1237.68 39
2 -6 0 1189.58 44.6
-2 6 0 1147.99 36
-2 6 0 1152.18 33.2
-2 6 0 1208.08 52.29
1 -6 0 21.7 5.5
1 -6 0 21.4 6.1
1 -6 0 26.3 6.6
-1 6 0 21.3 5.5
-1 6 0 16.9 6.1
-1 6 0 23.8 6.2
0 -6 0 710.33 23.7
0 -6 0 752.82 27.1
0 -6 0 730.13 27.6
0 6 0 761.82 26.5
0 6 0 739.93 26.3
0 6 0 746.03 27.5
-1 -6 0 158.28 13
-1 -6 0 128.69 11.1
-1 -6 0 167.48 9.5
1 6 0 143.79 11.6
1 6 0 153.78 11.1
1 6 0 154.28 12.6
-2 -6 0 1683.53 44.2
-2 -6 0 1787.62 41.7
-2 -6 0 1716.23 46
2 6 0 1670.43 39.6
2 6 0 1673.63 44.4
2 6 0 1751.32 44.4
-3 -6 0 13.5 5
-3 -6 0 5.1 4.1
-3 -6 0 9.9 4.7
3 6 0 7.7 4.2
3 6 0 9.9 4.3
3 6 0 9.6 3.5
-4 -6 0 669.63 27
-4 -6 0 784.02 29.4
-4 -6 0 701.13 33.5
4 6 0 655.53 27
4 6 0 710.23 28.8
4 6 0 699.63 21.2
4 6 0 677.83 26.6
-5 -6 0 153.08 14
-5 -6 0 162.78 15.4
5 6 0 184.18 15
5 6 0 194.38 16.8
5 6 0 178.98 9.9
-6 -6 0 183.38 17.4
-6 -6 0 208.88 19.3
-6 -6 0 236.98 18.1
6 6 0 205.28 17.6
6 6 0 188.18 16.2
6 6 0 193.28 9.6
6 6 0 172.88 23.9
-7 -6 0 6.3 5.8
-7 -6 0 8 6.4
7 6 0 -2.2 7
7 6 0 0.7 5.7
7 6 0 6.5 6.1
-8 -6 0 181.98 18.9
8 6 0 212.18 20.7
8 6 0 170.28 19.7
4 -7 0 139.29 26.4
-4 7 0 193.98 18
-4 7 0 189.98 13.9
3 -7 0 95.59 13.6
3 -7 0 60.69 12.4
3 -7 0 101.19 17.1
-3 7 0 92.99 13.2
-3 7 0 84.49 12.5
-3 7 0 82.69 10.3
2 -7 0 453.75 24
2 -7 0 487.45 30.2
2 -7 0 465.65 24.5
-2 7 0 395.26 22.7
-2 7 0 463.85 21.7
-2 7 0 449.86 23.8
1 -7 0 103.19 11
1 -7 0 136.59 14.3
1 -7 0 135.79 13.5
-1 7 0 122.19 11.8
-1 7 0 116.99 13.5
-1 7 0 146.89 13.8
0 -7 0 661.73 19
0 -7 0 615.94 23.6
0 -7 0 670.13 28.7
0 7 0 690.53 28.1
0 7 0 674.53 26.7
-1 -7 0 35.8 8.5
-1 -7 0 40 6.8
1 7 0 21.2 5.6
1 7 0 44.7 8.7
1 7 0 32.1 7.2
-2 -7 0 116.09 13.2
2 7 0 113.19 12.1
2 7 0 86.59 9.5
2 7 0 94.19 11.6
-3 -7 0 362.16 19
-3 -7 0 390.16 22.3
3 7 0 390.96 17.5
3 7 0 386.56 21.3
-4 -7 0 645.74 28
-4 -7 0 632.14 29.3
4 7 0 664.03 30.4
4 7 0 634.94 28.5
-5 -7 0 11.8 6.1
-5 -7 0 10.9 9.1
-5 -7 0 17.6 6
5 7 0 14.2 4.7
5 7 0 25 6.9
5 7 0 30.7 8.8
5 7 0 22.6 7.9
-6 -7 0 273.67 19.9
-6 -7 0 257.17 30.3
-6 -7 0 268.77 20.9
6 7 0 244.08 18.7
6 7 0 265.77 12.4
6 7 0 253.47 21.2
-7 -7 0 37.7 9.6
7 7 0 29.3 9.4
7 7 0 39.4 9.6
2 -8 0 -3.1 6.2
-2 8 0 2.5 6
-2 8 0 3.4 4.7
1 -8 0 508.95 28
-1 8 0 550.04 28
-1 8 0 519.55 24.9
0 -8 0 150.18 15.1
0 -8 0 152.28 8.8
0 -8 0 164.08 16
0 8 0 155.38 14.5
0 8 0 162.68 16.1
0 8 0 164.18 15
-1 -8 0 270.87 20.8
-1 -8 0 330.57 15.6
-1 -8 0 307.07 20
1 8 0 292.97 18.6
1 8 0 332.57 22.5
1 8 0 326.67 19.6
-2 -8 0 238.18 15.7
-2 -8 0 245.48 19.8
-2 -8 0 259.77 18.5
2 8 0 256.57 17.8
2 8 0 239.28 18.3
-3 -8 0 147.09 16.1
-3 -8 0 140.59 15
-3 -8 0 161.48 14.2
3 8 0 154.78 14.8
3 8 0 136.09 12.6
3 8 0 162.68 16.5
-4 -8 0 75.29 13.8
-4 -8 0 37.8 12.2
4 8 0 65.69 9.4
4 8 0 85.79 12.9
-5 -8 0 282.57 22.3
-5 -8 0 317.57 22.2
5 8 0 289.27 21
5 8 0 342.07 23.7
5 8 0 303.97 15.8
-6 -8 0 101.79 16.4
6 8 0 66.69 14.9
6 8 0 70.19 10.6
6 8 0 55.49 13.4
0 -9 0 2.4 5.7
0 9 0 -1.7 5.3
-1 -9 0 710.93 23.9
-1 -9 0 695.73 34.5
1 9 0 683.63 30.4
-2 -9 0 -7.5 4.8
-2 -9 0 1.3 5.7
2 9 0 -1.8 5.2
2 9 0 -2.7 4.6
-3 -9 0 260.67 23.5
3 9 0 300.07 19
3 9 0 276.27 20.2
-4 -9 0 -4.3 7.5
-4 -9 0 1.9 6.3
4 9 0 -3.1 5.8
4 9 -1 129.79 15.8
-4 -9 1 127.79 18.5
-4 -9 1 145.29 17.5
3 9 -1 210.38 17.9
3 9 -1 179.88 18.3
-3 -9 1 214.68 20.9
-3 -9 1 168.58 16.4
2 9 -1 33.8 8.3
2 9 -1 31.3 8.1
-2 -9 1 38.1 10.5
-2 -9 1 32.9 8
1 9 -1 192.98 16
-1 -9 1 163.18 13.8
-1 -9 1 160.28 18.1
0 9 -1 11.1 5.3
0 -9 1 8.2 7.2
0 -9 1 13.2 5.6
6 8 -1 -3.8 5.7
6 8 -1 -0.6 6.3
6 8 -1 -0.5 3.4
-6 -8 1 -3.8 4.9
5 8 -1 317.77 22.4
5 8 -1 303.77 22.7
-5 -8 1 316.87 23.2
4 8 -1 103.19 13.6
4 8 -1 115.79 11.4
-4 -8 1 129.39 20.8
-4 -8 1 122.59 15.3
3 8 -1 366.46 23.5
3 8 -1 412.06 22.9
3 8 -1 404.76 19.5
-3 -8 1 451.25 28
-3 -8 1 392.36 25.6
2 8 -1 0 4.5
2 8 -1 -0.8 3.9
2 8 -1 2.3 2.9
-2 -8 1 -1.1 4.9
-2 -8 1 -3.7 4.6
-2 -8 1 -8.8 4.7
1 8 -1 442.56 22.7
1 8 -1 446.96 24.6
1 8 -1 457.75 22.2
-1 -8 1 448.26 24.6
-1 -8 1 441.96 26.2
0 8 -1 1.6 4.5
0 8 -1 0.3 4.3
0 8 -1 4.2 5.5
0 -8 1 -2.6 4.9
0 -8 1 -1.7 3.7
0 -8 1 8.5 6.2
-1 8 -1 833.92 29.2
-1 8 -1 844.52 33.5
-1 8 -1 819.42 33.8
1 -8 1 842.32 42.1
-2 8 -1 5 6.3
-2 8 -1 5.8 5.2
-2 8 -1 7.9 7
2 -8 1 3 8.1
7 7 -1 85.59 14.7
7 7 -1 122.39 17
6 7 -1 80.99 14.1
6 7 -1 63.39 13.7
-6 -7 1 57.19 12.5
5 7 -1 141.69 16.2
5 7 -1 154.08 16.6
5 7 -1 130.79 9.5
5 7 -1 163.68 16.2
-5 -7 1 146.79 16.3
-5 -7 1 154.88 16.2
-5 -7 1 167.18 16.5
4 7 -1 137.79 10.4
4 7 -1 142.29 14.8
-4 -7 1 133.59 15
-4 -7 1 146.89 15.3
3 7 -1 595.24 25.8
3 7 -1 617.34 21.8
-3 -7 1 617.94 29.1
2 7 -1 80.79 9.5
2 7 -1 88.99 11.5
2 7 -1 82.79 10
-2 -7 1 79.09 11.7
1 7 -1 217.78 14.4
1 7 -1 255.27 15.6
1 7 -1 248.58 16.9
-1 -7 1 234.38 18.1
0 7 -1 260.97 15.3
0 7 -1 320.07 19.5
0 -7 1 289.07 20
-1 7 -1 477.55 23.7
-1 7 -1 477.65 22.9
-1 7 -1 441.36 20.6
1 -7 1 492.05 27.5
1 -7 1 482.15 26.2
-2 7 -1 131.29 13.2
-2 7 -1 105.39 13.8
2 -7 1 129.89 14.1
2 -7 1 78.89 17
-3 7 -1 540.05 24.5
-3 7 -1 579.34 27.5
-3 7 -1 561.74 27.9
3 -7 1 519.25 33.7
3 -7 1 527.75 27
-4 7 -1 -13.1 5.4
-4 7 -1 -6.4 4.9
4 -7 1 -7.6 5
7 6 -1 42.4 11
7 6 -1 72.29 15
7 6 -1 57.09 13.5
-7 -6 1 54.09 11.3
6 6 -1 443.66 24.7
6 6 -1 468.45 26.6
6 6 -1 468.85 25
-6 -6 1 447.86 26.5
-6 -6 1 461.95 25.1
-6 -6 1 489.05 26
-6 -6 1 471.65 26.9
5 6 -1 144.59 14.5
5 6 -1 134.69 15
5 6 -1 140.39 7.8
-5 -6 1 128.89 13.9
-5 -6 1 121.19 13.3
4 6 -1 520.45 24.4
4 6 -1 532.25 24.5
4 6 -1 514.45 16.7
4 6 -1 544.05 24.8
-4 -6 1 511.35 23.7
-4 -6 1 513.75 25.2
3 6 -1 78.89 9.8
3 6 -1 82.29 7.8
-3 -6 1 76.39 10.5
2 6 -1 944.91 29.9
2 6 -1 931.31 26.8
2 6 -1 974.3 32.3
-2 -6 1 924.61 32.8
-2 -6 1 927.91 31.2
1 6 -1 745.13 25
1 6 -1 743.83 25.2
1 6 -1 747.83 27.8
-1 -6 1 730.13 26.8
-1 -6 1 778.82 29.2
0 6 -1 93.49 10.9
0 6 -1 83.79 7.6
0 6 -1 79.49 9.3
0 6 -1 81.29 9
0 -6 1 80.49 11.1
0 -6 1 81.19 9.7
-1 6 -1 31.6 6.9
-1 6 -1 32.4 6.8
-1 6 -1 33.3 11.1
1 -6 1 33.6 7.6
1 -6 1 16.7 5.1
-2 6 -1 591.84 23.9
-2 6 -1 602.04 25.2
-2 6 -1 614.94 28.6
2 -6 1 626.84 25.7
2 -6 1 580.74 30.8
-3 6 -1 151.48 13.8
-3 6 -1 154.78 12.8
3 -6 1 148.99 18.3
-4 6 -1 326.57 22
-4 6 -1 326.67 17.7
-4 6 -1 306.47 19.5
4 -6 1 346.87 22.5
4 -6 1 272.57 24.8
-5 6 -1 75.49 10.9
-5 6 -1 96.89 13.8
5 -6 1 56.89 21.7
5 -6 1 80.99 18.7
8 5 -1 95.69 16.6
-8 -5 1 90.69 16
-8 -5 1 146.09 16.3
7 5 -1 12 11.3
7 5 -1 13.3 6.5
7 5 -1 16.7 7
-7 -5 1 10.3 5.9
-7 -5 1 20.2 6.6
5 5 -1 -0.4 1.6
5 5 -1 3 3.4
5 5 -1 1.7 4.7
5 5 -1 4 5.7
-5 -5 1 -3.4 3.9
-5 -5 1 -1.2 3.8
-5 -5 1 15 6.1
4 5 -1 321.27 18
4 5 -1 301.77 17
4 5 -1 291.97 17.8
4 5 -1 297.57 10.8
-4 -5 1 300.87 17.5
-4 -5 1 322.67 18
-4 -5 1 291.97 17.2
3 5 -1 319.87 16.8
3 5 -1 337.47 12.5
3 5 -1 326.57 17.1
-3 -5 1 354.46 18.3
-3 -5 1 316.97 16.9
2 5 -1 1206.28 32.5
2 5 -1 1225.68 28.8
2 5 -1 1217.98 34.2
-2 -5 1 1156.08 34.8
-2 -5 1 1221.98 34
1 5 -1 6.7 2.6
1 5 -1 3.2 3.2
1 5 -1 10.4 5.7
-1 -5 1 6.6 3.6
-1 -5 1 3.5 3
0 5 -1 2201.48 48.8
0 5 -1 2200.58 49.6
0 5 -1 2177.38 43.9
0 -5 1 2198.68 49.5
0 -5 1 2219.48 51.59
-1 5 -1 204.58 13.5
-1 5 -1 195.78 12.7
-1 5 -1 208.58 12.3
1 -5 1 189.38 12.5
1 -5 1 190.48 13.9
-2 5 -1 836.32 28.4
-2 5 -1 842.32 27.7
-2 5 -1 842.22 26.9
2 -5 1 819.52 34.1
2 -5 1 850.71 27.8
2 -5 1 787.92 19
-3 5 -1 45.7 9.4
-3 5 -1 52.79 9.2
3 -5 1 26 8.2
3 -5 1 55.19 9.1
-4 5 -1 966.3 34.9
-4 5 -1 947.11 29.2
-4 5 -1 965.9 42.4
4 -5 1 789.02 30.4
4 -5 1 939.61 41.5
-5 5 -1 -5.9 3.2
-5 5 -1 -1.2 4.2
5 -5 1 11.4 7.3
5 -5 1 1.5 5.8
-6 5 -1 187.28 13.4
-6 5 -1 163.08 15.3
-6 5 -1 159.58 15.2
6 -5 1 143.29 23.9
6 -5 1 179.88 17.4
8 4 -1 193.48 19
-8 -4 1 280.27 18.7
-8 -4 1 234.28 21.2
7 4 -1 348.77 22.9
-7 -4 1 371.36 23.6
-7 -4 1 367.16 23.4
-7 -4 1 350.26 23
-7 -4 1 326.87 22.5
6 4 -1 253.07 17.9
6 4 -1 228.88 15
6 4 -1 238.68 18.1
-6 -4 1 231.18 15.2
5 4 -1 235.98 14.8
5 4 -1 229.78 16.4
5 4 -1 251.17 16.4
-5 -4 1 208.48 14
-5 -4 1 217.28 16
-5 -4 1 214.38 15.5
4 4 -1 943.91 30.6
4 4 -1 977 19.5
4 4 -1 986.3 29.8
4 4 -1 989.1 31.6
-4 -4 1 1044.2 30.8
-4 -4 1 967.3 31.4
3 4 -1 16.2 3.2
3 4 -1 13.1 4.4
3 4 -1 21.6 5.2
-3 -4 1 13.4 4.2
-3 -4 1 13.1 3.7
2 4 -1 872.71 25
2 4 -1 845.52 20.3
2 4 -1 806.22 25.1
-2 -4 1 844.62 26.1
-2 -4 1 867.81 25.5
1 4 -1 1813.02 31.9
1 4 -1 1815.52 41
1 4 -1 1883.21 38.8
-1 -4 1 1816.72 42
-1 -4 1 1779.02 40
0 4 -1 656.53 18.3
0 4 -1 662.53 21.6
0 4 -1 686.53 21.3
0 -4 1 675.73 21
0 -4 1 667.03 22.5
-1 4 -1 228.08 12.3
-1 4 -1 227.28 12.2
-1 4 -1 199.78 11.1
1 -4 1 225.38 12.6
1 -4 1 210.48 12.8
1 -4 1 219.58 11.9
-2 4 -1 914.91 28.5
-2 4 -1 938.81 26.8
-2 4 -1 917.41 26.6
2 -4 1 928.71 20.8
2 -4 1 962.3 33.6
2 -4 1 914.01 29.3
2 -4 1 925.31 26.9
-3 4 -1 593.64 21.4
-3 4 -1 586.24 20.7
-3 4 -1 570.14 24.1
3 -4 1 545.35 15.6
3 -4 1 574.74 25.1
3 -4 1 541.65 23.6
3 -4 1 524.45 26.6
-4 4 -1 267.37 18.1
-4 4 -1 272.97 14.2
-4 4 -1 271.07 15.2
4 -4 1 251.97 20.5
4 -4 1 271.17 15.6
4 -4 1 277.27 11.3
-5 4 -1 80.49 10.3
-5 4 -1 51.89 8.1
-5 4 -1 67.89 9.9
-5 4 -1 56.39 11.9
5 -4 1 54.29 13.6
5 -4 1 57.09 9.6
-6 4 -1 398.36 21
-6 4 -1 449.26 29
-6 4 -1 408.86 21.3
6 -4 1 408.36 29.7
8 3 -1 0.2 7.3
-8 -3 1 7 6
-8 -3 1 5.5 6.9
-8 -3 1 0.3 5.4
7 3 -1 249.68 19
-7 -3 1 301.17 21.6
-7 -3 1 238.28 19.2
-7 -3 1 272.87 16.3
-7 -3 1 302.67 21
6 3 -1 188.38 15.5
6 3 -1 153.08 12
-6 -3 1 171.48 12.2
-6 -3 1 147.59 14.4
-6 -3 1 173.28 15
5 3 -1 1285.97 38.8
5 3 -1 1325.77 38.5
5 3 -1 1284.27 33.9
-5 -3 1 1351.86 35
-5 -3 1 1209.48 37.7
-5 -3 1 1277.07 38.3
4 3 -1 445.16 17.6
4 3 -1 489.65 20.3
4 3 -1 460.05 19.6
-4 -3 1 456.35 19.6
-4 -3 1 454.45 18
3 3 -1 1278.87 23.1
3 3 -1 1266.07 31.4
3 3 -1 1343.07 33.5
3 3 -1 1305.17 33.2
-3 -3 1 1301.87 31.9
-3 -3 1 1296.67 33.1
2 3 -1 342.47 9.8
2 3 -1 351.86 14
2 3 -1 367.46 14.1
-2 -3 1 380.56 14.7
-2 -3 1 332.67 13.5
1 3 -1 383.26 8.9
1 3 -1 365.66 14
1 3 -1 397.16 13.2
-1 -3 1 378.26 14.5
-1 -3 1 375.56 13.8
0 3 -1 1381.36 31.1
0 3 -1 1353.56 27.4
0 -3 1 1377.66 30.1
-1 3 -1 519.25 17
-1 3 -1 519.05 16.3
-1 3 -1 531.55 17
1 -3 1 505.75 16.1
1 -3 1 519.35 17.3
-2 3 -1 204.28 12
-2 3 -1 212.08 10.8
-2 3 -1 198.28 10.2
2 -3 1 204.28 10.4
2 -3 1 206.68 8.3
2 -3 1 204.08 12.3
2 -3 1 186.68 13.4
-3 3 -1 622.44 20
-3 3 -1 625.84 28.5
-3 3 -1 591.54 19.9
3 -3 1 626.14 24.2
3 -3 1 600.64 26.3
3 -3 1 596.54 20
3 -3 1 612.54 17
-4 3 -1 493.05 18.7
-4 3 -1 487.85 22.9
-4 3 -1 494.95 19.1
4 -3 1 456.05 23.1
4 -3 1 472.05 24.9
4 -3 1 428.56 20.9
4 -3 1 483.15 19.2
-5 3 -1 1081.09 31.3
-5 3 -1 1077.49 34.2
-5 3 -1 1052.69 29.8
-5 3 -1 1005.2 37.5
5 -3 1 1013.6 40.6
5 -3 1 1004.5 31
-6 3 -1 61.49 12.4
-6 3 -1 53.29 11.2
-6 3 -1 49.4 9.8
-6 3 -1 78.09 9
-6 3 -1 93.49 10.5
6 -3 1 81.89 14.8
-7 3 -1 127.69 15.2
-7 3 -1 126.69 15.4
-7 3 -1 138.59 10.9
-7 3 -1 147.59 14
7 -3 1 132.89 18.1
8 2 -1 -4.2 6.5
-8 -2 1 1.3 3.2
-8 -2 1 3.8 7.1
-8 -2 1 0.4 7.5
-8 -2 1 8.4 6.6
-8 -2 1 10.6 5
-8 -2 1 8.3 6.1
7 2 -1 256.87 19.9
-7 -2 1 245.98 9.7
-7 -2 1 262.07 18.2
-7 -2 1 269.47 19.4
-7 -2 1 244.78 19
-7 -2 1 246.38 14
-7 -2 1 253.87 15.8
-7 -2 1 264.07 19
-7 -2 1 265.57 23
6 2 -1 182.48 15.1
-6 -2 1 154.78 11.2
-6 -2 1 165.98 14.3
-6 -2 1 166.88 17.9
-6 -2 1 170.58 14.4
-6 -2 1 176.78 14.6
-6 -2 1 184.38 12.2
-6 -2 1 177.88 7.7
5 2 -1 777.22 23.2
5 2 -1 814.32 24.4
5 2 -1 736.53 27.9
-5 -2 1 789.62 27.2
-5 -2 1 769.72 28.2
-5 -2 1 794.92 23.8
-5 -2 1 801.22 23.1
-5 -2 1 797.32 27.9
-5 -2 1 771.62 27.6
-5 -2 1 753.72 16
4 2 -1 31.4 5
4 2 -1 20.4 4.8
4 2 -1 33.6 5
4 2 -1 24.1 5.9
-4 -2 1 26 4.8
-4 -2 1 27.3 4.4
-4 -2 1 27.6 5.8
-4 -2 1 32.8 6.2
3 2 -1 1055.69 27.6
3 2 -1 1030.4 24.7
3 2 -1 1018.1 27.1
3 2 -1 995.7 21.3
-3 -2 1 996.9 27
-3 -2 1 1018.9 24.8
2 2 -1 448.86 9.4
2 2 -1 440.26 14.9
2 2 -1 445.56 14
2 2 -1 471.15 15.1
2 2 -1 435.06 8.8
-2 -2 1 459.55 14.3
-2 -2 1 454.35 14.8
1 2 -1 3853.11 65.29
1 2 -1 4046.1 64.09
-1 -2 1 3964.2 65.99
-1 -2 1 4029.1 64.09
0 2 -1 95.29 6
0 2 -1 100.29 5.7
0 2 -1 99.09 5
0 -2 1 94.59 5.5
0 -2 1 105.49 6.5
-1 2 -1 5092.39 82.69
-1 2 -1 5135.89 79.99
-1 2 -1 5135.19 82.29
1 -2 1 5116.39 83.09
1 -2 1 4973.5 79.69
-2 2 -1 6.1 2.3
-2 2 -1 7.1 3
-2 2 -1 4.3 2.2
2 -2 1 6.4 2.2
2 -2 1 4.2 2.7
2 -2 1 5.6 2.7
2 -2 1 7.1 2.4
-3 2 -1 1258.57 28.6
-3 2 -1 1274.57 34.1
-3 2 -1 1341.87 36.6
3 -2 1 1260.97 27.9
3 -2 1 1256.67 36.8
3 -2 1 1296.87 34.8
3 -2 1 1273.17 29.1
-4 2 -1 147.69 9.8
-4 2 -1 147.29 10.4
-4 2 -1 161.68 12.6
-4 2 -1 171.18 13
-4 2 -1 153.08 9.6
4 -2 1 152.28 9.9
4 -2 1 139.89 9.1
4 -2 1 153.38 13.8
4 -2 1 160.98 13
-5 2 -1 652.63 22.3
-5 2 -1 683.73 24.4
-5 2 -1 624.24 28.7
-5 2 -1 697.93 28.8
-5 2 -1 660.23 28.1
-5 2 -1 680.53 22.6
5 -2 1 670.53 22.8
5 -2 1 676.73 30.8
-6 2 -1 121.99 10.9
-6 2 -1 96.69 14.3
-6 2 -1 104.39 10.5
-6 2 -1 126.29 12.2
-6 2 -1 127.09 13.9
-6 2 -1 124.19 14.1
6 -2 1 105.29 14.2
-7 2 -1 193.98 14
-7 2 -1 191.88 15.4
-7 2 -1 194.68 12.4
-7 2 -1 206.28 17
-7 2 -1 208.68 19.4
-7 2 -1 217.28 16.9
7 -2 1 224.98 20.9
-8 2 -1 38.6 9.5
-8 2 -1 29.4 7.8
-8 2 -1 44.9 8.3
-8 2 -1 44.3 10.2
-8 2 -1 28.5 7.5
-8 2 -1 41.7 10
-8 -1 1 170.58 11.9
-8 -1 1 159.38 18
-8 -1 1 163.08 15.5
-8 -1 1 167.28 17.2
-8 -1 1 149.49 15.9
-8 -1 1 146.89 10.9
-7 -1 1 316.07 13.9
-7 -1 1 355.86 19.8
-7 -1 1 307.67 18.8
-7 -1 1 317.47 21.1
-7 -1 1 290.17 19.9
-7 -1 1 309.97 20.8
-7 -1 1 384.16 33.2
-7 -1 1 316.37 15.2
6 1 -1 181.88 14.2
6 1 -1 147.59 14.6
-6 -1 1 155.98 13.8
-6 -1 1 172.58 15.5
-6 -1 1 162.98 14.2
-6 -1 1 159.98 14.6
-6 -1 1 172.38 12.9
-6 -1 1 174.88 10.7
-6 -1 1 190.78 14.3
-6 -1 1 169.38 12.8
5 1 -1 486.05 22.4
5 1 -1 484.55 19.9
-5 -1 1 446.46 18.5
-5 -1 1 487.85 14.3
-5 -1 1 472.95 16
-5 -1 1 507.05 21.2
-5 -1 1 472.55 19.8
-5 -1 1 431.46 25.9
-5 -1 1 483.15 22
-5 -1 1 443.46 20.5
4 1 -1 569.54 16.6
4 1 -1 567.94 21.9
4 1 -1 584.74 19.5
-4 -1 1 598.74 20.9
-4 -1 1 584.24 21.9
-4 -1 1 620.74 21.7
-4 -1 1 595.84 14.2
-4 -1 1 579.84 20.7
-4 -1 1 580.94 18.7
-4 -1 1 586.64 16.6
3 1 -1 2132.49 44
3 1 -1 2106.29 40
3 1 -1 2071.49 37.8
-3 -1 1 2177.38 44.2
-3 -1 1 2057.29 38
-3 -1 1 2007.1 42.6
-3 -1 1 2067.59 39.2
-3 -1 1 2108.19 33.3
-3 -1 1 2079.19 41.4
2 1 -1 6.1 1.7
2 1 -1 8.1 2
2 1 -1 6.2 2.2
2 1 -1 8.4 2.2
-2 -1 1 8.9 2.3
-2 -1 1 7.1 1.8
-2 -1 1 6.6 1.8
-2 -1 1 8 1.9
1 1 -1 3446.46 55.29
1 1 -1 3496.05 55.79
-1 -1 1 3636.24 56.19
-1 -1 1 3488.05 55.49
0 1 -1 733.13 15.9
0 1 -1 734.73 12.6
0 -1 1 729.63 14.4
0 -1 1 723.63 16
0 -1 1 711.43 12.5
-1 1 -1 2297.77 41.5
-1 1 -1 2356.16 43
-1 1 -1 2252.77 37.5
1 -1 1 2370.36 43.5
1 -1 1 2540.05 39.8
-2 1 -1 128.79 5.8
-2 1 -1 125.19 6.1
-2 1 -1 129.79 8.4
-2 1 -1 128.59 6.5
2 -1 1 137.99 9
2 -1 1 132.49 6
2 -1 1 120.29 6.3
-3 1 -1 1037.3 24.5
-3 1 -1 1024.9 22.7
-3 1 -1 1024.8 24.2
-3 1 -1 1005.7 29.5
-3 1 -1 1008.5 27.9
3 -1 1 984.8 28
3 -1 1 997.5 29.9
3 -1 1 993.1 24.1
3 -1 1 993.5 22.8
-4 1 -1 1019 31.1
-4 1 -1 1038.7 27.8
-4 1 -1 1096.39 31.6
-4 1 -1 1010 26.9
-4 1 -1 1026.6 33
-4 1 -1 1061.09 25.6
4 -1 1 1017 33.5
4 -1 1 1028.8 27.2
-5 1 -1 1144.79 38.2
-5 1 -1 1124.39 31.5
-5 1 -1 1134.39 35.7
-5 1 -1 1185.38 36.7
-5 1 -1 1153.78 29.6
-5 1 -1 1188.78 33.3
5 -1 1 1164.98 38.8
-6 1 -1 46.4 8.2
-6 1 -1 53.09 12
-6 1 -1 59.49 8.5
-6 1 -1 38 8.7
-6 1 -1 50.59 9.6
-6 1 -1 59.29 7.5
-6 1 -1 50.99 8.2
-6 1 -1 60.79 10.7
6 -1 1 36.4 8.2
-7 1 -1 305.77 19.5
-7 1 -1 318.47 21.8
-7 1 -1 263.07 21.7
-7 1 -1 320.67 19.1
-7 1 -1 286.57 16.4
-7 1 -1 281.97 21.2
-7 1 -1 315.47 15.3
-7 1 -1 278.27 19
-8 1 -1 25.5 7.1
-8 1 -1 13.8 4.8
-8 1 -1 27.9 9
-8 1 -1 26.9 9.2
-8 1 -1 18.2 7.3
-8 0 1 384.56 24.9
-8 0 1 389.26 23.2
-8 0 1 436.56 25.5
-8 0 1 370.86 15.3
-8 0 1 415.26 19.5
7 0 -1 118.99 14.5
-7 0 1 102.59 12.7
-7 0 1 107.09 10.6
-7 0 1 122.19 13
-7 0 1 112.09 22.7
-7 0 1 113.79 8.8
-7 0 1 93.59 13.6
-7 0 1 121.19 13.2
-7 0 1 140.39 15.2
6 0 -1 390.76 21.5
-6 0 1 461.65 21
-6 0 1 419.36 22.4
-6 0 1 429.26 16.5
-6 0 1 410.56 15.5
-6 0 1 419.46 21.2
-6 0 1 445.06 23.1
-6 0 1 416.16 20.4
-6 0 1 427.66 22.3
5 0 -1 199.88 13.8
5 0 -1 205.88 15.2
-5 0 1 212.88 14.7
-5 0 1 199.38 9.2
-5 0 1 193.38 12.9
-5 0 1 171.38 13.7
-5 0 1 194.28 12.8
-5 0 1 216.88 14
-5 0 1 203.68 13.4
4 0 -1 2368.36 52.39
4 0 -1 2276.07 49.8
-4 0 1 2308.37 47.6
-4 0 1 2255.87 40.5
-4 0 1 2364.56 48.9
-4 0 1 2301.97 51.09
-4 0 1 2308.37 48
-4 0 1 2290.87 50.99
-4 0 1 2345.57 49.7
3 0 -1 512.15 16.2
3 0 -1 484.75 17.9
-3 0 1 491.25 16.1
-3 0 1 498.65 17.8
-3 0 1 475.85 16.1
-3 0 1 470.05 11.8
-3 0 1 489.05 15.7
-3 0 1 482.75 16.3
-3 0 1 496.15 17.5
2 0 -1 1527.85 32.4
2 0 -1 1625.84 29.8
2 0 -1 1590.24 31.1
2 0 -1 1542.25 25.6
-2 0 1 1579.44 30.9
-2 0 1 1587.94 32.1
-2 0 1 1575.34 29.7
-2 0 1 1515.25 30.3
-2 0 1 1547.65 25.7
1 0 -1 56.49 2.5
1 0 -1 51.79 2.2
1 0 -1 53.59 3.3
-1 0 1 57.19 3.8
-1 0 1 54.69 2.5
-1 0 1 51.89 2.3
-1 0 1 52.79 2.2
-1 0 -1 629.34 21.2
-1 0 -1 621.24 11.9
-1 0 -1 639.44 13.2
-1 0 -1 653.13 14.5
-1 0 -1 654.23 10.3
1 0 1 660.03 15.4
1 0 1 570.84 16.6
1 0 1 649.83 13.8
1 0 1 624.44 12
-2 0 -1 290.67 11
-2 0 -1 305.07 8.1
-2 0 -1 298.47 9.4
-2 0 -1 304.37 12.2
-2 0 -1 304.67 10.3
-2 0 -1 297.57 9.5
-2 0 -1 304.17 10.4
2 0 1 299.17 12
2 0 1 301.97 9.7
2 0 1 305.87 10.5
-3 0 -1 827.72 18.9
-3 0 -1 826.82 21.5
-3 0 -1 848.42 22.2
-3 0 -1 856.51 25.5
-3 0 -1 875.71 20.7
-3 0 -1 852.61 22.6
3 0 1 864.31 30
3 0 1 845.82 22.1
-4 0 -1 497.55 18.9
-4 0 -1 480.05 20.9
-4 0 -1 479.15 17.8
-4 0 -1 456.75 18.7
-4 0 -1 494.45 17.9
-4 0 -1 479.65 15.5
-4 0 -1 470.65 15.9
4 0 1 464.65 17.6
4 0 1 456.25 20.1
-5 0 -1 67.79 12.6
-5 0 -1 92.09 7.6
-5 0 -1 88.69 9.2
-5 0 -1 83.79 8.3
-5 0 -1 92.89 9.5
-5 0 -1 81.79 9.3
-5 0 -1 87.29 8
-6 0 -1 682.33 27.9
-6 0 -1 692.43 26.6
-6 0 -1 668.23 26.4
-6 0 -1 695.03 28.2
-6 0 -1 686.63 23.1
-6 0 -1 739.53 24.5
-6 0 -1 681.33 22.3
-6 0 -1 670.63 30.7
-7 0 -1 479.85 24.2
-7 0 -1 492.75 28.4
-7 0 -1 477.35 20.9
-7 0 -1 483.45 25.6
-7 0 -1 467.85 25.2
-7 0 -1 545.85 25.5
-7 0 -1 467.75 19.5
-7 0 -1 495.55 21.6
-8 0 -1 166.38 25.5
-8 0 -1 204.68 23.8
-8 0 -1 183.98 18.2
-8 0 -1 228.88 15.8
-8 0 -1 220.08 21.4
-8 0 -1 180.98 13
-8 0 -1 195.18 17.6
-8 1 1 206.08 18.3
-8 1 1 211.38 16.6
-8 1 1 229.58 18
7 -1 -1 16.8 7.7
-7 1 1 14.5 6.2
-7 1 1 7 6.5
-7 1 1 1.6 6.3
-7 1 1 7.8 2.8
-7 1 1 5.4 6
-7 1 1 2.2 5.1
-7 1 1 2.5 4.8
-7 1 1 4.5 6.1
6 -1 -1 573.64 27.9
6 -1 -1 537.35 25.5
-6 1 1 548.35 25.4
-6 1 1 571.44 22.5
-6 1 1 577.04 27.4
-6 1 1 544.05 25.5
-6 1 1 536.15 15.4
-6 1 1 565.14 24.1
-6 1 1 536.85 25.7
5 -1 -1 60.29 9.5
5 -1 -1 78.59 10.2
-5 1 1 66.99 8.9
-5 1 1 78.29 10.1
-5 1 1 63.69 9.5
-5 1 1 55.59 8.6
-5 1 1 62.19 5.1
-5 1 1 66.39 8.1
-5 1 1 83.59 10.3
4 -1 -1 306.47 16.4
4 -1 -1 290.57 15.6
-4 1 1 290.07 9
-4 1 1 303.37 15.2
-4 1 1 303.17 14.4
-4 1 1 291.57 15.8
-4 1 1 291.97 12.8
-4 1 1 319.67 15.7
-4 1 1 288.47 15.9
3 -1 -1 24.4 4.3
3 -1 -1 23.3 5
3 -1 -1 23.6 5
-3 1 1 25.7 5
-3 1 1 21.4 4.9
-3 1 1 21.4 4.5
-3 1 1 19 3.4
-3 1 1 18.1 4.6
-3 1 1 18.6 2.2
2 -1 -1 2248.77 43.7
2 -1 -1 2373.66 43.4
2 -1 -1 2330.17 42.2
-2 1 1 2240.58 41.8
-2 1 1 2241.38 38.2
-2 1 1 2156.58 42.7
-2 1 1 2325.97 44.2
1 -1 -1 130.09 6.3
1 -1 -1 126.99 5.9
-1 1 1 118.99 6.1
-1 1 1 115.69 5.8
0 -1 -1 802.42 15.3
0 -1 -1 771.02 15.1
0 -1 -1 784.52 14.2
0 1 1 777.82 15.2
0 1 1 759.82 14.1
0 1 1 774.22 13.5
0 1 1 808.72 16.7
-1 -1 -1 29.5 2.4
-1 -1 -1 29.8 2.7
-1 -1 -1 27 2.1
-1 -1 -1 25.9 2.6
1 1 1 27.9 2.6
1 1 1 29.1 1.7
1 1 1 32.4 2.9
1 1 1 26.8 3.7
1 1 1 30.1 2.9
-3 -1 -1 49 6.1
-3 -1 -1 40.5 4.8
-3 -1 -1 38.8 4.2
-3 -1 -1 48.5 5.5
-3 -1 -1 44.4 5
-3 -1 -1 50.39 5
-3 -1 -1 37.8 4.5
3 1 1 52.29 7.2
3 1 1 50.89 5.3
3 1 1 51.99 5.5
-4 -1 -1 443.66 16.7
-4 -1 -1 402.16 16.2
-4 -1 -1 435.76 16.9
-4 -1 -1 412.26 14.9
-4 -1 -1 415.56 13.9
-4 -1 -1 429.26 17.3
-4 -1 -1 440.86 19.6
4 1 1 409.76 17
4 1 1 425.76 16.9
-5 -1 -1 35 6.2
-5 -1 -1 51.19 8
-5 -1 -1 33.9 6.9
-5 -1 -1 43.9 6.4
-5 -1 -1 40.9 7.4
-5 -1 -1 56.49 9.4
-5 -1 -1 43.2 6.5
-5 -1 -1 44.6 6.3
-6 -1 -1 787.72 29.2
-6 -1 -1 809.02 24.4
-6 -1 -1 807.02 33.2
-6 -1 -1 771.22 28.5
-6 -1 -1 800.32 29.4
-6 -1 -1 770.82 28.9
-6 -1 -1 780.52 25.2
-6 -1 -1 762.22 25
-7 -1 -1 10 5.3
-7 -1 -1 15.4 4.9
-7 -1 -1 20.1 4.8
-7 -1 -1 3.2 5.5
-7 -1 -1 4.2 5.6
-7 -1 -1 8.2 4.2
-7 -1 -1 16.3 6.9
-7 -1 -1 18.9 7
-8 -1 -1 97.99 14.7
-8 -1 -1 107.39 14.3
-8 -1 -1 110.49 14.8
-8 -1 -1 130.29 18.7
-8 -1 -1 123.59 12
-8 -1 -1 124.29 17.2
-8 -1 -1 109.49 11.5
-8 -1 -1 103.69 14.4
7 -2 -1 253.97 21.7
7 -2 -1 273.77 21.6
-7 2 1 276.47 19.1
-7 2 1 210.18 18.9
-7 2 1 208.68 14.7
6 -2 -1 412.86 23.9
6 -2 -1 411.06 24.5
-6 2 1 363.76 22.1
-6 2 1 393.46 35.5
-6 2 1 393.36 18.1
-6 2 1 398.46 23.1
5 -2 -1 164.58 14.2
5 -2 -1 199.78 15.6
-5 2 1 179.38 14.6
-5 2 1 184.78 13.3
-5 2 1 172.88 18.8
-5 2 1 175.18 7.7
-5 2 1 190.68 11.3
-5 2 1 172.48 7.1
-5 2 1 179.28 14.9
4 -2 -1 927.81 28.5
4 -2 -1 980.4 32
4 -2 -1 1014.9 32.5
-4 2 1 958.7 30.6
-4 2 1 944.61 23.6
-4 2 1 929.21 27.7
-4 2 1 901.61 30.6
-4 2 1 922.01 19.7
3 -2 -1 1678.93 41.3
3 -2 -1 1683.43 41.2
3 -2 -1 1660.73 37.5
-3 2 1 1738.53 38
-3 2 1 1734.83 41.6
-3 2 1 1693.53 34.6
-3 2 1 1691.43 40
-3 2 1 1596.84 31.2
2 -2 -1 3301.87 61.99
2 -2 -1 3470.05 62.99
2 -2 -1 3377.36 59.89
-2 2 1 3329.97 51.29
-2 2 1 3258.67 61.19
-2 2 1 3327.47 51.99
-2 2 1 3406.46 63.19
-2 2 1 3403.56 59.79
1 -2 -1 5.8 2.1
1 -2 -1 4.4 1.3
1 -2 -1 3.4 1.9
-1 2 1 5.2 2.2
-1 2 1 6.3 2.2
-1 2 1 5.2 1.9
0 -2 -1 1136.39 19.2
0 -2 -1 1095.09 23.1
0 -2 -1 1151.28 22.6
0 -2 -1 1160.48 22.2
0 2 1 1162.28 23.3
0 2 1 1117.39 23.3
0 2 1 1148.29 22
-1 -2 -1 717.13 16.3
-1 -2 -1 708.43 17
-1 -2 -1 711.63 15.9
-1 -2 -1 693.43 16.3
1 2 1 709.83 16.4
1 2 1 718.93 17
1 2 1 699.93 16.1
1 2 1 721.43 15.9
-2 -2 -1 15.9 3.3
-2 -2 -1 17.1 3.3
-2 -2 -1 16.8 2.8
-2 -2 -1 21.1 3.6
2 2 1 16.4 2.7
2 2 1 17 2.6
2 2 1 20.5 3.2
2 2 1 20.3 3.7
-3 -2 -1 211.68 11.1
-3 -2 -1 216.58 11.1
-3 -2 -1 214.98 9.3
-3 -2 -1 232.48 10.7
-3 -2 -1 225.58 9.7
-3 -2 -1 232.48 8.7
3 2 1 236.58 10.7
3 2 1 223.98 9.7
3 2 1 232.98 11.4
3 2 1 239.78 8.9
-4 -2 -1 2008.3 38.2
-4 -2 -1 1984.7 45
-4 -2 -1 2044.3 42.6
-4 -2 -1 2029.3 41.3
-4 -2 -1 2081.79 43.1
-4 -2 -1 2017 47.8
-4 -2 -1 2070.19 46
4 2 1 2023.1 37.8
4 2 1 2017.6 42.8
4 2 1 2027.9 45.5
-5 -2 -1 34.4 5
-5 -2 -1 45.5 7.4
-5 -2 -1 39 8.2
-5 -2 -1 42.9 6.5
-5 -2 -1 45.9 7.7
-5 -2 -1 38.6 6.3
-5 -2 -1 42.5 7.1
5 2 1 46.4 7.9
5 2 1 41.2 7.7
-6 -2 -1 649.24 26.3
-6 -2 -1 654.73 23
-6 -2 -1 687.93 24.1
-6 -2 -1 685.23 25.7
-6 -2 -1 634.84 28.5
-6 -2 -1 677.03 20.8
-6 -2 -1 658.93 27.5
-6 -2 -1 644.84 29.9
6 2 1 680.23 26.5
6 2 1 626.94 27.1
-7 -2 -1 45.3 8.7
-7 -2 -1 26.7 6.1
-7 -2 -1 33.2 6
-7 -2 -1 28.8 8
-7 -2 -1 28.1 7.3
-7 -2 -1 32.9 7.2
-7 -2 -1 23.8 5
-7 -2 -1 27.8 7
-8 -2 -1 460.85 26.7
-8 -2 -1 457.45 29.4
-8 -2 -1 383.56 24.2
-8 -2 -1 430.16 23.2
-8 -2 -1 438.06 25.8
-8 -2 -1 418.16 18
-8 -2 -1 393.16 25.4
-8 -2 -1 392.86 21.6
7 -3 -1 213.28 21
7 -3 -1 173.98 29.5
-7 3 1 242.48 18.8
-7 3 1 204.78 19.3
-7 3 1 207.98 22.3
6 -3 -1 61.59 12.2
6 -3 -1 39.2 11.4
-6 3 1 26.4 7.3
-6 3 1 53.59 10.6
-6 3 1 41.4 9.3
-6 3 1 32.4 9.5
-6 3 1 42.7 7.4
5 -3 -1 419.96 20.9
5 -3 -1 424.06 24.2
5 -3 -1 473.65 25.1
-5 3 1 437.56 12.1
-5 3 1 441.26 21
-5 3 1 446.56 15.6
-5 3 1 431.36 12.2
4 -3 -1 163.58 12.3
4 -3 -1 195.68 15.7
4 -3 -1 165.98 14.2
-4 3 1 157.78 12.2
-4 3 1 172.28 13.8
-4 3 1 168.08 8.1
-4 3 1 176.48 7.6
-4 3 1 174.68 14.2
3 -3 -1 1062.29 33.7
3 -3 -1 1055.69 32.8
3 -3 -1 1004.7 28.8
-3 3 1 1046 37.7
-3 3 1 1004.1 21.7
-3 3 1 1035 35.6
-3 3 1 1032.4 29.2
2 -3 -1 223.68 12.8
2 -3 -1 226.88 13.8
2 -3 -1 249.28 12.1
-2 3 1 224.78 8.6
-2 3 1 213.48 11.6
-2 3 1 229.38 12.3
1 -3 -1 2009.4 37.7
1 -3 -1 2002 40.7
1 -3 -1 2065.99 42
-1 3 1 2048.4 40.9
-1 3 1 2017.2 40.5
-1 3 1 1914.51 36.4
0 -3 -1 2898.51 50.69
0 -3 -1 2802.92 51.39
0 -3 -1 2823.42 44.7
0 -3 -1 2904.61 50.09
0 3 1 2838.12 51.19
0 3 1 2869.91 49.8
-1 -3 -1 1077.69 21.2
-1 -3 -1 1073.79 24.9
-1 -3 -1 1073.69 23
-1 -3 -1 1084.49 24.1
-1 -3 -1 1087.39 25.4
1 3 1 1093.19 25.1
1 3 1 1080.69 23.8
1 3 1 1088.59 25.2
-2 -3 -1 310.97 12.8
-2 -3 -1 325.87 12.3
-2 -3 -1 342.97 11.3
-2 -3 -1 341.37 12.9
2 3 1 339.97 13.7
2 3 1 337.17 11.2
2 3 1 326.87 13
-3 -3 -1 998.1 22
-3 -3 -1 959.3 26.7
-3 -3 -1 982.8 26.8
-3 -3 -1 1005.2 26.6
3 3 1 991.2 22.4
3 3 1 1003.9 27.5
3 3 1 952 26
3 3 1 1010.3 24.1
-4 -3 -1 576.34 16.5
-4 -3 -1 593.24 20.9
-4 -3 -1 603.24 22.1
-4 -3 -1 583.04 21.8
-4 -3 -1 541.55 15.7
4 3 1 588.24 20.5
4 3 1 584.84 16.3
4 3 1 619.04 22.4
4 3 1 598.84 19.6
-5 -3 -1 444.36 17.5
-5 -3 -1 483.45 21.8
-5 -3 -1 489.35 20
-5 -3 -1 448.86 21.1
-5 -3 -1 454.65 16.5
5 3 1 465.05 14.9
5 3 1 475.15 21.6
5 3 1 500.55 20
-6 -3 -1 76.19 11
-6 -3 -1 62.49 9.4
-6 -3 -1 56.99 6.2
-6 -3 -1 63.19 8.9
-6 -3 -1 82.79 12.5
-6 -3 -1 53.39 9.7
-6 -3 -1 68.29 8
6 3 1 59.99 9.2
6 3 1 64.09 10.1
-7 -3 -1 360.26 18.4
-7 -3 -1 357.86 23
-7 -3 -1 340.17 14.1
-7 -3 -1 341.77 23.5
-7 -3 -1 315.37 20.8
-7 -3 -1 299.17 17.5
-7 -3 -1 352.46 20.1
7 3 1 334.27 22.2
7 3 1 343.97 20.3
-8 -3 -1 214.28 21.9
-8 -3 -1 178.88 11.2
-8 -3 -1 214.58 16.2
-8 -3 -1 200.28 15.3
-8 -3 -1 191.38 15.4
-8 -3 -1 140.09 26.5
6 -4 -1 4.6 6.8
6 -4 -1 -0.1 5.2
6 -4 -1 2.7 5.6
-6 4 1 0.4 5
5 -4 -1 481.95 28.2
5 -4 -1 486.15 27.4
-5 4 1 486.95 13.8
-5 4 1 476.65 23.4
4 -4 -1 21.1 10.7
4 -4 -1 11.8 4.8
4 -4 -1 17.4 6.3
-4 4 1 25.3 4.8
-4 4 1 14 4.8
-4 4 1 35.6 8.1
-4 4 1 32.1 8.1
3 -4 -1 380.86 20.3
3 -4 -1 380.56 18.1
3 -4 -1 379.46 21.5
-3 4 1 358.26 12.8
-3 4 1 383.96 18.2
-3 4 1 376.76 19.1
2 -4 -1 108.19 11.7
2 -4 -1 96.39 9.9
2 -4 -1 84.99 13.4
-2 4 1 112.89 9.8
-2 4 1 111.59 7.4
-2 4 1 109.89 9.6
1 -4 -1 1198.78 30.8
1 -4 -1 1174.78 30.7
-1 4 1 1179.48 30.7
-1 4 1 1177.28 27.5
-1 4 1 1139.99 29.6
0 -4 -1 43.5 5.8
0 -4 -1 53.19 6.1
0 -4 -1 42.5 5.2
0 -4 -1 47.6 3.7
0 4 1 48.3 5.5
0 4 1 43.4 5.3
0 4 1 48.2 6.4
-1 -4 -1 1257.57 30.6
-1 -4 -1 1189.58 29.9
-1 -4 -1 1206.68 25.4
-1 -4 -1 1233.28 26.6
1 4 1 1259.77 30.6
1 4 1 1247.18 30.1
1 4 1 1258.87 29
-2 -4 -1 4.9 2.1
-2 -4 -1 3.7 1.7
-2 -4 -1 4.5 2.7
-2 -4 -1 3.7 2.4
2 4 1 2.6 2.5
2 4 1 3.5 1.9
2 4 1 3.4 2.9
-3 -4 -1 2528.05 52.79
-3 -4 -1 2537.25 53.49
-3 -4 -1 2520.35 51.19
-3 -4 -1 2491.55 58.29
3 4 1 2577.24 47.2
3 4 1 2552.64 53.09
3 4 1 2699.73 55.09
-4 -4 -1 99.39 9.2
-4 -4 -1 92.49 5.5
-4 -4 -1 90.89 9.9
-4 -4 -1 87.69 8.6
4 4 1 91.49 6.7
4 4 1 111.99 10.2
4 4 1 82.59 8.2
4 4 1 98.69 9.7
-5 -4 -1 1142.89 36.2
-5 -4 -1 1122.89 26.2
-5 -4 -1 1139.69 25.9
-5 -4 -1 1118.49 35.3
-5 -4 -1 1169.98 34.6
5 4 1 1158.28 26.7
5 4 1 1132.69 32.5
5 4 1 1202.28 37.5
5 4 1 1176.18 34.2
-6 -4 -1 104.69 7.7
-6 -4 -1 102.19 13.8
-6 -4 -1 112.39 11.9
-6 -4 -1 108.39 8.6
6 4 1 112.89 13.3
6 4 1 115.39 11.9
-7 -4 -1 335.27 19.8
-7 -4 -1 322.57 13.2
-7 -4 -1 336.17 16.1
-7 -4 -1 353.46 22.4
-7 -4 -1 348.17 22.3
-7 -4 -1 299.57 22.5
7 4 1 339.37 20.3
7 4 1 356.46 23.3
-8 -4 -1 30.1 8.3
-8 -4 -1 16.2 6
-8 -4 -1 19.4 7.5
-8 -4 -1 19.9 4.7
8 4 1 21.8 8.5
8 4 1 33.6 9
6 -5 -1 179.18 22.2
6 -5 -1 177.58 19.9
-6 5 1 227.18 18.6
-6 5 1 181.68 18.7
5 -5 -1 451.15 28.5
5 -5 -1 442.86 29
5 -5 -1 463.15 24.4
-5 5 1 468.25 14.6
-5 5 1 453.05 23.9
4 -5 -1 98.49 14.5
4 -5 -1 80.49 12.8
-4 5 1 92.49 12.2
-4 5 1 81.49 7.5
-4 5 1 71.49 11.6
3 -5 -1 459.45 26.3
3 -5 -1 520.15 25
3 -5 -1 509.55 22.9
-3 5 1 519.95 23.7
-3 5 1 524.95 23
-3 5 1 531.15 17.9
2 -5 -1 123.89 11
2 -5 -1 113.19 11.7
2 -5 -1 118.09 10
-2 5 1 122.09 11.4
-2 5 1 122.59 9
-2 5 1 124.49 11.1
1 -5 -1 2417.16 51.69
1 -5 -1 2478.75 53.89
1 -5 -1 2478.95 54.09
-1 5 1 2428.06 49.4
-1 5 1 2481.05 54.39
-1 5 1 2475.95 53.79
0 -5 -1 471.55 18.9
0 -5 -1 488.55 19.5
0 -5 -1 488.75 17.7
0 -5 -1 469.25 12.7
0 5 1 460.05 19.3
0 5 1 474.85 17.8
0 5 1 461.15 22
-1 -5 -1 812.92 27
-1 -5 -1 763.22 20.6
-1 -5 -1 820.32 25.8
-1 -5 -1 787.62 20.5
1 5 1 770.02 24.6
1 5 1 789.22 25.6
1 5 1 792.52 23.8
-2 -5 -1 64.49 6.6
-2 -5 -1 69.09 4.6
-2 -5 -1 65.29 7.8
-2 -5 -1 71.79 8.5
2 5 1 68.49 8
2 5 1 73.29 8.9
2 5 1 59.89 6.7
-3 -5 -1 544.35 25
-3 -5 -1 575.04 22.6
-3 -5 -1 563.94 21.1
3 5 1 517.25 22
3 5 1 559.84 18.2
3 5 1 557.04 22.1
-4 -5 -1 225.08 11.3
-4 -5 -1 241.38 15
-4 -5 -1 233.58 15.3
-4 -5 -1 243.08 14.3
4 5 1 243.98 11.6
4 5 1 255.77 15.4
4 5 1 222.48 15.8
4 5 1 254.37 14.2
-5 -5 -1 222.48 14.9
-5 -5 -1 239.28 16.1
-5 -5 -1 240.68 11.3
-5 -5 -1 248.58 17
5 5 1 242.98 11.7
5 5 1 218.68 14.3
5 5 1 248.98 17
5 5 1 223.48 15.4
-6 -5 -1 76.79 10.5
-6 -5 -1 70.99 5.9
-6 -5 -1 75.69 10.1
-6 -5 -1 73.99 7.3
6 5 1 75.29 12.1
6 5 1 75.19 7.5
6 5 1 71.09 10.1
-7 -5 -1 385.26 24.8
-7 -5 -1 397.76 22.2
-7 -5 -1 408.66 15.3
-7 -5 -1 426.66 25.2
-7 -5 -1 414.06 28.7
-7 -5 -1 429.96 14.9
7 5 1 429.46 24.5
7 5 1 367.56 24.8
-8 -5 -1 14.5 4.1
-8 -5 -1 29.1 7.9
-8 -5 -1 27 6.9
-8 -5 -1 16.7 9.6
8 5 1 29.4 9.3
8 5 1 6.3 9.5
5 -6 -1 11.3 7.1
5 -6 -1 11.7 7.7
-5 6 1 18.4 4.3
-5 6 1 9.7 7.1
4 -6 -1 350.86 24.2
4 -6 -1 406.06 27.9
4 -6 -1 373.06 22.1
-4 6 1 389.36 23.1
-4 6 1 353.96 23.1
-4 6 1 381.96 15.8
3 -6 -1 211.28 17.9
3 -6 -1 207.78 16.5
3 -6 -1 181.48 18.8
-3 6 1 206.98 12.3
-3 6 1 192.98 15.8
-3 6 1 225.78 16.8
2 -6 -1 766.92 30.1
2 -6 -1 753.82 34.4
-2 6 1 723.43 24
-2 6 1 705.13 28.4
1 -6 -1 20.8 5.7
1 -6 -1 11.2 4.6
1 -6 -1 27.3 6.6
-1 6 1 23.7 6.6
-1 6 1 20 5.6
-1 6 1 19.2 7.9
0 -6 -1 240.68 15.1
0 -6 -1 211.48 14.5
0 -6 -1 237.78 13.4
0 -6 -1 229.38 9
0 6 1 217.38 13.7
0 6 1 232.38 15.7
0 6 1 231.08 14.2
-1 -6 -1 803.72 27.8
-1 -6 -1 784.62 22.1
-1 -6 -1 784.32 28
-1 -6 -1 794.72 22.6
1 6 1 783.52 26
1 6 1 813.72 27.4
1 6 1 836.22 28.5
-2 -6 -1 625.64 25.5
-2 -6 -1 663.23 22.1
-2 -6 -1 659.13 24.9
-2 -6 -1 672.03 17.2
2 6 1 705.03 26.1
2 6 1 698.43 25.9
2 6 1 682.63 22.8
-3 -6 -1 316.97 16.5
-3 -6 -1 328.87 18.5
-3 -6 -1 317.87 17.4
3 6 1 279.77 17
3 6 1 294.17 14.3
3 6 1 311.97 18.2
-4 -6 -1 289.57 17.1
-4 -6 -1 279.57 18.1
-4 -6 -1 253.97 16.5
4 6 1 273.57 18
4 6 1 265.27 13.5
4 6 1 281.27 16
-5 -6 -1 653.93 28.3
-5 -6 -1 637.04 26.4
5 6 1 666.43 21.5
5 6 1 618.14 28.7
5 6 1 673.13 25.8
-6 -6 -1 199.38 16.8
-6 -6 -1 199.98 17.1
-6 -6 -1 206.88 15.7
6 6 1 209.58 11.5
6 6 1 178.58 16.2
6 6 1 184.38 17.5
6 6 1 203.98 15.8
-7 -6 -1 25.2 8.7
-7 -6 -1 23.6 7.9
7 6 1 17.7 6.6
7 6 1 8.4 6.9
7 6 1 28.7 8.9
7 6 1 20.1 4.9
-8 -6 -1 171.28 17.4
8 6 1 134.59 17.6
8 6 1 183.38 19.9
4 -7 -1 366.46 25.4
4 -7 -1 326.77 28.6
-4 7 1 383.56 27.2
-4 7 1 421.96 18.4
3 -7 -1 7.3 5.7
3 -7 -1 -3.7 5.1
-3 7 1 0.9 4
-3 7 1 -8.7 4.2
2 -7 -1 330.37 20.8
2 -7 -1 298.07 20.1
2 -7 -1 257.57 23.6
-2 7 1 328.77 20.5
-2 7 1 225.28 17.1
-2 7 1 296.97 16.5
1 -7 -1 3.1 4.4
1 -7 -1 0.7 5.4
1 -7 -1 7.4 4.8
-1 7 1 7.6 5.6
-1 7 1 6.2 3.9
-1 7 1 2.6 4
0 -7 -1 1094.49 32.8
0 -7 -1 1148.99 24
0 -7 -1 1114.89 37.2
0 7 1 1138.79 35
0 7 1 1140.39 37.7
-1 -7 -1 -0.5 3.2
-1 -7 -1 5.1 3.9
-1 -7 -1 -5.3 3.2
1 7 1 1.7 3.1
1 7 1 4.2 4.8
1 7 1 0 3.2
-2 -7 -1 491.05 19.8
-2 -7 -1 485.45 15.3
2 7 1 508.05 21.4
2 7 1 496.35 23.5
2 7 1 479.25 22.9
-3 -7 -1 90.19 11.7
-3 -7 -1 77.69 9.8
-3 -7 -1 75.69 11.3
3 7 1 78.89 11.3
3 7 1 76.29 12.3
3 7 1 76.79 9.4
-4 -7 -1 1063.29 35.6
-4 -7 -1 1057.79 35.5
-4 -7 -1 964 36.9
4 7 1 1016.2 30
4 7 1 1045.3 37.6
-5 -7 -1 13.2 6.1
-5 -7 -1 21 8.1
5 7 1 19.8 6.2
5 7 1 21.8 5.5
5 7 1 35 8.1
-6 -7 -1 288.37 19.6
-6 -7 -1 303.27 22
-6 -7 -1 317.57 23.3
6 7 1 286.97 22
6 7 1 335.67 29.2
6 7 1 282.97 16.1
-7 -7 -1 68.69 13.9
7 7 1 88.59 14.4
7 7 1 54.09 8.8
7 7 1 64.29 13.3
2 -8 -1 216.88 24.3
2 -8 -1 217.08 18.5
-2 8 1 211.48 15.5
-2 8 1 229.98 19.7
1 -8 -1 73.99 13.2
1 -8 -1 71.39 11.8
-1 8 1 60.89 10.7
-1 8 1 74.59 14.1
0 -8 -1 487.65 25.6
0 -8 -1 524.45 23
0 -8 -1 533.25 27.2
0 8 1 512.05 26.4
0 8 1 477.45 24.3
0 8 1 542.15 25.2
-1 -8 -1 66.79 11.2
-1 -8 -1 69.59 8.9
-1 -8 -1 75.79 11.9
-1 -8 -1 64.69 8.1
1 8 1 78.79 11.4
1 8 1 85.69 11.8
-2 -8 -1 520.55 26.3
-2 -8 -1 554.84 23.5
-2 -8 -1 535.45 27.8
2 8 1 576.24 26.7
2 8 1 568.54 27.9
-3 -8 -1 35.4 9.3
-3 -8 -1 20 6.4
-3 -8 -1 15.8 7
3 8 1 27.7 7.2
3 8 1 26.2 8.1
-4 -8 -1 108.69 13.6
-4 -8 -1 75.79 13.1
4 8 1 102.19 14.3
4 8 1 81.79 10.3
4 8 1 64.69 12.3
-5 -8 -1 163.58 16.9
-5 -8 -1 146.79 16.7
5 8 1 173.18 13.8
5 8 1 159.28 17.3
5 8 1 152.68 15.8
-6 -8 -1 388.56 25.5
6 8 1 252.07 25.7
6 8 1 330.17 17.5
6 8 1 336.87 21.3
1 -9 -1 174.78 18.1
-1 9 1 160.48 16.8
-1 9 1 172.48 19
0 -9 -1 4.2 6
0 9 1 3.9 6.5
0 9 1 5.9 7
-1 -9 -1 398.56 25.7
-1 -9 -1 408.36 16.4
1 9 1 407.56 24.3
-2 -9 -1 130.89 12.2
-2 -9 -1 159.08 17.9
2 9 1 123.99 14.9
2 9 1 128.19 15.2
-3 -9 -1 151.88 17.3
3 9 1 162.78 16.9
3 9 1 178.08 15.3
-4 -9 -1 159.48 18.7
-4 -9 -1 179.78 18.3
4 9 1 194.78 18.7
4 9 1 152.48 23.2
-5 -9 -1 70.29 14.8
5 9 1 64.79 14.8
5 9 1 101.89 15.6
3 9 -2 85.09 12.6
3 9 -2 90.29 13.9
-3 -9 2 105.19 17.5
-3 -9 2 91.59 14.1
2 9 -2 151.18 15.1
2 9 -2 153.68 15.1
-2 -9 2 142.79 18.7
1 9 -2 83.69 11.8
-1 -9 2 75.99 14.8
0 9 -2 241.28 16.6
0 -9 2 229.38 23.6
0 -9 2 248.88 25.4
5 8 -2 182.88 11.1
5 8 -2 184.18 19
5 8 -2 215.78 19.2
-5 -8 2 173.98 23.5
4 8 -2 10.9 7
4 8 -2 19.7 5.3
-4 -8 2 31.1 8.5
3 8 -2 204.98 16.6
3 8 -2 180.38 13.5
-3 -8 2 208.88 20
2 8 -2 311.97 24.7
-2 -8 2 254.37 21.4
1 8 -2 272.67 17.7
1 8 -2 243.08 19.5
1 8 -2 256.17 16.1
-1 -8 2 253.77 21.5
-1 -8 2 233.58 20.8
0 8 -2 52.99 12.4
0 8 -2 80.99 12.3
0 8 -2 83.09 9.4
0 -8 2 76.99 13.4
-1 8 -2 139.39 15.7
-1 8 -2 152.88 14
-1 8 -2 150.18 12.1
1 -8 2 165.78 20.8
-2 8 -2 14 7
-2 8 -2 26.9 8
-2 8 -2 20.7 6.4
2 -8 2 6.3 9.1
6 7 -2 51.99 10.9
6 7 -2 40.4 10.9
-6 -7 2 35.7 8.5
5 7 -2 367.16 24
5 7 -2 388.46 24.5
5 7 -2 355.56 12.5
5 7 -2 400.56 23.9
-5 -7 2 366.56 24
4 7 -2 -3.4 4.6
4 7 -2 -2.7 4
4 7 -2 -0.7 3
-4 -7 2 4 4.9
-4 -7 2 7.3 5.6
3 7 -2 493.05 23
3 7 -2 489.25 24.4
-3 -7 2 439.96 25
2 7 -2 116.39 10.7
2 7 -2 126.69 11.8
-2 -7 2 121.29 14.8
1 7 -2 571.04 22.2
1 7 -2 544.85 23
1 7 -2 539.75 25.9
-1 -7 2 579.84 29
0 7 -2 11.8 4.8
0 7 -2 2.6 4.5
0 7 -2 6.8 4.4
0 -7 2 5.7 4.5
-1 7 -2 496.95 22
-1 7 -2 516.65 25
-1 7 -2 539.45 20.6
1 -7 2 497.85 30.5
1 -7 2 505.15 25.1
-2 7 -2 0.6 3.2
-2 7 -2 6.9 5.8
-2 7 -2 19.4 6.7
2 -7 2 11.9 5.4
2 -7 2 5.6 6.2
-3 7 -2 761.92 32.7
-3 7 -2 806.62 32.1
-3 7 -2 742.83 32.9
3 -7 2 741.33 31.9
3 -7 2 684.73 39.5
-4 7 -2 10.4 8.2
-4 7 -2 12.6 6.3
4 -7 2 23.2 9.3
7 6 -2 63.59 14.5
7 6 -2 20.7 8.9
-7 -6 2 33.6 9.4
6 6 -2 153.18 16.6
6 6 -2 171.48 17.8
6 6 -2 178.68 16.5
-6 -6 2 193.68 17.2
-6 -6 2 160.48 18.8
-6 -6 2 163.68 17.7
5 6 -2 291.97 19.7
5 6 -2 304.37 19.8
5 6 -2 289.87 20.4
-5 -6 2 296.87 20.2
-5 -6 2 276.67 21.7
4 6 -2 73.49 11.2
4 6 -2 77.69 6.6
4 6 -2 71.59 16.8
-4 -6 2 78.79 12
3 6 -2 282.07 12.6
3 6 -2 291.07 17
3 6 -2 217.88 16.8
2 6 -2 180.78 12.7
2 6 -2 200.18 11.7
-2 -6 2 191.08 15.8
-2 -6 2 208.18 14.9
1 6 -2 1008.5 33.9
1 6 -2 1007.5 28.8
1 6 -2 1002.4 24
-1 -6 2 977.4 32.6
-1 -6 2 1012.3 35.9
0 6 -2 45.6 6.7
0 6 -2 71.79 8
0 6 -2 53.09 9.6
0 -6 2 55.49 8.9
0 -6 2 55.89 10.2
-1 6 -2 272.27 17.2
-1 6 -2 251.77 15.8
-1 6 -2 227.68 12.2
-1 6 -2 254.87 15.1
1 -6 2 253.37 16.2
1 -6 2 262.37 20.7
-2 6 -2 257.77 17.1
-2 6 -2 247.48 16.5
-2 6 -2 255.57 16.8
2 -6 2 228.48 15.9
2 -6 2 231.48 12
2 -6 2 285.17 21.9
-3 6 -2 462.55 22.6
-3 6 -2 511.95 23.5
3 -6 2 436.06 29.1
3 -6 2 504.05 15.8
-4 6 -2 36.1 9.5
-4 6 -2 65.29 11.5
-4 6 -2 68.09 9.8
4 -6 2 49 12.5
4 -6 2 42.6 10.4
-5 6 -2 398.76 21.2
-5 6 -2 407.56 22.8
-5 6 -2 426.76 20
5 -6 2 368.06 30.1
5 -6 2 426.76 24.9
8 5 -2 232.88 31.1
8 5 -2 208.68 18.7
-8 -5 2 252.47 23.6
-8 -5 2 264.37 20.9
7 5 -2 34.1 9.7
7 5 -2 26.3 6.8
-7 -5 2 65.19 12
-7 -5 2 39.8 8.8
6 5 -2 434.96 24.9
6 5 -2 443.26 25.3
-6 -5 2 430.76 25
-6 -5 2 412.56 22.7
5 5 -2 159.78 13.7
5 5 -2 152.48 14.9
5 5 -2 155.38 15
-5 -5 2 150.28 13.6
4 5 -2 866.11 31.8
4 5 -2 875.21 31
4 5 -2 882.31 18.5
4 5 -2 868.81 30.5
-4 -5 2 871.71 31.4
-4 -5 2 854.21 30.4
3 5 -2 326.17 17.1
3 5 -2 295.37 11.3
3 5 -2 316.57 17.3
-3 -5 2 311.17 17.9
-3 -5 2 297.87 16.9
2 5 -2 851.01 26.1
2 5 -2 830.42 22.7
2 5 -2 835.12 28.6
-2 -5 2 838.02 28.1
-2 -5 2 864.61 30
1 5 -2 215.58 8.9
1 5 -2 203.78 11.4
1 5 -2 222.38 14.1
-1 -5 2 206.48 14.6
-1 -5 2 230.08 13.8
0 5 -2 1051.19 27.3
0 5 -2 1082.89 26.9
0 5 -2 1085.49 33
0 -5 2 1091.59 34.7
0 -5 2 1066.69 30.9
-1 5 -2 1039.7 30.1
-1 5 -2 991.9 31.4
-1 5 -2 962.2 28.9
1 -5 2 986.6 29.9
1 -5 2 979.9 36.1
-2 5 -2 42.1 8.1
-2 5 -2 52.29 8.5
-2 5 -2 53.49 8.7
2 -5 2 71.69 11.5
2 -5 2 52.69 10.2
2 -5 2 53.99 8.3
-3 5 -2 9.4 4.6
-3 5 -2 8.8 4.4
-3 5 -2 8.5 5.6
3 -5 2 6.9 3.9
3 -5 2 5.2 4.7
-4 5 -2 408.46 24
-4 5 -2 384.06 19.7
-4 5 -2 409.66 20.1
4 -5 2 400.86 28
4 -5 2 413.86 20.6
4 -5 2 385.86 15.2
-5 5 -2 116.79 11.6
-5 5 -2 137.99 13.2
-5 5 -2 145.29 12.4
5 -5 2 110.19 18.4
-6 5 -2 125.89 13.4
-6 5 -2 139.79 13.1
-6 5 -2 150.38 14.8
6 -5 2 108.49 14.6
6 -5 2 107.69 19.7
8 4 -2 227.68 21.2
-8 -4 2 200.28 15.9
-8 -4 2 208.88 20
7 4 -2 -3.3 5.5
7 4 -2 -3.8 3.5
-7 -4 2 0.3 4.6
-7 -4 2 -0.2 5.1
-7 -4 2 0 6.8
-7 -4 2 8.4 5.2
6 4 -2 213.28 17.8
6 4 -2 193.08 14.3
-6 -4 2 234.18 15.9
5 4 -2 12.8 5.6
5 4 -2 31.6 7.6
5 4 -2 16.4 6.3
-5 -4 2 19.2 6
-5 -4 2 15.6 5
4 4 -2 937.11 31.9
4 4 -2 937.91 29.5
4 4 -2 989.4 31.7
-4 -4 2 931.01 31.2
-4 -4 2 909.31 29.7
3 4 -2 13.2 2.9
3 4 -2 10.6 3.9
3 4 -2 9.1 4.1
-3 -4 2 13 4.5
-3 -4 2 18 5.1
2 4 -2 321.67 14.3
2 4 -2 331.07 15.7
2 4 -2 322.37 11.4
-2 -4 2 320.27 14.3
-2 -4 2 322.97 16.1
-2 -4 2 328.87 15.5
1 4 -2 492.85 22.6
1 4 -2 481.75 19.1
1 4 -2 485.75 13.3
-1 -4 2 509.35 18.8
-1 -4 2 522.85 20.6
0 4 -2 1606.04 34.5
0 4 -2 1671.23 40.1
0 4 -2 1652.83 33.3
0 -4 2 1665.73 37.9
0 -4 2 1607.24 41
-1 4 -2 48.5 6.4
-1 4 -2 45.4 6.9
-1 4 -2 45.6 6.8
1 -4 2 35.2 6.1
1 -4 2 47.8 9.2
-2 4 -2 2015 46.7
-2 4 -2 2036 44
-2 4 -2 2011.9 47.5
2 -4 2 1997.6 40.6
2 -4 2 1971.8 43.8
2 -4 2 2018.3 54.29
-3 4 -2 189.38 13
-3 4 -2 176.38 11.7
-3 4 -2 207.18 14.8
3 -4 2 169.48 16.3
3 -4 2 191.18 12.9
3 -4 2 201.08 12.5
-4 4 -2 662.73 25
-4 4 -2 660.53 23.5
4 -4 2 656.13 20.9
4 -4 2 648.74 23.9
4 -4 2 641.04 32.6
-5 4 -2 50.19 8.5
-5 4 -2 52.49 11.6
-5 4 -2 46.6 9.2
-5 4 -2 61.89 8.6
5 -4 2 31.1 9
5 -4 2 65.89 8.4
5 -4 2 74.39 10.3
-6 4 -2 552.34 23.4
-6 4 -2 598.54 24.4
-6 4 -2 504.65 22.6
6 -4 2 568.14 34.8
8 3 -2 117.59 17.8
-8 -3 2 114.99 12.4
-8 -3 2 115.99 15.6
-8 -3 2 96.89 14.7
7 3 -2 144.89 16.6
-7 -3 2 151.08 15.8
-7 -3 2 176.48 16.8
-7 -3 2 147.59 15.9
-7 -3 2 152.38 12.9
6 3 -2 601.34 22
6 3 -2 636.64 31.8
6 3 -2 577.64 22.5
-6 -3 2 595.64 23.3
-6 -3 2 595.64 27.5
-6 -3 2 625.64 25.8
5 3 -2 705.13 23.9
5 3 -2 719.73 28.5
-5 -3 2 710.33 24.5
-5 -3 2 675.83 28
4 3 -2 593.04 20.7
4 3 -2 604.34 23.8
4 3 -2 612.44 23.6
4 3 -2 582.54 16
-4 -3 2 571.64 23.2
-4 -3 2 567.64 20.8
3 3 -2 229.58 12.7
3 3 -2 215.48 13.5
3 3 -2 230.38 12.1
3 3 -2 215.58 7.1
-3 -3 2 234.98 12.9
-3 -3 2 219.98 12.3
2 3 -2 1722.73 38.8
2 3 -2 1794.62 38.1
-2 -3 2 1769.62 39.8
-2 -3 2 1785.72 38.3
1 3 -2 4.7 2.6
1 3 -2 3 1.9
-1 -3 2 2.8 2.5
-1 -3 2 4.4 2.4
-1 -3 2 5.1 2.6
0 3 -2 1260.97 25.1
0 3 -2 1256.47 27.5
0 3 -2 1306.47 31.6
0 -3 2 1303.37 29.3
0 -3 2 1282.97 32.4
-1 3 -2 1686.33 37
-1 3 -2 1620.04 38
-1 3 -2 1711.73 35.6
1 -3 2 1716.93 42
1 -3 2 1691.03 35.2
-2 3 -2 659.93 22.3
-2 3 -2 687.83 23.2
-2 3 -2 644.84 19.1
2 -3 2 660.93 26
2 -3 2 664.13 19.4
2 -3 2 639.14 18.7
-3 3 -2 119.39 10.9
-3 3 -2 127.29 8.9
-3 3 -2 117.79 10.2
3 -3 2 116.79 12.4
3 -3 2 124.89 9
3 -3 2 118.09 12.5
-4 3 -2 785.52 23.3
-4 3 -2 718.23 25.4
-4 3 -2 742.63 22.1
-4 3 -2 763.22 29.5
4 -3 2 747.23 23.6
4 -3 2 750.02 23.2
4 -3 2 765.52 33.2
-5 3 -2 268.27 14.4
-5 3 -2 276.97 14.7
-5 3 -2 238.88 18.5
5 -3 2 244.08 20.9
5 -3 2 285.57 15
5 -3 2 290.77 15.3
-6 3 -2 177.38 13.8
-6 3 -2 148.99 13.2
-6 3 -2 179.08 13.1
-6 3 -2 163.98 16.8
-6 3 -2 174.58 17.1
6 -3 2 156.28 18.9
-7 3 -2 54.39 10.9
-7 3 -2 68.39 13.2
-7 3 -2 57.59 10
-7 3 -2 56.29 10.8
7 -3 2 48.8 11.5
8 2 -2 23.1 8.4
-8 -2 2 14.4 6.5
-8 -2 2 18.9 6.6
-8 -2 2 25.5 6
7 2 -2 277.07 22.3
7 2 -2 307.77 19
-7 -2 2 254.47 20.2
-7 -2 2 312.37 21.4
-7 -2 2 297.67 19.5
-7 -2 2 292.27 20.3
-7 -2 2 288.67 15.6
-7 -2 2 269.17 19.6
6 2 -2 5.9 4.1
6 2 -2 3 5.8
-6 -2 2 4.5 4.3
-6 -2 2 11.1 4.9
-6 -2 2 0.4 3.6
-6 -2 2 4.4 3.6
-6 -2 2 8 4.3
5 2 -2 525.55 19.4
5 2 -2 478.25 17.5
5 2 -2 519.45 23.8
-5 -2 2 470.75 17.9
-5 -2 2 509.65 22.8
-5 -2 2 505.05 20.4
-5 -2 2 461.05 22.4
4 2 -2 448.46 15.8
4 2 -2 445.36 15.5
4 2 -2 447.66 20
-4 -2 2 431.46 16.2
-4 -2 2 421.36 19.2
3 2 -2 2662.33 52.79
3 2 -2 2534.25 44.6
3 2 -2 2490.25 47.7
3 2 -2 2604.04 53.39
-3 -2 2 2483.05 51.69
-3 -2 2 2452.35 53.59
2 2 -2 1124.49 26.1
2 2 -2 1092.79 28
2 2 -2 1163.78 27.2
-2 -2 2 1162.88 27.3
-2 -2 2 1086.19 26.4
1 2 -2 1769.52 32.9
1 2 -2 1748.43 35.4
-1 -2 2 1687.93 32.5
-1 -2 2 1751.52 36.1
0 2 -2 534.45 16.8
0 2 -2 566.64 12.1
0 -2 2 573.34 15.2
0 -2 2 544.25 17.4
-1 2 -2 347.07 13.7
-1 2 -2 357.16 13.3
-1 2 -2 337.57 11
1 -2 2 352.96 15.1
1 -2 2 340.67 10.9
-2 2 -2 1555.04 36.5
-2 2 -2 1599.54 36.2
-2 2 -2 1568.64 38.9
-2 2 -2 1516.15 30.2
2 -2 2 1514.65 32.1
2 -2 2 1521.05 30.4
2 -2 2 1594.94 40
-3 2 -2 328.97 17.5
-3 2 -2 327.97 11.9
-3 2 -2 310.77 11.3
-3 2 -2 336.87 16.7
3 -2 2 334.37 18.4
3 -2 2 336.57 12.3
-4 2 -2 208.08 10.7
-4 2 -2 226.28 16.4
-4 2 -2 208.58 10.6
-4 2 -2 228.28 15.2
4 -2 2 218.78 12.2
4 -2 2 249.97 17.7
4 -2 2 219.18 11
-5 2 -2 336.77 16
-5 2 -2 334.37 21.8
-5 2 -2 349.77 15.1
-5 2 -2 324.37 19.6
5 -2 2 339.57 16.6
5 -2 2 330.77 14.9
5 -2 2 325.17 22
-6 2 -2 352.36 24.2
-6 2 -2 326.67 17.2
-6 2 -2 357.96 16.4
-6 2 -2 324.77 21.4
-6 2 -2 355.06 20.2
6 -2 2 335.57 24.1
-7 2 -2 483.35 20.5
-7 2 -2 467.85 24.3
-7 2 -2 506.95 21.4
-7 2 -2 495.15 22.9
-7 2 -2 419.96 29.6
-7 2 -2 483.45 27.6
7 -2 2 444.46 29.4
-8 -1 2 -0.5 3
-8 -1 2 8.3 6.4
-8 -1 2 -5.6 4.9
-8 -1 2 -1.5 3.3
-8 -1 2 -7.5 6.7
-8 -1 2 8.9 4
7 1 -2 642.44 32.6
7 1 -2 666.13 33
-7 -1 2 661.83 28.1
-7 -1 2 621.44 22.3
-7 -1 2 664.13 32
-7 -1 2 656.43 21.3
-7 -1 2 644.14 17.6
-7 -1 2 710.43 32.2
-7 -1 2 681.23 29.4
-7 -1 2 687.13 29.5
6 1 -2 63.09 13.2
6 1 -2 67.19 9.9
-6 -1 2 53.09 9.4
-6 -1 2 49.5 9.7
-6 -1 2 54.69 9.5
-6 -1 2 60.19 6.9
-6 -1 2 53.99 10.3
-6 -1 2 55.49 5.6
-6 -1 2 42.4 9.7
5 1 -2 416.06 21.6
5 1 -2 445.36 19.5
-5 -1 2 421.96 12
-5 -1 2 436.86 21.6
-5 -1 2 447.06 20.4
-5 -1 2 434.86 19.7
-5 -1 2 454.35 18.7
-5 -1 2 431.46 20.8
4 1 -2 268.57 10.6
4 1 -2 274.87 13.3
4 1 -2 254.47 15.3
-4 -1 2 277.97 11.2
-4 -1 2 274.87 12.7
-4 -1 2 277.77 15.1
-4 -1 2 275.57 7.8
-4 -1 2 273.07 15.1
3 1 -2 1299.17 28.9
3 1 -2 1309.57 33.3
3 1 -2 1324.67 26.8
-3 -1 2 1277.07 32.3
-3 -1 2 1281.97 26.9
-3 -1 2 1278.67 32.7
-3 -1 2 1328.67 27.8
2 1 -2 1.9 2.2
2 1 -2 1.4 1.1
2 1 -2 3.4 1.7
-2 -1 2 0.9 1.8
-2 -1 2 3.2 1.9
-2 -1 2 2.2 1.5
1 1 -2 1127.99 19.1
1 1 -2 1086.39 23.2
-1 -1 2 1146.09 23.9
-1 -1 2 1124.49 23.3
0 1 -2 575.54 13
0 1 -2 572.34 15.7
0 -1 2 595.04 14.7
0 -1 2 561.34 11.3
-1 1 -2 3792.62 65.29
1 -1 2 3715.13 57.29
1 -1 2 3785.42 65.69
-2 1 -2 10.4 2.9
-2 1 -2 16.3 2.4
-2 1 -2 17 4.2
-2 1 -2 14.9 2.5
2 -1 2 15.9 2.5
2 -1 2 11.6 3.3
2 -1 2 18.1 3.7
-3 1 -2 2741.23 46.8
-3 1 -2 2770.52 48.8
-3 1 -2 2808.22 52.59
-3 1 -2 2782.42 59.69
-3 1 -2 2737.63 56.69
3 -1 2 2743.63 60.49
3 -1 2 2789.82 47.4
3 -1 2 3020.3 59.69
-4 1 -2 7.2 3
-4 1 -2 14.4 3.3
-4 1 -2 2.5 3.4
-4 1 -2 7.1 3.7
-4 1 -2 15.5 4.4
-4 1 -2 9.1 4.2
-4 1 -2 7.2 3.8
4 -1 2 15.4 4.6
4 -1 2 3.6 2.8
-5 1 -2 734.23 24
-5 1 -2 796.42 26.3
-5 1 -2 788.52 21.9
-5 1 -2 736.43 31.3
-5 1 -2 778.92 28.6
-5 1 -2 816.02 30.2
-5 1 -2 763.82 25.7
5 -1 2 760.82 26.1
5 -1 2 747.83 31.5
-6 1 -2 127.19 11.7
-6 1 -2 144.09 13.9
-6 1 -2 110.79 11.6
-6 1 -2 126.09 9.7
-6 1 -2 129.49 11.5
-6 1 -2 140.39 14.1
-6 1 -2 124.49 14.1
-7 1 -2 292.97 19
-7 1 -2 372.46 32.4
-7 1 -2 328.67 24.8
-7 1 -2 298.47 16.4
-7 1 -2 330.07 19.5
-7 1 -2 289.37 18.5
-7 1 -2 328.27 22.1
-7 1 -2 329.97 16.3
-8 1 -2 50.39 9.2
-8 1 -2 59.79 10.3
-8 1 -2 86.49 13.5
-8 1 -2 61.79 12.9
-8 1 -2 56.99 10.4
8 0 -2 301.07 23.8
-8 0 2 327.17 15.4
-8 0 2 293.37 21.2
-8 0 2 336.07 22.1
-8 0 2 317.07 21.2
-8 0 2 315.27 16.3
7 0 -2 256.97 20
-7 0 2 253.47 20.1
-7 0 2 264.87 18.7
-7 0 2 242.48 17.9
-7 0 2 255.87 10.9
-7 0 2 273.07 13.8
-7 0 2 256.57 19.8
-7 0 2 256.97 18.3
6 0 -2 246.38 17.2
-6 0 2 259.27 16.7
-6 0 2 276.77 18.7
-6 0 2 262.07 17
-6 0 2 276.27 16.8
-6 0 2 269.17 19.3
-6 0 2 251.67 16.4
-6 0 2 251.97 10.6
5 0 -2 666.73 28.2
5 0 -2 715.73 26.5
-5 0 2 702.63 24
-5 0 2 679.03 27
-5 0 2 676.13 24.7
-5 0 2 683.23 25.3
-5 0 2 691.13 24.4
-5 0 2 647.64 27
-5 0 2 660.13 16.8
4 0 -2 262.97 14.2
4 0 -2 266.07 15.7
-4 0 2 255.57 15.3
-4 0 2 264.47 12.6
-4 0 2 291.67 14.2
-4 0 2 257.77 14.1
-4 0 2 270.97 14.8
-4 0 2 248.88 8.7
3 0 -2 1089.29 27.1
3 0 -2 1030.5 28.9
-3 0 2 1014.1 28.9
-3 0 2 1023.9 27.7
-3 0 2 986.2 26.3
-3 0 2 977 20.1
-3 0 2 1023.9 23.4
-3 0 2 955.6 19.2
2 0 -2 903.81 23.4
2 0 -2 852.41 16.1
2 0 -2 849.02 21.3
-2 0 2 859.41 21.8
-2 0 2 809.52 18.1
-2 0 2 911.41 22.7
-2 0 2 879.41 17.3
-2 0 2 877.51 16.7
1 0 -2 3554.94 55.39
1 0 -2 3738.53 60.39
1 0 -2 3704.33 56.39
-1 0 2 3719.23 60.09
-1 0 2 3604.64 55.39
0 0 -2 17.3 2
0 0 -2 18.2 2.1
0 0 2 15 1.9
0 0 2 15.3 2.1
-1 0 -2 3777.32 61.19
-1 0 -2 3906.71 64.39
1 0 2 3945.21 63.09
1 0 2 3843.72 61.59
1 0 2 3878.31 64.19
-2 0 -2 543.15 14.9
-2 0 -2 498.95 12.6
-2 0 -2 512.55 17.5
-2 0 -2 548.75 15.7
-2 0 -2 524.65 9.6
2 0 2 511.15 15.5
2 0 2 538.35 17.8
2 0 2 503.95 12.8
-3 0 -2 1584.74 36.8
-3 0 -2 1567.54 33.6
-3 0 -2 1596.34 39.5
-3 0 -2 1548.05 31.7
-3 0 -2 1641.44 34.5
-3 0 -2 1602.84 28.1
-3 0 -2 1620.44 35.2
3 0 2 1607.24 39.5
3 0 2 1600.84 32.6
3 0 2 1582.74 35.2
-4 0 -2 88.09 7.8
-4 0 -2 85.39 10.2
-4 0 -2 83.49 8.2
-4 0 -2 93.19 7.2
-4 0 -2 82.39 8.1
-4 0 -2 86.99 6
-4 0 -2 84.39 8.9
4 0 2 101.29 10.8
4 0 2 81.69 8.4
-5 0 -2 632.44 23.9
-5 0 -2 590.14 21.3
-5 0 -2 626.74 21.7
-5 0 -2 608.54 27.6
-5 0 -2 584.64 22.5
-5 0 -2 602.44 18
-5 0 -2 557.04 24
-5 0 -2 589.74 20.5
5 0 2 630.24 27
5 0 2 620.94 23.6
-6 0 -2 371.56 17.1
-6 0 -2 416.96 20.5
-6 0 -2 373.86 18.9
-6 0 -2 343.07 22.5
-6 0 -2 359.36 20
-6 0 -2 371.76 20.7
-6 0 -2 346.37 17.2
-6 0 -2 376.66 15.6
-7 0 -2 616.44 24.7
-7 0 -2 578.14 27.7
-7 0 -2 568.44 31.5
-7 0 -2 602.14 23.3
-7 0 -2 552.94 21.1
-7 0 -2 570.44 28.6
-7 0 -2 575.94 26.4
-7 0 -2 608.94 26
-8 0 -2 19.1 5.7
-8 0 -2 12.5 7.3
-8 0 -2 14.1 10.5
-8 0 -2 20.8 5
-8 0 -2 16.4 5.7
-8 0 -2 5.6 7.9
-8 0 -2 25.6 8.1
-8 1 2 92.39 11.2
-8 1 2 115.99 14.1
-8 1 2 101.89 12.4
-8 1 2 87.29 14.3
7 -1 -2 8.6 6.9
-7 1 2 6.4 5.2
-7 1 2 5.8 6
-7 1 2 15.8 6.9
-7 1 2 -2.9 6.6
-7 1 2 -2.6 7.8
6 -1 -2 721.03 31.2
-6 1 2 671.03 30.1
-6 1 2 692.03 28.7
-6 1 2 716.43 33.5
-6 1 2 726.73 26.3
5 -1 -2 315.67 17
5 -1 -2 307.97 18
-5 1 2 272.77 18.1
-5 1 2 298.07 16.9
-5 1 2 321.07 17.8
-5 1 2 285.17 14.4
-5 1 2 264.77 17.1
4 -1 -2 651.93 22.1
4 -1 -2 661.33 24.6
-4 1 2 646.84 24.7
-4 1 2 672.73 23.7
-4 1 2 675.73 23.5
-4 1 2 637.14 20.1
3 -1 -2 406.76 14.9
3 -1 -2 397.66 17.8
3 -1 -2 421.36 17.1
-3 1 2 401.46 16
-3 1 2 410.16 16.3
2 -1 -2 4122.69 70.89
2 -1 -2 4208.78 68.09
2 -1 -2 4522.95 80.99
-2 1 2 4108.79 71.99
-2 1 2 4017.3 66.59
-2 1 2 4012.6 74.89
1 -1 -2 1142.09 18.3
1 -1 -2 1153.68 22.8
1 -1 -2 1170.88 25
1 -1 -2 1127.79 24
-1 1 2 1160.68 24.4
-1 1 2 1147.69 22.4
-1 1 2 1158.98 24.4
0 -1 -2 1439.06 26
0 -1 -2 1387.56 25.3
0 -1 -2 1386.76 24.2
0 1 2 1420.56 25.8
0 1 2 1366.46 23.9
0 1 2 1403.36 25.3
-1 -1 -2 114.49 4
-1 -1 -2 115.09 5.9
-1 -1 -2 109.59 5.6
1 1 2 106.89 5.5
1 1 2 111.69 4
1 1 2 126.19 6.2
-2 -1 -2 3534.65 59.39
-2 -1 -2 3187.48 51.29
-2 -1 -2 3441.66 57.29
-2 -1 -2 3457.75 61.79
-2 -1 -2 3416.66 53.19
2 1 2 3425.66 57.29
2 1 2 3523.95 59.59
2 1 2 3398.16 56.89
-3 -1 -2 883.41 26.9
-3 -1 -2 946.41 24.7
-3 -1 -2 915.81 23
-3 -1 -2 908.41 22.2
-3 -1 -2 903.41 21.3
-3 -1 -2 946.01 24.9
3 1 2 889.01 22.8
3 1 2 897.11 24.6
3 1 2 881.11 21.7
-4 -1 -2 64.09 5.4
-4 -1 -2 61.99 7.4
-4 -1 -2 61.79 6.6
-4 -1 -2 65.79 7
-4 -1 -2 65.59 6.6
-4 -1 -2 76.59 7.2
-4 -1 -2 73.79 9.4
-4 -1 -2 63.19 7.3
4 1 2 59.79 7.6
4 1 2 67.49 7.3
-5 -1 -2 548.45 19.3
-5 -1 -2 533.35 25.2
-5 -1 -2 525.45 21.8
-5 -1 -2 519.35 16.7
-5 -1 -2 532.55 20.5
-5 -1 -2 534.95 22.1
-5 -1 -2 529.35 19.7
-5 -1 -2 551.04 20.7
5 1 2 500.05 20.9
5 1 2 491.05 21.3
-6 -1 -2 282.67 16.9
-6 -1 -2 262.27 17.2
-6 -1 -2 271.47 17.1
-6 -1 -2 238.88 13.9
-6 -1 -2 266.47 13.2
-6 -1 -2 258.17 14.6
-6 -1 -2 243.58 15.5
-6 -1 -2 261.77 19.5
-7 -1 -2 82.79 12.1
-7 -1 -2 78.09 14.7
-7 -1 -2 87.69 11.4
-7 -1 -2 79.59 11.3
-7 -1 -2 76.89 8.5
-7 -1 -2 92.39 12.3
-7 -1 -2 104.29 10.3
-7 -1 -2 100.79 10.8
-8 -1 -2 228.58 16
-8 -1 -2 237.58 19
-8 -1 -2 251.27 19.4
-8 -1 -2 246.68 20.1
-8 -1 -2 205.28 22.3
-8 -1 -2 248.98 19.1
-8 -1 -2 240.28 15.2
7 -2 -2 18.9 6.4
7 -2 -2 19.7 7.4
-7 2 2 23.6 7.2
-7 2 2 11.3 6.1
-7 2 2 31.1 8.4
6 -2 -2 561.34 26.6
6 -2 -2 586.94 29.7
-6 2 2 523.45 25.1
-6 2 2 524.05 27.6
-6 2 2 559.54 21.4
-6 2 2 541.05 36
5 -2 -2 2.2 4.1
5 -2 -2 1.9 5.2
-5 2 2 -1.7 3.7
-5 2 2 3.1 4.3
-5 2 2 -1.6 3.6
4 -2 -2 824.02 27.2
4 -2 -2 860.71 28.7
4 -2 -2 865.91 30.2
-4 2 2 838.22 27.5
-4 2 2 847.52 30.1
-4 2 2 839.22 22.2
-4 2 2 889.01 29.2
3 -2 -2 46.3 6.9
3 -2 -2 52.79 7.4
3 -2 -2 30.1 5.8
-3 2 2 63.49 7.7
-3 2 2 50.79 4.6
-3 2 2 35.7 6.5
-3 2 2 59.29 7.6
2 -2 -2 257.57 12
2 -2 -2 240.98 12.4
2 -2 -2 258.27 11.9
-2 2 2 269.67 12.8
-2 2 2 256.67 12
-2 2 2 248.78 10.8
1 -2 -2 224.28 9.8
1 -2 -2 211.38 6.4
1 -2 -2 239.58 10.6
-1 2 2 215.48 9.8
-1 2 2 218.98 9.9
-1 2 2 229.28 9.4
-1 2 2 206.28 6.2
0 -2 -2 2169.08 36.7
0 -2 -2 2091.39 38.3
0 -2 -2 2187.88 39
0 2 2 2096.69 38.4
0 2 2 2127.39 38.6
0 2 2 2113.59 35.2
0 2 2 2131.39 36.3
-1 -2 -2 42.3 3.7
-1 -2 -2 42.3 4.1
-1 -2 -2 40 4
-1 -2 -2 48.4 4.1
1 2 2 37.3 3.7
1 2 2 39.5 3.7
1 2 2 42.5 4.1
1 2 2 42.5 4
-2 -2 -2 654.93 15.3
-2 -2 -2 630.94 18
-2 -2 -2 673.63 17.2
-2 -2 -2 661.53 18.6
2 2 2 670.83 13.4
2 2 2 662.33 17.2
2 2 2 675.83 18.9
2 2 2 650.63 18.4
-3 -2 -2 1.1 1.4
-3 -2 -2 3.2 2.5
-3 -2 -2 -0.6 2.1
-3 -2 -2 -0.1 1.7
-3 -2 -2 0.6 1.5
3 2 2 0.6 2.4
3 2 2 -0.6 1.9
3 2 2 0.4 1.6
3 2 2 1.9 1.8
-4 -2 -2 9684.63 155.48
-4 -2 -2 9999 157.98
-4 -2 -2 9848.81 150.98
-4 -2 -2 9923.11 154.18
-4 -2 -2 9702.53 150.58
-4 -2 -2 9539.75 154.18
-4 -2 -2 9778.12 162.78
4 2 2 9802.92 150.08
4 2 2 9697.43 150.98
4 2 2 9845.81 156.58
4 2 2 9824.12 157.98
-5 -2 -2 34.2 8.5
-5 -2 -2 48.7 8
-5 -2 -2 42 7.1
-5 -2 -2 37.1 6.1
-5 -2 -2 44.4 6.6
-5 -2 -2 42.4 6.6
-5 -2 -2 33.8 9.6
5 2 2 48.3 8.2
5 2 2 48.7 7.3
-6 -2 -2 258.37 16.6
-6 -2 -2 234.08 15.6
-6 -2 -2 222.68 13
-6 -2 -2 239.38 16.7
-6 -2 -2 245.38 15.2
-6 -2 -2 256.37 13.2
-6 -2 -2 257.67 16.1
-6 -2 -2 268.57 19.9
6 2 2 233.98 16.2
-7 -2 -2 47.5 9.4
-7 -2 -2 28.4 7
-7 -2 -2 17.6 7.1
-7 -2 -2 42.8 7.8
-7 -2 -2 40.5 9.1
-7 -2 -2 56.09 8.2
-7 -2 -2 29.7 6.3
-7 -2 -2 34.7 7.8
-8 -2 -2 326.97 22
-8 -2 -2 288.97 18.5
-8 -2 -2 336.87 22.5
-8 -2 -2 335.07 18
-8 -2 -2 352.86 22.1
-8 -2 -2 315.87 25.3
-8 -2 -2 293.47 16.9
-8 -2 -2 338.77 21.6
7 -3 -2 182.98 19.8
7 -3 -2 226.28 21.6
-7 3 2 217.98 13.6
-7 3 2 227.28 16.7
-7 3 2 209.88 17.5
6 -3 -2 101.59 15.4
6 -3 -2 129.49 15.4
-6 3 2 116.29 18.2
-6 3 2 89.79 13.9
-6 3 2 126.19 9.6
-6 3 2 142.49 15.5
-6 3 2 131.89 13.4
5 -3 -2 429.86 24.4
5 -3 -2 419.66 23.2
-5 3 2 400.26 21.1
-5 3 2 404.16 14.5
4 -3 -2 728.03 26.5
4 -3 -2 773.32 30.1
4 -3 -2 746.83 29.3
-4 3 2 758.62 18.2
-4 3 2 755.02 27.2
-4 3 2 702.63 27.8
-4 3 2 735.53 28.9
3 -3 -2 217.48 14.4
3 -3 -2 200.88 14
3 -3 -2 216.98 12.9
-3 3 2 211.28 14.2
-3 3 2 191.38 13.1
-3 3 2 203.78 13
2 -3 -2 1287.97 34.7
2 -3 -2 1311.97 33
-2 3 2 1346.27 33.2
-2 3 2 1334.17 34.8
-2 3 2 1333.37 32.1
-2 3 2 1325.07 24.1
1 -3 -2 2198.98 38.4
1 -3 -2 2170.98 43.7
1 -3 -2 2172.48 44.6
-1 3 2 2153.28 43.8
-1 3 2 2120.99 37.4
-1 3 2 2076.19 42.7
0 -3 -2 3839.22 64.79
0 -3 -2 3875.41 63.29
0 -3 -2 3743.43 65.19
0 -3 -2 3734.83 58.19
0 3 2 3750.22 65.09
0 3 2 3747.12 65.39
0 3 2 3712.93 58.19
0 3 2 3849.81 62.69
-1 -3 -2 15 3.5
-1 -3 -2 17.3 3.3
-1 -3 -2 13.3 3
1 3 2 16.7 3.5
1 3 2 15.5 3.4
1 3 2 14.6 3.1
1 3 2 16.7 3.3
-2 -3 -2 677.63 19.8
-2 -3 -2 726.63 21
-2 -3 -2 710.43 18.9
-2 -3 -2 728.83 19.5
2 3 2 725.73 20.6
2 3 2 704.93 21.2
2 3 2 709.33 18.9
2 3 2 714.53 19.2
2 3 2 741.23 20.6
-3 -3 -2 371.96 16.7
-3 -3 -2 327.07 12.3
-3 -3 -2 312.37 14.1
-3 -3 -2 327.57 14.6
3 3 2 333.57 14.3
3 3 2 313.27 12.3
3 3 2 321.47 14.9
3 3 2 310.57 10.9
3 3 2 309.27 14.3
-4 -3 -2 153.08 10.7
-4 -3 -2 147.59 8.8
-4 -3 -2 117.49 9.9
-4 -3 -2 127.59 10.8
4 3 2 141.39 11
4 3 2 139.59 8.6
4 3 2 135.49 8.4
-5 -3 -2 93.19 8.6
-5 -3 -2 96.29 8
-5 -3 -2 120.89 12.5
-5 -3 -2 103.09 10.3
-5 -3 -2 111.39 10.4
-5 -3 -2 78.79 9.5
5 3 2 96.19 10.5
5 3 2 105.19 8
5 3 2 118.79 9.5
-6 -3 -2 916.41 31.2
-6 -3 -2 966.4 29.9
-6 -3 -2 969.4 34.4
-6 -3 -2 927.21 33
-6 -3 -2 951.9 29.6
-6 -3 -2 971 26.4
-6 -3 -2 975.6 37.7
6 3 2 968.9 30.5
6 3 2 939.01 33.9
-7 -3 -2 6.7 5.2
-7 -3 -2 20.2 6.3
-7 -3 -2 7.9 7.7
-7 -3 -2 7 4
-7 -3 -2 21.5 6.6
-7 -3 -2 5.3 5
-7 -3 -2 9.2 6
7 3 2 11.1 6.6
-8 -3 -2 256.47 23.4
-8 -3 -2 286.37 20
-8 -3 -2 319.67 22.2
-8 -3 -2 324.27 19.2
-8 -3 -2 298.67 15.4
-8 -3 -2 290.27 17.5
-8 -3 -2 305.27 19.6
6 -4 -2 106.29 15.8
6 -4 -2 85.69 15
-6 4 2 99.39 13.7
-6 4 2 94.29 13.2
5 -4 -2 372.26 23.8
5 -4 -2 358.26 23.9
5 -4 -2 366.26 24.5
-5 4 2 384.16 20.2
-5 4 2 299.17 21
-5 4 2 356.76 21.2
4 -4 -2 125.59 12.2
4 -4 -2 121.09 13.8
4 -4 -2 149.39 15.3
-4 4 2 122.89 13.1
-4 4 2 124.59 16.3
3 -4 -2 516.45 24.6
3 -4 -2 526.95 24
3 -4 -2 530.45 21.9
-3 4 2 501.15 21.8
-3 4 2 549.15 13.8
-3 4 2 492.85 20.9
-3 4 2 535.05 24.2
2 -4 -2 298.57 12
2 -4 -2 299.57 15.4
2 -4 -2 316.47 16.9
-2 4 2 318.37 16
-2 4 2 290.37 14.8
-2 4 2 295.97 10.7
1 -4 -2 1271.77 28.7
1 -4 -2 1230.48 32.7
1 -4 -2 1262.27 32.5
-1 4 2 1253.17 27.5
-1 4 2 1289.07 32.4
-1 4 2 1286.67 33
0 -4 -2 340.07 14
0 -4 -2 349.07 14.7
0 -4 -2 362.76 13.8
0 4 2 340.17 14.4
0 4 2 351.66 15
0 4 2 339.17 12.9
-1 -4 -2 1548.84 34.9
-1 -4 -2 1544.55 34.8
-1 -4 -2 1552.64 35.1
-1 -4 -2 1505.15 31.2
-1 -4 -2 1488.45 31.6
1 4 2 1512.55 34.9
1 4 2 1547.25 34.5
1 4 2 1514.55 33.9
-2 -4 -2 1820.42 40.6
-2 -4 -2 1817.82 38.3
-2 -4 -2 1786.62 38.6
-2 -4 -2 1801.12 38.6
2 4 2 1796.72 39
2 4 2 1773.42 37.6
2 4 2 1826.02 40.1
-3 -4 -2 683.83 23.3
-3 -4 -2 715.33 20.5
-3 -4 -2 686.73 22.9
-3 -4 -2 680.83 21
3 4 2 637.04 23.5
3 4 2 717.43 20.5
3 4 2 663.33 22.7
3 4 2 714.03 19.1
-4 -4 -2 316.97 13.2
-4 -4 -2 318.77 14.3
-4 -4 -2 326.47 16.6
-4 -4 -2 302.37 16.5
4 4 2 298.37 13.6
4 4 2 322.47 17
4 4 2 323.17 13.8
4 4 2 316.97 15.9
-5 -4 -2 434.86 16.2
-5 -4 -2 459.05 18.3
-5 -4 -2 461.65 16.5
-5 -4 -2 435.26 21.6
-5 -4 -2 433.76 20.5
5 4 2 453.65 16.3
5 4 2 450.45 17.9
5 4 2 410.96 19.5
5 4 2 450.55 22
-6 -4 -2 277.17 19.9
-6 -4 -2 276.37 13.9
-6 -4 -2 264.87 17
-6 -4 -2 257.67 12.7
-6 -4 -2 237.68 17.6
6 4 2 280.07 13.4
6 4 2 258.67 19
6 4 2 267.27 15.4
-7 -4 -2 184.68 15.3
-7 -4 -2 161.08 15.5
-7 -4 -2 154.78 25.6
-7 -4 -2 180.88 20.5
-7 -4 -2 197.38 19.2
-7 -4 -2 169.98 11.3
7 4 2 213.88 15.9
7 4 2 185.88 17.6
-8 -4 -2 49.6 10.5
-8 -4 -2 59.29 8
-8 -4 -2 61.29 10.6
8 4 2 73.39 12.2
6 -5 -2 -12 6.2
6 -5 -2 -0.8 8.4
5 -5 -2 649.24 34.1
5 -5 -2 647.54 29.9
5 -5 -2 698.63 34.8
-5 5 2 627.14 29.8
-5 5 2 664.13 29.3
4 -5 -2 9 5.3
4 -5 -2 4.4 5.2
4 -5 -2 7.1 6.1
-4 5 2 13.8 5.3
-4 5 2 4.7 8
-4 5 2 7.9 5.8
3 -5 -2 677.43 37
3 -5 -2 644.74 29.8
-3 5 2 670.73 29.5
-3 5 2 678.03 18.6
-3 5 2 674.43 26.7
-3 5 2 699.53 36.7
2 -5 -2 -2.9 3.1
2 -5 -2 5.3 3.3
2 -5 -2 5.1 3.6
-2 5 2 3.1 3.4
-2 5 2 2.1 3.1
-2 5 2 -0.1 2.2
1 -5 -2 378.96 18.1
1 -5 -2 348.17 17.3
1 -5 -2 375.16 15.8
-1 5 2 377.76 18.1
-1 5 2 382.56 14.9
-1 5 2 380.66 17.7
0 -5 -2 46.8 7
0 -5 -2 42.5 6.8
0 -5 -2 39.8 3.8
0 -5 -2 42.4 6.4
0 5 2 46.4 6.8
0 5 2 40.7 7
0 5 2 38.4 5.9
-1 -5 -2 947.51 23.6
-1 -5 -2 1003.4 25.8
-1 -5 -2 1018.8 32.8
-1 -5 -2 968.2 28.4
1 5 2 983.5 27.7
1 5 2 1004.6 29.5
1 5 2 1027.9 28.4
-2 -5 -2 0.3 2.1
-2 -5 -2 0.1 2.2
-2 -5 -2 -0.7 2.6
-2 -5 -2 -0.3 2.2
2 5 2 1.5 3.2
2 5 2 -0.6 1.7
2 5 2 0.2 2.4
-3 -5 -2 713.93 25.8
-3 -5 -2 743.13 22.8
-3 -5 -2 725.13 24.6
-3 -5 -2 730.43 24.4
3 5 2 715.83 25.2
3 5 2 740.03 26.7
3 5 2 725.73 22.2
-4 -5 -2 19.2 5.5
-4 -5 -2 14.6 4.7
-4 -5 -2 12.8 5.2
-4 -5 -2 16.4 4.2
4 5 2 17.3 4.5
4 5 2 14.5 5.2
4 5 2 11.8 4.1
4 5 2 20.4 4.6
-5 -5 -2 1139.69 32.8
-5 -5 -2 1115.09 28.9
-5 -5 -2 1043.9 35
-5 -5 -2 1117.29 25.4
-5 -5 -2 1062.29 36.1
5 5 2 1110.39 29.4
5 5 2 1131.79 31.2
5 5 2 1088.89 37
5 5 2 1120.89 35.6
-6 -5 -2 59.09 9.6
-6 -5 -2 67.79 7.1
-6 -5 -2 55.59 7.3
-6 -5 -2 74.09 9.7
6 5 2 61.69 7.8
6 5 2 73.69 9.8
6 5 2 61.59 11.3
-7 -5 -2 489.05 18.5
-7 -5 -2 500.85 29.6
-7 -5 -2 523.15 26.4
-7 -5 -2 502.35 28
-7 -5 -2 483.75 18.4
-7 -5 -2 467.45 22.4
7 5 2 512.85 28.3
7 5 2 481.65 22.6
-8 -5 -2 45.5 7.9
-8 -5 -2 70.29 9.8
-8 -5 -2 62.59 12.8
-8 -5 -2 59.29 11.6
8 5 2 43.3 10.9
8 5 2 54.69 12.2
5 -6 -2 34.4 11
5 -6 -2 37.5 10.5
4 -6 -2 262.87 21.3
4 -6 -2 266.97 22.9
-4 6 2 263.27 11.3
-4 6 2 270.17 19.6
3 -6 -2 705.73 29.6
3 -6 -2 667.63 30.9
3 -6 -2 646.84 33.1
-3 6 2 667.93 29.1
-3 6 2 691.63 21
-3 6 2 643.04 38.7
-3 6 2 661.83 28.5
2 -6 -2 56.09 10
2 -6 -2 70.89 9.5
-2 6 2 63.29 7.6
-2 6 2 80.09 11.1
1 -6 -2 582.74 22.4
1 -6 -2 556.04 23.6
-1 6 2 568.94 25
-1 6 2 570.44 20.7
0 -6 -2 105.99 10.4
0 -6 -2 104.49 10.9
0 -6 -2 102.29 9.7
0 6 2 82.69 13.5
0 6 2 111.29 11.4
0 6 2 116.19 10.7
-1 -6 -2 2148.19 50.79
-1 -6 -2 2183.58 42.8
-1 -6 -2 2203.38 45.8
-1 -6 -2 2096.39 50.59
1 6 2 2161.18 51.49
1 6 2 2133.29 49
1 6 2 2131.69 49.2
-2 -6 -2 324.77 12.8
-2 -6 -2 323.07 17.4
-2 -6 -2 300.17 14.2
-2 -6 -2 320.17 17.2
2 6 2 324.57 17.6
2 6 2 305.37 15.5
2 6 2 325.57 18.3
2 6 2 320.97 17.2
-3 -6 -2 519.25 21.8
-3 -6 -2 544.55 14.7
-3 -6 -2 536.85 23.9
3 6 2 553.24 20.6
3 6 2 522.15 22.6
3 6 2 519.15 23.9
-4 -6 -2 28.3 6.8
-4 -6 -2 25.3 6.3
-4 -6 -2 24.6 6.2
-4 -6 -2 28.3 6.1
4 6 2 26.8 7.4
4 6 2 26 5.8
4 6 2 27.4 6.1
-5 -6 -2 395.76 19.9
-5 -6 -2 372.26 21.2
-5 -6 -2 387.56 16.7
5 6 2 400.06 18.4
5 6 2 368.86 22
5 6 2 412.46 26.9
-6 -6 -2 50.39 11.4
-6 -6 -2 66.89 10.6
-6 -6 -2 58.59 7.6
-6 -6 -2 51.19 9.6
6 6 2 49.4 9.5
6 6 2 72.59 11.9
6 6 2 50.39 10.3
6 6 2 48 11.4
-7 -6 -2 115.89 9.5
-7 -6 -2 91.49 13.3
-7 -6 -2 114.79 14.2
7 6 2 114.89 15.1
7 6 2 98.29 12.3
7 6 2 115.79 12.8
-8 -6 -2 27 9.2
-8 -6 -2 26.1 7.8
-8 -6 -2 11.1 4.2
8 6 2 13.5 7.8
8 6 2 13 7.6
4 -7 -2 475.45 32.3
4 -7 -2 451.55 36.4
-4 7 2 434.96 26.6
-4 7 2 442.26 16.5
3 -7 -2 37.1 9.7
3 -7 -2 44.6 11.2
-3 7 2 44.9 9.3
-3 7 2 42.1 9.3
2 -7 -2 348.87 21.8
2 -7 -2 403.66 23.2
2 -7 -2 371.46 20.1
-2 7 2 369.76 17.6
-2 7 2 359.16 21.2
-2 7 2 360.56 22.3
1 -7 -2 230.58 16.7
1 -7 -2 260.37 16.7
-1 7 2 244.98 17.6
-1 7 2 264.87 15.3
0 -7 -2 595.84 24.2
0 -7 -2 615.04 25.8
0 7 2 608.04 27
0 7 2 663.23 25
-1 -7 -2 5 3.4
-1 -7 -2 4.5 4.2
-1 -7 -2 -0.8 3.5
1 7 2 2 3.1
1 7 2 -0.7 4.7
1 7 2 2.4 3.3
-2 -7 -2 114.49 8.5
-2 -7 -2 126.89 13.1
-2 -7 -2 127.69 12.8
-2 -7 -2 127.89 10.4
2 7 2 116.39 15.4
2 7 2 111.09 11.8
2 7 2 88.29 10
-3 -7 -2 548.25 26
-3 -7 -2 566.34 15.4
-3 -7 -2 553.64 24.8
-3 -7 -2 546.05 23.1
3 7 2 591.94 26
3 7 2 574.44 26.9
3 7 2 565.54 22.6
-4 -7 -2 408.86 21.3
-4 -7 -2 406.86 21.5
-4 -7 -2 390.56 22.8
4 7 2 398.96 19
4 7 2 376.16 22.7
-5 -7 -2 221.78 17.6
-5 -7 -2 226.88 17.1
5 7 2 209.68 18.1
5 7 2 213.58 13.8
5 7 2 240.78 15.3
-6 -7 -2 105.49 13.5
-6 -7 -2 111.59 14.4
-6 -7 -2 108.39 16.1
6 7 2 90.69 14.3
6 7 2 105.49 11.1
6 7 2 124.29 13.3
-7 -7 -2 307.87 20.7
-7 -7 -2 282.27 26.8
7 7 2 274.57 21.7
7 7 2 289.47 16.6
7 7 2 313.57 23.7
2 -8 -2 416.96 29.9
2 -8 -2 449.56 25.9
-2 8 2 508.15 37.8
-2 8 2 442.86 20.9
1 -8 -2 10.2 8.5
1 -8 -2 16.4 7.8
-1 8 2 6.5 4.7
-1 8 2 14.7 7.2
0 -8 -2 289.77 17.7
0 -8 -2 259.87 20.4
0 -8 -2 251.07 18.7
0 8 2 306.47 20.7
0 8 2 264.47 17.4
0 8 2 272.27 18.9
-1 -8 -2 11.2 6.2
-1 -8 -2 4.4 6.3
-1 -8 -2 14.2 5.6
-1 -8 -2 17 4.6
1 8 2 6 4.1
1 8 2 5.6 5.3
1 8 2 18.9 6
-2 -8 -2 811.12 23.9
-2 -8 -2 782.92 33.1
-2 -8 -2 836.02 33.2
-2 -8 -2 847.92 26.9
2 8 2 794.32 33
2 8 2 882.81 45.8
2 8 2 784.72 34.6
-3 -8 -2 0.6 5
-3 -8 -2 0.8 5.1
-3 -8 -2 -1.6 5.4
3 8 2 8.3 4.9
3 8 2 -3.2 5.1
-4 -8 -2 232.68 19.4
-4 -8 -2 243.68 18.5
4 8 2 221.98 18.5
4 8 2 255.37 20.1
-5 -8 -2 34.1 9.7
-5 -8 -2 30.5 8.7
-5 -8 -2 8.2 6
5 8 2 30 8.8
5 8 2 27.9 7.1
-6 -8 -2 489.15 29.1
6 8 2 459.35 21.7
6 8 2 551.54 30.3
6 8 2 509.05 30.6
0 -9 -2 162.28 18.4
0 -9 -2 186.98 15.3
0 9 2 217.08 19.2
0 9 2 204.18 17.3
-1 -9 -2 42.1 9
-1 -9 -2 49.9 11.8
1 9 2 32.3 8.4
1 9 2 36.8 9.7
-2 -9 -2 429.16 22.8
-2 -9 -2 396.36 25.2
-2 -9 -2 410.46 17.1
2 9 2 373.06 24.1
-3 -9 -2 17.8 7.9
-3 -9 -2 32.5 8.4
3 9 2 25.7 7.1
3 9 2 8.3 6.1
-4 -9 -2 322.77 21
-4 -9 -2 300.37 28
4 9 2 336.77 24.3
4 9 2 323.87 20.3
-5 -9 -2 23.8 8.8
5 9 2 18.4 6.6
5 9 2 14.1 6.7
5 9 2 25.3 6.7
5 8 -3 39 6.5
5 8 -3 49 17.7
5 8 -3 58.99 12.9
-5 -8 3 15.3 8.7
4 8 -3 267.07 19.4
4 8 -3 242.68 16.2
-4 -8 3 301.77 34.2
3 8 -3 52.79 8.7
3 8 -3 39.1 8.4
-3 -8 3 68.59 14.6
2 8 -3 241.38 16.6
-2 -8 3 236.08 21.8
1 8 -3 100.29 15.5
1 8 -3 89.39 10.7
-1 -8 3 121.19 17.3
0 8 -3 246.28 14.3
0 8 -3 208.28 13.9
0 -8 3 199.88 22.4
-1 8 -3 69.09 9.2
-2 8 -3 205.88 12.4
-2 8 -3 203.38 16.6
2 -8 3 209.18 25.1
2 -8 3 219.28 13.5
6 7 -3 36.8 10.8
6 7 -3 77.19 16
-6 -7 3 65.09 14.1
5 7 -3 327.27 22.2
5 7 -3 312.97 23
-5 -7 3 358.86 24.4
4 7 -3 260.47 20
4 7 -3 235.48 17.7
4 7 -3 223.78 11.4
-4 -7 3 218.08 20
-4 -7 3 218.88 18.4
3 7 -3 339.07 17.5
3 7 -3 307.97 18.3
-3 -7 3 299.67 20.1
-3 -7 3 277.47 21.5
2 7 -3 84.59 9.8
2 7 -3 56.49 9
-2 -7 3 61.69 12.5
-2 -7 3 42.8 9.2
1 7 -3 300.37 20.8
1 7 -3 294.77 12.8
1 7 -3 281.97 15
-1 -7 3 333.67 23
-1 -7 3 285.17 21.8
0 7 -3 461.85 19.4
0 7 -3 496.95 19.1
0 7 -3 512.85 27.8
0 -7 3 464.05 24.5
0 -7 3 427.26 26.2
-1 7 -3 242.08 12.6
-1 7 -3 223.68 15.6
-1 7 -3 228.18 17.9
1 -7 3 225.78 22.1
-2 7 -3 113.79 13.9
-2 7 -3 104.39 9
2 -7 3 103.29 17.5
2 -7 3 95.69 13.5
2 -7 3 103.69 10.6
-3 7 -3 116.49 15.3
-3 7 -3 149.49 14.9
-3 7 -3 126.99 14.9
-3 7 -3 107.09 8.9
3 -7 3 128.49 15.5
3 -7 3 136.49 10.6
7 6 -3 21.3 16.2
-7 -6 3 23.6 7.7
6 6 -3 65.39 13.3
6 6 -3 70.49 13.5
6 6 -3 76.99 14.5
-6 -6 3 79.59 13.3
5 6 -3 558.64 27.5
5 6 -3 547.05 28.7
5 6 -3 560.94 28
-5 -6 3 559.34 31.2
-5 -6 3 543.25 28.2
4 6 -3 32.6 4.9
4 6 -3 46.4 10.5
4 6 -3 49.7 9.3
-4 -6 3 37.8 9
3 6 -3 557.24 23.7
3 6 -3 549.54 18.1
-3 -6 3 580.14 27.7
2 6 -3 0 2.5
2 6 -3 6.3 3.5
-2 -6 3 -1.5 3.3
-2 -6 3 3 4.1
1 6 -3 631.34 18.5
1 6 -3 609.34 32.4
1 6 -3 623.34 21.6
-1 -6 3 624.34 25.7
0 6 -3 87.89 8.8
0 6 -3 91.69 11.2
0 6 -3 88.19 7.9
0 -6 3 81.29 19.6
0 -6 3 102.09 11.3
-1 6 -3 555.54 22.9
-1 6 -3 563.34 25.7
-1 6 -3 568.04 17.9
1 -6 3 581.24 30.5
1 -6 3 568.94 24.3
-2 6 -3 9.1 5.6
-2 6 -3 5.9 5.5
-2 6 -3 14.2 6.3
2 -6 3 11.2 5.3
2 -6 3 15.5 5.4
2 -6 3 18.9 6.4
-3 6 -3 489.55 22.1
-3 6 -3 465.35 26.2
-3 6 -3 495.25 24.4
3 -6 3 409.46 28.4
3 -6 3 454.65 18.5
-4 6 -3 5.9 5.5
-4 6 -3 17.3 4.6
-4 6 -3 11.9 6.1
-4 6 -3 9 9.7
4 -6 3 6.3 5.5
4 -6 3 3.4 6.7
4 -6 3 15.4 7.3
-5 6 -3 502.45 18
-5 6 -3 513.55 25.6
5 -6 3 471.95 34
5 -6 3 471.45 25.1
5 -6 3 372.86 16.9
7 5 -3 433.36 23.9
7 5 -3 434.86 27.8
-7 -5 3 365.96 23.1
-7 -5 3 414.86 24
6 5 -3 132.09 16.3
-6 -5 3 113.89 15.5
-6 -5 3 168.48 16
5 5 -3 98.39 13.3
5 5 -3 85.79 11.6
-5 -5 3 86.69 13.4
4 5 -3 294.47 17.6
4 5 -3 264.17 18.5
4 5 -3 280.47 17.8
-4 -5 3 304.17 18.2
-4 -5 3 282.67 18.5
3 5 -3 623.14 16.8
3 5 -3 612.44 25.5
3 5 -3 606.54 23.9
-3 -5 3 640.64 26.9
-3 -5 3 645.24 24.4
2 5 -3 37.4 6.7
2 5 -3 35.7 7.5
-2 -5 3 42.3 8.8
-2 -5 3 41.7 8
1 5 -3 361.56 18.8
1 5 -3 366.36 13.2
1 5 -3 368.46 14.9
-1 -5 3 355.66 19.8
-1 -5 3 378.26 18.3
0 5 -3 188.48 11.1
0 5 -3 201.88 10.1
0 5 -3 176.48 13.8
0 -5 3 187.28 12.9
0 -5 3 210.78 16.1
-1 5 -3 1178.18 33.4
-1 5 -3 1204.88 26
-1 5 -3 1151.38 36.4
1 -5 3 1164.38 40.8
1 -5 3 1224.58 33.8
-2 5 -3 22.3 6.6
-2 5 -3 23.6 6.1
-2 5 -3 19.5 5.2
2 -5 3 21.3 5.6
2 -5 3 18.6 6.9
-3 5 -3 217.58 15.8
-3 5 -3 256.87 14.9
-3 5 -3 205.88 15.8
3 -5 3 207.18 12.7
3 -5 3 189.88 18.9
3 -5 3 190.68 14.1
-4 5 -3 190.28 14.1
-4 5 -3 152.58 9.5
-4 5 -3 142.59 15.8
-4 5 -3 161.88 14.8
4 -5 3 177.68 13.9
4 -5 3 163.88 18.9
4 -5 3 184.68 12.6
-5 5 -3 369.76 23
-5 5 -3 405.26 22.4
-5 5 -3 390.76 16
5 -5 3 398.46 17.6
5 -5 3 411.56 30.9
8 4 -3 46.7 12.3
-8 -4 3 58.09 14.4
-8 -4 3 72.49 12.8
7 4 -3 38.2 10.9
-7 -4 3 58.49 10.8
-7 -4 3 16.8 6.6
6 4 -3 453.15 21.6
6 4 -3 467.85 26.5
-6 -4 3 480.55 23.1
-6 -4 3 471.75 28
5 4 -3 69.69 6.2
5 4 -3 81.59 10
-5 -4 3 79.99 9.7
-5 -4 3 94.19 11.7
4 4 -3 807.32 29.2
4 4 -3 834.52 31.3
4 4 -3 767.92 26.9
-4 -4 3 809.72 29.4
-4 -4 3 788.12 28.3
3 4 -3 394.26 18.1
3 4 -3 410.36 10.5
3 4 -3 395.96 18.5
-3 -4 3 391.76 19.3
-3 -4 3 376.86 18
2 4 -3 1273.37 32.3
-2 -4 3 1316.47 37.1
-2 -4 3 1328.97 33
1 4 -3 496.15 15.1
1 4 -3 482.45 16.6
1 4 -3 520.75 20.9
-1 -4 3 461.85 18.7
-1 -4 3 518.95 21.9
0 4 -3 1028.3 31.2
0 4 -3 1002.4 26.2
0 4 -3 1016 22.6
0 -4 3 997.8 27.9
0 -4 3 1013.2 32.6
-1 4 -3 361.46 10.5
-1 4 -3 343.87 16.1
1 -4 3 362.86 20.1
1 -4 3 356.56 15.4
-2 4 -3 910.91 25.8
-2 4 -3 815.52 35.4
-2 4 -3 901.71 29.9
2 -4 3 832.72 33.4
2 -4 3 886.51 25.7
-3 4 -3 810.92 25.4
-3 4 -3 837.92 31.2
-3 4 -3 892.31 30.9
3 -4 3 888.81 26.4
3 -4 3 862.21 36.1
3 -4 3 882.71 26.3
-4 4 -3 31.8 7
-4 4 -3 19 5.1
-4 4 -3 31 5.4
4 -4 3 34.7 6.9
4 -4 3 30.3 6.8
4 -4 3 13.6 6.3
-5 4 -3 5.5 4.1
-5 4 -3 -1.1 4
-5 4 -3 0.8 5.9
-5 4 -3 2.4 3.6
5 -4 3 5.5 5.8
5 -4 3 11.5 4.5
5 -4 3 8.5 5
-6 4 -3 230.78 18.7
-6 4 -3 197.58 18.2
-6 4 -3 219.98 14.5
-6 4 -3 192.58 15.9
6 -4 3 211.38 14.4
6 -4 3 190.58 14.4
8 3 -3 214.48 22.9
-8 -3 3 240.38 23.5
-8 -3 3 260.97 17.4
-8 -3 3 236.58 19.4
7 3 -3 2.9 5.7
7 3 -3 8.1 6.9
7 3 -3 -4.5 5.2
-7 -3 3 8.9 7.1
-7 -3 3 -2.3 4.4
-7 -3 3 11 5.1
6 3 -3 503.05 21
6 3 -3 502.35 20
6 3 -3 443.06 26
-6 -3 3 515.05 21.6
-6 -3 3 484.45 21.7
5 3 -3 18.5 5.1
5 3 -3 10.6 5.4
5 3 -3 15.5 5.3
-5 -3 3 19.1 6.7
-5 -3 3 13.2 4.6
4 3 -3 344.87 15.8
4 3 -3 362.36 12.9
4 3 -3 327.77 18.7
-4 -3 3 346.77 16.7
-4 -3 3 368.46 18.7
3 3 -3 11.2 3.7
3 3 -3 7.8 4
3 3 -3 10.5 4.4
3 3 -3 14.2 3.3
-3 -3 3 6.4 3.8
-3 -3 3 12.9 4.1
2 3 -3 1477.35 34
2 3 -3 1425.46 26.3
2 3 -3 1442.66 35.4
-2 -3 3 1451.55 36.6
-2 -3 3 1470.85 34
1 3 -3 86.39 7.9
1 3 -3 88.79 6.4
-1 -3 3 101.19 9.1
-1 -3 3 89.29 6.4
0 3 -3 274.37 9
0 3 -3 287.77 14.4
0 -3 3 279.17 14.6
0 -3 3 292.17 15.2
0 -3 3 299.47 12.7
-1 3 -3 397.76 16.2
-1 3 -3 400.56 17.7
1 -3 3 392.66 19
1 -3 3 395.56 14.3
-2 3 -3 1402.96 37.8
-2 3 -3 1498.05 32
-2 3 -3 1443.16 37.7
2 -3 3 1412.16 41.8
2 -3 3 1417.96 31.7
-3 3 -3 90.79 7.7
-3 3 -3 83.29 5.2
-3 3 -3 80.59 9.3
-3 3 -3 74.19 9.3
3 -3 3 79.59 8.6
3 -3 3 76.69 11.5
3 -3 3 83.99 7.3
-4 3 -3 1287.37 28.3
-4 3 -3 1299.87 38.4
-4 3 -3 1288.57 31.1
-4 3 -3 1359.86 41.9
4 -3 3 1278.87 45.2
4 -3 3 1256.07 31.6
4 -3 3 1289.07 34.2
-5 3 -3 167.28 10.4
-5 3 -3 124.19 12.7
-5 3 -3 148.39 10.8
5 -3 3 149.59 12.4
5 -3 3 141.79 11
5 -3 3 160.38 18.3
-6 3 -3 374.76 24.4
-6 3 -3 322.97 23
-6 3 -3 374.16 21.1
-6 3 -3 339.47 17.2
-6 3 -3 393.76 22.2
-6 3 -3 355.16 16.6
6 -3 3 374.16 20
6 -3 3 359.56 26.9
-7 3 -3 50.19 10.9
-7 3 -3 43.5 9.3
-7 3 -3 30.9 9.2
-7 3 -3 65.59 10.9
7 -3 3 20.4 10.7
8 2 -3 227.18 17.7
8 2 -3 200.48 23.4
-8 -2 3 202.38 20
-8 -2 3 246.28 18.7
-8 -2 3 231.08 15.2
7 2 -3 271.27 17.9
7 2 -3 291.37 22.3
-7 -2 3 249.88 17.7
-7 -2 3 277.37 15.3
-7 -2 3 275.07 21.3
-7 -2 3 245.98 19.6
-7 -2 3 293.37 20.7
-7 -2 3 265.57 19.8
6 2 -3 316.07 15
6 2 -3 305.87 21.7
6 2 -3 324.87 17.8
-6 -2 3 354.76 21.6
-6 -2 3 339.17 16
-6 -2 3 324.07 20.2
-6 -2 3 312.97 16.8
5 2 -3 271.47 18.5
5 2 -3 260.47 14.3
5 2 -3 248.48 12.7
-5 -2 3 260.77 17.7
-5 -2 3 284.17 14.3
-5 -2 3 263.97 13.6
4 2 -3 1201.68 29.7
4 2 -3 1228.18 37
4 2 -3 1201.18 29.7
-4 -2 3 1233.58 30.8
-4 -2 3 1199.08 28.9
-4 -2 3 1219.18 36.4
3 2 -3 1179.28 28.9
3 2 -3 1192.28 27
3 2 -3 1143.39 33.3
-3 -2 3 1247.68 30.2
-3 -2 3 1247.08 33.3
2 2 -3 1038.4 26.5
2 2 -3 1053.79 28.8
2 2 -3 1041.2 18.5
-2 -2 3 1031.8 26.9
-2 -2 3 1062.79 27.2
1 2 -3 173.18 6.9
1 2 -3 161.08 9.5
-1 -2 3 168.88 8.1
-1 -2 3 160.28 9.9
0 2 -3 2287.87 46.9
0 -2 3 2328.27 45.8
0 -2 3 2269.37 37.4
-1 2 -3 10.2 3.4
1 -2 3 2.3 2.1
1 -2 3 2.8 1.8
-2 2 -3 1294.87 35.8
-2 2 -3 1242.48 33.1
-2 2 -3 1231.48 25.5
2 -2 3 1203.88 25.4
2 -2 3 1270.47 30.7
2 -2 3 1267.07 36.3
-3 2 -3 820.22 18
-3 2 -3 906.21 31.3
-3 2 -3 862.81 28.7
-3 2 -3 874.61 20.5
3 -2 3 883.51 25.5
3 -2 3 861.41 20.8
3 -2 3 855.81 31.4
-4 2 -3 477.35 24.5
-4 2 -3 465.95 19.1
-4 2 -3 503.85 15.3
-4 2 -3 494.25 20.5
-4 2 -3 488.05 22.9
4 -2 3 498.95 15.9
4 -2 3 493.45 25.8
4 -2 3 473.95 19.4
-5 2 -3 57.79 9.5
-5 2 -3 43.4 6.7
-5 2 -3 45.9 6.2
-5 2 -3 61.99 10.4
-5 2 -3 51.49 10.9
5 -2 3 47.3 6.7
5 -2 3 38.7 7.7
5 -2 3 59.29 11.8
-6 2 -3 466.65 25.1
-6 2 -3 473.25 17.8
-6 2 -3 466.85 23.5
-6 2 -3 461.15 40.2
-6 2 -3 438.66 19.1
6 -2 3 434.66 21.8
6 -2 3 424.96 28.1
-7 2 -3 95.09 9.6
-7 2 -3 108.89 11.3
-7 2 -3 69.09 13.1
-7 2 -3 113.89 13.9
7 -2 3 100.89 16.9
8 1 -3 -12.8 6.3
-8 -1 3 10.2 7.1
-8 -1 3 3.6 7.4
-8 -1 3 -5.1 3.5
7 1 -3 155.58 17.9
7 1 -3 150.98 15.3
-7 -1 3 171.38 15.4
-7 -1 3 183.58 18.4
-7 -1 3 166.78 14.7
-7 -1 3 164.68 17.9
-7 -1 3 165.58 10.5
-7 -1 3 169.88 17.5
6 1 -3 82.89 12.6
6 1 -3 98.79 11.5
-6 -1 3 79.99 4.7
-6 -1 3 83.49 12
-6 -1 3 90.19 8
-6 -1 3 92.59 10.3
-6 -1 3 92.29 11.6
5 1 -3 437.86 14.6
5 1 -3 417.76 23.1
5 1 -3 446.76 20.1
-5 -1 3 439.36 22.2
-5 -1 3 435.16 15.5
-5 -1 3 455.65 21.6
-5 -1 3 409.56 22.1
-5 -1 3 418.66 16.8
4 1 -3 3.4 3.8
4 1 -3 3.4 3.4
4 1 -3 5 2.3
-4 -1 3 7.9 4.1
-4 -1 3 1.3 3.6
-4 -1 3 0.2 1.8
-4 -1 3 3.1 2.1
3 1 -3 745.63 21.4
3 1 -3 750.82 18.9
3 1 -3 775.12 25.6
-3 -1 3 779.02 24.5
-3 -1 3 746.93 19.8
-3 -1 3 742.53 19.6
-3 -1 3 730.43 24.5
2 1 -3 1102.89 28.5
2 1 -3 991.5 18.1
2 1 -3 1056.29 23.8
-2 -1 3 1063.99 27.4
-2 -1 3 1053.29 18.6
-2 -1 3 1071.89 24.7
1 1 -3 3547.15 55.89
1 1 -3 3523.45 61.19
-1 -1 3 3466.55 55.49
-1 -1 3 3676.83 60.79
-1 -1 3 3584.64 55.89
0 1 -3 1736.43 35.8
0 1 -3 1651.43 31.1
0 -1 3 1632.84 32.7
-1 1 -3 1529.45 34.3
-1 1 -3 1549.34 31.1
1 -1 3 1501.45 34.2
1 -1 3 1478.45 26.7
-2 1 -3 648.64 22.3
-2 1 -3 610.14 18.4
2 -1 3 586.14 22.8
2 -1 3 630.94 22.4
2 -1 3 613.64 14.7
-3 1 -3 307.47 8.9
-3 1 -3 281.27 9.6
-3 1 -3 325.27 17.4
-3 1 -3 290.97 13.4
3 -1 3 298.77 9
3 -1 3 316.77 17.5
3 -1 3 285.97 13.9
-4 1 -3 1112.99 34.3
-4 1 -3 1071.49 22.8
-4 1 -3 1069.09 36.4
-4 1 -3 1045.9 25.2
-4 1 -3 1114.69 30.7
4 -1 3 1105.89 37.2
4 -1 3 1119.69 31.2
-5 1 -3 212.18 15
-5 1 -3 213.88 11.9
-5 1 -3 197.88 13.3
-5 1 -3 184.18 13.2
-5 1 -3 189.78 15.1
-5 1 -3 190.68 16.9
5 -1 3 181.58 16.8
5 -1 3 181.78 13.2
-6 1 -3 210.48 16.2
-6 1 -3 172.18 14.2
-6 1 -3 171.28 17.9
-6 1 -3 200.18 10.8
-6 1 -3 186.38 16.8
-6 1 -3 192.88 18.3
-6 1 -3 176.58 14.5
6 -1 3 179.68 18.3
6 -1 3 182.18 15.2
-7 1 -3 137.09 13
-7 1 -3 120.59 12.1
-7 1 -3 129.79 14.3
-7 1 -3 114.59 17.4
-7 1 -3 146.29 19.6
-7 1 -3 150.88 14.2
-7 1 -3 152.18 16.8
-7 1 -3 147.29 10.9
-8 1 -3 181.98 12.9
-8 1 -3 147.99 16
-8 1 -3 181.78 14.3
-8 1 -3 171.68 17.4
8 0 -3 -16.1 6.8
-8 0 3 5 6.8
-8 0 3 5.4 4
-8 0 3 -0.4 6.8
-8 0 3 3 4.2
7 0 -3 674.63 31.5
-7 0 3 661.03 28.9
-7 0 3 613.74 29.5
-7 0 3 632.34 34.9
-7 0 3 664.53 19.5
-7 0 3 626.44 20.1
6 0 -3 2.4 5.4
6 0 -3 1.6 4.8
-6 0 3 8.2 5.7
-6 0 3 4 4.8
-6 0 3 2.8 2.5
-6 0 3 4.4 3.6
-6 0 3 9 5.8
5 0 -3 1458.05 40.8
5 0 -3 1405.26 44
-5 0 3 1390.86 28.9
-5 0 3 1408.56 27.2
-5 0 3 1393.16 43.5
-5 0 3 1451.15 34.4
-5 0 3 1366.46 41.4
-5 0 3 1408.96 40.3
4 0 -3 234.98 15.3
4 0 -3 223.58 13.7
-4 0 3 214.88 8.5
-4 0 3 225.68 8.2
-4 0 3 219.38 15.3
-4 0 3 223.28 10.4
-4 0 3 210.58 13.8
-4 0 3 210.88 13.8
3 0 -3 526.05 12.3
3 0 -3 481.45 18.2
3 0 -3 522.45 20.7
-3 0 3 508.55 12.9
-3 0 3 539.25 19.3
-3 0 3 491.25 19.2
-3 0 3 501.55 16.9
-3 0 3 513.35 12.8
2 0 -3 318.57 13.9
2 0 -3 309.47 9.2
2 0 -3 296.87 9
-2 0 3 319.57 9
-2 0 3 306.77 12.9
-2 0 3 300.77 13
1 0 -3 1616.74 30.6
1 0 -3 1601.94 28.7
1 0 -3 1618.04 33
-1 0 3 1579.74 28.7
-1 0 3 1621.84 32
-1 0 3 1583.74 32.2
0 0 -3 52.19 3.9
0 0 -3 46.1 4
0 0 3 45 3.6
0 0 3 47.2 3.9
-1 0 -3 899.41 22.6
-1 0 -3 883.11 20.8
1 0 3 918.91 21.1
1 0 3 918.91 22.8
1 0 3 873.11 15.5
-2 0 -3 217.38 11.9
2 0 3 222.78 11.6
2 0 3 204.98 7.4
2 0 3 214.88 12
2 0 3 210.08 9.8
-3 0 -3 2109.19 44.3
-3 0 -3 2152.68 43.1
-3 0 -3 2082.49 32.2
-3 0 -3 2169.48 49.5
-3 0 -3 2004.9 38.1
3 0 3 2061.39 48.8
3 0 3 2070.79 39
3 0 3 2052.99 44.5
-4 0 -3 3.3 2.9
-4 0 -3 2.2 2.8
-4 0 -3 4.3 2.5
-4 0 -3 1.7 1.3
-4 0 -3 7.2 4.1
-4 0 -3 4.4 3.5
-4 0 -3 7 3.3
4 0 3 6 3.7
4 0 3 1.4 2.7
4 0 3 1.1 2.8
-5 0 -3 1129.09 40.3
-5 0 -3 1150.98 36.6
-5 0 -3 1203.98 33.1
-5 0 -3 1164.88 33.6
-5 0 -3 1172.28 30.9
-5 0 -3 1146.69 34.2
-5 0 -3 1164.08 25
5 0 3 1153.38 34.5
5 0 3 1150.28 39.4
-6 0 -3 1.2 4.5
-6 0 -3 15.7 5.3
-6 0 -3 12.8 6.3
-6 0 -3 5.8 4.5
-6 0 -3 11 5.3
-6 0 -3 17.1 5
-6 0 -3 15.2 5.5
-6 0 -3 15 3.8
6 0 3 9.8 5.1
-7 0 -3 377.86 15.8
-7 0 -3 368.76 19.4
-7 0 -3 408.96 22.5
-7 0 -3 382.46 20.6
-7 0 -3 393.06 28.7
-7 0 -3 401.26 23.2
-7 0 -3 359.86 26.1
-7 0 -3 397.36 20.5
-8 0 -3 78.69 14.2
-8 0 -3 90.29 12.6
-8 0 -3 98.49 11.8
-8 0 -3 79.39 12.9
-8 0 -3 93.09 14.5
-8 0 -3 77.09 9.4
7 -1 -3 18.7 9.6
-7 1 3 9.1 5.8
-7 1 3 4.9 6.5
-7 1 3 4.6 4.5
6 -1 -3 576.74 27.7
-6 1 3 505.45 27.4
-6 1 3 554.84 26.2
-6 1 3 550.94 19.3
-6 1 3 526.95 22.5
5 -1 -3 559.44 20.8
5 -1 -3 543.05 25.2
-5 1 3 570.44 24.5
-5 1 3 531.15 20.8
-5 1 3 504.35 25.3
-5 1 3 534.55 17.8
4 -1 -3 347.87 17.9
4 -1 -3 311.47 13.7
4 -1 -3 333.87 19.1
-4 1 3 348.87 12.9
-4 1 3 324.67 17
-4 1 3 327.07 17.7
3 -1 -3 1128.89 31.1
3 -1 -3 1045.1 31.6
3 -1 -3 1061.99 25.1
-3 1 3 1087.09 30.7
-3 1 3 1082.79 24.4
-3 1 3 1062.59 29.6
2 -1 -3 338.97 14.6
2 -1 -3 345.47 10.4
2 -1 -3 352.06 14.4
2 -1 -3 316.37 13.2
-2 1 3 328.27 11
-2 1 3 332.17 13.8
-2 1 3 319.37 13.8
1 -1 -3 1424.76 30.8
1 -1 -3 1423.96 30.3
1 -1 -3 1458.85 28.6
-1 1 3 1473.85 28.3
-1 1 3 1461.95 30.5
-1 1 3 1474.05 30.1
0 -1 -3 759.72 18
0 -1 -3 730.63 16.2
0 -1 -3 707.63 16.7
0 1 3 754.82 16
0 1 3 726.53 17
0 1 3 745.03 17.7
-1 -1 -3 3054.59 52.89
-1 -1 -3 3033.9 45.7
-1 -1 -3 3080.99 47.6
1 1 3 3139.19 54.19
1 1 3 2991.5 47.4
1 1 3 3064.29 53.09
-2 -1 -3 14 3.3
-2 -1 -3 9.8 2.6
-2 -1 -3 13.8 1.5
-2 -1 -3 19.2 4.2
2 1 3 16.1 3.4
2 1 3 12.4 3.4
2 1 3 12.7 2.9
-3 -1 -3 1981.6 36.7
-3 -1 -3 2015.8 46.7
-3 -1 -3 1997.3 43.1
-3 -1 -3 1875.41 31.3
-3 -1 -3 2040.8 41
3 1 3 1962.1 39.5
3 1 3 2068.39 43.8
3 1 3 2014.5 40.7
-4 -1 -3 180.28 11.9
-4 -1 -3 198.78 11.3
-4 -1 -3 217.28 15.3
-4 -1 -3 198.08 10.8
-4 -1 -3 192.28 7.2
-4 -1 -3 205.38 10.6
4 1 3 177.28 12.3
4 1 3 218.88 11.8
-5 -1 -3 902.31 27.2
-5 -1 -3 908.61 30.2
-5 -1 -3 914.31 27.1
-5 -1 -3 855.31 20.5
-5 -1 -3 891.71 28.1
-5 -1 -3 912.21 27.1
-5 -1 -3 860.41 33.5
-5 -1 -3 818.72 28.8
5 1 3 856.71 27.5
5 1 3 891.11 30.1
-6 -1 -3 35.4 7.6
-6 -1 -3 25.1 6
-6 -1 -3 27.7 6.9
-6 -1 -3 33.7 7.6
-6 -1 -3 35.7 5.7
-6 -1 -3 28.6 7.4
-6 -1 -3 36.5 8
-6 -1 -3 45.9 8.6
6 1 3 46.6 9.5
-7 -1 -3 284.67 19.6
-7 -1 -3 315.07 24
-7 -1 -3 301.77 18
-7 -1 -3 293.07 17.6
-7 -1 -3 292.37 18.8
-7 -1 -3 293.47 14
-7 -1 -3 315.57 18.5
-7 -1 -3 321.87 20.9
-8 -1 -3 109.49 13
-8 -1 -3 124.99 20.9
-8 -1 -3 74.29 14
-8 -1 -3 113.09 10.3
-8 -1 -3 112.89 15.9
-8 -1 -3 121.49 13.5
-8 -1 -3 115.19 15.5
7 -2 -3 175.98 19.1
-7 2 3 169.18 13.4
-7 2 3 211.68 15.6
-7 2 3 166.58 17.1
6 -2 -3 179.08 14.7
6 -2 -3 194.38 18.3
-6 2 3 207.58 13.9
-6 2 3 192.88 13.3
-6 2 3 210.48 17.4
-6 2 3 210.08 18.9
5 -2 -3 3.3 5.8
5 -2 -3 1.8 3.6
-5 2 3 3.2 3.7
-5 2 3 1.9 2.7
-5 2 3 -2.8 2.6
4 -2 -3 1070.09 30.9
4 -2 -3 983.6 34
-4 2 3 1097.69 35.2
-4 2 3 1109.09 33.4
-4 2 3 1067.49 28.4
-4 2 3 1075.89 26.5
3 -2 -3 583.94 19.7
3 -2 -3 543.35 22.2
3 -2 -3 569.34 27.2
-3 2 3 541.25 20.9
-3 2 3 548.45 21.7
-3 2 3 533.25 17.7
2 -2 -3 885.31 23.1
2 -2 -3 902.11 26.6
-2 2 3 857.61 24.9
-2 2 3 875.51 25.6
-2 2 3 887.01 22.7
1 -2 -3 635.84 18.9
1 -2 -3 664.93 21.4
1 -2 -3 646.74 13.8
-1 2 3 631.64 18.5
-1 2 3 666.73 19.3
-1 2 3 667.13 18
0 -2 -3 4489.35 72.19
0 -2 -3 4289.17 68.79
0 -2 -3 4280.17 70.79
0 2 3 4303.57 68.39
0 2 3 4279.27 69.29
0 2 3 4318.87 71.29
0 2 3 4333.77 71.09
-1 -2 -3 1068.39 24
-1 -2 -3 1048.8 23.8
-1 -2 -3 1044.4 21.6
-1 -2 -3 1079.09 24.4
1 2 3 996.4 23.6
1 2 3 1048.3 21.9
1 2 3 1038.5 17
1 2 3 1010.7 24
-2 -2 -3 833.82 22.7
-2 -2 -3 887.61 25.7
-2 -2 -3 890.31 23
-2 -2 -3 878.11 18
2 2 3 860.71 18.3
2 2 3 850.41 22
2 2 3 768.82 28.2
-3 -2 -3 195.48 11.1
-3 -2 -3 177.98 10.5
-3 -2 -3 179.18 6.9
-3 -2 -3 169.88 6.9
-3 -2 -3 175.38 9.8
3 2 3 192.48 11.5
3 2 3 187.78 10.5
3 2 3 186.68 9.9
-4 -2 -3 1530.55 37.5
-4 -2 -3 1516.15 35.5
-4 -2 -3 1523.05 29.6
-4 -2 -3 1580.74 32.3
-4 -2 -3 1558.34 43.1
-4 -2 -3 1509.55 39.2
4 2 3 1613.14 40.1
4 2 3 1563.24 35.5
4 2 3 1560.54 37.6
-5 -2 -3 617.84 27.5
-5 -2 -3 640.34 25.1
-5 -2 -3 595.04 21.2
-5 -2 -3 587.74 23.3
-5 -2 -3 607.74 22.3
-5 -2 -3 578.74 22.4
-5 -2 -3 574.04 19.5
5 2 3 580.74 24.3
5 2 3 606.34 23.5
-6 -2 -3 22.4 5.6
-6 -2 -3 12.4 4.7
-6 -2 -3 16 7.1
-6 -2 -3 15.7 3.7
-6 -2 -3 18.7 6.4
-6 -2 -3 20.5 5.4
-6 -2 -3 18.5 6.1
-6 -2 -3 17.7 5.5
6 2 3 19 6.7
6 2 3 8.9 5.9
-7 -2 -3 282.07 14.4
-7 -2 -3 286.07 22.2
-7 -2 -3 295.37 16.8
-7 -2 -3 265.67 17.9
-7 -2 -3 297.27 19.3
-7 -2 -3 257.17 19.2
-7 -2 -3 283.37 17.6
-7 -2 -3 299.47 26.9
7 2 3 272.67 19.1
-8 -2 -3 130.29 10.9
-8 -2 -3 92.09 18.8
-8 -2 -3 116.39 15.5
-8 -2 -3 93.39 14.1
-8 -2 -3 113.89 13.4
-8 -2 -3 112.59 14.3
7 -3 -3 -6.6 5.7
7 -3 -3 -0.7 7.8
-7 3 3 13.7 5.9
-7 3 3 -8.8 5.3
6 -3 -3 334.67 21.7
6 -3 -3 329.77 24.4
-6 3 3 337.47 18.4
-6 3 3 348.97 22.5
-6 3 3 319.37 14.7
-6 3 3 352.76 24
5 -3 -3 45.9 9.5
5 -3 -3 50.69 10.9
-5 3 3 29.7 7.4
-5 3 3 57.89 8.6
-5 3 3 49.99 6.4
4 -3 -3 1128.59 37.8
4 -3 -3 1014.1 33.7
4 -3 -3 1065.79 34.4
-4 3 3 1077.49 34.4
-4 3 3 1051.99 23.7
-4 3 3 1067.99 36.5
-4 3 3 1071.79 30.8
3 -3 -3 30.4 7
3 -3 -3 34.8 7.7
3 -3 -3 34.5 6.9
-3 3 3 34.9 3.7
-3 3 3 41.3 7.5
-3 3 3 30.3 5.7
-3 3 3 31.2 7.1
2 -3 -3 1034.3 29
2 -3 -3 1010.1 30.4
-2 3 3 981.4 28.7
-2 3 3 1031.5 29.4
-2 3 3 997.4 27
1 -3 -3 10.3 3.6
1 -3 -3 11.6 2.8
1 -3 -3 7.3 3.6
-1 3 3 10.5 2.2
-1 3 3 11.3 3.9
-1 3 3 8.6 3
-1 3 3 5.5 2.5
0 -3 -3 324.67 13.2
0 -3 -3 303.77 11.2
0 -3 -3 307.47 12.5
0 3 3 297.77 9.8
0 3 3 293.77 10.7
0 3 3 297.17 12.3
0 3 3 297.67 12.6
-1 -3 -3 375.46 12.9
-1 -3 -3 380.26 13.2
-1 -3 -3 383.46 14.3
1 3 3 404.66 13.8
1 3 3 381.86 15.3
1 3 3 401.96 13.5
1 3 3 386.86 14.1
-2 -3 -3 1380.36 29.4
-2 -3 -3 1438.06 32.7
-2 -3 -3 1451.75 32.3
-2 -3 -3 1453.35 33.5
2 3 3 1477.45 30.5
2 3 3 1408.16 31.9
2 3 3 1455.05 33.2
-3 -3 -3 -1.1 1.7
-3 -3 -3 1.7 2.4
-3 -3 -3 1.8 2.3
-3 -3 -3 -0.7 2.4
3 3 3 0.1 2.6
3 3 3 2.6 2.7
3 3 3 -1.6 1.8
3 3 3 0.8 1.4
-4 -3 -3 501.95 20
-4 -3 -3 453.55 14.8
-4 -3 -3 468.35 21
-4 -3 -3 484.65 17.5
4 3 3 471.25 19.8
4 3 3 472.85 17.4
4 3 3 471.65 20.4
4 3 3 470.85 14.4
-5 -3 -3 8.7 3.4
-5 -3 -3 5.1 4.2
-5 -3 -3 2.2 2.2
-5 -3 -3 3.8 3.7
-5 -3 -3 10.8 4.4
-5 -3 -3 7.6 3.7
5 3 3 8.7 4.1
5 3 3 2 4.1
5 3 3 9 3.5
5 3 3 11.3 3.4
-6 -3 -3 3368.86 66.79
-6 -3 -3 3365.86 66.79
-6 -3 -3 3332.67 81.89
-6 -3 -3 3638.34 74.69
-6 -3 -3 3469.45 71.79
-6 -3 -3 3471.35 73.69
6 3 3 3446.86 75.39
-7 -3 -3 19 6
-7 -3 -3 38.1 7.3
-7 -3 -3 24.5 6.8
-7 -3 -3 24.6 5.3
-7 -3 -3 12.5 7.6
-7 -3 -3 21.5 6.6
-7 -3 -3 56.29 12.4
-7 -3 -3 21.2 6.6
7 3 3 15.3 6.9
-8 -3 -3 98.99 10.8
-8 -3 -3 99.19 13.3
-8 -3 -3 77.39 13.9
-8 -3 -3 79.49 12
-8 -3 -3 92.79 13.6
-8 -3 -3 69.09 9.7
8 3 3 109.39 14.1
6 -4 -3 276.37 22
6 -4 -3 273.47 30.1
-6 4 3 275.77 18.5
-6 4 3 264.47 20.9
5 -4 -3 296.07 21.9
5 -4 -3 268.87 20.1
5 -4 -3 283.17 19.7
-5 4 3 331.47 19
-5 4 3 296.17 21.8
-5 4 3 304.87 20.5
4 -4 -3 175.28 16.3
4 -4 -3 183.08 16.3
-4 4 3 179.68 13.3
-4 4 3 164.28 14.9
3 -4 -3 460.25 22.7
3 -4 -3 452.05 21
3 -4 -3 465.85 23.3
-3 4 3 454.95 19.8
-3 4 3 483.95 22.6
-3 4 3 453.45 21.5
2 -4 -3 968.8 31.8
2 -4 -3 973.8 30.4
2 -4 -3 1020.2 22.6
-2 4 3 1026.1 29.6
-2 4 3 1002.5 21
-2 4 3 1036.5 31.3
1 -4 -3 165.88 8.6
1 -4 -3 177.68 13.2
1 -4 -3 177.98 12.1
-1 4 3 177.88 8.5
-1 4 3 171.48 11
-1 4 3 177.38 11.8
0 -4 -3 1368.26 33.1
0 -4 -3 1348.07 30.6
0 -4 -3 1289.07 32.6
0 4 3 1326.87 32.8
0 4 3 1319.87 33.3
0 4 3 1333.67 25.6
0 4 3 1353.16 29.9
-1 -4 -3 1368.36 29.7
-1 -4 -3 1318.57 32.9
-1 -4 -3 1359.46 32.3
-1 -4 -3 1368.66 32.5
1 4 3 1423.86 32.2
1 4 3 1405.36 33
1 4 3 1332.57 29.4
1 4 3 1357.26 32.4
-2 -4 -3 2504.25 49.3
-2 -4 -3 2356.86 47.5
-2 -4 -3 2495.15 51.19
-2 -4 -3 2457.15 49.4
2 4 3 2470.95 48.8
2 4 3 2375.56 48.5
2 4 3 2518.85 49.3
2 4 3 2337.67 49.4
-3 -4 -3 22.1 5.5
-3 -4 -3 18.6 4.4
-3 -4 -3 15.2 3.7
-3 -4 -3 18.3 4.3
3 4 3 18.9 5.3
3 4 3 23.1 5.1
3 4 3 16.3 4.3
3 4 3 22.1 3.5
3 4 3 19.2 4.8
-4 -4 -3 457.75 16.7
-4 -4 -3 483.45 20.8
-4 -4 -3 462.75 20.4
-4 -4 -3 482.15 18
4 4 3 494.05 18.3
4 4 3 448.86 20.7
4 4 3 472.55 14.7
-5 -4 -3 93.59 8.8
-5 -4 -3 94.69 10.6
-5 -4 -3 96.99 8.5
-5 -4 -3 106.09 11.5
5 4 3 108.89 8.5
5 4 3 99.19 11.1
5 4 3 103.49 9.3
-6 -4 -3 153.28 17.7
-6 -4 -3 142.79 11
-6 -4 -3 140.39 10.5
-6 -4 -3 141.59 16.1
-6 -4 -3 159.48 12.4
6 4 3 152.28 15.7
6 4 3 142.19 11.1
6 4 3 169.78 11.8
-7 -4 -3 36.1 7.5
-7 -4 -3 33.1 6.5
-7 -4 -3 41.3 9
-7 -4 -3 46.7 10.7
-7 -4 -3 26.4 7.8
7 4 3 32.9 9.3
-8 -4 -3 420.46 19.3
-8 -4 -3 413.56 24
-8 -4 -3 433.56 22.2
-8 -4 -3 463.35 20.9
8 4 3 415.86 26.8
5 -5 -3 184.18 19.3
5 -5 -3 197.88 19.7
-5 5 3 206.78 17.4
-5 5 3 206.38 18.2
4 -5 -3 172.58 15.1
4 -5 -3 140.79 16.2
4 -5 -3 155.28 17.1
-4 5 3 137.29 15.3
-4 5 3 162.48 17.9
-4 5 3 170.68 15.3
3 -5 -3 412.66 23.6
3 -5 -3 471.45 24.8
-3 5 3 451.95 12.3
-3 5 3 442.16 21.1
-3 5 3 344.97 20.9
-3 5 3 450.65 22.9
2 -5 -3 204.18 10.9
2 -5 -3 239.78 16.4
2 -5 -3 224.58 15.3
-2 5 3 223.58 10.1
-2 5 3 229.18 14.7
-2 5 3 225.28 15.4
-2 5 3 222.18 16.1
1 -5 -3 496.75 21
1 -5 -3 514.75 17.9
1 -5 -3 488.85 21.5
-1 5 3 497.85 20.7
-1 5 3 497.45 21.4
-1 5 3 493.95 16.4
0 -5 -3 361.66 16.8
0 -5 -3 331.77 16.5
0 -5 -3 384.16 15.9
0 5 3 348.57 16.5
0 5 3 360.56 14.7
0 5 3 356.36 17.4
-1 -5 -3 990.7 24.2
-1 -5 -3 979.3 26.7
-1 -5 -3 1002.4 28.8
1 5 3 1002.6 29.4
1 5 3 988.2 27.8
1 5 3 976.5 28.4
-2 -5 -3 335.97 16
-2 -5 -3 346.57 15.9
-2 -5 -3 347.87 16.6
-2 -5 -3 315.17 14.6
2 5 3 363.66 18.8
2 5 3 333.97 16.2
2 5 3 386.76 20.7
-3 -5 -3 791.42 27.3
-3 -5 -3 833.92 25.6
-3 -5 -3 814.22 25.2
-3 -5 -3 826.92 26.7
3 5 3 843.72 29.2
3 5 3 767.62 26.4
3 5 3 795.72 24.9
-4 -5 -3 935.11 31.1
-4 -5 -3 900.21 31.1
-4 -5 -3 929.11 27.5
-4 -5 -3 960.1 28.5
4 5 3 948.21 30.2
4 5 3 911.91 30.8
4 5 3 910.81 23.4
4 5 3 889.51 32.1
-5 -5 -3 371.46 21.8
-5 -5 -3 322.37 19.6
-5 -5 -3 337.77 16.3
-5 -5 -3 353.46 16.2
5 5 3 337.07 14.7
5 5 3 329.37 16.6
5 5 3 362.56 21.6
-6 -5 -3 180.48 15.7
-6 -5 -3 188.08 19.6
-6 -5 -3 198.28 13.3
-6 -5 -3 211.38 12.7
-6 -5 -3 206.58 12.7
6 5 3 201.48 13
6 5 3 215.28 13.7
6 5 3 194.38 17.1
-7 -5 -3 164.68 12.1
-7 -5 -3 163.78 18.6
-7 -5 -3 181.48 13.6
-7 -5 -3 153.78 12.5
-7 -5 -3 144.79 14.4
-7 -5 -3 163.58 16.6
7 5 3 180.78 13.4
7 5 3 159.68 16.9
7 5 3 180.58 13
-8 -5 -3 126.29 11.6
-8 -5 -3 107.49 12.6
-8 -5 -3 102.49 13.7
-8 -5 -3 126.59 13.2
8 5 3 111.79 16.1
5 -6 -3 306.37 25.9
5 -6 -3 348.07 28.3
-5 6 3 404.86 26
4 -6 -3 3 5.5
4 -6 -3 2.2 6
-4 6 3 -7.4 5.1
3 -6 -3 871.61 36.4
3 -6 -3 890.71 34.4
3 -6 -3 926.41 39.5
-3 6 3 898.71 22.3
-3 6 3 892.31 34.4
-3 6 3 891.91 33.5
2 -6 -3 44.5 9.6
2 -6 -3 43.2 7.5
-2 6 3 55.79 10.2
-2 6 3 42.7 6.6
-2 6 3 32.6 7.2
-2 6 3 44.7 10.4
1 -6 -3 663.23 23.6
1 -6 -3 713.03 27.5
-1 6 3 678.43 28.6
-1 6 3 681.83 22
0 -6 -3 1.1 3.6
0 -6 -3 1.6 3.2
0 -6 -3 6 4
0 6 3 -2 3.6
0 6 3 -0.1 2.9
0 6 3 1.9 3.1
-1 -6 -3 353.36 18.1
-1 -6 -3 331.97 13.2
-1 -6 -3 354.76 16
-1 -6 -3 363.96 18.2
1 6 3 331.37 17.3
1 6 3 339.37 18.3
1 6 3 360.46 17.2
-2 -6 -3 0.7 3
-2 -6 -3 2.4 3.1
-2 -6 -3 3.1 3.6
-2 -6 -3 -0.9 2.8
2 6 3 6.1 3.6
2 6 3 0.5 3.9
2 6 3 1.4 2.9
-3 -6 -3 590.44 25
-3 -6 -3 599.14 23.2
-3 -6 -3 610.74 23.1
-3 -6 -3 530.35 25.9
3 6 3 581.34 24.2
3 6 3 548.45 21.5
3 6 3 601.14 26
-4 -6 -3 5.4 3.9
-4 -6 -3 12.8 4.7
-4 -6 -3 8.6 4.5
-4 -6 -3 10.8 5.5
4 6 3 10.6 4.2
4 6 3 18.7 6.8
4 6 3 8.5 4.6
-5 -6 -3 365.76 18.9
-5 -6 -3 383.66 17.9
-5 -6 -3 363.46 21.3
5 6 3 403.96 23.3
5 6 3 368.26 16.3
5 6 3 392.46 18.5
-6 -6 -3 25.3 6.6
-6 -6 -3 16.6 4.4
-6 -6 -3 25.4 6.6
-6 -6 -3 24 8.9
-6 -6 -3 21.9 5.4
6 6 3 24.5 7.9
6 6 3 28.7 6.2
6 6 3 24.6 6.3
-7 -6 -3 415.26 18.8
-7 -6 -3 447.36 17
-7 -6 -3 349.57 23.5
-7 -6 -3 406.66 21.3
7 6 3 358.76 24.8
7 6 3 398.96 19.7
7 6 3 390.76 19.3
-8 -6 -3 25.2 7.7
-8 -6 -3 20 7.4
-8 -6 -3 44.1 9.2
-8 -6 -3 49.1 9.4
8 6 3 49.3 11.9
8 6 3 65.09 11.6
4 -7 -3 161.58 21.3
4 -7 -3 122.99 17.2
-4 7 3 134.29 17.2
3 -7 -3 107.89 17.2
3 -7 -3 58.79 12.5
-3 7 3 84.49 8.2
-3 7 3 73.79 13.9
2 -7 -3 244.78 19.4
2 -7 -3 252.87 16.5
2 -7 -3 239.68 18.2
-2 7 3 260.37 18.4
-2 7 3 264.97 19.8
-2 7 3 276.97 15.2
1 -7 -3 746.33 35
1 -7 -3 738.93 27.3
-1 7 3 756.82 25.7
-1 7 3 744.43 31.1
0 -7 -3 47.7 8.7
0 -7 -3 24.9 5.6
0 7 3 37.5 7.8
0 7 3 43.9 9.7
-1 -7 -3 513.35 24
-1 -7 -3 516.05 21
-1 -7 -3 489.35 16.7
-1 -7 -3 501.25 23.4
1 7 3 499.15 22
1 7 3 479.85 24.1
-2 -7 -3 56.39 7.5
-2 -7 -3 57.09 8.2
-2 -7 -3 54.79 10.3
-2 -7 -3 50.39 9.5
2 7 3 61.69 10.2
2 7 3 52.59 9.5
2 7 3 47.6 8
-3 -7 -3 1437.46 41.6
-3 -7 -3 1450.25 44.1
-3 -7 -3 1460.55 39.8
-3 -7 -3 1455.05 32.5
3 7 3 1492.85 43.4
3 7 3 1335.67 38.6
3 7 3 1393.86 44.5
-4 -7 -3 184.08 14.3
-4 -7 -3 167.18 8.8
-4 -7 -3 155.98 13.8
-4 -7 -3 157.68 15
4 7 3 162.88 12.9
4 7 3 180.28 12.3
4 7 3 163.58 16.2
4 7 3 193.58 17
-5 -7 -3 284.57 17.9
-5 -7 -3 275.87 19.7
-5 -7 -3 292.77 16.6
5 7 3 269.37 20.4
5 7 3 292.17 16
5 7 3 298.67 17.6
5 7 3 315.37 20.5
-6 -7 -3 0.8 6
-6 -7 -3 5.9 6.8
-6 -7 -3 3.2 4.1
-6 -7 -3 5.4 5.6
6 7 3 7.4 5.2
6 7 3 -7 4.3
6 7 3 4.5 5.6
-7 -7 -3 195.18 19.5
-7 -7 -3 194.38 16.2
-7 -7 -3 191.98 13.5
7 7 3 205.88 15.5
7 7 3 200.98 20.1
7 7 3 162.08 14.4
2 -8 -3 437.76 26.7
2 -8 -3 464.35 32
-2 8 3 484.65 21
-2 8 3 466.75 27.7
1 -8 -3 73.79 12.1
1 -8 -3 54.99 11.3
-1 8 3 53.19 10.2
-1 8 3 107.19 13.9
0 -8 -3 283.87 18.6
0 -8 -3 295.57 19.6
0 8 3 312.97 18.5
0 8 3 287.37 21.6
0 8 3 319.97 21.8
-1 -8 -3 237.88 10.9
-1 -8 -3 255.67 19.2
-1 -8 -3 252.97 15.7
-1 -8 -3 232.68 18.1
1 8 3 246.08 17.8
1 8 3 238.98 19.2
1 8 3 245.38 17.1
-2 -8 -3 416.36 18
-2 -8 -3 418.06 23.5
-2 -8 -3 428.46 23.1
-2 -8 -3 388.96 17.5
2 8 3 361.06 22.6
2 8 3 412.86 24.9
2 8 3 385.16 21.4
2 8 3 408.56 23.5
-3 -8 -3 -1.9 4.8
-3 -8 -3 15.2 4.7
-3 -8 -3 11.5 5.7
-3 -8 -3 8.8 5.7
3 8 3 10.8 6
3 8 3 6.3 5.1
3 8 3 11.1 5.3
-4 -8 -3 34.9 8.2
-4 -8 -3 30.1 7.5
4 8 3 41.6 10
4 8 3 31.6 8.3
-5 -8 -3 301.07 19.9
-5 -8 -3 303.27 21.2
-5 -8 -3 286.37 22.2
5 8 3 306.07 17.3
5 8 3 288.57 22.3
-6 -8 -3 206.38 19.4
6 8 3 191.48 14.9
6 8 3 193.88 19.9
0 -9 -3 443.06 23
0 -9 -3 434.56 26.2
0 9 3 484.75 23.5
0 9 3 426.86 26.9
-1 -9 -3 18.9 6.6
-1 -9 -3 32.4 7.7
1 9 3 12.2 7.2
1 9 3 -0.4 9.3
-2 -9 -3 221.38 13.8
-2 -9 -3 182.98 13.4
-2 -9 -3 180.58 18.2
2 9 3 217.48 19
-3 -9 -3 17.4 7
-3 -9 -3 24.9 8
3 9 3 12.5 7.1
-4 -9 -3 435.86 32.6
-4 -9 -3 437.76 24.8
4 9 3 430.06 31.8
4 9 3 450.95 24.1
-5 -9 -3 -3.4 9.5
-5 -9 -3 4.8 6.4
5 9 3 5.9 7.5
5 9 3 -12.3 5.9
5 9 3 -17.7 6.1
4 8 -4 291.67 14.5
4 8 -4 266.47 20.7
-4 -8 4 273.97 24.4
3 8 -4 7.5 6.2
3 8 -4 -6.4 4.6
-3 -8 4 5.6 6.5
2 8 -4 169.28 14.1
-2 -8 4 152.08 20.2
1 8 -4 2.5 4.3
1 8 -4 -0.1 4.5
-1 -8 4 3 5.9
-1 -8 4 -1.1 5.8
0 8 -4 125.89 12.8
0 8 -4 150.08 11.1
0 -8 4 155.18 21
-1 8 -4 11.1 4.5
-1 8 -4 4.2 6.4
1 -8 4 11.1 8.1
5 7 -4 86.09 14.4
5 7 -4 65.69 13.1
-5 -7 4 107.49 17.1
4 7 -4 345.37 21.4
4 7 -4 339.27 13.2
4 7 -4 346.17 24.6
4 7 -4 353.56 13
-4 -7 4 409.36 26.7
3 7 -4 45 9
3 7 -4 33.5 8
3 7 -4 54.99 7.9
-3 -7 4 59.29 11.5
-3 -7 4 30.7 9.2
2 7 -4 386.86 18.6
2 7 -4 386.86 23.8
2 7 -4 389.96 19
-2 -7 4 383.06 24.8
-2 -7 4 358.66 22.2
1 7 -4 55.99 10.8
1 7 -4 50.99 7.2
1 7 -4 58.89 8.3
-1 -7 4 62.79 12.9
-1 -7 4 53.69 11.4
0 7 -4 296.57 21.2
0 7 -4 271.57 13.1
0 7 -4 269.97 15.2
0 -7 4 297.57 24
0 -7 4 268.37 20
-1 7 -4 84.59 11.1
-1 7 -4 110.39 14.7
1 -7 4 89.99 13
1 -7 4 68.99 15.8
-2 7 -4 160.18 27.2
-2 7 -4 240.58 18.8
2 -7 4 228.38 15.7
2 -7 4 230.68 17.9
2 -7 4 222.18 24.4
3 -7 4 43.3 9.3
3 -7 4 23.2 9.3
3 -7 4 26.4 9.1
6 6 -4 39.4 11.3
-6 -6 4 52.99 11.3
5 6 -4 434.76 26.9
5 6 -4 453.55 25.3
-5 -6 4 426.76 25.6
-5 -6 4 402.36 24.3
4 6 -4 89.89 13.8
4 6 -4 102.89 13.9
4 6 -4 67.39 11
-4 -6 4 54.29 11.7
3 6 -4 520.25 17.2
3 6 -4 482.95 25.8
3 6 -4 546.85 23.4
-3 -6 4 494.85 25.5
-3 -6 4 487.55 27
2 6 -4 453.35 19.2
-2 -6 4 444.66 25.6
1 6 -4 341.37 14.3
1 6 -4 368.96 15.7
-1 -6 4 380.76 23.7
0 6 -4 103.59 8.1
0 6 -4 114.19 13.1
0 6 -4 119.79 10.7
0 -6 4 110.69 14.6
0 -6 4 121.99 12.5
-1 6 -4 272.27 10.3
-1 6 -4 280.77 16.9
-1 6 -4 295.57 19.6
1 -6 4 295.57 17.7
1 -6 4 306.37 23.1
-2 6 -4 418.46 22.2
-2 6 -4 523.95 27.2
2 -6 4 496.95 30.7
-3 6 -4 155.68 16.2
-3 6 -4 216.78 19.1
3 -6 4 160.48 19.8
3 -6 4 188.58 14.1
-4 6 -4 101.29 14.2
4 -6 4 43.8 12
4 -6 4 78.49 10.7
7 5 -4 538.25 36
7 5 -4 584.94 28.8
-7 -5 4 556.54 28.9
-7 -5 4 571.04 27
6 5 -4 13.4 6.8
6 5 -4 8.9 6.2
-6 -5 4 23.2 6.8
-6 -5 4 16.2 7.9
5 5 -4 41.2 9.6
-5 -5 4 78.49 11.9
4 5 -4 195.98 15.5
4 5 -4 170.18 16.3
-4 -5 4 183.98 22.3
-4 -5 4 213.88 16.2
3 5 -4 980.5 22.2
3 5 -4 1003.1 31.7
3 5 -4 1011 22.7
3 5 -4 1022 34.7
-3 -5 4 956.6 35.6
-3 -5 4 999.3 32.1
2 5 -4 11.1 4.4
2 5 -4 14.7 3.6
2 5 -4 13.4 4.9
-2 -5 4 16.6 5.6
-2 -5 4 21.2 6.1
1 5 -4 612.64 26.5
1 5 -4 629.84 19.7
1 5 -4 654.33 20.2
-1 -5 4 659.53 28.8
-1 -5 4 646.44 25.2
0 5 -4 10.9 3.1
0 5 -4 15.4 5.3
0 5 -4 4.5 3.8
0 -5 4 8.9 4.2
0 -5 4 6.7 4.8
-1 5 -4 614.24 26.6
-1 5 -4 675.13 28.2
1 -5 4 677.43 24.5
1 -5 4 664.33 30.9
-2 5 -4 26.3 6.8
-2 5 -4 42.6 9.1
2 -5 4 38.5 7.9
2 -5 4 49.7 12.1
-3 5 -4 378.06 21.8
3 -5 4 379.46 26.5
3 -5 4 344.07 18.4
3 -5 4 364.06 18.3
-4 5 -4 17.9 5.2
-4 5 -4 12.4 6
-4 5 -4 0.7 5.6
4 -5 4 9.9 5.8
4 -5 4 16.9 6.2
4 -5 4 18.2 6.2
-5 5 -4 316.97 21.2
-5 5 -4 309.47 16.9
5 -5 4 307.07 17.3
5 -5 4 280.97 17.5
5 -5 4 338.37 30.2
7 4 -4 32.3 10.3
-7 -4 4 57.29 13.2
-7 -4 4 52.49 10.2
6 4 -4 418.46 21.6
6 4 -4 418.06 16.8
6 4 -4 423.86 26.8
-6 -4 4 456.25 26.3
-6 -4 4 437.96 20.6
-6 -4 4 475.05 23.4
5 4 -4 794.12 21.6
5 4 -4 787.12 34
5 4 -4 807.62 29.3
-5 -4 4 795.42 30.1
4 4 -4 195.58 9.2
4 4 -4 170.48 15.5
4 4 -4 207.58 14.6
-4 -4 4 194.98 14.7
-4 -4 4 194.48 15.2
3 4 -4 179.88 14.7
3 4 -4 166.28 13
3 4 -4 184.88 6.8
3 4 -4 191.58 6.9
-3 -4 4 182.18 14.3
2 4 -4 326.97 15.4
2 4 -4 309.77 17.1
2 4 -4 348.47 12
-2 -4 4 336.27 15.6
-2 -4 4 353.26 19
1 4 -4 921.71 30.5
1 4 -4 906.21 26.4
-1 -4 4 959.9 32.7
0 4 -4 9.7 3.7
0 4 -4 12.3 2.8
0 4 -4 4.2 3.8
0 -4 4 8.9 3.3
0 -4 4 2.4 3.7
-1 4 -4 391.16 19.9
-1 4 -4 412.26 18.7
1 -4 4 444.96 22.6
1 -4 4 387.56 16.7
-2 4 -4 130.09 12.1
-2 4 -4 149.69 13.5
2 -4 4 119.79 9.8
2 -4 4 135.49 14.6
-3 4 -4 1062.49 36.5
-3 4 -4 1059.59 36.1
3 -4 4 1076.99 32.6
3 -4 4 1034.6 54.49
3 -4 4 1062.09 29.4
-4 4 -4 -1 4.1
-4 4 -4 7.5 4.1
4 -4 4 6.2 4.8
4 -4 4 -3.6 3.5
4 -4 4 2.4 3.9
-5 4 -4 163.98 15.9
-5 4 -4 137.79 16
-5 4 -4 118.19 10.7
-5 4 -4 136.19 14.8
5 -4 4 145.29 11.7
5 -4 4 147.99 19.6
5 -4 4 132.89 12.8
-6 4 -4 85.49 15.2
-6 4 -4 45.5 13.7
-6 4 -4 95.39 10.8
-6 4 -4 82.39 8.4
6 -4 4 81.89 18.6
6 -4 4 72.39 11.1
6 -4 4 80.99 12.1
7 3 -4 11.6 5.4
7 3 -4 15.9 8.3
7 3 -4 14.9 6.6
-7 -3 4 18.5 6.6
-7 -3 4 17 5.7
-7 -3 4 14.9 6.9
6 3 -4 170.58 12.9
6 3 -4 183.08 13.5
6 3 -4 174.88 18.1
-6 -3 4 155.58 12.1
-6 -3 4 173.18 13.2
-6 -3 4 147.69 16.3
5 3 -4 132.59 10.3
5 3 -4 117.49 14.2
5 3 -4 134.49 11.1
-5 -3 4 137.49 10.6
-5 -3 4 125.49 11.8
-5 -3 4 130.09 13.2
4 3 -4 692.23 20.6
4 3 -4 653.13 28
4 3 -4 711.53 24.5
-4 -3 4 718.33 27.6
-4 -3 4 706.13 25.4
3 3 -4 117.69 10.1
3 3 -4 94.19 10.6
-3 -3 4 97.49 10.4
-3 -3 4 101.99 10.2
2 3 -4 1200.98 24.1
2 3 -4 1249.57 33.7
-2 -3 4 1220.78 31.1
-2 -3 4 1199.18 34.5
1 3 -4 661.73 18.6
1 3 -4 686.03 24
-1 -3 4 654.83 18.7
-1 -3 4 656.93 24.6
0 3 -4 1259.77 35.1
0 3 -4 1247.58 29.2
0 -3 4 1212.58 30.2
0 -3 4 1278.67 34.5
-1 3 -4 518.35 22.2
1 -3 4 528.45 17.2
1 -3 4 542.45 23.1
-2 3 -4 904.41 31
-2 3 -4 975.6 30.7
2 -3 4 885.21 23.5
2 -3 4 908.51 33.6
-3 3 -4 368.16 19.9
-3 3 -4 387.66 20.1
-3 3 -4 373.06 14.1
3 -3 4 385.76 22.9
3 -3 4 378.36 18.2
3 -3 4 382.86 14.4
-4 3 -4 498.95 24.5
-4 3 -4 530.55 25.6
-4 3 -4 540.65 17.5
-4 3 -4 559.24 30.9
4 -3 4 522.15 18
4 -3 4 558.24 32.8
4 -3 4 494.35 21.3
-5 3 -4 577.54 16.8
-5 3 -4 552.94 26.7
-5 3 -4 545.65 25.3
-5 3 -4 577.64 19.5
5 -3 4 509.95 31.3
5 -3 4 583.64 19.8
5 -3 4 626.04 25.1
-6 3 -4 9.3 4.2
-6 3 -4 8.4 4.1
-6 3 -4 16.6 6.3
-6 3 -4 2 6.2
-6 3 -4 10.1 7.4
6 -3 4 -0.1 5.9
6 -3 4 14.8 6.5
-7 3 -4 1.8 6.6
-7 3 -4 3.8 4.2
-7 3 -4 9.5 6.3
-7 3 -4 -1.1 5.5
7 -3 4 21.6 8.5
7 -3 4 7.4 6.2
8 2 -4 316.77 27.1
-8 -2 4 357.56 21.5
-8 -2 4 402.56 26.4
7 2 -4 26.1 8
7 2 -4 22.9 9.5
-7 -2 4 25 6.1
-7 -2 4 25.8 5.9
-7 -2 4 53.89 11.9
-7 -2 4 22.1 8.2
6 2 -4 556.14 20
6 2 -4 559.94 24.2
6 2 -4 560.74 29.8
-6 -2 4 563.24 21.5
-6 -2 4 546.55 20
-6 -2 4 521.95 26.4
5 2 -4 -0.9 2.6
5 2 -4 1.2 4.2
5 2 -4 3.1 8.5
-5 -2 4 -0.7 3.4
-5 -2 4 -1.3 2.4
-5 -2 4 4.9 3.4
4 2 -4 854.31 31.8
4 2 -4 904.21 25.1
4 2 -4 851.61 25.2
-4 -2 4 855.51 26
-4 -2 4 839.32 30.4
-4 -2 4 858.71 21.2
3 2 -4 117.19 8.6
3 2 -4 123.79 8.8
3 2 -4 130.29 11.4
-3 -2 4 133.89 10
-3 -2 4 118.19 10.4
2 2 -4 441.96 11.3
2 2 -4 458.25 17.2
2 2 -4 405.66 18.3
-2 -2 4 424.56 16.7
-2 -2 4 450.55 17.9
1 2 -4 5.1 2.1
1 2 -4 5.8 2.6
-1 -2 4 4.7 2.2
-1 -2 4 5 2.2
0 2 -4 1572.54 38.4
0 2 -4 1593.74 33.6
0 -2 4 1552.94 28.2
0 -2 4 1556.84 36.1
-1 2 -4 171.58 9.9
-1 2 -4 156.68 11.2
1 -2 4 168.38 12.1
1 -2 4 154.18 8
-2 2 -4 236.48 12.4
-2 2 -4 240.28 15
2 -2 4 244.18 15.6
2 -2 4 233.18 9.3
-3 2 -4 138.59 12.9
-3 2 -4 116.59 11.5
-3 2 -4 133.89 10.7
3 -2 4 142.89 13.6
3 -2 4 140.79 7.3
3 -2 4 169.78 12
-4 2 -4 807.42 31.4
-4 2 -4 865.91 29
-4 2 -4 859.91 20.6
-4 2 -4 873.01 34.6
-4 2 -4 874.11 19.4
4 -2 4 880.11 36.1
4 -2 4 863.91 28.9
4 -2 4 888.51 21.2
-5 2 -4 77.59 7.1
-5 2 -4 57.49 10
-5 2 -4 82.09 7.1
5 -2 4 77.09 10.4
5 -2 4 68.09 12.8
-6 2 -4 628.84 29.8
-6 2 -4 630.44 31.6
-6 2 -4 676.93 22
-6 2 -4 648.24 34.2
-6 2 -4 659.73 19.7
-6 2 -4 676.33 28.9
6 -2 4 643.94 27.6
6 -2 4 654.53 35.3
-7 2 -4 88.19 10.8
-7 2 -4 89.49 8.9
-7 2 -4 101.29 14.4
-7 2 -4 87.39 15.2
7 -2 4 97.59 14.5
7 -2 4 79.89 17.3
7 1 -4 -4.1 5.7
7 1 -4 -1.4 5.8
-7 -1 4 -5.1 6
-7 -1 4 4.7 7.2
-7 -1 4 3.5 4.2
6 1 -4 474.35 23.5
6 1 -4 472.25 27
-6 -1 4 472.75 25.1
-6 -1 4 461.95 17.3
5 1 -4 482.85 26.2
5 1 -4 507.45 22
5 1 -4 489.85 15.9
-5 -1 4 539.55 20.6
-5 -1 4 508.75 25.2
-5 -1 4 494.25 24
-5 -1 4 480.15 15.7
4 1 -4 635.94 26.8
4 1 -4 609.34 17.9
4 1 -4 667.83 23
-4 -1 4 567.04 25.5
-4 -1 4 641.24 20.6
-4 -1 4 621.64 19.1
-4 -1 4 637.74 24.5
-4 -1 4 609.24 24.8
3 1 -4 306.47 12.2
3 1 -4 312.07 17.1
3 1 -4 296.27 13.9
-3 -1 4 305.37 16.2
-3 -1 4 304.57 11.4
-3 -1 4 322.47 13.3
2 1 -4 1933.61 39.2
2 1 -4 1874.81 33
2 1 -4 1887.01 43.6
-2 -1 4 1947.41 43
-2 -1 4 1972.9 33.5
1 1 -4 1602.04 36.6
1 1 -4 1648.64 31.2
1 1 -4 1704.13 36.5
-1 -1 4 1602.54 31
-1 -1 4 1689.73 30.1
0 1 -4 1256.37 27
0 1 -4 1276.97 31.6
0 -1 4 1258.57 27.3
0 -1 4 1248.88 28.2
-1 1 -4 55.09 6.5
-1 1 -4 58.59 6
1 -1 4 56.79 6.7
-2 1 -4 1675.33 37.5
-2 1 -4 1727.13 42.7
2 -1 4 1758.62 40.5
2 -1 4 1751.52 30.2
2 -1 4 1733.53 43.5
-3 1 -4 2.2 2.2
-3 1 -4 -0.1 2.9
3 -1 4 1.9 3
3 -1 4 -0.4 2.9
3 -1 4 1.2 1.3
-4 1 -4 880.81 20.7
-4 1 -4 846.52 17.5
-4 1 -4 840.52 30.8
-4 1 -4 867.91 33.4
-4 1 -4 848.02 27.6
4 -1 4 928.31 34.6
4 -1 4 863.01 28.9
-5 1 -4 317.17 18.3
-5 1 -4 307.37 17.4
-5 1 -4 298.17 13.1
-5 1 -4 280.47 18.9
-5 1 -4 297.87 10.2
5 -1 4 331.27 18.4
5 -1 4 299.77 21.4
-6 1 -4 275.17 18.2
-6 1 -4 253.37 21.8
-6 1 -4 281.87 20.1
-6 1 -4 324.17 17
-6 1 -4 272.67 14.5
-6 1 -4 270.27 18.3
6 -1 4 241.28 21.8
6 -1 4 298.67 19.1
-7 1 -4 5.8 5.9
-7 1 -4 12.7 8
-7 1 -4 12.3 3.6
-7 1 -4 19.9 7
7 -1 4 19.4 7.5
-8 1 -4 227.98 17.2
-8 1 -4 214.78 19.4
-8 1 -4 220.48 12.1
-8 1 -4 201.58 16.7
7 0 -4 579.84 30.2
-7 0 4 553.74 17.7
-7 0 4 587.44 17
-7 0 4 586.34 27.5
-7 0 4 599.84 29.7
6 0 -4 3.3 6.1
6 0 -4 15.1 6.4
-6 0 4 2.9 4.8
-6 0 4 -2.7 3.9
-6 0 4 2.1 2.6
5 0 -4 243.18 27.1
5 0 -4 240.88 16
-5 0 4 248.48 9.8
-5 0 4 237.28 18.8
4 0 -4 244.48 16.7
4 0 -4 223.08 7.9
4 0 -4 248.48 15.1
-4 0 4 233.18 9
-4 0 4 227.88 14.9
-4 0 4 222.28 15.1
-4 0 4 218.58 15.8
3 0 -4 492.85 19.2
3 0 -4 488.85 13
3 0 -4 483.95 21.2
-3 0 4 476.65 19.4
-3 0 4 511.75 20.5
-3 0 4 502.15 13.4
2 0 -4 7.1 1.9
2 0 -4 2.2 3
2 0 -4 3.2 2
-2 0 4 5 3
-2 0 4 5.8 2.1
-2 0 4 -0.3 2.2
1 0 -4 942.11 21.1
1 0 -4 936.31 23
1 0 -4 932.71 24.4
-1 0 4 928.01 21.1
0 0 -4 1536.85 30.4
0 0 -4 1575.14 31.6
0 0 -4 1582.34 31.7
0 0 4 1545.65 31.6
0 0 4 1536.05 30.2
-1 0 -4 2858.51 53.19
-1 0 -4 2822.42 52.59
1 0 4 2738.03 44.3
1 0 4 2772.82 51.19
1 0 4 2772.82 52.79
-2 0 -4 1237.08 32.7
-2 0 -4 1209.08 29.2
2 0 4 1219.98 29.3
2 0 4 1189.18 23.7
2 0 4 1227.18 31.2
2 0 4 1170.78 32.2
-3 0 -4 951.7 31
-3 0 -4 918.11 26
3 0 4 923.21 28.1
3 0 4 931.91 30.7
3 0 4 890.61 21.2
-4 0 -4 481.85 19.2
-4 0 -4 466.55 23.4
4 0 4 493.35 20.9
4 0 4 489.75 16.6
4 0 4 456.15 22.9
-5 0 -4 152.58 6.2
-5 0 -4 185.18 12.9
-5 0 -4 141.59 15.6
-5 0 -4 166.68 14.4
-5 0 -4 159.58 10.4
-5 0 -4 151.48 11.6
-5 0 -4 160.08 13.2
5 0 4 161.48 13.8
-6 0 -4 575.14 22.1
-6 0 -4 510.25 29
-6 0 -4 582.04 15.4
-6 0 -4 543.05 24.1
-6 0 -4 554.34 24.5
-6 0 -4 576.64 27.7
-6 0 -4 578.54 26
6 0 4 554.64 25.7
-7 0 -4 110.39 15.1
-7 0 -4 97.89 12.2
-7 0 -4 112.99 14.4
-7 0 -4 78.39 16.4
-7 0 -4 123.99 12.1
-7 0 -4 85.79 11.5
-7 0 -4 90.79 12.9
-7 0 -4 109.09 8
7 0 4 105.09 14
-8 0 -4 93.29 14.2
-8 0 -4 106.99 12.8
-8 0 -4 90.99 14.4
-8 0 -4 134.79 14.1
-8 0 -4 109.89 9.1
7 -1 -4 233.28 20.2
-7 1 4 234.18 13.1
-7 1 4 204.38 19.5
-7 1 4 224.88 16.8
6 -1 -4 -4.3 4.7
-6 1 4 6.5 3.9
-6 1 4 -6.6 2.8
-6 1 4 3.2 5.8
-6 1 4 -1 5.3
-6 1 4 -2.6 4.6
5 -1 -4 1172.28 42.6
5 -1 -4 1225.38 40.2
-5 1 4 1318.27 29.9
-5 1 4 1220.48 39.3
4 -1 -4 16.8 6
4 -1 -4 26.9 6.6
-4 1 4 35.6 5.3
-4 1 4 27.3 6.7
-4 1 4 22.2 5.9
3 -1 -4 2399.66 52.99
3 -1 -4 2270.87 40.2
3 -1 -4 2334.27 54.29
-3 1 4 2391.76 43.9
-3 1 4 2354.16 52.29
-3 1 4 2318.17 51.49
2 -1 -4 561.34 20.6
2 -1 -4 581.64 13.6
2 -1 -4 582.44 16.8
-2 1 4 565.34 19.7
-2 1 4 549.74 15.9
-2 1 4 574.14 19.6
1 -1 -4 565.24 18
1 -1 -4 605.64 16.7
-1 1 4 550.74 17.4
-1 1 4 541.65 15.7
-1 1 4 556.14 17
0 -1 -4 152.18 8.3
0 -1 -4 168.68 7.8
0 -1 -4 168.78 7.9
0 1 4 182.38 8.7
0 1 4 173.88 8.2
-1 -1 -4 1451.25 26.6
-1 -1 -4 1480.85 32.1
-1 -1 -4 1468.55 32.7
-1 -1 -4 1464.75 26
1 1 4 1494.75 36
1 1 4 1492.35 32.1
1 1 4 1462.05 26.7
-2 -1 -4 122.29 9.3
-2 -1 -4 120.19 8.4
2 1 4 103.79 7.7
2 1 4 112.39 8.6
-3 -1 -4 647.84 22
-3 -1 -4 623.14 20.8
-3 -1 -4 656.73 16.5
-3 -1 -4 611.74 24.1
3 1 4 647.44 20.9
3 1 4 621.54 22.3
3 1 4 606.94 18.3
-4 -1 -4 39.8 8.6
-4 -1 -4 23.1 5.3
-4 -1 -4 21.2 4.6
-4 -1 -4 6.9 5
4 1 4 26.2 5.8
4 1 4 28.9 7.3
4 1 4 29.1 5.5
-5 -1 -4 920.41 36.1
-5 -1 -4 948.71 32.8
-5 -1 -4 986.5 30.2
-5 -1 -4 962.6 27.8
-5 -1 -4 994.7 19
-5 -1 -4 958.1 32.2
5 1 4 973.5 32.9
5 1 4 996.5 29.4
-6 -1 -4 3.7 6.9
-6 -1 -4 9.3 5
-6 -1 -4 16.7 5.8
-6 -1 -4 4.1 5
-6 -1 -4 19.6 4.3
-6 -1 -4 7 4.1
-6 -1 -4 22.3 7.2
-6 -1 -4 11.1 4.5
6 1 4 13.1 6.8
6 1 4 18.2 6.2
-7 -1 -4 452.85 32.3
-7 -1 -4 435.56 22.3
-7 -1 -4 384.76 27.9
-7 -1 -4 396.16 24
-7 -1 -4 378.66 14.2
-7 -1 -4 432.26 20.9
-7 -1 -4 441.06 22.3
-7 -1 -4 426.76 22.2
7 1 4 419.86 24.5
-8 -1 -4 2.5 5.2
-8 -1 -4 13 7.6
-8 -1 -4 4.2 6.4
-8 -1 -4 11.8 4
-8 -1 -4 -2.4 6.1
-7 2 4 184.08 13
-7 2 4 161.38 15
6 -2 -4 25.8 9.1
-6 2 4 2.3 5.5
-6 2 4 11.4 5
-6 2 4 9 4.8
-6 2 4 6.3 7.4
-6 2 4 9.8 5.8
5 -2 -4 41.2 9.9
5 -2 -4 37.5 7.7
-5 2 4 26.6 6.8
-5 2 4 30 6.5
-5 2 4 34.4 7.1
4 -2 -4 731.23 29.8
4 -2 -4 757.72 25.6
-4 2 4 832.52 24
-4 2 4 793.42 29.1
-4 2 4 815.52 30
3 -2 -4 925.81 28.8
3 -2 -4 903.81 24.6
3 -2 -4 936.81 30.9
-3 2 4 921.31 24.8
-3 2 4 900.61 29.1
-3 2 4 907.31 29.6
2 -2 -4 248.08 14.2
-2 2 4 250.67 11.6
-2 2 4 282.87 13.9
-2 2 4 245.28 13.4
1 -2 -4 1167.78 28.7
1 -2 -4 1184.88 30.5
1 -2 -4 1137.49 22.9
1 -2 -4 1145.89 28
-1 2 4 1184.18 29.3
-1 2 4 1189.28 27.4
-1 2 4 1151.68 27.7
0 -2 -4 300.37 12.4
0 -2 -4 314.47 11.1
0 -2 -4 282.37 11.4
0 2 4 284.87 9.9
0 2 4 282.67 13.2
0 2 4 279.27 11.8
-1 -2 -4 1525.85 33.4
-1 -2 -4 1408.36 28.7
1 2 4 1448.26 32.5
1 2 4 1475.45 29.3
1 2 4 1582.94 35.7
-2 -2 -4 223.48 11.4
-2 -2 -4 213.58 7.6
-2 -2 -4 230.58 11.7
2 2 4 218.48 8
2 2 4 219.28 11.3
2 2 4 226.18 12
-3 -2 -4 1624.14 42
-3 -2 -4 1525.95 27.6
-3 -2 -4 1583.54 38.6
-3 -2 -4 1656.33 38.5
-3 -2 -4 1616.24 37.1
3 2 4 1548.95 39.1
3 2 4 1728.23 37.7
3 2 4 1565.64 36.8
-4 -2 -4 1.4 2.4
-4 -2 -4 2.7 2.1
-4 -2 -4 3.3 3.1
-4 -2 -4 1.7 2.8
-4 -2 -4 1.9 1.4
-4 -2 -4 2.1 2.5
4 2 4 3.5 2.6
4 2 4 0 3.1
4 2 4 0.3 3.2
-5 -2 -4 1125.19 34
-5 -2 -4 1093.69 27.7
-5 -2 -4 1067.69 39.1
-5 -2 -4 1181.78 36.1
-5 -2 -4 1068.39 22.5
-5 -2 -4 1115.99 32.4
5 2 4 1120.99 35.9
5 2 4 1106.09 31.4
5 2 4 1097.39 32.9
-6 -2 -4 50.39 8.5
-6 -2 -4 53.99 9.3
-6 -2 -4 48.8 7.6
-6 -2 -4 41.1 9.2
-6 -2 -4 52.39 10.3
-6 -2 -4 55.39 5.8
6 2 4 60.79 9.7
6 2 4 51.59 10.7
-7 -2 -4 413.46 20.7
-7 -2 -4 375.66 21.1
-7 -2 -4 414.16 23.8
-7 -2 -4 389.76 20.6
-7 -2 -4 394.46 23.1
-7 -2 -4 398.06 14.5
-7 -2 -4 420.86 28.2
-7 -2 -4 437.36 21.8
7 2 4 382.06 23.8
-8 -2 -4 7.5 5.8
-8 -2 -4 10.7 4.3
-8 -2 -4 5 5.6
-8 -2 -4 8.8 5.4
-8 -2 -4 -1.4 7.5
-8 -2 -4 1.4 7.6
6 -3 -4 331.07 20.4
6 -3 -4 345.67 24.9
-6 3 4 376.56 16.6
-6 3 4 393.76 19.9
-6 3 4 381.16 24.1
5 -3 -4 356.76 20
5 -3 -4 345.97 23.1
-5 3 4 311.17 21.5
-5 3 4 327.27 21.2
-5 3 4 346.97 14.4
-5 3 4 343.87 17.7
4 -3 -4 278.47 19.1
4 -3 -4 276.07 16.2
-4 3 4 276.87 11.7
-4 3 4 280.07 17.9
-4 3 4 241.58 17.3
-4 3 4 259.37 14.5
3 -3 -4 2.4 3.5
3 -3 -4 4.1 3
3 -3 -4 4.1 4.2
-3 3 4 0.7 3
-3 3 4 5 4.5
-3 3 4 6.4 3.1
2 -3 -4 1199.38 35
-2 3 4 1176.38 33
-2 3 4 1104.29 31.9
-2 3 4 1161.28 30.2
1 -3 -4 704.13 22.4
1 -3 -4 685.73 16.9
1 -3 -4 723.93 24.4
1 -3 -4 682.23 22
-1 3 4 669.73 22.3
-1 3 4 717.93 21.7
-1 3 4 705.53 17.6
-1 3 4 705.53 21.5
0 -3 -4 765.92 20.2
0 -3 -4 750.12 21.8
0 -3 -4 767.42 22.8
0 3 4 791.02 22.5
0 3 4 754.92 22.2
0 3 4 762.32 19.6
0 3 4 770.52 19.9
-1 -3 -4 554.04 16.7
-1 -3 -4 535.65 18.6
-1 -3 -4 532.55 17.5
1 3 4 546.85 18.2
1 3 4 547.95 17.7
1 3 4 518.85 16.6
-2 -3 -4 2289.07 47.7
-2 -3 -4 2336.27 43.1
-2 -3 -4 2401.36 48.5
-2 -3 -4 2385.36 48.8
2 3 4 2337.27 43.8
2 3 4 2368.36 48.8
2 3 4 2355.46 47.8
-3 -3 -4 587.84 16
-3 -3 -4 615.34 21.7
-3 -3 -4 575.84 21.4
-3 -3 -4 589.94 20.4
3 3 4 604.44 22.4
3 3 4 586.24 20.4
3 3 4 593.74 21.3
-4 -3 -4 410.46 19
-4 -3 -4 390.76 12.8
-4 -3 -4 382.56 18.2
-4 -3 -4 401.96 17.1
4 3 4 394.06 17.1
4 3 4 380.86 18.2
4 3 4 386.56 19.2
-5 -3 -4 157.48 8.4
-5 -3 -4 146.99 13
-5 -3 -4 168.98 13.3
-5 -3 -4 163.08 11.9
-5 -3 -4 170.38 15.7
5 3 4 153.18 11.7
5 3 4 161.68 12.9
5 3 4 156.78 13.9
-6 -3 -4 619.34 20.9
-6 -3 -4 604.34 31.5
-6 -3 -4 631.04 18.5
-6 -3 -4 638.44 26.4
-6 -3 -4 597.94 23.3
-6 -3 -4 655.93 32.3
6 3 4 618.44 26.8
6 3 4 569.44 22.9
6 3 4 640.84 28.4
-7 -3 -4 318.27 18.5
-7 -3 -4 322.17 25.5
-7 -3 -4 311.37 19.6
-7 -3 -4 290.37 17
-7 -3 -4 326.67 20.4
-7 -3 -4 321.07 14.1
-7 -3 -4 331.17 21.3
-7 -3 -4 304.07 14
7 3 4 288.67 19.8
-8 -3 -4 9.7 4.8
-8 -3 -4 11.6 5
-8 -3 -4 13.3 5.7
-8 -3 -4 21.8 11.6
-8 -3 -4 18 7.4
-8 -3 -4 2.2 4.5
8 3 4 9.1 6.1
6 -4 -4 514.25 28.9
6 -4 -4 500.85 30.6
-6 4 4 472.75 31.2
-6 4 4 488.75 24.4
5 -4 -4 5.6 6.9
5 -4 -4 2.4 5.7
5 -4 -4 10 5.2
-5 4 4 5.9 5.6
-5 4 4 0.6 6.1
-5 4 4 13.2 5.2
4 -4 -4 534.45 27.7
4 -4 -4 572.84 26
-4 4 4 549.74 23
-4 4 4 533.25 25.8
3 -4 -4 67.39 11.2
3 -4 -4 71.29 10.3
-3 4 4 79.29 9.5
-3 4 4 80.89 10.9
2 -4 -4 1425.76 41.6
2 -4 -4 1467.85 39.7
2 -4 -4 1459.85 27.9
-2 4 4 1488.55 40.4
-2 4 4 1482.75 38
-2 4 4 1520.55 40
1 -4 -4 118.49 7.4
1 -4 -4 111.59 10.5
1 -4 -4 125.19 10.3
-1 4 4 114.09 10.4
-1 4 4 116.59 9.3
-1 4 4 109.39 5.6
-1 4 4 122.39 9.8
0 -4 -4 906.91 27.7
0 -4 -4 922.91 24.1
0 -4 -4 903.01 26.5
0 4 4 893.41 24.2
0 4 4 958.4 22
0 4 4 953 28.4
0 4 4 919.01 27.2
-1 -4 -4 0.6 2.3
-1 -4 -4 1.4 2.2
-1 -4 -4 1.2 2.1
1 4 4 0.1 2.8
1 4 4 0.4 1.8
1 4 4 1.5 2.5
-2 -4 -4 405.26 16.2
-2 -4 -4 396.26 16.9
-2 -4 -4 369.06 16.5
-2 -4 -4 413.66 15.3
2 4 4 367.56 15.1
2 4 4 388.06 16.2
2 4 4 371.86 16
-3 -4 -4 325.77 16.5
-3 -4 -4 336.37 15.7
-3 -4 -4 316.77 13.2
-3 -4 -4 306.07 15.6
3 4 4 340.47 15.6
3 4 4 371.86 17.9
3 4 4 326.97 16.4
-4 -4 -4 696.63 23.6
-4 -4 -4 719.23 26.7
-4 -4 -4 689.63 20.5
-4 -4 -4 723.13 26.5
4 4 4 703.63 27.9
4 4 4 722.03 15.9
4 4 4 757.62 27.5
4 4 4 696.13 26.7
-5 -4 -4 10.6 3.9
-5 -4 -4 5 4.1
-5 -4 -4 7.3 5.7
-5 -4 -4 8.3 4.2
5 4 4 6.2 4.2
5 4 4 2.8 3
5 4 4 0.4 4
-6 -4 -4 255.07 20.1
-6 -4 -4 269.67 16.5
-6 -4 -4 253.97 15.1
-6 -4 -4 249.97 12.7
-6 -4 -4 252.57 18
6 4 4 283.57 19
6 4 4 243.58 15
-7 -4 -4 9.3 6.7
-7 -4 -4 15.1 6
-7 -4 -4 7.1 4.6
-7 -4 -4 10 7.1
-7 -4 -4 17.7 7.3
-7 -4 -4 12.1 6
7 4 4 7.2 7.2
-8 -4 -4 1107.29 41.6
-8 -4 -4 1253.37 33.3
-8 -4 -4 1148.29 32.8
-8 -4 -4 1228.28 39.8
-8 -4 -4 1147.59 36
8 4 4 1246.48 45.8
5 -5 -4 56.99 21
5 -5 -4 23.7 7.5
-5 5 4 37.7 9.2
-5 5 4 22.9 11.5
4 -5 -4 362.26 24.5
4 -5 -4 387.36 23.7
4 -5 -4 342.57 22.2
-4 5 4 381.66 21.2
-4 5 4 387.86 24.3
-4 5 4 394.66 23.4
3 -5 -4 286.97 20.2
3 -5 -4 326.77 21.6
-3 5 4 268.47 18.5
-3 5 4 300.37 17.7
2 -5 -4 265.97 17.9
2 -5 -4 249.38 11.2
-2 5 4 267.07 15.9
-2 5 4 244.38 16.4
-2 5 4 247.18 24.4
1 -5 -4 366.56 14.6
1 -5 -4 340.37 18.6
1 -5 -4 354.96 18.2
-1 5 4 362.16 18
-1 5 4 362.36 18.7
-1 5 4 357.56 17.7
-1 5 4 325.87 13.1
0 -5 -4 985.6 27.2
0 -5 -4 959.3 29.9
0 -5 -4 997.3 30.4
0 5 4 971.7 26.3
0 5 4 933.11 30
0 5 4 959.6 29.6
-1 -5 -4 80.79 9
-1 -5 -4 97.99 9.1
-1 -5 -4 90.39 8.9
1 5 4 101.69 9.1
1 5 4 103.19 9.4
1 5 4 108.19 10.1
1 5 4 94.89 10.5
-2 -5 -4 983.6 30.2
-2 -5 -4 980.2 28
-2 -5 -4 1067.79 30.9
-2 -5 -4 1004.3 29
2 5 4 1011.3 28.4
2 5 4 1004.9 29.5
2 5 4 1030.1 30.1
2 5 4 991 29.6
-3 -5 -4 680.83 25.5
-3 -5 -4 610.74 21.5
-3 -5 -4 664.43 23.9
-3 -5 -4 641.54 23.3
3 5 4 613.14 15.6
3 5 4 606.14 23.5
3 5 4 651.73 26
3 5 4 630.24 22.9
-4 -5 -4 1201.58 36.8
-4 -5 -4 1166.88 31.2
-4 -5 -4 1182.68 33.6
-4 -5 -4 1201.58 37.2
4 5 4 1173.58 38.2
4 5 4 1202.48 24.7
4 5 4 1197.68 33.9
-5 -5 -4 10.1 5.3
-5 -5 -4 11.1 4.4
-5 -5 -4 9.4 4.3
-5 -5 -4 15.4 5.6
5 5 4 11.1 4.4
5 5 4 5.8 3.4
5 5 4 0.4 3.6
-6 -5 -4 240.78 18.3
-6 -5 -4 245.08 15
-6 -5 -4 287.27 24.4
-6 -5 -4 276.27 15.9
-6 -5 -4 260.97 14.3
6 5 4 277.87 20.1
6 5 4 268.37 13.2
6 5 4 273.67 16.6
-7 -5 -4 26.4 9.7
-7 -5 -4 22.4 6.1
-7 -5 -4 26.7 7.6
-7 -5 -4 25.7 6
-7 -5 -4 28.7 7.2
7 5 4 6.4 5.5
7 5 4 10.5 5.5
-8 -5 -4 75.89 10.6
-8 -5 -4 80.19 12.2
-8 -5 -4 73.39 13.6
-8 -5 -4 54.49 9.6
8 5 4 100.29 15.6
4 -6 -4 74.89 16
4 -6 -4 82.99 15
-4 6 4 101.19 15.6
3 -6 -4 176.38 18.5
3 -6 -4 209.18 18.5
3 -6 -4 217.18 17.9
-3 6 4 248.48 19.5
-3 6 4 240.18 17
-3 6 4 210.18 17.9
2 -6 -4 218.08 17.8
2 -6 -4 210.88 12
-2 6 4 214.38 18.3
-2 6 4 145.69 14.1
-2 6 4 184.58 16.2
1 -6 -4 450.15 18.3
1 -6 -4 424.56 22.2
-1 6 4 424.86 21.9
-1 6 4 421.86 21.4
-1 6 4 413.96 16.4
0 -6 -4 247.68 15.6
0 -6 -4 270.07 15.3
0 -6 -4 276.37 16.9
0 6 4 297.67 14.7
0 6 4 247.08 16.8
-1 -6 -4 330.07 17.3
-1 -6 -4 334.37 17.9
-1 -6 -4 308.27 16.3
1 6 4 358.46 19
1 6 4 351.36 17.8
1 6 4 343.27 16.7
-2 -6 -4 326.47 18
-2 -6 -4 314.27 17.7
-2 -6 -4 335.17 17.5
-2 -6 -4 313.57 15.5
2 6 4 310.47 17.4
2 6 4 322.97 17
2 6 4 293.07 16.5
-3 -6 -4 491.25 21
-3 -6 -4 530.35 21.7
-3 -6 -4 505.15 21.9
-3 -6 -4 531.25 23.9
3 6 4 509.35 25
3 6 4 488.95 22.6
3 6 4 500.55 21.3
-4 -6 -4 257.07 17.2
-4 -6 -4 292.87 18.3
-4 -6 -4 270.77 16.3
-4 -6 -4 261.37 15.5
4 6 4 272.27 11.4
4 6 4 283.47 17.7
4 6 4 252.97 18.3
4 6 4 269.17 15.9
-5 -6 -4 356.46 18.4
-5 -6 -4 347.37 20.7
-5 -6 -4 341.57 17.5
5 6 4 349.37 21.9
5 6 4 334.77 18.1
-6 -6 -4 417.96 18.2
-6 -6 -4 422.96 25.3
-6 -6 -4 441.66 20.6
-6 -6 -4 419.26 19.8
-6 -6 -4 412.96 24
6 6 4 452.15 21.5
6 6 4 419.26 24.8
6 6 4 424.36 16.5
-7 -6 -4 125.19 12.4
-7 -6 -4 142.29 12.5
-7 -6 -4 129.09 15.4
-7 -6 -4 112.59 14.9
7 6 4 130.99 16.3
7 6 4 131.79 11.6
3 -7 -4 406.56 28.9
3 -7 -4 492.25 28.4
2 -7 -4 -1.7 3.9
2 -7 -4 6.5 5.5
-2 7 4 4.1 5.2
-2 7 4 -3.2 3.8
-2 7 4 11.4 8.7
1 -7 -4 915.41 35
1 -7 -4 866.61 34.2
1 -7 -4 971.4 30.6
-1 7 4 921.51 33.9
-1 7 4 914.31 27.9
-1 7 4 929.41 35.6
0 -7 -4 78.99 9.7
0 -7 -4 60.99 9.6
0 7 4 75.89 12.3
0 7 4 66.99 9
-1 -7 -4 482.05 22.9
-1 -7 -4 492.45 23.8
-1 -7 -4 484.65 21.5
1 7 4 506.95 24.7
1 7 4 512.85 22
-2 -7 -4 3 4.4
-2 -7 -4 2.2 4
-2 -7 -4 4.8 4.6
-2 -7 -4 4.8 3.9
2 7 4 3.9 4.3
2 7 4 -2.7 4.4
-3 -7 -4 266.17 16.6
-3 -7 -4 255.77 17.6
-3 -7 -4 256.47 16.1
-3 -7 -4 254.87 13.5
3 7 4 251.07 18.5
3 7 4 256.17 17.4
-4 -7 -4 -3.6 4.4
-4 -7 -4 -8.3 3.6
-4 -7 -4 5.9 5.8
-4 -7 -4 -0.9 3.5
4 7 4 -1.7 3.5
4 7 4 0.5 2.1
4 7 4 5.4 4.8
4 7 4 6.6 5.5
-5 -7 -4 231.08 18.5
-5 -7 -4 268.57 16.9
-5 -7 -4 272.57 16.7
-5 -7 -4 265.17 20.4
5 7 4 260.37 20.5
5 7 4 238.88 12.7
-6 -7 -4 12.7 6.2
-6 -7 -4 13.4 6.3
-6 -7 -4 12.5 8.2
-6 -7 -4 19.1 5.6
-6 -7 -4 16.1 5.3
6 7 4 16.8 7.9
6 7 4 16.4 5.2
-7 -7 -4 140.39 16.1
-7 -7 -4 162.88 18.7
-7 -7 -4 157.08 10.7
-7 -7 -4 151.18 13.8
7 7 4 173.18 18.8
7 7 4 158.68 12.9
2 -8 -4 119.19 16.2
-2 8 4 123.29 12
-2 8 4 140.29 16.8
1 -8 -4 96.89 13.7
1 -8 -4 96.89 12.2
-1 8 4 92.59 11.4
-1 8 4 96.89 15.8
-1 8 4 98.99 14.9
0 -8 -4 170.38 15.2
0 8 4 170.48 13.3
0 8 4 143.49 16.5
-1 -8 -4 630.54 27.9
-1 -8 -4 596.04 28.3
-1 -8 -4 618.44 25.7
1 8 4 582.24 28.6
1 8 4 547.15 26.3
1 8 4 585.94 25.4
-2 -8 -4 6 6.1
-2 -8 -4 8.8 5.2
-2 -8 -4 6.9 5.6
-2 -8 -4 11.3 5.7
2 8 4 14.8 6.1
2 8 4 24 9.8
2 8 4 1.4 5.6
-3 -8 -4 317.47 18.4
-3 -8 -4 313.47 21.1
-3 -8 -4 325.77 20.3
-3 -8 -4 314.57 15.5
3 8 4 280.37 22
3 8 4 315.47 19.1
3 8 4 295.57 19.5
-4 -8 -4 21.3 7.1
-4 -8 -4 15 5
-4 -8 -4 10.9 6.5
-4 -8 -4 2.9 4.5
4 8 4 19 9
4 8 4 20.7 6
4 8 4 20.7 6.3
-5 -8 -4 724.13 30.1
-5 -8 -4 703.33 33.8
-5 -8 -4 720.33 32.4
5 8 4 726.03 34.8
5 8 4 679.33 29.1
5 8 4 730.43 23.8
-6 -8 -4 87.59 14.5
-6 -8 -4 61.99 13.2
6 8 4 81.39 10.4
6 8 4 73.49 12.3
6 8 4 87.69 16
0 -9 -4 375.56 24.1
0 -9 -4 415.86 24.1
0 9 4 417.96 27.4
0 9 4 400.46 21.8
-1 -9 -4 71.29 11.3
-1 -9 -4 67.19 13.2
1 9 4 54.09 9.5
1 9 4 67.69 14.2
-2 -9 -4 178.18 17.1
-2 -9 -4 154.08 13.4
2 9 4 147.19 18.8
2 9 4 177.28 24.9
-3 -9 -4 161.48 12.1
-3 -9 -4 167.08 18.1
-3 -9 -4 174.08 15.4
3 9 4 95.49 21.9
-4 -9 -4 210.98 20
-4 -9 -4 207.08 16.7
4 9 4 183.78 20.1
3 8 -5 14.3 6.1
3 8 -5 23 7.3
3 8 -5 11.5 5.8
-3 -8 5 -0.1 7.7
2 8 -5 210.68 15.5
-2 -8 5 213.38 22.5
-2 -8 5 170.48 20.3
1 8 -5 128.79 10.1
1 8 -5 113.69 10.7
-1 -8 5 101.49 19.2
0 8 -5 53.89 10.3
0 -8 5 75.39 15.1
5 7 -5 18 5.6
-5 -7 5 -7.7 6.4
4 7 -5 187.78 21.6
-4 -7 5 217.48 20.4
3 7 -5 6.3 5.6
3 7 -5 7.4 4.2
3 7 -5 -1 3.8
-3 -7 5 6.8 5.9
2 7 -5 452.25 20.1
-2 -7 5 411.16 27.2
-2 -7 5 416.36 27.8
1 7 -5 -7.1 2.9
1 7 -5 2.2 3.5
-1 -7 5 -5.3 5.3
-1 -7 5 -8.3 4.3
0 7 -5 160.98 12.9
0 -7 5 167.98 16.5
0 -7 5 170.58 19.3
-1 7 -5 -8.1 3.3
1 -7 5 -0.3 5.5
1 -7 5 9.1 7
-2 7 -5 133.19 16
2 -7 5 140.69 19.8
2 -7 5 151.18 15.6
2 -7 5 174.98 32.1
6 6 -5 52.69 11.3
-6 -6 5 89.49 15.7
5 6 -5 37 10
5 6 -5 26.9 8.7
-5 -6 5 20.1 7.4
-5 -6 5 28.2 8.7
4 6 -5 172.68 18.7
4 6 -5 205.68 18.1
-4 -6 5 190.68 19.1
3 6 -5 119.69 9
3 6 -5 127.89 14.5
3 6 -5 123.09 8.8
-3 -6 5 103.79 14.6
-3 -6 5 121.89 13.8
2 6 -5 590.74 18.1
2 6 -5 632.34 23.4
2 6 -5 635.24 21.5
-2 -6 5 593.74 31.1
-2 -6 5 631.34 29.6
1 6 -5 36.5 6.8
1 6 -5 32 6.9
0 6 -5 455.25 20.5
0 6 -5 436.66 24.7
0 -6 5 486.45 27.7
-1 6 -5 50.69 9.2
-1 6 -5 52.79 11.9
1 -6 5 26.8 8.4
-2 6 -5 299.47 22
2 -6 5 258.07 23.5
-3 6 -5 49.6 13.8
-3 6 -5 57.09 13.5
3 -6 5 18.3 8.8
3 -6 5 30.4 8.5
-4 6 -5 145.29 16.8
4 -6 5 141.99 20.8
4 -6 5 171.08 15.1
6 5 -5 92.09 14.1
6 5 -5 80.39 15.6
-6 -5 5 55.29 13.4
5 5 -5 178.88 18.9
5 5 -5 219.48 17.3
-5 -5 5 125.39 19.6
-5 -5 5 160.38 16.4
4 5 -5 116.19 14.5
-4 -5 5 121.59 13
-4 -5 5 123.19 14.7
3 5 -5 609.24 16.5
-3 -5 5 615.14 25
-3 -5 5 612.84 29.1
2 5 -5 106.19 8.7
-2 -5 5 101.89 11.6
-2 -5 5 98.09 13.2
1 5 -5 540.45 20.1
1 5 -5 573.44 20.4
-1 -5 5 538.35 25.3
-1 -5 5 562.94 24.2
0 5 -5 570.94 22.4
0 -5 5 532.25 22.5
0 -5 5 539.65 27.1
-1 5 -5 329.47 21
-1 5 -5 329.57 18.3
1 -5 5 303.77 22.2
1 -5 5 298.17 16.6
-2 5 -5 128.09 13.3
-2 5 -5 134.19 14.1
2 -5 5 124.19 15.9
2 -5 5 141.29 12.2
-3 5 -5 205.28 26.7
3 -5 5 210.88 14
3 -5 5 242.28 22.5
3 -5 5 224.68 16.7
-4 5 -5 476.95 25.2
-4 5 -5 415.66 25.1
-4 5 -5 476.55 27.4
4 -5 5 432.36 22.4
4 -5 5 446.36 31
4 -5 5 436.66 20.3
-5 5 -5 92.79 14.4
5 -5 5 125.69 20.5
5 -5 5 114.19 18
5 -5 5 92.89 12.4
7 4 -5 71.79 10.6
7 4 -5 89.79 16.3
-7 -4 5 45.9 10.3
-7 -4 5 63.59 12.2
6 4 -5 72.79 8.9
6 4 -5 67.59 14.3
-6 -4 5 34.9 7.8
-6 -4 5 64.59 13.3
-6 -4 5 66.39 9.6
5 4 -5 1176.98 37.1
5 4 -5 1077.59 41.8
5 4 -5 1162.58 29.3
-5 -4 5 1129.49 38.4
4 4 -5 75.69 11.8
4 4 -5 94.19 8.1
4 4 -5 96.79 11.5
-4 -4 5 85.89 11
-4 -4 5 95.39 11.7
3 4 -5 84.09 11.8
3 4 -5 93.49 5.5
3 4 -5 101.39 11.4
-3 -4 5 92.29 11.9
-3 -4 5 102.89 10.4
2 4 -5 319.37 12.2
2 4 -5 326.87 18.5
-2 -4 5 313.37 19.6
-2 -4 5 325.97 15.7
1 4 -5 1285.27 39.7
1 4 -5 1391.26 32.2
-1 -4 5 1368.16 38.5
-1 -4 5 1378.36 31.1
-1 -4 5 1330.77 37
0 4 -5 -1 2.8
0 4 -5 0.4 3.1
0 -4 5 0.4 3
-1 4 -5 560.24 27.5
-1 4 -5 619.54 26.8
-1 4 -5 606.24 22.4
1 -4 5 536.05 20.5
1 -4 5 582.54 27.1
-2 4 -5 27.4 6.6
-2 4 -5 20 6.7
-2 4 -5 26.5 7
2 -4 5 11.3 5.7
2 -4 5 30.1 6.8
-3 4 -5 530.85 26.4
-3 4 -5 510.15 23.5
-3 4 -5 422.56 23.2
3 -4 5 526.05 29.9
3 -4 5 540.95 19.6
3 -4 5 538.15 23.9
-4 4 -5 -5.2 6.6
-4 4 -5 6.3 5.9
-4 4 -5 -0.6 4.1
4 -4 5 3.3 4.5
4 -4 5 10.9 6.2
4 -4 5 4 4
-5 4 -5 197.58 18.1
-5 4 -5 201.18 17.7
5 -4 5 190.88 15.8
-6 4 -5 19.6 9
-6 4 -5 2.1 7.3
6 -4 5 3.8 7.1
6 -4 5 7.3 5.3
6 -4 5 0.6 7.3
7 3 -5 134.39 14.1
7 3 -5 117.99 13.2
7 3 -5 175.58 25.7
-7 -3 5 126.39 27.3
-7 -3 5 165.88 14.7
-7 -3 5 142.19 10.8
6 3 -5 48.1 8.9
6 3 -5 38.6 9.5
6 3 -5 53.79 9.7
-6 -3 5 59.89 13.2
-6 -3 5 59.19 10.5
-6 -3 5 61.19 7.8
5 3 -5 141.29 15.4
5 3 -5 138.69 11.3
5 3 -5 148.69 12.7
-5 -3 5 142.29 12.8
-5 -3 5 154.38 9.6
4 3 -5 605.74 23.5
4 3 -5 633.04 21.4
-4 -3 5 636.94 26.8
-4 -3 5 640.84 25.4
3 3 -5 1295.97 36
3 3 -5 1283.17 39.8
-3 -3 5 1220.18 37
-3 -3 5 1253.67 37
2 3 -5 182.18 13
2 3 -5 205.48 8.9
-2 -3 5 213.68 14.7
-2 -3 5 201.18 11.9
-2 -3 5 217.68 11.7
1 3 -5 284.47 16.2
1 3 -5 270.07 12
-1 -3 5 281.37 14.5
-1 -3 5 301.97 12.3
0 3 -5 266.47 12.8
0 3 -5 276.87 16.4
0 -3 5 303.47 13.9
0 -3 5 277.17 15.7
0 -3 5 256.67 8.9
-1 3 -5 998.6 28.2
-1 3 -5 948.71 32.9
1 -3 5 937.11 25.5
1 -3 5 1028 33.9
-2 3 -5 2.1 3.6
-2 3 -5 -0.4 2.5
2 -3 5 -1.7 3.4
2 -3 5 1.4 2.2
-3 3 -5 386.06 21.6
-3 3 -5 331.27 20
-3 3 -5 399.46 19.6
3 -3 5 372.46 14
3 -3 5 355.36 23.1
3 -3 5 352.36 19
-4 3 -5 52.19 9.9
-4 3 -5 37.8 8.4
4 -3 5 63.29 13.3
4 -3 5 71.09 10.4
4 -3 5 61.79 6.8
-5 3 -5 704.83 31.7
-5 3 -5 682.73 29.4
-5 3 -5 713.83 33.2
5 -3 5 737.53 20.9
5 -3 5 660.83 36.1
5 -3 5 756.32 29.9
-6 3 -5 1.6 3.5
-6 3 -5 -7 5.1
-6 3 -5 -6.1 5.6
6 -3 5 -2.2 5.9
6 -3 5 -10 4.4
7 2 -5 154.58 15.7
7 2 -5 156.48 19.7
-7 -2 5 181.98 13.3
-7 -2 5 178.08 19.3
6 2 -5 139.09 13.5
6 2 -5 149.19 10.9
6 2 -5 143.49 17.8
-6 -2 5 130.89 16.8
-6 -2 5 148.59 12.2
-6 -2 5 144.49 16.1
5 2 -5 41.1 9.8
5 2 -5 40.6 7.1
5 2 -5 38.8 8.3
-5 -2 5 49.9 8.6
4 2 -5 242.98 13.2
4 2 -5 244.58 18.3
4 2 -5 255.57 14.3
-4 -2 5 252.07 17.8
-4 -2 5 242.08 14.6
3 2 -5 341.67 19.1
3 2 -5 326.87 15.3
-3 -2 5 317.17 16.4
2 2 -5 775.92 27.3
2 2 -5 767.32 24.9
2 2 -5 798.22 18.5
-2 -2 5 754.52 24.4
-2 -2 5 780.12 18.9
1 2 -5 94.79 9.1
1 2 -5 96.59 7.8
-1 -2 5 96.69 7.8
-1 -2 5 98.89 7.6
0 2 -5 1290.07 36
0 2 -5 1290.67 29.9
0 -2 5 1283.07 25.8
0 -2 5 1287.17 33.3
-1 2 -5 777.22 23.2
-1 2 -5 770.02 27.5
1 -2 5 787.22 26.9
1 -2 5 745.33 20.1
-2 2 -5 854.61 30.2
-2 2 -5 819.42 25.9
2 -2 5 844.42 19.9
2 -2 5 852.01 30.7
-3 2 -5 421.96 22.5
-3 2 -5 409.56 18.9
3 -2 5 367.56 18.9
3 -2 5 388.76 11.9
3 -2 5 366.86 22.3
-4 2 -5 574.54 23.9
-4 2 -5 543.35 27.9
-4 2 -5 534.55 26.4
4 -2 5 567.54 14.7
4 -2 5 548.75 24.3
4 -2 5 569.84 29.4
-5 2 -5 301.07 19.1
5 -2 5 321.37 19
5 -2 5 287.27 22.6
-6 2 -5 218.48 18.5
-6 2 -5 208.08 21.3
-6 2 -5 271.77 20.6
-6 2 -5 224.28 9.3
-6 2 -5 264.57 19.3
6 -2 5 265.87 19.2
6 -2 5 238.18 23.1
-7 2 -5 320.87 22.9
-7 2 -5 282.77 24.7
7 -2 5 358.66 23.6
7 -2 5 320.67 28.1
7 1 -5 24.2 11.2
7 1 -5 40.5 9.4
-7 -1 5 33.5 9.7
-7 -1 5 33 9.6
6 1 -5 652.53 36
6 1 -5 623.54 32.8
-6 -1 5 604.44 30.2
-6 -1 5 704.03 31.5
-6 -1 5 613.84 31.7
5 1 -5 46.4 6.1
5 1 -5 51.29 8.8
5 1 -5 50.69 11.6
-5 -1 5 33.8 8.2
4 1 -5 903.81 34.7
4 1 -5 1028.4 31.2
4 1 -5 991.7 25
-4 -1 5 983.2 34.9
-4 -1 5 991.1 33.3
3 1 -5 6 2.9
3 1 -5 15.5 5
-3 -1 5 5.6 2
-3 -1 5 3.3 4.4
2 1 -5 1105.79 29
2 1 -5 1187.48 24.4
2 1 -5 1168.98 33.5
-2 -1 5 1172.78 24.6
-2 -1 5 1134.89 32.2
1 1 -5 314.77 11.8
1 1 -5 331.57 15.1
1 1 -5 305.27 14.8
-1 -1 5 317.77 10.6
-1 -1 5 321.77 11.9
0 1 -5 491.45 16.3
0 1 -5 486.25 19.5
0 -1 5 492.85 16.3
0 -1 5 484.95 16.7
-1 1 -5 42.1 6.6
-1 1 -5 46.5 6.2
1 -1 5 52.79 7.3
-2 1 -5 1172.58 31.1
-2 1 -5 1220.88 35.7
2 -1 5 1264.97 36.6
2 -1 5 1236.58 23.3
-3 1 -5 173.48 14.4
-3 1 -5 163.48 11.8
3 -1 5 151.38 13.6
3 -1 5 166.88 13
-4 1 -5 171.38 15.9
-4 1 -5 187.58 13.5
4 -1 5 185.28 16.5
4 -1 5 181.88 14.2
-5 1 -5 17.4 7
5 -1 5 25.3 7.3
5 -1 5 20.9 6.5
-6 1 -5 383.06 22.3
-6 1 -5 424.16 22.6
-6 1 -5 371.66 23.8
6 -1 5 420.36 23.5
6 -1 5 417.36 27.5
-7 1 -5 24.1 10.6
-7 1 -5 45.9 10.6
7 -1 5 40.4 10.3
7 0 -5 50.29 14.6
7 0 -5 57.99 13.3
-7 0 5 77.19 16.5
-7 0 5 45.6 11.3
6 0 -5 98.39 13.7
6 0 -5 99.99 14.9
-6 0 5 97.49 14.1
-6 0 5 80.39 6.5
-6 0 5 73.69 13.9
-6 0 5 76.29 13.4
5 0 -5 20.1 6
5 0 -5 9.1 6
-5 0 5 17 6.4
-5 0 5 16.1 3.1
4 0 -5 811.32 32.1
4 0 -5 759.02 28.1
4 0 -5 777.22 17.8
-4 0 5 815.02 29.5
-4 0 5 813.92 30.2
-4 0 5 710.53 30
-4 0 5 772.82 19
3 0 -5 681.53 24.6
3 0 -5 649.74 17.4
3 0 -5 657.13 26.1
-3 0 5 680.43 17.4
-3 0 5 669.23 24.7
-3 0 5 671.43 24.9
2 0 -5 853.41 22.3
2 0 -5 856.51 27.7
2 0 -5 876.51 21.1
-2 0 5 887.41 26.4
-2 0 5 892.71 21.3
1 0 -5 311.07 14
1 0 -5 285.27 12
1 0 -5 268.77 12.6
-1 0 5 285.17 11.3
-1 0 5 251.97 12.4
0 0 -5 1983.9 40
0 0 -5 1984 38.3
0 0 -5 1922.71 39.7
0 0 5 1989.8 40
0 0 5 1976.7 38.4
-1 0 -5 1234.98 30
-1 0 -5 1206.78 30.7
1 0 5 1223.58 29.8
1 0 5 1184.08 23.8
-2 0 -5 1027.6 30.9
-2 0 -5 1020 28
2 0 5 1018.4 28
2 0 5 1028.4 30.8
2 0 5 1003.9 30.2
-3 0 -5 6.8 3.7
-3 0 -5 8.9 4
3 0 5 13.8 4.9
3 0 5 11.5 3.1
3 0 5 6.9 3.4
-4 0 -5 1008.2 30.8
-4 0 -5 1057.19 37.4
4 0 5 928.71 31.9
4 0 5 970.9 35.3
4 0 5 957.1 24.4
-5 0 -5 0.3 3.9
-5 0 -5 -1.8 3.7
-5 0 -5 3.1 4.3
5 0 5 0.9 4.5
-6 0 -5 474.05 25.6
-6 0 -5 498.45 23.8
-6 0 -5 473.65 22.3
6 0 5 489.15 25.4
-7 0 -5 79.29 14.1
-7 0 -5 74.69 12.4
-7 0 -5 91.69 12.5
-7 0 -5 120.19 13.6
7 0 5 103.59 14.4
-8 0 -5 111.29 14.9
-8 0 -5 118.09 15.2
-8 0 -5 120.29 15.8
8 0 5 120.79 16.6
7 -1 -5 204.88 20.5
-7 1 5 221.58 16.9
-7 1 5 265.47 21.7
6 -1 -5 272.67 20
-6 1 5 250.97 24
-6 1 5 257.37 19.8
-6 1 5 228.88 16.6
-6 1 5 248.68 12.5
-6 1 5 307.17 33.8
5 -1 -5 847.02 36.3
5 -1 -5 873.01 34.5
-5 1 5 884.21 23.6
-5 1 5 867.01 33.7
4 -1 -5 1 4.2
4 -1 -5 7.3 5.2
-4 1 5 1.4 2.5
-4 1 5 2.8 4.3
-4 1 5 3.3 4.6
3 -1 -5 257.97 16.7
3 -1 -5 242.48 15.4
-3 1 5 276.97 15.8
-3 1 5 261.87 11.3
-3 1 5 241.08 14.5
2 -1 -5 437.16 15.4
2 -1 -5 436.26 19.3
2 -1 -5 455.95 13.4
-2 1 5 457.55 18.3
-2 1 5 439.16 18.4
-2 1 5 424.76 14.8
1 -1 -5 379.16 10.4
1 -1 -5 427.86 15
1 -1 -5 410.56 16.1
-1 1 5 386.46 14.8
-1 1 5 391.26 14.1
-1 1 5 407.06 15.7
0 -1 -5 7.9 2.8
0 -1 -5 7.3 2.4
0 -1 -5 7.9 2.8
0 1 5 13.9 3.7
0 1 5 6 2.7
-1 -1 -5 725.33 22
-1 -1 -5 735.03 17.3
-1 -1 -5 753.12 22.1
1 1 5 740.53 17.5
1 1 5 747.53 21.9
-2 -1 -5 1139.09 29.8
-2 -1 -5 1158.78 32.5
2 1 5 1045.1 19.3
2 1 5 1173.48 32.3
2 1 5 1135.59 29.6
-3 -1 -5 1407.06 40.2
-3 -1 -5 1317.47 34.5
3 1 5 1373.66 35.7
3 1 5 1328.27 34.7
3 1 5 1255.17 36.5
-4 -1 -5 670.13 28.9
-4 -1 -5 657.33 19.2
-4 -1 -5 654.83 23.9
4 1 5 595.84 20
4 1 5 633.04 23.2
4 1 5 633.84 25.6
-5 -1 -5 452.35 17.6
-5 -1 -5 425.26 21.8
-5 -1 -5 420.16 20.2
-5 -1 -5 385.86 24
5 1 5 413.06 18.1
5 1 5 405.96 21.8
-6 -1 -5 297.17 18.8
-6 -1 -5 301.27 20.1
-6 -1 -5 269.57 18.7
-6 -1 -5 287.87 16.3
6 1 5 279.17 16.6
6 1 5 264.27 19.5
-7 -1 -5 63.39 16.2
-7 -1 -5 57.99 10.9
-7 -1 -5 48.8 11.1
-7 -1 -5 64.19 12.4
-7 -1 -5 66.49 11.2
-7 -1 -5 57.09 11
7 1 5 65.09 12.1
-8 -1 -5 255.47 19.9
-8 -1 -5 264.47 19.2
-8 -1 -5 228.78 19.6
8 1 5 282.37 22.4
6 -2 -5 -5.2 6.5
-6 2 5 0.3 3.7
-6 2 5 -7.1 5.6
-6 2 5 -0.2 5.7
5 -2 -5 443.16 25.4
-5 2 5 409.46 17.6
-5 2 5 423.86 24.3
-5 2 5 352.66 30.8
4 -2 -5 2.3 2.6
-4 2 5 5.8 4.7
-4 2 5 5.1 5.4
-4 2 5 -1.4 2.9
3 -2 -5 1870.11 36.8
3 -2 -5 1798.72 49.2
3 -2 -5 1854.11 49
-3 2 5 1838.62 40.3
-3 2 5 1875.01 46.8
-3 2 5 1919.71 47.8
2 -2 -5 82.89 9.8
2 -2 -5 82.09 4.6
2 -2 -5 69.39 8.1
2 -2 -5 84.79 9.6
2 -2 -5 97.49 8.4
-2 2 5 85.49 7.6
-2 2 5 84.59 9.3
-2 2 5 62.99 7.6
1 -2 -5 2801.22 53.79
1 -2 -5 2763.72 54.49
1 -2 -5 2714.43 54.39
-1 2 5 2734.63 52.49
-1 2 5 2685.83 52.39
-1 2 5 2731.53 54.69
0 -2 -5 667.53 18.4
0 -2 -5 649.34 19.3
0 -2 -5 695.23 21.3
0 2 5 658.83 19.8
0 2 5 666.83 20.5
0 2 5 635.44 17.3
-1 -2 -5 562.84 15.8
-1 -2 -5 548.05 12.9
-1 -2 -5 565.74 19.4
1 2 5 541.65 15.9
1 2 5 547.65 18.9
1 2 5 595.84 20.3
-2 -2 -5 34.7 3.8
-2 -2 -5 38.7 6.3
2 2 5 35.4 6.8
2 2 5 39.2 5.9
2 2 5 35.3 4.1
-3 -2 -5 968.5 28.2
-3 -2 -5 942.01 31.7
3 2 5 957.5 28.1
3 2 5 939.11 30.1
3 2 5 967.2 27
-4 -2 -5 107.89 10.2
-4 -2 -5 122.99 11.2
-4 -2 -5 117.29 6.1
-4 -2 -5 123.59 11.4
-4 -2 -5 134.89 13.3
4 2 5 117.19 9.9
4 2 5 104.99 10
4 2 5 102.39 11.1
-5 -2 -5 347.47 19.9
-5 -2 -5 377.26 23.5
-5 -2 -5 361.56 19.8
-5 -2 -5 395.76 19.1
-5 -2 -5 363.46 13.8
5 2 5 341.77 17.7
5 2 5 359.96 18
5 2 5 376.86 20.8
-6 -2 -5 3.1 4.5
-6 -2 -5 6.2 5.6
-6 -2 -5 0.2 3.8
-6 -2 -5 -2.3 3.2
-6 -2 -5 3.8 3.3
6 2 5 7 4.9
6 2 5 4.4 5.6
-7 -2 -5 383.66 24
-7 -2 -5 348.47 22
-7 -2 -5 351.76 26.8
-7 -2 -5 378.16 19.1
-7 -2 -5 373.06 23.7
-7 -2 -5 384.36 10.7
-7 -2 -5 367.56 21.4
7 2 5 378.96 24
7 2 5 348.57 26.4
-8 -2 -5 11.9 3.2
-8 -2 -5 7.8 2.9
-8 -2 -5 6.6 5.5
-8 -2 -5 10.3 5.7
-8 -2 -5 6 6
6 -3 -5 161.58 26.1
6 -3 -5 105.19 12.8
-6 3 5 120.69 11.2
-6 3 5 109.29 12.1
5 -3 -5 321.27 17.3
5 -3 -5 370.36 24.2
-5 3 5 334.37 14.7
-5 3 5 344.47 17.7
-5 3 5 321.57 22.6
-5 3 5 342.57 22.3
4 -3 -5 2.3 5.2
4 -3 -5 7.5 3.3
-4 3 5 6.4 4.9
-4 3 5 2.3 3.3
-4 3 5 0.2 2.5
3 -3 -5 61.69 10
3 -3 -5 59.09 8.2
-3 3 5 55.89 9.4
-3 3 5 66.09 9.9
-3 3 5 66.19 8.1
2 -3 -5 755.12 28.4
2 -3 -5 820.72 27.3
-2 3 5 814.92 26.1
-2 3 5 812.82 27.9
-2 3 5 814.82 26.6
1 -3 -5 1103.49 24.7
1 -3 -5 1237.18 32.2
1 -3 -5 1122.09 31.3
-1 3 5 1139.59 30.2
-1 3 5 1146.49 31.9
-1 3 5 1105.09 29.2
0 -3 -5 124.49 9.1
0 -3 -5 132.59 8.2
0 -3 -5 127.29 10.3
0 3 5 140.39 9.3
0 3 5 132.69 7.8
0 3 5 139.29 9.9
0 3 5 142.09 9.8
-1 -3 -5 951.9 26.1
-1 -3 -5 958 24.1
-1 -3 -5 903.71 26.9
1 3 5 932.11 24.4
1 3 5 898.61 26.2
1 3 5 949.11 24.2
1 3 5 930.81 26.3
-2 -3 -5 182.58 11.6
-2 -3 -5 158.98 8.4
-2 -3 -5 162.68 11
2 3 5 152.78 10.6
2 3 5 144.49 11.1
2 3 5 152.88 8.7
-3 -3 -5 1012.5 30.6
-3 -3 -5 1049.4 31.6
-3 -3 -5 1000.4 22.4
-3 -3 -5 1037.5 30
3 3 5 1002.1 30
3 3 5 1037.8 31.7
3 3 5 1037.1 34.6
-4 -3 -5 48.4 8.1
-4 -3 -5 53.99 8.2
-4 -3 -5 49.8 4.7
-4 -3 -5 65.09 10.1
-4 -3 -5 51.39 10
4 3 5 71.69 8.7
4 3 5 59.89 9.6
4 3 5 59.09 8.5
-5 -3 -5 766.02 37.2
-5 -3 -5 705.63 17.3
-5 -3 -5 805.82 29.7
-5 -3 -5 749.42 26.6
-5 -3 -5 756.32 29.9
5 3 5 744.43 27.8
5 3 5 719.53 26.8
5 3 5 755.02 30.3
-6 -3 -5 -7.1 3.1
-6 -3 -5 -0.4 2.2
-6 -3 -5 4.5 4.2
-6 -3 -5 -3.4 2.7
6 3 5 -2.1 3.6
6 3 5 4.8 5.6
6 3 5 0.6 3.9
-7 -3 -5 491.15 23.5
-7 -3 -5 537.45 20.7
-7 -3 -5 512.45 15.3
-7 -3 -5 515.35 21.6
-7 -3 -5 554.94 28.9
-7 -3 -5 513.85 32.6
-7 -3 -5 515.85 26.7
-7 -3 -5 550.24 26.6
7 3 5 525.25 26.8
-8 -3 -5 6.1 3.9
-8 -3 -5 4.8 5.8
-8 -3 -5 3.3 4.6
-8 -3 -5 8.2 3.7
-8 -3 -5 17.8 9.1
-8 -3 -5 17.5 6.7
8 3 5 20.8 8.6
5 -4 -5 156.28 15.1
5 -4 -5 133.49 16.7
-5 4 5 175.68 17.6
4 -4 -5 480.85 26.8
4 -4 -5 462.25 22.9
-4 4 5 446.16 21.1
-4 4 5 478.65 25.7
-4 4 5 448.36 24.5
3 -4 -5 497.95 25.9
3 -4 -5 455.55 21.8
-3 4 5 492.05 23.7
-3 4 5 510.15 21.4
-3 4 5 485.45 24
2 -4 -5 299.97 18.4
2 -4 -5 240.38 15.6
-2 4 5 267.37 15.1
-2 4 5 260.47 16.7
-2 4 5 251.77 10
-2 4 5 283.87 16.1
1 -4 -5 18.5 4.9
1 -4 -5 22.1 4.8
1 -4 -5 16.7 5.8
-1 4 5 16.1 3.6
-1 4 5 11.8 3.8
-1 4 5 14.2 5.2
-1 4 5 17 4.8
0 -4 -5 907.11 28.5
0 -4 -5 867.71 24.3
0 4 5 885.21 23.4
0 4 5 884.21 23.9
0 4 5 899.51 27.5
0 4 5 914.21 27.9
-1 -4 -5 661.23 23.7
-1 -4 -5 639.64 21.6
-1 -4 -5 664.93 21.3
1 4 5 663.73 21.8
1 4 5 641.54 22.6
1 4 5 634.94 20.9
1 4 5 651.63 16.3
-2 -4 -5 416.96 18.5
-2 -4 -5 434.06 19
-2 -4 -5 427.46 16
2 4 5 419.46 17.9
2 4 5 378.66 17.5
2 4 5 425.76 16.4
-3 -4 -5 403.36 18.5
-3 -4 -5 418.66 19.6
-3 -4 -5 406.06 14.8
-3 -4 -5 364.76 19.6
3 4 5 427.36 16
3 4 5 400.56 18.2
3 4 5 409.66 19.5
-4 -4 -5 932.71 23.9
-4 -4 -5 929.71 32
-4 -4 -5 949.9 29.9
-4 -4 -5 978 32.6
4 4 5 984.2 30.6
4 4 5 969.6 32.9
4 4 5 956.2 32.4
-5 -4 -5 308.17 12.6
-5 -4 -5 319.27 17.7
-5 -4 -5 328.87 19.5
-5 -4 -5 294.37 21.3
5 4 5 322.27 17.5
5 4 5 339.67 19.4
5 4 5 336.17 24
-6 -4 -5 138.79 12.8
-6 -4 -5 135.09 8.9
-6 -4 -5 125.29 13.8
6 4 5 146.09 13.1
6 4 5 157.48 15.5
6 4 5 129.79 13
-7 -4 -5 93.49 21
-7 -4 -5 78.39 10.9
-7 -4 -5 82.79 12.2
-7 -4 -5 89.79 13.5
-7 -4 -5 89.09 7.9
-7 -4 -5 76.89 16.4
7 4 5 85.19 13.5
-8 -4 -5 195.68 25.8
-8 -4 -5 190.08 11.6
-8 -4 -5 229.98 12.6
-8 -4 -5 212.88 16.5
-8 -4 -5 170.88 17.6
8 4 5 222.58 20.4
5 -5 -5 42.2 11.2
5 -5 -5 56.09 13.9
-5 5 5 28.6 9.9
4 -5 -5 685.33 33.7
4 -5 -5 690.43 31.3
-4 5 5 665.63 31.4
-4 5 5 672.13 28
-4 5 5 665.83 31.1
3 -5 -5 8.2 6.9
3 -5 -5 -5.2 4.3
-3 5 5 -2 5.3
-3 5 5 -0.2 3.6
2 -5 -5 604.54 28.2
2 -5 -5 615.14 16.7
-2 5 5 600.54 25.4
-2 5 5 610.94 24.7
-2 5 5 614.14 26.7
1 -5 -5 94.19 10.9
1 -5 -5 100.59 8.3
1 -5 -5 103.79 12.1
-1 5 5 113.69 11.9
-1 5 5 117.19 11.2
-1 5 5 123.09 13.2
0 -5 -5 1426.76 34.9
0 -5 -5 1290.47 38.6
0 -5 -5 1396.46 38.1
0 5 5 1360.46 37.6
0 5 5 1396.56 30.1
0 5 5 1429.16 39
0 5 5 1389.16 33.9
-1 -5 -5 121.69 10
-1 -5 -5 118.39 11.3
-1 -5 -5 131.59 10.8
1 5 5 144.99 9.9
1 5 5 116.49 10.3
1 5 5 125.79 8.3
1 5 5 137.59 11.2
-2 -5 -5 628.34 24.2
-2 -5 -5 644.84 24.2
2 5 5 599.64 23.1
2 5 5 598.74 21.9
2 5 5 596.04 14.7
2 5 5 624.24 22.5
-3 -5 -5 8.6 4.8
-3 -5 -5 4.7 3.9
-3 -5 -5 5.9 3.1
-3 -5 -5 7 4.3
3 5 5 1.8 3.1
3 5 5 3.9 3.3
3 5 5 3 4.5
-4 -5 -5 288.57 16.5
-4 -5 -5 311.97 14.4
-4 -5 -5 300.97 18.4
-4 -5 -5 319.17 18.7
4 5 5 334.67 19.2
4 5 5 312.57 17.2
4 5 5 307.27 19.4
-5 -5 -5 236.48 17.2
-5 -5 -5 199.68 12.1
-5 -5 -5 225.48 15.3
5 5 5 222.08 14.9
5 5 5 211.68 17
5 5 5 237.18 17.8
-6 -5 -5 285.57 20.4
-6 -5 -5 298.87 19.8
-6 -5 -5 308.87 21.1
-6 -5 -5 305.77 14.7
6 5 5 316.97 21.5
-7 -5 -5 -2.2 4.7
-7 -5 -5 13.1 6.7
-7 -5 -5 6.7 4.6
-7 -5 -5 6.2 4.6
7 5 5 -6.4 5.2
-8 -5 -5 84.79 15.7
-8 -5 -5 90.59 13.2
-8 -5 -5 102.29 11.1
-8 -5 -5 90.19 11.9
8 5 5 53.59 12.6
4 -6 -5 238.08 22.1
4 -6 -5 189.28 18.4
-4 6 5 231.98 21.6
3 -6 -5 24.4 8.3
3 -6 -5 37.1 9.8
-3 6 5 27.4 8.2
-3 6 5 21.8 7.3
-3 6 5 57.09 12.4
2 -6 -5 408.06 23.2
2 -6 -5 448.36 25
-2 6 5 440.66 24
-2 6 5 442.16 22.9
1 -6 -5 245.18 17.7
1 -6 -5 259.47 13.5
1 -6 -5 255.07 17.4
-1 6 5 247.08 17.5
-1 6 5 209.38 15.3
-1 6 5 257.17 16.5
0 -6 -5 268.37 15.1
0 -6 -5 226.38 16.7
0 -6 -5 263.37 16.9
0 6 5 279.07 15.6
0 6 5 278.27 17.8
-1 -6 -5 198.48 13.7
-1 -6 -5 202.48 14.3
-1 -6 -5 194.48 13.9
1 6 5 196.18 11.8
1 6 5 197.38 14.8
-2 -6 -5 675.23 25.4
-2 -6 -5 704.03 26.8
2 6 5 677.23 26.2
2 6 5 690.63 26.3
-3 -6 -5 27.4 5.9
-3 -6 -5 42.7 9.4
-3 -6 -5 39.6 8.5
-3 -6 -5 41.3 8.6
3 6 5 51.79 9.1
3 6 5 24.7 6.2
-4 -6 -5 555.94 26.1
-4 -6 -5 479.85 34.7
-4 -6 -5 561.54 22
-4 -6 -5 598.04 25.7
4 6 5 581.34 27.8
-5 -6 -5 237.38 18
-5 -6 -5 240.58 14.4
-5 -6 -5 247.38 16.3
5 6 5 257.17 19.8
-6 -6 -5 516.45 21.1
-6 -6 -5 478.45 26.3
-6 -6 -5 517.95 23.7
-6 -6 -5 532.25 27.8
6 6 5 488.45 27.4
-7 -6 -5 7.9 6.5
-7 -6 -5 8.6 5.5
-7 -6 -5 7.5 5.6
-7 -6 -5 8 6.5
7 6 5 2.5 11.5
7 6 5 -11.8 5.7
3 -7 -5 217.78 22.2
-3 7 5 197.68 18.4
2 -7 -5 126.99 14.9
2 -7 -5 107.79 10.6
-2 7 5 146.89 16.9
-2 7 5 131.39 15.8
1 -7 -5 188.58 17.3
1 -7 -5 183.78 17
1 -7 -5 176.48 13.3
-1 7 5 172.88 16.7
-1 7 5 184.18 16.2
0 -7 -5 247.48 15.5
0 -7 -5 216.78 16.8
0 -7 -5 225.88 17.8
0 7 5 242.88 16.4
0 7 5 247.78 18.7
-1 -7 -5 282.47 18.2
-1 -7 -5 266.77 17.1
-1 -7 -5 253.27 16.8
1 7 5 252.77 17.8
-2 -7 -5 214.98 14.2
-2 -7 -5 188.78 14.6
-2 -7 -5 224.58 16.4
2 7 5 209.78 17.9
2 7 5 187.68 15.7
-3 -7 -5 196.58 14.7
-3 -7 -5 192.48 14.9
-3 -7 -5 194.28 16.4
-3 -7 -5 165.68 14.6
3 7 5 161.68 14.9
3 7 5 179.18 15.6
-4 -7 -5 238.18 16.8
-4 -7 -5 229.28 18
-4 -7 -5 232.88 16.1
4 7 5 235.68 19.9
4 7 5 215.68 9.7
4 7 5 235.48 17.1
-5 -7 -5 212.58 18.6
-5 -7 -5 211.68 15.4
-5 -7 -5 226.18 16.8
-5 -7 -5 214.68 22.6
5 7 5 208.78 22.1
5 7 5 225.88 19.7
-6 -7 -5 146.29 15.7
-6 -7 -5 138.59 13.4
-6 -7 -5 117.89 14.1
6 7 5 143.89 18
6 7 5 141.09 14.9
-7 -7 -5 121.59 13.6
-7 -7 -5 124.29 12.1
-7 -7 -5 94.19 13.4
-7 -7 -5 110.59 16.7
7 7 5 83.39 12
7 7 5 129.19 15.3
1 -8 -5 440.86 22.1
1 -8 -5 472.65 27.4
-1 8 5 408.96 27.4
-1 8 5 451.45 26.6
0 -8 -5 10.6 6.5
0 -8 -5 -1.1 9.2
0 8 5 0.6 4.9
0 8 5 13.5 7.8
-1 -8 -5 704.03 29.4
-1 -8 -5 700.03 29.8
1 8 5 759.02 32.8
1 8 5 697.43 28.1
-2 -8 -5 78.29 10.7
-2 -8 -5 102.89 13.2
-2 -8 -5 93.99 13.2
2 8 5 56.49 11
2 8 5 74.29 12.9
-3 -8 -5 280.57 18.8
-3 -8 -5 281.77 18
-3 -8 -5 273.47 19.1
-3 -8 -5 262.17 15.6
3 8 5 253.57 18.2
3 8 5 249.78 20.8
-4 -8 -5 4.7 5.9
-4 -8 -5 3.4 4
-4 -8 -5 3 6
4 8 5 7.5 5.7
4 8 5 1.2 3.5
4 8 5 6.2 6.1
-5 -8 -5 167.58 15.9
-5 -8 -5 160.38 15.7
-5 -8 -5 177.68 21.6
-5 -8 -5 134.79 16.2
5 8 5 137.69 22.5
5 8 5 120.79 15.4
-6 -8 -5 -2.3 4.8
-6 -8 -5 -11.2 6.1
-6 -8 -5 -0.3 5.5
6 8 5 -2.8 2.8
6 8 5 2.7 6.6
-1 -9 -5 91.99 13
-1 -9 -5 110.99 15.5
1 9 5 69.69 15
1 9 5 69.29 13.6
-2 -9 -5 93.89 18.3
-2 -9 -5 94.19 12.9
2 9 5 53.49 11.6
-3 -9 -5 374.96 19.2
-3 -9 -5 358.26 20.8
-3 -9 -5 374.56 25.4
3 9 5 382.26 26.9
-4 -9 -5 2.7 10.2
4 9 5 0 5.6
4 9 5 7.4 6.1
4 7 -6 133.09 19.4
-4 -7 6 163.68 21.5
3 7 -6 6.8 4.3
-3 -7 6 9.2 6.3
-3 -7 6 6.8 8.5
2 7 -6 127.69 11.9
2 7 -6 114.49 8.8
-2 -7 6 129.49 17.3
1 7 -6 24.6 6.8
1 7 -6 28.6 7.4
-1 -7 6 32.6 8.7
0 7 -6 165.58 15.2
0 7 -6 196.88 14.8
0 -7 6 230.88 18.2
0 -7 6 217.98 22.5
-1 7 -6 137.99 15.3
1 -7 6 163.88 16.9
1 -7 6 125.09 18.9
5 6 -6 8.6 6.6
-5 -6 6 -10.2 6.2
-5 -6 6 1.8 7.3
4 6 -6 467.95 29
-4 -6 6 521.85 38.5
-4 -6 6 500.35 29.7
3 6 -6 3.4 3.8
3 6 -6 6.5 6.3
-3 -6 6 -0.3 5.4
-3 -6 6 -6.3 4.8
-3 -6 6 6.7 5.6
2 6 -6 294.37 14.1
2 6 -6 273.77 20.9
-2 -6 6 302.77 20.8
-2 -6 6 282.07 19.9
1 6 -6 26.4 6.3
1 6 -6 16.3 6.9
-1 -6 6 12.3 6.2
-1 -6 6 16.5 7.2
0 6 -6 503.65 22.5
0 6 -6 489.15 27.3
0 6 -6 493.25 22.4
0 -6 6 483.45 29
-1 6 -6 -3.7 4.4
-1 6 -6 0.4 4.4
1 -6 6 2.7 5.5
-2 6 -6 109.49 14.1
-2 6 -6 119.79 17.5
2 -6 6 115.79 19.2
-3 6 -6 -13.2 11.1
3 -6 6 9.6 7.1
3 -6 6 -5.1 5.9
6 5 -6 88.09 17.5
6 5 -6 97.09 15.2
-6 -5 6 66.49 11
-6 -5 6 40.8 10
5 5 -6 53.29 12.8
5 5 -6 80.79 14.8
-5 -5 6 81.79 14.5
-5 -5 6 108.19 14.8
4 5 -6 180.28 12.7
4 5 -6 168.38 17.7
4 5 -6 174.18 19.4
-4 -5 6 184.48 18.2
3 5 -6 27.2 7.4
3 5 -6 20.3 6.4
-3 -5 6 22.1 6.6
-3 -5 6 22.9 7.1
-3 -5 6 26.3 6.6
2 5 -6 270.07 13
2 5 -6 254.97 24.3
-2 -5 6 267.97 15
-2 -5 6 263.27 17.8
1 5 -6 104.49 9.8
-1 -5 6 99.09 12.6
-1 -5 6 117.79 12.5
0 5 -6 738.83 26.2
0 5 -6 805.22 28.8
0 -5 6 752.52 32.9
0 -5 6 770.72 28.3
-1 5 -6 10 7.8
-1 5 -6 13 5.3
-1 5 -6 2.4 5.3
1 -5 6 9.9 5.8
1 -5 6 12.7 5.1
-2 5 -6 385.86 21
-2 5 -6 381.06 24.3
2 -5 6 426.16 19.7
2 -5 6 415.56 27.9
-3 5 -6 23 7.9
-3 5 -6 21.5 7.7
-3 5 -6 26.8 8.8
3 -5 6 23.2 7.8
3 -5 6 11.5 7.7
3 -5 6 29.4 6.3
-4 5 -6 211.68 20.7
4 -5 6 219.98 24.8
4 -5 6 234.18 15
4 -5 6 215.78 17.9
6 4 -6 98.89 10.7
-6 -4 6 137.09 15.5
5 4 -6 355.96 24.8
5 4 -6 339.17 16.4
-5 -4 6 344.37 21.5
-5 -4 6 329.37 22.6
4 4 -6 205.28 17.9
4 4 -6 202.58 12.3
-4 -4 6 146.59 13.6
3 4 -6 210.88 16.3
3 4 -6 217.38 17.8
3 4 -6 200.48 8.4
-3 -4 6 168.88 12.3
-3 -4 6 173.98 13.8
2 4 -6 172.78 14.5
2 4 -6 180.08 10.1
-2 -4 6 165.08 12.6
-2 -4 6 181.38 12.2
1 4 -6 695.43 22.2
1 4 -6 661.13 28.3
-1 -4 6 669.83 20.5
-1 -4 6 686.13 26.7
0 4 -6 68.49 9.8
0 4 -6 104.19 9.8
0 -4 6 98.69 10.1
0 -4 6 86.39 11.5
-1 4 -6 419.56 19.6
1 -4 6 446.26 25
1 -4 6 441.46 21.8
-2 4 -6 570.34 27.7
-2 4 -6 526.55 25.4
-2 4 -6 551.74 23.7
2 -4 6 541.65 20.2
2 -4 6 566.84 42.3
-3 4 -6 233.48 16.9
-3 4 -6 193.28 18.3
3 -4 6 207.68 20.2
3 -4 6 240.48 17.8
3 -4 6 222.58 12.8
-4 4 -6 111.99 13.5
-4 4 -6 103.19 14.3
-4 4 -6 122.69 14.7
4 -4 6 109.09 9.6
4 -4 6 148.99 19.2
4 -4 6 127.39 14.2
-5 4 -6 100.29 16
5 -4 6 89.09 17.7
5 -4 6 115.39 10.3
5 -4 6 117.59 14.6
6 3 -6 18.7 8.8
6 3 -6 25.8 6.1
6 3 -6 17 6.5
-6 -3 6 24.8 8.7
5 3 -6 162.08 13.5
5 3 -6 143.39 12.3
5 3 -6 118.69 15.8
-5 -3 6 122.39 25.5
4 3 -6 82.19 9.6
4 3 -6 71.09 12
4 3 -6 76.69 10.4
-4 -3 6 88.79 11.8
3 3 -6 1833.72 31.9
3 3 -6 1759.52 59.79
3 3 -6 1827.92 46.8
-3 -3 6 1795.42 46.7
-3 -3 6 1765.62 36.4
2 3 -6 227.28 16.5
2 3 -6 201.58 10.2
2 3 -6 186.08 14.1
-2 -3 6 200.68 12.6
-2 -3 6 186.38 11.8
1 3 -6 135.99 12.6
1 3 -6 116.59 8.8
-1 -3 6 108.99 10.2
-1 -3 6 118.09 8.7
0 3 -6 421.06 16.9
0 3 -6 409.56 21.4
0 -3 6 409.06 20.2
0 -3 6 402.06 11.9
-1 3 -6 1421.46 43.4
-1 3 -6 1438.06 36.9
1 -3 6 1390.56 33.7
1 -3 6 1388.66 42.1
-2 3 -6 2.2 3.6
-2 3 -6 6.4 3.5
2 -3 6 8.1 4.7
2 -3 6 5.9 3.3
-3 3 -6 422.36 24
-3 3 -6 438.76 21.5
-3 3 -6 397.86 22.7
3 -3 6 382.86 36.4
3 -3 6 425.46 14.8
3 -3 6 429.16 22.4
-4 3 -6 35 7.9
-4 3 -6 19.1 7.7
-4 3 -6 27 8.6
4 -3 6 27.3 7.9
4 -3 6 24.3 5.6
4 -3 6 46.3 11.7
-5 3 -6 317.57 21.3
-5 3 -6 318.47 26.7
-5 3 -6 291.17 22
5 -3 6 313.57 25.7
5 -3 6 347.37 21.5
5 -3 6 353.86 12.3
-6 3 -6 -9.2 4.9
6 -3 6 -12.4 6.1
6 -3 6 0.4 6.1
7 2 -6 221.58 19.9
-7 -2 6 208.38 20.5
6 2 -6 7.2 7.6
6 2 -6 9.4 4.5
6 2 -6 4.2 9.6
-6 -2 6 12.8 7.6
5 2 -6 259.97 21.3
5 2 -6 269.97 14.6
5 2 -6 243.38 16.8
-5 -2 6 236.68 21.2
-5 -2 6 281.77 19.7
4 2 -6 72.49 9.2
4 2 -6 74.09 12.2
4 2 -6 98.49 10
-4 -2 6 73.49 10.8
3 2 -6 273.57 18.4
3 2 -6 253.37 8.8
3 2 -6 250.87 14.5
-3 -2 6 254.07 16.8
2 2 -6 670.83 26.8
2 2 -6 709.83 18.7
2 2 -6 666.83 24.7
-2 -2 6 667.33 17.2
-2 -2 6 689.33 24.3
1 2 -6 1395.56 32
-1 -2 6 1421.06 32.9
-1 -2 6 1456.35 33.9
0 2 -6 133.19 11.8
0 2 -6 150.18 10.1
0 -2 6 156.58 11.2
0 -2 6 156.58 8
-1 2 -6 315.97 18.2
-1 2 -6 287.67 14.6
1 -2 6 262.27 11.9
1 -2 6 286.97 16.8
-2 2 -6 113.69 12
-2 2 -6 121.09 10.6
2 -2 6 140.09 13.2
2 -2 6 110.69 7.1
-3 2 -6 666.33 29.6
-3 2 -6 729.13 26.7
3 -2 6 653.73 30.4
3 -2 6 657.63 27.5
3 -2 6 666.03 15.9
-4 2 -6 -3.1 2.7
-4 2 -6 -1.5 3.8
4 -2 6 -4.4 4.4
4 -2 6 1.7 4.4
-5 2 -6 202.38 20.2
-5 2 -6 227.68 17.7
5 -2 6 230.18 21.5
5 -2 6 215.58 18
-6 2 -6 28.4 8.8
-6 2 -6 6.4 5.8
6 -2 6 12.5 8
6 -2 6 -1.1 6.1
-7 2 -6 366.96 24.7
7 -2 6 373.36 25.1
7 -2 6 318.27 28.2
7 1 -6 8 7.8
7 1 -6 -18.8 7.4
-7 -1 6 6.7 7.1
6 1 -6 273.77 11.7
6 1 -6 299.47 23.9
6 1 -6 314.87 20.8
-6 -1 6 292.37 21.4
5 1 -6 360.16 20.6
5 1 -6 400.56 26
5 1 -6 387.26 14.8
-5 -1 6 385.76 32.8
-5 -1 6 392.36 23
4 1 -6 197.28 11.4
4 1 -6 202.68 14.9
4 1 -6 182.08 21.4
-4 -1 6 208.18 16.4
-4 -1 6 199.78 15.9
-4 -1 6 207.98 7.8
3 1 -6 91.99 12
3 1 -6 95.99 6.6
3 1 -6 101.09 8.4
-3 -1 6 109.19 11.4
-3 -1 6 82.39 9.8
-3 -1 6 104.19 6.7
2 1 -6 280.17 16.4
2 1 -6 302.17 14.8
2 1 -6 283.37 13.3
-2 -1 6 291.77 16
-2 -1 6 290.17 11.5
1 1 -6 501.75 20.6
1 1 -6 564.94 21.7
1 1 -6 565.24 17.8
-1 -1 6 522.55 17.4
0 1 -6 665.53 24.9
0 1 -6 658.23 20.9
0 -1 6 676.33 21
0 -1 6 673.43 21.1
-1 1 -6 104.39 9.5
-1 1 -6 97.59 9
1 -1 6 117.79 10.5
-2 1 -6 941.11 31.5
-2 1 -6 874.61 27.5
2 -1 6 918.11 31.5
2 -1 6 909.91 18.9
-3 1 -6 576.34 22.9
-3 1 -6 608.24 27.4
3 -1 6 584.74 27
3 -1 6 585.94 25.5
-4 1 -6 411.06 20.5
-4 1 -6 398.66 24.3
4 -1 6 439.86 23
4 -1 6 431.46 25.3
-5 1 -6 212.18 16.2
5 -1 6 205.08 20
5 -1 6 247.18 18.4
-6 1 -6 278.07 21.3
-6 1 -6 207.88 17.2
-6 1 -6 298.57 20
-6 1 -6 260.37 23.4
6 -1 6 271.47 20.5
6 -1 6 284.37 23.4
-7 1 -6 160.98 17.7
-7 1 -6 159.58 25.2
7 -1 6 183.68 19
7 0 -6 12.8 7.4
7 0 -6 -14.9 7.7
-7 0 6 0.8 8
-7 0 6 14.8 9
6 0 -6 441.76 25.7
6 0 -6 466.45 29.8
-6 0 6 417.66 13
-6 0 6 425.66 26.3
5 0 -6 53.39 10.8
5 0 -6 30.2 8.7
-5 0 6 33.4 9.4
-5 0 6 27.6 8
-5 0 6 51.39 5.7
-5 0 6 55.49 12.6
4 0 -6 986.1 34.3
4 0 -6 994.3 22.3
4 0 -6 925.21 44.5
-4 0 6 997 34.6
-4 0 6 937.71 33.6
-4 0 6 899.71 35.6
-4 0 6 1001.7 23.5
3 0 -6 50.09 9.4
3 0 -6 74.39 6.8
-3 0 6 67.69 10
-3 0 6 69.99 6.5
2 0 -6 1405.56 33.2
2 0 -6 1365.36 30.7
2 0 -6 1365.96 38.3
-2 0 6 1411.16 30.9
-2 0 6 1339.17 36.3
1 0 -6 38.7 6.9
1 0 -6 39 5.9
1 0 -6 37.4 6.1
-1 0 6 42.9 5.6
-1 0 6 33.8 6.5
0 0 -6 1180.58 29.9
0 0 -6 1165.68 27.5
0 0 -6 1167.48 29.6
0 0 6 1145.89 27.8
0 0 6 1188.08 29.7
-1 0 -6 312.37 15.2
-1 0 -6 324.97 15.1
1 0 6 321.77 11.2
1 0 6 335.17 15.2
-2 0 -6 477.45 19.4
-2 0 -6 424.66 20.1
2 0 6 456.25 10.2
2 0 6 386.46 24.2
2 0 6 455.05 20.9
-3 0 -6 124.09 12.8
-3 0 -6 108.79 10.2
3 0 6 95.09 10.8
3 0 6 116.69 10.8
3 0 6 115.69 7.2
-4 0 -6 704.73 31.4
-4 0 -6 727.53 27
4 0 6 729.63 20.3
4 0 6 695.53 28.9
-5 0 -6 118.99 11.3
-5 0 -6 116.29 12.7
5 0 6 130.59 14.4
5 0 6 112.59 9.2
-6 0 -6 114.59 12.4
-6 0 -6 119.79 15.8
-6 0 -6 122.59 14
6 0 6 107.99 13.8
-7 0 -6 1.7 5.3
-7 0 -6 5.6 6.5
6 -1 -6 255.37 19.9
-6 1 6 262.17 13.1
-6 1 6 246.28 21.2
5 -1 -6 78.59 12.8
5 -1 -6 85.99 13.9
-5 1 6 70.59 7.6
-5 1 6 74.89 13.1
-5 1 6 91.09 13.2
4 -1 -6 179.78 23.9
4 -1 -6 181.38 24.3
-4 1 6 143.39 13.4
-4 1 6 185.68 10.3
-4 1 6 191.78 15.7
3 -1 -6 58.99 9.3
3 -1 -6 54.29 4.7
3 -1 -6 66.69 10.7
-3 1 6 55.49 8.7
-3 1 6 64.39 6.7
-3 1 6 63.39 9.8
2 -1 -6 1134.39 34.3
2 -1 -6 1147.69 27.1
2 -1 -6 1090.69 28.5
-2 1 6 1150.68 33
-2 1 6 1126.79 28.1
-2 1 6 1160.28 32.3
1 -1 -6 584.64 15.4
1 -1 -6 592.24 21.3
1 -1 -6 615.74 20
-1 1 6 598.34 19.5
-1 1 6 632.14 21.4
0 -1 -6 843.12 22.6
0 -1 -6 852.41 25
0 -1 -6 884.41 23.8
0 1 6 855.71 23.4
0 1 6 844.12 24.6
-1 -1 -6 168.98 11.1
-1 -1 -6 183.98 11.4
-1 -1 -6 191.18 8.9
1 1 6 162.78 8.3
1 1 6 185.18 11.4
-2 -1 -6 1428.36 36.2
-2 -1 -6 1412.46 38.8
2 1 6 1381.66 24.9
2 1 6 1247.68 48.1
2 1 6 1448.56 38.9
-3 -1 -6 505.35 20.8
3 1 6 497.75 17.4
3 1 6 481.25 22.1
3 1 6 497.45 20.8
-4 -1 -6 604.24 28.2
-4 -1 -6 605.34 18.3
-4 -1 -6 608.64 24.3
4 1 6 598.04 24
4 1 6 589.94 20.1
4 1 6 558.64 25.7
-5 -1 -6 2.5 4.8
-5 -1 -6 0.6 3.3
-5 -1 -6 6.4 4.9
5 1 6 1.9 5.2
5 1 6 6.2 4.3
-6 -1 -6 480.35 26.3
-6 -1 -6 476.55 24.3
-6 -1 -6 494.15 20.6
6 1 6 476.45 26.6
6 1 6 477.35 21.3
-7 -1 -6 -10.7 5.8
-7 -1 -6 -6.7 4.8
-7 -1 -6 2.5 4.8
-7 -1 -6 -8.5 4.1
7 1 6 11.2 7.1
-8 -1 -6 188.68 16.7
-8 -1 -6 210.98 18.9
-8 -1 -6 189.78 18.4
8 1 6 198.98 20.1
6 -2 -6 26.5 10.3
-6 2 6 20.1 6.2
-6 2 6 12.1 7.7
-6 2 6 33.1 14.5
5 -2 -6 370.76 24.6
-5 2 6 408.96 24.2
-5 2 6 407.36 24.2
-5 2 6 383.96 17.7
4 -2 -6 446.16 24.8
-4 2 6 452.55 23.8
-4 2 6 453.75 18.3
3 -2 -6 1070.99 36.3
3 -2 -6 1023.2 35.9
-3 2 6 1009.4 29.1
-3 2 6 1045.2 33.6
-3 2 6 997.3 34.1
2 -2 -6 8.2 3.5
2 -2 -6 9.1 2.6
2 -2 -6 12 5.3
2 -2 -6 16.4 3.9
2 -2 -6 18.8 3.9
-2 2 6 8.8 4.4
-2 2 6 13.5 4
-2 2 6 2.1 3.5
1 -2 -6 202.68 12.4
1 -2 -6 201.98 12.7
-1 2 6 214.88 11.9
-1 2 6 201.78 12.9
-1 2 6 205.38 11.8
0 -2 -6 561.14 18.6
0 -2 -6 547.35 17.5
0 -2 -6 569.64 20.7
0 2 6 596.44 20.3
0 2 6 547.05 18.8
-1 -2 -6 219.98 12.4
-1 -2 -6 216.38 12.9
-1 -2 -6 219.68 8.5
-1 -2 -6 226.98 10.3
1 2 6 225.08 14
1 2 6 247.88 13.3
1 2 6 227.48 12.4
-2 -2 -6 32.1 6.9
-2 -2 -6 33.2 4
-2 -2 -6 32.5 6.4
2 2 6 38.5 7.8
2 2 6 36 5.9
2 2 6 38.3 4.3
-3 -2 -6 446.06 19.8
-3 -2 -6 426.16 25.1
3 2 6 434.76 17.8
3 2 6 446.06 21.4
3 2 6 488.95 20.1
-4 -2 -6 729.13 26.6
-4 -2 -6 741.23 31.4
4 2 6 742.53 25.1
4 2 6 714.93 26.6
4 2 6 676.93 28.3
-5 -2 -6 484.25 30
-5 -2 -6 480.05 22.5
-5 -2 -6 491.95 15.5
-5 -2 -6 467.65 27.2
5 2 6 487.15 22.5
5 2 6 543.35 26.6
5 2 6 493.25 21.2
-6 -2 -6 271.07 18.3
-6 -2 -6 291.77 13.7
-6 -2 -6 269.97 19.1
6 2 6 285.87 21
6 2 6 306.47 18.1
-7 -2 -6 155.78 16.1
-7 -2 -6 144.29 12.3
-7 -2 -6 131.69 15.7
-7 -2 -6 161.38 15
7 2 6 149.69 16.6
7 2 6 158.18 16.6
-8 -2 -6 134.79 14.3
-8 -2 -6 139.99 16.1
-8 -2 -6 126.79 14.8
8 2 6 158.88 18
6 -3 -6 6.4 8.2
-6 3 6 -1.1 6.6
-6 3 6 12.4 5.7
-6 3 6 -7.7 6.1
5 -3 -6 238.58 13
5 -3 -6 249.18 20.7
-5 3 6 260.77 20.4
-5 3 6 241.38 27.9
-5 3 6 243.98 14.5
-5 3 6 261.37 15.3
4 -3 -6 -1.4 5.6
-4 3 6 -3.6 3.6
-4 3 6 3.1 4.7
3 -3 -6 548.25 18.8
3 -3 -6 550.04 26.8
3 -3 -6 489.35 23.2
-3 3 6 528.35 24.5
-3 3 6 563.54 21.5
-3 3 6 542.95 24.2
2 -3 -6 4.2 2
2 -3 -6 -2.2 3.3
2 -3 -6 -0.7 2.9
-2 3 6 3.5 3.7
-2 3 6 3.8 3.8
-2 3 6 2.5 3.5
1 -3 -6 2150.88 48.6
1 -3 -6 2029.5 47
1 -3 -6 2087.89 40.6
-1 3 6 2011.8 47.9
-1 3 6 2033.4 46.3
-1 3 6 2081.99 44.8
0 -3 -6 133.99 10.9
0 -3 -6 132.59 9.8
0 -3 -6 136.39 9.4
0 3 6 130.59 10.3
0 3 6 137.59 10.6
0 3 6 140.79 8.4
0 3 6 135.69 10.7
-1 -3 -6 2007.3 44.3
-1 -3 -6 1928.21 40.8
-1 -3 -6 1939.41 45.9
1 3 6 1957.2 45.4
1 3 6 1982.1 41.6
1 3 6 1946.81 45.1
-2 -3 -6 434.26 19.1
-2 -3 -6 423.26 18.9
-2 -3 -6 423.16 14.3
2 3 6 416.76 14.9
2 3 6 428.66 19.7
-3 -3 -6 425.46 13.1
-3 -3 -6 464.65 20.8
-3 -3 -6 444.66 20.1
3 3 6 437.66 19.5
3 3 6 422.86 13.8
3 3 6 430.26 21.1
-4 -3 -6 -2.8 3
-4 -3 -6 5.5 4.3
-4 -3 -6 0.8 1.8
-4 -3 -6 -2.8 3.3
4 3 6 0.4 2.8
4 3 6 -1 2.8
4 3 6 5.4 4.4
-5 -3 -6 453.55 21.8
-5 -3 -6 483.65 27.1
-5 -3 -6 475.75 23.9
5 3 6 495.15 25.5
5 3 6 502.25 22.8
5 3 6 462.05 22
-6 -3 -6 79.09 12.4
-6 -3 -6 105.79 12.7
6 3 6 95.09 13.8
6 3 6 112.59 12.2
-7 -3 -6 184.28 17.2
-7 -3 -6 183.68 11.5
-7 -3 -6 144.39 20.7
-7 -3 -6 129.89 14.6
7 3 6 154.78 15.3
7 3 6 166.18 17.7
-8 -3 -6 1 6.1
-8 -3 -6 4.8 6
-8 -3 -6 0.9 7.5
8 3 6 -10.4 6.3
8 3 6 3.9 7
5 -4 -6 336.57 19.4
5 -4 -6 302.47 24.7
-5 4 6 284.17 24.5
-5 4 6 315.57 19.1
4 -4 -6 142.79 16
4 -4 -6 120.19 12.5
-4 4 6 132.89 15.3
-4 4 6 147.89 8.8
-4 4 6 110.39 14.3
-4 4 6 133.29 12.7
3 -4 -6 452.75 25.2
3 -4 -6 486.15 21.3
-3 4 6 476.25 24.7
-3 4 6 361.16 20.7
-3 4 6 493.55 21.2
2 -4 -6 29.1 8.8
2 -4 -6 25.5 7
-2 4 6 10 4.5
-2 4 6 12.6 5.1
-2 4 6 10.6 5.2
-2 4 6 33.1 7.8
1 -4 -6 86.39 10.7
1 -4 -6 77.69 9.2
1 -4 -6 86.79 11.2
1 -4 -6 88.59 8.1
-1 4 6 108.29 9.6
-1 4 6 83.89 10.6
-1 4 6 88.89 8
-1 4 6 92.19 9.4
0 -4 -6 591.34 23.9
0 -4 -6 601.54 20.2
0 -4 -6 581.34 21.8
0 4 6 608.74 23
0 4 6 566.34 18.4
0 4 6 613.64 23
0 4 6 582.34 20.3
-1 -4 -6 989 29
-1 -4 -6 1041.1 32
-1 -4 -6 963.1 27.9
1 4 6 1013.6 28.8
1 4 6 986 30.3
1 4 6 971.5 21
1 4 6 976.8 29
-2 -4 -6 41.6 7.2
-2 -4 -6 39.6 6.3
-2 -4 -6 42.3 8.1
2 4 6 33.8 6.5
2 4 6 49.3 7.3
2 4 6 44.2 8.6
-3 -4 -6 568.74 23.3
-3 -4 -6 560.84 23.8
-3 -4 -6 573.04 18
3 4 6 594.64 24.8
3 4 6 549.25 22.8
3 4 6 592.94 19.4
-4 -4 -6 63.89 6.2
-4 -4 -6 62.69 10
-4 -4 -6 59.09 9.8
-4 -4 -6 67.39 10
4 4 6 74.29 10.7
4 4 6 79.59 10
4 4 6 75.59 10.5
-5 -4 -6 511.75 15.5
-5 -4 -6 447.26 33.3
-5 -4 -6 500.35 24.8
5 4 6 518.25 26.6
5 4 6 534.85 25
-6 -4 -6 3.8 7.1
-6 -4 -6 7 3
-6 -4 -6 8.4 4.9
-6 -4 -6 -1.2 3.5
-6 -4 -6 7.1 4.8
6 4 6 10.7 5.9
6 4 6 13.9 6.5
-7 -4 -6 305.57 22
-7 -4 -6 280.97 19.1
-7 -4 -6 312.17 12.1
-7 -4 -6 348.47 22.3
-7 -4 -6 291.77 11
7 4 6 318.47 20.5
7 4 6 265.37 20.4
7 4 6 304.87 22.5
-8 -4 -6 -0.2 4.1
-8 -4 -6 -4.4 6.2
-8 -4 -6 1.9 7.8
-8 -4 -6 -7.2 2.8
-8 -4 -6 -1.5 2.9
8 4 6 -5.1 6.3
4 -5 -6 453.65 24.2
4 -5 -6 388.56 27.6
-4 5 6 453.85 28
-4 5 6 399.66 34.4
-4 5 6 399.56 22.4
3 -5 -6 280.07 18.7
3 -5 -6 282.37 19.9
3 -5 -6 250.37 20.9
-3 5 6 278.17 18
-3 5 6 282.17 20.8
2 -5 -6 422.86 24.5
-2 5 6 409.16 20.8
-2 5 6 418.16 21.3
-2 5 6 374.06 22.4
1 -5 -6 510.35 25.4
1 -5 -6 534.05 23.8
1 -5 -6 518.25 18
-1 5 6 528.45 16.2
-1 5 6 520.75 24.2
-1 5 6 508.25 22.4
-1 5 6 506.45 22.5
0 -5 -6 304.27 26.9
0 -5 -6 224.58 14.9
0 -5 -6 239.18 13.1
0 5 6 236.18 12.3
0 5 6 237.68 15.2
0 5 6 253.27 16
0 5 6 243.88 12.8
-1 -5 -6 51.19 7.8
-1 -5 -6 51.59 8.5
-1 -5 -6 55.49 9.6
1 5 6 43.6 5.5
1 5 6 67.69 8.1
1 5 6 48.3 8.2
-2 -5 -6 494.75 19.7
-2 -5 -6 508.85 23.2
-2 -5 -6 536.25 22.7
2 5 6 531.55 22.5
2 5 6 497.15 20.4
2 5 6 514.95 21.6
-3 -5 -6 444.86 21.8
-3 -5 -6 475.05 18.5
-3 -5 -6 499.65 23.1
3 5 6 483.45 22.2
3 5 6 474.95 19.7
3 5 6 453.85 21.3
-4 -5 -6 198.78 15.2
-4 -5 -6 206.58 16.7
-4 -5 -6 205.98 11.9
-4 -5 -6 211.48 18.1
4 5 6 231.78 17.2
4 5 6 187.08 16.3
-5 -5 -6 272.37 13.1
-5 -5 -6 241.98 16.9
-5 -5 -6 270.47 19.5
5 5 6 271.77 18.7
5 5 6 246.28 19.2
-6 -5 -6 335.57 14.2
-6 -5 -6 335.37 19.7
-6 -5 -6 351.86 26
-6 -5 -6 369.36 23.1
-6 -5 -6 313.77 22.2
6 5 6 345.67 23.1
6 5 6 279.87 20.8
6 5 6 254.27 19.1
-7 -5 -6 138.19 9.9
-7 -5 -6 123.29 16.3
-7 -5 -6 119.99 13.8
-7 -5 -6 100.19 14.2
7 5 6 126.99 16.3
7 5 6 107.49 14.6
3 -6 -6 14.1 7
3 -6 -6 26.5 10.8
-3 6 6 27.5 9
-3 6 6 21 7.9
2 -6 -6 685.93 32.9
2 -6 -6 743.63 35.4
-2 6 6 684.73 28.9
-2 6 6 691.33 31.4
1 -6 -6 -6.9 4.2
1 -6 -6 2.1 3.6
1 -6 -6 6.4 4.4
-1 6 6 -3.3 3.8
-1 6 6 6.2 5.4
-1 6 6 0.8 4.3
0 -6 -6 506.75 23.7
0 -6 -6 523.75 21
0 -6 -6 498.45 24.9
0 6 6 493.35 19
0 6 6 503.25 20.3
0 6 6 503.35 24.1
-1 -6 -6 98.39 11.9
-1 -6 -6 136.29 12
-1 -6 -6 119.19 12
1 6 6 118.49 8.9
1 6 6 133.49 10.6
1 6 6 130.59 16.8
-2 -6 -6 910.61 32
-2 -6 -6 893.61 29.7
-2 -6 -6 874.31 32.9
2 6 6 969.8 31.9
2 6 6 900.41 29.1
2 6 6 922.21 20.6
-3 -6 -6 105.39 12.8
-3 -6 -6 94.89 12.4
-3 -6 -6 111.99 10.5
3 6 6 105.19 11.2
3 6 6 104.29 11.4
-4 -6 -6 312.17 19.6
-4 -6 -6 341.97 17
-4 -6 -6 370.16 22.4
4 6 6 372.66 29.1
4 6 6 381.56 23.4
-5 -6 -6 14.9 4.9
-5 -6 -6 13.4 6.8
-5 -6 -6 1.7 4.2
5 6 6 2.8 5.6
5 6 6 8.4 7.1
5 6 6 -2.6 5.4
-6 -6 -6 148.49 12.1
-6 -6 -6 177.78 17.5
-6 -6 -6 131.49 13.8
6 6 6 154.38 17.3
6 6 6 145.09 15.2
-7 -6 -6 109.99 14.1
-7 -6 -6 143.49 17.5
-7 -6 -6 138.69 15.3
-7 -6 -6 136.49 12
7 6 6 157.08 16.8
7 6 6 142.69 17.9
2 -7 -6 262.17 21.3
2 -7 -6 245.88 12.6
-2 7 6 237.98 19.8
-2 7 6 304.67 29.1
1 -7 -6 21.9 6
1 -7 -6 8.4 6.2
-1 7 6 -5.1 3.9
-1 7 6 11.2 6.6
0 -7 -6 352.66 22.8
0 -7 -6 433.56 21
0 -7 -6 408.86 23.3
0 7 6 404.06 23.5
0 7 6 379.86 25.8
0 7 6 415.36 19.9
-1 -7 -6 136.59 13.7
-1 -7 -6 139.69 13.8
-1 -7 -6 163.58 16
1 7 6 150.78 15.5
1 7 6 148.09 11.2
1 7 6 158.78 13.8
-2 -7 -6 189.18 16.8
-2 -7 -6 180.78 14.8
-2 -7 -6 179.68 15.7
-2 -7 -6 202.38 15.5
2 7 6 207.98 10.9
2 7 6 195.08 16.1
2 7 6 199.48 16.8
-3 -7 -6 60.69 11.2
-3 -7 -6 75.09 11.9
-3 -7 -6 60.19 10.1
3 7 6 94.09 12.9
3 7 6 51.89 10.9
-4 -7 -6 383.96 20.1
-4 -7 -6 357.86 21.8
-4 -7 -6 372.76 22.5
4 7 6 351.46 24.3
4 7 6 355.66 21.2
-5 -7 -6 13.6 6.7
-5 -7 -6 5.8 5.5
-5 -7 -6 16.5 8
-5 -7 -6 9.4 5.6
5 7 6 2 6.7
5 7 6 0.5 5.8
-6 -7 -6 242.48 16.2
-6 -7 -6 247.28 18.8
6 7 6 224.68 24.7
1 -8 -6 161.78 18.5
1 -8 -6 183.68 14.5
-1 8 6 176.28 19.8
-1 8 6 216.28 18.1
0 -8 -6 125.39 16
0 8 6 81.29 11.4
0 8 6 147.39 19.2
-1 -8 -6 113.69 14
-1 -8 -6 144.49 15
1 8 6 122.19 12.4
1 8 6 83.99 15
-2 -8 -6 222.48 16.3
-2 -8 -6 208.68 17.3
-2 -8 -6 192.28 23
2 8 6 178.08 12.5
2 8 6 209.28 18.1
-3 -8 -6 139.19 13.8
-3 -8 -6 118.19 12.2
-3 -8 -6 139.99 15
3 8 6 118.79 9.1
3 8 6 115.59 14.8
-4 -8 -6 96.89 15.2
-4 -8 -6 127.59 14.4
-4 -8 -6 119.99 14.4
-4 -8 -6 128.89 15.7
-5 -8 -6 69.79 13.9
-5 -8 -6 70.89 12.3
-5 -8 -6 91.19 14.8
-5 -8 -6 52.49 11.6
5 8 6 68.59 14.4
1 7 -7 329.87 20.3
1 7 -7 351.16 19.2
-1 -7 7 386.56 27.9
4 6 -7 59.59 12.4
-4 -6 7 63.19 12.5
-4 -6 7 71.69 12.9
3 6 -7 74.89 8.4
-3 -6 7 84.19 13.2
2 6 -7 107.39 10.6
2 6 -7 147.39 11.2
-2 -6 7 135.09 18.9
-2 -6 7 94.49 17.2
1 6 -7 13 6.3
-1 -6 7 14 6.8
-1 -6 7 9.5 7.1
0 6 -7 116.09 13.4
0 6 -7 111.79 12.9
0 -6 7 113.59 16.4
-1 6 -7 50.79 11.1
1 -6 7 43.3 10.5
-2 6 -7 140.99 16.7
-2 6 -7 146.19 15.5
2 -6 7 118.39 18.8
5 5 -7 13 5.8
5 5 -7 19.3 8.1
-5 -5 7 9.9 4.8
4 5 -7 320.17 15.3
4 5 -7 303.97 24.1
4 5 -7 328.37 23
-4 -5 7 294.37 26.1
-4 -5 7 310.07 17.1
3 5 -7 -3.6 5.8
3 5 -7 -4.3 5
3 5 -7 -2.1 2.6
-3 -5 7 0.5 4.6
-3 -5 7 -5.1 3.9
2 5 -7 613.64 30.3
2 5 -7 672.43 22
-2 -5 7 621.84 27.1
-2 -5 7 619.84 26
1 5 -7 3.9 5.2
1 5 -7 9.1 4
-1 -5 7 6.5 4.5
0 5 -7 293.07 25
0 5 -7 251.57 19.2
0 -5 7 309.67 18.5
-1 5 -7 35.7 8.2
-1 5 -7 40.3 10.2
1 -5 7 31.4 7.1
1 -5 7 31.4 8.5
-2 5 -7 454.45 28.4
-2 5 -7 384.16 21.9
2 -5 7 356.66 26.2
2 -5 7 450.05 20.6
-3 5 -7 2.5 6.9
-3 5 -7 7.1 6.5
3 -5 7 8 8.1
3 -5 7 3.7 4.5
3 -5 7 9.6 7.1
-4 5 -7 86.49 15
4 -5 7 67.39 11.1
4 -5 7 92.69 17.2
4 -5 7 62.89 14
5 4 -7 20.7 6.1
5 4 -7 39.3 8.5
5 4 -7 30 9
-5 -4 7 35.6 10.3
4 4 -7 149.49 12.3
4 4 -7 129.89 15.8
-4 -4 7 139.39 9.9
3 4 -7 120.89 15.6
3 4 -7 116.89 7.2
-3 -4 7 113.89 12.1
-3 -4 7 107.89 10.1
2 4 -7 242.88 12.4
-2 -4 7 260.67 16.1
-2 -4 7 264.27 15.2
1 4 -7 5 3.8
-1 -4 7 5.9 4.6
-1 -4 7 15.4 3.8
0 4 -7 318.87 16.6
0 -4 7 346.27 20.8
0 -4 7 318.17 17.6
1 -4 7 94.39 13.1
1 -4 7 63.29 8.9
-2 4 -7 777.42 29.7
-2 4 -7 735.23 33.7
2 -4 7 764.22 24.7
2 -4 7 815.22 36.5
-3 4 -7 -8.9 4.4
-3 4 -7 1.8 4.8
-3 4 -7 1.6 5.3
3 -4 7 -1 4.8
3 -4 7 4.6 4.2
3 -4 7 5.1 6.6
-4 4 -7 265.27 19.9
4 -4 7 275.27 20.4
4 -4 7 283.37 13.4
-5 4 -7 16.8 7.5
5 -4 7 -3.4 7.4
5 -4 7 18.1 4.1
5 -4 7 -9.8 5.6
6 3 -7 58.69 11.3
6 3 -7 76.39 17.1
-6 -3 7 44.7 10.9
5 3 -7 78.79 14.9
5 3 -7 103.99 12.4
5 3 -7 138.89 13.6
-5 -3 7 104.59 14.3
4 3 -7 247.08 15.4
4 3 -7 217.38 15.9
4 3 -7 216.18 19.7
3 3 -7 491.55 23.3
3 3 -7 509.25 26.7
3 3 -7 492.75 14.1
-3 -3 7 500.45 23.5
2 3 -7 344.57 20.2
2 3 -7 352.56 14.1
2 3 -7 385.26 24.8
-2 -3 7 326.67 16.6
-2 -3 7 339.87 17.3
1 3 -7 178.08 14.8
1 3 -7 163.68 11
-1 -3 7 173.28 10.6
-1 -3 7 156.78 12.1
0 3 -7 198.18 12.6
0 3 -7 182.98 15.5
0 -3 7 207.78 8.8
0 -3 7 202.98 15
-1 3 -7 559.24 22.4
1 -3 7 564.14 26
1 -3 7 518.25 19.6
-2 3 -7 32.5 7.2
2 -3 7 45.4 6.8
2 -3 7 48.8 11.4
-3 3 -7 249.08 17.2
-3 3 -7 199.48 24.3
3 -3 7 265.87 19.5
3 -3 7 252.27 21.6
3 -3 7 248.68 11.2
-4 3 -7 371.16 24.4
-4 3 -7 374.96 24.5
-4 3 -7 374.26 21.8
4 -3 7 430.76 24.7
4 -3 7 359.06 26.7
4 -3 7 399.86 12.4
-5 3 -7 90.49 14.3
5 -3 7 106.69 15.4
5 -3 7 93.09 17.7
6 2 -7 5 6.7
6 2 -7 3.3 5.1
6 2 -7 1.4 7.2
-6 -2 7 -2.1 6
5 2 -7 407.26 22
5 2 -7 435.36 19.7
5 2 -7 462.35 29.1
-5 -2 7 411.26 25.3
-5 -2 7 374.16 24.5
4 2 -7 29.7 6.8
4 2 -7 20.9 8.1
4 2 -7 29.3 8
-4 -2 7 33.1 8.7
3 2 -7 198.48 14.3
3 2 -7 181.58 8.8
3 2 -7 213.98 17.2
-3 -2 7 200.48 15.8
2 2 -7 66.79 11
2 2 -7 71.59 7.3
2 2 -7 69.19 9.9
-2 -2 7 72.89 10.1
1 2 -7 2194.18 52.89
1 2 -7 2155.48 45.3
1 2 -7 2183.28 54.19
-1 -2 7 2160.88 46.7
-1 -2 7 2136.69 44.9
0 2 -7 319.87 15.5
0 2 -7 304.47 18.8
0 -2 7 290.27 11.9
0 -2 7 313.67 16.4
-1 2 -7 105.09 12
-1 2 -7 119.19 10.5
1 -2 7 92.89 8.2
1 -2 7 104.09 11.8
-2 2 -7 383.46 19.1
2 -2 7 375.26 13.2
2 -2 7 379.46 22
-3 2 -7 1106.29 40
-3 2 -7 1048.8 34.7
3 -2 7 1090.29 40.6
3 -2 7 1085.19 21.4
3 -2 7 1053.19 48.4
-4 2 -7 12 5.4
-4 2 -7 13 9.2
4 -2 7 6.3 5.2
4 -2 7 25.3 8.7
-5 2 -7 211.68 20.2
-5 2 -7 210.68 21.7
-5 2 -7 221.98 17.2
5 -2 7 269.67 23.9
5 -2 7 253.07 19.9
-6 2 -7 29.8 13.4
6 -2 7 23.7 9.7
6 1 -7 88.79 8
6 1 -7 145.59 26.5
6 1 -7 113.79 15.1
-6 -1 7 140.29 23.1
5 1 -7 408.86 27
5 1 -7 456.45 24.4
5 1 -7 468.55 17.3
-5 -1 7 447.86 26.6
-5 -1 7 432.06 25.6
4 1 -7 11.3 5.7
4 1 -7 2.1 3.5
4 1 -7 16.3 6.1
-4 -1 7 2.1 4.9
-4 -1 7 1 2.4
3 1 -7 331.87 21
3 1 -7 330.77 16.1
3 1 -7 367.96 16.7
-3 -1 7 387.86 21.6
-3 -1 7 366.76 20.3
-3 -1 7 360.26 13.4
2 1 -7 62.19 8
2 1 -7 79.39 10.5
2 1 -7 74.69 7.2
-2 -1 7 58.79 9.3
-2 -1 7 71.49 7
-2 -1 7 54.69 9
1 1 -7 335.37 26.9
1 1 -7 388.66 15.6
1 1 -7 325.37 17.5
-1 -1 7 362.86 16.7
-1 -1 7 349.47 15.1
0 1 -7 493.45 22.7
0 1 -7 540.15 19.7
0 -1 7 496.95 19.3
0 -1 7 470.35 19
-1 1 -7 1173.78 34
-1 1 -7 1166.88 32.9
1 -1 7 1212.78 34.9
-2 1 -7 73.29 9.2
-2 1 -7 79.59 11
2 -1 7 91.99 11.5
2 -1 7 66.19 5.3
2 -1 7 74.59 5.4
-3 1 -7 250.27 18.4
-3 1 -7 221.38 15.2
3 -1 7 239.48 17.4
3 -1 7 224.58 17.7
-4 1 -7 20.5 6.2
4 -1 7 14.2 6.1
4 -1 7 20.2 7.5
-5 1 -7 343.77 21.4
-5 1 -7 370.96 26
5 -1 7 332.27 24.8
5 -1 7 407.96 24.3
-6 1 -7 -5.9 5.1
-6 1 -7 -5.4 5.5
6 -1 7 0.7 6.3
-7 1 -7 134.09 16
-7 1 -7 114.29 15.4
7 -1 7 110.79 17.6
6 0 -7 206.38 18.9
6 0 -7 153.28 32
-6 0 7 196.18 19.4
5 0 -7 36.1 9.4
5 0 -7 14.3 8.5
-5 0 7 26.2 8.5
-5 0 7 12 6.9
-5 0 7 27.5 5.6
4 0 -7 390.46 22.2
4 0 -7 378.06 24.1
4 0 -7 361.46 13.4
-4 0 7 366.36 13.7
-4 0 7 350.66 21.3
3 0 -7 635.34 20.6
3 0 -7 672.33 20.5
3 0 -7 635.44 28.3
-3 0 7 620.54 19.3
-3 0 7 635.44 26.4
2 0 -7 217.48 12
2 0 -7 222.28 12.9
2 0 -7 216.28 15.5
-2 0 7 215.28 11.5
-2 0 7 212.78 14.2
1 0 -7 146.09 12.2
1 0 -7 161.28 11.1
1 0 -7 171.08 12.4
-1 0 7 169.48 10.7
-1 0 7 168.38 11.9
0 0 -7 218.18 13
0 0 -7 247.88 13.1
0 0 -7 226.68 11.4
0 0 7 227.78 13
0 0 7 222.38 12.1
-1 0 -7 581.94 21.8
-1 0 -7 573.14 21.5
1 0 7 562.04 21.6
1 0 7 561.44 16.7
-2 0 -7 426.66 20.9
-2 0 -7 418.96 19.2
2 0 7 417.06 21.8
2 0 7 403.66 10.9
2 0 7 422.46 19.6
-3 0 -7 156.88 14.6
-3 0 -7 126.29 11.7
3 0 7 123.29 12.1
3 0 7 131.39 7.9
3 0 7 125.79 13.1
-4 0 -7 459.75 26
-4 0 -7 488.25 23
4 0 7 485.65 15.9
4 0 7 503.55 26.5
-5 0 -7 348.37 25.6
-5 0 -7 354.16 20.9
5 0 7 361.16 23.3
5 0 7 361.36 15
-6 0 -7 149.39 13.9
-6 0 -7 143.59 17.7
-6 0 -7 138.79 21.5
-6 0 -7 139.69 15.5
6 0 7 139.79 16.1
-7 0 -7 106.79 14.8
-7 0 -7 68.19 12.6
7 0 7 95.89 15.2
6 -1 -7 152.68 20.1
6 -1 -7 189.88 19.3
-6 1 7 166.08 19.4
-6 1 7 167.88 11.2
5 -1 -7 5.1 6.4
5 -1 -7 2.4 5.5
-5 1 7 -4.9 5.1
-5 1 7 1.1 3.3
-5 1 7 -2.2 4.5
4 -1 -7 646.34 31.7
4 -1 -7 693.53 30.7
-4 1 7 625.04 20.7
-4 1 7 633.64 29.2
3 -1 -7 37.4 11.3
3 -1 -7 29.2 7.8
3 -1 -7 31.7 5
-3 1 7 54.89 10.1
-3 1 7 37 6.7
2 -1 -7 1016.6 34.1
2 -1 -7 1121.09 29.9
2 -1 -7 1073.29 28.4
-2 1 7 1071.29 33.3
-2 1 7 1091.09 29
1 -1 -7 64.19 8.6
1 -1 -7 52.59 7.4
-1 1 7 51.09 7
-1 1 7 63.19 8.5
0 -1 -7 1282.87 34
0 -1 -7 1280.57 32
0 -1 -7 1237.98 29.9
0 1 7 1205.08 38.6
0 1 7 1245.28 31.4
-1 -1 -7 72.19 6.8
-1 -1 -7 73.09 8.7
-1 -1 -7 59.39 8
1 1 7 61.39 8.2
-2 -1 -7 806.32 27.3
-2 -1 -7 834.82 29.2
-2 -1 -7 820.62 20.1
2 1 7 809.42 27.4
2 1 7 758.72 17.4
2 1 7 780.32 29.7
-3 -1 -7 219.18 16.6
-3 -1 -7 200.28 14
3 1 7 219.98 16.7
3 1 7 209.18 11.8
3 1 7 206.78 14.6
-4 -1 -7 330.77 22.1
-4 -1 -7 327.27 24.5
4 1 7 327.27 15.2
-5 -1 -7 103.89 12.3
-5 -1 -7 102.09 8.9
5 1 7 126.69 15.1
5 1 7 118.69 10.9
-6 -1 -7 376.26 22.5
-6 -1 -7 355.66 27.8
-6 -1 -7 373.06 17.7
6 1 7 354.56 18.6
6 1 7 349.07 23.7
-7 -1 -7 45.8 11.4
-7 -1 -7 58.29 14
-7 -1 -7 33.5 9.5
7 1 7 63.59 14.1
5 -2 -7 71.49 13.2
-5 2 7 67.39 9.5
-5 2 7 67.69 13.7
4 -2 -7 426.26 25.5
4 -2 -7 459.95 27.5
-4 2 7 432.26 24.5
-4 2 7 469.95 25.6
-4 2 7 427.06 18.6
3 -2 -7 64.89 11
3 -2 -7 58.99 10.9
-3 2 7 51.99 10.4
-3 2 7 68.79 10.7
-3 2 7 60.49 7.8
2 -2 -7 264.47 11.8
2 -2 -7 258.17 14.8
2 -2 -7 248.78 16.4
-2 2 7 251.77 13.8
-2 2 7 277.57 15.8
-2 2 7 284.27 17.1
1 -2 -7 116.59 10.3
1 -2 -7 101.09 9.9
1 -2 -7 99.89 6.9
-1 2 7 92.39 9.1
-1 2 7 103.99 10.1
0 -2 -7 1218.88 33.9
0 -2 -7 1168.98 29.5
0 -2 -7 1155.58 29.8
0 2 7 1180.38 32.8
0 2 7 1199.78 31.4
-1 -2 -7 359.96 17
-1 -2 -7 379.46 18
-1 -2 -7 337.57 12.3
1 2 7 360.46 14.4
1 2 7 370.86 17.5
1 2 7 374.66 19.1
-2 -2 -7 591.14 24.5
-2 -2 -7 631.64 24.2
2 2 7 581.14 25.2
2 2 7 635.84 23.9
2 2 7 587.44 16.5
-3 -2 -7 88.39 11.5
-3 -2 -7 76.09 9.5
3 2 7 96.89 11.4
3 2 7 83.49 9.7
-4 -2 -7 819.92 32.7
-4 -2 -7 780.62 34.1
4 2 7 826.22 43.1
4 2 7 829.82 30.3
4 2 7 836.92 27.5
-5 -2 -7 152.58 7.8
-5 -2 -7 148.69 14
5 2 7 157.08 12.8
5 2 7 143.49 15.3
-6 -2 -7 270.77 21
-6 -2 -7 254.87 12
-6 -2 -7 246.28 17.8
-6 -2 -7 236.58 22.3
6 2 7 240.68 20.4
6 2 7 247.38 16.4
-7 -2 -7 1.6 4.4
-7 -2 -7 3.3 5.5
-7 -2 -7 4.7 5.2
7 2 7 -4.2 5.1
5 -3 -7 248.98 30.4
-5 3 7 232.38 15.6
-5 3 7 188.68 20.1
4 -3 -7 75.99 13.8
-4 3 7 72.29 13
-4 3 7 56.59 11.5
-4 3 7 37.5 7.3
3 -3 -7 422.26 25.2
3 -3 -7 438.76 14.7
-3 3 7 445.96 19.7
-3 3 7 442.16 23.6
-3 3 7 417.86 22
2 -3 -7 622.94 28.5
2 -3 -7 562.64 15.6
-2 3 7 556.94 22.8
-2 3 7 578.24 22.3
1 -3 -7 956.4 30.3
1 -3 -7 924.61 24.9
1 -3 -7 910.41 30.1
-1 3 7 930.51 27.6
-1 3 7 948.11 29.5
-1 3 7 929.81 30.5
0 -3 -7 25 5.3
0 -3 -7 22.6 5.8
0 -3 -7 35.3 7.4
0 3 7 20.4 4.9
0 3 7 23.6 5.3
0 3 7 32.2 7.3
-1 -3 -7 115.39 11.6
-1 -3 -7 121.49 9
-1 -3 -7 117.39 10.8
1 3 7 116.19 9.6
1 3 7 122.69 11.6
1 3 7 134.39 11.3
-2 -3 -7 541.55 22.7
-2 -3 -7 518.35 16.7
-2 -3 -7 520.15 22.4
2 3 7 500.35 17.1
2 3 7 508.05 21.9
2 3 7 493.25 22.9
-3 -3 -7 110.19 12.7
-3 -3 -7 108.49 6.7
-3 -3 -7 91.39 10.6
-3 -3 -7 110.19 11.9
3 3 7 109.89 12.4
3 3 7 109.09 11.1
3 3 7 101.49 7.2
-4 -3 -7 43.9 4.1
-4 -3 -7 48.3 10.7
-4 -3 -7 45.1 10.9
-4 -3 -7 69.19 11.6
4 3 7 68.19 9.6
4 3 7 35.9 8.3
-5 -3 -7 203.38 16.8
-5 -3 -7 204.08 16.3
5 3 7 192.48 17.3
5 3 7 219.48 15.6
-6 -3 -7 390.06 24.1
-6 -3 -7 357.76 27.5
-6 -3 -7 402.56 22.8
6 3 7 387.26 22.5
6 3 7 369.96 24.6
6 3 7 420.66 22.6
-7 -3 -7 152.18 15.8
-7 -3 -7 136.99 16.6
-7 -3 -7 141.29 18.1
7 3 7 127.49 15.8
7 3 7 168.48 17.6
4 -4 -7 3.8 4.1
4 -4 -7 7.4 7.9
-4 4 7 -2.4 5.5
-4 4 7 8 6.9
-4 4 7 -5.8 6.2
3 -4 -7 322.17 20.5
3 -4 -7 312.57 16.2
3 -4 -7 264.67 21
-3 4 7 293.77 17.5
-3 4 7 265.57 20.1
2 -4 -7 10.6 6
2 -4 -7 3.1 4
-2 4 7 6.8 4.1
-2 4 7 7.2 4.6
-2 4 7 4.4 4.9
-2 4 7 7.9 5.8
1 -4 -7 479.35 22
1 -4 -7 500.65 17.4
1 -4 -7 494.95 23.2
-1 4 7 497.75 20
-1 4 7 456.75 19.1
-1 4 7 483.45 22.7
-1 4 7 506.95 21.9
0 -4 -7 3.1 3.5
0 -4 -7 -2.1 3.3
0 -4 -7 1.2 3.9
0 4 7 0.9 2.6
0 4 7 4.3 3.6
0 4 7 5.9 4.2
0 4 7 -4.6 3.8
-1 -4 -7 1683.53 40.4
-1 -4 -7 1554.44 43.7
-1 -4 -7 1699.83 41.9
1 4 7 1686.63 43.2
1 4 7 1611.94 40.1
1 4 7 1641.64 43.4
-2 -4 -7 142.29 13.3
-2 -4 -7 138.19 10
-2 -4 -7 134.99 11.9
2 4 7 157.88 13.8
2 4 7 133.89 10.7
-3 -4 -7 1051.99 26.4
-3 -4 -7 1042 34.7
3 4 7 1007.7 35.2
3 4 7 1055.19 27.6
-4 -4 -7 234.18 10.5
-4 -4 -7 225.88 16.7
-4 -4 -7 218.88 17.2
4 4 7 212.28 16
4 4 7 207.48 17
-5 -4 -7 255.87 17.9
-5 -4 -7 263.67 10
-5 -4 -7 229.28 25.1
-5 -4 -7 266.97 19.3
5 4 7 265.87 19.2
5 4 7 240.18 19.4
5 4 7 245.58 22.6
-6 -4 -7 -4.2 5.6
-6 -4 -7 -1.2 4.7
-6 -4 -7 6.3 5.8
-6 -4 -7 -2 6.3
6 4 7 0 6
6 4 7 11.5 6
6 4 7 -2.3 5.9
-7 -4 -7 177.88 17.6
-7 -4 -7 214.68 20.3
7 4 7 188.08 18.4
7 4 7 194.88 25.6
4 -5 -7 59.39 13.9
4 -5 -7 64.69 11.9
-4 5 7 61.89 13.3
3 -5 -7 458.75 22.8
3 -5 -7 427.16 27.4
-3 5 7 436.46 25.8
-3 5 7 491.75 39.2
-3 5 7 421.26 22.3
2 -5 -7 75.99 11.9
2 -5 -7 89.89 14
-2 5 7 98.29 14.7
-2 5 7 112.79 12.3
-2 5 7 102.49 8.4
-2 5 7 93.39 12.4
1 -5 -7 462.05 25.5
1 -5 -7 497.55 23.9
1 -5 -7 503.45 18
-1 5 7 480.65 24.1
-1 5 7 502.45 21.3
-1 5 7 491.75 18.1
-1 5 7 459.45 22.4
0 -5 -7 40.3 7.5
0 -5 -7 29 6.6
0 -5 -7 29.9 7
0 5 7 31.8 8.2
0 5 7 26.2 6.5
0 5 7 27 6.9
0 5 7 39.7 6.9
-1 -5 -7 83.29 11.2
-1 -5 -7 79.49 9.8
-1 -5 -7 92.49 10.2
1 5 7 83.79 6.4
1 5 7 95.69 10.1
1 5 7 94.09 11
-2 -5 -7 278.97 15
-2 -5 -7 261.67 17.6
-2 -5 -7 308.87 18.1
2 5 7 289.67 16.1
2 5 7 277.97 17.1
-3 -5 -7 705.23 29
-3 -5 -7 694.13 29.5
3 5 7 660.83 27.9
3 5 7 690.33 24.2
-4 -5 -7 0.2 4.6
-4 -5 -7 0.4 4.8
-4 -5 -7 7.5 3.4
4 5 7 1.5 4.8
4 5 7 5.5 4.8
4 5 7 -1.5 5.8
-5 -5 -7 267.77 22
-5 -5 -7 277.57 19.1
-5 -5 -7 269.77 20.7
-5 -5 -7 307.07 20.2
-5 -5 -7 280.37 12.7
5 5 7 277.57 18.3
5 5 7 285.77 20.3
5 5 7 292.17 21.2
-6 -5 -7 16.2 7.5
-6 -5 -7 11.8 3.7
-6 -5 -7 11.7 5.9
6 5 7 10.3 5.6
6 5 7 24 8.3
6 5 7 8.7 7.4
-7 -5 -7 186.58 16.6
-7 -5 -7 184.08 18.8
-7 -5 -7 179.98 9.2
7 5 7 177.78 19.3
7 5 7 186.18 19.6
3 -6 -7 55.59 11.7
3 -6 -7 74.39 14.9
-3 6 7 72.39 14.3
-3 6 7 98.49 15.6
2 -6 -7 379.86 25.6
-2 6 7 392.86 24.8
1 -6 -7 327.77 22.8
1 -6 -7 311.97 20.1
1 -6 -7 312.57 15.3
-1 6 7 327.37 18.4
-1 6 7 319.67 21
-1 6 7 362.46 21.1
0 -6 -7 302.97 21
0 -6 -7 312.17 22.1
0 -6 -7 276.87 15.9
0 6 7 310.57 19.1
0 6 7 269.77 13.7
0 6 7 286.57 15.2
0 6 7 304.27 19.8
-1 -6 -7 442.36 21.2
-1 -6 -7 402.26 20.5
-1 -6 -7 442.66 24.1
1 6 7 427.36 22.1
1 6 7 398.16 14.7
1 6 7 388.26 18.6
-2 -6 -7 160.78 12.7
-2 -6 -7 143.99 15
2 6 7 190.88 14.8
2 6 7 173.58 13.7
-3 -6 -7 42.9 9.8
-3 -6 -7 31.6 7.5
-3 -6 -7 58.29 9
3 6 7 45.6 9.7
3 6 7 56.19 9.9
3 6 7 52.19 10.1
-4 -6 -7 209.58 17.8
-4 -6 -7 194.18 13.4
-4 -6 -7 189.28 16.8
4 6 7 196.18 18.6
4 6 7 223.98 17.2
4 6 7 237.38 19.2
-5 -6 -7 213.88 18.8
-5 -6 -7 240.38 14.2
-5 -6 -7 243.28 19.2
-5 -6 -7 249.48 19.9
5 6 7 205.48 18.9
5 6 7 246.38 19.3
5 6 7 207.98 17.2
-6 -6 -7 76.69 9.5
-6 -6 -7 68.49 13.7
-6 -6 -7 89.89 13.1
6 6 7 80.59 15
6 6 7 76.39 13.8
2 -7 -7 41.1 11
-2 7 7 30 7.5
-2 7 7 26.3 8.2
1 -7 -7 -6.6 3.9
1 -7 -7 8.1 7.9
-1 7 7 -5.6 3.7
-1 7 7 3.4 7
0 -7 -7 591.84 24.2
0 -7 -7 592.24 29.9
0 7 7 522.55 27.6
0 7 7 539.45 22.5
-1 -7 -7 8.4 6
-1 -7 -7 10.8 6.4
-1 -7 -7 6.5 7.8
1 7 7 12.7 7.1
1 7 7 7.1 4.1
-2 -7 -7 309.87 19.8
-2 -7 -7 256.17 19.9
2 7 7 346.17 21.4
2 7 7 311.27 17.4
2 7 7 288.47 10.3
-3 -7 -7 93.79 13
-3 -7 -7 107.39 12.7
-3 -7 -7 103.39 14.2
3 7 7 96.99 12.3
3 7 7 95.89 12.5
-4 -7 -7 459.45 25.4
-4 -7 -7 512.95 22.7
-4 -7 -7 451.85 25.4
4 7 7 498.75 29
-5 -7 -7 69.39 12.6
-5 -7 -7 47.7 9.4
-5 -7 -7 67.59 14
-5 -7 -7 34.9 8.9
5 7 7 48.6 11.7
-6 -7 -7 144.09 17.4
-6 -7 -7 129.29 12.9
-6 -7 -7 142.59 16.2
6 7 7 138.09 18.4
0 -8 -7 259.67 17.7
0 -8 -7 270.77 21.4
0 8 7 261.47 17.9
0 8 7 273.07 22.9
-1 -8 -7 0.2 7.7
-1 -8 -7 8.3 5.4
1 8 7 9.9 5.8
1 8 7 -4.5 6.2
-2 -8 -7 272.87 19.5
-2 -8 -7 263.37 20.3
2 8 7 328.17 22.7
2 8 7 265.77 12.7
-3 -8 -7 75.39 13.7
-3 -8 -7 60.39 13.6
-3 -8 -7 76.39 15.1
-3 -8 -7 61.59 12.4
3 8 7 50.19 10.2
-4 -8 -7 106.09 15.4
-4 -8 -7 121.39 18.9
-4 -8 -7 95.69 14.1
4 8 7 131.29 19.1
2 6 -8 87.29 10.8
-2 -6 8 47.9 10.1
1 6 -8 161.88 15.3
1 6 -8 151.88 14.2
-1 -6 8 171.38 18
0 6 -8 -4.6 5.2
0 -6 8 -10 6.4
0 -6 8 -14.8 5.3
-1 6 -8 403.66 23.2
-1 6 -8 341.17 21.6
1 -6 8 393.76 24.8
1 -6 8 369.26 28.3
4 5 -8 72.29 16.4
4 5 -8 44.8 9.9
-4 -5 8 43.8 10.1
-4 -5 8 54.79 12.9
3 5 -8 155.78 20.7
3 5 -8 190.88 10.5
-3 -5 8 161.38 14.9
-3 -5 8 164.78 14.9
2 5 -8 87.59 9.9
-2 -5 8 76.29 10.7
-2 -5 8 101.59 12.7
-2 -5 8 101.19 15.2
1 5 -8 125.09 12
-1 -5 8 122.29 14.6
0 5 -8 89.59 11.4
0 -5 8 97.79 14.6
-1 5 -8 18 8.3
-1 5 -8 22 6.7
1 -5 8 17.6 6.6
1 -5 8 13.9 7.2
-2 5 -8 90.69 15.1
-2 5 -8 75.79 12.3
2 -5 8 78.39 16.8
2 -5 8 94.29 11.7
-3 5 -8 45 9.8
3 -5 8 47.2 8.1
3 -5 8 54.79 11.9
5 4 -8 -10.3 6.3
5 4 -8 5.4 8.6
5 4 -8 15.5 6.8
4 4 -8 243.38 19.5
4 4 -8 245.48 16.2
4 4 -8 231.08 22.2
-4 -4 8 238.38 29.1
3 4 -8 9.5 5.3
3 4 -8 12.5 3.6
3 4 -8 21.6 8.7
-3 -4 8 -2.2 5.4
2 4 -8 375.86 23.4
2 4 -8 396.96 25
2 4 -8 405.26 17.1
-2 -4 8 395.36 18.9
-2 -4 8 376.56 18.8
1 4 -8 -0.2 4.5
1 4 -8 3.4 3.9
-1 -4 8 -2.1 4.5
-1 -4 8 3.2 3.5
0 4 -8 665.73 32.3
0 4 -8 728.73 26.8
0 -4 8 672.83 29.6
0 -4 8 711.33 27.6
-1 4 -8 4.4 4.1
-1 4 -8 14.2 6.4
1 -4 8 3.2 4.9
1 -4 8 14.8 5.4
-2 4 -8 271.97 18.6
2 -4 8 286.17 23
-3 4 -8 59.99 13.8
-3 4 -8 55.09 10.2
3 -4 8 34.7 8.1
3 -4 8 28.1 10
3 -4 8 43.9 10.6
-4 4 -8 249.38 20
4 -4 8 320.07 40.8
4 -4 8 242.48 21.6
4 -4 8 236.98 11.6
5 3 -8 118.99 13.5
5 3 -8 109.49 17.9
-5 -3 8 125.09 21.6
4 3 -8 271.37 22.4
4 3 -8 276.77 17.9
-4 -3 8 268.87 24.9
3 3 -8 49.4 12
3 3 -8 20.6 5.3
-3 -3 8 17.3 6.3
2 3 -8 189.18 11.5
2 3 -8 179.18 16.7
-2 -3 8 189.98 11.5
-2 -3 8 187.88 13.8
1 3 -8 76.29 9
-1 -3 8 75.89 8.5
-1 -3 8 94.79 10.9
0 3 -8 310.47 16.7
0 -3 8 295.27 18.2
-1 3 -8 -5.5 3.8
1 -3 8 -1.6 3.7
1 -3 8 0.4 3.4
-2 3 -8 276.67 18
2 -3 8 291.27 13.3
2 -3 8 265.17 22.1
-3 3 -8 32.3 8.4
-3 3 -8 25 8
3 -3 8 24.7 7.6
3 -3 8 52.29 12.2
3 -3 8 37.9 5.7
-4 3 -8 543.55 27.4
4 -3 8 573.64 30.4
4 -3 8 534.95 33.3
-5 3 -8 -10.6 4.7
5 -3 8 -3.9 7.8
5 -3 8 -5.1 6.3
5 2 -8 190.78 14.2
5 2 -8 198.68 17.4
5 2 -8 178.98 20.7
-5 -2 8 207.78 19.3
4 2 -8 158.38 17.2
4 2 -8 170.68 14.2
4 2 -8 150.18 16
-4 -2 8 161.58 16.1
-4 -2 8 154.98 22.5
3 2 -8 130.49 14.9
3 2 -8 139.99 13.1
3 2 -8 128.39 8.7
-3 -2 8 138.99 14.1
-3 -2 8 163.58 14.9
2 2 -8 274.87 19
2 2 -8 326.67 14.6
2 2 -8 326.67 19.1
-2 -2 8 311.07 17.7
1 2 -8 533.45 25.2
1 2 -8 571.74 26.1
1 2 -8 559.34 20.5
-1 -2 8 557.44 23
-1 -2 8 530.35 20.7
0 2 -8 483.95 20.3
0 2 -8 476.75 24.9
0 -2 8 455.85 16.3
0 -2 8 462.85 20.5
-1 2 -8 82.49 9.9
1 -2 8 81.69 11.3
-2 2 -8 170.58 14.2
2 -2 8 169.78 9.4
2 -2 8 173.48 16
-3 2 -8 359.86 20.8
3 -2 8 356.56 23.8
3 -2 8 348.17 22.8
-4 2 -8 16.5 8.2
-4 2 -8 12.7 6.5
4 -2 8 30.9 9.2
4 -2 8 13.3 6.9
-5 2 -8 71.19 12.9
5 -2 8 78.09 14.5
5 -2 8 94.29 17
-6 2 -8 234.48 20.8
6 -2 8 190.78 23.3
6 -2 8 223.58 22.6
5 1 -8 204.08 20.9
5 1 -8 176.48 17.6
5 1 -8 175.18 11.8
-5 -1 8 168.38 18.2
4 1 -8 0.2 6.6
4 1 -8 -6.7 3.2
4 1 -8 -5 6.1
-4 -1 8 1.7 6.5
-4 -1 8 3.2 6
3 1 -8 508.85 17.4
3 1 -8 538.95 22.1
3 1 -8 484.85 26.5
-3 -1 8 529.05 17.5
-3 -1 8 545.85 25.1
2 1 -8 15.7 5.2
2 1 -8 21.6 6.9
2 1 -8 31.4 7.1
-2 -1 8 23.8 6.5
-2 -1 8 15.4 4.7
-2 -1 8 8.3 4.9
1 1 -8 225.38 15.1
1 1 -8 222.98 15.9
1 1 -8 214.08 13.2
-1 -1 8 235.08 14.6
0 1 -8 49 8.7
0 1 -8 44 8.9
0 1 -8 60.79 8.4
0 -1 8 43.7 7.8
0 -1 8 45.4 8
-1 1 -8 1787.62 45.1
-1 1 -8 1760.72 45.2
1 -1 8 1780.72 37.8
-2 1 -8 311.47 19
-2 1 -8 282.77 17.1
2 -1 8 269.07 10.2
2 -1 8 318.37 19.4
2 -1 8 263.37 10.5
-3 1 -8 82.79 12.8
-3 1 -8 77.79 11
3 -1 8 105.19 13.6
3 -1 8 94.99 12.5
-4 1 -8 269.57 18.3
-4 1 -8 247.68 30.9
4 -1 8 260.07 21.3
4 -1 8 203.08 19.4
-5 1 -8 621.14 29.3
-5 1 -8 579.84 33.7
5 -1 8 613.44 31.6
-6 1 -8 12.9 7.9
-6 1 -8 14.6 7.4
6 -1 8 -7.6 7.7
5 0 -8 147.09 19
5 0 -8 191.78 18.7
-5 0 8 187.38 10
-5 0 8 198.78 20
4 0 -8 168.58 18.6
4 0 -8 167.58 10.2
4 0 -8 163.98 16.3
-4 0 8 168.68 17.7
-4 0 8 158.78 16.4
-4 0 8 161.58 9.6
3 0 -8 652.73 22.7
3 0 -8 649.83 30.3
3 0 -8 664.63 21.9
-3 0 8 703.73 21.6
-3 0 8 713.93 29
2 0 -8 5 4.2
2 0 -8 1.2 3.7
2 0 -8 1.1 3.6
-2 0 8 5.3 3.4
-2 0 8 3 4
1 0 -8 403.16 19.6
1 0 -8 372.86 17
1 0 -8 410.56 19.8
-1 0 8 368.76 18
-1 0 8 373.26 17
0 0 -8 44.7 6.7
0 0 -8 54.89 8.1
0 0 -8 51.69 7.8
0 0 8 47.3 7.8
0 0 8 47.9 7.6
-1 0 -8 359.66 18.1
-1 0 -8 360.86 16.4
-1 0 -8 378.06 18.3
1 0 8 368.26 14.3
1 0 8 372.76 18.6
-2 0 -8 272.57 17.3
-2 0 -8 274.07 16.8
2 0 8 275.97 16.9
2 0 8 252.87 9.3
2 0 8 253.37 20.2
-3 0 -8 720.93 28.4
-3 0 -8 707.23 31.2
3 0 8 720.13 20
3 0 8 718.03 31.9
-4 0 -8 16.3 5.2
4 0 8 20.9 4.5
4 0 8 14 7.7
-5 0 -8 114.89 14.2
-5 0 -8 107.09 17.2
5 0 8 131.89 9.2
5 0 8 141.89 16.2
-6 0 -8 -2 5.9
-6 0 -8 6.7 6.8
6 0 8 -1.1 7
5 -1 -8 70.09 14.3
-5 1 8 98.59 11.1
4 -1 -8 255.27 21.3
4 -1 -8 267.57 20.8
-4 1 8 264.17 20.1
-4 1 8 277.57 14.4
3 -1 -8 55.49 11.6
3 -1 -8 67.39 7.3
-3 1 8 56.49 8.1
-3 1 8 67.39 11.7
2 -1 -8 349.57 20.3
2 -1 -8 355.86 16.6
2 -1 -8 330.97 16.5
-2 1 8 378.66 16.7
-2 1 8 363.06 19.8
1 -1 -8 762.72 25.9
1 -1 -8 807.72 28.1
1 -1 -8 775.02 27.3
-1 1 8 813.92 27.8
-1 1 8 790.72 25.9
0 -1 -8 174.08 12.8
0 -1 -8 163.98 10.7
0 -1 -8 164.08 11.8
0 1 8 161.38 12.4
0 1 8 175.28 11.8
-1 -1 -8 203.68 14.4
-1 -1 -8 192.08 11.1
-1 -1 -8 198.28 13.4
1 1 8 204.18 14
1 1 8 222.08 11.3
-2 -1 -8 132.19 8.6
-2 -1 -8 110.99 11.1
2 1 8 147.69 13
2 1 8 121.49 13.5
2 1 8 130.49 7.2
-3 -1 -8 394.46 22.9
-3 -1 -8 400.66 20.9
3 1 8 410.06 17.1
3 1 8 355.36 22.1
-4 -1 -8 208.58 16.1
4 1 8 210.38 18.3
4 1 8 209.88 12.6
-5 -1 -8 98.59 13.6
-5 -1 -8 117.29 16.5
-5 -1 -8 109.79 9.3
5 1 8 92.19 14.7
5 1 8 116.79 11.3
-6 -1 -8 195.48 13.3
-6 -1 -8 161.88 17.7
6 1 8 182.08 19.2
6 1 8 201.88 14.9
-7 -1 -8 147.49 13.9
-7 -1 -8 185.58 20.1
-7 -1 -8 161.38 19.5
7 1 8 145.99 18.2
5 -2 -8 8.9 9.2
-5 2 8 11.7 8.6
-5 2 8 -0.7 5
4 -2 -8 156.28 18.1
4 -2 -8 170.28 17.6
-4 2 8 234.38 18.8
-4 2 8 194.28 17.8
-4 2 8 200.98 13.4
3 -2 -8 1.4 6
3 -2 -8 -9.8 4.3
-3 2 8 -6.1 3.6
-3 2 8 -3.9 4.4
-3 2 8 -3 2.9
2 -2 -8 712.13 22.4
2 -2 -8 758.72 27
2 -2 -8 717.73 29.1
-2 2 8 747.93 26.1
-2 2 8 809.62 33
1 -2 -8 19.1 4.7
1 -2 -8 14.4 5.4
1 -2 -8 13.8 5.2
-1 2 8 14.5 5.5
-1 2 8 15.1 4.3
0 -2 -8 898.31 26.4
0 -2 -8 865.51 29.4
0 -2 -8 865.01 25.7
0 2 8 869.31 29
0 2 8 899.91 27.6
-1 -2 -8 33 5.5
-1 -2 -8 18.8 4.9
-1 -2 -8 29.1 6.3
1 2 8 42.3 8.1
1 2 8 24.4 7.3
1 2 8 23.1 5.1
-2 -2 -8 802.02 29
-2 -2 -8 744.93 17.1
-2 -2 -8 760.32 30.6
2 2 8 733.13 30.4
2 2 8 685.63 20.7
2 2 8 734.13 27.5
-3 -2 -8 67.09 10.2
-3 -2 -8 57.19 10.8
3 2 8 69.09 12.6
-4 -2 -8 435.46 22.6
4 2 8 401.56 24.5
4 2 8 452.65 20.5
-5 -2 -8 132.79 18
-5 -2 -8 107.29 12.9
5 2 8 111.59 14
5 2 8 95.49 13.6
5 2 8 109.49 11.4
-6 -2 -8 148.49 8.5
-6 -2 -8 140.29 16.6
-6 -2 -8 157.88 15.8
6 2 8 166.18 14.8
6 2 8 149.99 17.4
-7 -2 -8 65.59 14
-7 -2 -8 61.09 8.7
7 2 8 65.89 14.9
7 2 8 87.29 20.5
4 -3 -8 114.69 16.3
-4 3 8 137.39 16.5
-4 3 8 108.89 11.8
-4 3 8 121.59 16.7
3 -3 -8 52.49 12.8
-3 3 8 73.79 13.5
-3 3 8 54.19 9.8
2 -3 -8 523.55 18.3
2 -3 -8 548.95 25.1
2 -3 -8 567.74 18.1
-2 3 8 559.84 23
-2 3 8 537.15 25.5
-2 3 8 604.24 24.9
1 -3 -8 23.5 6.8
1 -3 -8 30.5 6.8
-1 3 8 21.1 6.1
-1 3 8 32.5 7.4
0 -3 -8 269.07 17.1
0 -3 -8 259.87 14.9
0 3 8 277.27 15.9
0 3 8 254.57 15.8
0 3 8 288.07 17.3
-1 -3 -8 120.59 12.2
-1 -3 -8 84.79 10.4
-1 -3 -8 109.99 11.2
1 3 8 101.69 10.9
1 3 8 102.69 11.7
1 3 8 103.99 10.1
-2 -3 -8 956.9 33.8
-2 -3 -8 970.7 32.6
-2 -3 -8 1001.5 35.9
2 3 8 968.5 34.8
2 3 8 926.61 32.1
2 3 8 983.4 26.1
-3 -3 -8 166.98 15.7
-3 -3 -8 145.69 14.1
-3 -3 -8 138.59 15
3 3 8 143.89 8.6
3 3 8 128.79 16.9
-4 -3 -8 313.97 19.7
-4 -3 -8 366.56 22.3
4 3 8 344.87 19.6
4 3 8 373.96 23.7
-5 -3 -8 50.79 12
-5 -3 -8 20.4 6.8
-5 -3 -8 28.9 8.1
5 3 8 18 6.7
5 3 8 23.8 6.9
5 3 8 24.7 6.9
-6 -3 -8 319.67 21.5
-6 -3 -8 311.17 23
6 3 8 365.16 25.4
6 3 8 387.96 23
-7 -3 -8 33.3 8.9
7 3 8 24.3 7.8
7 3 8 39.5 12.2
4 -4 -8 202.08 20.7
-4 4 8 268.77 21.2
-4 4 8 235.48 16.9
3 -4 -8 267.77 22.4
-3 4 8 275.17 19.1
-3 4 8 236.58 16.8
-3 4 8 235.68 19.9
2 -4 -8 95.49 7.1
2 -4 -8 90.89 13.2
2 -4 -8 105.69 14.6
-2 4 8 83.79 12.9
-2 4 8 96.49 11.6
-2 4 8 77.29 11.5
-2 4 8 98.89 11.1
1 -4 -8 384.56 21.4
1 -4 -8 360.86 20.2
1 -4 -8 375.56 16.1
-1 4 8 393.26 21.4
-1 4 8 376.66 19.9
-1 4 8 373.66 18.4
-1 4 8 389.06 20
0 -4 -8 539.55 21.4
0 -4 -8 522.75 25
0 -4 -8 538.35 22.5
0 4 8 509.65 22.5
0 4 8 543.45 23.7
0 4 8 541.95 23.2
-1 -4 -8 622.64 27.1
-1 -4 -8 684.73 25.8
-1 -4 -8 658.93 23.5
1 4 8 652.03 24.3
1 4 8 628.54 26.1
1 4 8 654.63 27.1
-2 -4 -8 41.4 9.1
-2 -4 -8 41.7 9.1
-2 -4 -8 48.3 7.6
2 4 8 26.2 7.3
2 4 8 37.1 7.9
-3 -4 -8 56.59 6.9
-3 -4 -8 53.79 10.6
-3 -4 -8 24.8 6.6
-3 -4 -8 45.3 9.7
3 4 8 46.8 7.4
3 4 8 34.3 8.5
-4 -4 -8 350.86 22.2
-4 -4 -8 328.67 20.4
-4 -4 -8 330.67 12
4 4 8 314.57 25.3
4 4 8 347.67 22.3
4 4 8 317.87 19.6
-5 -4 -8 28.3 7.8
-5 -4 -8 59.89 11.7
-5 -4 -8 18.4 8.6
5 4 8 32.9 9.8
5 4 8 29.6 8.3
5 4 8 25.6 7.7
-6 -4 -8 26.7 8.2
-6 -4 -8 24.5 8.1
6 4 8 29.8 8.5
6 4 8 22.2 9.1
-7 -4 -8 89.49 17.6
-7 -4 -8 45.2 9.9
7 4 8 51.99 10.6
7 4 8 86.79 17.4
3 -5 -8 140.99 14.4
3 -5 -8 139.89 18.3
-3 5 8 157.38 16.5
-3 5 8 135.09 9.7
-3 5 8 126.39 18.7
2 -5 -8 -0.8 6
-2 5 8 -7.9 6.1
-2 5 8 6.9 4.8
-2 5 8 -7.9 4.2
-2 5 8 -1.1 4.1
1 -5 -8 276.57 22.1
1 -5 -8 286.17 18.7
1 -5 -8 283.47 13.9
-1 5 8 294.07 15.9
-1 5 8 284.27 18.6
-1 5 8 275.57 15.8
-1 5 8 283.07 19.3
0 -5 -8 17.4 5.4
0 -5 -8 20.5 7.1
0 -5 -8 20.4 5.2
0 5 8 16.5 5.4
0 5 8 20.9 6.2
0 5 8 14.8 4.4
0 5 8 17.3 5.8
-1 -5 -8 354.16 18
-1 -5 -8 313.87 20.6
-1 -5 -8 329.57 18.8
1 5 8 347.57 20.3
1 5 8 324.57 18.4
1 5 8 323.17 18.2
-2 -5 -8 -4 3.6
-2 -5 -8 -2.4 3.4
-2 -5 -8 -1.6 6.9
2 5 8 3.5 4.2
2 5 8 8.1 6.3
-3 -5 -8 1035.7 29
-3 -5 -8 938.91 35.8
-3 -5 -8 980.4 35.7
3 5 8 995.6 29.8
3 5 8 930.11 35.5
-4 -5 -8 87.29 8.6
-4 -5 -8 95.69 13.3
-4 -5 -8 127.79 14.6
4 5 8 96.69 12.9
4 5 8 90.19 13
4 5 8 120.89 14
-5 -5 -8 412.66 14.9
-5 -5 -8 403.56 24.3
-5 -5 -8 428.56 25.2
-5 -5 -8 422.56 27.7
5 5 8 488.35 34
5 5 8 449.06 27.1
5 5 8 399.36 24.7
-6 -5 -8 95.69 7
-6 -5 -8 96.89 18.2
-6 -5 -8 103.39 14
6 5 8 97.99 15
6 5 8 104.89 16.4
2 -6 -8 56.19 13.7
-2 6 8 33.9 14.4
-2 6 8 44.9 9.3
1 -6 -8 440.86 18.4
1 -6 -8 398.66 26.7
-1 6 8 445.76 17.1
-1 6 8 452.75 21.2
-1 6 8 475.05 26.8
0 -6 -8 62.39 13.9
0 -6 -8 75.09 11.8
0 -6 -8 48.3 9.6
0 6 8 69.89 12.5
0 6 8 63.89 8.6
0 6 8 44.7 9.1
-1 -6 -8 384.76 20.9
-1 -6 -8 355.46 23.1
-1 -6 -8 387.26 20.5
1 6 8 389.46 13.2
1 6 8 368.16 18.9
1 6 8 367.56 23.7
1 6 8 401.26 22
-2 -6 -8 36.6 7.8
-2 -6 -8 48.9 10.3
-2 -6 -8 30.7 7.8
2 6 8 40.3 9.6
2 6 8 23.6 6.8
2 6 8 29.1 7.7
-3 -6 -8 78.29 12.7
-3 -6 -8 70.59 12
-3 -6 -8 66.89 9.6
3 6 8 68.09 10.9
3 6 8 79.69 12.5
3 6 8 43.2 11.1
-4 -6 -8 100.69 13.7
-4 -6 -8 114.29 11.3
-4 -6 -8 91.59 14.2
4 6 8 110.49 14.9
4 6 8 109.69 14.7
-5 -6 -8 345.07 16.4
-5 -6 -8 384.36 24.3
-5 -6 -8 373.46 24.9
5 6 8 361.36 24.7
5 6 8 395.46 25.8
-6 -6 -8 -4.6 11.7
-6 -6 -8 0.9 5.7
-6 -6 -8 6.2 4.4
6 6 8 -4.3 7.8
6 6 8 -1.1 7.3
1 -7 -8 115.49 11
1 -7 -8 92.09 16
-1 7 8 130.89 17.6
0 -7 -8 315.07 23.9
0 -7 -8 336.17 18.6
0 7 8 326.47 22.3
0 7 8 338.47 17.5
-1 -7 -8 281.57 20.2
-1 -7 -8 277.47 22.2
-1 -7 -8 273.87 18.9
1 7 8 290.27 12.8
1 7 8 274.07 15.9
1 7 8 267.97 20.4
-2 -7 -8 172.98 16.2
-2 -7 -8 117.79 14.7
-2 -7 -8 168.18 16.3
2 7 8 176.58 17.1
2 7 8 180.68 14.8
-3 -7 -8 259.57 21.7
-3 -7 -8 269.27 17.9
-3 -7 -8 277.47 21
3 7 8 278.37 19
3 7 8 283.87 20.1
-4 -7 -8 69.39 11.4
-4 -7 -8 62.29 12.8
-4 -7 -8 73.89 17.2
4 7 8 58.29 13.9
4 7 8 89.09 13.4
-5 -7 -8 30.2 9.4
-5 -7 -8 7.2 5.9
-5 -7 -8 27.2 6.8
5 7 8 35.9 10.1
5 7 8 22.4 9.9
2 5 -9 23.9 7.2
2 5 -9 11.4 8.9
-2 -5 9 27.6 8.2
-2 -5 9 17.9 5.1
1 5 -9 35.1 7.4
-1 -5 9 28.6 9.5
-1 -5 9 35.9 9.8
0 5 -9 40.6 8.8
0 -5 9 54.79 13.3
-1 5 -9 143.19 14.5
-1 5 -9 155.98 18.6
1 -5 9 146.39 19.8
3 4 -9 54.09 15.3
3 4 -9 64.99 7.9
2 4 -9 54.09 8.3
2 4 -9 33.3 9.5
-2 -4 9 65.79 10.4
-2 -4 9 51.39 10.1
1 4 -9 232.88 15.4
-1 -4 9 211.98 12.1
-1 -4 9 242.88 17.5
0 4 -9 91.29 11.8
0 -4 9 102.99 13.6
-1 4 -9 174.28 15.7
1 -4 9 168.38 13.5
1 -4 9 135.59 17
-2 4 -9 52.59 10.9
2 -4 9 92.59 15.8
2 -4 9 77.79 10
-3 4 -9 32.2 8.4
3 -4 9 38.1 9.5
3 -4 9 20.3 4.8
3 -4 9 29.1 10.2
4 3 -9 203.58 17.6
4 3 -9 217.38 23
4 3 -9 187.68 25.4
-4 -3 9 201.58 19.6
-4 -3 9 171.68 19.9
3 3 -9 18.2 8.5
3 3 -9 3 7.1
3 3 -9 18.8 4.3
-3 -3 9 0.6 6.4
2 3 -9 277.97 14.5
2 3 -9 261.47 20.6
2 3 -9 272.77 20.3
-2 -3 9 265.97 16.7
1 3 -9 16.7 7.2
1 3 -9 -5.1 4.3
1 3 -9 6.5 4.7
-1 -3 9 11.6 5
-1 -3 9 9.3 4.7
0 3 -9 414.06 29.4
0 3 -9 362.16 23.8
0 -3 9 385.76 21.2
-1 3 -9 12.5 5.4
-1 3 -9 8.7 5.3
1 -3 9 4.7 4.7
1 -3 9 5.3 5.1
-2 3 -9 482.15 24.3
2 -3 9 516.15 18.1
2 -3 9 481.05 28
-3 3 -9 13.4 5.9
3 -3 9 10.5 3.6
3 -3 9 6.5 6
3 -3 9 18 8.5
-4 3 -9 189.18 17.9
4 -3 9 150.68 19.9
4 -3 9 198.38 20.7
4 2 -9 118.39 17.6
4 2 -9 139.79 16.5
-4 -2 9 150.68 17.6
-4 -2 9 172.68 17.9
3 2 -9 110.89 8.9
3 2 -9 115.79 15.7
-3 -2 9 132.29 15.1
2 2 -9 369.46 22.9
2 2 -9 369.16 16.7
-2 -2 9 377.86 21.4
-2 -2 9 341.47 19.7
1 2 -9 14.5 4.9
1 2 -9 16.1 6.6
-1 -2 9 12.4 5.2
-1 -2 9 12.6 5.4
0 2 -9 203.08 22.3
0 2 -9 215.48 14.9
0 2 -9 206.48 19.1
0 -2 9 219.38 13.8
0 -2 9 203.78 11.5
0 -2 9 219.58 14.8
-1 2 -9 48 11.4
-1 2 -9 29.4 6.4
1 -2 9 25.7 6.4
1 -2 9 31.9 6.4
1 -2 9 19.4 5.2
-2 2 -9 239.28 17.5
-2 2 -9 186.08 17.8
2 -2 9 226.88 11.1
2 -2 9 228.18 18.4
2 -2 9 219.78 11.1
-3 2 -9 -7.8 4.5
3 -2 9 -1.6 5.3
3 -2 9 9.1 7.8
-4 2 -9 183.38 17.6
-4 2 -9 210.28 24.1
4 -2 9 185.28 20
4 -2 9 163.08 19.6
-5 2 -9 9 6.6
5 -2 9 5.6 7.8
5 1 -9 202.38 17.7
5 1 -9 184.08 19.2
5 1 -9 175.78 20.9
-5 -1 9 206.38 20.6
4 1 -9 19.5 8.7
4 1 -9 31.9 9.7
4 1 -9 19.7 6.5
-4 -1 9 37.2 11.1
-4 -1 9 23.6 7.5
3 1 -9 285.27 21.8
3 1 -9 264.27 13.6
3 1 -9 260.77 17.1
-3 -1 9 273.27 19.4
-3 -1 9 276.77 13.9
2 1 -9 255.47 17.4
2 1 -9 240.88 18.4
2 1 -9 267.97 14.3
-2 -1 9 256.47 17.9
-2 -1 9 257.27 17.7
-2 -1 9 230.28 13.9
1 1 -9 109.99 10.5
1 1 -9 111.19 13.1
1 1 -9 107.89 12.6
-1 -1 9 125.89 12.1
-1 -1 9 106.19 11.4
-1 -1 9 120.99 11
0 1 -9 386.76 18.8
0 1 -9 352.26 19.6
0 -1 9 359.16 17.2
-1 1 -9 466.05 26.9
1 -1 9 470.85 17.3
-2 1 -9 436.26 23.6
-2 1 -9 428.76 22
2 -1 9 395.96 24.9
2 -1 9 411.76 13.8
2 -1 9 429.76 13.6
-3 1 -9 18.9 6.2
3 -1 9 31.2 10.8
-4 1 -9 79.19 14.3
-4 1 -9 103.09 14.1
4 -1 9 104.29 15.4
-5 1 -9 166.58 24.4
5 -1 9 172.98 19.5
5 0 -9 71.29 15.1
-5 0 9 71.59 16
-5 0 9 60.19 7.9
4 0 -9 18 9.1
4 0 -9 35.8 8.1
4 0 -9 24.8 9.8
-4 0 9 28.2 5.8
-4 0 9 33.8 8.8
3 0 -9 218.88 19
3 0 -9 222.38 13.8
-3 0 9 236.68 18.1
-3 0 9 197.58 12.8
2 0 -9 3.2 4.9
2 0 -9 1.5 4.1
-2 0 9 4.1 6
-2 0 9 0.8 4
1 0 -9 497.05 23.9
1 0 -9 488.75 23.6
1 0 -9 504.05 21.1
-1 0 9 486.35 21.9
-1 0 9 474.25 20.9
0 0 -9 10 5.7
0 0 -9 13.2 4.9
0 0 -9 11.6 4.7
0 0 9 7.3 4.8
0 0 9 13.1 4.9
-1 0 -9 138.19 14.5
-1 0 -9 150.08 13.1
-1 0 -9 135.39 11.7
1 0 9 164.58 13.8
1 0 9 144.19 10.2
-2 0 -9 9.9 4.7
-2 0 -9 4.6 4.9
2 0 9 1.5 6.1
2 0 9 12.9 6.6
2 0 9 6.1 3
-3 0 -9 1088.99 40.3
-3 0 -9 1116.49 37.8
3 0 9 1069.39 26.5
3 0 9 1087.69 42.5
-4 0 -9 202.88 21.4
-4 0 -9 195.18 17.7
4 0 9 177.48 18.6
4 0 9 196.78 9.8
-5 0 -9 20.8 7.3
5 0 9 36.2 10.4
-6 0 -9 139.99 15
-6 0 -9 128.29 16.2
6 0 9 121.89 17.9
4 -1 -9 91.79 14.5
-4 1 9 57.19 10.2
-4 1 9 69.09 11.9
3 -1 -9 243.48 13.2
3 -1 -9 276.07 20.9
3 -1 -9 251.37 15.6
-3 1 9 243.08 18.6
-3 1 9 243.38 14.9
2 -1 -9 143.69 12.2
2 -1 -9 149.88 12.7
2 -1 -9 134.99 14.1
-2 1 9 134.59 12.1
-2 1 9 124.09 13.6
1 -1 -9 737.03 27
1 -1 -9 783.12 28.9
1 -1 -9 760.42 28.6
-1 1 9 758.52 27.9
-1 1 9 717.33 26.2
0 -1 -9 3.5 4.1
0 -1 -9 0.5 2.9
0 -1 -9 4 4.1
0 1 9 6.9 4.4
0 1 9 3.9 3.9
-1 -1 -9 328.37 15.5
-1 -1 -9 339.57 17.9
1 1 9 325.87 18.4
1 1 9 326.17 14.8
-2 -1 -9 27.1 5.1
-2 -1 -9 10.3 5.5
-2 -1 -9 22.6 6.1
2 1 9 31.2 5.4
2 1 9 14.8 6.4
2 1 9 31.4 8.7
-3 -1 -9 280.27 20.9
-3 -1 -9 265.67 13.6
-3 -1 -9 301.17 19
3 1 9 286.77 27
3 1 9 302.07 15.2
3 1 9 276.47 20.5
-4 -1 -9 95.49 12.9
4 1 9 97.39 14.3
4 1 9 103.39 10.3
4 1 9 88.79 12.9
-5 -1 -9 375.06 15.6
-5 -1 -9 369.46 27.4
-5 -1 -9 381.86 23.5
5 1 9 361.06 17.3
5 1 9 361.86 25.3
-6 -1 -9 8.3 7.5
-6 -1 -9 -5.3 4.7
6 1 9 1.7 7.9
6 1 9 2.5 5.2
4 -2 -9 126.39 20.6
4 -2 -9 149.69 18.9
-4 2 9 153.18 13.3
3 -2 -9 113.59 16.1
3 -2 -9 105.49 7.7
3 -2 -9 126.69 15
3 -2 -9 91.49 7.5
-3 2 9 106.89 13.9
-3 2 9 112.79 11.3
2 -2 -9 297.77 15.5
2 -2 -9 283.47 17.9
2 -2 -9 312.87 20.4
-2 2 9 277.57 16.6
-2 2 9 306.07 19.8
1 -2 -9 117.89 12.5
1 -2 -9 125.99 12.1
-1 2 9 128.89 11.9
-1 2 9 136.19 13.1
0 -2 -9 236.48 14.5
0 -2 -9 230.58 13.2
0 -2 -9 249.97 27.6
0 2 9 246.18 15.7
0 2 9 242.78 15
-1 -2 -9 650.03 21.2
-1 -2 -9 654.63 26.9
-1 -2 -9 674.23 25.7
1 2 9 727.43 23.1
1 2 9 672.43 29.9
1 2 9 656.53 26.5
-2 -2 -9 89.89 6.5
-2 -2 -9 103.39 12.7
-2 -2 -9 106.79 12.3
2 2 9 70.09 12.8
2 2 9 97.19 8.1
2 2 9 90.89 11.2
-3 -2 -9 183.48 17.1
-3 -2 -9 201.08 16.3
3 2 9 174.48 17.4
-4 -2 -9 77.39 11.6
4 2 9 62.59 10.1
4 2 9 65.49 13.1
4 2 9 66.09 11.7
-5 -2 -9 232.48 19
-5 -2 -9 228.68 21.8
5 2 9 184.48 19.8
5 2 9 216.78 15.8
-6 -2 -9 104.49 23.9
-6 -2 -9 110.39 20.7
6 2 9 105.29 20.1
6 2 9 67.19 11.8
4 -3 -9 90.99 16.9
-4 3 9 143.99 14.1
-4 3 9 115.79 16.8
3 -3 -9 24.1 8.9
-3 3 9 23.6 6.7
-3 3 9 36.3 13.5
-3 3 9 29.6 8.1
2 -3 -9 226.28 12.2
2 -3 -9 240.58 17.6
2 -3 -9 200.28 11.4
-2 3 9 222.58 16.1
-2 3 9 203.48 17.5
1 -3 -9 14.1 6
1 -3 -9 5.4 3.2
1 -3 -9 9.6 4.8
-1 3 9 5.5 4.4
-1 3 9 2.3 5
0 -3 -9 623.44 24.6
0 -3 -9 554.34 21.7
0 -3 -9 620.34 26.8
0 3 9 565.74 23.8
0 3 9 621.94 27.3
0 3 9 586.84 25.6
-1 -3 -9 6.1 4.6
-1 -3 -9 5.4 4.7
-1 -3 -9 -2.3 3.2
1 3 9 -0.8 6.4
1 3 9 -1 3.8
1 3 9 3.3 4.1
-2 -3 -9 512.35 24.7
-2 -3 -9 512.35 25.2
-2 -3 -9 540.55 25.4
2 3 9 523.35 18.7
2 3 9 571.54 26.1
2 3 9 503.35 26.7
-3 -3 -9 4.9 5.4
-3 -3 -9 3.7 5
-3 -3 -9 9.1 5.7
3 3 9 11.8 3.7
3 3 9 24 7.5
-4 -3 -9 310.27 21.9
-4 -3 -9 329.67 21.3
-4 -3 -9 334.97 25.1
4 3 9 340.77 21.6
4 3 9 302.67 19
4 3 9 316.87 23.2
-5 -3 -9 28.1 8.8
-5 -3 -9 31 8.6
-5 -3 -9 49.9 9.8
5 3 9 32.6 9
5 3 9 51.29 10.6
-6 -3 -9 184.08 19.1
-6 -3 -9 197.08 26.4
6 3 9 152.48 19.7
6 3 9 191.48 17.5
3 -4 -9 52.29 12.4
-3 4 9 77.29 12.2
-3 4 9 69.79 11.9
-3 4 9 58.59 13.6
2 -4 -9 124.69 16.9
2 -4 -9 113.99 10.7
2 -4 -9 118.99 9
-2 4 9 89.89 12.7
-2 4 9 140.39 15.4
-2 4 9 100.99 12.2
1 -4 -9 38.3 8.3
1 -4 -9 32.5 8.1
-1 4 9 47.2 10.4
-1 4 9 31.1 8.3
-1 4 9 63.59 10.3
0 -4 -9 533.75 23.2
0 -4 -9 516.45 21.6
0 -4 -9 505.85 25.3
0 4 9 489.35 26.2
0 4 9 477.15 23.7
0 4 9 501.25 24.8
-1 -4 -9 4.8 4.6
-1 -4 -9 6 4.8
-1 -4 -9 11.1 6.1
-1 -4 -9 3.8 4.4
1 4 9 8.4 4.6
1 4 9 4.6 5.7
1 4 9 4.1 5.2
-2 -4 -9 226.18 17.4
-2 -4 -9 218.18 17.4
-2 -4 -9 182.68 16.2
-2 -4 -9 223.08 13.3
2 4 9 216.38 13.3
2 4 9 219.28 17.9
2 4 9 196.98 15.9
-3 -4 -9 82.99 12.2
-3 -4 -9 90.19 8.1
-3 -4 -9 76.29 12.5
3 4 9 69.79 11.7
3 4 9 83.89 9.9
3 4 9 76.29 13.5
-4 -4 -9 620.64 29.6
-4 -4 -9 671.63 34.9
-4 -4 -9 661.73 31.4
4 4 9 631.74 32.2
4 4 9 567.54 30.8
4 4 9 678.73 29.9
-5 -4 -9 16.7 7.4
-5 -4 -9 27.9 7.6
-5 -4 -9 20.4 12.9
5 4 9 25.8 8.8
5 4 9 28.9 8.7
-6 -4 -9 123.09 17
-6 -4 -9 126.99 17.2
6 4 9 111.29 18.1
6 4 9 164.48 17.3
2 -5 -9 280.17 23.6
-2 5 9 292.67 16.8
-2 5 9 277.47 21.8
1 -5 -9 232.18 13.7
1 -5 -9 243.88 18.5
1 -5 -9 194.68 21.4
-1 5 9 203.48 15
-1 5 9 186.18 14.2
-1 5 9 219.18 18
0 -5 -9 84.39 13.1
0 -5 -9 98.79 11.8
0 5 9 124.19 12.6
0 5 9 105.59 13.7
0 5 9 123.29 13.8
-1 -5 -9 212.98 17.9
-1 -5 -9 237.58 16.1
-1 -5 -9 255.17 17.6
1 5 9 222.88 16.2
1 5 9 246.58 17.7
1 5 9 218.18 17.8
-2 -5 -9 362.96 21.4
-2 -5 -9 338.77 22.1
-2 -5 -9 384.86 18.4
2 5 9 370.16 19.4
2 5 9 306.57 21.3
2 5 9 366.66 21.4
-3 -5 -9 375.86 16.9
-3 -5 -9 359.16 23
-3 -5 -9 347.87 22.2
3 5 9 385.76 18.3
3 5 9 349.27 22.8
-4 -5 -9 50.89 7.7
-4 -5 -9 18 7.1
-4 -5 -9 33.6 8.8
-4 -5 -9 24.1 8.4
4 5 9 37.3 10.2
4 5 9 39.5 9.7
-5 -5 -9 9.6 3.5
-5 -5 -9 3.5 5.6
-5 -5 -9 8.9 7.9
5 5 9 12.6 8.2
5 5 9 15 7.9
-6 -5 -9 163.98 17.7
-6 -5 -9 160.58 18.9
6 5 9 121.29 18.4
6 5 9 171.38 17
1 -6 -9 100.79 10.8
1 -6 -9 115.39 16.3
-1 6 9 118.59 15.8
-1 6 9 141.19 14.3
-1 6 9 139.59 12.2
0 -6 -9 4.9 9
0 -6 -9 2.3 6.3
0 -6 -9 3.8 5.5
0 6 9 4.7 6
0 6 9 9.4 7.4
0 6 9 -1.6 5.3
-1 -6 -9 233.28 17.4
-1 -6 -9 184.58 15.9
-1 -6 -9 174.18 17.9
1 6 9 185.18 15.4
1 6 9 191.88 17.2
-2 -6 -9 32.1 7.6
-2 -6 -9 32.3 8.5
-2 -6 -9 25.1 8.4
2 6 9 36.8 8.6
2 6 9 62.79 11.5
-3 -6 -9 144.89 12.9
-3 -6 -9 132.19 15.7
-3 -6 -9 128.19 15.4
3 6 9 156.68 15.7
3 6 9 135.09 13.8
-4 -6 -9 -7.7 4.5
-4 -6 -9 -10.4 3.5
4 6 9 3.2 8.2
4 6 9 -2.1 8
-5 -6 -9 489.45 28.9
-5 -6 -9 478.05 28
-5 -6 -9 483.15 21.4
5 6 9 499.95 29.8
5 6 9 483.95 29.2
-1 -7 -9 340.37 21.1
-1 -7 -9 326.87 24.9
-1 -7 -9 309.57 26.3
1 7 9 359.16 22.6
1 7 9 346.27 18.2
-2 -7 -9 8.2 6.8
-2 -7 -9 10.9 7.1
-2 -7 -9 -1.2 5.5
2 7 9 7.3 8
2 7 9 7.3 7
-3 -7 -9 209.48 20.4
-3 -7 -9 252.97 17.7
-3 -7 -9 187.58 18.5
3 7 9 207.68 18.7
3 7 9 206.98 18.8
1 4 -10 380.86 19.9
1 4 -10 317.47 25.3
-1 -4 10 374.86 15.2
-1 -4 10 320.37 22.2
-1 -4 10 397.06 20.8
0 4 -10 25.5 8
0 -4 10 14.4 9.8
-1 4 -10 51.19 11.3
1 -4 10 57.09 11.9
3 3 -10 51.59 12.8
3 3 -10 46.5 8.4
3 3 -10 62.49 13.5
-3 -3 10 60.89 14.2
-3 -3 10 45.2 14.6
2 3 -10 226.78 20.4
2 3 -10 231.18 14.4
-2 -3 10 212.58 18.1
-2 -3 10 234.78 16.5
1 3 -10 86.39 12
1 3 -10 97.59 15.2
-1 -3 10 76.89 10.1
0 3 -10 44.9 10.6
0 3 -10 55.29 11.1
-1 3 -10 209.88 16.7
1 -3 10 220.48 15.5
1 -3 10 251.57 20
-2 3 -10 66.29 13.2
2 -3 10 59.09 8.7
2 -3 10 51.29 8.7
2 -3 10 45.2 9.6
-3 3 -10 120.79 14.8
3 -3 10 117.69 18.9
3 -3 10 129.99 19.6
3 2 -10 -6.9 7.6
3 2 -10 1.3 4.4
3 2 -10 -2.9 7.1
-3 -2 10 -5.8 7.2
-3 -2 10 -5 6.3
2 2 -10 248.28 20.6
2 2 -10 257.97 14.8
2 2 -10 228.28 18.7
-2 -2 10 172.48 15
-2 -2 10 269.57 19.5
1 2 -10 24.1 6.3
1 2 -10 52.19 11.7
1 2 -10 47.2 10.3
-1 -2 10 70.09 11.3
-1 -2 10 29.4 6.6
0 2 -10 236.68 16.3
0 2 -10 259.37 20.4
0 2 -10 259.67 19.2
0 -2 10 220.38 12.9
0 -2 10 251.97 16
-1 2 -10 -1 4.4
1 -2 10 3.2 5.2
1 -2 10 1.7 4.2
-2 2 -10 249.08 18.6
2 -2 10 279.37 12.1
2 -2 10 274.97 12.7
-3 2 -10 10.3 5.9
3 -2 10 6.2 9.5
-4 2 -10 314.27 22.8
4 -2 10 286.57 24.5
3 1 -10 8.9 4.6
3 1 -10 9.3 4.9
3 1 -10 8.8 8.1
-3 -1 10 7.4 7.6
-3 -1 10 -1.1 5.6
2 1 -10 175.78 17.7
1 1 -10 100.19 13.2
1 1 -10 83.79 11.2
-1 -1 10 81.09 13.3
-1 -1 10 92.49 12.5
0 1 -10 344.17 19.2
0 1 -10 364.86 20.3
0 1 -10 323.27 31.2
0 -1 10 307.77 17.3
0 -1 10 332.27 17.6
-1 1 -10 8.9 4.5
-1 1 -10 -8.6 5
-1 1 -10 10 5.9
1 -1 10 5.2 4
1 -1 10 5.7 4.3
-2 1 -10 168.38 16.7
-2 1 -10 215.28 19.8
-2 1 -10 207.88 17
2 -1 10 154.58 9.3
2 -1 10 172.48 11.2
2 -1 10 163.78 19.4
-3 1 -10 2.7 6
-3 1 -10 15.9 7.5
3 -1 10 7 8.9
3 0 -10 245.58 21.7
3 0 -10 219.08 15.6
3 0 -10 242.08 14.6
-3 0 10 248.88 21.3
-3 0 10 221.58 19.1
-3 0 10 228.58 15
2 0 -10 43.3 9.3
2 0 -10 56.79 12.4
2 0 -10 34 7.6
-2 0 10 29.8 7.6
-2 0 10 36.6 7
1 0 -10 267.87 19.9
1 0 -10 239.88 17.5
-1 0 10 227.38 15.7
0 0 -10 239.38 16.8
0 0 -10 280.27 17.5
0 0 10 307.97 18.5
0 0 10 276.87 15.9
-1 0 -10 78.29 9.9
-1 0 -10 49.2 10.5
-1 0 -10 49.5 10.3
1 0 10 62.09 9
1 0 10 67.29 11.8
-2 0 -10 297.37 19.4
-2 0 -10 296.87 20.2
-2 0 -10 285.97 15.9
2 0 10 265.97 11.1
2 0 10 315.87 23
2 0 10 283.47 19.4
-3 0 -10 279.77 19.7
3 0 10 289.47 24.1
-4 0 -10 280.17 24.2
-4 0 -10 256.57 20.2
4 0 10 304.07 24.9
-5 0 -10 7.1 6.9
5 0 10 0.3 9
3 -1 -10 67.89 11.4
3 -1 -10 48.4 8.1
3 -1 -10 48.9 10.7
-3 1 10 61.39 10.7
-3 1 10 32 8.7
2 -1 -10 67.49 12.5
2 -1 -10 89.49 10.7
2 -1 -10 93.49 18.5
-2 1 10 66.99 9.8
-2 1 10 46.7 10.1
1 -1 -10 233.58 17.5
1 -1 -10 248.58 17.6
1 -1 -10 251.57 16.6
-1 1 10 224.28 15.8
-1 1 10 264.87 17.7
0 -1 -10 29 6.6
0 -1 -10 23.8 6.4
0 -1 -10 22.3 4.7
0 1 10 19.4 5.7
0 1 10 20.8 6.7
-1 -1 -10 311.87 17.8
-1 -1 -10 335.47 20.1
-1 -1 -10 329.07 16.4
1 1 10 340.67 20.6
1 1 10 299.47 22.3
1 1 10 325.97 15.9
-2 -1 -10 0.6 3.8
-2 -1 -10 -4.3 4.1
-2 -1 -10 0.7 5.6
2 1 10 4.6 5.8
2 1 10 4.3 7.4
-3 -1 -10 74.29 12.1
-3 -1 -10 58.29 7.2
3 1 10 66.19 10
3 1 10 71.59 14.5
3 1 10 77.99 13
-4 -1 -10 -0.6 5.4
-4 -1 -10 7.4 7.2
4 1 10 -5.3 6.9
4 1 10 -0.8 4.5
-5 -1 -10 496.95 17
-5 -1 -10 477.25 27.3
5 1 10 549.45 20.5
5 1 10 516.45 32
3 -2 -10 387.56 25.5
3 -2 -10 401.36 28.8
3 -2 -10 369.66 14.8
3 -2 -10 403.86 15.2
-3 2 10 430.96 25.5
-3 2 10 353.16 19.5
2 -2 -10 50.39 9.7
2 -2 -10 106.89 13.9
2 -2 -10 56.79 11.5
-2 2 10 88.09 13.7
-2 2 10 62.89 11
1 -2 -10 270.77 17.8
1 -2 -10 253.17 17.8
1 -2 -10 252.17 17.9
-1 2 10 254.97 17.1
-1 2 10 277.07 18.2
0 -2 -10 112.09 13.2
0 -2 -10 86.79 9.6
0 -2 -10 98.89 10.9
0 2 10 92.39 11.3
0 2 10 79.99 12
-1 -2 -10 614.54 20.8
-1 -2 -10 574.04 25.2
-1 -2 -10 599.94 26.8
1 2 10 628.04 27.1
1 2 10 632.24 22.7
1 2 10 599.94 30.4
-2 -2 -10 6.9 6
-2 -2 -10 5.6 3.1
-2 -2 -10 12 6.6
2 2 10 1.1 3.9
2 2 10 0 3.8
2 2 10 -5.4 5.3
-3 -2 -10 255.97 18.6
3 2 10 212.88 20.3
3 2 10 224.68 19.1
-4 -2 -10 5.1 5.5
-4 -2 -10 -3.1 6.6
4 2 10 10.8 8.3
4 2 10 10.7 5.6
-5 -2 -10 151.78 17.5
5 2 10 169.98 13.9
5 2 10 188.38 23
3 -3 -10 4.2 9.2
-3 3 10 6.1 6.1
-3 3 10 15.5 8
2 -3 -10 155.68 15.8
2 -3 -10 168.68 12
2 -3 -10 131.99 10.9
-2 3 10 165.18 16.3
-2 3 10 167.78 15.5
1 -3 -10 142.69 12.8
1 -3 -10 133.49 14.2
-1 3 10 130.39 14.4
-1 3 10 115.99 13.4
-1 3 10 125.09 14.9
0 -3 -10 205.08 14.2
0 -3 -10 230.78 16.4
0 -3 -10 238.18 17.6
0 3 10 205.38 17.7
0 3 10 195.08 15.9
-1 -3 -10 91.69 12.8
-1 -3 -10 94.79 12.6
-1 -3 -10 122.09 14
1 3 10 105.39 14.6
1 3 10 104.79 13.8
1 3 10 109.69 12
-2 -3 -10 128.29 13.9
-2 -3 -10 116.39 14.8
-2 -3 -10 123.99 13.9
2 3 10 118.39 13.7
2 3 10 140.69 11.3
2 3 10 108.39 14.9
-3 -3 -10 461.85 25.3
-3 -3 -10 464.95 25.6
3 3 10 426.56 27.2
3 3 10 357.76 16.5
-4 -3 -10 24.1 7.9
-4 -3 -10 17.9 8.2
-4 -3 -10 73.09 14.1
4 3 10 22.5 7.4
4 3 10 36.3 9.6
-5 -3 -10 127.79 16
-5 -3 -10 81.59 16.8
5 3 10 136.49 20.9
5 3 10 143.19 15.2
2 -4 -10 121.09 17.7
2 -4 -10 137.29 9.6
2 -4 -10 113.39 9.9
-2 4 10 158.78 18.1
-2 4 10 128.89 14.9
1 -4 -10 47.5 8.7
1 -4 -10 51.89 11.9
1 -4 -10 21.6 5
-1 4 10 28.2 8.4
-1 4 10 23.5 8.4
0 -4 -10 165.38 16.5
0 -4 -10 154.38 18.5
0 -4 -10 195.38 15.2
0 4 10 206.58 23.7
0 4 10 180.08 17.2
0 4 10 181.68 15.8
-1 -4 -10 12.5 6.4
-1 -4 -10 11.3 6.5
-1 -4 -10 13.9 6.3
1 4 10 18.4 6.8
1 4 10 14.4 5.8
-2 -4 -10 348.17 22.4
-2 -4 -10 382.66 22.9
2 4 10 365.46 17.5
2 4 10 329.67 22.8
-3 -4 -10 -1.1 3.9
-3 -4 -10 -4.7 5.2
-3 -4 -10 -3.9 4.9
3 4 10 2.8 4.4
3 4 10 -0.9 7
-4 -4 -10 273.07 21.4
-4 -4 -10 262.47 23.8
-4 -4 -10 253.87 20.7
4 4 10 263.37 19.8
4 4 10 295.97 24.2
-5 -4 -10 2.6 6.5
-5 -4 -10 -5.8 6.5
5 4 10 20.2 7.3
5 4 10 1.7 7.4
1 -5 -10 26.1 11.8
1 -5 -10 34.7 6.9
-1 5 10 35.8 9.5
-1 5 10 34.6 8.9
0 -5 -10 93.89 14.5
0 -5 -10 92.29 12.2
0 5 10 107.39 13.9
0 5 10 108.49 15
-1 -5 -10 18.4 7
-1 -5 -10 2.2 5.3
-1 -5 -10 13.6 5.6
1 5 10 15.5 6.3
1 5 10 9.9 7.3
-2 -5 -10 351.06 22.5
-2 -5 -10 347.37 23.8
-2 -5 -10 365.56 18.5
2 5 10 356.86 19.4
2 5 10 320.07 23
-3 -5 -10 10.4 5
-3 -5 -10 -3.2 5.5
-3 -5 -10 -4.9 9.4
-3 -5 -10 2.4 6.8
3 5 10 14.2 8.1
3 5 10 8.4 5.2
-4 -5 -10 86.39 14.8
-4 -5 -10 105.89 15.5
4 5 10 124.39 17.4
4 5 10 113.29 16.5
-1 -6 -10 146.29 15.5
-1 -6 -10 149.19 17.2
-1 -6 -10 145.39 16
1 6 10 123.79 15.4
1 6 10 174.38 15.8
-2 -6 -10 94.29 16
-2 -6 -10 52.69 12.8
2 6 10 85.79 14.8
2 6 10 96.29 14.2
-3 -6 -10 77.49 15.2
-3 -6 -10 89.59 12.3
-3 -6 -10 85.99 14.5
3 6 10 88.49 12.8
3 6 10 94.89 15.9
1 2 -11 64.59 11.8
1 2 -11 43 10
-1 -2 11 60.49 11.4
-1 -2 11 67.39 12.9
0 2 -11 190.38 16.7
0 2 -11 139.09 17.2
0 -2 11 140.49 11
-1 2 -11 74.29 12.6
-1 2 -11 63.49 13
1 -2 11 56.49 11
1 -2 11 89.49 10.8
-2 2 -11 10.3 7.8
2 -2 11 35.1 8
2 -2 11 1.3 3.8
2 -2 11 39.9 12.5
2 1 -11 41.4 10
2 1 -11 26.2 7.2
2 1 -11 59.29 11.7
-2 -1 11 27.9 9.3
-2 -1 11 26.4 8.9
1 1 -11 10.2 5.1
1 1 -11 -0.8 7.1
1 1 -11 0.1 7.1
-1 -1 11 8.1 6
-1 -1 11 -2.7 6
0 1 -11 245.38 17.7
0 1 -11 244.78 18.7
0 -1 11 232.58 16.1
0 -1 11 262.37 16
-1 1 -11 47.3 9.6
-1 1 -11 51.69 11.7
1 -1 11 50.59 8.7
1 -1 11 72.09 9.5
-2 1 -11 114.09 16.6
-2 1 -11 133.19 15.2
2 -1 11 140.59 9.4
2 -1 11 143.79 18.7
-3 1 -11 6.5 6.3
-3 1 -11 -1.1 7.3
3 -1 11 5.6 9.5
2 0 -11 132.49 17.3
2 0 -11 166.68 14.7
-2 0 11 191.78 15.5
-2 0 11 182.98 17.4
1 0 -11 7.6 7.2
1 0 -11 9.9 5.6
-1 0 11 12.6 6.7
-1 0 11 11.7 6.3
0 0 -11 225.08 19.2
0 0 -11 213.28 17.7
0 0 -11 197.88 16.7
0 0 11 207.18 17.1
0 0 11 203.88 15.4
-1 0 -11 28 7.2
-1 0 -11 59.29 11.4
-1 0 -11 31.4 9.7
1 0 11 50.39 10.5
1 0 11 36.6 8.5
-2 0 -11 219.78 14.8
-2 0 -11 261.57 19
2 0 11 188.38 20.3
-3 0 -11 3.3 7.6
-3 0 -11 -0.1 5.3
-3 0 -11 2.3 7.1
3 0 11 -2.8 8.7
-4 0 -11 134.19 16.1
4 0 11 92.79 18.7
2 -1 -11 214.38 16.7
2 -1 -11 207.68 17
2 -1 -11 214.88 18.8
-2 1 11 183.68 22.6
-2 1 11 209.58 18.3
1 -1 -11 217.68 17.4
1 -1 -11 197.68 17
-1 1 11 184.18 15.8
-1 1 11 244.88 18.3
0 -1 -11 36.4 8.5
0 -1 -11 23.8 7.3
0 1 11 20.7 7.5
0 1 11 47.8 10.2
-1 -1 -11 180.38 13.1
-1 -1 -11 149.39 14.9
-1 -1 -11 181.78 16.4
1 1 11 141.99 15.6
1 1 11 149.69 17.8
1 1 11 181.48 12.9
-2 -1 -11 211.58 17.8
-2 -1 -11 228.78 18.9
-2 -1 -11 226.28 13.5
2 1 11 223.08 11
2 1 11 186.98 20.5
-3 -1 -11 18.9 8.9
-3 -1 -11 20.3 8
-3 -1 -11 30.1 7.3
3 1 11 19.7 15.2
3 1 11 31.7 7.4
-4 -1 -11 160.98 11.4
-4 -1 -11 164.08 17
4 1 11 191.38 21.9
4 1 11 158.28 12.6
2 -2 -11 -12.6 5.3
2 -2 -11 -3.1 5.4
2 -2 -11 -6.5 6
2 -2 -11 2 6.4
-2 2 11 -5.3 6.3
-2 2 11 2.7 5.6
1 -2 -11 40.3 9
1 -2 -11 67.49 12.1
1 -2 -11 31.5 7.4
-1 2 11 56.69 12.8
-1 2 11 77.99 12.2
0 -2 -11 77.69 12.9
0 -2 -11 75.99 9.6
0 -2 -11 77.79 11.4
0 2 11 63.49 14.6
0 2 11 94.19 13.3
0 2 11 89.29 12.2
-1 -2 -11 167.28 14.8
-1 -2 -11 191.98 12.5
-1 -2 -11 144.79 14.7
1 2 11 193.48 19.3
1 2 11 191.78 13.8
-2 -2 -11 43.3 6.7
-2 -2 -11 38.8 8.1
-2 -2 -11 33.6 7.6
2 2 11 31.3 10.6
2 2 11 31.9 6.1
-3 -2 -11 146.99 17.4
-3 -2 -11 129.49 18.4
3 2 11 128.79 18.4
-4 -2 -11 -1.2 5.4
-4 -2 -11 -1.5 7.2
4 2 11 14.1 9.5
1 -3 -11 368.96 22.4
1 -3 -11 375.16 21.8
1 -3 -11 367.56 19.7
-1 3 11 327.67 23.1
-1 3 11 377.06 23.2
0 -3 -11 30.4 8.2
0 -3 -11 34.7 8
0 -3 -11 36.3 9.2
0 3 11 35.3 8.5
0 3 11 37.4 10.5
-1 -3 -11 163.48 15.5
-1 -3 -11 166.38 16.9
-1 -3 -11 188.88 17.3
1 3 11 182.38 14.8
1 3 11 177.18 19.3
-2 -3 -11 60.19 13.2
-2 -3 -11 23.2 7.2
-2 -3 -11 17.3 6.7
2 3 11 31.5 10.2
2 3 11 53.39 8.5
-3 -3 -11 385.16 25.4
-3 -3 -11 418.76 38.3
-3 -3 -11 375.66 28.7
3 3 11 318.07 14.5
3 3 11 390.96 28.3
-4 -3 -11 7.4 7.3
-4 -3 -11 7.2 6
4 3 11 14.6 7.7
4 3 11 9.9 8.6
0 -4 -11 78.49 13.4
0 -4 -11 56.39 11.3
0 -4 -11 94.79 17.5
0 4 11 109.59 16.4
0 4 11 32.4 9.8
-1 -4 -11 151.68 27
-1 -4 -11 110.79 15.7
-1 -4 -11 118.29 15.5
1 4 11 116.39 16
1 4 11 98.49 13.5
-2 -4 -11 124.29 15.8
-2 -4 -11 121.99 16.9
2 4 11 99.29 18
2 4 11 107.69 12.4
-3 -4 -11 98.19 16.7
-3 -4 -11 77.79 14.2
-3 -4 -11 49 10.2
3 4 11 62.09 9.8
3 4 11 68.59 15.2
1 1 12 17.6 9.7
loop_
_geom_angle_atom_site_label_1
_geom_angle_atom_site_label_2
_geom_angle_atom_site_label_3
_geom_angle
_geom_angle_site_symmetry_1
_geom_angle_site_symmetry_3
_geom_angle_publ_flag
C8 N1 C4 116.9(2) . . ?
C2 C1 Br1 120.9(2) . . ?
C3 C1 Br1 121.4(2) 2_756 . ?
C3 C1 C2 117.7(2) 2_756 . ?
C1 C2 F1 120.2(2) . . ?
C3 C2 F1 118.9(2) . . ?
C3 C2 C1 121.0(3) . . ?
C1 C3 F2 119.7(2) 2_756 . ?
C2 C3 F2 118.9(2) . . ?
C2 C3 C1 121.4(2) . 2_756 ?
H4 C4 N1 117.83(16) . . ?
C5 C4 N1 124.3(3) . . ?
C5 C4 H4 117.83(17) . . ?
H5 C5 C4 120.43(17) . . ?
C6 C5 C4 119.1(3) . . ?
C6 C5 H5 120.43(16) . . ?
C7 C6 C5 117.2(3) . . ?
C9 C6 C5 121.9(3) . . ?
C9 C6 C7 120.9(3) . . ?
H7 C7 C6 120.00(16) . . ?
C8 C7 C6 120.0(3) . . ?
C8 C7 H7 120.00(16) . . ?
C7 C8 N1 122.4(2) . . ?
C8 C8 N1 117.1(3) 2_676 . ?
C8 C8 C7 120.6(3) 2_676 . ?
H9a C9 C6 109.5 . . ?
H9b C9 C6 109.5 . . ?
H9b C9 H9a 109.5 . . ?
H9c C9 C6 109.5 . . ?
H9c C9 H9a 109.5 . . ?
H9c C9 H9b 109.5 . . ?
loop_
_geom_bond_atom_site_label_1
_geom_bond_atom_site_label_2
_geom_bond_distance
_geom_bond_site_symmetry_2
_geom_bond_publ_flag
Br1 C1 1.874(3) . ?
F1 C2 1.343(3) . ?
F2 C3 1.346(3) . ?
N1 C4 1.338(4) . ?
N1 C8 1.347(4) . ?
C1 C2 1.383(4) . ?
C1 C3 1.391(4) 2_756 ?
C2 C3 1.373(4) . ?
C4 H4 0.9500 . ?
C4 C5 1.384(4) . ?
C5 H5 0.9500 . ?
C5 C6 1.394(4) . ?
C6 C7 1.389(4) . ?
C6 C9 1.506(4) . ?
C7 H7 0.9500 . ?
C7 C8 1.403(4) . ?
C8 C8 1.493(5) 2_676 ?
C9 H9a 0.9800 . ?
C9 H9b 0.9800 . ?
C9 H9c 0.9800 . ?
loop_
_geom_torsion_atom_site_label_1
_geom_torsion_atom_site_label_2
_geom_torsion_atom_site_label_3
_geom_torsion_atom_site_label_4
_geom_torsion
_geom_torsion_site_symmetry_1
_geom_torsion_site_symmetry_2
_geom_torsion_site_symmetry_3
_geom_torsion_site_symmetry_4
_geom_torsion_publ_flag
Br1 C1 C2 F1 0.6(2) . . . . ?
Br1 C1 C2 C3 -179.3(2) . . . . ?
Br1 C1 C3 F2 -0.9(2) . . 2_756 2_756 ?
Br1 C1 C3 C2 179.3(2) . . 2_756 2_756 ?
F1 C2 C1 C3 179.9(2) . . . 2_756 ?
F1 C2 C3 F2 -0.2(3) . . . . ?
F1 C2 C3 C1 -179.9(2) . . . 2_756 ?
F2 C3 C1 C2 -179.8(2) . . 2_756 2_756 ?
F2 C3 C2 C1 179.8(2) . . . . ?
N1 C4 C5 C6 0.3(4) . . . . ?
N1 C8 C7 C6 -1.3(3) . . . . ?
N1 C8 C8 N1 180.0(3) . . 2_676 2_676 ?
N1 C8 C8 C7 0.3(3) . . 2_676 2_676 ?
C1 C2 C3 C1 0.0(3) . . . 2_756 ?
C1 C3 C2 C1 0.0(3) 2_756 . . . ?
C4 C5 C6 C7 -0.2(3) . . . . ?
C4 C5 C6 C9 179.9(3) . . . . ?
C5 C6 C7 C8 0.7(3) . . . . ?
C6 C7 C8 C8 179.0(3) . . . 2_676 ?
C7 C8 C8 C7 -180.0(4) . . 2_676 2_676 ?
