#------------------------------------------------------------------------------
#$Date: 2021-09-06 13:27:43 +0300 (Mon, 06 Sep 2021) $
#$Revision: 268665 $
#$URL: file:///home/coder/svn-repositories/cod/cif/7/24/31/7243187.cif $
#------------------------------------------------------------------------------
#
# This file is available in the Crystallography Open Database (COD),
# http://www.crystallography.net/
#
# All data on this site have been placed in the public domain by the
# contributors.
#
data_7243187
loop_
_publ_author_name
'Breton, Logan S.'
'Smith, Mark D.'
'zur Loye, Hans-Conrad'
_publ_section_title
;
 Trends in rare earth thiophosphate syntheses: Rb3Ln(PS4)2 (Ln = La, Ce,
 Pr), Rb3&#x2212;xNaxLn(PS4)2 (Ln = Ce, Pr; x = 0.50, 0.55), and RbEuPS4
 obtained by molten flux crystal growth
;
_journal_issue                   30
_journal_name_full               CrystEngComm
_journal_page_first              5241
_journal_page_last               5248
_journal_paper_doi               10.1039/D1CE00703C
_journal_volume                  23
_journal_year                    2021
_chemical_formula_moiety         'P2 Pr Rb3 S8'
_chemical_formula_sum            'P2 Pr Rb3 S8'
_chemical_formula_weight         715.74
_chemical_name_systematic        'Rubidium Praseodymium Thiophosphate'
_chemical_properties_physical    Air-sensitive,Moisture-sensitive
_space_group_crystal_system      monoclinic
_space_group_IT_number           4
_space_group_name_Hall           'P 2yb'
_space_group_name_H-M_alt        'P 1 21 1'
_atom_sites_solution_primary     dual
_atom_sites_solution_secondary   difmap
_audit_creation_method           SHELXL-2018/3
_audit_update_record
;
2021-05-19 deposited with the CCDC.	2021-07-05 downloaded from the CCDC.
;
_cell_angle_alpha                90
_cell_angle_beta                 90.2997(12)
_cell_angle_gamma                90
_cell_formula_units_Z            2
_cell_length_a                   9.8265(3)
_cell_length_b                   6.7613(2)
_cell_length_c                   11.4228(4)
_cell_measurement_reflns_used    9990
_cell_measurement_temperature    301(2)
_cell_measurement_theta_max      29.111
_cell_measurement_theta_min      2.727
_cell_volume                     758.92(4)
_computing_cell_refinement       'SAINT+ Ver. 8.40B (Bruker, 2019)'
_computing_data_collection       'Bruker APEX3 v2019.11-0 (Bruker, 2019)'
_computing_data_reduction        'SAINT+ Ver. 8.40B (Bruker, 2019)'
_computing_molecular_graphics    'OLEX2 (Dolomanov et al., 2009)'
_computing_publication_material  'OLEX2 (Dolomanov et al., 2009)'
_computing_structure_refinement  'SHELXL-2018/3 (Sheldrick, 2018)'
_computing_structure_solution    'XT (Sheldrick, 2015)'
_diffrn_ambient_temperature      301(2)
_diffrn_detector_area_resol_mean 7.39
_diffrn_measured_fraction_theta_full 0.999
_diffrn_measured_fraction_theta_max 0.995
_diffrn_measurement_device_type  'Bruker D8 QUEST'
_diffrn_measurement_method       '\w and \f scans'
_diffrn_radiation_type           MoK\a
_diffrn_radiation_wavelength     0.71073
_diffrn_reflns_av_R_equivalents  0.0412
_diffrn_reflns_av_unetI/netI     0.0285
_diffrn_reflns_Laue_measured_fraction_full 0.999
_diffrn_reflns_Laue_measured_fraction_max 0.995
_diffrn_reflns_limit_h_max       13
_diffrn_reflns_limit_h_min       -12
_diffrn_reflns_limit_k_max       9
_diffrn_reflns_limit_k_min       -9
_diffrn_reflns_limit_l_max       15
_diffrn_reflns_limit_l_min       -15
_diffrn_reflns_number            27258
_diffrn_reflns_point_group_measured_fraction_full 0.999
_diffrn_reflns_point_group_measured_fraction_max 0.995
_diffrn_reflns_theta_full        25.242
_diffrn_reflns_theta_max         29.142
_diffrn_reflns_theta_min         2.073
_diffrn_source                   'microfocus sealed X-ray tube'
_exptl_absorpt_coefficient_mu    14.040
_exptl_absorpt_correction_T_max  0.0975
_exptl_absorpt_correction_T_min  0.0605
_exptl_absorpt_correction_type   multi-scan
_exptl_absorpt_process_details
; 
Krause, L., Herbst-Irmer, R., Sheldrick G.M. & Stalke D., 
 J. Appl. Cryst. 48 (2015) 3-10. 
;
_exptl_crystal_colour            colorless
_exptl_crystal_density_diffrn    3.132
_exptl_crystal_description       plate
_exptl_crystal_F_000             656
_exptl_crystal_preparation       Luminescent
_exptl_crystal_size_max          0.040
_exptl_crystal_size_mid          0.030
_exptl_crystal_size_min          0.020
_refine_diff_density_max         0.837
_refine_diff_density_min         -0.858
_refine_diff_density_rms         0.136
_refine_ls_abs_structure_details
; 
 Twinning involves inversion, so Flack parameter cannot be determined 
;
_refine_ls_extinction_method     none
_refine_ls_goodness_of_fit_ref   1.181
_refine_ls_hydrogen_treatment    undef
_refine_ls_matrix_type           full
_refine_ls_number_parameters     134
_refine_ls_number_reflns         4082
_refine_ls_number_restraints     1
_refine_ls_restrained_S_all      1.181
_refine_ls_R_factor_all          0.0373
_refine_ls_R_factor_gt           0.0329
_refine_ls_shift/su_max          0.000
_refine_ls_shift/su_mean         0.000
_refine_ls_structure_factor_coef Fsqd
_refine_ls_weighting_details
'w=1/[\s^2^(Fo^2^)+(0.0061P)^2^+2.2855P] where P=(Fo^2^+2Fc^2^)/3'
_refine_ls_weighting_scheme      calc
_refine_ls_wR_factor_gt          0.0527
_refine_ls_wR_factor_ref         0.0541
_reflns_Friedel_coverage         0.850
_reflns_Friedel_fraction_full    0.999
_reflns_Friedel_fraction_max     0.995
_reflns_number_gt                3817
_reflns_number_total             4082
_reflns_threshold_expression     'I > 2\s(I)'
_cod_data_source_file            d1ce00703c2.cif
_cod_data_source_block           lb183b_pr_p21
_cod_depositor_comments
'Adding full bibliography for 7243182--7243187.cif.'
_cod_original_sg_symbol_H-M      'P 21'
_cod_database_code               7243187
_shelx_shelxl_version_number     2018/3
_shelx_space_group_comment
; 
The symmetry employed for this shelxl refinement is uniquely defined 
by the following loop, which should always be used as a source of 
symmetry information in preference to the above space-group names. 
They are only intended as comments. 
;
_shelx_estimated_absorpt_t_min   0.604
_shelx_estimated_absorpt_t_max   0.767
_shelx_res_file
; 
TITL lb183b_pr in P2(1) 
    lb183b_pr_p21.res 
    created by SHELXL-2018/3 at 18:21:07 on 05-Mar-2021 
CELL 0.71073   9.82650   6.76130  11.42280  90.0000  90.2997  90.0000 
ZERR    2.00   0.00030   0.00020   0.00040   0.0000   0.0012   0.0000 
LATT -1 
SYMM -X, 0.5+Y, -Z 
SFAC P S RB PR 
UNIT 4 16 6 2 
LIST 4 
TEMP 28(2) 
SIZE 0.02 0.03 0.04 
REM colorless plate 
REM 9990 refl / 2th = 5.454 - 58.222 
REM sadabs Estimated minimum and maximum transmission:  0.0605  0.0975 
L.S. 9 
BOND 
ACTA 
FMAP 2 
TWIN 1 0 0 0 -1 0 0 0 -1 -4 
PLAN 9 
WGHT    0.006100    2.285500 
BASF   0.10174   0.38244   0.11958 
FVAR       0.09980   0.67265 
PR1   4    0.613025    0.738881    0.349853    11.00000    0.02025    0.03756 = 
         0.02103   -0.00180    0.00113   -0.00033 
  
RB2   3    0.099941    0.229326    0.152244    11.00000    0.03190    0.02754 = 
         0.02863    0.00101    0.00120   -0.00549 
RB3   3    0.661852    0.237652    0.064276    11.00000    0.04892    0.03040 = 
         0.05388    0.00033    0.01562   -0.01099 
RB4   3    0.861153    0.240280    0.586384    11.00000    0.04203    0.03695 = 
         0.05879   -0.00752   -0.02021    0.00160 
S1    2    0.411215   -0.015259    0.229787    11.00000    0.04626    0.03559 = 
         0.03280   -0.00174   -0.00059    0.01655 
S2    2    0.236124    0.237791    0.432114    11.00000    0.02085    0.03555 = 
         0.02480   -0.00270    0.00093    0.00053 
S3    2    0.419714    0.473615    0.236379    11.00000    0.06848    0.02289 = 
         0.02891    0.00110    0.00315   -0.02117 
EADP S4A S4B 
S4A   2    0.567665    0.170671    0.449782    21.00000    0.02096    0.02846 = 
         0.02687   -0.01279   -0.00303    0.00768 
S4B   2    0.566348    0.295323    0.452449   -21.00000    0.02096    0.02846 = 
         0.02687   -0.01279   -0.00303    0.00768 
  
S5    2    0.704094    0.734074    0.085302    11.00000    0.02710    0.03431 = 
         0.03085   -0.01036   -0.00157   -0.00469 
S6    2    0.848836    0.494054    0.295015    11.00000    0.03139    0.02886 = 
         0.02578   -0.00194    0.00299    0.00331 
S7    2    0.853041    0.980665    0.294121    11.00000    0.03565    0.01512 = 
         0.04241   -0.01287    0.01186   -0.00370 
S8    2    1.054859    0.736176    0.109906    11.00000    0.02380    0.03432 = 
         0.03372   -0.01010    0.00785   -0.00259 
P1    1    0.408905    0.228896    0.335497    11.00000    0.02098    0.03220 = 
         0.02151    0.00185    0.00055   -0.00066 
P2    1    0.873556    0.734512    0.189064    11.00000    0.02293    0.01996 = 
         0.02537   -0.00824    0.00539    0.00162 
HKLF 4 
  
  
  
  
REM  lb183b_pr in P2(1) 
REM wR2 = 0.0541, GooF = S = 1.181, Restrained GooF = 1.181 for all data 
REM R1 = 0.0329 for 3817 Fo > 4sig(Fo) and 0.0373 for all 4082 data 
REM 134 parameters refined using 1 restraints 
  
END 
  
WGHT      0.0061      2.2856 
  
REM Highest difference peak  0.837,  deepest hole -0.858,  1-sigma level  0.136 
Q1    1   0.5185  0.7358  0.3485  11.00000  0.05    0.73 
Q2    1   0.1461  0.2397  0.4442  11.00000  0.05    0.72 
Q3    1   0.7067  0.7404  0.3606  11.00000  0.05    0.67 
Q4    1   0.1988  0.2387  0.2349  11.00000  0.05    0.67 
Q5    1   0.0040  0.2325  0.1205  11.00000  0.05    0.64 
Q6    1   0.7882  0.7357  0.1269  11.00000  0.05    0.61 
Q7    1   0.6353  0.2343  0.1269  11.00000  0.05    0.59 
Q8    1   0.9071  0.2369  0.5386  11.00000  0.05    0.58 
Q9    1   0.3237  0.2339  0.3672  11.00000  0.05    0.58 
;
_shelx_res_checksum              28494
_shelx_hkl_file
; 
   1   0   0   21.47    0.63 
   1   0   0   18.09    0.57 
   1   0   0   19.57    0.64 
   1   0   0   19.58    0.60 
   2   0   0    0.30    0.21 
  -2   0   0    0.34    0.20 
   2   0   0    0.49    0.32 
   2   0   0    0.56    0.19 
   2   0   0    0.45    0.11 
   2   0   0    0.32    0.24 
  -2   0   0    0.65    0.27 
  -2   0   0    0.52    0.13 
   3   0   0    0.08    0.36 
   3   0   0   -0.32    0.24 
   3   0   0   -0.04    0.24 
  -3   0   0    0.06    0.23 
   3   0   0    0.71    0.35 
   3   0   0   -0.04    0.18 
  -3   0   0    0.12    0.13 
  -3   0   0   -0.06    0.26 
   4   0   0  637.17   14.29 
   4   0   0  659.07   14.31 
   4   0   0  626.67   14.31 
   4   0   0  659.75   14.38 
   4   0   0  649.50   14.12 
   4   0   0  662.41   14.25 
   5   0   0    6.84    0.71 
   5   0   0    5.73    0.70 
   5   0   0    5.76    0.64 
   5   0   0    6.62    0.65 
   5   0   0    7.11    0.90 
   5   0   0    5.15    0.55 
   6   0   0   32.31    1.36 
   6   0   0   33.12    1.46 
   6   0   0   28.69    1.42 
   6   0   0   27.52    1.49 
   6   0   0   32.63    1.55 
   6   0   0   32.24    1.49 
   6   0   0   34.91    1.36 
   7   0   0   24.03    1.45 
   7   0   0   24.89    1.23 
   7   0   0   22.83    1.34 
   7   0   0   23.50    1.33 
   7   0   0   22.57    1.41 
   7   0   0   22.52    1.39 
   7   0   0   25.09    1.26 
   8   0   0   32.25    1.66 
   8   0   0   31.34    1.74 
   8   0   0   29.90    1.56 
   8   0   0   29.81    1.47 
   8   0   0   30.17    1.69 
   8   0   0   29.91    1.71 
   8   0   0   30.40    1.64 
   8   0   0   31.02    1.46 
   9   0   0    4.72    0.87 
   9   0   0    4.88    0.95 
   9   0   0    4.25    0.94 
   9   0   0    3.86    0.72 
   9   0   0    5.10    0.92 
   9   0   0    4.16    0.85 
   9   0   0    4.73    0.79 
   9   0   0    3.51    0.87 
  10   0   0    2.33    0.75 
  10   0   0    2.28    0.79 
  10   0   0    3.09    0.88 
  10   0   0    1.55    0.66 
  10   0   0    2.39    0.82 
  10   0   0    2.01    0.86 
  10   0   0    2.57    0.75 
  10   0   0    2.62    0.68 
  11   0   0   15.67    1.26 
  11   0   0   18.84    1.30 
  11   0   0   18.34    1.59 
  11   0   0   15.53    1.37 
  11   0   0   17.62    1.52 
  11   0   0   18.04    1.48 
  12   0   0    1.82    0.67 
  12   0   0    1.10    0.71 
  12   0   0    1.34    0.60 
  12   0   0    0.89    0.74 
  12   0   0    0.49    0.68 
  12   0   0    2.43    0.84 
  13   0   0    9.11    1.48 
  13   0   0    5.29    1.21 
  13   0   0    7.15    1.25 
  13   0   0    5.87    0.96 
  13   0   0    4.70    1.05 
   0  -1   0    0.02    0.13 
   0  -1   0   -0.12    0.18 
   0  -1   0    0.03    0.28 
   0  -1   0    0.02    0.12 
   0  -1   0    0.06    0.15 
   0   1   0   -0.12    0.18 
   0   1   0   -0.07    0.14 
   0   1   0   -0.13    0.16 
   0   1   0    0.06    0.13 
   0   1   0   -0.05    0.13 
   1  -1   0   57.96    1.52 
  -1  -1   0   57.87    1.36 
  -1  -1   0   57.46    1.45 
  -1  -1   0   57.19    1.54 
  -1  -1   0   55.50    1.52 
   1  -1   0   56.74    1.52 
   1  -1   0   53.45    1.52 
   1  -1   0   54.81    1.53 
  -1   1   0   55.90    1.55 
   1   1   0   55.12    1.53 
   1   1   0   51.10    1.39 
  -1   1   0   57.55    1.54 
   1   1   0   54.25    1.45 
   1   1   0   55.18    1.51 
  -1   1   0   56.71    1.51 
   1   1   0   58.18    1.54 
  -1   1   0   56.38    1.51 
  -2  -1   0   26.90    0.82 
   2  -1   0   26.55    0.95 
  -2  -1   0   26.25    1.01 
   2  -1   0   27.50    1.04 
   2  -1   0   28.48    1.07 
  -2  -1   0   27.55    1.02 
   2  -1   0   27.93    0.99 
  -2  -1   0   26.58    0.90 
  -2  -1   0   25.69    0.84 
   2   1   0   28.20    0.94 
  -2   1   0   27.35    0.97 
  -2   1   0   27.73    1.07 
  -2   1   0   27.92    1.04 
   2   1   0   26.64    0.99 
  -2   1   0   27.75    1.01 
   2   1   0   26.53    0.82 
   2   1   0   27.37    0.86 
   3  -1   0   34.86    1.16 
   3  -1   0   37.79    1.28 
  -3  -1   0   34.98    0.94 
   3  -1   0   35.18    0.96 
   3  -1   0   35.03    1.37 
   3  -1   0   35.82    0.95 
   3  -1   0   35.32    1.34 
  -3  -1   0   38.03    1.34 
  -3  -1   0   34.42    1.31 
   3   1   0   35.89    1.28 
   3   1   0   34.75    1.16 
   3   1   0   33.71    0.93 
  -3   1   0   35.12    1.18 
   3   1   0   35.60    1.24 
  -3   1   0   36.64    1.34 
  -3   1   0   33.67    1.37 
   3   1   0   33.67    1.27 
  -3   1   0   36.80    1.36 
   4  -1   0    6.98    0.65 
   4  -1   0    6.86    0.69 
   4  -1   0    6.29    0.49 
   4  -1   0    5.66    0.68 
   4  -1   0    6.94    0.43 
  -4  -1   0    6.59    0.69 
   4  -1   0    6.20    0.43 
   4   1   0    5.85    0.57 
   4   1   0    6.35    0.59 
  -4   1   0    6.44    0.52 
   4   1   0    6.09    0.61 
   4   1   0    6.23    0.61 
   4   1   0    5.68    0.54 
  -4   1   0    5.34    0.68 
  -4   1   0    5.49    0.64 
  -4   1   0    5.92    0.68 
   5  -1   0    7.57    0.77 
   5  -1   0    8.44    0.83 
   5  -1   0    7.11    0.53 
   5  -1   0    7.15    0.53 
   5  -1   0    7.36    0.52 
   5  -1   0    6.00    0.71 
   5   1   0    7.16    0.67 
   5   1   0    7.83    0.68 
  -5   1   0    7.70    0.83 
   5   1   0    7.70    0.73 
   5   1   0    7.83    0.72 
  -5   1   0    8.27    0.86 
   5   1   0    7.65    0.70 
   5   1   0    6.86    0.68 
  -5   1   0    6.95    0.56 
   6  -1   0   13.64    1.00 
   6  -1   0   15.51    1.14 
   6  -1   0   15.35    0.75 
   6  -1   0   14.72    1.09 
   6  -1   0   15.20    0.78 
   6  -1   0   15.11    0.81 
   6   1   0   12.77    0.94 
  -6   1   0   15.08    0.76 
   6   1   0   15.92    1.03 
   6   1   0   15.78    1.05 
  -6   1   0   15.86    1.17 
   6   1   0   16.55    0.99 
   6   1   0   16.10    1.16 
   6   1   0   15.08    1.01 
  -6   1   0   14.30    1.08 
   6   1   0   15.98    0.99 
   7  -1   0  184.78    5.15 
   7  -1   0  186.61    5.25 
   7  -1   0  186.11    4.36 
   7  -1   0  187.55    4.62 
   7  -1   0  190.95    4.58 
   7  -1   0  185.82    5.18 
   7  -1   0  185.00    4.99 
   7   1   0  180.65    5.21 
   7   1   0  182.68    4.91 
   7   1   0  174.26    4.88 
   7   1   0  184.62    5.08 
   7   1   0  188.89    4.95 
   7   1   0  183.38    4.95 
  -7   1   0  179.87    4.36 
   7   1   0  184.12    5.07 
   7   1   0  182.74    5.03 
   8  -1   0    3.13    0.58 
   8  -1   0    3.27    0.41 
   8  -1   0    3.87    0.84 
   8  -1   0    2.64    0.78 
   8  -1   0    3.45    0.78 
   8  -1   0    2.62    0.64 
   8  -1   0    3.57    0.62 
   8  -1   0    2.75    0.76 
   8   1   0    3.50    0.77 
  -8   1   0    2.79    0.43 
   8   1   0    2.84    0.61 
   8   1   0    2.90    0.68 
   8   1   0    3.08    0.67 
   8   1   0    3.55    0.82 
   8   1   0    2.12    0.81 
   8   1   0    3.62    0.77 
   8   1   0    2.24    0.61 
   9  -1   0    9.41    0.85 
   9  -1   0    9.10    1.16 
   9  -1   0    9.21    1.20 
   9  -1   0    9.43    0.79 
   9  -1   0    8.12    1.00 
   9  -1   0    8.11    1.01 
   9  -1   0    8.00    1.03 
   9  -1   0    9.29    1.30 
   9   1   0    8.92    0.99 
   9   1   0    9.57    0.98 
   9   1   0    7.99    0.99 
   9   1   0   11.25    1.01 
   9   1   0    7.91    1.03 
   9   1   0    7.53    1.25 
   9   1   0    8.50    0.97 
   9   1   0    7.97    1.00 
  10  -1   0   13.01    1.22 
  10  -1   0   11.92    1.26 
  10  -1   0   11.98    1.23 
  10  -1   0   12.21    1.38 
  10  -1   0   12.52    0.93 
  10  -1   0   12.11    0.97 
  10  -1   0   13.68    1.26 
  10   1   0   13.28    1.27 
  10   1   0   11.52    1.33 
  10   1   0   10.54    1.11 
  10   1   0   12.47    1.18 
  10   1   0   13.69    1.17 
  10   1   0   11.10    1.23 
  10   1   0   12.81    1.18 
  10   1   0   14.47    1.23 
  11  -1   0   47.42    2.33 
  11  -1   0   54.79    2.77 
  11  -1   0   53.76    2.62 
  11  -1   0   51.35    1.99 
  11  -1   0   54.91    2.10 
  11  -1   0   56.55    2.47 
  11   1   0   56.71    2.47 
  11   1   0   57.58    2.42 
  11   1   0   53.80    2.58 
  11   1   0   56.47    2.44 
  11   1   0   53.54    2.46 
  11   1   0   50.71    2.59 
  11   1   0   53.63    2.45 
  12  -1   0    4.70    1.16 
  12  -1   0    3.91    0.99 
  12  -1   0    3.40    0.71 
  12  -1   0    4.18    0.82 
  12  -1   0    3.26    1.04 
  12  -1   0    2.44    0.93 
  12   1   0    4.59    1.09 
  12   1   0    3.48    0.86 
  12   1   0    3.18    0.90 
  12   1   0    2.46    0.97 
  13  -1   0    6.85    1.26 
  13  -1   0    8.49    1.31 
  13  -1   0    9.98    1.00 
  13  -1   0    4.33    1.21 
  13   1   0    6.40    1.06 
  13   1   0    7.41    1.18 
  13   1   0    5.46    1.21 
  -1  -2   0    0.28    0.28 
   1  -2   0    0.39    0.29 
   1  -2   0    0.91    0.35 
  -1  -2   0    0.15    0.32 
  -1  -2   0    0.61    0.37 
   1  -2   0    0.25    0.30 
  -1  -2   0    0.32    0.26 
   1  -2   0    0.75    0.39 
  -1  -2   0    0.44    0.29 
   1   2   0    0.32    0.29 
  -1   2   0    0.42    0.32 
  -1   2   0    0.14    0.32 
  -1   2   0    0.54    0.21 
  -1   2   0    0.47    0.30 
   1   2   0    0.49    0.21 
   1   2   0    0.28    0.28 
   1   2   0    0.35    0.33 
  -1   2   0    0.34    0.35 
   1   2   0    0.65    0.36 
  -2  -2   0    2.91    0.43 
   2  -2   0    2.54    0.48 
  -2  -2   0    3.07    0.46 
   2  -2   0    3.49    0.55 
   2  -2   0    2.96    0.49 
  -2  -2   0    2.74    0.53 
  -2  -2   0    2.49    0.33 
   2  -2   0    2.50    0.46 
   2   2   0    3.17    0.53 
   2   2   0    3.21    0.41 
  -2   2   0    2.72    0.51 
   2   2   0    2.63    0.52 
  -2   2   0    3.97    0.71 
   2   2   0    2.39    0.44 
  -2   2   0    2.97    0.50 
  -2   2   0    2.54    0.42 
   2   2   0    3.49    0.59 
  -3  -2   0   61.19    1.78 
   3  -2   0   58.93    1.95 
   3  -2   0   58.57    2.04 
   3  -2   0   60.85    1.96 
  -3  -2   0   60.50    1.65 
  -3  -2   0   59.23    2.00 
  -3  -2   0   59.77    2.06 
   3  -2   0   58.97    2.01 
  -3  -2   0   60.50    1.78 
  -3   2   0   59.74    1.97 
  -3   2   0   60.01    2.05 
   3   2   0   62.64    1.90 
  -3   2   0   61.65    2.00 
   3   2   0   59.11    2.00 
  -3   2   0   61.70    2.03 
   3   2   0   61.34    1.77 
   3   2   0   60.70    1.98 
   3   2   0   62.28    1.74 
   4  -2   0  179.57    4.78 
   4  -2   0  179.69    4.58 
  -4  -2   0  178.63    4.23 
  -4  -2   0  179.42    4.69 
   4  -2   0  178.01    4.74 
  -4  -2   0  184.20    4.31 
   4  -2   0  176.35    4.54 
  -4  -2   0  172.57    4.40 
   4   2   0  181.75    4.53 
  -4   2   0  181.59    4.82 
   4   2   0  175.07    4.20 
  -4   2   0  182.52    4.59 
  -4   2   0  177.09    4.73 
   4   2   0  178.99    4.70 
   4   2   0  186.01    4.35 
   4   2   0  181.66    4.65 
  -4   2   0  182.11    4.67 
  -5  -2   0    6.40    0.45 
  -5  -2   0    8.13    0.87 
   5  -2   0    6.60    0.66 
   5  -2   0    5.29    0.73 
   5  -2   0    6.27    0.79 
   5  -2   0    6.21    0.82 
  -5   2   0    6.04    0.81 
   5   2   0    5.91    0.72 
   5   2   0    6.63    0.45 
  -5   2   0    7.35    0.85 
   5   2   0    7.03    0.70 
  -5   2   0    7.28    0.72 
   5   2   0    7.11    0.62 
   5   2   0    6.53    0.75 
  -5   2   0    6.98    0.80 
   6  -2   0   20.20    1.19 
   6  -2   0   20.58    1.33 
  -6  -2   0   21.80    1.35 
   6  -2   0   21.25    1.09 
   6  -2   0   21.13    1.37 
  -6   2   0   21.13    1.11 
   6   2   0   21.23    1.09 
   6   2   0   21.48    1.22 
   6   2   0   20.46    1.26 
   6   2   0   20.86    1.16 
  -6   2   0   19.88    1.36 
   6   2   0   21.99    1.24 
  -6   2   0   19.54    1.30 
   6   2   0   20.57    1.07 
   7  -2   0   11.39    1.00 
   7  -2   0    8.81    1.01 
  -7  -2   0    9.29    1.09 
   7  -2   0    8.31    1.06 
   7  -2   0    9.90    0.81 
   7   2   0    9.19    0.89 
  -7   2   0    9.42    0.80 
  -7   2   0    9.53    1.08 
   7   2   0    9.66    0.83 
   7   2   0    8.59    0.80 
   7   2   0    8.92    0.90 
   7   2   0    9.62    0.93 
   7   2   0    9.21    0.95 
   7   2   0    9.98    1.01 
  -7   2   0    8.64    1.07 
   8  -2   0   28.04    1.71 
   8  -2   0   28.03    1.26 
   8  -2   0   28.22    1.73 
   8  -2   0   28.27    1.56 
   8  -2   0   29.12    1.79 
   8   2   0   26.53    1.41 
  -8   2   0   25.13    1.62 
   8   2   0   27.05    1.42 
  -8   2   0   26.98    1.27 
   8   2   0   28.51    1.63 
  -8   2   0   26.09    1.76 
   8   2   0   27.67    1.54 
   8   2   0   26.44    1.64 
   8   2   0   26.74    1.51 
   8   2   0   25.49    1.53 
   9  -2   0    0.02    0.64 
   9  -2   0    0.10    0.49 
   9  -2   0    0.01    0.29 
   9  -2   0    0.45    0.39 
   9  -2   0    0.96    0.63 
   9  -2   0    1.39    0.53 
   9   2   0    0.07    0.48 
   9   2   0    0.04    0.42 
   9   2   0    0.70    0.54 
   9   2   0   -0.28    0.65 
   9   2   0    0.07    0.45 
   9   2   0    0.31    0.47 
   9   2   0   -0.15    0.51 
   9   2   0    0.09    0.52 
  -9   2   0    0.26    0.39 
  10  -2   0   11.31    1.23 
  10  -2   0    8.89    0.67 
  10  -2   0    9.88    0.74 
  10  -2   0   11.60    1.30 
  10  -2   0    8.13    1.08 
  10   2   0    9.49    1.11 
  10   2   0   11.24    1.22 
  10   2   0   10.35    1.15 
 -10   2   0    9.29    0.77 
  10   2   0   10.47    1.39 
  10   2   0   10.03    1.18 
  10   2   0   10.42    1.08 
  10   2   0   10.54    1.07 
  10   2   0    9.22    1.10 
  11  -2   0    1.46    0.72 
  11  -2   0    0.74    0.77 
  11  -2   0    3.06    0.88 
  11  -2   0    1.72    0.90 
  11   2   0    2.14    0.78 
  11   2   0    1.86    0.72 
  11   2   0    1.78    0.80 
  11   2   0    3.75    1.07 
  11   2   0    2.12    0.82 
  11   2   0    2.72    0.90 
  12  -2   0    6.26    1.10 
  12  -2   0    3.52    1.10 
  12  -2   0    4.73    1.14 
  12   2   0    5.23    1.12 
  12   2   0    5.81    1.04 
  12   2   0    3.68    1.09 
  12   2   0    6.83    1.27 
  13  -2   0    1.71    0.79 
  13   2   0    2.16    0.92 
  13   2   0    1.86    0.74 
  13   2   0    2.24    1.04 
  13   2   0    1.70    0.79 
   0  -3   0    0.25    0.37 
   0  -3   0   -0.17    0.27 
   0  -3   0    0.00    0.26 
   0  -3   0   -0.20    0.33 
   0   3   0   -0.20    0.26 
   0   3   0    0.23    0.31 
   0   3   0   -0.21    0.24 
   0   3   0    0.18    0.40 
   0   3   0   -0.10    0.35 
  -1  -3   0   23.76    0.94 
   1  -3   0   21.59    1.20 
   1  -3   0   22.56    1.09 
   1  -3   0   22.42    1.17 
  -1  -3   0   23.26    1.19 
  -1  -3   0   21.87    1.06 
  -1  -3   0   23.49    1.21 
   1  -3   0   21.74    1.03 
   1   3   0   20.95    1.05 
  -1   3   0   22.59    1.17 
   1   3   0   22.04    0.87 
   1   3   0   24.17    1.22 
   1   3   0   23.15    0.98 
  -1   3   0   22.93    1.25 
   1   3   0   22.79    1.17 
  -1   3   0   23.51    0.91 
  -1   3   0   21.28    1.07 
  -1   3   0   22.51    1.03 
  -1   3   0   22.35    0.92 
  -2  -3   0   24.25    1.27 
   2  -3   0   24.29    1.17 
  -2  -3   0   23.91    0.99 
   2  -3   0   23.63    1.26 
   2  -3   0   24.11    1.24 
   2  -3   0   22.72    1.18 
  -2  -3   0   23.68    1.13 
   2   3   0   23.01    1.17 
  -2   3   0   22.88    1.19 
  -2   3   0   23.72    0.81 
  -2   3   0   23.93    0.84 
   2   3   0   24.23    1.24 
  -2   3   0   23.76    1.29 
  -2   3   0   23.01    1.20 
   2   3   0   21.85    0.84 
   2   3   0   25.19    1.06 
   2   3   0   24.32    1.19 
  -2   3   0   23.21    1.15 
   3  -3   0   28.64    1.39 
  -3  -3   0   27.18    1.14 
  -3  -3   0   28.74    1.27 
   3  -3   0   29.15    1.36 
   3  -3   0   28.15    1.35 
  -3  -3   0   28.51    1.43 
   3  -3   0   27.13    1.38 
  -3  -3   0   27.48    0.97 
   3   3   0   26.60    1.23 
  -3   3   0   29.43    1.41 
  -3   3   0   24.86    1.37 
   3   3   0   26.31    1.34 
  -3   3   0   28.70    1.37 
   3   3   0   27.49    1.25 
  -3   3   0   28.19    1.34 
   3   3   0   27.24    1.36 
   3   3   0   28.57    1.01 
   4  -3   0    3.54    0.68 
  -4  -3   0    4.71    0.59 
  -4  -3   0    3.73    0.43 
  -4  -3   0    3.72    0.73 
   4  -3   0    5.47    0.83 
  -4  -3   0    3.90    0.53 
   4  -3   0    3.53    0.62 
   4  -3   0    4.67    0.72 
  -4   3   0    5.71    0.83 
   4   3   0    4.10    0.58 
   4   3   0    5.85    0.87 
   4   3   0    3.86    0.66 
   4   3   0    5.02    0.86 
   4   3   0    5.60    0.71 
  -4   3   0    6.10    0.91 
  -4   3   0    4.52    0.81 
  -4   3   0    4.57    0.71 
  -5  -3   0    6.42    0.56 
  -5  -3   0    6.14    0.62 
   5  -3   0    6.43    0.79 
   5  -3   0    7.61    0.87 
  -5  -3   0    8.43    1.09 
   5  -3   0    7.36    0.82 
  -5  -3   0    6.43    0.66 
   5  -3   0    7.62    0.92 
  -5   3   0    7.22    0.86 
   5   3   0    7.23    0.72 
   5   3   0    7.56    0.86 
  -5   3   0    8.57    0.89 
   5   3   0    7.10    0.82 
   5   3   0    6.05    0.78 
   5   3   0    7.28    0.64 
  -5   3   0    6.42    0.82 
  -5   3   0    6.67    0.89 
   6  -3   0   11.66    1.14 
  -6  -3   0   11.48    0.72 
   6  -3   0   11.45    1.09 
   6  -3   0   12.76    1.01 
  -6  -3   0   12.14    1.13 
   6  -3   0   11.31    1.02 
  -6   3   0   12.03    1.12 
  -6   3   0   13.75    1.23 
   6   3   0   12.76    0.74 
   6   3   0   13.99    1.11 
   6   3   0   12.67    0.90 
  -6   3   0   14.39    1.20 
   6   3   0   12.51    1.09 
   6   3   0   12.06    1.00 
  -6   3   0   12.21    1.04 
  -7  -3   0  132.03    3.21 
  -7  -3   0  134.11    4.21 
   7  -3   0  127.89    3.85 
   7  -3   0  128.73    4.23 
   7  -3   0  137.69    4.00 
   7  -3   0  130.19    4.27 
  -7   3   0  133.57    3.91 
   7   3   0  129.40    4.12 
   7   3   0  127.97    4.01 
  -7   3   0  130.60    4.15 
   7   3   0  127.09    3.78 
  -7   3   0  128.17    4.27 
   7   3   0  133.18    3.69 
   7   3   0  129.53    3.17 
   7   3   0  133.82    3.60 
   7   3   0  132.14    4.27 
   7   3   0  133.54    3.97 
   8  -3   0    1.95    0.70 
  -8  -3   0    1.48    0.80 
   8  -3   0    3.66    0.94 
   8  -3   0    1.25    0.57 
   8  -3   0    2.08    0.81 
   8   3   0    1.47    0.59 
  -8   3   0    2.75    0.93 
   8   3   0    2.10    0.73 
   8   3   0    2.12    0.59 
  -8   3   0    1.13    0.78 
   8   3   0    2.22    0.80 
   8   3   0    1.00    0.65 
   8   3   0    2.38    0.75 
  -8   3   0    2.61    0.69 
   8   3   0    1.70    0.59 
   9  -3   0    8.79    1.06 
   9  -3   0    6.60    1.16 
   9   3   0    9.22    1.18 
  -9   3   0    8.19    0.92 
   9   3   0    7.89    0.91 
   9   3   0    7.61    1.03 
   9   3   0    8.14    0.99 
  -9   3   0   10.31    1.30 
   9   3   0    6.31    1.02 
   9   3   0    8.86    1.14 
   9   3   0    8.17    0.88 
  -9   3   0    9.15    1.43 
  10  -3   0   10.40    1.55 
  10  -3   0    9.15    1.10 
  10   3   0   10.32    1.51 
 -10   3   0    8.37    0.92 
  10   3   0    9.08    1.08 
  10   3   0    9.10    1.00 
  10   3   0    9.48    1.41 
  10   3   0    8.59    1.14 
  10   3   0    9.99    1.04 
 -10   3   0   10.77    1.32 
  10   3   0    8.86    1.10 
  11  -3   0   38.51    2.33 
  11  -3   0   39.03    2.07 
  11   3   0   40.39    2.21 
  11   3   0   41.58    2.22 
  11   3   0   41.20    1.93 
  11   3   0   38.12    2.42 
  11   3   0   37.27    2.29 
 -11   3   0   40.94    1.70 
  11   3   0   39.52    1.99 
  12  -3   0    2.33    0.85 
  12  -3   0    0.50    0.82 
  12  -3   0    1.77    0.92 
  12   3   0    0.76    0.77 
  12   3   0    2.68    0.76 
  12   3   0    0.61    0.93 
  12   3   0    2.14    0.77 
   0  -4   0  995.53   21.90 
   0  -4   0  984.87   21.30 
   0  -4   0  977.96   21.44 
   0  -4   0  965.37   21.76 
   0   4   0 1000.00   21.46 
   0   4   0  987.45   21.78 
   0   4   0  986.20   21.25 
   0   4   0  981.15   21.86 
   0   4   0  988.25   21.39 
  -1  -4   0    2.33    0.57 
  -1  -4   0    1.07    0.41 
   1  -4   0    1.52    0.46 
  -1  -4   0    0.82    0.53 
  -1  -4   0    1.16    0.47 
   1  -4   0    1.49    0.58 
   1  -4   0    0.78    0.44 
   1  -4   0    0.70    0.42 
   1   4   0    1.04    0.43 
  -1   4   0    0.76    0.51 
   1   4   0    1.27    0.44 
   1   4   0    0.99    0.53 
   1   4   0    1.05    0.35 
  -1   4   0    0.64    0.44 
  -1   4   0    1.40    0.56 
   1   4   0    0.90    0.52 
  -1   4   0    0.97    0.38 
  -1   4   0    1.32    0.40 
  -1   4   0    1.42    0.44 
   2  -4   0    0.78    0.44 
   2  -4   0    0.69    0.51 
  -2  -4   0    0.30    0.54 
  -2  -4   0    0.54    0.51 
  -2  -4   0    0.87    0.48 
  -2  -4   0    0.31    0.38 
   2  -4   0    0.28    0.40 
   2  -4   0    0.60    0.49 
   2   4   0    0.79    0.44 
  -2   4   0    0.59    0.48 
  -2   4   0    0.64    0.30 
  -2   4   0    0.81    0.45 
   2   4   0    0.75    0.30 
  -2   4   0    1.15    0.51 
   2   4   0    0.75    0.46 
  -2   4   0    1.08    0.56 
   2   4   0    0.86    0.40 
  -2   4   0    1.13    0.35 
  -3  -4   0    0.87    0.59 
   3  -4   0    0.35    0.36 
  -3  -4   0    0.59    0.41 
   3  -4   0    0.63    0.45 
  -3  -4   0    0.84    0.44 
   3  -4   0    0.50    0.47 
  -3  -4   0    0.60    0.31 
   3  -4   0    0.07    0.45 
   3   4   0    0.62    0.29 
   3   4   0    0.54    0.42 
  -3   4   0    0.82    0.45 
   3   4   0    0.82    0.56 
   3   4   0    0.90    0.42 
  -3   4   0    2.33    0.66 
  -3   4   0    0.66    0.51 
  -3   4   0    1.01    0.52 
   3   4   0    0.62    0.45 
  -4  -4   0  256.98    6.20 
   4  -4   0  244.88    6.65 
   4  -4   0  261.25    6.69 
  -4  -4   0  258.08    6.49 
   4  -4   0  259.61    6.69 
  -4  -4   0  263.38    6.84 
  -4  -4   0  256.78    5.88 
   4  -4   0  258.95    6.79 
  -4   4   0  261.93    6.78 
   4   4   0  256.73    6.47 
   4   4   0  258.59    6.76 
   4   4   0  254.01    6.70 
   4   4   0  258.15    5.89 
  -4   4   0  259.41    6.68 
   4   4   0  270.77    6.35 
  -4   4   0  254.93    6.81 
  -4   4   0  252.79    6.65 
  -5  -4   0    0.84    0.47 
  -5  -4   0    0.99    0.45 
   5  -4   0    0.65    0.55 
   5  -4   0    0.64    0.55 
   5  -4   0    1.71    0.68 
   5  -4   0    1.18    0.54 
  -5  -4   0    1.18    0.35 
  -5  -4   0    3.48    0.81 
  -5   4   0    1.36    0.65 
  -5   4   0    1.69    0.68 
   5   4   0    1.60    0.53 
   5   4   0    0.55    0.52 
   5   4   0    1.84    0.65 
  -5   4   0    0.87    0.55 
   5   4   0    1.38    0.67 
   5   4   0    1.38    0.62 
   5   4   0    1.06    0.41 
  -5   4   0    1.33    0.66 
   6  -4   0    9.05    1.02 
   6  -4   0    8.83    1.10 
   6  -4   0    8.05    1.05 
   6  -4   0    9.13    1.03 
  -6  -4   0   11.11    0.85 
  -6  -4   0    8.34    1.11 
  -6   4   0    9.11    1.07 
  -6   4   0    8.53    1.06 
   6   4   0    8.76    1.10 
   6   4   0    8.25    0.85 
   6   4   0    8.11    0.80 
   6   4   0    8.05    1.01 
   6   4   0    9.29    1.09 
  -6   4   0    9.16    1.11 
   6   4   0    8.87    1.05 
  -6   4   0    8.91    1.27 
  -7  -4   0    9.14    1.28 
   7  -4   0    7.68    1.25 
   7  -4   0    6.83    0.96 
   7  -4   0    8.14    1.28 
  -7  -4   0    6.98    0.69 
   7  -4   0    7.32    1.06 
   7   4   0    6.93    0.82 
  -7   4   0    7.85    1.28 
   7   4   0    8.06    1.28 
   7   4   0    8.32    0.72 
   7   4   0    7.36    1.25 
   7   4   0    7.89    0.97 
   7   4   0    6.47    0.99 
   7   4   0    8.16    0.69 
  -7   4   0    6.93    1.05 
   7   4   0    8.64    1.07 
  -7   4   0    9.45    1.17 
  -8  -4   0   23.57    1.04 
   8  -4   0   22.32    1.67 
   8  -4   0   20.76    1.50 
  -8  -4   0   20.31    1.68 
   8   4   0   22.19    1.61 
   8   4   0   22.08    0.98 
   8   4   0   23.61    1.16 
   8   4   0   22.73    1.33 
   8   4   0   22.16    1.58 
   8   4   0   23.46    1.74 
  -8   4   0   21.41    1.73 
  -8   4   0   22.69    1.53 
   8   4   0   20.72    1.34 
  -8   4   0   25.59    1.78 
  -9  -4   0    4.54    1.14 
   9  -4   0    4.28    0.95 
   9  -4   0    4.79    1.05 
   9   4   0    5.93    0.95 
  -9   4   0    6.22    1.15 
   9   4   0    5.23    0.89 
   9   4   0    5.07    1.08 
   9   4   0    3.70    1.01 
  -9   4   0    5.25    1.00 
   9   4   0    5.17    0.79 
  -9   4   0    4.93    1.14 
   9   4   0    4.49    1.07 
  10  -4   0    1.25    0.74 
  10  -4   0    2.90    1.06 
  10   4   0    1.66    0.70 
 -10   4   0    2.40    0.77 
  10   4   0    2.65    0.79 
  10   4   0    1.07    0.78 
 -10   4   0    1.02    0.81 
 -10   4   0    1.37    0.94 
  10   4   0    1.41    0.93 
  10   4   0    1.83    0.61 
  11  -4   0   11.57    1.25 
  11  -4   0   10.66    1.65 
  11   4   0   11.93    1.06 
  11   4   0   12.51    1.25 
  11   4   0   10.15    1.52 
  11   4   0   10.90    1.20 
  11   4   0    9.93    1.55 
  11   4   0    9.13    1.48 
  12  -4   0    0.27    0.75 
  12   4   0    1.14    1.02 
  12   4   0    0.63    0.60 
  12   4   0    1.90    0.98 
  12   4   0    2.36    1.08 
   0  -5   0   -0.02    0.36 
   0  -5   0    0.02    0.41 
   0  -5   0    0.26    0.54 
   0  -5   0    1.32    0.52 
   0   5   0    0.62    0.44 
   0   5   0   -0.07    0.32 
   0   5   0    0.26    0.49 
   0   5   0    0.05    0.46 
   0   5   0   -0.05    0.32 
   0   5   0   -0.21    0.37 
   1  -5   0   20.03    1.38 
   1  -5   0   18.46    1.20 
  -1  -5   0   20.01    1.39 
   1  -5   0   17.14    1.35 
  -1  -5   0   17.96    1.03 
  -1  -5   0   17.68    1.36 
   1  -5   0   17.86    1.12 
  -1  -5   0   17.89    1.19 
   1   5   0   18.37    1.34 
  -1   5   0   17.61    1.15 
   1   5   0   19.01    1.22 
  -1   5   0   14.57    1.00 
  -1   5   0   17.15    1.29 
   1   5   0   18.01    0.94 
   1   5   0   17.98    1.15 
  -1   5   0   20.36    1.05 
   1   5   0   18.16    1.07 
   1   5   0   17.08    1.34 
  -1   5   0   17.19    1.39 
   2  -5   0    8.77    0.90 
  -2  -5   0    7.96    1.03 
   2  -5   0    9.00    1.03 
  -2  -5   0    9.40    1.06 
   2  -5   0    8.89    1.07 
  -2  -5   0    7.21    0.89 
   2  -5   0   10.25    0.99 
  -2  -5   0    9.37    1.03 
  -2   5   0    9.51    0.88 
  -2   5   0    9.33    0.68 
   2   5   0    7.92    1.01 
  -2   5   0    8.86    0.71 
   2   5   0    9.16    0.98 
   2   5   0    9.13    0.93 
  -2   5   0    8.97    0.95 
  -2   5   0    7.88    1.06 
  -2   5   0    9.35    1.03 
   2   5   0    9.22    0.66 
   2   5   0    9.98    1.04 
   2   5   0   10.19    0.80 
   3  -5   0   33.94    1.76 
   3  -5   0   29.79    1.64 
   3  -5   0   26.51    1.52 
  -3  -5   0   30.84    1.79 
  -3  -5   0   28.79    1.15 
  -3  -5   0   30.97    1.42 
  -3   5   0   27.72    1.79 
   3   5   0   29.73    1.62 
  -3   5   0   29.26    1.68 
   3   5   0   30.55    1.33 
   3   5   0   28.65    1.66 
  -3   5   0   27.39    1.51 
   3   5   0   28.02    1.61 
   3   5   0   28.62    1.08 
  -3   5   0   28.17    1.61 
   3   5   0   29.19    1.69 
  -4  -5   0   10.71    0.85 
   4  -5   0   10.90    1.14 
  -4  -5   0    9.92    1.16 
   4  -5   0    9.96    1.06 
  -4  -5   0    9.89    1.03 
  -4  -5   0   10.41    0.64 
   4  -5   0   10.22    1.17 
   4  -5   0   11.89    1.14 
  -4   5   0    9.05    1.09 
   4   5   0    9.50    1.08 
  -4   5   0   10.93    1.07 
   4   5   0   10.42    1.07 
  -4   5   0   11.71    1.18 
   4   5   0   13.67    1.22 
  -4   5   0   12.72    1.28 
   4   5   0   10.65    0.88 
   4   5   0   10.28    1.04 
   5  -5   0    6.99    1.12 
   5  -5   0    8.82    1.26 
  -5  -5   0    6.38    0.90 
  -5  -5   0    7.93    1.22 
  -5  -5   0    6.83    0.73 
   5  -5   0    7.95    1.17 
   5  -5   0    8.25    1.14 
   5   5   0    6.72    1.03 
  -5   5   0   11.08    1.12 
  -5   5   0    8.66    1.28 
   5   5   0    7.71    1.17 
   5   5   0    7.54    0.85 
  -5   5   0    8.02    1.23 
  -5   5   0    6.62    1.11 
   5   5   0    8.53    1.12 
   5   5   0    8.49    1.18 
   6  -5   0   -0.31    0.55 
  -6  -5   0    1.15    0.54 
   6  -5   0   -0.80    0.57 
   6  -5   0    0.16    0.58 
  -6  -5   0   -0.18    0.64 
   6  -5   0    0.55    0.62 
  -6  -5   0    0.49    0.43 
  -6   5   0    1.19    0.66 
  -6   5   0    0.93    0.68 
   6   5   0    0.06    0.64 
   6   5   0    0.55    0.51 
   6   5   0    0.18    0.32 
   6   5   0    0.55    0.52 
  -6   5   0    1.50    0.74 
  -6   5   0    0.29    0.68 
   6   5   0    0.32    0.54 
   6   5   0    0.42    0.54 
  -7  -5   0   55.09    2.69 
  -7  -5   0   57.54    2.16 
   7  -5   0   58.90    2.55 
   7  -5   0   58.30    2.65 
   7   5   0   56.18    1.77 
  -7   5   0   57.99    2.72 
   7   5   0   56.66    2.78 
   7   5   0   53.11    2.56 
  -7   5   0   55.28    2.63 
   7   5   0   57.05    2.15 
   7   5   0   56.55    2.30 
  -7   5   0   61.14    2.68 
  -8  -5   0    1.73    0.57 
   8  -5   0    1.27    0.76 
   8  -5   0    1.87    0.75 
  -8  -5   0    2.62    1.03 
   8   5   0    1.01    0.52 
   8   5   0    0.97    0.76 
  -8   5   0    2.51    0.89 
   8   5   0    1.51    0.45 
   8   5   0    1.71    0.78 
   8   5   0    1.78    0.64 
   8   5   0    2.33    0.54 
  -8   5   0    1.95    0.96 
  -8   5   0    1.22    0.74 
   9  -5   0    4.39    1.06 
   9  -5   0    4.82    1.03 
  -9  -5   0    5.18    1.20 
  -9  -5   0    5.17    0.67 
   9   5   0    4.66    0.58 
  -9   5   0    5.80    1.28 
   9   5   0    6.42    0.79 
   9   5   0    5.20    1.10 
  -9   5   0    4.80    1.01 
   9   5   0    5.34    0.71 
   9   5   0    4.69    1.18 
   9   5   0    5.84    0.95 
  10  -5   0    0.82    0.78 
  10  -5   0    0.78    0.78 
 -10  -5   0    0.67    0.96 
  10   5   0    1.34    0.67 
 -10   5   0    1.68    0.82 
  10   5   0    0.21    0.73 
 -10   5   0    1.02    0.88 
  10   5   0    2.36    1.01 
  10   5   0    1.12    0.49 
  11  -5   0   13.18    1.44 
  11   5   0   16.50    1.02 
  11   5   0   13.08    1.48 
  11   5   0   13.40    1.54 
   0  -6   0  117.03    4.04 
   0  -6   0  120.92    3.51 
   0  -6   0  116.41    4.10 
   0  -6   0  117.20    3.69 
   0   6   0  120.85    3.60 
   0   6   0  117.13    4.15 
   0   6   0  118.27    3.65 
   0   6   0  118.29    3.42 
   0   6   0  117.58    3.98 
   0   6   0  118.31    3.58 
   1  -6   0    1.56    0.63 
  -1  -6   0    2.13    0.83 
  -1  -6   0    1.24    0.67 
  -1  -6   0    2.84    0.67 
  -1  -6   0    2.85    0.83 
   1  -6   0    2.03    0.75 
   1  -6   0    1.70    0.76 
   1  -6   0    1.80    0.63 
   1   6   0    2.28    0.53 
  -1   6   0    2.20    0.83 
   1   6   0    1.79    0.61 
  -1   6   0    2.07    0.66 
   1   6   0    1.47    0.65 
   1   6   0    1.10    0.71 
   1   6   0    0.90    0.58 
  -1   6   0    1.59    0.56 
  -1   6   0    2.26    0.86 
  -1   6   0    2.16    0.62 
   1   6   0    1.79    0.81 
  -1   6   0    2.87    0.64 
  -2  -6   0    2.61    0.86 
  -2  -6   0    1.88    0.80 
   2  -6   0    2.56    0.74 
   2  -6   0    2.54    0.92 
  -2  -6   0    1.28    0.79 
  -2  -6   0    1.91    0.70 
   2  -6   0    1.53    0.61 
   2  -6   0    1.30    0.71 
  -2   6   0    2.63    0.76 
   2   6   0    2.42    0.51 
  -2   6   0    2.97    0.60 
   2   6   0    2.19    0.78 
   2   6   0    2.14    0.76 
  -2   6   0    1.46    0.76 
  -2   6   0    1.91    0.54 
  -2   6   0    1.64    0.77 
   2   6   0    2.06    0.71 
   2   6   0    1.90    0.77 
  -2   6   0    2.71    0.69 
   3  -6   0   13.52    1.19 
  -3  -6   0   13.91    1.06 
   3  -6   0   15.43    1.45 
   3  -6   0   16.51    1.38 
  -3  -6   0   15.93    0.90 
   3  -6   0   15.00    1.30 
  -3  -6   0   14.93    1.31 
  -3  -6   0   13.57    1.38 
  -3   6   0   14.51    0.82 
  -3   6   0   14.34    0.79 
   3   6   0   14.43    1.01 
   3   6   0   14.37    1.35 
  -3   6   0   14.51    1.37 
   3   6   0   13.23    1.31 
  -3   6   0   15.46    1.48 
  -3   6   0   13.30    1.15 
   3   6   0   15.99    1.37 
  -3   6   0   14.77    1.28 
   3   6   0   14.65    0.79 
   3   6   0   13.07    1.22 
   4  -6   0   29.58    1.83 
   4  -6   0   31.73    1.91 
   4  -6   0   31.94    2.04 
   4  -6   0   30.38    1.75 
  -4  -6   0   31.23    1.82 
  -4  -6   0   32.07    1.99 
  -4  -6   0   32.07    1.47 
  -4   6   0   36.96    1.88 
   4   6   0   31.34    1.85 
   4   6   0   31.25    1.44 
   4   6   0   29.84    1.90 
  -4   6   0   32.30    1.88 
  -4   6   0   29.92    1.91 
   4   6   0   34.90    1.94 
   4   6   0   32.01    1.97 
  -4   6   0   30.61    2.03 
   5  -6   0    6.01    1.07 
   5  -6   0    9.07    1.34 
  -5  -6   0    7.01    1.07 
  -5  -6   0    8.30    1.30 
  -5  -6   0    5.31    0.71 
   5  -6   0    5.72    1.11 
   5   6   0    7.31    1.16 
  -5   6   0    7.28    1.24 
  -5   6   0    6.82    1.22 
  -5   6   0    7.52    1.35 
   5   6   0    6.21    0.78 
   5   6   0    6.36    1.22 
  -5   6   0    9.28    1.24 
   6  -6   0    2.88    0.89 
   6  -6   0    2.60    0.85 
  -6  -6   0    2.78    0.61 
  -6  -6   0    2.21    0.89 
  -6  -6   0    3.40    0.79 
  -6   6   0    2.99    1.53 
   6   6   0    2.78    0.69 
   6   6   0    2.20    0.76 
  -6   6   0    2.54    0.95 
  -6   6   0    2.49    0.91 
   6   6   0    1.51    0.77 
  -7  -6   0    8.10    1.00 
   7  -6   0    8.62    1.34 
  -7  -6   0    8.67    1.51 
   7  -6   0    6.94    1.16 
  -7   6   0    8.08    1.39 
   7   6   0    7.95    0.99 
   7   6   0    6.92    0.87 
  -7   6   0    9.41    1.43 
   7   6   0    5.65    1.12 
   8  -6   0   11.73    1.44 
   8  -6   0   12.67    1.35 
  -8  -6   0   10.88    1.04 
  -8  -6   0   10.90    1.61 
   8   6   0   11.07    1.08 
  -8   6   0   10.68    1.42 
   8   6   0   12.69    1.83 
   8   6   0   12.04    0.99 
   8   6   0   11.63    1.10 
  -8   6   0   12.74    1.81 
   9  -6   0    1.58    0.73 
   9  -6   0    0.25    0.72 
  -9  -6   0   -0.22    0.86 
  -9  -6   0    0.49    0.52 
   9   6   0    0.24    0.53 
   9   6   0    0.24    0.51 
   9   6   0    1.03    0.60 
  -9   6   0    0.24    0.72 
   9   6   0    0.95    0.73 
  -9   6   0   -0.44    0.61 
  10  -6   0    3.88    0.98 
 -10  -6   0    6.49    0.76 
 -10  -6   0    2.30    1.11 
  10   6   0    5.43    1.06 
   0  -7   0    0.28    0.71 
   0  -7   0    0.66    0.62 
   0  -7   0   -0.31    0.57 
   0  -7   0   -0.28    0.43 
   0   7   0   -0.33    0.43 
   0   7   0   -1.18    0.49 
   0   7   0   -0.69    0.32 
   0   7   0    0.17    0.51 
   0   7   0   -0.14    0.47 
  -1  -7   0    6.10    0.98 
   1  -7   0    5.22    0.91 
   1  -7   0    4.72    1.13 
   1  -7   0    4.91    1.02 
  -1  -7   0    4.80    1.01 
  -1  -7   0    4.80    1.07 
  -1  -7   0    3.31    1.04 
   1  -7   0    5.71    1.32 
  -1   7   0    5.67    0.91 
   1   7   0    4.16    0.72 
  -1   7   0    4.12    0.89 
   1   7   0    4.26    0.96 
   1   7   0    5.26    0.94 
  -1   7   0    5.06    0.83 
   1   7   0    4.64    0.82 
  -1   7   0    6.58    0.96 
  -1   7   0    4.46    1.21 
   1   7   0    4.82    1.22 
  -2  -7   0    3.44    1.05 
   2  -7   0    6.03    0.97 
   2  -7   0    6.73    1.12 
  -2  -7   0    5.06    0.85 
   2  -7   0    5.20    1.05 
   2  -7   0    5.82    1.24 
  -2  -7   0    6.21    1.08 
  -2  -7   0    7.62    1.36 
   2   7   0    5.57    0.99 
  -2   7   0    7.60    1.04 
  -2   7   0    3.35    0.99 
   2   7   0    5.94    0.88 
  -2   7   0    5.47    0.77 
   2   7   0    5.65    0.65 
  -2   7   0    4.76    0.77 
  -2   7   0    6.33    0.99 
   2   7   0    6.23    1.27 
  -3  -7   0    8.02    1.24 
  -3  -7   0    9.59    1.45 
   3  -7   0    9.38    1.29 
   3  -7   0    7.94    1.36 
   3  -7   0    9.36    1.63 
  -3  -7   0    6.21    0.86 
  -3  -7   0    9.94    0.74 
   3   7   0    7.75    1.28 
  -3   7   0    7.99    0.67 
  -3   7   0    9.01    1.23 
   3   7   0    7.60    1.17 
  -3   7   0    7.39    1.33 
  -3   7   0    7.01    0.69 
  -3   7   0    5.41    1.01 
   3   7   0    6.50    0.82 
   4  -7   0    1.17    0.84 
  -4  -7   0    2.87    0.96 
   4  -7   0    1.98    0.76 
  -4  -7   0    2.06    0.60 
   4  -7   0    1.39    0.79 
   4  -7   0    3.42    0.95 
  -4   7   0    1.29    0.72 
   4   7   0    2.02    0.93 
   4   7   0    1.30    0.57 
   4   7   0    2.47    0.88 
  -4   7   0    0.65    0.74 
  -4   7   0    0.56    0.68 
  -5  -7   0    3.77    0.97 
  -5  -7   0    3.50    0.71 
   5  -7   0    2.37    0.91 
  -5  -7   0    2.82    0.96 
   5  -7   0    2.17    0.84 
   5   7   0    3.80    1.12 
  -5   7   0    2.09    1.00 
   5   7   0    2.55    0.91 
  -5   7   0    3.80    1.02 
   5   7   0    3.77    0.71 
  -6  -7   0    1.06    0.72 
   6  -7   0    1.10    0.73 
   6  -7   0    2.85    0.93 
  -6  -7   0    1.92    0.95 
   6   7   0    1.33    0.56 
   6   7   0    2.69    1.00 
   6   7   0    1.73    0.80 
  -6   7   0    1.38    0.85 
  -6   7   0    1.75    0.85 
  -7  -7   0   29.61    1.75 
   7  -7   0   25.00    1.84 
   7  -7   0   25.38    1.92 
   7   7   0   26.89    1.73 
   7   7   0   25.75    2.02 
   7   7   0   23.12    1.29 
  -7   7   0   25.60    1.97 
  -7   7   0   24.06    2.01 
   8  -7   0    0.32    0.71 
   8  -7   0    1.09    0.83 
  -8  -7   0    0.61    0.78 
  -8  -7   0    1.58    0.65 
   8   7   0    0.03    0.47 
   8   7   0   -0.06    0.63 
  -8   7   0    0.24    0.74 
   8   7   0   -0.01    0.76 
  -8   7   0    0.21    0.74 
   0  -8   0  101.83    4.19 
   0  -8   0  110.25    4.23 
   0  -8   0  105.81    3.46 
   0  -8   0  104.90    3.83 
   0   8   0  104.18    3.52 
   0   8   0  104.11    3.29 
   0   8   0  109.11    3.56 
   0   8   0  107.49    3.62 
   0   8   0  109.56    4.36 
  -1  -8   0    2.33    0.82 
  -1  -8   0    0.70    0.90 
   1  -8   0    0.25    0.77 
   1  -8   0    1.17    0.63 
  -1  -8   0    2.82    0.78 
   1  -8   0    0.58    0.71 
   1  -8   0    0.27    0.76 
  -1  -8   0   -0.48    0.67 
  -1   8   0    1.37    0.62 
   1   8   0    0.24    0.56 
  -1   8   0   -0.05    0.50 
   1   8   0   -0.01    0.69 
  -1   8   0    0.60    0.58 
  -1   8   0    0.29    0.62 
  -1   8   0    0.08    0.72 
   1   8   0    1.03    0.53 
   1   8   0    1.36    0.71 
   2  -8   0    0.90    0.65 
  -2  -8   0    0.76    0.57 
  -2  -8   0    1.90    0.81 
   2  -8   0   -0.06    0.73 
  -2  -8   0    1.25    0.78 
  -2  -8   0    0.22    0.72 
   2  -8   0    1.74    0.76 
   2   8   0    1.79    0.91 
  -2   8   0    0.52    0.49 
   2   8   0    0.55    0.43 
  -2   8   0    0.36    0.63 
  -2   8   0    0.22    0.68 
  -2   8   0    0.12    0.58 
   2   8   0    0.76    0.66 
  -2   8   0    0.39    0.45 
   3  -8   0    0.41    0.75 
   3  -8   0   -0.32    0.77 
   3  -8   0   -0.07    0.54 
  -3  -8   0   -0.01    0.65 
  -3  -8   0    1.24    0.56 
  -3  -8   0    0.01    0.72 
   3   8   0    1.13    0.87 
   3   8   0   -0.09    0.58 
   3   8   0    0.18    0.48 
  -3   8   0    0.09    0.34 
  -3   8   0    1.60    0.84 
  -3   8   0    0.37    0.67 
  -3   8   0   -0.61    0.35 
  -4  -8   0   31.08    1.51 
  -4  -8   0   34.59    2.36 
   4  -8   0   35.31    2.26 
  -4  -8   0   27.07    2.02 
   4  -8   0   31.97    1.98 
  -4   8   0   32.14    2.36 
  -4   8   0   33.52    2.06 
   4   8   0   35.66    2.25 
   4   8   0   37.01    2.29 
   4   8   0   32.89    1.54 
   5  -8   0    0.13    0.74 
  -5  -8   0    1.36    0.81 
   5  -8   0    0.36    0.79 
  -5  -8   0   -1.11    0.78 
  -5   8   0    0.95    0.68 
   5   8   0    0.16    0.50 
   5   8   0   -0.56    0.66 
  -5   8   0   -0.48    0.73 
   5   8   0    0.34    0.69 
   6  -8   0    0.11    0.88 
  -6  -8   0   -0.15    0.82 
  -6  -8   0   -0.05    0.56 
  -6  -8   0    1.39    0.80 
   6  -8   0    0.24    0.68 
  -6   8   0    0.58    0.73 
  -6   8   0    0.82    0.72 
   6   8   0    0.88    0.50 
   6   8   0    0.69    0.79 
   0  -9   0    0.29    0.92 
   0  -9   0   -0.64    0.93 
   0  -9   0    4.12    0.98 
   0   9   0   -0.42    0.55 
   0   9   0   -0.65    0.57 
   0   9   0    0.93    0.86 
   1  -9   0    4.49    1.03 
   1  -9   0    2.56    1.16 
  -1  -9   0    3.23    0.86 
  -1  -9   0    3.64    1.06 
  -1   9   0    2.51    0.77 
  -1   9   0    2.90    0.78 
   1   9   0    1.99    1.09 
   1   9   0    2.94    1.03 
  -1   9   0    2.17    0.86 
   1   9   0    3.14    0.80 
  -2  -9   0   -0.89    0.85 
   2  -9   0    0.58    1.18 
   2  -9   0    0.79    0.72 
  -2   9   0    0.38    0.67 
  -2   9   0    0.42    0.51 
   2   9   0    0.07    0.69 
  -2   9   0    0.23    0.88 
   2   9   0   -0.49    0.51 
   2   9   0    0.77    0.92 
   3  -9   0    4.62    1.08 
  -3   9   0    7.17    1.57 
   3   9   0    6.90    1.20 
   3   9   0    6.18    0.93 
  13   0  -1    4.13    1.09 
  13   0  -1    2.76    0.78 
  13   0  -1    4.33    1.00 
  13   0  -1    4.69    0.99 
  12   0  -1    7.73    1.06 
  12   0  -1    8.36    1.20 
  12   0  -1    7.56    1.34 
  12   0  -1    7.14    1.11 
  12   0  -1    9.50    1.18 
  12   0  -1   12.16    1.11 
  11   0  -1    4.72    0.94 
  11   0  -1    4.85    0.85 
  11   0  -1    3.35    0.76 
  11   0  -1    2.89    0.75 
  11   0  -1    2.72    0.93 
  11   0  -1    3.00    0.84 
  10   0  -1    8.58    1.25 
  10   0  -1    9.94    0.97 
  10   0  -1    8.60    1.05 
  10   0  -1    9.40    1.07 
  10   0  -1   11.62    1.06 
  10   0  -1   13.55    1.38 
  10   0  -1   10.04    0.99 
  10   0  -1    9.77    1.12 
   9   0  -1    9.55    1.14 
   9   0  -1   10.55    0.99 
   9   0  -1   10.08    1.03 
   9   0  -1   11.00    1.13 
   9   0  -1   10.14    1.04 
   9   0  -1   10.39    0.97 
   9   0  -1   10.40    0.93 
   9   0  -1   11.69    1.23 
   8   0  -1   55.47    2.26 
   8   0  -1   55.03    2.39 
   8   0  -1   57.24    2.45 
   8   0  -1   55.23    2.22 
   8   0  -1   53.53    2.24 
   8   0  -1   57.86    2.11 
   8   0  -1   56.84    2.10 
   7   0  -1   24.53    1.51 
   7   0  -1   25.90    1.38 
   7   0  -1   25.11    1.26 
   7   0  -1   26.65    1.53 
   7   0  -1   25.70    1.40 
   7   0  -1   27.13    1.41 
   7   0  -1   27.54    1.29 
   6   0  -1   11.83    1.03 
  -6   0   1    9.37    0.75 
   6   0  -1   12.67    0.81 
   6   0  -1   11.26    0.88 
   6   0  -1    9.18    0.44 
   6   0  -1    9.60    0.77 
   6   0  -1    9.59    0.92 
   6   0  -1   11.03    0.91 
   6   0  -1    9.53    0.51 
   5   0  -1   92.04    2.84 
   5   0  -1   94.99    2.69 
   5   0  -1   91.48    2.82 
   5   0  -1   92.32    2.27 
  -5   0   1   86.13    2.56 
   5   0  -1   87.25    2.54 
   5   0  -1   80.51    2.15 
   5   0  -1   93.39    2.55 
   5   0  -1   87.37    2.65 
  -4   0   1   17.08    0.91 
   4   0  -1   17.53    0.91 
   4   0  -1   16.99    0.89 
   4   0  -1   17.31    1.01 
   4   0  -1   18.00    0.71 
  -4   0   1   17.59    0.87 
   4   0  -1   18.69    1.03 
   4   0  -1   18.17    0.86 
   4   0  -1   18.16    0.66 
   4   0  -1   19.15    0.85 
   3   0  -1  131.12    3.01 
   3   0  -1  129.88    3.37 
   3   0  -1  130.13    3.04 
   3   0  -1  126.35    3.15 
   3   0  -1  127.30    3.22 
  -3   0   1  130.16    3.26 
  -3   0   1  132.34    3.21 
   3   0  -1  129.16    3.09 
   3   0  -1  130.19    3.37 
   3   0  -1  132.81    3.20 
  -2   0   1   50.03    1.41 
   2   0  -1   49.46    1.32 
   2   0  -1   50.02    1.30 
  -2   0   1   48.11    1.38 
   2   0  -1   48.68    1.38 
  -2   0   1   51.81    1.53 
   2   0  -1   50.29    1.51 
   2   0  -1   49.09    1.40 
   2   0  -1   51.16    1.35 
   2   0  -1   50.42    1.26 
   1   0  -1   22.89    0.68 
   1   0  -1   21.22    0.69 
  -1   0   1   22.45    0.68 
   1   0  -1   23.96    0.76 
   1   0  -1   23.27    0.74 
  -1   0   1   21.67    0.70 
  -1   0   1   22.40    0.75 
  -1   0  -1   68.80    1.81 
  -1   0  -1   68.75    1.68 
   1   0   1   71.75    1.72 
   1   0   1   70.06    1.69 
  -1   0  -1   69.25    1.71 
  -1   0  -1   70.59    1.75 
   1   0   1   68.94    1.81 
   1   0   1   71.25    1.69 
   1   0   1   68.42    1.74 
  -1   0  -1   72.62    1.69 
   2   0   1   64.74    1.73 
  -2   0  -1   63.50    1.87 
  -2   0  -1   63.86    1.70 
   2   0   1   64.92    1.90 
   2   0   1   64.24    1.55 
   2   0   1   64.74    1.70 
   2   0   1   63.22    1.77 
  -2   0  -1   64.33    1.73 
  -2   0  -1   62.96    1.53 
   3   0   1   68.95    1.62 
   3   0   1   68.43    1.97 
   3   0   1   69.03    2.13 
   3   0   1   69.83    2.02 
  -3   0  -1   65.23    1.60 
  -3   0  -1   67.61    2.01 
   3   0   1   66.95    1.90 
  -3   0  -1   67.07    1.97 
   4   0   1   13.13    0.82 
   4   0   1   13.42    0.89 
   4   0   1   13.18    0.82 
   4   0   1   12.37    0.94 
  -4   0  -1   12.50    0.45 
   4   0   1   12.95    0.71 
  -4   0  -1   14.60    0.87 
   4   0   1   13.54    0.75 
   5   0   1  302.77    7.33 
   5   0   1  286.68    7.41 
   5   0   1  306.94    7.13 
   5   0   1  304.82    7.35 
   5   0   1  307.70    7.29 
   5   0   1  311.21    7.09 
  -5   0  -1  300.26    7.30 
   5   0   1  306.49    7.31 
   6   0   1   32.97    1.54 
  -6   0  -1   33.20    1.56 
   6   0   1   33.62    1.55 
   6   0   1   33.06    1.54 
   6   0   1   33.02    1.37 
   6   0   1   34.39    1.58 
   6   0   1   31.05    1.38 
   6   0   1   32.88    1.68 
   7   0   1   19.93    1.29 
   7   0   1   19.74    1.26 
   7   0   1   18.55    1.11 
   7   0   1   18.30    1.37 
   7   0   1   19.71    1.23 
   7   0   1   18.04    1.24 
   7   0   1   18.95    1.08 
   8   0   1   18.84    1.30 
   8   0   1   18.89    1.13 
   8   0   1   18.84    1.20 
   8   0   1   19.76    1.36 
   8   0   1   21.89    1.39 
   8   0   1   18.12    1.46 
   8   0   1   17.29    1.30 
   9   0   1   38.04    2.02 
   9   0   1   37.98    1.93 
   9   0   1   35.70    1.91 
   9   0   1   36.71    1.96 
   9   0   1   35.03    1.66 
   9   0   1   35.26    2.03 
   9   0   1   38.24    1.96 
   9   0   1   40.82    1.81 
  10   0   1    5.16    0.82 
  10   0   1    6.27    1.12 
  10   0   1    5.59    1.01 
  10   0   1    6.67    0.86 
  10   0   1    6.97    1.18 
  10   0   1    5.29    1.01 
  10   0   1    6.19    1.03 
  10   0   1    4.43    1.09 
  11   0   1   16.14    1.44 
  11   0   1   14.46    1.44 
  11   0   1   17.26    1.55 
  11   0   1   14.28    1.19 
  11   0   1   15.58    1.41 
  11   0   1   16.97    1.26 
  12   0   1    2.54    0.92 
  12   0   1    2.11    0.76 
  12   0   1    5.57    1.13 
  12   0   1    3.42    0.99 
  13   0   1   14.51    1.59 
  13   0   1   10.86    1.17 
  13   0   1   10.75    1.34 
  13   0   1   12.47    1.49 
  13  -1  -1    2.62    1.02 
  13  -1  -1    5.21    0.87 
  13  -1  -1    3.31    0.90 
  13  -1  -1    4.11    1.01 
  13   1  -1    3.33    1.14 
  13   1  -1    4.07    0.97 
  13   1  -1    2.63    0.90 
  13   1  -1    5.52    1.06 
  12  -1  -1    8.81    1.09 
  12  -1  -1   11.14    0.97 
  12  -1  -1   10.85    1.45 
  12  -1  -1    8.75    1.15 
  12  -1  -1   10.05    1.00 
  12  -1  -1    7.83    1.38 
  12   1  -1   10.38    1.36 
  12   1  -1    9.46    1.17 
  12   1  -1    9.63    1.38 
  12   1  -1   11.59    1.22 
  12   1  -1   10.03    1.17 
  11  -1  -1    3.59    1.01 
  11  -1  -1    3.55    0.76 
  11  -1  -1    4.56    0.90 
  11  -1  -1    3.75    0.67 
  11  -1  -1    4.64    0.88 
  11  -1  -1    2.84    1.01 
  11   1  -1    2.37    0.73 
  11   1  -1    3.45    0.83 
  11   1  -1    2.98    0.96 
  11   1  -1    4.61    0.94 
  11   1  -1    2.41    0.90 
  11   1  -1    2.42    0.79 
  10  -1  -1    3.28    0.68 
  10  -1  -1    4.81    0.92 
  10  -1  -1    3.81    0.85 
  10  -1  -1    4.68    1.08 
  10  -1  -1    4.57    0.88 
  10  -1  -1    4.46    0.74 
  10   1  -1    3.67    0.85 
  10   1  -1    4.34    0.81 
  10   1  -1    3.28    0.79 
  10   1  -1    3.81    0.82 
  10   1  -1    4.24    0.95 
  10   1  -1    3.45    0.93 
   9  -1  -1   48.26    1.84 
   9  -1  -1   53.47    1.61 
   9  -1  -1   48.71    2.32 
   9  -1  -1   51.64    2.12 
   9  -1  -1   56.16    1.99 
   9  -1  -1   51.74    2.36 
   9  -1  -1   46.41    1.46 
   9  -1  -1   44.49    2.37 
   9  -1  -1   52.96    2.50 
   9  -1  -1   56.12    2.19 
   9   1  -1   52.07    2.12 
   9   1  -1   54.58    2.24 
   9   1  -1   56.83    2.25 
   9   1  -1   55.40    2.41 
   9   1  -1   52.33    2.26 
   9   1  -1   54.15    2.42 
   9   1  -1   51.50    2.34 
   9   1  -1   52.87    2.19 
   8  -1  -1   22.61    1.11 
   8  -1  -1   22.66    1.60 
   8  -1  -1   22.83    1.46 
   8  -1  -1   21.79    1.30 
   8  -1  -1   23.32    1.33 
   8  -1  -1   20.88    1.51 
   8  -1  -1   23.71    0.95 
   8  -1  -1   22.45    1.45 
   8   1  -1   23.21    1.39 
   8   1  -1   20.91    1.45 
   8   1  -1   25.05    1.37 
   8   1  -1   21.22    1.46 
   8   1  -1   22.13    1.28 
   8   1  -1   20.75    1.28 
   8   1  -1   22.96    1.45 
   7  -1  -1    4.74    0.95 
   7  -1  -1    4.96    0.55 
   7  -1  -1    3.72    0.74 
   7  -1  -1    3.89    0.46 
   7  -1  -1    5.91    0.73 
   7   1  -1    4.58    0.71 
   7   1  -1    5.49    0.69 
   7   1  -1    5.32    0.88 
  -7   1   1    4.75    0.54 
   7   1  -1    5.89    0.95 
   7   1  -1    4.21    0.85 
   7   1  -1    4.56    0.71 
   7   1  -1    4.82    0.80 
   6  -1  -1  127.78    3.28 
  -6  -1   1  131.18    3.75 
   6  -1  -1  130.47    3.82 
   6  -1  -1  131.21    3.32 
   6  -1  -1  130.35    3.91 
   6  -1  -1  129.01    3.54 
   6   1  -1  123.01    3.66 
   6   1  -1  133.31    3.80 
  -6   1   1  132.74    3.88 
   6   1  -1  127.64    3.56 
   6   1  -1  127.31    3.54 
  -6   1   1  128.66    3.33 
  -6   1   1  131.42    3.62 
   6   1  -1  130.79    3.82 
  -5  -1   1   23.22    1.24 
   5  -1  -1   26.14    1.07 
   5  -1  -1   28.57    1.02 
   5  -1  -1   24.47    1.36 
   5  -1  -1   27.60    1.36 
  -5  -1   1   28.97    1.31 
   5  -1  -1   27.74    1.20 
  -5   1   1   28.96    1.37 
   5   1  -1   28.78    1.32 
  -5   1   1   27.83    1.27 
   5   1  -1   28.28    1.19 
   5   1  -1   27.24    1.19 
   5   1  -1   27.63    0.80 
   5   1  -1   27.90    1.18 
  -5   1   1   29.35    1.05 
  -5   1   1   26.35    1.08 
   5   1  -1   28.48    0.83 
   5   1  -1   28.19    1.30 
   5   1  -1   25.80    1.31 
  -4  -1   1   44.55    1.57 
  -4  -1   1   42.91    1.64 
   4  -1  -1   46.37    1.33 
  -4  -1   1   44.55    1.65 
   4  -1  -1   46.32    1.47 
   4  -1  -1   47.07    1.76 
   4  -1  -1   45.93    1.48 
  -4  -1   1   43.49    1.31 
  -4   1   1   42.31    1.53 
  -4   1   1   45.67    1.69 
   4   1  -1   45.33    1.68 
  -4   1   1   44.08    1.47 
   4   1  -1   43.83    1.44 
   4   1  -1   44.38    1.51 
   4   1  -1   45.31    1.46 
  -4   1   1   45.65    1.75 
  -4   1   1   45.72    1.32 
   4   1  -1   45.31    1.65 
   4   1  -1   45.36    1.23 
  -3  -1   1    3.70    0.39 
   3  -1  -1    4.12    0.33 
   3  -1  -1    3.37    0.39 
  -3  -1   1    3.64    0.51 
   3  -1  -1    3.73    0.52 
  -3  -1   1    3.76    0.50 
   3  -1  -1    3.26    0.49 
  -3  -1   1    3.85    0.49 
   3  -1  -1    3.71    0.46 
  -3   1   1    5.81    0.72 
  -3   1   1    3.11    0.45 
   3   1  -1    3.34    0.42 
   3   1  -1    3.93    0.38 
  -3   1   1    4.01    0.48 
   3   1  -1    4.05    0.39 
  -3   1   1    3.71    0.33 
   3   1  -1    3.59    0.52 
  -3   1   1    3.66    0.48 
   3   1  -1    4.43    0.59 
   3   1  -1    3.22    0.35 
   2  -1  -1  267.95    6.14 
   2  -1  -1  272.35    5.90 
   2  -1  -1  263.24    6.05 
  -2  -1   1  262.37    5.92 
   2  -1  -1  262.94    5.79 
  -2  -1   1  271.50    6.14 
  -2  -1   1  268.04    5.98 
  -2  -1   1  265.33    6.08 
   2  -1  -1  262.83    6.09 
   2   1  -1  265.23    5.96 
   2   1  -1  260.25    6.10 
   2   1  -1  270.34    5.76 
  -2   1   1  265.26    6.10 
  -2   1   1  268.25    5.90 
   2   1  -1  263.65    5.91 
  -2   1   1  269.21    6.08 
  -2   1   1  272.14    6.14 
   2   1  -1  267.11    6.11 
   2   1  -1  265.07    5.75 
  -2   1   1  262.76    5.75 
  -1  -1   1   14.56    0.63 
  -1  -1   1   14.70    0.68 
  -1  -1   1   13.58    0.78 
   1  -1  -1   14.72    0.64 
   1  -1  -1   14.86    0.67 
   1  -1  -1   14.88    0.70 
   1  -1  -1   14.16    0.53 
   1  -1  -1   15.50    0.59 
  -1   1   1   14.98    0.56 
  -1   1   1   14.66    0.70 
   1   1  -1   15.22    0.66 
   1   1  -1   14.42    0.66 
  -1   1   1   14.24    0.58 
  -1   1   1   14.48    0.64 
   1   1  -1   14.22    0.62 
   1   1  -1   14.30    0.90 
  -1   1   1   14.31    0.66 
   0  -1   1   31.12    1.00 
   0  -1  -1   32.18    1.00 
   0  -1  -1   33.00    0.99 
   0  -1  -1   32.21    0.97 
   0  -1   1   31.64    1.05 
   0  -1   1   32.21    1.04 
   0  -1   1   33.52    0.86 
   0  -1   1   31.74    0.95 
   0  -1  -1   27.65    0.81 
   0   1   1   31.52    0.99 
   0   1   1   31.38    0.96 
   0   1  -1   31.85    0.94 
   0   1  -1   32.53    1.06 
   0   1   1   32.29    0.98 
   0   1   1   33.75    1.07 
   0   1  -1   31.99    1.01 
   0   1  -1   32.28    1.05 
   0   1   1   33.16    0.84 
  -1  -1  -1    6.26    0.53 
  -1  -1  -1    5.70    0.46 
   1  -1   1    5.46    0.47 
   1  -1   1    5.62    0.42 
   1  -1   1    5.32    0.47 
   1  -1   1    5.35    0.33 
   1  -1   1    5.77    0.50 
   1  -1   1    5.83    0.43 
  -1  -1  -1    5.30    0.49 
  -1   1  -1    5.60    0.49 
   1   1   1    5.95    0.47 
   1   1   1    4.75    0.60 
  -1   1  -1    5.29    0.35 
  -1   1  -1    5.41    0.49 
   1   1   1    5.25    0.47 
   1   1   1    5.75    0.43 
  -1   1  -1    5.59    0.49 
  -2  -1  -1  271.22    6.02 
   2  -1   1  273.75    5.94 
  -2  -1  -1  273.45    6.16 
   2  -1   1  278.58    6.32 
   2  -1   1  279.26    6.28 
   2  -1   1  271.21    6.18 
   2  -1   1  279.44    6.30 
   2  -1   1  269.18    6.29 
  -2  -1  -1  275.33    6.31 
   2   1   1  276.71    6.30 
  -2   1  -1  273.07    6.31 
  -2   1  -1  279.86    6.34 
   2   1   1  271.78    5.97 
   2   1   1  265.77    6.28 
   2   1   1  269.06    5.97 
  -2   1  -1  275.72    6.19 
   2   1   1  275.20    6.02 
  -2   1  -1  270.09    5.91 
   2   1   1  283.10    6.20 
   3  -1   1    1.94    0.44 
  -3  -1  -1    1.61    0.24 
   3  -1   1    1.37    0.37 
   3  -1   1    1.77    0.35 
  -3  -1  -1    1.21    0.42 
   3  -1   1    1.66    0.47 
   3  -1   1    1.20    0.40 
   3  -1   1    1.84    0.27 
  -3  -1  -1    1.39    0.33 
   3   1   1    1.17    0.36 
   3   1   1    1.58    0.34 
  -3   1  -1    1.51    0.24 
   3   1   1    1.14    0.31 
  -3   1  -1    1.11    0.46 
   3   1   1    1.58    0.43 
   3   1   1    2.38    0.50 
   3   1   1    2.08    0.39 
  -3   1  -1    1.23    0.32 
   3   1   1    1.87    0.25 
  -3   1  -1    1.54    0.42 
  -4  -1  -1   22.58    1.20 
   4  -1   1   23.07    0.84 
   4  -1   1   21.02    0.80 
   4  -1   1   21.86    0.91 
   4  -1   1   22.01    1.14 
   4  -1   1   24.01    1.19 
   4  -1   1   22.46    1.13 
   4  -1   1   24.33    1.19 
  -4  -1  -1   22.40    1.04 
  -4   1  -1   21.95    1.17 
   4   1   1   20.71    1.09 
   4   1   1   22.19    1.12 
   4   1   1   24.07    1.02 
  -4   1  -1   20.42    0.88 
   4   1   1   22.40    1.00 
   4   1   1   20.59    1.06 
   4   1   1   22.04    1.02 
  -4   1  -1   24.42    1.26 
   5  -1   1   25.35    1.32 
   5  -1   1   26.02    1.01 
   5  -1   1   25.77    0.98 
   5  -1   1   26.50    1.36 
   5  -1   1   24.74    1.33 
   5  -1   1   26.94    1.37 
   5  -1   1   25.96    1.00 
  -5   1  -1   25.48    1.01 
   5   1   1   26.37    1.20 
   5   1   1   25.95    1.22 
   5   1   1   25.82    1.19 
   5   1   1   24.45    1.25 
   5   1   1   25.56    1.29 
  -5   1  -1   25.87    1.37 
  -5   1  -1   25.96    1.41 
   5   1   1   26.41    1.26 
   6  -1   1  173.05    4.84 
   6  -1   1  171.06    4.29 
   6  -1   1  178.09    4.84 
   6  -1   1  175.54    4.86 
   6  -1   1  176.06    4.16 
   6  -1   1  178.19    4.27 
   6  -1   1  173.66    4.84 
   6   1   1  175.21    4.62 
   6   1   1  178.28    4.96 
  -6   1  -1  174.76    4.87 
   6   1   1  175.29    4.63 
  -6   1  -1  175.99    4.18 
   6   1   1  174.95    4.74 
   6   1   1  176.01    4.72 
   6   1   1  175.46    4.63 
   6   1   1  159.48    4.60 
  -6   1  -1  173.78    4.90 
   7  -1   1    2.51    0.52 
   7  -1   1    2.36    0.39 
   7  -1   1    2.27    0.70 
   7  -1   1    1.81    0.59 
   7  -1   1    2.80    0.50 
   7  -1   1    2.03    0.65 
   7  -1   1    3.17    0.74 
   7   1   1    2.38    0.60 
   7   1   1    1.15    0.46 
   7   1   1    2.30    0.62 
   7   1   1    1.91    0.62 
   7   1   1    3.68    0.71 
   7   1   1    2.13    0.59 
  -7   1  -1    2.53    0.42 
   7   1   1    2.87    0.82 
  -7   1  -1    3.44    0.73 
   7   1   1    2.33    0.59 
   8  -1   1   15.10    1.23 
   8  -1   1   16.46    0.97 
   8  -1   1   15.83    1.32 
   8  -1   1   14.86    0.68 
   8  -1   1   12.20    0.91 
   8  -1   1   14.85    1.26 
   8  -1   1   16.81    1.33 
   8  -1   1   14.74    1.27 
   8   1   1   15.05    1.23 
   8   1   1   15.12    1.39 
   8   1   1   17.48    1.19 
   8   1   1   14.05    1.14 
   8   1   1   15.73    1.21 
  -8   1  -1   16.08    0.71 
   8   1   1   15.40    1.16 
  -8   1  -1   16.83    1.36 
   8   1   1   17.09    1.20 
   8   1   1   14.70    1.11 
   9  -1   1   34.02    1.89 
   9  -1   1   36.04    1.98 
   9  -1   1   34.66    1.48 
   9  -1   1   38.18    2.00 
   9  -1   1   38.22    2.00 
   9  -1   1   34.14    1.97 
   9  -1   1   35.60    1.55 
   9   1   1   35.22    1.81 
   9   1   1   40.69    1.98 
   9   1   1   32.23    2.01 
   9   1   1   37.05    1.89 
   9   1   1   37.11    1.88 
   9   1   1   36.25    1.77 
   9   1   1   34.65    1.85 
   9   1   1   33.11    1.77 
  10  -1   1    4.41    1.02 
  10  -1   1    4.07    0.71 
  10  -1   1    6.24    0.79 
  10  -1   1    4.88    1.00 
  10  -1   1    5.01    1.02 
  10   1   1    3.94    0.90 
  10   1   1    4.50    0.93 
  10   1   1    4.46    0.86 
  10   1   1    4.51    0.91 
  10   1   1    3.41    0.83 
  10   1   1    3.54    1.05 
  10   1   1    3.69    0.84 
  10   1   1    4.62    0.93 
  11  -1   1    5.25    1.03 
  11  -1   1    2.14    0.65 
  11  -1   1    5.84    1.25 
  11  -1   1    2.63    0.94 
  11  -1   1    3.84    0.74 
  11  -1   1    2.48    0.85 
  11   1   1    3.38    0.97 
  11   1   1    3.32    0.89 
  11   1   1    3.73    1.02 
  11   1   1    3.41    0.90 
  11   1   1    5.08    1.18 
  11   1   1    3.25    0.87 
  12  -1   1   34.30    2.27 
  12  -1   1   35.72    2.20 
  12  -1   1   32.50    1.66 
  12  -1   1   37.64    1.66 
  12  -1   1   34.40    2.11 
  12   1   1   31.76    2.19 
  12   1   1   38.23    2.06 
  12   1   1   36.83    2.08 
  12   1   1   36.12    2.15 
  13  -1   1   13.51    1.49 
  13  -1   1   13.04    1.63 
  13  -1   1   15.58    1.60 
  13  -1   1   15.52    1.14 
  13   1   1   15.97    1.62 
  13   1   1   14.33    1.68 
  13   1   1   13.70    1.37 
  13   1   1   13.58    1.43 
  13  -2  -1    7.03    1.55 
  13  -2  -1    4.11    0.91 
  13   2  -1    3.99    1.19 
  13   2  -1    2.76    1.14 
  13   2  -1    4.33    0.97 
  13   2  -1    3.08    0.92 
  12  -2  -1    1.95    0.73 
  12  -2  -1    2.46    1.04 
  12  -2  -1    0.97    0.79 
  12  -2  -1    1.08    0.78 
  12   2  -1    2.26    1.01 
  12   2  -1    3.97    0.82 
  12   2  -1    1.22    0.68 
  12   2  -1    3.73    1.00 
  11  -2  -1    9.41    0.76 
  11  -2  -1    6.81    1.23 
  11  -2  -1    7.46    1.00 
  11  -2  -1    9.07    1.23 
  11   2  -1    7.55    0.99 
  11   2  -1    6.69    1.10 
  11   2  -1    5.80    1.23 
  11   2  -1    8.07    1.12 
  11   2  -1    7.03    1.05 
  11   2  -1   11.29    1.34 
  10  -2  -1    1.35    0.76 
  10  -2  -1    1.44    0.45 
  10  -2  -1    1.40    0.65 
  10  -2  -1    1.94    0.80 
  10  -2  -1    0.75    0.73 
  10   2  -1    0.98    0.61 
  10   2  -1    0.95    0.68 
  10   2  -1    1.06    0.64 
 -10   2   1    0.98    0.50 
  10   2  -1    0.53    0.68 
  10   2  -1    1.91    0.88 
  10   2  -1    1.67    0.70 
  10   2  -1    1.72    0.74 
  10   2  -1    1.42    0.60 
   9  -2  -1   13.51    0.78 
   9  -2  -1   15.66    1.38 
   9  -2  -1   13.32    1.12 
   9  -2  -1   14.08    1.42 
   9  -2  -1   16.03    1.37 
   9  -2  -1   14.29    0.92 
   9   2  -1   12.37    1.25 
   9   2  -1   13.27    1.23 
   9   2  -1   16.04    1.11 
  -9   2   1   14.76    0.98 
   9   2  -1   15.00    1.40 
   9   2  -1   14.18    1.28 
   9   2  -1   13.30    1.13 
   9   2  -1   12.10    1.18 
   9   2  -1   13.48    1.05 
   8  -2  -1   35.80    1.66 
   8  -2  -1   35.18    1.47 
   8  -2  -1   35.13    1.23 
   8  -2  -1   34.31    1.91 
   8  -2  -1   33.53    1.95 
   8  -2  -1   35.11    1.26 
  -8   2   1   30.57    1.71 
   8   2  -1   32.78    1.53 
   8   2  -1   36.93    1.88 
  -8   2   1   36.07    1.51 
   8   2  -1   33.40    1.67 
   8   2  -1   34.66    1.58 
   8   2  -1   36.33    1.83 
   8   2  -1   35.01    1.77 
  -7  -2   1    8.01    0.98 
   7  -2  -1    7.97    0.97 
   7  -2  -1    8.88    1.04 
   7  -2  -1    6.99    0.70 
   7   2  -1    7.87    0.74 
   7   2  -1    7.95    0.83 
  -7   2   1    7.24    1.12 
   7   2  -1    6.82    0.86 
   7   2  -1    7.88    0.92 
   7   2  -1    6.33    0.79 
  -7   2   1    7.97    0.78 
  -7   2   1    7.64    0.95 
   7   2  -1    6.60    0.73 
   6  -2  -1   27.65    1.51 
   6  -2  -1   23.65    1.21 
   6  -2  -1   24.40    1.22 
  -6  -2   1   27.01    1.44 
   6  -2  -1   27.42    1.55 
  -6  -2   1   23.56    0.96 
  -6  -2   1   25.13    1.44 
  -6   2   1   25.16    1.53 
   6   2  -1   24.52    1.28 
   6   2  -1   26.45    1.16 
   6   2  -1   26.45    1.16 
  -6   2   1   27.41    1.42 
   6   2  -1   23.07    0.85 
  -6   2   1   26.25    1.48 
   6   2  -1   28.90    1.47 
   6   2  -1   26.48    1.43 
  -6   2   1   24.61    1.25 
  -5  -2   1   97.90    2.51 
   5  -2  -1   98.43    2.79 
   5  -2  -1   93.58    3.06 
   5  -2  -1   94.53    2.82 
   5  -2  -1   95.17    3.11 
  -5  -2   1   94.99    2.88 
   5   2  -1   88.30    2.92 
   5   2  -1   98.02    2.59 
   5   2  -1   93.77    2.56 
  -5   2   1   95.39    2.87 
  -5   2   1   97.06    3.09 
   5   2  -1   98.33    2.89 
  -5   2   1  100.10    3.18 
  -5   2   1   95.39    2.90 
   5   2  -1   96.86    3.03 
   5   2  -1   98.71    2.48 
  -4  -2   1   12.36    0.91 
  -4  -2   1   13.86    0.73 
   4  -2  -1   12.57    0.93 
   4  -2  -1   12.73    0.81 
  -4  -2   1   14.56    1.01 
   4  -2  -1   12.05    0.95 
   4  -2  -1   13.75    0.88 
  -4  -2   1   12.49    0.85 
   4   2  -1   13.15    0.65 
  -4   2   1   13.02    0.98 
   4   2  -1   12.10    0.90 
   4   2  -1   13.40    0.86 
  -4   2   1   13.91    0.89 
   4   2  -1   12.88    0.62 
  -4   2   1   13.51    0.91 
  -4   2   1   12.26    0.92 
   4   2  -1   13.18    0.71 
   4   2  -1   12.41    0.91 
   3  -2  -1   24.58    1.05 
  -3  -2   1   22.69    1.00 
   3  -2  -1   25.21    1.18 
  -3  -2   1   23.13    1.18 
  -3  -2   1   24.64    1.10 
   3  -2  -1   23.51    1.18 
  -3  -2   1   23.70    1.12 
   3  -2  -1   23.48    1.15 
  -3   2   1   24.72    1.08 
   3   2  -1   23.59    1.09 
  -3   2   1   25.22    1.19 
  -3   2   1   23.61    1.16 
   3   2  -1   24.72    0.76 
   3   2  -1   24.46    1.17 
  -3   2   1   22.98    1.18 
   3   2  -1   23.80    1.22 
   3   2  -1   23.59    1.00 
   2  -2  -1  472.99   10.30 
   2  -2  -1  465.46   10.46 
   2  -2  -1  474.20    9.90 
  -2  -2   1  466.74   10.32 
  -2  -2   1  456.12   10.44 
   2  -2  -1  459.67   10.35 
  -2  -2   1  465.82   10.38 
   2  -2  -1  460.91   10.40 
  -2  -2   1  480.45   10.42 
   2   2  -1  450.43   10.32 
  -2   2   1  461.05   10.47 
   2   2  -1  444.03   10.48 
  -2   2   1  462.52   10.28 
  -2   2   1  471.32    9.92 
  -2   2   1  467.23   10.38 
   2   2  -1  457.23   10.30 
  -2   2   1  459.85   10.40 
  -1  -2   1   33.22    1.23 
   1  -2  -1   32.82    1.22 
   1  -2  -1   33.88    1.16 
  -1  -2   1   33.31    1.37 
   1  -2  -1   31.87    1.31 
  -1  -2   1   31.83    1.26 
   1  -2  -1   33.32    1.04 
   1  -2  -1   31.88    1.21 
  -1  -2   1   32.11    1.25 
   1   2  -1   33.90    1.26 
  -1   2   1   31.98    1.19 
   1   2  -1   31.88    1.20 
  -1   2   1   32.12    1.03 
   1   2  -1   32.96    1.27 
  -1   2   1   32.10    1.15 
   1   2  -1   32.75    1.26 
  -1   2   1   33.32    1.22 
   0  -2   1    1.80    0.36 
   0  -2  -1    1.17    0.35 
   0  -2   1    1.02    0.37 
   0  -2  -1    0.94    0.37 
   0  -2   1    1.58    0.43 
   0  -2  -1    1.64    0.30 
   0  -2   1    1.22    0.38 
   0  -2   1    1.34    0.27 
   0  -2  -1    1.93    0.47 
   0   2   1    1.67    0.37 
   0   2  -1    1.81    0.44 
   0   2   1    2.04    0.50 
   0   2   1    0.96    0.36 
   0   2   1    1.38    0.36 
   0   2  -1    1.94    0.35 
   0   2  -1    1.91    0.30 
   0   2  -1    0.97    0.33 
   0   2  -1    2.55    0.51 
   0   2   1    1.78    0.32 
   1  -2   1   41.62    1.50 
  -1  -2  -1   43.46    1.52 
   1  -2   1   41.70    1.35 
   1  -2   1   41.08    1.21 
  -1  -2  -1   43.47    1.46 
  -1  -2  -1   40.33    1.49 
   1  -2   1   40.97    1.47 
  -1  -2  -1   41.73    1.20 
   1  -2   1   41.89    1.53 
   1   2   1   45.56    1.37 
   1   2   1   43.01    1.50 
  -1   2  -1   43.17    1.56 
   1   2   1   44.26    1.50 
  -1   2  -1   41.79    1.47 
  -1   2  -1   43.44    1.51 
  -1   2  -1   42.38    1.34 
  -1   2  -1   43.45    1.22 
   1   2   1   42.93    1.13 
   1   2   1   43.14    1.47 
   2  -2   1  535.19   11.79 
   2  -2   1  542.85   11.20 
   2  -2   1  525.42   11.69 
  -2  -2  -1  533.96   11.83 
   2  -2   1  521.46   11.78 
  -2  -2  -1  537.89   11.57 
   2  -2   1  524.57   11.80 
  -2  -2  -1  515.46   11.59 
  -2  -2  -1  520.54   11.26 
  -2   2  -1  534.86   11.82 
  -2   2  -1  530.66   11.70 
   2   2   1  528.72   11.84 
   2   2   1  502.80   11.58 
   2   2   1  534.64   11.80 
  -2   2  -1  531.02   11.78 
  -2   2  -1  521.71   11.80 
   2   2   1  525.62   11.78 
   2   2   1  531.76   11.35 
   3  -2   1   51.05    1.84 
  -3  -2  -1   51.29    1.88 
  -3  -2  -1   52.77    1.60 
   3  -2   1   52.26    1.80 
   3  -2   1   51.16    1.84 
   3  -2   1   52.38    1.89 
  -3  -2  -1   53.01    1.63 
  -3   2  -1   51.07    1.89 
  -3   2  -1   51.89    1.87 
   3   2   1   49.17    1.85 
   3   2   1   55.01    1.75 
   3   2   1   53.29    1.62 
   3   2   1   52.74    1.55 
   3   2   1   52.78    1.86 
  -3   2  -1   52.87    1.82 
   3   2   1   53.76    1.89 
  -4  -2  -1    3.55    0.41 
  -4  -2  -1    3.10    0.63 
   4  -2   1    2.98    0.55 
  -4  -2  -1    3.70    0.49 
   4  -2   1    3.57    0.65 
   4  -2   1    3.29    0.56 
   4  -2   1    4.73    0.71 
   4   2   1    3.52    0.65 
   4   2   1    2.44    0.51 
   4   2   1    3.95    0.44 
   4   2   1    3.70    0.50 
   4   2   1    3.82    0.47 
   4   2   1    4.04    0.65 
  -4   2  -1    3.66    0.58 
   4   2   1    4.20    0.58 
  -4   2  -1    5.31    0.84 
  -4   2  -1    5.09    0.80 
  -5  -2  -1  103.37    2.51 
   5  -2   1   99.82    3.21 
   5  -2   1  101.80    3.14 
  -5  -2  -1  100.11    2.89 
   5  -2   1  106.76    3.31 
  -5  -2  -1  103.43    3.24 
   5  -2   1  103.86    2.95 
   5   2   1  105.57    2.95 
   5   2   1  104.20    2.89 
  -5   2  -1  102.13    3.25 
  -5   2  -1   99.04    3.24 
   5   2   1  104.07    2.85 
   5   2   1  100.84    3.23 
   5   2   1   98.71    2.49 
  -5   2  -1   96.87    2.90 
   5   2   1  100.66    3.15 
   5   2   1  100.40    3.18 
   6  -2   1   84.46    2.83 
   6  -2   1   82.33    2.52 
  -6  -2  -1   81.72    2.92 
   6  -2   1   82.16    2.90 
   6  -2   1   83.38    2.94 
   6   2   1   82.70    2.57 
  -6   2  -1   79.80    2.92 
   6   2   1   84.00    2.91 
  -6   2  -1   81.43    2.94 
   6   2   1   81.36    2.81 
   6   2   1   81.82    2.62 
   6   2   1   81.02    2.80 
  -6   2  -1   83.07    2.55 
   7  -2   1   22.29    1.52 
   7  -2   1   23.22    1.49 
   7  -2   1   21.66    1.49 
   7  -2   1   27.23    1.23 
   7  -2   1   24.40    1.47 
  -7   2  -1   22.75    1.57 
   7   2   1   24.41    1.46 
   7   2   1   23.47    1.47 
  -7   2  -1   23.98    1.20 
  -7   2  -1   22.08    1.52 
   7   2   1   23.07    1.27 
   7   2   1   25.82    1.35 
   7   2   1   27.75    1.41 
   7   2   1   22.70    1.44 
   8  -2   1   16.76    1.41 
   8  -2   1   14.35    1.26 
   8  -2   1   13.70    0.91 
   8  -2   1   14.35    1.31 
   8  -2   1   14.26    1.25 
   8   2   1   14.27    1.19 
   8   2   1   15.19    1.18 
  -8   2  -1   16.16    1.41 
   8   2   1   13.96    1.24 
  -8   2  -1   14.72    0.94 
  -8   2  -1   16.12    1.40 
   8   2   1   14.28    1.08 
   8   2   1   13.88    1.18 
   8   2   1   13.66    1.08 
   8   2   1   13.95    1.09 
   8   2   1   14.98    1.38 
   9  -2   1    6.16    1.17 
   9  -2   1    6.14    0.57 
   9  -2   1    9.59    1.20 
   9  -2   1    5.63    0.61 
   9  -2   1    7.18    1.14 
   9  -2   1    5.75    1.06 
   9   2   1    5.67    0.99 
  -9   2  -1    6.65    0.69 
   9   2   1    7.58    1.27 
   9   2   1    6.22    1.11 
  -9   2  -1    6.43    1.12 
   9   2   1    6.83    0.98 
   9   2   1    5.07    0.91 
   9   2   1    5.63    1.00 
   9   2   1    5.77    0.97 
  10  -2   1    3.23    0.99 
  10  -2   1    3.58    0.57 
  10  -2   1    3.74    0.94 
  10   2   1    1.98    0.74 
  10   2   1    2.83    0.86 
  10   2   1    1.84    0.71 
  10   2   1    2.06    0.76 
 -10   2  -1    3.09    0.55 
  10   2   1    2.57    0.84 
  10   2   1    2.68    1.03 
  10   2   1    3.95    0.94 
  10   2   1    2.77    0.77 
  11  -2   1   19.74    1.64 
  11  -2   1   18.40    1.58 
  11  -2   1   21.08    1.75 
  11  -2   1   21.51    1.06 
  11   2   1   21.08    1.52 
  11   2   1   19.77    1.59 
  11   2   1   19.90    1.52 
  11   2   1   20.25    1.88 
  11   2   1   19.08    1.54 
  11   2   1   22.03    1.52 
  12  -2   1   -0.03    0.65 
  12  -2   1   -0.04    0.72 
  12  -2   1    0.45    0.70 
  12   2   1    0.02    0.61 
  12   2   1    0.64    0.68 
  12   2   1    0.73    0.70 
  12   2   1   -0.20    0.76 
  13  -2   1    5.67    1.12 
  13   2   1    3.41    0.98 
  13   2   1    4.45    1.05 
  13   2   1    7.13    1.42 
  12  -3  -1    7.00    1.34 
  12  -3  -1    7.78    1.46 
  12  -3  -1   10.78    1.33 
  12  -3  -1    8.02    1.09 
  12   3  -1    5.54    1.21 
  12   3  -1    7.29    0.95 
  12   3  -1    5.46    1.05 
  12   3  -1    5.59    1.24 
  11  -3  -1    0.31    0.72 
  11  -3  -1    1.04    0.78 
  11  -3  -1    1.52    0.66 
  11   3  -1    0.89    0.75 
  11   3  -1    0.94    0.65 
  11   3  -1    0.46    0.67 
 -11   3   1    0.93    0.56 
  11   3  -1    0.94    0.57 
  11   3  -1    0.45    0.85 
  10  -3  -1    1.31    0.65 
  10  -3  -1    0.60    0.68 
  10   3  -1    1.58    0.76 
  10   3  -1    1.66    0.72 
  10   3  -1    1.84    0.74 
  10   3  -1    1.91    0.77 
  10   3  -1    1.14    0.54 
  10   3  -1    1.16    0.56 
 -10   3   1    1.72    0.73 
  10   3  -1    0.77    0.82 
 -10   3   1    1.11    0.60 
   9  -3  -1   28.20    1.57 
   9  -3  -1   27.95    1.87 
   9   3  -1   27.16    1.77 
   9   3  -1   27.05    1.42 
  -9   3   1   27.38    1.51 
   9   3  -1   30.21    1.42 
   9   3  -1   26.63    1.82 
   9   3  -1   27.96    1.78 
   9   3  -1   26.85    1.62 
  -9   3   1   28.26    1.80 
   9   3  -1   30.73    1.69 
   8  -3  -1   10.46    0.98 
  -8  -3   1    9.88    1.22 
   8  -3  -1    9.15    0.98 
   8  -3  -1    9.04    1.12 
   8  -3  -1   10.12    1.21 
  -8   3   1    9.53    1.20 
   8   3  -1   10.41    1.13 
  -8   3   1   10.77    1.37 
   8   3  -1    7.89    1.01 
   8   3  -1   10.32    1.03 
   8   3  -1    9.64    0.82 
   8   3  -1    9.82    0.86 
   8   3  -1   10.18    1.13 
  -8   3   1   12.07    1.05 
   7  -3  -1    3.65    0.73 
  -7  -3   1    4.87    0.63 
   7  -3  -1    4.26    0.93 
  -7  -3   1    5.21    0.96 
   7  -3  -1    3.33    0.82 
   7  -3  -1    3.82    0.76 
  -7   3   1    5.90    1.03 
  -7   3   1    4.49    0.83 
   7   3  -1    3.02    0.66 
  -7   3   1    3.01    0.79 
   7   3  -1    5.50    0.90 
   7   3  -1    4.51    0.63 
   7   3  -1    4.08    0.82 
   7   3  -1    3.62    0.47 
   7   3  -1    3.85    0.64 
  -7   3   1    4.01    0.88 
   6  -3  -1   86.01    3.08 
   6  -3  -1   83.56    3.08 
  -6  -3   1   87.25    3.01 
   6  -3  -1   86.10    2.86 
  -6  -3   1   83.77    2.78 
  -6  -3   1   85.38    3.13 
   6  -3  -1   88.11    2.79 
  -6  -3   1   87.05    2.47 
   6   3  -1   83.80    2.43 
  -6   3   1   87.71    2.93 
   6   3  -1   83.43    2.86 
   6   3  -1   86.36    2.98 
   6   3  -1   84.67    2.37 
   6   3  -1   86.41    3.06 
  -6   3   1   87.27    3.09 
  -6   3   1   86.91    3.15 
   6   3  -1   86.43    2.47 
  -6   3   1   88.51    2.94 
   5  -3  -1   18.23    1.26 
   5  -3  -1   17.41    1.16 
   5  -3  -1   18.52    1.11 
  -5  -3   1   16.81    1.20 
   5  -3  -1   20.68    1.28 
  -5  -3   1   16.88    1.05 
  -5  -3   1   16.90    1.23 
  -5  -3   1   17.02    0.95 
   5   3  -1   17.19    0.96 
   5   3  -1   16.82    0.75 
  -5   3   1   18.01    1.26 
  -5   3   1   16.84    1.13 
  -5   3   1   16.08    1.16 
   5   3  -1   18.76    1.30 
  -5   3   1   18.29    1.23 
   5   3  -1   16.41    1.11 
   5   3  -1   16.48    0.85 
   5   3  -1   17.10    1.20 
  -4  -3   1   17.55    0.98 
  -4  -3   1   17.80    1.03 
   4  -3  -1   17.09    1.12 
  -4  -3   1   17.03    1.14 
   4  -3  -1   16.21    1.13 
   4  -3  -1   16.93    1.04 
  -4  -3   1   16.24    1.13 
   4  -3  -1   18.79    1.19 
   4   3  -1   16.01    1.07 
   4   3  -1   16.55    1.28 
  -4   3   1   17.05    1.17 
   4   3  -1   16.82    0.97 
  -4   3   1   17.19    1.17 
   4   3  -1   17.23    1.12 
  -4   3   1   16.50    1.13 
  -4   3   1   16.75    1.07 
  -3  -3   1    1.01    0.43 
  -3  -3   1    0.58    0.36 
   3  -3  -1    1.30    0.47 
   3  -3  -1    0.76    0.46 
   3  -3  -1    1.58    0.54 
   3  -3  -1    1.44    0.50 
  -3  -3   1    1.06    0.52 
  -3  -3   1    1.32    0.48 
  -3   3   1    1.12    0.45 
   3   3  -1    0.33    0.37 
   3   3  -1    1.31    0.58 
   3   3  -1    0.76    0.49 
  -3   3   1    1.02    0.49 
  -3   3   1    1.31    0.47 
  -3   3   1    1.51    0.48 
   3   3  -1    0.98    0.41 
  -2  -3   1  188.82    4.96 
   2  -3  -1  199.49    4.93 
  -2  -3   1  171.08    4.90 
   2  -3  -1  194.02    5.10 
   2  -3  -1  189.92    4.85 
   2  -3  -1  196.85    4.95 
  -2  -3   1  173.83    4.93 
  -2   3   1  197.51    4.45 
   2   3  -1  195.74    4.97 
  -2   3   1  193.92    4.88 
  -2   3   1  197.32    4.93 
  -2   3   1  192.51    5.10 
  -2   3   1  189.21    4.89 
   2   3  -1  197.30    4.97 
   2   3  -1  198.34    4.99 
   2   3  -1  205.15    4.92 
  -2   3   1  200.89    4.43 
   1  -3  -1   20.92    1.13 
   1  -3  -1   20.73    1.20 
  -1  -3   1   19.81    1.04 
  -1  -3   1   19.90    1.13 
  -1  -3   1   19.94    1.15 
  -1  -3   1   21.61    1.16 
   1  -3  -1   19.85    0.99 
   1  -3  -1   20.72    1.04 
  -1  -3   1   19.92    0.76 
  -1   3   1   20.57    0.90 
   1   3  -1   21.38    1.07 
  -1   3   1   22.05    0.90 
   1   3  -1   20.92    1.13 
   1   3  -1   22.28    1.19 
  -1   3   1   19.96    1.00 
  -1   3   1   20.76    1.20 
  -1   3   1   21.40    1.01 
   1   3  -1   20.76    0.74 
   1   3  -1   20.74    1.05 
  -1   3   1   20.37    1.11 
   0  -3  -1   18.58    1.12 
   0  -3  -1   19.39    1.09 
   0  -3  -1   18.39    0.86 
   0  -3   1   20.30    0.95 
   0  -3   1   19.10    1.10 
   0  -3   1   18.13    0.81 
   0  -3   1   20.67    1.07 
   0  -3  -1   17.99    0.94 
   0  -3   1   18.55    1.11 
   0   3  -1   20.12    1.09 
   0   3  -1   18.33    0.99 
   0   3   1   20.32    0.95 
   0   3   1   19.22    0.86 
   0   3   1   19.86    1.08 
   0   3   1   18.70    1.12 
   0   3   1   18.60    0.92 
   0   3   1   19.35    0.96 
   0   3  -1   18.22    0.80 
   0   3  -1   18.75    0.92 
   0   3  -1   18.49    1.13 
   1  -3   1    7.40    0.73 
  -1  -3  -1    6.69    0.73 
  -1  -3  -1    5.77    0.72 
   1  -3   1    7.44    0.61 
   1  -3   1    7.26    0.76 
   1  -3   1    7.39    0.55 
  -1  -3  -1    7.36    0.70 
  -1  -3  -1    7.69    0.59 
   1  -3   1    5.03    0.71 
  -1   3  -1    8.17    0.78 
   1   3   1    6.77    0.74 
   1   3   1    7.31    0.69 
  -1   3  -1    7.68    0.79 
  -1   3  -1    6.95    0.54 
  -1   3  -1    7.42    0.59 
   1   3   1    6.89    0.65 
   1   3   1    7.56    0.51 
   1   3   1    6.79    0.73 
   1   3   1    7.32    0.58 
  -1   3  -1    7.19    0.73 
  -2  -3  -1  171.63    4.37 
   2  -3   1  172.67    4.44 
   2  -3   1  175.54    4.59 
   2  -3   1  174.44    4.66 
   2  -3   1  173.88    4.61 
  -2  -3  -1  184.22    4.13 
  -2  -3  -1  172.93    4.63 
   2  -3   1  180.08    4.01 
  -2   3  -1  164.62    4.54 
  -2   3  -1  173.41    4.68 
   2   3   1  179.07    4.24 
  -2   3  -1  171.89    3.99 
   2   3   1  161.70    4.56 
   2   3   1  168.08    4.01 
  -2   3  -1  173.05    4.59 
   2   3   1  172.87    4.59 
   2   3   1  171.22    4.50 
  -2   3  -1  175.68    4.42 
   2   3   1  177.67    4.58 
   3  -3   1    1.36    0.54 
   3  -3   1    0.53    0.42 
  -3  -3  -1    1.57    0.58 
   3  -3   1    1.32    0.43 
   3  -3   1    1.62    0.55 
  -3  -3  -1    1.48    0.42 
  -3  -3  -1    1.20    0.42 
  -3  -3  -1    1.14    0.31 
   3   3   1    0.39    0.41 
   3   3   1    1.60    0.42 
   3   3   1    1.56    0.55 
  -3   3  -1    1.09    0.49 
  -3   3  -1    1.09    0.53 
   3   3   1    0.69    0.40 
  -3   3  -1    1.34    0.45 
  -3   3  -1    1.49    0.53 
   3   3   1    1.88    0.48 
   3   3   1    1.59    0.47 
  -4  -3  -1   12.65    0.69 
   4  -3   1   12.72    0.97 
   4  -3   1   11.92    1.00 
   4  -3   1   11.60    1.03 
  -4  -3  -1   11.95    0.82 
   4  -3   1   11.60    0.96 
  -4  -3  -1   11.76    1.03 
  -4  -3  -1   12.18    0.76 
  -4   3  -1   13.69    1.04 
   4   3   1   10.76    0.97 
   4   3   1   10.37    0.88 
   4   3   1   12.19    0.97 
  -4   3  -1   12.63    1.04 
   4   3   1   12.61    1.01 
  -4   3  -1   12.86    1.04 
   4   3   1   11.67    0.81 
   4   3   1   11.85    1.00 
  -5  -3  -1   23.13    1.09 
  -5  -3  -1   23.69    1.08 
   5  -3   1   23.15    1.37 
   5  -3   1   24.71    1.43 
  -5  -3  -1   23.17    1.43 
   5  -3   1   25.01    1.34 
   5  -3   1   24.05    1.45 
   5   3   1   23.56    1.20 
  -5   3  -1   24.51    1.48 
  -5   3  -1   21.97    1.32 
  -5   3  -1   21.98    1.41 
   5   3   1   23.04    1.06 
   5   3   1   22.36    1.24 
   5   3   1   22.66    1.43 
   5   3   1   24.24    1.41 
   5   3   1   24.56    1.09 
   5   3   1   21.82    1.36 
   6  -3   1   97.75    3.37 
   6  -3   1  102.69    3.18 
  -6  -3  -1  105.43    3.48 
  -6  -3  -1   82.88    2.59 
   6  -3   1  101.30    3.30 
   6  -3   1  100.17    3.43 
   6   3   1  101.19    3.01 
   6   3   1  104.34    2.69 
   6   3   1  101.85    3.04 
   6   3   1   97.59    3.30 
   6   3   1  102.61    2.90 
  -6   3  -1   98.01    3.46 
  -6   3  -1  100.34    3.18 
  -6   3  -1   97.02    3.39 
   6   3   1  102.12    3.48 
   7  -3   1    3.53    0.84 
   7  -3   1    3.05    0.84 
  -7  -3  -1    3.20    0.91 
  -7  -3  -1    3.40    0.43 
   7  -3   1    2.62    0.80 
   7  -3   1    3.84    0.77 
   7  -3   1    2.83    0.84 
   7   3   1    4.12    0.77 
   7   3   1    3.83    0.73 
   7   3   1    2.89    0.79 
   7   3   1    1.52    0.68 
  -7   3  -1    2.33    0.78 
   7   3   1    3.20    0.65 
   7   3   1    3.01    0.38 
  -7   3  -1    3.01    0.68 
   7   3   1    3.38    0.91 
  -7   3  -1    3.60    0.94 
   8  -3   1    6.66    1.12 
   8  -3   1    6.84    1.11 
   8  -3   1    6.58    1.15 
  -8  -3  -1    7.23    1.19 
  -8   3  -1    6.06    0.83 
  -8   3  -1    6.63    1.15 
   8   3   1    6.86    1.01 
   8   3   1    7.12    1.10 
   8   3   1    6.90    0.91 
   8   3   1    6.57    0.92 
   8   3   1    6.40    1.02 
   8   3   1    6.21    1.05 
   8   3   1    6.14    0.81 
  -8   3  -1    6.08    1.16 
   9  -3   1   23.32    1.69 
   9  -3   1   18.43    1.46 
  -9   3  -1   20.64    1.72 
   9   3   1   20.55    1.35 
   9   3   1   22.08    1.47 
   9   3   1   20.80    1.62 
   9   3   1   20.93    1.55 
  -9   3  -1   20.29    1.70 
   9   3   1   21.75    1.39 
   9   3   1   21.48    1.59 
  -9   3  -1   21.48    1.30 
   9   3   1   22.48    1.35 
  10  -3   1    2.72    0.88 
  10  -3   1    1.88    0.88 
  10   3   1    2.87    0.77 
  10   3   1    2.16    0.76 
  10   3   1    1.67    0.72 
  10   3   1    2.10    0.95 
 -10   3  -1    2.19    0.96 
  10   3   1    2.26    0.92 
  10   3   1    2.44    0.73 
 -10   3  -1    1.43    0.86 
 -10   3  -1    1.79    0.62 
  11  -3   1    3.50    1.06 
  11  -3   1    2.22    0.88 
  11   3   1    2.58    0.88 
  11   3   1    3.18    0.90 
  11   3   1    1.66    0.75 
  11   3   1    1.65    0.90 
 -11   3  -1    2.78    0.65 
  11   3   1    2.44    0.81 
  11   3   1    3.00    1.13 
  12  -3   1   19.83    1.84 
  12  -3   1   21.81    1.67 
 -12   3  -1   23.54    1.14 
  12   3   1   22.45    1.81 
  12   3   1   20.11    1.98 
  12   3   1   23.87    1.60 
  12   3   1   21.46    1.68 
  12  -4  -1    4.98    1.04 
  12   4  -1    5.41    1.41 
  12   4  -1    8.00    1.48 
  12   4  -1    5.21    1.25 
  12   4  -1    6.77    0.90 
  11  -4  -1    1.24    0.74 
  11  -4  -1    1.32    0.86 
  11   4  -1    2.59    1.05 
  11   4  -1    3.08    0.80 
 -11   4   1    1.55    0.72 
  11   4  -1    2.05    1.00 
 -11   4   1    2.45    1.06 
  11   4  -1    2.13    0.60 
  10  -4  -1    3.88    1.11 
  10  -4  -1    3.21    0.82 
 -10   4   1    4.31    1.08 
 -10   4   1    4.89    0.92 
  10   4  -1    5.70    1.24 
  10   4  -1    4.12    0.72 
  10   4  -1    4.66    0.89 
  10   4  -1    3.41    1.01 
  10   4  -1    5.56    1.03 
   9  -4  -1    7.39    1.26 
   9  -4  -1    9.98    1.09 
   9   4  -1    7.94    1.03 
  -9   4   1    7.57    1.05 
   9   4  -1    6.72    1.08 
  -9   4   1    6.58    1.18 
   9   4  -1    9.23    0.76 
   9   4  -1    8.25    1.32 
   9   4  -1    6.40    1.08 
   9   4  -1    6.38    0.87 
  -8  -4   1   32.99    2.05 
   8  -4  -1   33.94    2.04 
   8  -4  -1   35.66    1.80 
  -8  -4   1   35.92    1.41 
   8   4  -1   34.45    2.06 
  -8   4   1   31.98    1.93 
   8   4  -1   34.28    1.31 
   8   4  -1   34.07    1.53 
   8   4  -1   29.77    1.80 
   8   4  -1   33.96    1.32 
   8   4  -1   36.41    1.78 
   8   4  -1   33.04    2.05 
  -8   4   1   36.25    2.17 
  -8   4   1   35.64    1.93 
  -7  -4   1    8.88    0.81 
   7  -4  -1    8.52    1.11 
   7  -4  -1    8.89    1.14 
  -7  -4   1    8.80    1.25 
   7  -4  -1    8.66    0.99 
   7  -4  -1    8.92    1.05 
  -7   4   1    9.29    1.25 
   7   4  -1    9.50    1.11 
   7   4  -1   10.14    1.11 
  -7   4   1    8.90    1.33 
   7   4  -1   11.97    1.57 
  -7   4   1    7.53    1.14 
   7   4  -1    8.55    0.77 
  -7   4   1    8.45    1.12 
   7   4  -1    8.94    0.64 
   7   4  -1    8.79    0.87 
   6  -4  -1    2.80    0.79 
   6  -4  -1    2.55    0.70 
  -6  -4   1    3.35    0.63 
   6  -4  -1    2.15    0.76 
   6  -4  -1    3.59    0.80 
  -6  -4   1    3.12    0.89 
  -6  -4   1    2.68    0.64 
   6   4  -1    3.47    0.87 
  -6   4   1    3.40    0.90 
  -6   4   1    3.44    0.83 
   6   4  -1    1.98    0.87 
   6   4  -1    5.06    0.94 
  -6   4   1    2.70    0.79 
  -6   4   1    3.39    0.82 
   6   4  -1    3.94    0.68 
   5  -4  -1   37.65    1.90 
   5  -4  -1   41.63    1.98 
  -5  -4   1   43.85    2.01 
  -5  -4   1   41.00    1.70 
   5  -4  -1   40.31    1.95 
   5  -4  -1   38.96    1.81 
  -5  -4   1   38.89    1.70 
   5   4  -1   39.07    1.88 
   5   4  -1   38.76    1.69 
   5   4  -1   38.30    1.91 
  -5   4   1   38.35    1.95 
  -5   4   1   39.64    1.97 
  -5   4   1   40.10    1.94 
   5   4  -1   37.69    1.92 
  -5   4   1   41.89    1.91 
   4  -4  -1    8.10    1.15 
   4  -4  -1    7.49    1.02 
   4  -4  -1    6.57    0.89 
   4  -4  -1    5.53    0.89 
  -4  -4   1    6.46    0.80 
  -4  -4   1    7.23    1.05 
  -4  -4   1    6.59    0.76 
  -4  -4   1    5.86    0.98 
  -4   4   1    6.84    1.06 
   4   4  -1    4.55    0.76 
  -4   4   1    5.66    0.85 
  -4   4   1    7.16    1.07 
   4   4  -1    6.45    0.93 
   4   4  -1    7.96    1.04 
  -4   4   1    6.68    0.87 
   4   4  -1    7.22    0.94 
  -3  -4   1   40.09    1.77 
   3  -4  -1   41.48    1.82 
   3  -4  -1   39.60    1.78 
  -3  -4   1   41.51    1.73 
  -3  -4   1   38.60    1.85 
  -3  -4   1   42.81    1.90 
   3  -4  -1   40.26    1.79 
   3  -4  -1   38.54    1.90 
  -3   4   1   41.14    1.81 
  -3   4   1   40.93    1.79 
   3   4  -1   42.04    1.72 
   3   4  -1   42.18    1.82 
   3   4  -1   40.65    1.82 
   3   4  -1   39.97    1.81 
  -3   4   1   41.67    1.79 
  -3   4   1   39.79    1.95 
   2  -4  -1   24.22    1.26 
  -2  -4   1   20.94    1.35 
  -2  -4   1   19.88    1.27 
   2  -4  -1   22.91    1.32 
  -2  -4   1   23.12    1.42 
  -2  -4   1   22.42    1.30 
   2  -4  -1   22.28    1.25 
  -2   4   1   23.22    0.95 
   2   4  -1   25.00    1.39 
  -2   4   1   23.87    1.25 
  -2   4   1   23.46    1.32 
   2   4  -1   24.72    1.39 
  -2   4   1   22.92    1.42 
  -2   4   1   22.57    0.97 
  -2   4   1   21.70    1.21 
   2   4  -1   22.11    1.27 
   2   4  -1   23.00    1.20 
   1  -4  -1    5.79    0.82 
  -1  -4   1    5.22    0.77 
   1  -4  -1    7.09    0.70 
   1  -4  -1    4.70    0.78 
  -1  -4   1    5.97    0.93 
  -1  -4   1    5.39    0.50 
   1  -4  -1    5.13    0.68 
  -1  -4   1    5.22    0.81 
  -1  -4   1    6.09    0.82 
  -1   4   1    5.61    0.61 
  -1   4   1    5.52    0.56 
   1   4  -1    5.00    0.65 
  -1   4   1    4.66    0.64 
   1   4  -1    6.45    0.94 
  -1   4   1    6.11    0.78 
   1   4  -1    4.51    0.64 
   1   4  -1    5.31    0.46 
  -1   4   1    6.26    0.91 
  -1   4   1    5.25    0.63 
   1   4  -1    4.24    0.73 
   0  -4   1    0.44    0.32 
   0  -4   1    0.68    0.45 
   0  -4  -1    1.81    0.54 
   0  -4  -1    0.57    0.40 
   0  -4  -1    0.30    0.50 
   0  -4  -1    0.57    0.39 
   0  -4   1    0.83    0.52 
   0  -4   1    0.49    0.44 
   0  -4   1    0.89    0.41 
   0   4  -1    0.65    0.73 
   0   4   1    0.63    0.38 
   0   4   1    0.22    0.34 
   0   4   1    0.17    0.42 
   0   4  -1    0.65    0.33 
   0   4  -1    0.34    0.45 
   0   4   1    0.38    0.47 
   0   4   1    0.42    0.35 
   0   4   1    0.46    0.34 
   0   4  -1    0.00    0.36 
   0   4  -1    0.41    0.38 
   1  -4   1   10.69    0.99 
   1  -4   1   10.83    0.92 
  -1  -4  -1   10.94    0.98 
  -1  -4  -1   11.27    1.02 
   1  -4   1   12.12    0.83 
  -1  -4  -1   11.45    0.82 
   1  -4   1   11.85    1.01 
  -1  -4  -1   10.59    0.84 
  -1   4  -1   12.06    1.10 
   1   4   1   10.89    0.97 
   1   4   1   11.67    1.02 
  -1   4  -1   11.99    0.80 
   1   4   1   12.58    0.94 
  -1   4  -1   11.52    0.92 
  -1   4  -1   10.52    0.97 
  -1   4  -1   12.29    0.77 
   1   4   1   11.87    0.77 
   1   4   1   12.51    0.92 
   1   4   1   11.91    0.72 
   2  -4   1   18.96    1.10 
  -2  -4  -1   19.12    1.17 
   2  -4   1   21.57    1.31 
  -2  -4  -1   19.86    1.03 
  -2  -4  -1   20.44    1.25 
  -2  -4  -1   19.83    1.32 
   2  -4   1   20.01    1.23 
   2  -4   1   19.39    1.30 
  -2   4  -1   20.07    1.23 
   2   4   1   22.55    1.28 
   2   4   1   20.31    1.26 
  -2   4  -1   18.78    1.24 
   2   4   1   20.20    1.21 
  -2   4  -1   20.77    0.88 
   2   4   1   19.68    1.24 
  -2   4  -1   17.46    1.30 
  -2   4  -1   21.29    1.13 
   2   4   1   20.16    0.95 
   2   4   1   19.44    0.88 
   3  -4   1   20.12    1.30 
  -3  -4  -1   20.49    1.35 
  -3  -4  -1   20.54    1.04 
   3  -4   1   20.51    1.21 
  -3  -4  -1   20.11    0.90 
   3  -4   1   17.88    1.27 
  -3  -4  -1   19.22    1.19 
   3  -4   1   20.61    1.33 
   3   4   1   19.18    1.21 
  -3   4  -1   20.10    1.31 
   3   4   1   19.70    0.96 
  -3   4  -1   20.46    1.21 
  -3   4  -1   20.85    1.39 
   3   4   1   19.91    1.31 
   3   4   1   19.93    0.89 
  -3   4  -1   20.54    1.31 
   3   4   1   21.95    1.32 
   3   4   1   18.69    1.28 
  -4  -4  -1    4.63    0.55 
   4  -4   1    5.52    0.86 
   4  -4   1    5.74    0.90 
  -4  -4  -1    6.07    1.02 
   4  -4   1    4.45    0.80 
  -4  -4  -1    4.20    0.50 
  -4  -4  -1    5.64    0.82 
   4  -4   1    4.60    0.76 
   4   4   1    3.48    0.60 
   4   4   1    4.78    0.57 
  -4   4  -1    7.58    0.96 
   4   4   1    6.16    0.85 
   4   4   1    4.81    0.60 
   4   4   1    5.20    0.97 
  -4   4  -1    4.97    0.79 
  -4   4  -1    4.44    0.86 
   4   4   1    4.67    0.90 
  -4   4  -1    5.61    0.94 
  -5  -4  -1  131.22    4.16 
   5  -4   1  127.72    3.99 
   5  -4   1  125.62    4.10 
  -5  -4  -1  129.19    3.41 
  -5  -4  -1  134.10    3.72 
   5  -4   1  127.71    4.00 
   5  -4   1  131.14    4.05 
   5   4   1  128.82    4.05 
  -5   4  -1  127.22    4.05 
   5   4   1  123.48    4.12 
   5   4   1  125.42    4.05 
   5   4   1  130.06    3.53 
   5   4   1  129.49    3.68 
   5   4   1  125.80    3.50 
  -5   4  -1  132.70    4.09 
  -5   4  -1  129.06    4.12 
   6  -4   1    9.70    1.04 
   6  -4   1    9.02    1.07 
  -6  -4  -1   10.08    0.77 
  -6  -4  -1    8.68    1.16 
   6  -4   1    7.15    1.08 
   6  -4   1    8.60    1.08 
  -6  -4  -1    9.41    0.83 
  -6   4  -1    9.26    1.17 
   6   4   1    9.17    1.10 
   6   4   1    8.16    0.96 
  -6   4  -1    9.07    1.13 
   6   4   1    9.77    1.04 
   6   4   1    8.96    0.75 
   6   4   1    9.35    0.81 
   6   4   1    9.55    1.06 
   6   4   1    9.85    1.11 
  -6   4  -1   10.21    1.11 
   7  -4   1    5.01    0.99 
  -7  -4  -1    4.73    0.62 
   7  -4   1    4.22    0.89 
   7  -4   1    4.51    0.95 
   7  -4   1    4.62    0.91 
  -7  -4  -1    4.71    1.11 
   7  -4   1    4.96    1.05 
   7   4   1    4.31    0.95 
   7   4   1    4.41    1.00 
   7   4   1    3.70    0.94 
   7   4   1    4.99    0.73 
  -7   4  -1    4.63    1.09 
  -7   4  -1    3.22    0.82 
   7   4   1    5.53    1.03 
  -7   4  -1    4.38    1.04 
   7   4   1    5.78    0.65 
   7   4   1    6.06    0.99 
   8  -4   1   14.00    1.32 
  -8  -4  -1   13.02    1.44 
  -8  -4  -1   13.80    0.78 
   8  -4   1   13.94    1.38 
   8   4   1   13.70    1.28 
  -8   4  -1   12.39    1.40 
  -8   4  -1   14.41    1.26 
   8   4   1   13.87    1.37 
   8   4   1   14.95    1.04 
   8   4   1   12.79    1.23 
   8   4   1   14.81    1.07 
  -8   4  -1   15.23    1.53 
   8   4   1   13.43    1.38 
   8   4   1   12.73    0.73 
   9  -4   1   27.99    1.93 
  -9  -4  -1   29.43    2.06 
   9  -4   1   25.78    1.76 
  -9   4  -1   25.79    1.99 
   9   4   1   26.89    1.43 
   9   4   1   26.08    1.90 
   9   4   1   29.03    1.50 
   9   4   1   29.84    1.76 
  -9   4  -1   27.10    1.65 
  -9   4  -1   26.33    1.95 
   9   4   1   27.50    1.67 
  10  -4   1    5.86    1.12 
  10  -4   1    3.38    0.93 
 -10   4  -1    4.04    0.91 
  10   4   1    4.46    0.92 
  10   4   1    3.59    0.97 
  10   4   1    4.13    0.77 
  10   4   1    4.42    1.02 
  10   4   1    3.53    1.00 
  11  -4   1    9.83    1.42 
  11   4   1    8.35    1.33 
 -11   4  -1    9.16    1.47 
  11   4   1   10.01    1.03 
  11   4   1    8.55    1.14 
 -11   4  -1    8.39    1.04 
  11   4   1   10.64    1.30 
  11   4   1   13.68    1.87 
  11   4   1   10.16    1.61 
  12  -4   1    2.14    0.99 
  12   4   1    0.58    0.87 
  12   4   1    2.61    0.98 
  12   4   1    1.57    0.74 
  12   4   1    3.23    1.18 
  11  -5  -1    1.50    0.69 
  11   5  -1   -0.27    0.94 
  10  -5  -1    1.45    0.70 
  10  -5  -1   -0.29    0.58 
 -10  -5   1    1.44    0.96 
 -10   5   1    1.22    0.72 
  10   5  -1    0.63    0.90 
  10   5  -1   -0.15    0.65 
  10   5  -1    1.55    0.66 
   9  -5  -1   19.77    1.73 
   9  -5  -1   16.92    1.42 
  -9  -5   1   18.90    1.09 
  -9  -5   1   19.06    1.75 
   9   5  -1   16.56    1.33 
  -9   5   1   16.09    1.64 
   9   5  -1   16.50    1.58 
   9   5  -1   19.01    1.03 
  -9   5   1   15.97    1.62 
   9   5  -1   18.74    1.73 
  -9   5   1   18.46    1.55 
  -8  -5   1    9.80    0.92 
   8  -5  -1    7.97    1.16 
   8  -5  -1    8.86    1.45 
  -8  -5   1   10.59    1.52 
  -8   5   1    7.80    1.26 
   8   5  -1    9.94    1.28 
   8   5  -1    8.60    0.85 
   8   5  -1    8.73    1.32 
  -8   5   1    8.30    1.35 
  -8   5   1    9.55    1.23 
   7  -5  -1    1.20    0.66 
   7  -5  -1    2.17    0.86 
  -7  -5   1    2.14    0.67 
  -7  -5   1    2.39    0.91 
  -7  -5   1    3.35    0.72 
   7   5  -1    1.87    0.71 
  -7   5   1    1.58    0.74 
   7   5  -1    2.62    0.87 
  -7   5   1    2.87    0.87 
   7   5  -1    1.99    0.81 
   7   5  -1    1.77    0.62 
  -7   5   1    2.65    0.88 
  -6  -5   1   35.01    2.01 
  -6  -5   1   30.23    1.53 
   6  -5  -1   33.82    1.81 
   6  -5  -1   33.52    1.93 
  -6  -5   1   32.58    1.65 
   6  -5  -1   34.04    1.97 
   6  -5  -1   33.02    1.95 
   6   5  -1   33.87    1.69 
  -6   5   1   31.68    1.87 
  -6   5   1   35.75    1.97 
   6   5  -1   32.73    1.76 
  -6   5   1   26.92    1.82 
  -6   5   1   31.40    1.94 
   6   5  -1   31.33    1.88 
   6   5  -1   30.90    1.85 
  -5  -5   1    7.83    0.85 
   5  -5  -1    7.46    1.10 
   5  -5  -1    8.30    1.09 
   5  -5  -1    7.69    1.21 
  -5  -5   1    6.68    0.99 
   5  -5  -1    7.13    1.05 
  -5  -5   1    8.45    1.30 
  -5   5   1    8.45    1.09 
  -5   5   1   11.25    1.12 
   5   5  -1    7.70    0.96 
   5   5  -1    5.36    0.83 
  -5   5   1    8.65    1.11 
   5   5  -1    7.72    0.96 
  -5   5   1    9.04    1.19 
   5   5  -1    6.57    1.03 
   4  -5  -1   11.07    1.12 
  -4  -5   1   10.83    1.20 
   4  -5  -1   10.24    1.11 
  -4  -5   1    9.85    1.05 
   4  -5  -1   11.32    1.19 
   4  -5  -1   10.74    1.09 
  -4  -5   1    8.81    0.91 
  -4   5   1   10.76    1.07 
  -4   5   1   11.23    1.11 
  -4   5   1    8.98    1.08 
   4   5  -1   11.40    1.12 
   4   5  -1   11.59    1.04 
  -4   5   1   10.92    1.25 
   4   5  -1   11.32    1.10 
   4   5  -1   10.65    1.12 
   3  -5  -1    1.15    0.68 
   3  -5  -1    0.80    0.61 
   3  -5  -1    1.03    0.53 
   3  -5  -1    0.91    0.55 
  -3  -5   1    1.03    0.65 
  -3  -5   1    0.89    0.53 
   3   5  -1    0.94    0.53 
  -3   5   1    1.16    0.35 
   3   5  -1    0.27    0.52 
  -3   5   1    1.52    0.40 
  -3   5   1    0.67    0.54 
   3   5  -1    0.90    0.60 
  -3   5   1    0.77    0.58 
   3   5  -1    1.18    0.58 
  -3   5   1    0.78    0.61 
  -3   5   1    1.26    0.68 
   2  -5  -1   82.38    2.94 
   2  -5  -1   82.71    2.75 
   2  -5  -1   78.49    3.05 
  -2  -5   1   82.11    2.99 
  -2  -5   1   80.20    2.99 
  -2  -5   1   73.63    2.84 
  -2  -5   1   77.91    2.28 
   2  -5  -1   80.05    2.75 
  -2   5   1   81.59    2.91 
   2   5  -1   76.95    2.76 
  -2   5   1   80.65    2.71 
   2   5  -1   79.11    2.11 
  -2   5   1   80.10    3.08 
  -2   5   1   80.62    2.33 
  -2   5   1   78.14    2.35 
   2   5  -1   80.38    2.97 
   2   5  -1   77.68    2.60 
  -2   5   1   78.94    2.69 
   2   5  -1   78.98    2.94 
  -1  -5   1    7.47    1.09 
   1  -5  -1    8.14    0.82 
   1  -5  -1    7.34    1.01 
  -1  -5   1    7.11    0.97 
  -1  -5   1    8.21    1.17 
   1  -5  -1    8.98    1.01 
  -1  -5   1    7.18    0.68 
   1  -5  -1    6.93    0.79 
  -1   5   1    8.68    1.08 
  -1   5   1    7.48    0.95 
  -1   5   1    6.40    0.79 
  -1   5   1    7.09    0.78 
   1   5  -1    7.66    0.82 
  -1   5   1    7.61    0.73 
  -1   5   1    6.20    0.71 
   1   5  -1    7.17    0.59 
   1   5  -1    7.25    0.95 
   1   5  -1    7.35    0.81 
   1   5  -1    7.23    1.00 
   0  -5   1   10.72    1.02 
   0  -5   1    9.88    1.09 
   0  -5  -1   10.34    1.08 
   0  -5   1    9.72    0.77 
   0  -5  -1    9.73    1.08 
   0  -5   1    8.80    1.06 
   0  -5  -1   11.46    0.92 
   0  -5  -1    9.69    0.88 
   0   5   1    8.67    0.79 
   0   5  -1   10.37    1.07 
   0   5   1   10.29    0.83 
   0   5  -1   10.39    0.75 
   0   5   1   11.11    1.08 
   0   5  -1   10.49    1.16 
   0   5  -1    9.84    0.85 
   0   5   1    9.62    1.10 
   0   5   1    9.91    0.91 
   0   5   1   11.13    0.89 
   0   5  -1   10.85    0.97 
  -1  -5  -1    2.46    0.64 
   1  -5   1    3.86    0.84 
   1  -5   1    5.77    1.41 
  -1  -5  -1    3.63    0.74 
  -1  -5  -1    4.75    0.75 
  -1  -5  -1    3.90    0.87 
   1  -5   1    3.00    0.69 
   1  -5   1    3.37    0.64 
  -1   5  -1    4.57    0.68 
   1   5   1    6.10    1.04 
   1   5   1    4.00    0.69 
   1   5   1    4.36    0.66 
  -1   5  -1    3.28    0.79 
  -1   5  -1    5.07    0.71 
   1   5   1    4.91    0.69 
  -1   5  -1    3.84    0.74 
   1   5   1    5.15    1.03 
   1   5   1    5.99    0.93 
  -1   5  -1    4.40    0.90 
  -2  -5  -1   80.39    2.72 
  -2  -5  -1   81.30    2.59 
  -2  -5  -1   83.01    3.04 
  -2  -5  -1   85.17    3.11 
   2  -5   1   82.56    2.73 
   2  -5   1   83.26    3.04 
   2  -5   1   84.79    2.94 
   2   5   1   82.39    2.41 
  -2   5  -1   82.63    2.70 
   2   5   1   85.86    2.91 
  -2   5  -1   79.41    2.99 
   2   5   1   81.44    3.00 
   2   5   1   83.68    3.03 
  -2   5  -1   84.38    2.47 
  -2   5  -1   83.98    2.92 
  -2   5  -1   82.23    3.17 
   2   5   1   85.19    2.49 
  -2   5  -1   84.36    2.41 
   2   5   1   84.41    2.97 
   3  -5   1    1.33    0.56 
   3  -5   1    1.86    0.62 
   3  -5   1    2.37    0.70 
   3  -5   1    2.61    1.11 
  -3  -5  -1    2.10    0.57 
  -3  -5  -1    1.13    0.67 
  -3  -5  -1    2.55    0.53 
   3   5   1    1.68    0.67 
  -3   5  -1    2.13    0.72 
  -3   5  -1    1.86    0.40 
   3   5   1    1.64    0.64 
  -3   5  -1    2.53    0.64 
  -3   5  -1    2.19    0.76 
   3   5   1    1.92    0.46 
  -3   5  -1    1.84    0.71 
   3   5   1    1.90    0.71 
   3   5   1    2.46    0.49 
  -3   5  -1    2.10    0.40 
   3   5   1    2.73    0.72 
  -4  -5  -1   14.12    0.80 
   4  -5   1   13.97    1.17 
  -4  -5  -1   14.90    1.34 
   4  -5   1   12.44    1.22 
  -4  -5  -1   14.53    1.18 
  -4  -5  -1   17.50    0.94 
   4  -5   1   12.41    1.25 
   4  -5   1   13.18    1.25 
   4   5   1   11.92    0.79 
   4   5   1   11.92    1.21 
  -4   5  -1   13.46    1.18 
   4   5   1   13.73    0.83 
   4   5   1   13.13    1.17 
  -4   5  -1   12.81    1.31 
  -4   5  -1   14.39    1.31 
  -4   5  -1   14.63    1.28 
   4   5   1   13.75    1.26 
   4   5   1   14.89    1.24 
  -5  -5  -1   10.70    1.25 
   5  -5   1   11.26    1.21 
   5  -5   1   11.70    1.14 
  -5  -5  -1   10.61    0.74 
   5  -5   1   11.55    1.22 
  -5  -5  -1   11.95    1.06 
  -5  -5  -1   11.10    0.77 
   5  -5   1   10.75    1.22 
   5   5   1   10.80    0.77 
  -5   5  -1   10.70    1.23 
   5   5   1   11.40    1.18 
   5   5   1   12.02    0.83 
   5   5   1   11.77    1.24 
   5   5   1   11.89    1.09 
  -5   5  -1   11.09    1.23 
   5   5   1   13.13    1.28 
  -5   5  -1   13.59    1.33 
   6  -5   1   36.56    2.09 
   6  -5   1   44.83    2.22 
  -6  -5  -1   45.84    2.37 
  -6  -5  -1   46.75    1.64 
   6  -5   1   43.76    2.25 
  -6  -5  -1   46.96    1.97 
   6  -5   1   45.90    2.33 
  -6   5  -1   45.55    2.32 
   6   5   1   47.32    1.69 
   6   5   1   47.22    1.74 
  -6   5  -1   44.57    2.31 
   6   5   1   48.53    2.43 
   6   5   1   46.03    2.32 
   6   5   1   46.55    1.97 
  -6   5  -1   46.70    2.38 
   6   5   1   46.84    2.34 
  -7  -5  -1    2.36    0.93 
   7  -5   1    3.06    0.91 
  -7  -5  -1    2.46    0.66 
   7  -5   1    2.30    0.84 
  -7   5  -1    3.02    0.99 
   7   5   1    3.53    0.66 
  -7   5  -1    2.65    0.85 
   7   5   1    2.01    0.61 
   7   5   1    2.70    0.68 
  -7   5  -1    2.40    0.85 
   7   5   1    2.71    0.60 
   7   5   1    1.83    0.88 
   8  -5   1    8.68    1.17 
   8  -5   1    6.56    1.31 
  -8  -5  -1    9.31    1.44 
  -8  -5  -1    7.85    0.78 
   8   5   1    6.36    1.13 
   8   5   1    7.69    0.79 
  -8   5  -1    7.08    1.22 
   8   5   1    9.58    1.03 
   8   5   1    9.56    0.85 
  -8   5  -1    9.32    1.38 
   8   5   1    6.54    0.84 
   9  -5   1   14.73    1.43 
  -9  -5  -1   16.20    0.90 
  -9  -5  -1   17.79    1.75 
   9  -5   1   16.31    1.59 
   9   5   1   16.80    1.66 
   9   5   1   15.11    1.33 
   9   5   1   14.75    1.15 
  -9   5  -1   15.67    1.64 
  -9   5  -1   15.52    1.44 
   9   5   1   15.93    1.05 
   9   5   1   15.07    0.88 
   9   5   1   16.65    1.12 
  10  -5   1    1.04    0.82 
 -10  -5  -1    0.05    0.89 
  10  -5   1    0.49    0.77 
  10   5   1    0.37    0.71 
  10   5   1    0.46    0.65 
  10   5   1    0.71    0.53 
 -10   5  -1    1.47    0.74 
 -10   5  -1    0.38    0.80 
  10   5   1    2.99    0.71 
  10   5   1    0.55    0.78 
  11  -5   1    3.89    1.10 
  11   5   1    4.31    0.79 
  11   5   1    6.19    1.26 
 -10  -6   1    2.34    0.65 
 -10  -6   1    0.72    0.96 
  10  -6  -1    0.15    0.64 
  10   6  -1    1.46    0.77 
  -9  -6   1    8.53    1.51 
   9  -6  -1    7.15    1.41 
  -9  -6   1    7.98    1.04 
   9  -6  -1    8.53    1.31 
   9   6  -1    7.00    0.88 
  -9   6   1    7.70    1.44 
   9   6  -1    5.53    1.22 
   9   6  -1    7.42    1.14 
  -9   6   1    6.73    1.32 
   9   6  -1    9.41    1.19 
   8  -6  -1   12.57    1.33 
  -8  -6   1   12.06    1.65 
  -8  -6   1   12.27    1.13 
   8  -6  -1   11.81    1.44 
  -8   6   1   11.94    1.45 
  -8   6   1   14.16    1.56 
   8   6  -1   12.68    1.22 
   8   6  -1   14.76    1.17 
   8   6  -1   14.41    1.57 
  -7  -6   1    3.12    0.71 
   7  -6  -1    1.85    0.80 
   7  -6  -1    2.16    0.78 
  -7  -6   1    3.16    1.00 
  -7  -6   1    1.47    0.65 
   7   6  -1    1.53    0.81 
  -7   6   1    2.47    0.97 
  -7   6   1    2.09    0.81 
   7   6  -1    1.12    0.65 
   7   6  -1    1.19    0.70 
   6  -6  -1    5.31    1.02 
   6  -6  -1    7.18    1.16 
  -6  -6   1    5.76    1.15 
  -6  -6   1    6.57    0.84 
  -6  -6   1    8.32    1.05 
   6   6  -1    7.22    1.34 
   6   6  -1    6.87    1.03 
   6   6  -1    5.73    0.97 
  -6   6   1    6.67    1.25 
  -6   6   1    7.71    1.24 
  -6   6   1    7.38    1.21 
  -5  -6   1   16.14    1.53 
   5  -6  -1   19.68    1.52 
  -5  -6   1   16.39    1.37 
   5  -6  -1   17.12    1.58 
   5  -6  -1   19.61    1.50 
  -5  -6   1   15.30    1.14 
   5  -6  -1   16.73    1.46 
   5   6  -1   18.48    1.26 
  -5   6   1   16.92    1.43 
   5   6  -1   17.84    1.44 
  -5   6   1   18.01    1.60 
  -5   6   1   17.49    1.51 
   5   6  -1   16.07    1.50 
  -5   6   1   18.96    1.51 
   4  -6  -1   -0.07    0.50 
   4  -6  -1    1.20    0.72 
  -4  -6   1    1.05    0.78 
  -4  -6   1    1.04    0.67 
  -4  -6   1    0.81    0.55 
   4  -6  -1    0.75    0.66 
   4  -6  -1    0.89    0.73 
   4   6  -1    0.81    0.61 
  -4   6   1    0.44    0.62 
   4   6  -1    1.58    0.72 
  -4   6   1    2.15    0.94 
  -4   6   1    0.67    0.73 
   4   6  -1    0.70    0.64 
   4   6  -1    0.61    0.53 
  -4   6   1    0.82    0.60 
   4   6  -1    0.72    0.61 
   3  -6  -1    4.15    0.93 
  -3  -6   1    5.71    1.10 
  -3  -6   1    4.42    0.85 
  -3  -6   1    4.88    1.05 
   3  -6  -1    4.40    0.93 
   3  -6  -1    4.33    0.89 
   3  -6  -1    3.96    1.09 
   3   6  -1    4.29    0.78 
  -3   6   1    4.95    0.93 
  -3   6   1    5.30    1.10 
   3   6  -1    4.37    0.96 
   3   6  -1    3.15    0.87 
  -3   6   1    4.85    0.97 
   3   6  -1    4.31    0.95 
  -3   6   1    3.88    0.58 
  -3   6   1    4.11    0.57 
  -3   6   1    5.27    1.14 
   3   6  -1    4.93    1.04 
  -2  -6   1   78.05    3.11 
   2  -6  -1   80.54    3.28 
   2  -6  -1   74.33    2.78 
  -2  -6   1   76.17    2.33 
  -2  -6   1   74.13    3.10 
  -2  -6   1   76.04    2.98 
   2  -6  -1   79.95    2.88 
   2  -6  -1   79.48    3.08 
   2   6  -1   78.41    3.16 
  -2   6   1   66.75    2.91 
   2   6  -1   76.94    2.87 
   2   6  -1   77.77    3.07 
  -2   6   1   80.87    2.48 
  -2   6   1   79.44    2.81 
  -2   6   1   78.87    3.27 
   2   6  -1   77.97    2.67 
  -2   6   1   82.61    2.83 
  -2   6   1   79.20    2.43 
   2   6  -1   77.24    2.14 
   2   6  -1   77.41    2.95 
   1  -6  -1    4.17    1.34 
  -1  -6   1    1.90    0.83 
  -1  -6   1    1.31    0.72 
   1  -6  -1    2.14    0.81 
  -1  -6   1    2.85    0.89 
   1  -6  -1    1.52    0.63 
  -1  -6   1    2.37    0.58 
   1  -6  -1    3.97    0.80 
   1   6  -1    3.02    0.86 
  -1   6   1    2.69    0.94 
  -1   6   1    1.95    0.64 
   1   6  -1    2.99    0.79 
  -1   6   1    2.50    0.66 
   1   6  -1    2.13    0.65 
  -1   6   1    2.80    0.67 
  -1   6   1    3.74    0.70 
  -1   6   1    1.03    0.71 
   1   6  -1    3.00    0.51 
   1   6  -1    2.73    0.72 
   1   6  -1    3.43    0.81 
   0  -6   1    3.69    0.93 
   0  -6  -1    2.56    0.70 
   0  -6   1    1.76    0.75 
   0  -6  -1    0.78    0.65 
   0  -6   1    2.05    0.58 
   0  -6   1    1.35    0.72 
   0  -6  -1    2.20    0.77 
   0  -6  -1    2.25    0.66 
   0   6  -1    3.81    0.63 
   0   6  -1    2.32    0.84 
   0   6  -1    2.28    0.67 
   0   6   1    1.80    0.74 
   0   6   1    2.19    0.63 
   0   6   1    2.47    0.67 
   0   6  -1    1.19    0.71 
   0   6   1    3.31    0.88 
   0   6   1    3.02    0.67 
   0   6   1    1.68    0.64 
   0   6  -1    2.36    0.70 
   0   6  -1    2.41    0.63 
   1  -6   1    2.29    0.79 
  -1  -6  -1    2.99    0.80 
   1  -6   1    2.99    0.70 
   1  -6   1    2.74    0.83 
  -1  -6  -1    2.10    0.83 
  -1  -6  -1    4.30    1.03 
  -1  -6  -1    3.87    0.83 
   1  -6   1    2.10    0.83 
   1   6   1    2.38    0.79 
  -1   6  -1    2.86    0.62 
  -1   6  -1    1.73    0.77 
   1   6   1    2.21    0.58 
   1   6   1    4.04    0.89 
   1   6   1    2.11    0.64 
  -1   6  -1    2.53    0.78 
  -1   6  -1    2.51    0.75 
  -1   6  -1    2.97    0.63 
   1   6   1    2.68    0.60 
   1   6   1    2.84    0.90 
  -1   6  -1    2.68    0.66 
   2  -6   1   74.65    2.65 
  -2  -6  -1   75.87    2.55 
   2  -6   1   79.18    3.17 
  -2  -6  -1   69.46    2.60 
  -2  -6  -1   66.86    2.98 
   2  -6   1   74.11    2.88 
   2  -6   1   74.94    3.01 
  -2  -6  -1   76.74    3.07 
  -2   6  -1   75.95    2.85 
   2   6   1   76.17    3.06 
   2   6   1   65.70    2.27 
   2   6   1   72.12    2.99 
  -2   6  -1   79.42    2.44 
  -2   6  -1   79.05    3.24 
   2   6   1   78.40    2.96 
  -2   6  -1   74.62    3.02 
   2   6   1   76.31    2.37 
   2   6   1   75.72    2.85 
  -2   6  -1   77.46    2.66 
  -2   6  -1   75.68    2.34 
  -3  -6  -1    7.14    1.23 
  -3  -6  -1    6.98    1.19 
  -3  -6  -1    4.92    0.80 
   3  -6   1    6.42    1.11 
   3  -6   1    6.28    1.13 
  -3  -6  -1    6.37    0.71 
   3  -6   1    6.96    1.01 
  -3   6  -1    5.60    0.60 
  -3   6  -1    5.60    1.08 
  -3   6  -1    7.98    1.24 
   3   6   1    5.54    0.99 
   3   6   1    5.95    0.65 
  -3   6  -1    4.82    0.58 
  -3   6  -1    6.96    1.14 
   3   6   1    7.17    1.16 
  -3   6  -1    9.81    1.01 
   3   6   1    6.47    1.07 
   3   6   1    6.89    1.11 
   3   6   1    6.44    0.75 
  -4  -6  -1    0.45    0.37 
  -4  -6  -1    0.11    0.77 
   4  -6   1    0.35    0.57 
  -4  -6  -1    0.50    0.35 
   4  -6   1    0.32    0.60 
   4  -6   1    0.56    0.67 
   4  -6   1    0.27    0.66 
  -4  -6  -1    0.16    0.46 
   4   6   1    0.62    0.39 
  -4   6  -1    0.32    0.66 
  -4   6  -1    0.95    0.64 
   4   6   1    0.86    0.68 
   4   6   1    1.75    0.77 
   4   6   1    0.60    0.54 
   4   6   1    1.29    0.42 
  -4   6  -1   -0.17    0.69 
   4   6   1   -0.26    0.54 
   5  -6   1   24.02    1.75 
   5  -6   1   18.01    1.56 
  -5  -6  -1   20.27    1.00 
  -5  -6  -1   20.81    1.00 
  -5  -6  -1   20.12    1.46 
  -5  -6  -1   19.19    1.71 
   5  -6   1   21.05    1.53 
   5  -6   1   21.17    1.62 
  -5   6  -1   20.35    1.70 
   5   6   1   21.07    1.51 
   5   6   1   19.38    1.00 
   5   6   1   18.11    0.95 
  -5   6  -1   20.24    1.67 
   5   6   1   19.57    1.62 
  -5   6  -1   20.44    1.61 
  -6  -6  -1   15.41    1.61 
  -6  -6  -1   16.71    0.88 
   6  -6   1   14.34    1.40 
  -6  -6  -1   15.55    1.30 
   6  -6   1   15.22    1.47 
   6   6   1   14.73    1.27 
   6   6   1   14.85    1.52 
   6   6   1   15.55    0.93 
   6   6   1   16.48    0.88 
  -6   6  -1   19.61    1.67 
  -6   6  -1   20.07    1.65 
  -7  -6  -1    2.80    0.79 
   7  -6   1    2.46    0.88 
   7  -6   1    4.50    1.11 
  -7  -6  -1    4.23    1.17 
   7   6   1    2.96    0.83 
   7   6   1    5.01    0.75 
   7   6   1    4.24    0.66 
  -7   6  -1    5.13    1.21 
   7   6   1    3.11    0.87 
   8  -6   1    6.91    1.27 
  -8  -6  -1    6.42    0.92 
  -8  -6  -1    5.57    1.28 
   8  -6   1    6.76    1.23 
   8   6   1    8.94    0.95 
   8   6   1    5.10    1.11 
   8   6   1    5.44    0.73 
   8   6   1    6.81    0.89 
  -8   6  -1    5.06    1.12 
  -8   6  -1    7.39    1.34 
   9  -6   1    4.24    1.08 
  -9  -6  -1    2.08    1.08 
   9  -6   1    3.28    0.99 
  -9  -6  -1    3.01    0.70 
   9   6   1    3.39    1.12 
   9   6   1    4.25    0.80 
  -9   6  -1    3.32    1.01 
  -9   6  -1    3.93    1.09 
  10  -6   1    1.06    0.78 
 -10  -6  -1    1.18    0.97 
  10   6   1    1.43    0.65 
   8  -7  -1    0.32    0.76 
   8  -7  -1    0.46    0.74 
  -8  -7   1    1.50    0.79 
  -8  -7   1    0.27    0.78 
  -8   7   1    0.11    0.78 
  -8   7   1    1.32    0.90 
   8   7  -1    0.58    0.61 
   8   7  -1    0.49    0.86 
   7  -7  -1    1.27    0.84 
  -7  -7   1    2.94    1.07 
  -7  -7   1    1.26    0.69 
   7  -7  -1    1.55    0.81 
  -7  -7   1    1.58    0.60 
  -7   7   1    0.39    0.75 
  -7   7   1    2.05    0.91 
   7   7  -1    1.60    0.62 
   7   7  -1    2.12    0.76 
   7   7  -1    1.14    0.80 
   6  -7  -1   15.17    1.50 
  -6  -7   1   13.43    1.61 
  -6  -7   1   12.83    1.09 
  -6  -7   1   12.91    1.31 
   6  -7  -1   15.76    1.52 
   6   7  -1   13.03    1.11 
   6   7  -1   12.35    1.34 
   6   7  -1   15.28    1.61 
  -6   7   1   15.08    1.51 
  -5  -7   1    2.91    0.71 
   5  -7  -1    2.74    0.83 
   5  -7  -1    2.88    0.92 
  -5  -7   1    1.56    0.77 
  -5  -7   1    1.70    0.92 
  -5   7   1    2.48    0.94 
  -5   7   1    3.20    0.88 
   5   7  -1    5.20    1.27 
   5   7  -1    4.86    1.14 
   5   7  -1    2.79    0.72 
   4  -7  -1    1.25    0.81 
   4  -7  -1    0.58    0.73 
   4  -7  -1    0.97    0.63 
  -4  -7   1    0.88    0.83 
  -4  -7   1    1.13    0.63 
   4  -7  -1    0.03    0.64 
   4   7  -1    0.60    0.73 
  -4   7   1    1.06    0.81 
   4   7  -1    1.31    0.71 
  -4   7   1    1.62    0.69 
   3  -7  -1   -0.21    0.56 
  -3  -7   1   -0.04    0.62 
  -3  -7   1    0.04    0.52 
   3  -7  -1    1.17    0.85 
   3  -7  -1    0.48    0.74 
  -3  -7   1    0.41    0.77 
   3  -7  -1    1.58    0.73 
  -3   7   1    0.91    0.65 
  -3   7   1    1.13    0.41 
   3   7  -1    0.23    0.52 
  -3   7   1    0.54    0.77 
   3   7  -1    0.63    0.55 
   3   7  -1    0.55    0.69 
  -3   7   1    0.73    0.60 
  -3   7   1    0.14    0.36 
  -2  -7   1   36.27    2.19 
   2  -7  -1   33.58    1.85 
  -2  -7   1   33.67    1.95 
   2  -7  -1   37.77    1.95 
  -2  -7   1   38.13    1.49 
   2  -7  -1   36.28    2.30 
  -2  -7   1   37.38    2.22 
   2  -7  -1   39.87    2.23 
  -2   7   1   35.41    1.85 
   2   7  -1   39.50    2.27 
   2   7  -1   36.70    1.79 
  -2   7   1   36.60    1.56 
   2   7  -1   32.69    1.96 
  -2   7   1   37.38    1.60 
   2   7  -1   34.07    1.89 
  -2   7   1   37.52    1.88 
  -2   7   1   36.40    2.35 
  -1  -7   1    6.42    0.87 
   1  -7  -1    8.32    1.19 
   1  -7  -1    4.93    1.09 
   1  -7  -1    6.16    1.16 
  -1  -7   1    5.84    1.25 
   1  -7  -1    5.96    1.01 
  -1  -7   1    5.74    1.16 
  -1  -7   1    4.86    1.11 
   1   7  -1    5.09    0.66 
   1   7  -1    7.16    0.97 
  -1   7   1    8.06    0.93 
  -1   7   1   10.08    1.39 
  -1   7   1    7.39    1.06 
   1   7  -1    8.75    1.26 
  -1   7   1    6.40    0.83 
  -1   7   1    9.24    1.20 
   1   7  -1    6.48    1.05 
   0  -7  -1    4.02    1.05 
   0  -7  -1    4.09    0.91 
   0  -7   1    3.45    0.76 
   0  -7   1    4.26    1.07 
   0  -7   1    3.83    1.03 
   0  -7  -1    3.75    1.10 
   0  -7   1    4.31    1.03 
   0  -7  -1    4.78    0.94 
   0   7  -1    4.33    0.84 
   0   7   1    4.05    0.89 
   0   7   1    3.40    0.96 
   0   7   1    2.90    0.75 
   0   7  -1    5.30    0.89 
   0   7   1    4.41    0.80 
   0   7  -1    3.61    0.85 
   0   7  -1    3.89    1.14 
   0   7  -1    3.87    0.71 
  -1  -7  -1    4.15    0.92 
   1  -7   1    2.95    0.89 
   1  -7   1    2.92    0.70 
  -1  -7  -1    3.22    1.06 
  -1  -7  -1    2.26    0.92 
   1  -7   1    1.99    0.96 
  -1  -7  -1    2.68    0.88 
   1  -7   1    1.62    0.83 
  -1   7  -1    2.44    0.65 
   1   7   1    2.04    0.74 
  -1   7  -1    2.07    0.89 
   1   7   1    2.34    0.64 
   1   7   1    4.29    0.71 
  -1   7  -1    2.17    0.65 
   1   7   1    3.00    1.07 
  -1   7  -1    1.51    0.73 
   1   7   1    2.17    0.84 
  -1   7  -1    2.06    0.63 
  -2  -7  -1   29.67    1.65 
   2  -7   1   31.40    2.11 
   2  -7   1   27.30    1.94 
  -2  -7  -1   28.40    1.99 
   2  -7   1   30.75    1.66 
  -2  -7  -1   28.77    1.54 
  -2  -7  -1   30.88    2.02 
   2  -7   1   29.64    1.88 
   2   7   1   29.99    2.03 
   2   7   1   29.33    1.76 
  -2   7  -1   30.05    1.80 
  -2   7  -1   31.44    1.48 
   2   7   1   29.17    1.39 
  -2   7  -1   31.94    2.18 
  -2   7  -1   30.05    1.41 
   2   7   1   30.88    1.41 
   2   7   1   27.14    1.79 
  -3  -7  -1    1.40    0.53 
   3  -7   1    0.02    0.71 
   3  -7   1    1.10    0.70 
  -3  -7  -1    0.94    0.71 
  -3  -7  -1    0.76    0.52 
  -3  -7  -1    0.68    0.79 
   3  -7   1    0.66    0.67 
   3  -7   1    1.37    0.77 
   3   7   1    0.67    0.73 
  -3   7  -1    1.86    0.87 
  -3   7  -1    1.93    0.49 
   3   7   1    0.99    0.46 
  -3   7  -1    0.73    0.41 
   3   7   1    1.34    0.83 
   3   7   1    1.22    0.46 
  -3   7  -1    2.23    0.78 
  -4  -7  -1    2.57    0.54 
  -4  -7  -1    2.71    1.06 
   4  -7   1    1.67    0.89 
   4  -7   1    1.95    0.94 
  -4  -7  -1    3.10    0.59 
   4  -7   1    2.81    0.86 
   4   7   1    1.73    0.79 
   4   7   1    1.98    0.52 
  -4   7  -1    0.84    0.82 
  -4   7  -1    2.43    0.85 
   4   7   1    1.81    0.50 
   4   7   1    1.24    0.74 
  -5  -7  -1    9.29    0.70 
   5  -7   1    9.03    1.52 
   5  -7   1    8.41    1.30 
  -5  -7  -1    8.63    1.58 
  -5  -7  -1    9.04    1.16 
  -5   7  -1    7.17    1.30 
   5   7   1    9.16    1.47 
   5   7   1    5.85    0.66 
   5   7   1    8.31    1.32 
  -5   7  -1   12.86    1.54 
   6  -7   1   13.32    1.38 
  -6  -7  -1   12.48    1.57 
   6  -7   1   12.58    1.44 
  -6  -7  -1   13.80    1.34 
  -6   7  -1   12.65    1.62 
   6   7   1   13.33    0.80 
   6   7   1   11.13    1.43 
   6   7   1   12.12    1.30 
  -6   7  -1   12.44    1.46 
  -7  -7  -1    2.40    1.05 
   7  -7   1    1.43    0.89 
  -7  -7  -1    1.82    0.70 
   7  -7   1    1.99    0.88 
   7   7   1    1.64    0.77 
  -7   7  -1    4.05    1.11 
   7   7   1    2.78    0.50 
   7   7   1    2.40    0.50 
  -7   7  -1    1.83    0.91 
   7   7   1    1.31    0.89 
  -8  -7  -1    0.56    0.65 
   8  -7   1   -0.23    0.77 
   8  -7   1    0.45    0.69 
  -8  -7  -1    1.45    0.97 
   8   7   1    0.14    0.41 
  -8   7  -1   -0.99    0.63 
  -8   7  -1    0.37    0.78 
   8   7   1    0.24    0.81 
   6  -8  -1    0.96    0.79 
  -6  -8   1    0.82    0.91 
  -6  -8   1    0.90    0.73 
   6  -8  -1    0.01    0.82 
  -6  -8   1    2.36    0.70 
  -6   8   1    0.94    0.93 
   6   8  -1   -1.00    0.58 
  -6   8   1   -0.13    0.70 
   5  -8  -1    6.62    1.21 
  -5  -8   1    6.23    0.95 
   5  -8  -1    6.09    1.12 
  -5  -8   1    5.90    1.23 
  -5   8   1    4.83    1.10 
   5   8  -1    4.47    1.23 
   5   8  -1    5.14    1.10 
  -4  -8   1    1.20    0.65 
  -4  -8   1    0.26    0.66 
  -4  -8   1    1.25    0.89 
   4  -8  -1    0.46    0.80 
   4  -8  -1    0.30    0.70 
   4   8  -1    0.02    0.71 
   4   8  -1    0.81    0.63 
   4   8  -1    1.31    0.81 
  -4   8   1    1.31    0.89 
  -4   8   1    0.54    0.70 
  -3  -8   1    8.12    1.53 
   3  -8  -1    6.73    1.16 
   3  -8  -1    7.16    1.36 
  -3  -8   1    9.87    1.54 
  -3  -8   1    7.87    1.18 
   3  -8  -1    8.74    1.40 
   3   8  -1    9.33    1.01 
  -3   8   1    7.33    1.62 
   3   8  -1    6.51    1.42 
  -3   8   1    6.30    0.74 
  -3   8   1   10.35    1.26 
   3   8  -1   10.94    1.32 
   2  -8  -1    3.26    1.08 
  -2  -8   1    2.51    1.08 
  -2  -8   1    1.83    0.97 
   2  -8  -1    1.29    0.73 
   2  -8  -1    2.09    0.88 
   2  -8  -1    1.85    1.00 
  -2  -8   1    0.70    0.75 
   2   8  -1    2.22    0.89 
  -2   8   1    1.00    0.67 
  -2   8   1    1.61    0.58 
   2   8  -1    1.93    1.02 
  -2   8   1    3.02    0.83 
  -2   8   1    1.76    1.03 
  -2   8   1    1.62    0.61 
   2   8  -1    2.15    0.71 
   1  -8  -1    2.49    0.96 
  -1  -8   1    1.10    0.93 
   1  -8  -1    1.77    0.96 
  -1  -8   1    0.95    0.93 
   1  -8  -1    1.01    0.76 
  -1  -8   1    2.28    0.98 
  -1  -8   1    0.90    0.67 
   1  -8  -1    1.29    0.77 
   1   8  -1    0.65    0.66 
  -1   8   1    1.63    0.70 
  -1   8   1    1.69    0.68 
  -1   8   1    1.93    0.70 
  -1   8   1    1.15    0.91 
   1   8  -1    1.23    0.93 
  -1   8   1    1.09    0.54 
   1   8  -1    0.81    0.70 
   1   8  -1    1.60    0.68 
   0  -8  -1    0.37    0.77 
   0  -8   1    0.79    0.77 
   0  -8   1    0.58    0.80 
   0  -8   1    1.20    0.63 
   0  -8  -1    1.38    0.84 
   0  -8  -1    1.59    0.79 
   0  -8   1    0.77    0.81 
   0  -8  -1    1.54    0.76 
   0   8   1    0.44    0.55 
   0   8   1    0.13    0.52 
   0   8   1    2.23    0.73 
   0   8  -1    1.47    0.70 
   0   8  -1    0.95    0.61 
   0   8  -1    1.36    0.68 
   0   8  -1    1.17    0.86 
   0   8   1    0.14    0.88 
   0   8   1    2.79    0.72 
  -1  -8  -1    1.67    0.89 
   1  -8   1    2.76    0.87 
  -1  -8  -1    0.98    0.84 
  -1  -8  -1    2.66    0.96 
  -1  -8  -1    1.26    0.83 
   1  -8   1    2.41    0.72 
   1  -8   1    3.29    1.06 
   1  -8   1    1.00    0.86 
  -1   8  -1    1.77    0.64 
   1   8   1    2.95    0.96 
   1   8   1    2.08    0.63 
   1   8   1    3.26    1.09 
  -1   8  -1    1.05    0.72 
  -1   8  -1    1.40    0.65 
  -1   8  -1    1.49    0.93 
   1   8   1    1.09    0.73 
   1   8   1    2.83    0.69 
  -2  -8  -1    2.31    0.96 
   2  -8   1    0.78    0.81 
   2  -8   1    0.37    0.71 
  -2  -8  -1    3.51    0.79 
  -2  -8  -1    1.05    0.60 
   2  -8   1    1.53    0.89 
  -2  -8  -1    1.29    0.75 
   2   8   1    2.09    1.00 
   2   8   1    2.46    0.85 
  -2   8  -1    0.95    0.76 
  -2   8  -1    0.86    0.85 
  -2   8  -1    1.10    0.58 
   2   8   1    3.51    0.70 
   2   8   1    2.12    0.60 
  -2   8  -1    1.21    0.58 
  -3  -8  -1    3.41    0.67 
  -3  -8  -1    4.21    1.12 
  -3  -8  -1    3.27    1.06 
  -3  -8  -1    3.58    0.67 
   3  -8   1    2.44    1.04 
   3  -8   1    3.40    1.16 
   3  -8   1    2.32    0.85 
  -3   8  -1    2.35    0.54 
   3   8   1    3.05    0.63 
   3   8   1    4.21    1.14 
  -3   8  -1    1.62    0.83 
   3   8   1    2.80    0.96 
  -3   8  -1    3.66    0.63 
   3   8   1    3.72    0.71 
  -3   8  -1    3.38    1.00 
  -4  -8  -1   -0.10    0.34 
  -4  -8  -1    0.66    0.71 
  -4  -8  -1    0.00    0.75 
   4  -8   1    1.75    0.76 
   4  -8   1   -0.01    0.74 
   4   8   1    0.08    0.41 
   4   8   1    0.38    0.79 
   4   8   1    0.60    0.77 
  -4   8  -1   -0.28    0.82 
  -4   8  -1   -0.31    0.61 
  -5  -8  -1   20.10    1.91 
   5  -8   1   17.56    1.75 
   5  -8   1   17.20    1.54 
  -5   8  -1   16.85    1.64 
  -5   8  -1   17.56    1.89 
   5   8   1   16.93    1.68 
   5   8   1   18.44    1.73 
   5   8   1   18.66    0.92 
  -6  -8  -1   -0.19    1.21 
   6  -8   1    1.25    0.91 
   6  -8   1    0.41    0.78 
  -6   8  -1    1.31    0.86 
   6   8   1    0.38    0.80 
  -6   8  -1    1.21    0.86 
   3  -9  -1    0.67    0.75 
  -3   9   1    0.71    0.97 
   3   9  -1    0.23    0.59 
  -3   9   1    0.56    0.70 
   2  -9  -1    8.82    1.40 
   2  -9  -1   13.66    1.91 
  -2  -9   1    8.29    1.29 
   2   9  -1    6.35    1.18 
   2   9  -1   11.09    1.89 
  -2   9   1    9.85    1.19 
   2   9  -1    8.37    1.17 
  -2   9   1    7.48    1.04 
  -2   9   1    9.23    1.81 
   1  -9  -1    3.96    1.03 
   1  -9  -1    0.20    0.75 
   1  -9  -1    2.32    1.09 
  -1  -9   1    1.24    0.61 
   1   9  -1    1.36    0.71 
   1   9  -1    2.21    1.14 
  -1   9   1    0.53    0.64 
   1   9  -1    0.12    0.66 
  -1   9   1   -0.25    0.96 
  -1   9   1    2.07    0.73 
  -1   9   1    1.42    0.67 
   0  -9   1    2.41    0.67 
   0  -9  -1    0.48    0.97 
   0  -9  -1    0.23    0.82 
   0  -9   1    0.29    1.10 
   0  -9   1    0.04    0.69 
   0  -9  -1    3.16    1.00 
   0   9   1    2.01    1.04 
   0   9  -1    0.99    0.92 
   0   9   1    2.16    0.70 
   0   9   1    1.66    0.69 
   0   9   1    0.72    0.67 
   0   9  -1   -0.34    0.62 
   0   9  -1    0.80    0.72 
  -1  -9  -1    1.17    0.78 
  -1  -9  -1    1.46    0.86 
   1  -9   1    2.50    1.10 
   1  -9   1    0.81    0.73 
   1  -9   1    0.65    0.65 
  -1   9  -1    1.29    1.04 
  -1   9  -1    2.39    0.81 
   1   9   1    0.26    0.70 
   1   9   1    2.31    1.16 
   1   9   1    1.41    0.63 
   2  -9   1    8.99    1.27 
  -2  -9  -1    8.91    1.12 
   2  -9   1   11.36    1.96 
   2   9   1    9.48    1.36 
  -2   9  -1   12.69    2.08 
  -2   9  -1    9.35    1.27 
   2   9   1   10.68    0.95 
  -2   9  -1    9.26    0.97 
   3  -9   1    1.62    0.80 
  -3   9  -1   -0.12    0.83 
   3   9   1    0.72    0.65 
  -3   9  -1    1.45    0.81 
  13   0  -2    1.42    0.66 
  13   0  -2    1.18    0.76 
  13   0  -2    1.58    0.74 
  13   0  -2    0.45    0.64 
  13   0  -2    0.59    0.77 
  12   0  -2    2.43    0.66 
  12   0  -2   -0.26    0.48 
  12   0  -2    0.39    0.57 
  12   0  -2    0.12    0.51 
  12   0  -2   -0.20    0.59 
  12   0  -2   -0.63    0.64 
  11   0  -2   12.38    1.07 
  11   0  -2   12.89    1.24 
  11   0  -2   13.18    1.18 
  11   0  -2   12.60    1.45 
  11   0  -2   12.46    1.13 
  11   0  -2   12.46    1.14 
  10   0  -2   53.88    2.33 
  10   0  -2   52.73    2.13 
  10   0  -2   50.11    2.03 
  10   0  -2   53.75    2.38 
  10   0  -2   50.80    2.14 
  10   0  -2   49.29    2.56 
   9   0  -2    8.33    1.11 
   9   0  -2    7.70    0.82 
   9   0  -2   10.47    1.23 
   9   0  -2    6.92    0.84 
   9   0  -2    7.99    0.93 
   9   0  -2   10.47    1.02 
   9   0  -2    7.76    0.95 
   8   0  -2    4.11    0.66 
   8   0  -2    4.11    0.90 
   8   0  -2    4.66    0.78 
  -8   0   2    4.20    0.74 
   8   0  -2    4.86    1.00 
   8   0  -2    5.55    0.92 
   8   0  -2    4.38    0.42 
   8   0  -2    4.91    0.80 
   8   0  -2    4.69    0.82 
   7   0  -2   77.08    2.42 
   7   0  -2   66.13    2.37 
   7   0  -2   74.80    2.79 
   7   0  -2   75.30    2.58 
  -7   0   2   73.77    2.49 
   7   0  -2   75.38    2.30 
   7   0  -2   74.54    2.04 
   7   0  -2   75.80    1.98 
   7   0  -2   75.97    2.78 
   6   0  -2   96.00    2.47 
   6   0  -2   96.28    2.64 
   6   0  -2   98.65    2.76 
   6   0  -2   95.47    2.93 
   6   0  -2   96.50    2.84 
  -6   0   2   95.52    2.96 
   6   0  -2   93.44    3.10 
   6   0  -2   93.55    2.55 
   6   0  -2   93.95    3.14 
  -5   0   2   13.25    0.86 
   5   0  -2   14.71    0.88 
   5   0  -2   13.73    0.84 
   5   0  -2   13.83    1.01 
  -5   0   2   14.74    0.92 
   5   0  -2   14.48    0.81 
   5   0  -2   14.83    0.83 
   5   0  -2   14.65    0.75 
   5   0  -2   13.03    1.01 
   5   0  -2   13.58    0.70 
   4   0  -2   45.41    1.33 
   4   0  -2   46.35    1.59 
  -4   0   2   47.01    1.61 
   4   0  -2   46.96    1.42 
   4   0  -2   43.95    1.54 
   4   0  -2   45.56    1.76 
   4   0  -2   47.36    1.54 
  -4   0   2   45.95    1.59 
   4   0  -2   46.86    1.45 
   3   0  -2  328.16    7.69 
   3   0  -2  343.59    7.45 
  -3   0   2  330.02    7.47 
   3   0  -2  331.08    7.47 
   3   0  -2  333.65    7.48 
   3   0  -2  333.17    7.49 
  -3   0   2  333.48    7.49 
  -3   0   2  325.27    7.66 
   3   0  -2  319.57    7.17 
   3   0  -2  331.36    7.12 
  -2   0   2   48.18    1.56 
   2   0  -2   47.31    1.45 
  -2   0   2   48.52    1.46 
   2   0  -2   49.61    1.44 
  -2   0   2   48.55    1.42 
   2   0  -2   47.81    1.08 
   2   0  -2   48.52    1.51 
   2   0  -2   48.50    1.11 
   2   0  -2   49.10    1.54 
   2   0  -2   46.88    1.55 
  -1   0   2    0.21    0.29 
   1   0  -2    0.47    0.15 
   1   0  -2    0.02    0.24 
  -1   0   2    0.12    0.24 
   1   0  -2    0.41    0.30 
  -1   0   2    0.13    0.23 
   1   0  -2    0.68    0.36 
  -1   0   2    0.37    0.27 
   1   0  -2    0.25    0.24 
   0   0  -2   30.57    1.09 
   0   0  -2   31.05    1.14 
   0   0   2   30.58    1.13 
   0   0   2   33.01    1.10 
   0   0  -2   31.53    1.13 
   0   0  -2   32.24    0.98 
   0   0  -2   30.46    1.10 
   0   0   2   29.75    1.12 
   0   0   2   30.24    1.13 
   0   0   2   30.75    0.96 
   1   0   2    0.41    0.29 
  -1   0  -2    0.49    0.35 
  -1   0  -2    0.29    0.31 
   1   0   2    0.65    0.30 
   1   0   2    0.76    0.31 
  -1   0  -2    0.50    0.29 
  -1   0  -2    0.69    0.29 
   1   0   2    1.16    0.38 
  -1   0  -2    0.33    0.24 
   1   0   2    0.92    0.26 
  -2   0  -2   25.94    0.94 
   2   0   2   24.14    0.95 
  -2   0  -2   24.80    1.13 
   2   0   2   24.58    0.91 
  -2   0  -2   24.76    0.93 
   2   0   2   25.75    1.16 
  -2   0  -2   23.02    0.99 
   2   0   2   23.27    0.98 
  -2   0  -2   24.94    0.95 
   2   0   2   23.74    0.94 
   3   0   2  160.50    4.14 
  -3   0  -2  161.59    4.16 
   3   0   2  167.67    4.04 
  -3   0  -2  169.18    3.85 
   3   0   2  160.35    4.03 
   3   0   2  171.53    3.92 
  -3   0  -2  164.25    4.05 
   3   0   2  173.54    4.37 
  -3   0  -2  162.43    4.05 
   4   0   2   72.95    2.16 
   4   0   2   70.71    1.91 
  -4   0  -2   73.33    2.32 
   4   0   2   73.20    2.21 
   4   0   2   70.15    2.47 
   4   0   2   69.98    2.28 
  -4   0  -2   71.97    2.22 
  -4   0  -2   71.96    2.16 
  -4   0  -2   72.16    1.85 
   5   0   2   45.70    1.70 
   5   0   2   43.55    1.28 
   5   0   2   42.89    1.61 
   5   0   2   43.45    1.94 
   5   0   2   43.21    1.75 
  -5   0  -2   45.61    1.73 
  -5   0  -2   43.38    1.22 
   5   0   2   42.36    1.83 
   6   0   2   37.52    1.73 
  -6   0  -2   35.51    1.60 
   6   0   2   26.60    1.41 
   6   0   2   32.70    1.39 
   6   0   2   33.58    1.59 
   6   0   2   26.95    1.34 
   6   0   2   37.84    1.84 
   7   0   2   35.44    1.75 
   7   0   2   33.52    1.65 
   7   0   2   34.30    1.51 
   7   0   2   31.87    1.66 
   7   0   2   34.74    1.77 
  -7   0  -2   36.13    1.75 
   7   0   2   36.21    1.58 
   7   0   2   32.04    1.85 
   8   0   2   10.13    1.13 
   8   0   2   10.37    1.03 
   8   0   2    9.38    1.02 
   8   0   2   11.57    1.32 
   8   0   2   11.46    1.09 
   8   0   2   11.99    0.94 
   8   0   2   11.07    0.96 
   9   0   2   25.10    1.59 
   9   0   2   22.61    1.55 
   9   0   2   23.52    1.77 
   9   0   2   27.16    1.66 
   9   0   2   26.32    1.71 
   9   0   2   25.12    1.39 
   9   0   2   24.69    1.43 
  10   0   2   19.37    1.50 
  10   0   2   18.09    1.30 
  10   0   2   18.01    1.47 
  10   0   2   17.61    1.47 
  10   0   2   20.79    1.28 
  10   0   2   16.45    1.61 
  10   0   2   19.28    1.50 
  10   0   2   16.82    1.44 
  11   0   2    9.49    1.44 
  11   0   2    8.69    1.00 
  11   0   2   10.13    1.24 
  11   0   2    8.05    1.00 
  11   0   2    9.37    1.22 
  12   0   2   -0.09    0.63 
  12   0   2   -0.52    0.62 
  12   0   2    0.60    0.75 
  12   0   2   -0.23    0.51 
  12   0   2    0.99    0.56 
  13   0   2    3.72    1.15 
  13   0   2    2.50    1.02 
  13   0   2    1.77    0.75 
  13   0   2    1.76    0.89 
  13  -1  -2    7.97    0.96 
  13  -1  -2    6.78    1.03 
  13  -1  -2    4.73    1.63 
  13   1  -2    3.99    0.95 
  13   1  -2    4.42    1.03 
  13   1  -2    5.07    1.16 
  13   1  -2    4.83    1.01 
  13   1  -2    3.40    1.13 
  12  -1  -2    0.89    0.76 
  12  -1  -2    0.57    0.58 
  12  -1  -2    1.38    0.77 
  12  -1  -2    0.36    0.58 
  12  -1  -2    1.04    0.60 
  12   1  -2    1.08    0.75 
  12   1  -2   -0.16    0.55 
  12   1  -2    0.52    0.58 
  12   1  -2    0.34    0.56 
  12   1  -2    1.13    0.93 
  11  -1  -2    6.06    0.78 
  11  -1  -2    5.17    0.84 
  11  -1  -2    7.40    0.93 
  11  -1  -2    5.27    0.87 
  11  -1  -2    6.15    1.25 
  11  -1  -2    5.48    1.11 
  11   1  -2    5.94    1.29 
  11   1  -2    4.36    0.89 
  11   1  -2    3.64    0.86 
  11   1  -2    5.99    1.09 
  11   1  -2    5.42    0.86 
  11   1  -2    5.53    1.00 
  10  -1  -2   14.37    1.31 
  10  -1  -2   14.23    1.29 
  10  -1  -2   16.04    1.09 
  10  -1  -2   12.76    1.42 
  10  -1  -2   15.11    1.10 
  10  -1  -2   13.00    1.07 
  10   1  -2   15.29    1.31 
  10   1  -2   15.00    1.24 
  10   1  -2   13.18    1.40 
  10   1  -2   15.20    1.41 
  10   1  -2   14.13    1.16 
  10   1  -2   13.53    1.17 
  10   1  -2   14.25    1.09 
   9  -1  -2    1.16    0.70 
   9  -1  -2    0.59    0.53 
   9  -1  -2    3.06    0.79 
   9  -1  -2    0.36    0.50 
   9  -1  -2    1.61    0.49 
   9  -1  -2    1.89    0.43 
   9  -1  -2    1.01    0.53 
   9   1  -2    1.07    0.68 
   9   1  -2    1.40    0.69 
   9   1  -2    0.92    0.53 
   9   1  -2    0.28    0.53 
   9   1  -2    1.02    0.59 
   9   1  -2    0.74    0.48 
   9   1  -2    1.00    0.57 
   8  -1  -2   46.29    1.57 
   8  -1  -2   43.08    2.18 
   8  -1  -2   50.84    1.76 
  -8  -1   2   45.40    2.05 
   8  -1  -2   47.59    1.66 
   8  -1  -2   46.37    1.78 
   8  -1  -2   46.08    2.27 
   8  -1  -2   45.24    1.76 
   8  -1  -2   47.53    2.10 
   8   1  -2   46.01    2.20 
   8   1  -2   45.11    1.89 
   8   1  -2   43.54    1.96 
   8   1  -2   39.14    1.70 
   8   1  -2   43.93    2.10 
   8   1  -2   47.58    2.03 
   8   1  -2   47.66    1.91 
   7  -1  -2   17.05    1.30 
   7  -1  -2   17.46    0.95 
   7  -1  -2   16.52    0.91 
   7  -1  -2   17.56    1.01 
   7  -1  -2   17.23    1.33 
   7  -1  -2   18.27    1.22 
  -7  -1   2   15.55    1.15 
   7  -1  -2   17.45    0.99 
   7   1  -2   18.37    1.02 
   7   1  -2   16.18    1.22 
   7   1  -2   13.39    0.97 
   7   1  -2   17.24    1.05 
  -7   1   2   15.93    1.19 
   7   1  -2   16.22    1.26 
  -7   1   2   18.17    0.98 
   7   1  -2   17.87    0.64 
   7   1  -2   17.96    1.17 
   6  -1  -2    2.03    0.42 
   6  -1  -2    2.14    0.67 
   6  -1  -2    2.17    0.56 
   6  -1  -2    2.06    0.44 
   6  -1  -2    2.99    0.51 
  -6  -1   2    1.38    0.57 
   6  -1  -2    1.88    0.63 
  -6   1   2    1.96    0.47 
  -6   1   2    2.44    0.46 
   6   1  -2    2.43    0.64 
   6   1  -2    2.64    0.53 
   6   1  -2    1.46    0.46 
   6   1  -2    2.00    0.34 
   6   1  -2    2.83    0.50 
   6   1  -2    2.08    0.36 
  -6   1   2    2.60    0.56 
   6   1  -2    2.53    0.49 
   5  -1  -2   27.97    1.36 
   5  -1  -2   26.48    1.04 
   5  -1  -2   26.60    1.43 
   5  -1  -2   26.52    1.13 
   5  -1  -2   25.88    1.05 
  -5  -1   2   25.54    1.17 
   5  -1  -2   26.07    1.39 
  -5  -1   2   26.02    1.30 
   5   1  -2   26.45    0.97 
   5   1  -2   26.49    1.29 
  -5   1   2   26.86    1.34 
  -5   1   2   26.42    1.07 
  -5   1   2   26.86    1.12 
   5   1  -2   26.00    1.10 
   5   1  -2   26.21    1.12 
   5   1  -2   28.40    1.43 
  -5   1   2   26.74    1.18 
  -4  -1   2  285.51    6.42 
  -4  -1   2  278.02    6.76 
   4  -1  -2  283.89    6.55 
  -4  -1   2  282.20    6.46 
   4  -1  -2  279.90    6.74 
   4  -1  -2  283.54    6.86 
   4  -1  -2  275.65    6.27 
   4  -1  -2  279.25    6.37 
  -4  -1   2  278.78    6.78 
  -4  -1   2  276.57    6.48 
  -4   1   2  275.97    6.36 
   4   1  -2  281.32    6.36 
   4   1  -2  284.06    6.74 
   4   1  -2  282.05    6.84 
  -4   1   2  281.80    6.76 
  -4   1   2  283.10    6.38 
   4   1  -2  274.28    6.37 
   4   1  -2  287.08    6.40 
  -3  -1   2  170.02    4.25 
   3  -1  -2  168.72    4.31 
   3  -1  -2  162.61    3.79 
  -3  -1   2  166.54    3.95 
  -3  -1   2  169.74    4.09 
   3  -1  -2  171.42    3.96 
   3  -1  -2  165.71    4.23 
   3  -1  -2  170.39    4.15 
   3  -1  -2  167.30    4.27 
  -3  -1   2  165.68    4.27 
  -3  -1   2  165.89    3.86 
  -3   1   2  166.06    4.16 
  -3   1   2  165.57    3.91 
  -3   1   2  161.55    4.21 
   3   1  -2  166.69    4.31 
   3   1  -2  168.66    3.92 
  -3   1   2  165.08    3.85 
   3   1  -2  167.57    4.22 
   3   1  -2  164.69    3.99 
   3   1  -2  168.99    3.86 
  -2  -1   2    3.26    0.38 
   2  -1  -2    3.73    0.51 
  -2  -1   2    5.43    0.69 
  -2  -1   2    4.78    0.49 
   2  -1  -2    3.15    0.45 
   2  -1  -2    3.84    0.53 
   2  -1  -2    4.44    0.53 
   2  -1  -2    3.80    0.32 
   2  -1  -2    4.05    0.51 
  -2  -1   2    3.57    0.29 
  -2  -1   2    4.62    0.61 
   2   1  -2    3.72    0.29 
  -2   1   2    3.47    0.32 
  -2   1   2    4.14    0.45 
   2   1  -2    3.50    0.37 
   2   1  -2    3.79    0.46 
  -2   1   2    3.74    0.52 
   2   1  -2    3.93    0.50 
   2   1  -2    4.32    0.60 
  -2   1   2    3.70    0.48 
  -1  -1   2   68.26    1.83 
  -1  -1   2   72.03    1.68 
   1  -1  -2   71.96    1.76 
  -1  -1   2   68.86    2.15 
  -1  -1   2   68.94    1.97 
   1  -1  -2   71.92    1.91 
  -1  -1   2   69.36    1.96 
   1  -1  -2   68.47    2.02 
   1  -1  -2   71.54    1.88 
  -1   1   2   70.38    1.97 
   1   1  -2   69.23    1.71 
  -1   1   2   71.62    2.04 
   1   1  -2   67.59    2.19 
  -1   1   2   70.00    1.92 
   1   1  -2   67.46    1.94 
   1   1  -2   70.78    1.99 
  -1   1   2   69.88    1.75 
   1   1  -2   70.47    1.83 
   0  -1   2  183.42    4.11 
   0  -1   2  177.71    4.24 
   0  -1  -2  179.94    4.37 
   0  -1   2  186.08    4.43 
   0  -1   2  185.72    4.27 
   0  -1  -2  188.63    4.23 
   0  -1  -2  182.14    4.06 
   0  -1   2  184.07    4.38 
   0  -1  -2  181.44    4.29 
   0  -1  -2  183.76    4.37 
   0   1   2  180.19    4.04 
   0   1  -2  181.21    4.40 
   0   1   2  183.37    4.22 
   0   1  -2  178.10    4.24 
   0   1   2  183.83    4.29 
   0   1  -2  191.34    4.13 
   0   1  -2  181.64    4.38 
   0   1   2  184.08    4.38 
   0   1  -2  184.15    4.26 
   1  -1   2   96.83    2.56 
   1  -1   2   97.82    2.46 
  -1  -1  -2   97.68    2.55 
   1  -1   2  100.40    2.45 
   1  -1   2   95.41    2.57 
  -1  -1  -2   96.13    2.53 
  -1  -1  -2   95.02    2.65 
   1  -1   2   96.57    2.56 
   1   1   2   93.42    2.52 
  -1   1  -2   98.05    2.46 
  -1   1  -2   95.78    2.55 
   1   1   2   95.49    2.53 
  -1   1  -2   94.82    2.55 
   1   1   2   94.89    2.50 
   1   1   2   93.77    2.68 
  -1   1  -2   93.79    2.44 
  -1   1  -2   98.36    2.56 
  -2  -1  -2    5.89    0.56 
   2  -1   2    5.30    0.52 
  -2  -1  -2    5.37    0.56 
   2  -1   2    6.29    0.53 
  -2  -1  -2    5.92    0.49 
   2  -1   2    5.50    0.53 
  -2  -1  -2    5.51    0.64 
   2  -1   2    5.34    0.65 
  -2  -1  -2    5.68    0.34 
   2  -1   2    6.04    0.59 
  -2   1  -2    5.56    0.58 
   2   1   2    5.07    0.58 
   2   1   2    6.37    0.64 
   2   1   2    5.92    0.49 
  -2   1  -2    5.69    0.56 
  -2   1  -2    5.83    0.55 
   2   1   2    5.55    0.35 
  -2   1  -2    5.30    0.47 
   2   1   2    4.93    0.56 
  -2   1  -2    5.75    0.67 
  -3  -1  -2  125.88    3.42 
   3  -1   2  126.18    3.43 
   3  -1   2  129.16    3.12 
   3  -1   2  126.72    3.25 
  -3  -1  -2  129.37    3.12 
  -3  -1  -2  125.69    3.07 
  -3  -1  -2  127.19    3.09 
  -3  -1  -2  130.16    3.37 
   3  -1   2  130.73    3.44 
   3  -1   2  125.71    3.51 
  -3  -1  -2  132.07    3.54 
   3   1   2  127.57    3.43 
  -3   1  -2  128.75    3.56 
   3   1   2  128.02    3.37 
  -3   1  -2  126.91    3.24 
   3   1   2  125.55    3.08 
   3   1   2  128.63    3.49 
  -3   1  -2  128.63    3.45 
  -3   1  -2  129.92    3.11 
   4  -1   2  269.80    6.22 
  -4  -1  -2  265.69    5.94 
  -4  -1  -2  266.07    6.45 
  -4  -1  -2  259.02    6.02 
   4  -1   2  272.54    6.56 
   4  -1   2  270.93    6.70 
   4  -1   2  268.10    6.57 
  -4  -1  -2  276.25    6.27 
   4  -1   2  272.07    6.14 
   4   1   2  264.26    6.21 
   4   1   2  272.63    6.57 
   4   1   2  274.03    6.47 
   4   1   2  266.34    6.60 
  -4   1  -2  267.28    6.72 
  -4   1  -2  266.20    6.55 
  -4   1  -2  278.25    6.16 
   5  -1   2   30.39    1.50 
   5  -1   2   29.79    1.15 
   5  -1   2   31.37    1.60 
  -5  -1  -2   30.20    1.39 
   5  -1   2   29.58    1.45 
   5  -1   2   29.24    1.44 
   5  -1   2   32.15    1.16 
   5   1   2   30.28    1.43 
   5   1   2   30.61    1.61 
  -5   1  -2   29.22    1.46 
   5   1   2   28.85    1.36 
   5   1   2   30.55    1.42 
  -5   1  -2   28.56    1.55 
   5   1   2   30.23    1.27 
  -5   1  -2   28.76    1.13 
   5   1   2   29.23    1.47 
   6  -1   2    5.64    0.52 
   6  -1   2    5.54    0.60 
   6  -1   2    6.01    0.81 
  -6  -1  -2    6.02    0.75 
   6  -1   2    6.39    0.95 
   6  -1   2    6.50    0.93 
   6  -1   2    6.59    1.06 
   6  -1   2    6.00    0.57 
   6   1   2    5.34    0.80 
  -6   1  -2    4.87    0.78 
   6   1   2    4.88    0.90 
   6   1   2    6.27    0.89 
  -6   1  -2    5.67    1.00 
   6   1   2    5.15    0.67 
  -6   1  -2    5.13    0.54 
   6   1   2    5.22    0.76 
   7  -1   2    3.83    0.78 
   7  -1   2    4.15    0.74 
   7  -1   2    4.65    0.60 
   7  -1   2    6.57    0.63 
   7  -1   2    4.22    0.81 
   7  -1   2    5.45    0.51 
   7  -1   2    3.91    0.81 
   7   1   2    3.94    0.72 
  -7   1  -2    4.25    0.86 
   7   1   2    5.50    0.90 
   7   1   2    3.81    0.70 
   7   1   2    4.81    0.95 
   7   1   2    4.52    0.79 
   7   1   2    4.38    0.72 
  -7   1  -2    4.56    0.50 
   7   1   2    5.98    0.78 
   8  -1   2   42.75    2.08 
   8  -1   2   41.37    2.06 
   8  -1   2   41.80    1.35 
   8  -1   2   44.65    1.66 
   8  -1   2   44.84    1.69 
   8  -1   2   44.27    2.12 
   8  -1   2   40.56    2.12 
   8   1   2   41.98    2.07 
  -8   1  -2   41.70    2.11 
   8   1   2   43.07    1.94 
   8   1   2   43.29    1.92 
   8   1   2   42.93    1.98 
  -8   1  -2   44.43    1.36 
   8   1   2   45.23    2.31 
   8   1   2   40.24    1.94 
   8   1   2   40.95    1.88 
   8   1   2   44.85    2.03 
   9  -1   2    2.55    0.81 
   9  -1   2    2.66    0.84 
   9  -1   2    2.66    0.63 
   9  -1   2    2.93    0.95 
   9  -1   2    3.86    0.66 
   9  -1   2    3.95    0.85 
   9   1   2    1.87    0.73 
   9   1   2    5.39    0.99 
   9   1   2    3.38    0.99 
   9   1   2    5.48    0.95 
   9   1   2    2.25    0.73 
   9   1   2    2.61    0.72 
   9   1   2    2.84    0.78 
   9   1   2    2.25    0.83 
  -9   1  -2    2.89    0.85 
  10  -1   2    4.55    0.72 
  10  -1   2    5.30    0.80 
  10  -1   2    5.31    1.06 
  10  -1   2    3.42    0.99 
  10  -1   2    4.81    0.99 
  10   1   2    3.93    0.85 
  10   1   2    4.41    1.12 
  10   1   2    4.50    0.85 
  10   1   2    6.18    1.08 
  10   1   2    5.61    1.05 
  10   1   2    6.01    1.00 
  10   1   2    4.58    0.91 
  11  -1   2    3.31    0.96 
  11  -1   2    2.27    0.95 
  11  -1   2    2.16    0.64 
  11  -1   2    2.90    0.66 
  11   1   2    2.96    0.82 
  11   1   2    3.37    0.80 
  11   1   2    4.01    0.97 
  11   1   2    3.43    0.89 
  11   1   2    3.87    1.29 
  11   1   2    1.56    0.93 
  12  -1   2    1.69    0.81 
  12  -1   2    0.26    0.77 
  12  -1   2    1.14    0.60 
  12  -1   2    0.66    0.58 
  12   1   2    0.71    0.71 
  12   1   2    1.83    0.73 
  12   1   2    1.78    0.95 
  12   1   2    0.75    0.68 
  13  -1   2    4.87    1.14 
  13  -1   2    7.47    1.45 
  13  -1   2    6.02    0.97 
  13  -1   2    5.88    1.35 
  13   1   2    7.08    1.48 
  13   1   2    6.66    1.09 
  13   1   2    4.52    1.09 
  13  -2  -2    0.83    0.62 
  13  -2  -2    2.12    1.62 
  13   2  -2    0.83    0.96 
  13   2  -2    0.54    0.71 
  13   2  -2    1.73    0.77 
  12  -2  -2    3.69    0.80 
  12  -2  -2    3.14    0.99 
  12  -2  -2    3.96    1.10 
  12  -2  -2    3.89    0.83 
  12   2  -2    7.57    1.22 
  12   2  -2    4.05    1.15 
  12   2  -2    3.14    0.85 
  12   2  -2    3.07    0.89 
  12   2  -2    2.23    0.86 
  12   2  -2    2.94    0.85 
  11  -2  -2    9.71    0.89 
  11  -2  -2    9.72    1.07 
  11  -2  -2   12.11    1.50 
  11  -2  -2   10.21    0.99 
  11   2  -2    9.83    1.34 
  11   2  -2   12.30    1.14 
  11   2  -2   10.41    1.31 
  11   2  -2   11.68    1.12 
  11   2  -2   12.91    1.28 
  11   2  -2   11.27    1.05 
  10  -2  -2   59.75    2.03 
  10  -2  -2   68.35    3.10 
  10  -2  -2   64.81    2.42 
  10  -2  -2   62.67    2.20 
  10  -2  -2   65.33    2.08 
  10  -2  -2   62.77    2.32 
  10  -2  -2   66.14    2.88 
  10   2  -2   60.09    2.71 
  10   2  -2   62.03    2.70 
  10   2  -2   72.43    2.48 
  10   2  -2   66.83    2.49 
  10   2  -2   63.27    2.43 
  10   2  -2   64.18    2.76 
  10   2  -2   63.06    2.88 
   9  -2  -2    4.53    0.59 
   9  -2  -2    6.33    0.71 
   9  -2  -2    5.80    1.14 
   9  -2  -2    5.79    0.63 
   9  -2  -2    5.24    1.02 
   9  -2  -2    5.22    1.13 
   9  -2  -2    4.39    0.73 
  -9   2   2    7.11    0.81 
   9   2  -2    6.16    0.76 
   9   2  -2    6.67    0.94 
   9   2  -2    5.12    0.96 
   9   2  -2    7.93    1.17 
   9   2  -2    6.19    0.83 
   9   2  -2    5.62    1.07 
   9   2  -2    5.28    1.02 
   8  -2  -2   10.03    1.19 
   8  -2  -2    9.91    0.71 
   8  -2  -2    9.24    1.25 
   8  -2  -2   10.43    0.86 
  -8  -2   2   10.96    1.14 
   8  -2  -2    9.60    0.84 
   8  -2  -2    9.87    1.10 
   8   2  -2    9.24    0.82 
   8   2  -2   10.23    1.06 
   8   2  -2    8.20    1.00 
  -8   2   2    9.02    1.10 
  -8   2   2    7.82    0.91 
   8   2  -2    8.72    1.12 
   8   2  -2    9.36    0.89 
   8   2  -2    9.45    0.83 
  -8   2   2    8.49    0.86 
   7  -2  -2   27.95    1.11 
   7  -2  -2   28.17    1.68 
   7  -2  -2   28.68    1.62 
   7  -2  -2   27.51    1.27 
   7  -2  -2   26.97    1.33 
  -7  -2   2   28.24    1.54 
  -7  -2   2   27.93    1.59 
  -7   2   2   29.29    1.44 
   7   2  -2   25.57    1.51 
   7   2  -2   28.19    1.38 
  -7   2   2   27.99    1.40 
   7   2  -2   26.54    0.97 
   7   2  -2   29.07    1.66 
  -7   2   2   27.80    1.62 
   7   2  -2   27.56    1.26 
  -6  -2   2  103.48    3.38 
   6  -2  -2  103.95    2.69 
  -6  -2   2  105.93    3.32 
   6  -2  -2  104.62    3.10 
  -6  -2   2  100.81    2.85 
   6  -2  -2  102.71    3.35 
  -6  -2   2  105.70    3.19 
   6  -2  -2  102.11    2.91 
   6  -2  -2  103.71    3.44 
  -6   2   2  102.84    3.37 
  -6   2   2  103.58    3.13 
   6   2  -2  104.48    3.05 
   6   2  -2  104.93    2.70 
   6   2  -2  107.29    3.42 
   6   2  -2  101.85    2.81 
   6   2  -2  102.31    3.30 
  -6   2   2   97.77    3.03 
  -6   2   2  107.46    2.66 
   6   2  -2  103.37    2.84 
   5  -2  -2   28.63    1.46 
  -5  -2   2   27.27    1.38 
  -5  -2   2   27.44    1.16 
   5  -2  -2   27.35    1.30 
  -5  -2   2   29.25    1.51 
  -5  -2   2   29.40    1.36 
   5  -2  -2   28.09    1.49 
   5  -2  -2   27.63    1.15 
   5  -2  -2   26.60    1.03 
   5   2  -2   27.17    1.02 
   5   2  -2   27.97    1.43 
  -5   2   2   27.34    1.45 
  -5   2   2   28.19    1.26 
   5   2  -2   26.96    1.03 
  -5   2   2   27.22    1.35 
   5   2  -2   26.80    1.23 
   5   2  -2   26.97    1.46 
   5   2  -2   27.13    1.10 
  -5   2   2   27.96    0.95 
   4  -2  -2    1.62    0.50 
  -4  -2   2    2.52    0.51 
   4  -2  -2    3.13    0.65 
  -4  -2   2    1.89    0.57 
   4  -2  -2    2.43    0.44 
   4  -2  -2    2.52    0.39 
  -4  -2   2    2.72    0.59 
   4  -2  -2    3.07    0.59 
  -4  -2   2    1.93    0.44 
   4   2  -2    2.14    0.32 
   4   2  -2    2.13    0.60 
   4   2  -2    2.96    0.64 
  -4   2   2    2.43    0.58 
   4   2  -2    2.56    0.47 
  -4   2   2    2.81    0.36 
   4   2  -2    2.64    0.32 
   4   2  -2    2.11    0.48 
  -4   2   2    1.84    0.54 
  -4   2   2    2.51    0.56 
  -4   2   2    2.22    0.47 
   3  -2  -2   77.72    2.23 
  -3  -2   2   84.57    2.56 
  -3  -2   2   76.45    2.53 
  -3  -2   2   80.39    2.37 
   3  -2  -2   76.51    2.51 
  -3  -2   2   80.61    2.39 
   3  -2  -2   83.10    2.55 
   3  -2  -2   79.72    2.49 
   3  -2  -2   82.21    2.08 
   3   2  -2   82.85    2.67 
  -3   2   2   80.01    2.52 
  -3   2   2   82.27    2.28 
   3   2  -2   80.67    2.52 
  -3   2   2   80.46    2.55 
  -3   2   2   82.35    2.08 
   3   2  -2   82.57    2.37 
   3   2  -2   81.14    2.34 
  -3   2   2   80.60    2.53 
   2  -2  -2   46.82    1.73 
  -2  -2   2   47.45    1.59 
  -2  -2   2   45.91    1.66 
   2  -2  -2   46.64    1.37 
   2  -2  -2   45.71    1.67 
  -2  -2   2   46.06    1.77 
   2  -2  -2   47.67    1.50 
   2  -2  -2   45.40    1.58 
   2   2  -2   46.12    1.66 
  -2   2   2   45.29    1.64 
  -2   2   2   46.29    1.44 
  -2   2   2   47.69    1.62 
   2   2  -2   47.23    1.88 
   2   2  -2   46.42    1.63 
  -2   2   2   45.53    1.48 
   2   2  -2   46.98    1.58 
  -2   2   2   47.53    1.75 
   1  -2  -2   45.50    1.42 
   1  -2  -2   45.25    1.69 
   1  -2  -2   46.42    1.43 
   1  -2  -2   44.93    1.50 
  -1  -2   2   46.16    1.56 
  -1  -2   2   45.88    1.82 
  -1  -2   2   46.84    1.59 
  -1  -2   2   46.21    1.64 
   1  -2  -2   44.49    1.59 
  -1   2   2   47.07    1.71 
  -1   2   2   47.78    1.45 
   1   2  -2   47.62    1.66 
  -1   2   2   45.58    1.44 
   1   2  -2   46.15    1.56 
   1   2  -2   47.47    1.59 
  -1   2   2   45.75    1.49 
  -1   2   2   45.15    1.56 
   1   2  -2   43.96    1.70 
   0  -2  -2  143.73    3.65 
   0  -2   2  142.57    3.75 
   0  -2  -2  140.17    3.30 
   0  -2  -2  147.77    3.65 
   0  -2  -2  143.95    3.66 
   0  -2  -2  144.53    3.79 
   0  -2   2  147.33    3.59 
   0  -2   2  145.00    3.35 
   0  -2   2  140.37    3.34 
   0  -2   2  143.54    3.78 
   0  -2   2  140.82    3.69 
   0   2  -2  146.04    3.71 
   0   2   2  146.24    3.62 
   0   2  -2  144.97    3.77 
   0   2  -2  144.86    3.57 
   0   2  -2  142.27    3.78 
   0   2   2  146.47    3.66 
   0   2   2  145.00    3.32 
   0   2   2  144.47    3.79 
   0   2   2  143.41    3.64 
   1  -2   2   20.72    0.88 
   1  -2   2   20.50    0.83 
  -1  -2  -2   21.15    1.01 
   1  -2   2   20.90    0.88 
  -1  -2  -2   20.83    1.03 
   1  -2   2   20.79    1.04 
   1  -2   2   19.74    1.03 
  -1  -2  -2   19.98    1.12 
   1  -2   2   20.71    1.08 
  -1  -2  -2   20.52    1.02 
  -1   2  -2   20.94    0.85 
   1   2   2   19.34    1.02 
  -1   2  -2   20.83    1.05 
   1   2   2   19.62    1.00 
  -1   2  -2   19.24    1.03 
   1   2   2   23.57    1.05 
   1   2   2   20.68    1.02 
  -2  -2  -2   16.51    0.86 
  -2  -2  -2   15.06    0.92 
   2  -2   2   16.01    0.86 
   2  -2   2   16.53    0.99 
   2  -2   2   15.53    0.87 
  -2  -2  -2   16.25    0.95 
   2  -2   2   15.24    0.66 
   2  -2   2   15.33    0.94 
   2  -2   2   17.18    0.98 
  -2  -2  -2   15.82    0.97 
  -2   2  -2   15.23    0.95 
   2   2   2   14.62    0.93 
   2   2   2   15.16    0.99 
   2   2   2   15.29    0.96 
   2   2   2   15.59    0.86 
  -2   2  -2   16.44    0.99 
  -2   2  -2   16.76    0.75 
  -2   2  -2   16.25    0.98 
   3  -2   2  106.10    3.06 
   3  -2   2  109.86    3.06 
  -3  -2  -2  110.67    2.98 
   3  -2   2  109.64    2.57 
  -3  -2  -2  107.59    2.83 
   3  -2   2  106.38    3.14 
   3  -2   2  104.47    3.14 
  -3  -2  -2  103.15    3.11 
   3  -2   2  108.09    3.06 
   3   2   2   95.50    3.09 
  -3   2  -2   95.91    3.08 
  -3   2  -2  104.95    3.14 
  -3   2  -2  110.37    2.58 
   3   2   2  106.75    2.54 
   3   2   2  111.87    3.12 
   3   2   2  106.64    2.84 
   3   2   2  103.82    2.49 
  -3   2  -2  109.30    3.07 
   3   2   2  104.69    3.11 
  -4  -2  -2    6.43    0.55 
   4  -2   2    6.81    0.70 
  -4  -2  -2    6.36    0.68 
   4  -2   2    6.67    0.72 
   4  -2   2    6.50    0.74 
   4  -2   2    6.54    0.82 
  -4  -2  -2    8.18    0.89 
   4  -2   2    7.48    0.83 
  -4   2  -2    6.75    0.82 
   4   2   2    7.97    0.53 
   4   2   2    6.71    0.53 
   4   2   2    6.25    0.72 
  -4   2  -2    7.08    0.87 
   4   2   2    6.89    0.81 
   4   2   2    7.03    0.74 
   4   2   2    6.72    0.77 
   4   2   2    5.63    0.54 
  -4   2  -2    6.77    0.70 
  -4   2  -2    6.24    0.42 
  -5  -2  -2   24.73    1.46 
  -5  -2  -2   19.83    1.14 
   5  -2   2   26.10    1.23 
   5  -2   2   24.91    1.42 
  -5  -2  -2   25.69    0.94 
   5  -2   2   25.86    1.40 
   5  -2   2   27.34    1.49 
   5  -2   2   26.80    1.43 
   5   2   2   23.47    1.33 
   5   2   2   24.57    0.94 
  -5   2  -2   26.32    1.47 
   5   2   2   26.15    1.12 
  -5   2  -2   25.67    1.24 
  -5   2  -2   25.26    1.49 
   5   2   2   25.63    1.07 
   5   2   2   25.51    1.28 
   5   2   2   23.74    1.38 
   5   2   2   25.08    1.41 
  -6  -2  -2   49.75    1.41 
  -6  -2  -2   48.41    2.18 
   6  -2   2   49.15    1.44 
   6  -2   2   51.08    2.16 
   6  -2   2   47.93    2.11 
  -6  -2  -2   50.36    1.93 
  -6  -2  -2   46.69    1.30 
   6  -2   2   51.09    2.18 
   6  -2   2   43.80    2.03 
   6  -2   2   48.41    1.80 
   6   2   2   47.36    2.10 
   6   2   2   49.69    1.79 
   6   2   2   47.36    1.91 
   6   2   2   49.11    1.73 
   6   2   2   45.90    2.03 
  -6   2  -2   52.87    2.28 
  -6   2  -2   47.92    1.79 
  -6   2  -2   49.92    2.18 
   7  -2   2   75.50    2.87 
   7  -2   2   72.98    2.84 
   7  -2   2   73.46    2.08 
   7  -2   2   72.36    2.81 
   7  -2   2   76.97    2.06 
   7  -2   2   74.87    2.87 
   7  -2   2   72.54    2.35 
  -7   2  -2   75.71    2.38 
   7   2   2   70.21    2.75 
  -7   2  -2   71.40    2.85 
   7   2   2   79.24    2.90 
   7   2   2   74.62    2.79 
   7   2   2   74.12    2.43 
  -7   2  -2   68.72    2.90 
   7   2   2   75.58    2.50 
   7   2   2   69.09    2.55 
   8  -2   2    1.88    0.64 
   8  -2   2    3.54    0.86 
   8  -2   2    4.43    0.50 
   8  -2   2    2.64    0.78 
   8  -2   2    2.72    0.54 
   8  -2   2    3.20    0.83 
   8  -2   2    3.49    0.53 
   8   2   2    3.64    0.72 
   8   2   2    3.54    0.78 
  -8   2  -2    3.06    0.86 
  -8   2  -2    2.91    0.92 
   8   2   2    3.13    0.74 
   8   2   2    3.59    0.74 
   8   2   2    3.16    0.74 
  -8   2  -2    2.94    0.59 
   8   2   2    2.61    0.73 
   8   2   2    3.68    0.97 
   9  -2   2   13.32    0.84 
   9  -2   2   13.81    1.38 
   9  -2   2   14.87    0.81 
   9  -2   2   12.81    1.35 
   9  -2   2   14.09    1.36 
   9  -2   2   13.95    0.90 
   9  -2   2   12.80    1.35 
   9   2   2   13.96    1.32 
   9   2   2   13.47    1.21 
   9   2   2   10.62    1.44 
   9   2   2   15.99    1.36 
   9   2   2   16.55    1.27 
   9   2   2   13.85    1.14 
   9   2   2   12.86    1.13 
   9   2   2   13.91    1.17 
  -9   2  -2   13.50    0.91 
  -9   2  -2   13.84    1.41 
  10  -2   2   20.78    1.63 
  10  -2   2   18.61    0.95 
  10  -2   2   19.36    1.02 
  10  -2   2   20.47    1.63 
  10   2   2   21.54    1.48 
  10   2   2   18.35    1.43 
  10   2   2   20.03    1.53 
  10   2   2   22.16    1.45 
 -10   2  -2   17.50    0.93 
  10   2   2   19.27    1.78 
  10   2   2   18.23    1.40 
  10   2   2   13.56    1.55 
  10   2   2   20.87    1.42 
 -10   2  -2   16.90    1.60 
  11  -2   2   28.09    1.95 
  11  -2   2   26.49    1.95 
  11  -2   2   25.96    1.25 
  11   2   2   32.27    2.24 
  11   2   2   27.25    1.70 
  11   2   2   27.23    1.85 
  11   2   2   27.71    1.73 
  11   2   2   26.82    1.74 
  12  -2   2    2.12    0.84 
  12  -2   2    1.38    0.88 
  12   2   2    1.86    0.71 
  12   2   2    0.39    0.89 
  12   2   2    2.01    0.80 
  12   2   2    1.58    0.82 
  13  -2   2    1.33    0.84 
  13   2   2    1.69    1.03 
  13   2   2    1.42    0.77 
  13   2   2    1.37    0.83 
  12  -3  -2    0.89    0.84 
  12  -3  -2    0.24    0.60 
  12  -3  -2    1.42    0.76 
  12  -3  -2    4.03    1.20 
  12  -3  -2    1.62    0.68 
  12   3  -2    0.36    0.68 
  12   3  -2   -0.50    0.78 
  12   3  -2    1.03    0.63 
  12   3  -2    1.06    0.60 
  12   3  -2    0.45    0.84 
  11  -3  -2    4.40    0.93 
  11  -3  -2    5.60    0.94 
  11  -3  -2    7.21    1.44 
  11  -3  -2    5.94    1.22 
  11   3  -2    6.09    0.93 
  11   3  -2    7.97    1.33 
  11   3  -2    6.96    1.29 
 -11   3   2    7.15    1.02 
  11   3  -2    5.87    1.20 
  11   3  -2    6.30    1.07 
  11   3  -2    7.15    1.03 
  10  -3  -2    9.44    1.48 
  10  -3  -2    7.61    0.92 
  10  -3  -2    9.17    1.40 
  10   3  -2    8.04    0.90 
  10   3  -2    7.77    0.82 
  10   3  -2    7.75    1.30 
  10   3  -2   10.03    1.40 
  10   3  -2    7.86    1.23 
 -10   3   2    9.53    1.02 
  10   3  -2    8.09    1.02 
   9  -3  -2    0.50    0.52 
   9  -3  -2    0.28    0.61 
   9  -3  -2    0.61    0.73 
   9   3  -2    0.52    0.45 
   9   3  -2    1.07    0.59 
   9   3  -2    0.34    0.67 
   9   3  -2    0.23    0.57 
  -9   3   2    0.72    0.57 
   9   3  -2    1.32    0.49 
  -9   3   2    0.45    0.60 
  -8  -3   2   25.01    1.11 
  -8  -3   2   24.58    1.71 
   8  -3  -2   24.11    1.74 
   8  -3  -2   25.27    1.38 
  -8  -3   2   24.09    1.61 
   8  -3  -2   30.86    1.55 
   8  -3  -2   25.32    1.68 
   8   3  -2   27.91    1.51 
  -8   3   2   25.72    1.57 
   8   3  -2   26.10    0.98 
  -8   3   2   27.05    1.53 
  -8   3   2   25.43    1.73 
   8   3  -2   26.24    1.25 
   8   3  -2   27.57    1.76 
   8   3  -2   22.95    1.13 
   8   3  -2   24.08    1.61 
  -7  -3   2   14.99    1.29 
   7  -3  -2   15.47    1.15 
   7  -3  -2   16.25    1.36 
  -7  -3   2   14.63    0.95 
   7  -3  -2   13.40    1.24 
   7  -3  -2   13.22    1.01 
  -7  -3   2   15.08    1.28 
   7   3  -2   12.95    0.81 
   7   3  -2   14.56    1.31 
   7   3  -2   15.33    0.88 
  -7   3   2   13.40    1.25 
  -7   3   2   15.65    1.21 
   7   3  -2   14.89    1.11 
   7   3  -2   13.54    1.20 
  -7   3   2   13.74    1.16 
   7   3  -2   14.43    0.81 
   6  -3  -2    1.15    0.61 
  -6  -3   2    2.17    0.56 
  -6  -3   2    1.68    0.63 
  -6  -3   2    1.69    0.66 
   6  -3  -2    1.36    0.60 
  -6  -3   2    1.30    0.53 
   6  -3  -2    1.76    0.70 
   6  -3  -2    2.94    0.61 
   6   3  -2    1.48    0.69 
   6   3  -2    1.07    0.53 
   6   3  -2    1.75    0.37 
  -6   3   2    1.68    0.57 
  -6   3   2    1.21    0.56 
  -6   3   2    1.93    0.66 
  -6   3   2    1.48    0.61 
   6   3  -2    1.46    0.45 
   6   3  -2    1.92    0.43 
   6   3  -2    2.76    0.83 
  -5  -3   2   24.44    1.37 
   5  -3  -2   26.60    1.26 
  -5  -3   2   21.94    1.42 
   5  -3  -2   23.33    1.43 
   5  -3  -2   24.54    1.40 
  -5  -3   2   23.77    1.17 
  -5  -3   2   24.22    1.34 
   5  -3  -2   22.43    1.41 
  -5   3   2   23.22    1.41 
  -5   3   2   25.20    1.49 
   5   3  -2   22.51    1.54 
  -5   3   2   24.06    1.42 
   5   3  -2   23.61    1.28 
   5   3  -2   23.13    1.16 
  -5   3   2   24.32    1.28 
   5   3  -2   22.97    1.39 
   4  -3  -2  145.76    4.20 
  -4  -3   2  145.31    3.97 
   4  -3  -2  149.14    4.25 
   4  -3  -2  147.48    4.25 
   4  -3  -2  151.37    3.96 
  -4  -3   2  151.66    4.18 
  -4  -3   2  140.31    4.26 
  -4  -3   2  145.84    4.12 
   4   3  -2  143.32    4.35 
  -4   3   2  149.34    4.24 
  -4   3   2  153.18    4.31 
  -4   3   2  148.99    4.00 
   4   3  -2  145.72    3.97 
  -4   3   2  147.92    4.22 
   4   3  -2  147.78    4.05 
   4   3  -2  147.54    4.25 
   3  -3  -2   78.87    2.00 
   3  -3  -2   76.26    2.38 
   3  -3  -2   76.79    2.63 
   3  -3  -2   72.70    2.53 
  -3  -3   2   75.11    2.59 
  -3  -3   2   74.86    2.45 
  -3  -3   2   74.54    2.49 
   3  -3  -2   77.40    2.50 
  -3  -3   2   76.20    2.58 
   3   3  -2   76.32    2.56 
  -3   3   2   75.76    2.54 
  -3   3   2   79.77    2.68 
  -3   3   2   75.24    2.49 
   3   3  -2   69.93    2.42 
  -3   3   2   77.66    2.40 
   3   3  -2   78.48    2.49 
   3   3  -2   74.83    2.71 
  -3   3   2   75.13    2.06 
  -2  -3   2    1.60    0.71 
  -2  -3   2    0.64    0.46 
   2  -3  -2    1.35    0.50 
   2  -3  -2    1.20    0.52 
   2  -3  -2    0.83    0.45 
  -2  -3   2    0.82    0.46 
   2  -3  -2    1.36    0.43 
  -2  -3   2    0.58    0.37 
   2  -3  -2    1.53    0.34 
  -2   3   2    1.34    0.78 
   2   3  -2    0.39    0.50 
  -2   3   2    0.94    0.41 
  -2   3   2    1.09    0.35 
  -2   3   2    1.02    0.45 
   2   3  -2    0.69    0.39 
  -2   3   2    0.88    0.40 
   2   3  -2    1.93    0.53 
   2   3  -2    0.94    0.41 
   1  -3  -2   28.76    1.16 
   1  -3  -2   30.63    1.35 
  -1  -3   2   28.45    1.30 
  -1  -3   2   30.61    1.52 
   1  -3  -2   29.33    1.17 
  -1  -3   2   29.47    1.43 
   1  -3  -2   30.55    1.47 
   1  -3  -2   30.89    1.35 
  -1   3   2   28.10    1.30 
   1   3  -2   29.87    1.30 
   1   3  -2   30.11    1.45 
  -1   3   2   28.18    1.17 
   1   3  -2   29.95    1.41 
  -1   3   2   29.05    1.47 
  -1   3   2   29.09    1.17 
   1   3  -2   30.12    1.37 
  -1   3   2   28.36    1.29 
   0  -3   2  126.28    3.30 
   0  -3   2  122.11    3.01 
   0  -3  -2  121.70    3.02 
   0  -3  -2  123.16    3.44 
   0  -3   2  120.69    3.46 
   0  -3  -2  118.76    3.34 
   0  -3  -2  124.22    3.31 
   0   3  -2  125.28    3.60 
   0   3  -2  118.31    3.44 
   0   3   2  122.83    3.32 
   0   3   2  118.47    3.40 
   0   3   2  121.33    3.00 
   0   3   2  122.29    3.32 
   0   3  -2  124.34    3.47 
   0   3  -2  123.58    3.27 
  -1  -3  -2   50.21    1.92 
  -1  -3  -2   50.19    1.91 
   1  -3   2   51.75    1.92 
  -1  -3  -2   48.51    1.38 
   1  -3   2   49.86    1.63 
   1  -3   2   49.32    1.91 
  -1  -3  -2   50.57    1.86 
   1  -3   2   51.78    1.99 
   1  -3   2   49.99    1.60 
   1   3   2   50.64    1.92 
   1   3   2   51.68    1.86 
  -1   3  -2   49.97    1.89 
  -1   3  -2   52.14    2.01 
  -1   3  -2   49.88    1.87 
  -1   3  -2   49.72    1.60 
   1   3   2   50.75    1.89 
   1   3   2   50.76    1.74 
   1   3   2   48.73    1.33 
   2  -3   2    2.98    0.68 
   2  -3   2    2.46    0.57 
   2  -3   2    4.87    0.83 
   2  -3   2    2.67    0.53 
  -2  -3  -2    3.37    0.69 
  -2  -3  -2    3.11    0.68 
   2  -3   2    3.45    0.45 
  -2   3  -2    2.48    0.60 
   2   3   2    2.65    0.63 
   2   3   2    4.42    0.70 
   2   3   2    3.83    0.64 
  -2   3  -2    4.26    0.78 
  -2   3  -2    3.59    0.70 
   2   3   2    3.47    0.62 
  -2   3  -2    3.16    0.46 
   3  -3   2   49.84    1.86 
  -3  -3  -2   48.47    2.00 
   3  -3   2   50.26    2.00 
   3  -3   2   48.68    1.97 
  -3  -3  -2   52.67    1.84 
   3  -3   2   51.28    2.04 
   3  -3   2   47.51    1.85 
  -3  -3  -2   50.45    1.82 
   3   3   2   47.47    1.98 
   3   3   2   50.64    1.84 
   3   3   2   46.56    1.81 
  -3   3  -2   48.57    2.00 
  -3   3  -2   47.96    1.97 
   3   3   2   48.87    1.98 
  -3   3  -2   49.80    2.01 
  -3   3  -2   47.49    1.43 
  -4  -3  -2  181.79    4.57 
   4  -3   2  176.16    4.93 
   4  -3   2  182.26    4.91 
   4  -3   2  176.54    4.86 
  -4  -3  -2  172.52    4.95 
   4  -3   2  175.61    4.95 
  -4  -3  -2  181.86    4.60 
   4  -3   2  184.66    4.92 
  -4   3  -2  177.75    4.88 
   4   3   2  176.83    5.00 
   4   3   2  176.31    4.27 
  -4   3  -2  177.99    4.98 
   4   3   2  180.95    4.58 
   4   3   2  181.48    4.97 
   4   3   2  182.39    4.96 
  -4   3  -2  177.22    4.94 
   4   3   2  178.98    4.12 
   4   3   2  174.42    4.78 
   5  -3   2   29.56    1.59 
  -5  -3  -2   30.62    1.25 
   5  -3   2   28.59    1.55 
   5  -3   2   29.56    1.65 
  -5  -3  -2   28.33    1.63 
   5  -3   2   31.25    1.55 
  -5  -3  -2   27.33    1.31 
   5  -3   2   29.21    1.61 
  -5   3  -2   29.21    1.65 
   5   3   2   29.02    1.23 
   5   3   2   29.82    1.21 
   5   3   2   26.86    1.57 
  -5   3  -2   29.28    1.52 
   5   3   2   30.39    1.11 
   5   3   2   28.41    1.53 
  -5   3  -2   29.46    1.66 
   5   3   2   28.81    1.59 
   5   3   2   28.81    1.62 
   6  -3   2    2.51    0.71 
  -6  -3  -2    1.45    0.40 
   6  -3   2    1.55    0.66 
   6  -3   2    1.79    0.58 
  -6  -3  -2    2.01    0.76 
  -6  -3  -2    1.62    0.48 
   6  -3   2    1.26    0.64 
   6   3   2    2.62    0.77 
   6   3   2    2.72    0.77 
   6   3   2    0.87    0.46 
   6   3   2    1.75    0.64 
  -6   3  -2    1.31    0.57 
   6   3   2    2.44    0.46 
   6   3   2    1.02    0.55 
   6   3   2    2.81    0.50 
  -6   3  -2    1.37    0.74 
  -6   3  -2    1.60    0.64 
  -7  -3  -2    3.76    0.67 
   7  -3   2    3.72    0.84 
  -7  -3  -2    4.43    0.46 
  -7  -3  -2    3.56    0.89 
   7  -3   2    3.34    0.68 
   7  -3   2    3.42    0.78 
   7  -3   2    4.08    0.87 
   7   3   2    5.35    0.66 
  -7   3  -2    4.35    0.96 
   7   3   2    3.65    0.81 
  -7   3  -2    3.79    0.72 
   7   3   2    2.67    0.66 
   7   3   2    3.20    0.81 
   7   3   2    4.11    0.70 
  -7   3  -2    3.24    0.81 
   7   3   2    3.72    0.86 
   8  -3   2   28.86    1.80 
   8  -3   2   27.37    1.76 
   8  -3   2   26.98    1.77 
   8  -3   2   28.21    1.49 
   8  -3   2   27.70    1.83 
   8   3   2   21.98    1.66 
   8   3   2   25.91    1.72 
   8   3   2   24.59    1.66 
   8   3   2   27.28    1.46 
  -8   3  -2   24.82    1.83 
   8   3   2   27.82    1.37 
   8   3   2   28.11    1.60 
  -8   3  -2   28.34    1.49 
  -8   3  -2   27.56    1.83 
   9  -3   2    2.60    0.87 
   9  -3   2    2.80    0.91 
   9   3   2    1.25    0.70 
   9   3   2    2.08    0.68 
   9   3   2    1.36    0.72 
  -9   3  -2    1.73    0.80 
   9   3   2    0.64    0.73 
   9   3   2    2.48    0.70 
  -9   3  -2    2.47    0.97 
   9   3   2    2.61    0.68 
  -9   3  -2    2.27    0.64 
  10  -3   2    4.59    1.05 
  10  -3   2    4.65    1.17 
  10   3   2    5.74    0.95 
 -10   3  -2    4.76    0.80 
  10   3   2    4.77    0.93 
  10   3   2    4.40    0.95 
  10   3   2    4.06    1.27 
 -10   3  -2    4.36    1.12 
  10   3   2    5.33    1.17 
  10   3   2    5.78    1.02 
  11  -3   2    1.32    0.83 
  11  -3   2    2.61    0.98 
  11   3   2    0.86    0.69 
  11   3   2    0.93    0.93 
 -11   3  -2    1.48    0.94 
  11   3   2    2.26    0.77 
  11   3   2    2.18    0.81 
  11   3   2    2.47    0.80 
 -11   3  -2    2.20    0.59 
  11   3   2    1.88    0.82 
  12  -3   2    0.16    0.80 
  12  -3   2    0.79    0.77 
  12   3   2    1.00    0.93 
 -12   3  -2    0.54    0.44 
  12   3   2    0.39    0.66 
  12   3   2   -0.29    0.79 
  12   3   2   -0.39    0.55 
  12  -4  -2    0.74    0.63 
  12   4  -2    0.73    1.00 
  12   4  -2   -0.96    0.88 
  12   4  -2    1.29    0.52 
  11  -4  -2    9.78    1.10 
  11  -4  -2    8.07    1.48 
  11  -4  -2   10.71    1.67 
  11   4  -2    9.57    1.54 
  11   4  -2    8.55    0.83 
 -11   4   2   13.07    1.23 
  11   4  -2    8.66    0.97 
  11   4  -2    7.92    1.44 
  10  -4  -2   26.20    2.11 
  10  -4  -2   27.33    1.59 
 -10  -4   2   24.29    1.89 
  10  -4  -2   27.79    2.02 
 -10   4   2   25.23    1.78 
  10   4  -2   28.45    2.07 
  10   4  -2   30.39    2.07 
  10   4  -2   27.65    2.00 
  10   4  -2   25.81    1.79 
  10   4  -2   24.25    1.32 
 -10   4   2   29.87    1.76 
  10   4  -2   27.17    1.24 
  -9  -4   2    3.30    0.62 
   9  -4  -2    2.25    0.84 
   9  -4  -2    3.14    0.75 
  -9  -4   2    3.48    1.02 
   9   4  -2    5.79    0.98 
   9   4  -2    3.39    0.82 
   9   4  -2    3.97    0.50 
   9   4  -2    3.21    1.09 
   9   4  -2    2.44    0.48 
  -9   4   2    2.03    0.88 
   9   4  -2    2.74    0.62 
  -8  -4   2    0.98    0.55 
   8  -4  -2    0.90    0.63 
   8  -4  -2    0.93    0.55 
  -8  -4   2    0.70    0.77 
   8   4  -2    2.45    0.66 
   8   4  -2    1.56    1.02 
  -8   4   2    2.56    0.82 
  -8   4   2    1.06    0.66 
   8   4  -2    1.16    0.44 
  -7  -4   2   48.95    2.42 
   7  -4  -2   46.07    2.33 
   7  -4  -2   46.21    2.33 
   7  -4  -2   48.25    2.02 
  -7  -4   2   45.42    2.23 
  -7  -4   2   43.29    2.00 
  -7  -4   2   45.60    1.82 
   7  -4  -2   46.54    2.16 
  -7   4   2   42.05    2.26 
   7   4  -2   43.57    2.42 
   7   4  -2   47.10    1.78 
  -7   4   2   45.19    2.27 
  -7   4   2   45.63    2.20 
   7   4  -2   45.04    2.07 
  -7   4   2   45.21    2.10 
   7   4  -2   43.12    2.22 
   6  -4  -2   55.59    2.48 
   6  -4  -2   55.84    2.47 
   6  -4  -2   56.40    2.18 
  -6  -4   2   54.59    2.40 
  -6  -4   2   54.26    2.21 
   6  -4  -2   55.49    2.40 
  -6  -4   2   54.84    2.08 
  -6  -4   2   55.76    2.52 
   6   4  -2   54.22    2.26 
  -6   4   2   56.31    2.50 
   6   4  -2   58.65    2.10 
  -6   4   2   56.85    2.46 
   6   4  -2   54.48    2.43 
  -6   4   2   51.32    2.37 
   6   4  -2   54.66    2.58 
  -6   4   2   52.28    2.23 
  -5  -4   2    8.08    0.98 
  -5  -4   2    8.70    0.86 
   5  -4  -2    9.42    1.04 
   5  -4  -2    8.87    0.90 
  -5  -4   2    8.66    0.94 
   5  -4  -2    8.50    1.01 
  -5  -4   2    8.61    1.03 
   5  -4  -2    7.35    0.98 
   5   4  -2    8.01    0.97 
  -5   4   2    8.74    1.06 
  -5   4   2    7.93    0.98 
   5   4  -2    7.95    0.94 
  -5   4   2    8.22    0.94 
   5   4  -2    7.47    1.14 
  -5   4   2    8.86    1.04 
   5   4  -2    8.04    0.86 
  -4  -4   2   25.48    1.39 
  -4  -4   2   23.74    1.48 
   4  -4  -2   23.63    1.43 
   4  -4  -2   25.57    1.36 
   4  -4  -2   23.40    1.50 
  -4  -4   2   23.16    1.36 
   4  -4  -2   23.47    1.42 
  -4  -4   2   21.68    1.41 
  -4   4   2   23.73    1.42 
   4   4  -2   22.89    1.48 
   4   4  -2   24.02    1.36 
  -4   4   2   24.55    1.55 
   4   4  -2   24.43    1.41 
  -4   4   2   23.00    1.34 
  -4   4   2   23.79    1.44 
   4   4  -2   22.25    1.41 
   3  -4  -2  109.42    3.33 
   3  -4  -2  108.25    3.45 
   3  -4  -2  107.08    3.32 
  -3  -4   2  111.85    3.54 
  -3  -4   2  106.96    3.44 
   3  -4  -2  110.37    3.62 
  -3  -4   2  109.14    3.49 
  -3   4   2  107.81    3.60 
  -3   4   2  113.41    3.46 
   3   4  -2  113.83    3.48 
   3   4  -2  106.48    3.41 
  -3   4   2  109.43    3.35 
  -3   4   2  110.68    2.85 
  -3   4   2  110.21    2.78 
   3   4  -2  110.59    3.47 
   3   4  -2  111.55    3.47 
  -3   4   2  111.63    3.38 
   2  -4  -2   19.40    1.12 
   2  -4  -2   19.72    1.22 
  -2  -4   2   20.48    1.29 
  -2  -4   2   18.55    1.25 
   2  -4  -2   20.24    1.23 
  -2  -4   2   18.02    1.19 
  -2  -4   2   19.01    1.41 
   2  -4  -2   18.74    1.32 
  -2   4   2   17.41    1.28 
  -2   4   2   18.14    1.14 
   2   4  -2   20.13    1.23 
   2   4  -2   19.41    1.18 
  -2   4   2   19.40    0.95 
  -2   4   2   19.05    1.11 
   2   4  -2   19.64    1.30 
  -2   4   2   18.04    1.17 
   2   4  -2   19.59    1.25 
  -2   4   2   19.81    0.93 
   1  -4  -2    1.73    0.57 
   1  -4  -2    1.06    0.58 
  -1  -4   2    1.28    0.55 
  -1  -4   2    0.73    0.56 
  -1  -4   2    1.06    0.27 
   1  -4  -2    0.69    0.41 
   1  -4  -2    1.15    0.42 
  -1  -4   2    1.51    0.57 
  -1  -4   2    0.88    0.43 
   1   4  -2    1.10    0.55 
  -1   4   2    2.42    0.53 
  -1   4   2    0.89    0.36 
  -1   4   2    1.43    0.44 
  -1   4   2    1.10    0.42 
  -1   4   2    0.70    0.50 
   1   4  -2    0.57    0.45 
   1   4  -2    0.71    0.51 
   1   4  -2    0.98    0.47 
  -1   4   2    1.26    0.54 
   0  -4   2   18.60    0.86 
   0  -4  -2   17.02    1.18 
   0  -4  -2   17.14    0.89 
   0  -4   2   18.06    1.26 
   0  -4   2   18.02    1.22 
   0  -4  -2   16.67    1.07 
   0  -4  -2   18.50    1.27 
   0  -4   2   17.66    1.20 
   0   4   2   17.91    0.87 
   0   4  -2   18.67    1.29 
   0   4   2   16.85    1.22 
   0   4   2   14.01    0.98 
   0   4   2   16.58    1.14 
   0   4   2   17.49    1.03 
   0   4  -2   18.08    1.19 
   0   4  -2   16.71    1.12 
   0   4  -2   17.52    1.01 
   0   4   2   17.40    1.02 
  -1  -4  -2    1.87    0.58 
  -1  -4  -2    2.45    0.46 
   1  -4   2    1.92    0.66 
  -1  -4  -2    2.22    0.67 
   1  -4   2    1.84    0.46 
   1  -4   2    2.07    0.46 
   1  -4   2    1.81    0.63 
   1  -4   2    2.52    0.65 
  -1  -4  -2    2.21    0.63 
  -1   4  -2    1.81    0.57 
  -1   4  -2    1.26    0.53 
   1   4   2    2.35    0.61 
   1   4   2    3.06    0.62 
   1   4   2    1.80    0.63 
   1   4   2    1.90    0.38 
   1   4   2    2.44    0.61 
  -1   4  -2    1.47    0.42 
  -1   4  -2    2.14    1.01 
   1   4   2    2.49    0.66 
   2  -4   2   14.70    0.94 
   2  -4   2   12.89    1.11 
  -2  -4  -2   14.52    0.69 
  -2  -4  -2   12.72    1.08 
   2  -4   2   13.71    1.11 
  -2  -4  -2   12.08    1.02 
   2  -4   2   13.19    0.77 
   2  -4   2   14.90    1.11 
  -2  -4  -2   11.91    1.07 
  -2   4  -2   13.95    1.17 
  -2   4  -2   13.11    1.09 
   2   4   2   14.93    1.11 
   2   4   2   13.00    0.87 
  -2   4  -2   12.81    0.75 
   2   4   2   11.90    0.98 
  -2   4  -2   12.44    1.05 
   2   4   2   13.89    0.61 
   2   4   2   12.98    1.07 
   2   4   2   13.62    1.07 
   3  -4   2   50.59    1.98 
  -3  -4  -2   50.18    1.90 
   3  -4   2   51.96    2.18 
   3  -4   2   49.36    2.15 
  -3  -4  -2   49.53    2.15 
  -3  -4  -2   48.83    2.01 
   3  -4   2   50.04    2.14 
   3  -4   2   49.15    1.47 
  -3  -4  -2   48.81    1.36 
   3   4   2   51.86    1.84 
   3   4   2   49.80    2.13 
   3   4   2   47.34    2.00 
   3   4   2   52.37    2.19 
  -3   4  -2   51.15    1.53 
   3   4   2   49.87    1.36 
  -3   4  -2   51.41    2.23 
  -3   4  -2   49.65    2.14 
  -3   4  -2   52.50    2.18 
   3   4   2   49.38    2.09 
  -4  -4  -2   29.03    1.34 
  -4  -4  -2   28.54    1.67 
   4  -4   2   27.84    1.61 
   4  -4   2   27.15    1.60 
   4  -4   2   26.64    1.49 
  -4  -4  -2   26.99    1.41 
   4  -4   2   25.85    1.55 
   4   4   2   28.83    1.46 
  -4   4  -2   27.68    1.63 
   4   4   2   28.10    1.58 
  -4   4  -2   29.67    1.66 
   4   4   2   26.26    1.57 
   4   4   2   27.08    1.33 
  -4   4  -2   29.39    1.66 
   4   4   2   34.07    1.75 
   4   4   2   26.42    0.94 
  -5  -4  -2   20.47    1.50 
  -5  -4  -2   18.04    1.13 
   5  -4   2   20.43    1.39 
  -5  -4  -2   19.50    1.10 
   5  -4   2   18.45    1.33 
   5  -4   2   20.04    1.47 
   5  -4   2   18.94    1.38 
   5  -4   2   20.00    1.43 
  -5   4  -2   20.11    1.44 
  -5   4  -2   18.41    1.44 
   5   4   2   18.54    1.22 
   5   4   2   24.33    1.54 
   5   4   2   21.25    1.22 
   5   4   2   21.57    1.47 
   5   4   2   19.81    0.84 
   5   4   2   19.08    0.91 
  -5   4  -2   20.23    1.47 
   5   4   2   20.07    1.43 
  -6  -4  -2   19.33    1.12 
   6  -4   2   19.06    1.39 
   6  -4   2   21.12    1.47 
  -6  -4  -2   19.59    1.12 
   6  -4   2   22.28    1.55 
   6  -4   2   18.17    1.46 
   6  -4   2   20.06    1.40 
  -6  -4  -2   18.67    1.52 
   6   4   2   19.99    1.46 
   6   4   2   18.05    1.44 
   6   4   2   18.54    1.09 
   6   4   2   17.93    1.08 
  -6   4  -2   20.76    1.57 
  -6   4  -2   18.20    1.47 
   6   4   2   14.82    1.26 
  -6   4  -2   18.77    1.40 
   6   4   2   17.59    1.44 
   6   4   2   17.62    0.90 
   7  -4   2   19.53    1.58 
  -7  -4  -2   16.27    1.54 
   7  -4   2   16.80    1.35 
   7  -4   2   16.73    1.42 
   7  -4   2   18.24    1.49 
   7  -4   2   15.14    1.34 
  -7  -4  -2   16.46    1.09 
  -7  -4  -2   17.13    0.98 
   7   4   2   16.28    1.45 
  -7   4  -2   17.80    1.35 
   7   4   2   18.73    0.98 
  -7   4  -2   17.85    1.56 
   7   4   2   16.90    1.45 
   7   4   2   15.03    1.21 
   7   4   2   16.94    0.99 
   7   4   2   17.16    1.42 
  -7   4  -2   18.42    1.53 
   7   4   2   16.05    1.40 
  -8  -4  -2    3.79    0.54 
  -8  -4  -2    2.97    0.92 
   8  -4   2    4.54    1.07 
   8  -4   2    3.28    1.00 
   8   4   2    3.13    0.92 
  -8   4  -2    4.30    1.08 
   8   4   2    4.10    0.98 
   8   4   2    4.04    0.69 
   8   4   2    3.35    0.83 
  -8   4  -2    5.23    1.07 
   8   4   2    3.28    0.90 
  -8   4  -2    3.80    0.89 
   9  -4   2    9.50    1.44 
   9  -4   2   10.19    1.27 
  -9  -4  -2   10.19    1.56 
   9   4   2   10.41    1.33 
  -9   4  -2    9.71    1.58 
   9   4   2    7.90    0.95 
  -9   4  -2    8.48    1.05 
   9   4   2    9.38    1.33 
   9   4   2    8.14    1.06 
  10  -4   2   12.06    1.43 
  10  -4   2   13.00    1.46 
  10   4   2   12.80    1.12 
  10   4   2   13.33    1.52 
 -10   4  -2   12.02    1.17 
 -10   4  -2   10.35    1.44 
  10   4   2    9.77    1.15 
  10   4   2   11.21    1.04 
  10   4   2   10.87    1.31 
  11  -4   2    7.05    1.25 
  11  -4   2   11.77    1.42 
  11   4   2    6.34    1.02 
  11   4   2    9.67    1.23 
 -11   4  -2    7.09    1.34 
 -11   4  -2   10.46    1.11 
  11   4   2    4.77    1.36 
  11   4   2    7.07    1.18 
  11   4   2    6.28    1.20 
  12  -4   2    4.81    1.14 
  12   4   2   -0.29    0.71 
  12   4   2    0.07    0.95 
  12   4   2    1.17    0.67 
  11   5  -2    6.60    1.54 
  10  -5  -2    3.40    0.86 
  10  -5  -2    2.90    1.04 
 -10  -5   2    3.01    1.11 
 -10   5   2    4.46    1.00 
  10   5  -2    3.25    1.25 
  10   5  -2    3.51    0.98 
 -10   5   2    4.58    1.13 
   9  -5  -2    0.58    0.76 
  -9  -5   2    0.34    0.49 
   9  -5  -2   -0.22    0.52 
  -9  -5   2    0.85    0.90 
   9   5  -2    2.46    0.88 
  -9   5   2    1.13    0.81 
   9   5  -2    0.30    0.84 
   9   5  -2    0.63    0.46 
  -9   5   2    0.80    0.72 
   9   5  -2    1.29    0.69 
  -8  -5   2   10.79    1.35 
   8  -5  -2   10.79    1.52 
  -8  -5   2   10.34    1.01 
   8  -5  -2    9.59    1.06 
   8   5  -2    9.47    1.43 
   8   5  -2    9.98    1.41 
  -8   5   2   11.27    1.34 
  -8   5   2   10.35    1.32 
   8   5  -2   11.42    0.99 
   7  -5  -2    3.43    0.92 
  -7  -5   2    2.29    0.90 
  -7  -5   2    3.78    0.82 
   7  -5  -2    3.26    0.82 
  -7  -5   2    5.11    0.89 
  -7   5   2    4.28    1.07 
   7   5  -2    3.67    0.79 
  -7   5   2    3.63    0.93 
   7   5  -2    3.88    0.90 
   7   5  -2    4.62    1.06 
  -7   5   2    3.88    0.99 
   6  -5  -2    1.14    0.69 
  -6  -5   2    0.24    0.63 
   6  -5  -2   -0.05    0.55 
   6  -5  -2    0.88    0.65 
  -6  -5   2    0.34    0.49 
  -6  -5   2    0.77    0.55 
   6  -5  -2    0.19    0.52 
   6   5  -2    0.58    0.61 
  -6   5   2    0.71    0.63 
   6   5  -2    0.34    0.63 
   6   5  -2    0.04    0.65 
   6   5  -2    0.89    0.57 
  -6   5   2    0.67    0.58 
  -6   5   2    1.15    0.65 
  -6   5   2    0.62    0.64 
  -5  -5   2   12.17    1.27 
   5  -5  -2   11.62    1.12 
   5  -5  -2   12.69    1.28 
  -5  -5   2   11.14    1.10 
  -5  -5   2   12.63    1.26 
  -5  -5   2   13.77    1.12 
   5  -5  -2   11.74    1.20 
   5  -5  -2   12.54    1.24 
   5   5  -2   13.65    1.23 
  -5   5   2   11.87    1.31 
  -5   5   2   13.50    1.22 
   5   5  -2   12.77    1.15 
  -5   5   2   11.55    1.17 
  -5   5   2   11.46    1.19 
   5   5  -2   13.46    1.25 
   5   5  -2   13.81    1.25 
   4  -5  -2   74.30    2.83 
   4  -5  -2   74.41    2.77 
  -4  -5   2   73.53    2.77 
  -4  -5   2   71.25    2.88 
   4  -5  -2   73.96    2.72 
  -4  -5   2   72.28    2.70 
   4  -5  -2   70.52    2.96 
   4   5  -2   70.19    2.79 
   4   5  -2   73.90    2.82 
   4   5  -2   74.95    2.73 
   4   5  -2   58.49    2.58 
  -4   5   2   72.19    2.78 
  -4   5   2   72.60    2.74 
  -4   5   2   73.54    2.76 
  -4   5   2   74.35    3.01 
  -3  -5   2   29.16    1.68 
  -3  -5   2   32.36    1.77 
   3  -5  -2   29.75    1.60 
  -3  -5   2   32.67    1.76 
   3  -5  -2   30.64    1.69 
   3  -5  -2   30.93    1.85 
  -3  -5   2   31.87    1.80 
   3  -5  -2   33.31    1.73 
  -3   5   2   30.32    1.87 
   3   5  -2   29.33    1.65 
  -3   5   2   32.82    1.20 
  -3   5   2   28.43    1.62 
  -3   5   2   31.24    1.62 
   3   5  -2   33.20    1.79 
  -3   5   2   31.32    1.71 
  -3   5   2   32.20    1.24 
   3   5  -2   32.85    1.68 
   3   5  -2   30.76    1.75 
   2  -5  -2    0.59    0.46 
  -2  -5   2    0.53    0.58 
  -2  -5   2    0.34    0.76 
   2  -5  -2    1.56    0.71 
   2  -5  -2    0.67    0.55 
  -2  -5   2    1.05    0.66 
  -2  -5   2    0.83    0.56 
   2  -5  -2    0.80    0.51 
  -2   5   2    1.18    0.45 
  -2   5   2    1.17    0.53 
   2   5  -2    0.71    0.58 
   2   5  -2    0.91    0.59 
   2   5  -2    0.37    0.48 
   2   5  -2    0.85    0.53 
  -2   5   2    0.47    0.47 
  -2   5   2    0.34    0.54 
  -2   5   2    0.28    0.36 
  -2   5   2    0.29    0.54 
  -1  -5   2   15.82    1.33 
   1  -5  -2   13.97    1.11 
  -1  -5   2   15.44    1.12 
  -1  -5   2   14.88    0.78 
   1  -5  -2   15.55    1.02 
   1  -5  -2   21.74    1.96 
  -1  -5   2   14.67    1.28 
   1  -5  -2   13.98    1.21 
  -1  -5   2   14.93    1.27 
  -1   5   2   15.39    1.01 
   1   5  -2   15.88    1.11 
  -1   5   2   15.30    1.32 
  -1   5   2   15.03    1.22 
   1   5  -2   14.51    1.12 
  -1   5   2   15.96    1.01 
  -1   5   2   16.04    1.10 
   1   5  -2   15.65    1.26 
   1   5  -2   15.58    1.33 
  -1   5   2   16.24    1.01 
   0  -5   2   66.38    2.65 
   0  -5  -2   65.36    2.39 
   0  -5   2   64.46    2.68 
   0  -5  -2   67.00    2.74 
   0  -5   2   69.13    2.38 
   0  -5  -2   68.04    2.18 
   0  -5   2   66.82    2.07 
   0  -5  -2   66.14    2.63 
   0  -5   2   65.09    2.57 
   0   5   2   65.43    2.30 
   0   5   2   65.06    2.10 
   0   5   2   67.45    2.62 
   0   5   2   63.59    2.67 
   0   5  -2   66.81    2.62 
   0   5  -2   69.32    2.36 
   0   5   2   69.23    2.38 
   0   5  -2   65.20    2.48 
   0   5   2   68.52    2.41 
  -1  -5  -2   25.55    1.60 
  -1  -5  -2   25.78    1.62 
   1  -5   2   28.40    1.32 
   1  -5   2   27.35    1.66 
   1  -5   2   25.91    1.60 
   1  -5   2   26.54    1.56 
  -1  -5  -2   25.52    1.47 
  -1  -5  -2   26.42    1.21 
   1  -5   2   29.66    1.31 
   1   5   2   26.67    1.10 
  -1   5  -2   24.46    1.55 
   1   5   2   27.29    1.46 
  -1   5  -2   27.54    1.27 
  -1   5  -2   26.32    1.53 
   1   5   2   27.42    1.65 
   1   5   2   25.96    1.48 
  -1   5  -2   21.16    1.58 
   1   5   2   20.89    1.21 
   1   5   2   26.83    1.61 
  -2  -5  -2    1.07    0.60 
   2  -5   2    0.51    0.52 
   2  -5   2    0.93    0.64 
  -2  -5  -2    0.49    0.63 
   2  -5   2    0.08    0.41 
  -2  -5  -2    0.97    0.47 
  -2  -5  -2    0.66    0.65 
   2  -5   2    0.04    0.49 
  -2   5  -2    1.19    0.72 
   2   5   2    0.59    0.53 
   2   5   2    1.82    0.73 
  -2   5  -2    0.35    0.53 
   2   5   2    0.70    0.54 
  -2   5  -2    0.42    0.35 
   2   5   2    0.66    0.33 
   2   5   2    0.65    0.41 
  -2   5  -2    0.51    0.60 
   2   5   2    0.40    0.53 
   3  -5   2   25.10    1.64 
   3  -5   2   26.01    1.67 
   3  -5   2   26.62    1.45 
  -3  -5  -2   26.27    1.40 
  -3  -5  -2   25.42    0.94 
  -3  -5  -2   25.29    1.69 
   3   5   2   26.63    1.60 
  -3   5  -2   24.99    1.73 
   3   5   2   25.75    0.93 
   3   5   2   24.40    1.52 
   3   5   2   24.99    1.61 
   3   5   2   25.56    1.62 
  -3   5  -2   26.60    1.08 
   3   5   2   25.08    1.24 
  -3   5  -2   25.18    1.58 
  -3   5  -2   25.78    1.63 
  -4  -5  -2   85.04    2.65 
   4  -5   2   79.16    3.12 
  -4  -5  -2   83.02    2.96 
  -4  -5  -2   77.43    2.08 
   4  -5   2   81.96    2.92 
   4  -5   2   78.95    3.10 
  -4  -5  -2   79.66    3.18 
   4  -5   2   80.68    3.15 
   4   5   2   82.66    3.11 
  -4   5  -2   84.03    3.15 
   4   5   2   83.45    3.20 
   4   5   2   82.31    3.13 
   4   5   2   82.77    2.97 
  -4   5  -2   80.41    3.13 
   4   5   2   84.74    2.60 
  -4   5  -2   86.88    3.28 
   5  -5   2   15.41    1.38 
   5  -5   2   15.06    1.28 
   5  -5   2   16.18    1.43 
  -5  -5  -2   16.61    1.24 
   5  -5   2   14.13    1.36 
   5  -5   2   15.57    1.30 
  -5  -5  -2   14.55    1.43 
  -5  -5  -2   14.42    0.99 
   5   5   2   17.19    1.25 
  -5   5  -2   16.62    1.44 
  -5   5  -2   15.86    1.42 
   5   5   2   17.50    1.07 
   5   5   2   16.73    1.42 
  -5   5  -2   13.76    1.35 
   5   5   2   15.84    1.36 
   5   5   2   15.01    0.72 
   5   5   2   16.31    0.74 
   5   5   2   16.05    1.42 
   6  -5   2    2.09    0.85 
   6  -5   2    1.43    0.70 
  -6  -5  -2    2.06    0.65 
  -6  -5  -2    1.70    0.54 
   6  -5   2    0.69    0.61 
   6  -5   2    1.18    0.69 
  -6  -5  -2    1.22    0.83 
   6  -5   2    2.47    0.90 
   6   5   2    1.85    0.60 
   6   5   2    1.60    0.63 
   6   5   2    0.84    0.49 
  -6   5  -2    1.81    0.84 
  -6   5  -2    1.60    0.87 
  -6   5  -2    0.88    0.69 
   6   5   2    3.26    0.48 
   6   5   2    2.64    0.88 
   6   5   2    1.03    0.73 
   6   5   2    1.55    0.39 
  -7  -5  -2    1.64    0.55 
   7  -5   2    0.94    0.73 
   7  -5   2    1.22    0.78 
  -7  -5  -2    1.03    0.47 
  -7  -5  -2    0.69    0.79 
  -7   5  -2    1.44    0.74 
   7   5   2    0.83    0.45 
  -7   5  -2    0.72    0.91 
   7   5   2    1.75    0.62 
   7   5   2    0.91    0.39 
   7   5   2    1.35    0.57 
   7   5   2    0.85    0.76 
  -7   5  -2    0.34    0.64 
  -8  -5  -2   10.73    0.88 
   8  -5   2   11.19    1.33 
  -8  -5  -2   11.05    1.47 
   8  -5   2   10.53    1.36 
  -8   5  -2   11.66    1.47 
   8   5   2   10.40    0.88 
   8   5   2    9.27    1.02 
  -8   5  -2   12.78    1.31 
   8   5   2   10.52    0.87 
   8   5   2   11.31    0.81 
   8   5   2   12.13    1.44 
  -9  -5  -2    1.24    0.42 
  -9  -5  -2    0.38    0.85 
   9  -5   2   -0.17    0.68 
   9  -5   2    3.51    1.05 
   9   5   2    1.92    0.68 
  -9   5  -2    1.31    0.73 
   9   5   2    1.10    0.50 
  -9   5  -2    2.20    0.96 
   9   5   2    1.19    0.72 
   9   5   2    1.77    0.74 
  10  -5   2    1.19    0.89 
 -10  -5  -2    0.16    0.95 
  10  -5   2    1.74    0.93 
  10   5   2    3.02    1.02 
  10   5   2    0.49    0.69 
  10   5   2    0.82    0.58 
 -10   5  -2    0.94    0.70 
 -10   5  -2    1.32    0.89 
  10   5   2    1.95    0.57 
  10   5   2    0.53    0.75 
  11  -5   2    1.32    0.94 
  11   5   2    1.03    0.59 
  11   5   2    1.83    0.77 
 -10  -6   2   20.55    1.94 
  10  -6  -2   18.04    1.53 
 -10  -6   2   20.52    1.28 
  10   6  -2   19.40    1.67 
   9  -6  -2    4.06    0.96 
  -9  -6   2    1.35    0.74 
  -9  -6   2    2.47    1.10 
   9  -6  -2    0.23    0.74 
  -9   6   2    1.44    0.87 
   9   6  -2    3.04    1.01 
   9   6  -2    1.58    0.99 
  -8  -6   2    2.82    0.85 
  -8  -6   2    2.76    1.08 
   8  -6  -2    0.90    0.77 
   8  -6  -2    2.60    0.96 
   8   6  -2    1.61    0.83 
   8   6  -2    2.53    0.76 
  -8   6   2    1.93    0.86 
   8   6  -2    1.93    0.85 
  -8   6   2    1.29    0.84 
   7  -6  -2    9.60    1.33 
  -7  -6   2    8.43    1.03 
   7  -6  -2    7.43    1.24 
  -7  -6   2    7.52    0.97 
  -7  -6   2    7.34    1.28 
  -7   6   2   10.18    1.31 
   7   6  -2    8.47    1.12 
  -7   6   2    7.21    1.29 
   7   6  -2    9.04    1.07 
  -7   6   2    9.70    1.48 
   6  -6  -2   34.18    2.07 
  -6  -6   2   33.71    2.11 
   6  -6  -2   32.81    1.89 
  -6  -6   2   33.85    1.78 
  -6  -6   2   32.74    1.84 
  -6   6   2   36.57    2.07 
  -6   6   2   37.02    2.25 
  -6   6   2   32.00    2.02 
   6   6  -2   34.77    1.89 
   6   6  -2   33.86    1.87 
  -5  -6   2    7.20    1.29 
   5  -6  -2    7.07    1.17 
   5  -6  -2    6.54    1.12 
   5  -6  -2    6.38    1.13 
  -5  -6   2    5.33    1.00 
  -5  -6   2    6.46    1.00 
   5  -6  -2    5.06    1.10 
  -5   6   2    4.86    1.11 
  -5   6   2    7.38    1.51 
  -5   6   2    4.31    1.01 
   5   6  -2    4.16    1.54 
   5   6  -2    7.79    1.18 
  -5   6   2    4.45    0.95 
   5   6  -2    7.20    1.15 
   4  -6  -2    1.62    0.79 
  -4  -6   2    2.37    0.74 
  -4  -6   2    1.75    0.87 
   4  -6  -2    1.90    0.77 
   4  -6  -2    1.96    0.75 
   4  -6  -2    2.55    0.93 
  -4   6   2    1.53    0.71 
  -4   6   2    1.68    0.82 
   4   6  -2    1.34    0.66 
  -4   6   2    2.69    0.83 
  -4   6   2    2.12    0.92 
   4   6  -2    1.86    0.79 
   4   6  -2    2.55    0.79 
   4   6  -2    2.19    0.80 
   3  -6  -2    9.66    1.27 
   3  -6  -2    9.17    1.12 
  -3  -6   2   11.25    1.30 
   3  -6  -2   12.09    1.26 
  -3  -6   2   11.13    1.23 
  -3  -6   2   10.92    1.18 
   3  -6  -2   13.12    1.16 
  -3   6   2   11.23    1.34 
   3   6  -2   12.48    1.13 
  -3   6   2   11.95    1.16 
  -3   6   2    9.48    1.19 
   3   6  -2   10.85    1.26 
  -3   6   2   12.18    1.12 
   3   6  -2   10.86    1.23 
  -3   6   2   11.15    0.82 
  -3   6   2   10.26    0.75 
   3   6  -2   11.66    1.15 
  -2  -6   2   11.29    1.49 
   2  -6  -2   11.52    1.23 
   2  -6  -2   11.89    1.33 
  -2  -6   2    8.69    1.25 
  -2  -6   2   12.59    1.32 
   2  -6  -2   11.61    1.05 
   2  -6  -2    9.90    1.06 
  -2   6   2   10.17    1.06 
  -2   6   2   10.84    1.33 
  -2   6   2   12.03    1.06 
   2   6  -2   10.39    1.08 
  -2   6   2    9.94    0.87 
  -2   6   2   10.02    1.16 
   2   6  -2   12.57    1.35 
   2   6  -2   11.86    1.27 
  -2   6   2    9.82    0.82 
  -1  -6   2    8.62    1.16 
  -1  -6   2    8.72    0.72 
  -1  -6   2    9.12    1.32 
   1  -6  -2    9.57    1.48 
   1  -6  -2    7.98    1.00 
   1  -6  -2   10.14    1.38 
  -1  -6   2    8.29    1.38 
   1  -6  -2    7.61    0.90 
  -1   6   2    7.24    0.84 
  -1   6   2    7.37    0.88 
   1   6  -2    8.88    1.35 
   1   6  -2    9.83    1.06 
  -1   6   2    8.15    0.83 
  -1   6   2    7.72    1.15 
  -1   6   2    9.19    1.42 
   1   6  -2    7.94    0.94 
   1   6  -2    9.82    1.37 
  -1   6   2    7.62    0.85 
   0  -6  -2   13.10    1.16 
   0  -6  -2   13.92    1.38 
   0  -6   2   13.73    1.34 
   0  -6  -2   14.32    1.05 
   0  -6   2   12.98    1.31 
   0  -6  -2   13.60    1.33 
   0  -6   2   14.13    1.38 
   0   6   2   13.61    1.13 
   0   6  -2   14.23    1.34 
   0   6  -2   14.05    1.42 
   0   6   2   14.79    1.10 
   0   6   2   13.08    1.38 
   0   6   2   13.68    1.31 
   0   6   2   13.75    0.95 
   0   6  -2   13.68    1.22 
   0   6  -2   14.79    1.10 
   0   6   2   12.92    1.04 
  -1  -6  -2    6.61    1.10 
   1  -6   2    6.57    1.14 
   1  -6   2    6.14    0.77 
  -1  -6  -2    6.20    0.83 
  -1  -6  -2    8.78    1.39 
   1  -6   2    9.41    1.42 
  -1  -6  -2    9.00    1.23 
  -1   6  -2    7.95    1.13 
   1   6   2    8.61    1.31 
   1   6   2    8.18    1.14 
  -1   6  -2    8.46    1.14 
  -1   6  -2    8.60    1.38 
   1   6   2    7.14    1.06 
  -1   6  -2    6.33    0.78 
   1   6   2    6.67    0.67 
   1   6   2    8.13    1.15 
   1   6   2    6.48    0.80 
  -2  -6  -2    4.81    0.97 
  -2  -6  -2    4.72    1.00 
   2  -6   2    5.46    1.02 
   2  -6   2    6.46    1.21 
  -2  -6  -2    5.55    0.76 
  -2  -6  -2    6.23    1.13 
   2  -6   2    3.81    0.91 
   2  -6   2    5.84    0.87 
   2   6   2    4.18    0.92 
  -2   6  -2    6.20    1.13 
  -2   6  -2    4.34    0.94 
   2   6   2    4.72    0.56 
   2   6   2    6.05    0.81 
  -2   6  -2    5.55    0.76 
  -2   6  -2    4.99    0.65 
   2   6   2    4.65    0.91 
  -2   6  -2    5.93    1.16 
   2   6   2    4.01    0.87 
   3  -6   2   11.84    1.29 
  -3  -6  -2    8.76    1.18 
  -3  -6  -2   13.10    1.10 
   3  -6   2   14.29    1.43 
  -3  -6  -2   12.56    0.72 
   3  -6   2   13.89    1.16 
  -3  -6  -2   12.33    1.36 
   3  -6   2   12.32    1.32 
   3   6   2   11.48    1.18 
  -3   6  -2   13.15    1.29 
   3   6   2   12.95    1.33 
   3   6   2   13.51    1.32 
   3   6   2   12.53    0.71 
  -3   6  -2   13.00    0.82 
   3   6   2   13.04    1.28 
  -3   6  -2   13.57    0.84 
   3   6   2   13.56    0.95 
  -3   6  -2   11.60    1.32 
  -3   6  -2   12.77    1.44 
   4  -6   2    6.25    1.15 
   4  -6   2    6.59    1.27 
  -4  -6  -2    5.87    1.02 
  -4  -6  -2    7.35    0.81 
   4  -6   2    6.02    1.17 
  -4  -6  -2    3.88    1.01 
   4  -6   2    5.68    0.98 
   4   6   2    4.63    1.02 
  -4   6  -2    5.85    1.12 
   4   6   2    5.17    0.76 
   4   6   2    3.62    0.95 
   4   6   2    3.69    0.96 
  -4   6  -2    4.19    1.08 
  -4   6  -2    5.57    1.12 
   5  -6   2    6.64    1.05 
  -5  -6  -2    5.62    0.73 
  -5  -6  -2    6.31    1.05 
   5  -6   2    5.79    1.05 
   5  -6   2    9.16    1.42 
  -5  -6  -2    6.01    1.22 
   5  -6   2    6.05    1.19 
  -5   6  -2    6.95    1.24 
   5   6   2    6.01    1.06 
  -5   6  -2    7.68    1.38 
   5   6   2    6.07    0.72 
   5   6   2    4.43    0.95 
  -6  -6  -2   14.31    1.22 
  -6  -6  -2   12.89    0.93 
   6  -6   2   12.96    1.46 
   6  -6   2   12.59    1.34 
  -6  -6  -2   14.19    1.51 
   6   6   2   12.19    0.92 
   6   6   2   14.05    1.50 
  -6   6  -2   13.62    1.45 
  -6   6  -2   13.62    1.50 
   6   6   2   14.17    1.24 
   7  -6   2   15.84    1.58 
  -7  -6  -2   16.83    1.67 
   7  -6   2   17.30    1.52 
  -7  -6  -2   15.63    1.00 
  -7  -6  -2   16.60    1.29 
   7   6   2   17.38    1.65 
  -7   6  -2   18.34    1.64 
   7   6   2   13.05    1.18 
   7   6   2   14.48    1.00 
  -7   6  -2   13.80    1.53 
  -8  -6  -2    1.30    0.90 
   8  -6   2    1.07    0.77 
  -8  -6  -2    0.79    0.57 
   8  -6   2   -0.19    0.77 
   8   6   2    0.82    0.51 
   8   6   2    0.81    0.54 
  -8   6  -2    0.55    0.80 
  -8   6  -2    0.14    0.68 
   8   6   2    0.66    0.77 
  -9  -6  -2    1.39    0.57 
   9  -6   2    1.29    0.82 
   9  -6   2    3.57    1.02 
  -9  -6  -2    1.28    1.03 
   9   6   2    1.85    0.62 
   9   6   2    3.27    0.72 
  -9   6  -2    1.56    0.96 
   9   6   2    2.06    0.46 
  -9   6  -2    1.30    0.82 
   9   6   2    3.02    0.63 
   9   6   2    0.84    0.76 
 -10  -6  -2    6.75    1.67 
  10   6   2    9.00    0.91 
   8  -7  -2    2.08    0.84 
   8  -7  -2    2.74    0.94 
  -8  -7   2    4.13    0.92 
  -8  -7   2    2.13    1.04 
  -8   7   2    2.78    1.07 
   8   7  -2    3.69    0.91 
  -7  -7   2    4.34    1.24 
   7  -7  -2    4.68    1.18 
  -7  -7   2    2.95    0.86 
   7  -7  -2    2.76    0.91 
  -7  -7   2    2.77    0.84 
   7   7  -2    4.88    1.13 
  -7   7   2    3.36    1.21 
  -7   7   2    4.11    1.20 
   7   7  -2    2.96    1.14 
  -6  -7   2    0.79    0.63 
  -6  -7   2    0.66    0.77 
   6  -7  -2   -0.10    0.67 
   6  -7  -2   -0.01    0.71 
  -6  -7   2    1.49    0.74 
  -6   7   2    1.27    0.69 
   6   7  -2    0.31    0.60 
  -6   7   2    0.46    0.76 
   6   7  -2    1.56    0.77 
  -5  -7   2    9.62    1.06 
   5  -7  -2    8.53    1.43 
  -5  -7   2   10.52    1.59 
  -5  -7   2    6.58    1.15 
   5  -7  -2    8.95    1.22 
   5   7  -2    7.76    1.28 
   5   7  -2   10.52    1.34 
  -5   7   2    8.58    1.38 
   5   7  -2    8.36    1.16 
   4  -7  -2   19.15    1.60 
   4  -7  -2   16.29    1.44 
   4  -7  -2   18.89    1.56 
  -4  -7   2   18.03    1.40 
  -4  -7   2   16.45    1.53 
  -4  -7   2   17.32    1.64 
   4  -7  -2   16.82    1.73 
   4   7  -2   17.75    1.55 
  -4   7   2   18.63    1.46 
   4   7  -2   16.27    1.30 
  -4   7   2   12.78    1.58 
   4   7  -2   19.49    1.64 
   3  -7  -2    8.79    1.23 
   3  -7  -2    7.59    1.30 
  -3  -7   2    9.42    1.50 
  -3  -7   2    8.33    1.34 
   3  -7  -2    9.43    1.59 
  -3  -7   2    8.76    1.13 
   3  -7  -2    7.78    1.28 
   3   7  -2    8.98    1.04 
   3   7  -2   10.08    1.52 
  -3   7   2    7.67    0.69 
  -3   7   2    9.15    1.27 
  -3   7   2    7.25    0.74 
  -3   7   2    7.60    1.30 
   2  -7  -2    0.50    0.72 
  -2  -7   2    0.46    0.65 
   2  -7  -2    0.17    0.67 
  -2  -7   2    1.33    0.84 
   2  -7  -2    0.60    0.64 
   2  -7  -2    2.08    0.61 
  -2  -7   2   -0.05    0.80 
  -2   7   2    1.09    0.80 
  -2   7   2    1.44    0.55 
   2   7  -2    0.66    0.60 
  -2   7   2    0.52    0.48 
   2   7  -2    0.03    0.48 
  -2   7   2   -0.14    0.45 
   2   7  -2    0.29    0.73 
  -2   7   2    0.38    0.57 
  -1  -7   2    5.05    1.05 
  -1  -7   2    2.88    0.51 
  -1  -7   2    3.06    1.07 
   1  -7  -2    3.67    0.83 
   1  -7  -2    3.14    0.90 
  -1  -7   2    3.77    1.02 
  -1  -7   2    5.02    0.74 
   1  -7  -2    3.35    0.96 
   1  -7  -2    2.64    0.88 
  -1   7   2    4.52    0.80 
  -1   7   2    2.97    0.75 
  -1   7   2    3.27    0.81 
   1   7  -2    2.97    0.80 
   1   7  -2    3.16    0.92 
   1   7  -2    4.19    0.89 
  -1   7   2    4.61    0.82 
  -1   7   2    3.79    1.10 
   0  -7  -2   19.97    1.31 
   0  -7   2   18.32    1.63 
   0  -7   2   17.05    1.57 
   0  -7   2   19.14    1.15 
   0  -7  -2   20.13    1.67 
   0  -7  -2   20.22    1.75 
   0  -7   2   14.70    1.58 
   0  -7   2   18.06    1.04 
   0  -7  -2   18.27    1.42 
   0   7   2   17.83    1.66 
   0   7   2   16.38    1.24 
   0   7  -2   18.08    1.26 
   0   7  -2   17.38    1.41 
   0   7   2   16.78    1.13 
   0   7  -2   17.27    1.65 
   0   7  -2   18.29    1.32 
   0   7   2   19.18    1.38 
   0   7   2   17.53    1.28 
  -1  -7  -2   10.77    1.45 
  -1  -7  -2   11.34    1.36 
   1  -7   2    8.71    1.43 
  -1  -7  -2    8.56    1.03 
   1  -7   2    7.12    0.90 
  -1  -7  -2    7.01    1.22 
   1  -7   2   10.54    1.43 
   1  -7   2    9.58    1.51 
   1   7   2    7.88    1.38 
  -1   7  -2    9.13    0.95 
   1   7   2    5.99    0.81 
   1   7   2    6.34    1.04 
  -1   7  -2    7.63    0.88 
  -1   7  -2    8.74    1.12 
   1   7   2    7.33    1.10 
  -1   7  -2    7.28    1.33 
   1   7   2   10.89    0.84 
  -2  -7  -2    0.21    0.44 
  -2  -7  -2    0.71    0.78 
   2  -7   2   -0.06    0.44 
  -2  -7  -2   -0.10    0.60 
   2  -7   2    0.72    0.79 
   2  -7   2    0.81    0.70 
  -2  -7  -2    0.23    0.65 
   2  -7   2   -0.01    0.71 
   2   7   2    0.15    0.55 
   2   7   2    0.50    0.58 
  -2   7  -2    0.56    0.59 
  -2   7  -2    0.66    0.46 
   2   7   2    1.47    0.44 
  -2   7  -2    0.88    0.74 
  -2   7  -2    1.02    0.52 
   2   7   2    0.40    0.60 
   2   7   2    0.29    0.46 
   3  -7   2    5.71    1.28 
  -3  -7  -2    3.80    1.07 
   3  -7   2    3.63    0.81 
  -3  -7  -2    4.05    0.85 
   3  -7   2    4.16    0.94 
  -3  -7  -2    3.66    0.96 
  -3  -7  -2    4.81    0.53 
   3  -7   2    5.08    1.10 
  -3   7  -2    3.62    0.66 
   3   7   2    4.35    0.72 
  -3   7  -2    5.29    1.20 
   3   7   2    3.38    0.92 
  -3   7  -2    4.79    1.06 
   3   7   2    3.33    0.98 
   3   7   2    3.92    0.54 
  -3   7  -2    4.62    0.62 
  -4  -7  -2   34.10    1.56 
   4  -7   2   33.45    2.15 
   4  -7   2   30.58    1.81 
   4  -7   2   34.04    2.28 
  -4  -7  -2   33.29    2.18 
   4  -7   2   31.70    1.82 
   4   7   2   31.79    2.05 
  -4   7  -2   34.06    2.07 
  -4   7  -2   33.22    2.23 
   4   7   2   30.06    1.42 
   4   7   2   30.73    2.02 
  -5  -7  -2   10.64    1.45 
  -5  -7  -2    8.67    1.16 
  -5  -7  -2    9.96    0.85 
   5  -7   2    9.85    1.20 
   5  -7   2   12.23    1.68 
   5   7   2    7.27    1.23 
   5   7   2   10.14    0.82 
  -5   7  -2   12.08    1.80 
   5   7   2    9.69    1.46 
  -6  -7  -2    0.57    0.42 
   6  -7   2    0.15    0.74 
  -6  -7  -2    1.29    0.92 
   6  -7   2    1.73    0.82 
  -6  -7  -2    1.94    0.79 
   6   7   2    0.36    0.69 
   6   7   2   -0.13    0.62 
  -6   7  -2    2.28    1.03 
  -6   7  -2    4.82    1.11 
   6   7   2    2.20    0.54 
  -7  -7  -2    1.03    0.45 
   7  -7   2    1.73    0.87 
   7  -7   2    0.78    0.75 
  -7  -7  -2    0.07    0.82 
  -7  -7  -2    0.60    0.64 
  -7   7  -2    1.48    0.80 
  -7   7  -2    0.82    0.81 
   7   7   2    1.45    0.46 
   7   7   2    1.78    0.67 
   7   7   2    1.80    1.00 
   8  -7   2    4.61    1.13 
   8  -7   2    5.67    1.28 
  -8  -7  -2    3.91    0.88 
  -8  -7  -2    3.78    1.21 
  -8   7  -2    3.03    1.05 
  -8   7  -2    4.60    1.13 
  -6  -8   2   10.30    1.56 
   6  -8  -2   10.91    1.47 
   6  -8  -2    9.60    1.45 
  -6  -8   2   11.15    1.19 
   6   8  -2   13.57    1.60 
  -6   8   2   10.62    1.84 
  -6   8   2    9.32    1.50 
   6   8  -2    7.45    1.04 
   5  -8  -2    0.99    0.75 
  -5  -8   2    2.21    0.96 
  -5  -8   2    3.32    0.81 
   5  -8  -2    2.07    0.95 
  -5  -8   2    3.33    0.83 
  -5   8   2    1.48    0.85 
  -5   8   2    1.48    0.82 
   5   8  -2   -0.11    0.78 
   5   8  -2    0.91    0.68 
   5   8  -2    1.56    0.88 
  -4  -8   2    6.80    1.39 
   4  -8  -2    7.02    1.24 
  -4  -8   2    5.97    1.17 
   4  -8  -2    7.50    1.38 
  -4  -8   2    7.66    1.18 
  -4   8   2    8.76    1.17 
   4   8  -2    5.90    1.06 
   4   8  -2    6.59    1.36 
   4   8  -2    7.26    1.32 
  -4   8   2    4.96    1.22 
   3  -8  -2   15.80    1.82 
  -3  -8   2   17.12    1.44 
   3  -8  -2   15.43    1.45 
   3  -8  -2   13.49    1.40 
   3  -8  -2   14.46    1.54 
  -3  -8   2   17.35    1.72 
   3   8  -2   15.93    1.72 
  -3   8   2   14.69    0.95 
  -3   8   2   14.52    1.32 
   3   8  -2   16.35    1.55 
   3   8  -2   12.47    1.25 
  -3   8   2   14.67    1.72 
  -2  -8   2    1.96    0.94 
  -2  -8   2    2.07    1.00 
   2  -8  -2    1.40    0.91 
   2  -8  -2    3.77    0.98 
  -2  -8   2    3.34    1.12 
   2  -8  -2    3.42    0.93 
   2  -8  -2    2.90    0.98 
  -2   8   2    3.47    0.70 
   2   8  -2    1.29    0.91 
  -2   8   2    2.45    0.71 
  -2   8   2    3.23    0.84 
   2   8  -2    3.16    0.84 
  -2   8   2    3.21    1.06 
   2   8  -2    2.10    0.79 
   1  -8  -2    1.12    0.71 
  -1  -8   2    0.82    0.78 
   1  -8  -2    0.20    0.69 
  -1  -8   2    1.01    0.78 
  -1  -8   2    1.39    0.96 
   1  -8  -2   -0.27    0.65 
  -1  -8   2    3.16    0.68 
   1  -8  -2    0.64    0.82 
   1   8  -2    0.46    0.64 
  -1   8   2    0.06    0.53 
  -1   8   2   -0.12    0.56 
  -1   8   2    0.06    0.53 
   1   8  -2   -0.12    0.73 
  -1   8   2    0.99    0.98 
  -1   8   2    0.59    0.51 
   1   8  -2    0.98    0.63 
   0  -8  -2    5.59    1.25 
   0  -8  -2    4.55    1.13 
   0  -8   2    5.86    1.27 
   0  -8  -2    6.82    1.09 
   0  -8   2    3.92    1.24 
   0  -8  -2    6.07    1.15 
   0  -8   2    5.28    0.69 
   0  -8   2    6.30    0.91 
   0  -8   2    5.43    1.16 
   0   8   2    7.27    1.08 
   0   8  -2    6.12    1.36 
   0   8   2    4.82    0.91 
   0   8  -2    6.90    1.16 
   0   8   2    7.51    1.13 
   0   8   2    7.25    0.98 
   0   8   2    9.96    1.73 
   0   8  -2    6.33    1.04 
   0   8  -2    6.99    1.20 
  -1  -8  -2    1.22    0.86 
   1  -8   2    1.57    0.89 
  -1  -8  -2   -0.04    0.77 
   1  -8   2    0.32    0.80 
  -1  -8  -2    0.70    0.74 
   1  -8   2    0.50    0.54 
   1  -8   2    2.04    0.68 
  -1  -8  -2   -0.46    0.59 
  -1   8  -2    0.78    0.59 
   1   8   2    0.78    0.51 
  -1   8  -2    1.64    0.88 
  -1   8  -2    0.36    0.54 
  -1   8  -2    0.65    0.68 
   1   8   2    2.33    0.71 
   1   8   2    0.91    0.67 
   1   8   2    0.68    0.90 
   2  -8   2    5.08    1.17 
   2  -8   2    3.96    1.17 
   2  -8   2    5.80    0.96 
  -2  -8  -2    6.30    1.27 
  -2  -8  -2    4.25    0.98 
   2  -8   2    4.78    0.85 
  -2  -8  -2    6.64    0.72 
  -2  -8  -2    4.18    1.04 
  -2   8  -2    6.02    0.91 
   2   8   2    5.34    0.89 
  -2   8  -2    5.06    1.10 
   2   8   2    4.78    0.65 
  -2   8  -2    4.18    1.25 
   2   8   2    6.51    1.26 
   2   8   2    4.59    1.14 
   3  -8   2    5.82    0.97 
   3  -8   2    4.41    1.31 
  -3  -8  -2    5.33    1.24 
   3  -8   2    5.22    1.20 
  -3  -8  -2    6.52    0.93 
   3  -8   2    7.77    1.20 
  -3  -8  -2    6.53    1.39 
  -3   8  -2    8.51    0.79 
   3   8   2    5.67    0.59 
  -3   8  -2    9.54    1.63 
  -3   8  -2    6.31    0.75 
   3   8   2    6.07    1.38 
   3   8   2    7.68    0.85 
   3   8   2    5.66    1.15 
  -4  -8  -2    5.20    1.27 
  -4  -8  -2    6.93    1.30 
   4  -8   2    3.78    1.16 
   4  -8   2    5.48    1.09 
  -4  -8  -2    6.18    0.79 
   4   8   2    5.65    0.79 
  -4   8  -2    6.65    1.29 
   4   8   2    6.31    1.36 
  -4   8  -2    6.57    1.42 
   4   8   2    6.90    1.44 
   5  -8   2    2.35    1.12 
   5  -8   2    2.04    1.04 
  -5  -8  -2    3.39    0.68 
  -5   8  -2    4.33    1.13 
   5   8   2    2.64    0.93 
   5   8   2    3.49    1.21 
   5   8   2    3.55    0.67 
  -5   8  -2    5.23    1.30 
  -6  -8  -2    0.97    0.74 
   6  -8   2    1.27    0.87 
  -6   8  -2    2.25    0.98 
   6   8   2    4.08    1.09 
  -6   8  -2    3.18    0.97 
   2  -9  -2   -0.05    1.00 
   2  -9  -2    0.66    0.85 
  -2   9   2    0.41    0.65 
   2   9  -2    0.47    0.77 
   2   9  -2    0.46    0.61 
  -2   9   2   -0.64    0.52 
  -2   9   2    1.51    0.92 
   1  -9  -2    1.70    0.94 
   1  -9  -2    2.16    1.18 
   1  -9  -2    2.75    1.00 
   1   9  -2    2.29    0.99 
   1   9  -2    0.88    0.78 
   1   9  -2    1.75    0.79 
  -1   9   2    2.94    1.26 
  -1   9   2    1.98    0.73 
  -1   9   2    3.81    0.85 
  -1   9   2    4.79    0.90 
   0  -9  -2    8.14    1.39 
   0  -9   2   10.70    1.11 
   0  -9  -2    4.63    1.72 
   0   9  -2    9.49    1.25 
   0   9   2   10.28    1.88 
   0   9   2    7.88    1.18 
   0   9  -2    8.16    1.35 
   0   9   2    8.35    1.06 
   0   9  -2    8.30    1.52 
   1  -9   2    3.25    0.85 
   1  -9   2    1.64    0.97 
   1  -9   2    3.10    1.33 
  -1  -9  -2    4.33    1.12 
   1   9   2    4.89    1.48 
   1   9   2    5.00    1.04 
  -1   9  -2    2.89    1.02 
  -1   9  -2    3.33    0.85 
  -1   9  -2    3.54    1.31 
  -1   9  -2    4.72    0.92 
  -2  -9  -2   -1.14    0.62 
   2  -9   2    0.01    0.60 
   2  -9   2    0.68    0.63 
   2   9   2    2.73    0.75 
  -2   9  -2    0.75    0.88 
  -2   9  -2    0.77    0.58 
  -2   9  -2    0.48    0.89 
   2   9   2   -0.08    0.66 
  13   0  -3    6.18    1.45 
  13   0  -3    9.93    0.97 
  13   0  -3    6.19    1.13 
  13   0  -3    9.97    1.32 
  12   0  -3    6.00    1.34 
  12   0  -3    7.02    1.12 
  12   0  -3    5.17    1.03 
  12   0  -3    8.87    1.30 
  12   0  -3    6.68    0.95 
  11   0  -3    7.29    0.80 
  11   0  -3    6.86    1.37 
  11   0  -3    7.87    1.14 
  11   0  -3    8.27    1.23 
  11   0  -3    7.10    0.86 
  10   0  -3    1.21    0.60 
  10   0  -3    1.86    0.85 
  10   0  -3    1.65    0.56 
  10   0  -3    0.80    0.56 
  10   0  -3    1.13    0.54 
  10   0  -3    1.62    0.70 
   9   0  -3   36.61    1.49 
   9   0  -3   37.31    1.75 
   9   0  -3   37.01    1.83 
  -9   0   3   35.65    1.76 
   9   0  -3   37.22    2.11 
   9   0  -3   36.65    1.54 
   9   0  -3   36.11    1.20 
   9   0  -3   37.16    1.24 
  -8   0   3   15.02    1.11 
   8   0  -3   15.93    1.15 
   8   0  -3   15.93    1.37 
   8   0  -3   14.82    0.89 
   8   0  -3   15.87    1.10 
   8   0  -3   14.41    1.28 
   8   0  -3   15.71    0.88 
   8   0  -3   15.62    0.81 
   8   0  -3   14.98    0.97 
  -7   0   3    2.17    0.60 
   7   0  -3    1.89    0.55 
   7   0  -3    1.94    0.73 
   7   0  -3    3.59    0.53 
   7   0  -3    2.00    0.48 
  -7   0   3    2.19    0.58 
   7   0  -3    2.74    0.56 
   7   0  -3    2.06    0.44 
   7   0  -3    2.39    0.58 
   7   0  -3    1.44    0.60 
   6   0  -3   11.34    0.86 
   6   0  -3   10.37    1.01 
   6   0  -3   12.26    0.92 
   6   0  -3   11.27    0.73 
   6   0  -3   10.83    0.81 
  -6   0   3   10.72    0.87 
   6   0  -3   10.83    1.04 
   6   0  -3   10.41    0.62 
  -6   0   3    8.20    0.79 
   6   0  -3   11.68    0.70 
   5   0  -3  110.43    3.15 
   5   0  -3  111.27    3.45 
  -5   0   3  111.68    3.20 
   5   0  -3  112.55    3.18 
  -5   0   3  114.30    3.22 
   5   0  -3  115.13    3.06 
   5   0  -3  111.83    2.72 
   5   0  -3  114.70    2.77 
   5   0  -3  108.38    3.17 
   4   0  -3   52.88    2.03 
   4   0  -3   55.15    1.85 
  -4   0   3   54.03    1.82 
  -4   0   3   55.06    2.04 
   4   0  -3   56.01    1.83 
   4   0  -3   57.71    1.93 
   4   0  -3   53.67    1.41 
   4   0  -3   55.39    1.38 
  -4   0   3   55.04    1.86 
   4   0  -3   56.03    1.84 
   3   0  -3   28.88    1.18 
   3   0  -3   27.21    1.20 
   3   0  -3   25.04    1.22 
   3   0  -3   28.34    1.13 
  -3   0   3   28.12    1.12 
  -3   0   3   27.36    1.16 
   3   0  -3   29.69    1.32 
  -3   0   3   28.52    1.30 
   2   0  -3  593.91   13.12 
   2   0  -3  590.92   12.94 
  -2   0   3  586.38   12.82 
   2   0  -3  584.17   13.04 
  -2   0   3  589.51   13.04 
  -2   0   3  601.41   12.96 
   2   0  -3  577.32   12.82 
  -1   0   3  151.87    3.56 
  -1   0   3  163.48    4.01 
  -1   0   3  161.93    3.98 
   1   0  -3  160.06    3.97 
   1   0  -3  164.13    3.89 
   1   0  -3  156.22    3.99 
  -1   0   3  161.05    3.88 
   1   0  -3  157.27    4.09 
   1   0  -3  158.07    3.60 
   0   0   3   23.08    1.15 
   0   0   3   25.72    1.17 
   0   0   3   24.42    1.16 
   0   0   3   24.67    0.96 
   0   0  -3   26.00    1.15 
   0   0   3   23.72    1.10 
   0   0  -3   25.58    1.15 
   0   0  -3   24.30    0.96 
   0   0  -3   23.91    1.17 
   0   0  -3   25.62    1.13 
   1   0   3  146.26    3.81 
   1   0   3  154.15    3.71 
  -1   0  -3  156.76    3.87 
  -1   0  -3  150.85    3.90 
  -1   0  -3  156.35    3.87 
   1   0   3  152.28    3.83 
  -1   0  -3  153.71    3.70 
   1   0   3  155.18    3.93 
   1   0   3  152.59    3.84 
  -1   0  -3  146.74    3.80 
   2   0   3  763.29   16.42 
   2   0   3  747.55   16.20 
   2   0   3  769.63   16.42 
  -2   0  -3  756.14   16.36 
  -2   0  -3  720.91   16.48 
   2   0   3  754.79   16.55 
  -3   0  -3   51.25    1.63 
   3   0   3   48.04    1.66 
  -3   0  -3   48.05    1.77 
   3   0   3   50.43    1.63 
  -3   0  -3   51.52    1.71 
   3   0   3   50.78    1.71 
   3   0   3   47.83    1.92 
   3   0   3   51.54    1.78 
  -3   0  -3   50.07    1.64 
   4   0   3   37.60    1.39 
  -4   0  -3   38.02    1.50 
  -4   0  -3   38.42    1.48 
   4   0   3   39.19    1.48 
   4   0   3   38.97    1.60 
  -4   0  -3   37.58    1.30 
   4   0   3   40.79    1.82 
   4   0   3   35.64    1.45 
   5   0   3  148.07    4.18 
   5   0   3  151.30    4.02 
  -5   0  -3  149.71    4.01 
  -5   0  -3  147.85    4.20 
   5   0   3  149.11    4.45 
   5   0   3  149.17    3.70 
   5   0   3  149.74    4.35 
  -5   0  -3  151.33    3.63 
  -5   0  -3  147.01    4.03 
   5   0   3  148.73    4.00 
   6   0   3   39.92    1.80 
   6   0   3   40.58    1.66 
  -6   0  -3   40.47    1.75 
   6   0   3   39.29    2.02 
   6   0   3   38.75    1.67 
   6   0   3   40.10    1.93 
   6   0   3   37.86    1.28 
  -6   0  -3   39.92    1.25 
  -7   0  -3    2.38    0.36 
   7   0   3    1.26    0.73 
   7   0   3    2.39    0.67 
  -7   0  -3    2.41    0.33 
   7   0   3    1.50    0.52 
   7   0   3    3.75    0.75 
  -7   0  -3    2.32    0.67 
   7   0   3    1.85    0.59 
   7   0   3    1.52    0.68 
   8   0   3   11.66    1.11 
   8   0   3   13.32    1.05 
   8   0   3   11.99    1.18 
   8   0   3   14.13    1.47 
   8   0   3   12.20    0.98 
   8   0   3   11.92    1.26 
  -8   0  -3   12.88    1.16 
   8   0   3   12.27    1.11 
   9   0   3  121.12    3.68 
   9   0   3  110.93    3.91 
   9   0   3  119.17    3.97 
   9   0   3  109.06    3.98 
   9   0   3  122.61    3.65 
   9   0   3  115.91    4.19 
   9   0   3  118.82    3.85 
  10   0   3    0.19    0.48 
  10   0   3    0.04    0.50 
  10   0   3    0.50    0.47 
  10   0   3    0.20    0.80 
  10   0   3    0.67    0.71 
  10   0   3    1.68    0.63 
  11   0   3    0.58    0.85 
  11   0   3    1.94    0.73 
  11   0   3    1.30    0.75 
  11   0   3    0.96    0.68 
  11   0   3    0.62    0.57 
  12   0   3    1.44    0.82 
  12   0   3    2.66    0.74 
  12   0   3    1.84    0.70 
  12   0   3    2.25    0.93 
  12   0   3    1.22    0.87 
  13   0   3   14.90    1.60 
  13   0   3   13.62    1.51 
  13   0   3   13.56    1.30 
  13   0   3   12.80    1.79 
  13  -1  -3    1.19    0.59 
  13  -1  -3    1.93    0.66 
  13  -1  -3    1.97    0.86 
  13   1  -3    4.17    0.98 
  13   1  -3    0.84    0.75 
  13   1  -3    1.06    0.87 
  13   1  -3    2.42    0.76 
  12  -1  -3   30.52    1.99 
  12  -1  -3   34.41    1.69 
  12  -1  -3   29.80    1.61 
  12  -1  -3   32.24    2.24 
  12  -1  -3   28.65    1.46 
  12  -1  -3   29.52    1.46 
  12   1  -3   29.86    2.17 
  12   1  -3   30.99    1.88 
  12   1  -3   28.78    1.56 
  12   1  -3   32.19    1.82 
  12   1  -3   28.47    1.65 
  11  -1  -3    3.24    0.64 
  11  -1  -3    1.80    0.65 
  11  -1  -3    3.37    0.66 
  11  -1  -3    2.02    0.88 
  11  -1  -3    2.60    0.73 
  11  -1  -3    2.45    0.83 
  11   1  -3    3.97    0.73 
  11   1  -3    1.69    0.74 
  11   1  -3    2.54    0.73 
  11   1  -3    3.91    0.90 
  11   1  -3    2.35    0.75 
  11   1  -3    2.98    0.98 
  10  -1  -3    7.11    0.73 
  10  -1  -3    6.81    1.10 
  10  -1  -3    5.77    0.78 
  10  -1  -3    7.35    1.32 
  10  -1  -3    6.83    0.79 
  10  -1  -3    7.55    0.77 
  10   1  -3    9.14    0.96 
  10   1  -3    6.47    0.98 
  10   1  -3    6.29    0.77 
  10   1  -3    7.06    1.09 
  10   1  -3    5.82    0.96 
  10   1  -3    7.01    1.18 
  -9  -1   3   40.51    1.99 
   9  -1  -3   41.87    2.05 
   9  -1  -3   40.29    2.23 
   9  -1  -3   40.19    1.65 
   9  -1  -3   40.04    1.56 
   9  -1  -3   40.58    1.55 
   9  -1  -3   39.67    1.49 
   9  -1  -3   39.76    1.70 
   9  -1  -3   37.85    2.15 
   9   1  -3   35.23    1.56 
   9   1  -3   40.45    1.80 
   9   1  -3   38.71    2.09 
   9   1  -3   39.67    1.79 
   9   1  -3   31.32    2.04 
   9   1  -3   40.64    1.94 
  -9   1   3   40.88    1.72 
   9   1  -3   39.56    1.83 
   8  -1  -3   48.79    1.97 
   8  -1  -3   59.04    2.64 
   8  -1  -3   59.00    1.95 
  -8  -1   3   56.88    2.38 
   8  -1  -3   59.36    1.90 
   8  -1  -3   59.19    2.59 
   8  -1  -3   55.09    1.86 
   8  -1  -3   58.32    2.39 
   8  -1  -3   59.55    2.10 
   8   1  -3   57.49    1.66 
  -8   1   3   59.73    2.46 
   8   1  -3   57.23    2.14 
   8   1  -3   58.35    2.16 
   8   1  -3   56.44    2.30 
   8   1  -3   60.25    2.22 
   8   1  -3   57.05    2.51 
   8   1  -3   57.80    1.97 
   8   1  -3   57.57    1.65 
   8   1  -3   60.08    2.62 
  -8   1   3   60.49    2.10 
   7  -1  -3    9.88    0.78 
   7  -1  -3   10.12    0.86 
   7  -1  -3   10.24    0.69 
   7  -1  -3    9.43    0.97 
   7  -1  -3    9.88    1.06 
   7  -1  -3    9.56    0.70 
   7  -1  -3    9.11    0.78 
   7  -1  -3   11.64    1.15 
  -7  -1   3    9.61    0.97 
   7   1  -3    9.21    0.71 
  -7   1   3    9.56    0.96 
   7   1  -3    8.97    0.64 
  -7   1   3    7.16    0.72 
   7   1  -3    9.88    1.02 
   7   1  -3    9.57    1.10 
   7   1  -3    9.86    0.92 
   7   1  -3    9.89    0.82 
   7   1  -3    9.45    0.89 
   7   1  -3    8.50    0.63 
  -6  -1   3   72.09    2.55 
   6  -1  -3   70.53    1.99 
   6  -1  -3   74.61    2.26 
   6  -1  -3   70.59    2.29 
   6  -1  -3   72.83    2.55 
   6  -1  -3   73.22    2.03 
   6  -1  -3   71.23    2.68 
   6  -1  -3   72.82    2.74 
   6   1  -3   71.86    2.27 
   6   1  -3   71.53    2.71 
  -6   1   3   74.23    2.59 
  -6   1   3   70.81    2.23 
   6   1  -3   72.66    2.51 
   6   1  -3   72.34    2.13 
   6   1  -3   73.60    2.18 
   6   1  -3   74.23    2.13 
  -5  -1   3    3.41    0.69 
  -5  -1   3    3.02    0.52 
  -5  -1   3    3.20    0.64 
   5  -1  -3    2.73    0.61 
   5  -1  -3    3.17    0.70 
   5  -1  -3    3.40    0.59 
  -5  -1   3    2.73    0.48 
   5  -1  -3    2.87    0.37 
   5  -1  -3    2.78    0.64 
   5  -1  -3    3.21    0.52 
   5   1  -3    3.89    0.73 
  -5   1   3    3.10    0.53 
  -5   1   3    2.19    0.52 
  -5   1   3    4.35    0.71 
   5   1  -3    3.59    0.78 
   5   1  -3    2.51    0.50 
   5   1  -3    3.14    0.44 
   5   1  -3    3.93    0.57 
   4  -1  -3   67.88    1.69 
   4  -1  -3   65.39    2.23 
  -4  -1   3   67.91    1.96 
  -4  -1   3   68.31    2.35 
   4  -1  -3   65.79    2.33 
   4  -1  -3   67.89    2.06 
   4  -1  -3   68.25    2.18 
  -4  -1   3   72.86    1.93 
   4  -1  -3   67.84    2.34 
  -4  -1   3   59.97    2.21 
  -4  -1   3   67.86    2.20 
  -4   1   3   66.60    1.75 
   4   1  -3   68.91    1.95 
   4   1  -3   68.01    2.09 
   4   1  -3   70.90    2.28 
  -4   1   3   70.38    2.04 
   4   1  -3   69.09    1.85 
  -4   1   3   64.86    2.22 
  -4   1   3   67.60    2.21 
   4   1  -3   65.48    2.37 
  -3  -1   3   20.44    1.14 
   3  -1  -3   20.30    1.05 
   3  -1  -3   18.85    0.62 
  -3  -1   3   19.45    0.80 
  -3  -1   3   19.37    0.79 
   3  -1  -3   21.24    1.00 
   3  -1  -3   18.53    1.03 
  -3  -1   3   18.70    1.03 
   3  -1  -3   20.92    1.10 
  -3  -1   3   21.87    1.11 
   3   1  -3   17.83    1.01 
  -3   1   3   20.27    0.93 
  -3   1   3   19.60    1.05 
   3   1  -3   20.07    1.00 
   3   1  -3   19.62    0.80 
   3   1  -3   19.72    1.15 
  -3   1   3   21.25    0.66 
  -3   1   3   20.53    1.03 
   3   1  -3   20.16    0.76 
   2  -1  -3  217.94    5.28 
  -2  -1   3  222.05    4.98 
  -2  -1   3  228.87    5.58 
   2  -1  -3  216.33    5.38 
   2  -1  -3  226.61    5.38 
   2  -1  -3  220.50    4.84 
  -2  -1   3  220.27    5.37 
   2  -1  -3  223.53    5.33 
  -2  -1   3  212.98    4.97 
  -2   1   3  215.66    4.84 
  -2   1   3  218.90    5.32 
   2   1  -3  220.13    4.98 
   2   1  -3  223.86    5.57 
   2   1  -3  224.68    5.37 
  -2   1   3  222.09    5.43 
   2   1  -3  223.70    5.00 
  -2   1   3  225.41    5.28 
   2   1  -3  215.82    5.33 
   1  -1  -3   28.69    0.93 
   1  -1  -3   28.25    1.18 
  -1  -1   3   26.24    0.98 
  -1  -1   3   26.40    1.35 
   1  -1  -3   28.07    1.23 
  -1  -1   3   28.36    0.99 
   1  -1  -3   28.59    1.07 
   1  -1  -3   27.37    1.16 
  -1  -1   3   29.92    1.24 
  -1  -1   3   28.79    1.16 
   1   1  -3   27.32    1.21 
   1   1  -3   28.96    1.16 
   1   1  -3   28.15    0.99 
   1   1  -3   27.16    1.38 
  -1   1   3   29.57    0.93 
   1   1  -3   28.33    1.04 
  -1   1   3   28.41    1.18 
  -1   1   3   27.64    1.05 
  -1   1   3   27.94    1.20 
   0  -1  -3    1.73    0.45 
   0  -1   3    1.21    0.37 
   0  -1  -3    2.19    0.70 
   0  -1   3    1.35    0.36 
   0  -1  -3    1.50    0.35 
   0  -1   3    1.64    0.42 
   0  -1  -3    0.94    0.52 
   0  -1   3    2.55    0.63 
   0  -1  -3    1.96    0.40 
   0  -1   3    1.93    0.51 
   0   1  -3    1.18    0.34 
   0   1   3    1.84    0.51 
   0   1  -3    1.81    0.71 
   0   1   3    1.46    0.31 
   0   1   3    2.28    0.69 
   0   1  -3    1.60    0.43 
   0   1   3    1.29    0.35 
   0   1   3    1.98    0.47 
   0   1  -3    1.97    0.40 
   0   1  -3    1.78    0.49 
   1  -1   3   19.77    0.96 
   1  -1   3   19.38    1.00 
   1  -1   3   19.64    0.89 
  -1  -1  -3   18.73    0.71 
   1  -1   3   19.32    0.99 
  -1  -1  -3   20.51    0.96 
  -1  -1  -3   20.31    0.97 
   1  -1   3   18.89    0.99 
  -1  -1  -3   19.88    0.99 
  -1  -1  -3   19.45    1.12 
  -1   1  -3   20.34    1.01 
   1   1   3   20.06    0.79 
   1   1   3   19.54    0.98 
  -1   1  -3   19.70    0.99 
   1   1   3   20.52    1.00 
  -1   1  -3   20.25    0.91 
   1   1   3   21.01    0.98 
  -1   1  -3   19.06    1.00 
   1   1   3   20.23    1.18 
   2  -1   3  290.05    6.79 
   2  -1   3  280.54    6.73 
   2  -1   3  285.25    6.88 
   2  -1   3  292.15    6.68 
  -2  -1  -3  286.78    6.80 
  -2  -1  -3  290.92    6.70 
  -2  -1  -3  285.52    6.70 
  -2  -1  -3  281.76    6.31 
  -2  -1  -3  290.29    6.84 
  -2  -1  -3  299.23    6.91 
   2  -1   3  287.69    6.73 
   2   1   3  300.98    6.95 
  -2   1  -3  285.64    6.89 
  -2   1  -3  287.01    6.74 
  -2   1  -3  289.68    6.76 
   2   1   3  287.48    6.84 
   2   1   3  287.17    6.81 
  -2   1  -3  292.78    6.66 
  -2   1  -3  285.19    6.78 
   2   1   3  284.84    6.32 
  -3  -1  -3   51.85    1.63 
  -3  -1  -3   49.95    1.47 
  -3  -1  -3   51.44    1.86 
   3  -1   3   52.35    1.83 
   3  -1   3   52.51    1.68 
   3  -1   3   51.12    1.83 
   3  -1   3   50.90    1.96 
  -3  -1  -3   53.49    1.86 
  -3  -1  -3   50.64    1.68 
   3  -1   3   50.35    1.71 
   3   1   3   51.42    1.84 
  -3   1  -3   48.90    1.71 
  -3   1  -3   51.98    1.64 
  -3   1  -3   49.38    1.80 
   3   1   3   53.15    1.49 
   3   1   3   47.74    1.86 
  -3   1  -3   50.08    1.82 
   3   1   3   51.81    1.85 
  -3   1  -3   49.26    1.95 
   4  -1   3   31.35    1.45 
   4  -1   3   33.00    1.63 
   4  -1   3   32.48    1.25 
   4  -1   3   33.06    1.48 
  -4  -1  -3   33.97    1.49 
  -4  -1  -3   30.92    1.19 
  -4  -1  -3   31.66    1.24 
  -4  -1  -3   32.44    1.15 
   4  -1   3   31.06    1.27 
  -4   1  -3   31.32    1.22 
  -4   1  -3   32.86    1.62 
  -4   1  -3   31.42    1.27 
  -4   1  -3   29.20    1.44 
   4   1   3   28.50    1.40 
   4   1   3   33.81    1.57 
   4   1   3   31.64    1.18 
   4   1   3   31.94    1.43 
   5  -1   3    1.24    0.41 
  -5  -1  -3    1.18    0.36 
   5  -1   3    1.24    0.52 
  -5  -1  -3    2.00    0.54 
   5  -1   3    0.56    0.35 
   5  -1   3    0.83    0.45 
   5  -1   3    1.21    0.63 
  -5  -1  -3    0.72    0.38 
  -5  -1  -3    1.56    0.35 
  -5   1  -3    1.34    0.70 
   5   1   3    1.36    0.42 
  -5   1  -3    0.93    0.47 
  -5   1  -3    1.49    0.40 
   5   1   3    0.78    0.41 
  -5   1  -3    0.82    0.36 
   5   1   3    1.20    0.50 
   5   1   3    2.05    0.60 
   5   1   3    1.62    0.67 
   6  -1   3   65.97    2.66 
   6  -1   3   66.12    2.07 
  -6  -1  -3   66.93    2.46 
  -6  -1  -3   68.42    1.75 
  -6  -1  -3   66.18    1.73 
   6  -1   3   68.90    2.17 
   6  -1   3   69.77    2.50 
   6  -1   3   64.44    2.49 
   6  -1   3   68.49    2.60 
   6   1   3   68.86    2.24 
   6   1   3   68.38    2.46 
  -6   1  -3   66.89    2.05 
   6   1   3   67.21    2.77 
  -6   1  -3   65.71    2.71 
   6   1   3   65.67    2.44 
   6   1   3   69.16    2.61 
  -6   1  -3   68.60    2.52 
   7  -1   3   32.51    1.37 
  -7  -1  -3   30.78    1.64 
   7  -1   3   31.57    1.25 
   7  -1   3   28.33    1.35 
   7  -1   3   31.97    1.89 
   7  -1   3   31.19    1.68 
   7  -1   3   32.83    1.75 
   7  -1   3   31.39    1.74 
   7   1   3   31.34    1.64 
   7   1   3   30.16    1.56 
   7   1   3   36.85    1.87 
  -7   1  -3   32.15    1.73 
   7   1   3   31.61    1.63 
   7   1   3   31.76    1.96 
   7   1   3   30.87    1.48 
  -7   1  -3   31.40    1.22 
   8  -1   3   41.37    1.68 
   8  -1   3   41.46    2.09 
   8  -1   3   38.19    1.96 
   8  -1   3   37.75    2.16 
   8  -1   3   39.01    1.61 
   8  -1   3   41.01    2.06 
   8  -1   3   39.20    1.43 
   8   1   3   40.94    1.97 
  -8   1  -3   37.90    2.00 
   8   1   3   40.85    2.28 
   8   1   3   39.52    2.08 
  -8   1  -3   38.31    1.35 
   8   1   3   39.06    1.79 
   8   1   3   40.22    1.88 
   8   1   3   41.58    1.96 
   9  -1   3   29.73    1.84 
   9  -1   3   32.14    1.50 
   9  -1   3   30.30    1.93 
   9  -1   3   30.56    1.42 
   9  -1   3   28.56    1.81 
   9  -1   3   29.77    1.07 
   9  -1   3   27.38    1.91 
   9  -1   3   31.95    1.84 
   9   1   3   30.80    1.74 
   9   1   3   31.79    1.67 
   9   1   3   29.39    1.88 
   9   1   3   29.55    1.66 
   9   1   3   28.99    2.04 
   9   1   3   28.52    1.74 
   9   1   3   25.35    1.64 
  -9   1  -3   29.48    1.87 
   9   1   3   27.66    1.62 
  10  -1   3   13.53    1.50 
  10  -1   3   10.42    1.25 
  10  -1   3   12.45    1.03 
  10  -1   3   14.30    1.48 
  10  -1   3   12.68    0.97 
 -10   1  -3   11.95    1.36 
  10   1   3   12.51    1.25 
  10   1   3   13.60    1.57 
  10   1   3   11.16    1.13 
  10   1   3   11.37    1.12 
  10   1   3   12.32    1.49 
  10   1   3   12.24    1.24 
  10   1   3   12.64    1.22 
  10   1   3   11.27    1.20 
  11  -1   3    6.51    1.16 
  11  -1   3    8.15    1.43 
  11  -1   3    7.86    0.91 
  11  -1   3    8.08    0.89 
  11   1   3    7.08    1.49 
  11   1   3    9.01    1.37 
  11   1   3   10.41    1.17 
  11   1   3    7.26    1.14 
  11   1   3    6.14    1.22 
  11   1   3    6.38    1.13 
  12  -1   3    7.95    0.98 
  12  -1   3    4.94    1.16 
  12  -1   3   10.98    1.46 
  12  -1   3    3.59    1.15 
  12   1   3    5.68    1.05 
  12   1   3    7.03    1.15 
  12   1   3    5.50    1.29 
  12   1   3    7.39    1.20 
  13  -1   3    1.84    1.05 
  13  -1   3    3.04    1.21 
  13   1   3    2.21    1.00 
  13   1   3    1.23    1.11 
  13   1   3    1.91    1.02 
  13   1   3    2.60    0.93 
  12  -2  -3    1.81    0.86 
  12  -2  -3    1.57    0.62 
  12  -2  -3    1.71    0.60 
  12  -2  -3    1.34    0.95 
  12   2  -3    3.15    0.84 
  12   2  -3    0.97    0.87 
  12   2  -3    2.23    0.83 
  12   2  -3    2.11    0.88 
  12   2  -3    3.45    0.77 
  11  -2  -3    1.83    0.59 
  11  -2  -3    1.55    0.80 
  11  -2  -3    1.68    0.57 
  11  -2  -3    1.59    0.52 
  11  -2  -3    1.52    0.54 
  11  -2  -3    1.74    0.94 
  11  -2  -3    1.76    0.67 
  11   2  -3    1.30    0.76 
  11   2  -3    0.17    0.73 
  11   2  -3    1.52    0.58 
  11   2  -3    2.40    0.62 
  11   2  -3    1.67    0.70 
  10  -2  -3   16.64    1.17 
  10  -2  -3   16.62    1.03 
  10  -2  -3   17.32    1.00 
  10  -2  -3   15.70    1.09 
  10  -2  -3   18.22    1.67 
  10  -2  -3   16.52    1.49 
  10  -2  -3   14.05    1.01 
  10   2  -3   16.51    1.37 
  10   2  -3   16.37    1.58 
  10   2  -3   16.72    1.18 
  10   2  -3   15.74    1.14 
  10   2  -3   15.67    1.12 
   9  -2  -3   29.78    1.95 
   9  -2  -3   27.74    1.77 
  -9  -2   3   26.98    1.74 
   9  -2  -3   26.56    1.27 
   9  -2  -3   29.58    1.31 
   9  -2  -3   28.60    1.35 
   9   2  -3   28.27    1.43 
   9   2  -3   25.55    1.37 
  -9   2   3   27.01    1.81 
   9   2  -3   25.24    1.65 
   9   2  -3   27.08    1.38 
   9   2  -3   22.42    1.74 
   9   2  -3   25.88    1.61 
   9   2  -3   26.56    1.74 
   8  -2  -3    4.25    0.88 
   8  -2  -3    5.05    0.70 
  -8  -2   3    3.76    0.76 
   8  -2  -3    4.63    0.92 
   8  -2  -3    6.73    0.78 
   8  -2  -3    3.78    0.61 
   8  -2  -3    5.24    1.06 
   8   2  -3    5.12    0.73 
  -8   2   3    5.85    0.88 
  -8   2   3    4.37    0.93 
   8   2  -3    4.44    0.51 
  -8   2   3    5.24    0.67 
   8   2  -3    5.96    0.81 
   8   2  -3    4.70    0.92 
   8   2  -3    3.87    0.69 
   8   2  -3    5.46    1.13 
   8   2  -3    4.86    0.50 
   7  -2  -3   24.26    1.32 
   7  -2  -3   25.26    1.62 
   7  -2  -3   26.10    1.14 
   7  -2  -3   25.27    1.19 
   7  -2  -3   25.43    1.65 
  -7  -2   3   26.27    1.60 
  -7  -2   3   26.20    1.41 
   7  -2  -3   26.33    1.59 
  -7   2   3   25.81    1.10 
   7   2  -3   24.20    1.50 
   7   2  -3   26.55    1.65 
   7   2  -3   25.27    1.17 
  -7   2   3   24.80    1.40 
  -7   2   3   26.05    1.59 
   7   2  -3   25.60    1.25 
   7   2  -3   26.90    1.11 
  -7   2   3   25.28    1.25 
   7   2  -3   24.15    1.15 
   6  -2  -3    4.30    0.84 
   6  -2  -3    4.29    0.88 
  -6  -2   3    4.01    0.71 
  -6  -2   3    3.01    0.67 
   6  -2  -3    3.71    0.77 
   6  -2  -3    5.72    0.70 
  -6  -2   3    4.78    0.77 
   6  -2  -3    4.36    0.75 
   6  -2  -3    3.62    0.49 
  -6  -2   3    4.18    0.77 
   6   2  -3    4.08    0.52 
  -6   2   3    4.28    0.87 
   6   2  -3    3.88    0.53 
  -6   2   3    4.94    0.68 
   6   2  -3    3.93    0.87 
   6   2  -3    3.75    0.53 
  -6   2   3    3.92    0.50 
  -6   2   3    4.60    0.81 
   6   2  -3    5.16    0.69 
   6   2  -3    4.48    0.79 
   5  -2  -3  224.15    5.74 
   5  -2  -3  220.96    5.96 
  -5  -2   3  225.97    5.61 
  -5  -2   3  230.44    5.59 
   5  -2  -3  220.02    5.36 
  -5  -2   3  222.55    5.93 
   5  -2  -3  227.06    5.99 
   5  -2  -3  229.08    5.30 
  -5  -2   3  219.94    5.87 
   5  -2  -3  220.79    5.91 
  -5   2   3  222.14    5.79 
   5   2  -3  226.88    5.46 
   5   2  -3  227.90    5.49 
  -5   2   3  228.52    5.27 
   5   2  -3  227.33    5.91 
  -5   2   3  214.38    5.35 
  -5   2   3  219.86    5.86 
   5   2  -3  233.75    5.22 
   5   2  -3  223.32    5.17 
   5   2  -3  224.16    6.02 
  -4  -2   3   32.75    1.43 
   4  -2  -3   27.52    1.45 
   4  -2  -3   33.47    1.56 
  -4  -2   3   34.32    1.37 
   4  -2  -3   35.27    1.21 
   4  -2  -3   33.75    1.28 
   4  -2  -3   32.49    1.56 
  -4  -2   3   35.67    1.61 
  -4  -2   3   32.83    1.60 
   4  -2  -3   33.69    1.60 
   4   2  -3   34.59    1.32 
   4   2  -3   36.01    1.76 
   4   2  -3   33.41    1.39 
   4   2  -3   35.11    1.57 
  -4   2   3   34.50    1.24 
   4   2  -3   35.17    1.05 
  -4   2   3   34.87    1.58 
  -4   2   3   34.51    1.21 
  -4   2   3   35.04    1.57 
  -3  -2   3  160.21    4.37 
   3  -2  -3  154.40    4.23 
   3  -2  -3  157.47    3.77 
   3  -2  -3  151.96    3.84 
  -3  -2   3  159.34    4.11 
   3  -2  -3  156.33    4.16 
   3  -2  -3  162.59    4.22 
  -3  -2   3  156.70    4.25 
  -3  -2   3  157.49    3.97 
   3  -2  -3  162.42    4.28 
   3   2  -3  160.47    3.95 
   3   2  -3  133.33    3.98 
  -3   2   3  158.09    3.79 
   3   2  -3  156.17    4.21 
  -3   2   3  160.72    4.30 
  -3   2   3  157.28    4.22 
  -3   2   3  155.97    3.87 
   3   2  -3  143.17    4.43 
   2  -2  -3  117.18    3.36 
  -2  -2   3  113.97    3.27 
   2  -2  -3  117.89    3.14 
   2  -2  -3  117.93    3.15 
  -2  -2   3   97.66    3.57 
   2  -2  -3  115.49    3.29 
   2  -2  -3  121.33    2.98 
   2  -2  -3  117.94    3.04 
  -2  -2   3  117.71    3.10 
   2   2  -3  118.40    3.08 
  -2   2   3  117.37    3.37 
  -2   2   3  116.48    3.11 
   2   2  -3  113.57    3.56 
  -2   2   3  114.46    3.25 
   2   2  -3  116.58    3.26 
  -2   2   3  117.70    2.97 
   2   2  -3  116.33    3.27 
   1  -2  -3  300.79    6.86 
  -1  -2   3  296.35    7.22 
  -1  -2   3  301.51    7.04 
   1  -2  -3  298.72    6.95 
  -1  -2   3  310.88    6.66 
   1  -2  -3  309.56    6.94 
  -1  -2   3  303.87    7.13 
   1  -2  -3  305.11    6.87 
  -1  -2   3  303.56    7.46 
   1  -2  -3  306.81    7.28 
   1  -2  -3  292.64    7.14 
  -1   2   3  303.71    7.16 
  -1   2   3  307.38    6.92 
   1   2  -3  298.24    7.01 
   1   2  -3  305.32    6.57 
   1   2  -3  293.39    7.36 
   1   2  -3  310.85    7.25 
  -1   2   3  294.97    7.25 
  -1   2   3  300.88    7.01 
   1   2  -3  306.52    7.12 
   0  -2  -3    1.49    0.47 
   0  -2  -3    1.70    0.43 
   0  -2   3    1.33    0.32 
   0  -2   3    2.46    0.55 
   0  -2   3    1.84    0.50 
   0  -2   3    1.69    0.56 
   0  -2   3    1.99    0.44 
   0  -2  -3    1.79    0.44 
   0  -2  -3    2.04    0.55 
   0  -2  -3    1.93    0.31 
   0  -2  -3    1.84    0.30 
   0   2  -3    2.35    0.60 
   0   2   3    0.93    0.36 
   0   2  -3    1.28    0.43 
   0   2   3    2.28    0.59 
   0   2   3    1.40    0.40 
   0   2  -3    1.91    0.53 
   0   2  -3    1.94    0.34 
   0   2   3    1.29    0.45 
   0   2  -3    2.07    0.48 
  -1  -2  -3  278.18    6.81 
   1  -2   3  276.89    6.39 
   1  -2   3  276.75    6.65 
  -1  -2  -3  275.46    6.63 
  -1  -2  -3  277.07    6.59 
   1  -2   3  271.54    6.65 
   1  -2   3  278.19    6.73 
   1  -2   3  282.86    6.40 
   1   2   3  275.06    6.66 
  -1   2  -3  274.39    6.62 
   1   2   3  278.33    6.68 
   1   2   3  279.44    6.61 
   1   2   3  279.82    6.64 
  -1   2  -3  283.15    6.75 
  -1   2  -3  275.73    6.43 
  -1   2  -3  267.82    6.69 
  -1   2  -3  275.42    6.38 
   2  -2   3  110.54    3.03 
   2  -2   3  113.71    3.21 
   2  -2   3  107.31    3.17 
  -2  -2  -3  107.38    3.22 
  -2  -2  -3  109.83    3.19 
   2  -2   3  107.70    3.20 
  -2  -2  -3  111.65    3.19 
   2  -2   3  111.88    2.86 
   2   2   3  112.36    3.19 
  -2   2  -3  109.52    3.20 
   2   2   3  107.39    3.16 
  -2   2  -3  110.31    3.21 
   2   2   3  106.47    3.24 
  -2   2  -3  106.59    3.18 
  -2   2  -3  111.42    2.94 
   2   2   3  109.69    3.08 
   3  -2   3   77.31    2.62 
  -3  -2  -3   76.97    2.31 
   3  -2   3   80.75    2.18 
  -3  -2  -3   75.22    2.56 
   3  -2   3   74.18    2.43 
  -3  -2  -3   76.55    2.57 
   3  -2   3   77.97    2.49 
  -3  -2  -3   80.89    2.53 
   3  -2   3   76.53    2.55 
  -3   2  -3   81.16    2.19 
   3   2   3   75.95    2.31 
   3   2   3   74.32    2.61 
   3   2   3   76.04    2.56 
  -3   2  -3   73.92    2.53 
  -3   2  -3   77.46    2.60 
  -4  -2  -3   10.81    1.00 
   4  -2   3   12.07    0.74 
   4  -2   3   11.57    0.93 
   4  -2   3   11.71    0.88 
   4  -2   3   11.09    0.95 
   4  -2   3   11.45    0.97 
  -4  -2  -3   10.25    0.86 
   4  -2   3   13.02    1.08 
  -4  -2  -3   11.49    0.75 
   4   2   3   11.09    0.59 
   4   2   3   11.17    0.97 
  -4   2  -3   11.30    1.04 
   4   2   3   10.29    0.74 
  -4   2  -3   10.88    0.96 
  -4   2  -3   10.43    0.86 
   4   2   3   11.37    0.97 
   4   2   3   10.63    0.57 
   4   2   3   11.01    0.98 
  -4   2  -3   12.00    0.66 
  -5  -2  -3  106.88    3.21 
   5  -2   3  105.02    3.35 
   5  -2   3  106.39    3.39 
  -5  -2  -3  106.78    2.85 
   5  -2   3  113.77    3.55 
  -5  -2  -3  101.65    2.77 
   5  -2   3  105.49    3.36 
  -5  -2  -3  108.21    3.49 
   5  -2   3  106.28    3.12 
   5  -2   3  109.00    2.84 
   5   2   3  102.80    2.76 
  -5   2  -3  103.64    3.10 
   5   2   3   88.37    3.12 
   5   2   3  103.34    3.34 
  -5   2  -3  107.49    3.54 
   5   2   3  105.44    3.43 
  -5   2  -3  107.19    2.76 
  -5   2  -3  102.93    3.38 
   5   2   3  106.92    2.80 
   6  -2   3    0.78    0.51 
  -6  -2  -3    1.93    0.47 
  -6  -2  -3    1.88    0.37 
   6  -2   3    2.06    0.53 
   6  -2   3    1.70    0.47 
   6  -2   3    1.14    0.51 
  -6  -2  -3    1.49    0.57 
   6  -2   3    0.95    0.69 
   6  -2   3    1.23    0.59 
   6   2   3    1.30    0.46 
   6   2   3    1.01    0.54 
  -6   2  -3    1.14    0.47 
   6   2   3    0.47    0.47 
   6   2   3    1.73    0.75 
  -6   2  -3    1.57    0.61 
   6   2   3    1.40    0.45 
  -6   2  -3    1.91    0.78 
   6   2   3    2.24    0.48 
   7  -2   3   10.27    0.75 
   7  -2   3   10.46    1.06 
   7  -2   3    9.75    0.67 
   7  -2   3    9.20    0.82 
  -7  -2  -3   10.26    0.97 
   7  -2   3    8.47    1.04 
   7  -2   3   12.25    1.21 
   7  -2   3    9.63    1.21 
   7   2   3    9.81    0.98 
   7   2   3   10.06    0.85 
  -7   2  -3    9.79    1.09 
  -7   2  -3   10.81    1.30 
   7   2   3   10.63    1.18 
   7   2   3   10.60    1.08 
   7   2   3   10.35    0.84 
  -7   2  -3   10.11    0.86 
   7   2   3   10.03    1.01 
   8  -2   3    2.06    0.73 
   8  -2   3    2.69    0.48 
   8  -2   3    4.35    1.00 
   8  -2   3    3.51    0.60 
   8  -2   3    3.47    0.64 
   8  -2   3    2.36    0.75 
   8  -2   3    3.09    0.87 
   8   2   3    4.23    0.78 
   8   2   3    2.78    0.80 
   8   2   3    3.25    0.78 
   8   2   3    5.65    1.11 
   8   2   3    3.11    0.99 
  -8   2  -3    3.31    0.65 
  -8   2  -3    3.35    0.92 
   8   2   3    3.49    0.70 
   8   2   3    3.93    0.79 
  -8   2  -3    1.77    0.89 
   9  -2   3   40.86    1.57 
   9  -2   3   35.81    2.18 
   9  -2   3   40.95    2.23 
   9  -2   3   43.22    2.28 
   9  -2   3   36.29    1.92 
   9  -2   3   41.93    1.50 
   9   2   3   49.94    2.37 
   9   2   3   36.80    2.05 
   9   2   3   40.82    1.84 
  -9   2  -3   40.00    2.24 
   9   2   3   41.40    1.90 
   9   2   3   38.34    2.34 
   9   2   3   41.56    2.10 
   9   2   3   39.83    2.03 
  -9   2  -3   41.44    1.60 
  10  -2   3    4.16    0.61 
  10  -2   3    2.72    0.95 
  10  -2   3    4.65    0.67 
  10  -2   3    3.31    0.90 
 -10   2  -3    4.27    1.03 
  10   2   3    3.01    1.01 
  10   2   3    4.14    0.99 
  10   2   3    3.03    0.78 
  10   2   3    3.98    0.88 
 -10   2  -3    4.95    0.61 
  10   2   3    3.43    0.94 
  10   2   3    4.01    0.84 
  11  -2   3    0.11    0.69 
  11  -2   3    0.72    0.41 
  11   2   3   -0.50    0.78 
  11   2   3    0.07    0.54 
  11   2   3    0.05    0.50 
 -11   2  -3   -0.01    0.69 
  11   2   3   -0.69    0.50 
  12  -2   3    1.57    0.91 
  12  -2   3    0.52    0.78 
  12   2   3    1.32    0.69 
  12   2   3    2.56    1.06 
  12   2   3    0.70    0.77 
  12   2   3    0.52    0.66 
  12  -3  -3   27.68    2.39 
  12  -3  -3   22.76    1.44 
  12  -3  -3   22.15    1.34 
  12  -3  -3   22.50    1.94 
  12   3  -3   22.33    1.93 
  12   3  -3   26.58    1.69 
  12   3  -3   23.69    1.39 
  12   3  -3   22.34    1.50 
  12   3  -3   22.66    1.84 
  12   3  -3   24.16    1.81 
  11  -3  -3    2.20    0.63 
  11  -3  -3    3.83    1.08 
  11  -3  -3    3.72    0.76 
  11  -3  -3    1.77    0.90 
  11   3  -3    1.88    1.01 
  11   3  -3    2.16    0.62 
  11   3  -3    2.62    0.73 
  11   3  -3    1.52    0.89 
  11   3  -3    3.85    0.83 
  10  -3  -3    5.66    0.84 
  10  -3  -3    8.08    1.31 
  10  -3  -3    6.37    1.26 
 -10   3   3    7.20    1.04 
  10   3  -3    9.12    0.87 
  10   3  -3    7.62    1.04 
  10   3  -3    7.79    1.39 
  10   3  -3    6.02    0.77 
   9  -3  -3   31.09    2.06 
   9  -3  -3   34.38    2.04 
  -9  -3   3   30.31    1.97 
  -9  -3   3   30.32    1.81 
   9  -3  -3   31.36    1.47 
   9   3  -3   31.36    1.40 
   9   3  -3   30.54    1.60 
   9   3  -3   31.32    1.08 
   9   3  -3   31.10    2.01 
  -9   3   3   30.16    1.61 
   9   3  -3   30.21    1.34 
   9   3  -3   30.33    1.83 
  -9   3   3   31.80    1.72 
   8  -3  -3   38.07    2.16 
  -8  -3   3   37.28    1.58 
   8  -3  -3   39.09    1.86 
  -8  -3   3   40.72    1.98 
   8  -3  -3   38.38    2.11 
   8  -3  -3   40.21    1.64 
   8  -3  -3   41.21    2.27 
  -8  -3   3   41.37    2.16 
   8   3  -3   39.31    2.20 
   8   3  -3   39.74    1.77 
   8   3  -3   38.91    1.44 
  -8   3   3   35.80    2.06 
   8   3  -3   39.69    2.08 
  -8   3   3   39.90    1.95 
   8   3  -3   37.99    1.43 
   8   3  -3   38.60    1.48 
  -8   3   3   40.91    1.80 
  -7  -3   3    6.30    1.00 
   7  -3  -3    6.53    0.74 
   7  -3  -3    6.91    0.89 
   7  -3  -3    8.02    1.03 
   7  -3  -3    6.81    1.10 
  -7  -3   3    7.02    0.84 
  -7  -3   3    7.99    0.98 
   7  -3  -3    6.23    1.03 
  -7  -3   3    8.09    0.98 
   7   3  -3    5.91    0.93 
  -7   3   3    8.22    0.92 
   7   3  -3    5.94    0.85 
   7   3  -3    8.25    0.74 
  -7   3   3    6.83    0.92 
   7   3  -3    9.46    1.41 
   7   3  -3    7.61    0.59 
   7   3  -3    7.61    0.62 
   6  -3  -3   53.27    2.36 
   6  -3  -3   52.03    1.88 
  -6  -3   3   57.59    2.23 
  -6  -3   3   58.97    2.47 
   6  -3  -3   54.54    2.37 
  -6  -3   3   53.56    2.27 
   6  -3  -3   56.44    2.27 
  -6  -3   3   53.50    2.00 
   6   3  -3   54.19    2.05 
  -6   3   3   55.18    2.37 
   6   3  -3   54.61    2.33 
   6   3  -3   56.30    2.55 
   6   3  -3   54.39    1.94 
  -6   3   3   52.76    2.25 
  -6   3   3   52.67    2.00 
   5  -3  -3    3.97    0.82 
   5  -3  -3    3.36    0.58 
  -5  -3   3    2.56    0.68 
  -5  -3   3    2.50    0.62 
  -5  -3   3    3.81    0.71 
   5  -3  -3    4.28    0.79 
   5  -3  -3    3.35    0.75 
   5  -3  -3    4.34    0.45 
  -5  -3   3    3.98    0.72 
   5   3  -3    3.35    0.66 
  -5   3   3    3.62    0.44 
  -5   3   3    3.19    0.62 
   5   3  -3    3.92    0.68 
   5   3  -3    2.13    0.60 
  -5   3   3    2.80    0.71 
   5   3  -3    2.23    0.91 
  -5   3   3    4.15    0.82 
   4  -3  -3   39.60    1.32 
  -4  -3   3   43.40    1.76 
   4  -3  -3   42.39    1.57 
  -4  -3   3   41.74    1.89 
   4  -3  -3   43.54    1.90 
   4  -3  -3   40.19    1.87 
  -4  -3   3   43.13    1.91 
  -4  -3   3   43.98    1.77 
   4  -3  -3   41.27    1.81 
  -4   3   3   42.24    1.93 
  -4   3   3   39.67    1.81 
  -4   3   3   40.78    1.35 
   4   3  -3   39.17    1.81 
  -4   3   3   39.03    1.56 
   4   3  -3   42.38    2.12 
   4   3  -3   40.27    1.65 
   4   3  -3   41.21    1.71 
  -3  -3   3    9.46    0.99 
   3  -3  -3    9.97    0.85 
   3  -3  -3    9.10    0.63 
  -3  -3   3    9.89    0.91 
  -3  -3   3    7.38    0.83 
  -3  -3   3   10.20    0.86 
   3  -3  -3    9.72    0.94 
   3  -3  -3    8.67    0.87 
   3  -3  -3    9.23    0.75 
   3   3  -3    9.82    0.82 
  -3   3   3    9.75    0.73 
  -3   3   3    9.55    0.76 
   3   3  -3    9.65    0.88 
  -3   3   3    9.39    0.86 
   3   3  -3    9.08    1.07 
   3   3  -3    9.07    0.85 
  -3   3   3    9.91    0.99 
  -2  -3   3  135.55    3.77 
   2  -3  -3  138.18    3.64 
  -2  -3   3  137.69    3.83 
  -2  -3   3  124.84    3.81 
   2  -3  -3  136.16    4.00 
   2  -3  -3  137.58    3.48 
  -2  -3   3  136.35    4.09 
   2  -3  -3  139.81    3.65 
   2  -3  -3  134.11    3.87 
   2   3  -3  134.23    4.02 
  -2   3   3  113.31    3.67 
   2   3  -3  137.81    3.90 
   2   3  -3  133.74    3.80 
  -2   3   3  136.46    4.01 
  -2   3   3  138.32    3.66 
   2   3  -3  138.98    3.74 
  -2   3   3  139.38    3.54 
  -1  -3   3   10.26    0.84 
   1  -3  -3   11.21    0.98 
  -1  -3   3   12.21    1.00 
   1  -3  -3   11.77    0.73 
  -1  -3   3   12.59    1.17 
   1  -3  -3   10.95    0.84 
   1  -3  -3   11.10    0.79 
   1  -3  -3   12.09    0.92 
  -1  -3   3   11.46    0.90 
   1   3  -3   12.81    1.07 
  -1   3   3   12.18    1.02 
   1   3  -3   13.12    1.01 
  -1   3   3   12.28    0.83 
   1   3  -3   12.62    0.91 
  -1   3   3   11.72    0.88 
   1   3  -3   12.93    0.89 
  -1   3   3   12.80    0.89 
   0  -3   3    2.74    0.71 
   0  -3  -3    2.24    0.37 
   0  -3   3    2.08    0.65 
   0  -3  -3    2.26    0.60 
   0  -3  -3    2.15    0.55 
   0  -3  -3    2.42    0.61 
   0  -3   3    2.62    0.54 
   0  -3   3    2.55    0.39 
   0  -3   3    1.90    0.57 
   0  -3  -3    3.94    0.98 
   0  -3   3    2.61    0.41 
   0   3   3    2.76    0.56 
   0   3  -3    2.43    0.54 
   0   3   3    1.59    0.46 
   0   3  -3    2.70    0.64 
   0   3  -3    3.44    0.98 
   0   3   3    2.90    0.58 
   0   3  -3    2.23    0.59 
   0   3   3    2.86    0.63 
   1  -3   3   14.46    1.06 
  -1  -3  -3   12.02    0.97 
   1  -3   3   13.01    1.03 
  -1  -3  -3   13.03    1.15 
   1  -3   3   11.78    0.75 
  -1  -3  -3   12.21    0.91 
   1  -3   3   12.03    0.79 
   1  -3   3   12.61    0.76 
  -1  -3  -3   12.48    0.98 
   1  -3   3   13.13    1.03 
  -1   3  -3   12.83    0.80 
   1   3   3   12.44    0.92 
  -1   3  -3   12.23    1.00 
   1   3   3   13.01    0.96 
  -1   3  -3   12.47    0.98 
   1   3   3   11.13    0.90 
   1   3   3   12.56    0.99 
   2  -3   3  169.80    4.77 
  -2  -3  -3  171.62    4.73 
   2  -3   3  173.32    4.50 
   2  -3   3  174.71    4.80 
   2  -3   3  180.59    4.53 
  -2  -3  -3  169.38    4.77 
  -2  -3  -3  177.59    4.78 
   2  -3   3  177.63    4.83 
   2  -3   3  176.09    4.28 
   2   3   3  177.25    4.78 
  -2   3  -3  173.37    4.76 
   2   3   3  179.75    4.79 
   2   3   3  178.65    4.66 
   2   3   3  176.39    4.72 
  -2   3  -3  172.61    4.79 
  -2   3  -3  178.24    4.86 
  -2   3  -3  179.25    4.34 
   3  -3   3   26.43    1.47 
   3  -3   3   27.12    1.47 
   3  -3   3   26.00    1.29 
   3  -3   3   26.63    1.00 
  -3  -3  -3   23.84    1.41 
  -3  -3  -3   19.82    1.25 
   3  -3   3   26.76    1.42 
   3  -3   3   25.31    1.30 
  -3  -3  -3   25.54    1.28 
   3   3   3   24.16    1.38 
   3   3   3   27.77    1.47 
   3   3   3   24.23    1.38 
  -3   3  -3   26.36    1.10 
  -3   3  -3   24.08    1.42 
  -3   3  -3   26.13    1.44 
   3   3   3   27.41    1.32 
  -3   3  -3   25.18    1.42 
   4  -3   3   17.62    1.14 
   4  -3   3   17.08    1.25 
   4  -3   3   16.25    1.15 
  -4  -3  -3   16.76    1.24 
   4  -3   3   14.64    1.08 
  -4  -3  -3   16.23    1.00 
  -4  -3  -3   17.93    1.12 
   4  -3   3   17.63    0.74 
   4  -3   3   18.00    1.26 
   4   3   3   15.83    1.18 
   4   3   3   15.76    1.21 
   4   3   3   18.03    1.31 
   4   3   3   16.78    1.02 
  -4   3  -3   17.38    1.25 
  -4   3  -3   16.91    1.20 
  -4   3  -3   17.86    1.29 
  -4   3  -3   18.01    0.79 
   5  -3   3    1.92    0.69 
   5  -3   3    1.34    0.56 
  -5  -3  -3    2.09    0.71 
  -5  -3  -3    1.70    0.55 
  -5  -3  -3    1.19    0.44 
   5  -3   3    2.23    0.71 
   5  -3   3    1.88    0.61 
   5  -3   3    1.00    0.48 
   5   3   3    1.55    0.37 
   5   3   3    1.27    0.63 
   5   3   3    1.27    0.55 
  -5   3  -3    1.48    0.63 
   5   3   3    1.83    0.48 
   5   3   3    0.72    0.61 
  -5   3  -3    1.24    0.65 
   5   3   3    1.41    0.59 
   5   3   3    1.48    0.31 
  -5   3  -3    1.30    0.50 
   6  -3   3   51.45    2.11 
  -6  -3  -3   52.34    1.75 
  -6  -3  -3   49.99    2.04 
   6  -3   3   55.54    2.41 
   6  -3   3   49.85    2.25 
   6  -3   3   54.01    2.33 
  -6  -3  -3   52.28    2.39 
   6  -3   3   49.95    2.32 
   6   3   3   51.95    2.33 
   6   3   3   51.94    1.74 
  -6   3  -3   51.48    2.13 
  -6   3  -3   53.46    2.46 
   6   3   3   51.10    1.62 
  -6   3  -3   50.21    2.33 
   6   3   3   52.99    2.25 
   6   3   3   51.83    2.30 
   6   3   3   49.96    1.74 
   6   3   3   51.12    2.32 
   7  -3   3   18.34    1.51 
   7  -3   3   21.58    1.56 
  -7  -3  -3   20.15    1.63 
  -7  -3  -3   23.47    1.36 
  -7  -3  -3   22.90    1.06 
  -7  -3  -3   22.81    0.98 
   7  -3   3   22.87    1.69 
   7  -3   3   20.38    1.32 
   7  -3   3   20.62    1.49 
  -7   3  -3   26.46    1.46 
   7   3   3   23.87    1.53 
   7   3   3   22.01    1.18 
  -7   3  -3   27.71    1.86 
  -7   3  -3   21.06    1.59 
   7   3   3   25.11    1.12 
   7   3   3   24.04    1.58 
   7   3   3   21.92    1.59 
   7   3   3   22.32    1.57 
   8  -3   3   25.43    1.82 
   8  -3   3   24.35    1.42 
  -8  -3  -3   25.16    1.50 
   8  -3   3   25.19    1.75 
   8  -3   3   24.39    1.70 
   8  -3   3   24.56    1.77 
   8   3   3   25.06    1.59 
   8   3   3   23.66    1.72 
  -8   3  -3   23.37    1.74 
   8   3   3   25.31    1.34 
  -8   3  -3   23.86    1.88 
   8   3   3   22.21    1.64 
   8   3   3   25.61    1.72 
   8   3   3   24.48    1.23 
  -8   3  -3   25.25    1.44 
   9  -3   3   23.64    1.80 
   9  -3   3   20.82    1.68 
   9   3   3   21.87    1.26 
   9   3   3   21.85    1.35 
   9   3   3   22.75    1.89 
  -9   3  -3   21.45    1.33 
   9   3   3   26.33    1.67 
   9   3   3   23.75    1.73 
  -9   3  -3   20.86    1.87 
  -9   3  -3   21.05    1.72 
  10  -3   3    9.69    1.46 
  10  -3   3   12.61    1.44 
  10   3   3   10.97    1.16 
  10   3   3   10.00    1.23 
  10   3   3   11.29    1.38 
  10   3   3   10.96    1.76 
 -10   3  -3   10.33    0.97 
  10   3   3    9.08    1.06 
 -10   3  -3   10.91    1.43 
  10   3   3   11.32    1.03 
  11  -3   3    7.02    1.35 
  11  -3   3    8.15    1.31 
 -11   3  -3    6.27    1.26 
  11   3   3    6.83    1.19 
  11   3   3    9.31    1.66 
  11   3   3    7.73    0.99 
  11   3   3    8.17    1.24 
  11   3   3    8.05    1.41 
 -11   3  -3    6.67    0.90 
  12  -3   3    7.41    1.36 
 -12   3  -3    3.22    1.06 
  12   3   3    3.17    0.92 
  12   3   3    4.44    1.22 
  12   3   3    5.84    1.00 
  12   3   3    6.14    1.28 
  12   3   3    4.68    0.99 
 -12   3  -3    4.74    0.67 
  11  -4  -3    4.58    1.16 
  11  -4  -3    4.72    1.17 
  11  -4  -3    4.05    0.79 
  11   4  -3    4.77    1.14 
  11   4  -3    3.96    1.33 
  11   4  -3    5.13    0.70 
 -11   4   3    3.55    0.99 
  11   4  -3    4.22    0.71 
  10  -4  -3    0.74    0.54 
  10  -4  -3    1.58    0.83 
 -10  -4   3    1.17    0.75 
 -10   4   3    1.14    0.75 
 -10   4   3    1.23    0.76 
  10   4  -3    0.88    0.99 
  10   4  -3    1.51    0.73 
   9  -4  -3   21.13    1.76 
   9  -4  -3   15.34    1.56 
  -9  -4   3   19.61    1.58 
   9  -4  -3   16.06    1.17 
  -9  -4   3   17.84    1.12 
  -9   4   3   19.11    1.44 
   9   4  -3   16.75    1.83 
   9   4  -3   15.00    1.30 
  -9   4   3   18.13    1.47 
   9   4  -3   16.86    0.95 
   8  -4  -3    9.33    1.24 
  -8  -4   3    7.06    0.99 
   8  -4  -3    5.94    0.80 
  -8  -4   3    6.76    1.12 
  -8  -4   3    5.95    1.15 
  -8   4   3    6.87    1.02 
  -8   4   3    7.74    1.08 
   8   4  -3    7.55    1.03 
   8   4  -3    6.57    0.75 
   8   4  -3    6.38    1.41 
   7  -4  -3   -0.29    0.50 
   7  -4  -3    0.51    0.68 
  -7  -4   3    0.40    0.63 
   7  -4  -3    0.76    0.52 
  -7  -4   3   -0.25    0.44 
   7  -4  -3    0.08    0.58 
  -7  -4   3    0.26    0.50 
   7   4  -3    0.07    0.95 
  -7   4   3    0.63    0.59 
  -7   4   3    0.58    0.57 
  -7   4   3   -0.08    0.51 
   7   4  -3    0.54    0.59 
   7   4  -3    1.05    0.51 
  -6  -4   3    7.40    0.99 
   6  -4  -3    5.93    1.04 
   6  -4  -3    6.08    0.99 
  -6  -4   3    6.49    0.86 
   6  -4  -3    4.59    0.88 
  -6  -4   3    7.99    1.05 
  -6  -4   3    6.57    1.04 
   6  -4  -3    7.44    0.84 
   6   4  -3    6.80    0.86 
  -6   4   3    7.84    1.00 
   6   4  -3    6.24    1.25 
  -6   4   3    5.06    0.99 
  -6   4   3    8.80    0.95 
   6   4  -3    5.87    0.94 
   6   4  -3    6.91    1.15 
   5  -4  -3   62.51    2.59 
  -5  -4   3   62.79    2.48 
  -5  -4   3   62.26    2.49 
   5  -4  -3   60.66    2.59 
   5  -4  -3   64.13    2.27 
   5  -4  -3   59.28    2.48 
  -5  -4   3   60.96    2.60 
  -5  -4   3   63.17    2.37 
  -5   4   3   59.65    2.28 
   5   4  -3   62.82    2.39 
  -5   4   3   65.98    2.69 
   5   4  -3   61.67    2.33 
   5   4  -3   63.27    2.77 
   5   4  -3   58.92    2.50 
  -5   4   3   61.78    2.56 
   4  -4  -3   29.09    1.08 
   4  -4  -3   27.67    1.62 
   4  -4  -3   30.65    1.48 
  -4  -4   3   27.88    1.54 
  -4  -4   3   29.79    1.71 
   4  -4  -3   29.76    1.58 
  -4  -4   3   32.11    1.66 
  -4  -4   3   29.90    1.67 
   4  -4  -3   30.05    1.73 
   4   4  -3   30.12    1.57 
  -4   4   3   31.20    1.78 
  -4   4   3   26.44    1.58 
   4   4  -3   31.27    1.58 
  -4   4   3   30.78    1.62 
  -4   4   3   31.01    1.50 
   4   4  -3   28.30    1.75 
  -4   4   3   27.89    1.13 
   4   4  -3   28.62    1.61 
  -3  -4   3   12.50    1.15 
   3  -4  -3   12.16    0.99 
   3  -4  -3   12.80    1.00 
   3  -4  -3   15.42    0.81 
   3  -4  -3   11.48    1.12 
  -3  -4   3   12.36    1.08 
   3  -4  -3   12.40    1.10 
  -3  -4   3   12.31    1.09 
  -3   4   3   14.25    1.03 
  -3   4   3   11.74    1.02 
   3   4  -3   13.91    1.08 
   3   4  -3   12.71    1.07 
   3   4  -3   13.83    1.11 
  -3   4   3   12.40    1.00 
   3   4  -3   12.00    1.16 
  -3   4   3   13.03    0.86 
  -3   4   3   12.92    1.21 
  -2  -4   3  189.07    5.43 
   2  -4  -3  197.62    4.79 
   2  -4  -3  190.72    4.89 
  -2  -4   3  193.28    5.19 
   2  -4  -3  193.12    5.25 
   2  -4  -3  190.41    5.07 
  -2  -4   3  188.44    5.28 
   2  -4  -3  188.32    5.39 
  -2  -4   3  196.71    5.26 
  -2   4   3  191.01    4.76 
   2   4  -3  192.62    5.15 
  -2   4   3  194.04    5.09 
  -2   4   3  172.96    5.30 
  -2   4   3  186.85    4.89 
   2   4  -3  185.03    5.12 
   2   4  -3  194.59    5.33 
   2   4  -3  190.14    5.30 
  -2   4   3  186.56    5.10 
   1  -4  -3   70.79    2.48 
   1  -4  -3   69.92    2.68 
  -1  -4   3   70.73    2.44 
   1  -4  -3   68.43    2.15 
  -1  -4   3   70.30    2.63 
  -1  -4   3   67.49    2.53 
  -1  -4   3   70.24    2.74 
   1  -4  -3   71.40    2.28 
   1  -4  -3   72.23    2.52 
   1   4  -3   68.65    2.39 
  -1   4   3   70.59    2.48 
  -1   4   3   69.19    2.68 
  -1   4   3   69.73    2.27 
  -1   4   3   68.47    2.42 
  -1   4   3   66.30    2.12 
   1   4  -3   67.34    2.61 
   1   4  -3   70.49    2.58 
   1   4  -3   69.18    2.50 
   0  -4  -3   15.81    1.15 
   0  -4   3   15.99    1.23 
   0  -4   3   16.60    1.20 
   0  -4   3   17.91    1.07 
   0  -4   3   15.41    1.22 
   0  -4  -3   15.59    1.12 
   0  -4   3   16.08    0.80 
   0  -4  -3   15.62    0.80 
   0  -4  -3   16.74    1.26 
   0  -4   3   15.90    0.80 
   0   4  -3   15.26    1.01 
   0   4   3   16.59    1.06 
   0   4   3   15.25    1.21 
   0   4   3   15.64    1.12 
   0   4  -3   16.51    1.17 
   0   4  -3   15.83    1.18 
   0   4   3   16.02    0.78 
   0   4   3   16.44    1.05 
   0   4  -3   16.13    1.25 
   1  -4   3   73.25    2.23 
   1  -4   3   72.26    2.68 
   1  -4   3   72.05    2.22 
  -1  -4  -3   70.39    1.90 
  -1  -4  -3   74.66    2.64 
   1  -4   3   74.90    2.67 
  -1  -4  -3   75.17    2.65 
   1  -4   3   73.10    2.75 
  -1  -4  -3   73.93    2.69 
   1  -4   3   73.44    2.31 
  -1   4  -3   70.65    2.60 
  -1   4  -3   72.83    2.29 
   1   4   3   72.22    2.68 
  -1   4  -3   72.60    2.76 
  -1   4  -3   72.62    2.63 
   1   4   3   71.34    1.86 
   1   4   3   72.22    2.43 
   1   4   3   73.32    2.62 
   1   4   3   70.77    2.53 
   2  -4   3  234.08    6.28 
   2  -4   3  227.53    6.16 
  -2  -4  -3  227.14    6.15 
   2  -4   3  232.41    6.23 
   2  -4   3  233.08    5.79 
   2  -4   3  228.48    5.76 
  -2  -4  -3  227.54    6.13 
   2  -4   3  235.25    5.57 
   2   4   3  241.22    5.94 
  -2   4  -3  229.49    6.17 
   2   4   3  235.08    6.17 
  -2   4  -3  235.54    6.30 
   2   4   3  227.28    6.13 
   2   4   3  230.03    6.11 
  -2   4  -3  226.66    6.15 
  -2   4  -3  232.58    5.57 
   3  -4   3   13.36    1.01 
   3  -4   3   12.26    0.72 
   3  -4   3   12.11    0.94 
   3  -4   3   11.25    1.14 
  -3  -4  -3   11.90    1.16 
  -3  -4  -3   12.46    1.06 
   3  -4   3   12.82    1.14 
   3  -4   3   13.31    1.16 
  -3  -4  -3   13.47    1.06 
   3   4   3   12.11    0.97 
   3   4   3   14.12    1.09 
  -3   4  -3   11.85    1.13 
  -3   4  -3   12.03    0.80 
  -3   4  -3   12.03    1.16 
   3   4   3   11.75    1.07 
   3   4   3   12.75    1.10 
  -3   4  -3   11.69    1.11 
   3   4   3   12.09    1.07 
  -4  -4  -3   13.90    1.06 
   4  -4   3   14.37    1.27 
  -4  -4  -3   14.01    1.05 
   4  -4   3   13.58    1.20 
  -4  -4  -3   13.45    1.22 
   4  -4   3   12.46    1.05 
   4  -4   3   14.65    1.21 
   4  -4   3   12.73    1.09 
  -4   4  -3   13.15    1.19 
   4   4   3   12.62    1.12 
  -4   4  -3   17.18    1.30 
   4   4   3   12.10    1.17 
  -4   4  -3   14.16    1.24 
   4   4   3    9.93    0.98 
   4   4   3   13.44    1.07 
   4   4   3   12.34    1.15 
   5  -4   3   69.06    2.80 
   5  -4   3   65.01    2.57 
  -5  -4  -3   67.64    2.38 
  -5  -4  -3   64.03    2.69 
   5  -4   3   66.51    2.58 
   5  -4   3   68.84    2.78 
  -5  -4  -3   64.98    2.34 
   5  -4   3   61.81    2.59 
   5   4   3   65.73    2.36 
  -5   4  -3   63.92    2.73 
  -5   4  -3   69.42    2.71 
   5   4   3   67.42    2.74 
   5   4   3   59.78    2.42 
   5   4   3   65.34    2.71 
  -5   4  -3   62.83    2.69 
   6  -4   3   19.76    1.42 
   6  -4   3   19.58    1.56 
  -6  -4  -3   20.35    1.24 
   6  -4   3   18.77    1.38 
  -6  -4  -3   20.93    1.62 
   6  -4   3   22.53    1.55 
  -6  -4  -3   20.60    1.17 
   6  -4   3   19.62    1.54 
   6   4   3   20.30    0.90 
  -6   4  -3   20.49    1.61 
   6   4   3   19.67    1.46 
   6   4   3   19.16    1.17 
   6   4   3   18.40    1.49 
   6   4   3   17.78    1.44 
   6   4   3   19.20    1.49 
  -6   4  -3   19.61    1.54 
  -6   4  -3   20.23    1.48 
   6   4   3   18.48    0.77 
   7  -4   3    1.78    0.71 
   7  -4   3    1.43    0.70 
  -7  -4  -3    2.77    0.59 
   7  -4   3    2.66    0.94 
  -7  -4  -3    1.61    0.89 
  -7  -4  -3    2.41    0.67 
   7  -4   3    1.44    0.57 
   7   4   3    2.15    0.80 
   7   4   3    2.31    0.99 
   7   4   3    2.05    0.66 
   7   4   3    1.18    0.63 
  -7   4  -3    2.17    0.81 
  -7   4  -3    2.10    0.77 
   7   4   3    1.82    0.42 
   7   4   3    1.56    0.80 
  -7   4  -3    1.18    0.90 
  -8  -4  -3    3.63    0.73 
   8  -4   3    3.58    0.97 
  -8  -4  -3    3.22    0.54 
  -8  -4  -3    3.98    1.04 
  -8  -4  -3    5.85    0.68 
   8  -4   3    2.63    0.87 
   8   4   3    3.64    1.02 
   8   4   3    3.00    0.71 
   8   4   3    4.30    0.62 
  -8   4  -3    4.32    0.93 
   8   4   3    3.88    1.11 
  -8   4  -3    5.80    1.28 
  -8   4  -3    3.10    0.90 
   9  -4   3   54.88    2.70 
   9  -4   3   59.09    2.80 
  -9   4  -3   51.99    2.33 
  -9   4  -3   51.88    2.75 
   9   4   3   56.48    2.76 
   9   4   3   55.91    2.60 
   9   4   3   52.27    2.11 
   9   4   3   53.84    1.93 
  10  -4   3    0.28    0.82 
  10  -4   3   -0.08    0.68 
 -10   4  -3    1.07    0.84 
  10   4   3    1.03    0.68 
  10   4   3    0.38    0.87 
  10   4   3    1.36    0.53 
  10   4   3    0.41    0.80 
  10   4   3    1.46    0.67 
  11  -4   3    1.39    0.95 
  11  -4   3    0.71    0.81 
 -11   4  -3    1.04    0.62 
 -11   4  -3    0.85    0.90 
  11   4   3    2.36    1.09 
  11   4   3    1.98    0.67 
  11   4   3    0.24    0.74 
  11   4   3    0.67    0.70 
  11   4   3    2.36    0.73 
  11  -5  -3    2.97    0.77 
  11   5  -3    3.26    1.24 
  10  -5  -3    3.53    0.88 
 -10  -5   3    5.79    1.26 
 -10  -5   3    3.65    0.73 
  10  -5  -3    4.80    1.15 
 -10   5   3    5.31    1.16 
  10   5  -3    6.45    1.39 
 -10   5   3    4.01    1.00 
   9  -5  -3    9.85    1.31 
  -9  -5   3    7.19    1.02 
   9  -5  -3    8.42    1.02 
  -9  -5   3   10.98    1.38 
   9  -5  -3   10.48    1.68 
   9   5  -3    9.24    1.56 
  -9   5   3   10.17    1.30 
  -9   5   3    8.99    1.28 
   9   5  -3    7.81    0.84 
   8  -5  -3   13.68    1.45 
  -8  -5   3   15.14    1.35 
  -8  -5   3   15.65    1.51 
  -8  -5   3   16.49    1.22 
   8  -5  -3   16.16    1.26 
  -8   5   3   15.09    1.47 
   8   5  -3   11.35    1.50 
   8   5  -3   13.70    1.33 
  -8   5   3   14.96    1.38 
   8   5  -3   16.28    1.17 
  -7  -5   3    6.47    1.19 
  -7  -5   3    6.41    1.06 
   7  -5  -3    8.13    1.01 
  -7  -5   3    6.48    0.91 
  -7  -5   3    6.90    1.18 
   7  -5  -3    4.05    0.96 
   7   5  -3    6.53    0.98 
   7   5  -3    5.45    1.22 
  -7   5   3    6.42    1.06 
  -7   5   3    7.55    1.22 
   7   5  -3    6.72    1.08 
  -6  -5   3   23.14    1.47 
  -6  -5   3   23.56    1.55 
   6  -5  -3   22.60    1.43 
   6  -5  -3   21.08    1.64 
  -6  -5   3   26.58    1.72 
   6  -5  -3   21.76    1.62 
   6  -5  -3   20.78    1.64 
  -6  -5   3   22.93    1.68 
  -6   5   3   23.20    1.74 
  -6   5   3   23.94    1.54 
   6   5  -3   23.92    1.48 
   6   5  -3   22.01    1.67 
   6   5  -3   21.77    1.50 
  -6   5   3   22.37    2.08 
  -5  -5   3    1.41    0.72 
   5  -5  -3    0.94    0.63 
   5  -5  -3    0.49    0.53 
   5  -5  -3    0.88    0.62 
   5  -5  -3    0.98    0.58 
  -5  -5   3    1.12    0.58 
  -5  -5   3    0.66    0.68 
   5   5  -3    0.77    0.62 
  -5   5   3    1.74    0.77 
   5   5  -3    0.87    0.58 
  -5   5   3    0.48    0.55 
   5   5  -3    0.83    0.70 
   5   5  -3    0.66    0.59 
  -5   5   3    1.29    0.68 
  -5   5   3    1.48    0.68 
   4  -5  -3   13.46    1.32 
  -4  -5   3   12.05    1.14 
   4  -5  -3   13.25    1.14 
  -4  -5   3   16.36    1.34 
  -4  -5   3   11.70    1.19 
  -4  -5   3   10.09    1.16 
   4  -5  -3   11.65    1.24 
   4  -5  -3   12.53    1.13 
   4   5  -3   11.95    1.26 
  -4   5   3   11.47    1.30 
  -4   5   3   13.10    0.72 
  -4   5   3   12.13    1.17 
   4   5  -3   10.65    1.11 
  -4   5   3   16.17    1.24 
   4   5  -3   11.23    1.15 
   4   5  -3   12.56    1.17 
  -4   5   3   11.64    1.10 
  -3  -5   3    2.38    0.67 
  -3  -5   3    3.94    0.86 
   3  -5  -3    4.83    0.98 
   3  -5  -3    3.65    0.95 
  -3  -5   3    2.96    0.86 
   3  -5  -3    4.94    0.86 
   3  -5  -3    4.65    0.88 
  -3  -5   3    4.36    0.88 
   3   5  -3    4.07    0.84 
  -3   5   3    3.12    0.70 
   3   5  -3    3.29    0.84 
  -3   5   3    3.01    0.51 
  -3   5   3    3.62    0.74 
  -3   5   3    2.50    0.77 
   3   5  -3    2.94    0.76 
   3   5  -3    2.74    0.76 
  -3   5   3    5.26    0.94 
  -3   5   3    4.30    0.64 
  -2  -5   3   39.33    1.93 
   2  -5  -3   36.14    2.04 
   2  -5  -3   40.98    1.95 
   2  -5  -3   41.23    1.97 
  -2  -5   3   37.98    2.02 
  -2  -5   3   41.83    2.24 
  -2  -5   3   41.15    2.04 
   2  -5  -3   40.04    1.72 
  -2   5   3   40.77    1.71 
  -2   5   3   39.22    1.89 
   2   5  -3   40.48    1.96 
   2   5  -3   38.13    1.94 
   2   5  -3   39.76    1.87 
  -2   5   3   39.19    1.57 
  -2   5   3   38.40    1.59 
   2   5  -3   42.34    2.10 
  -2   5   3   39.93    1.87 
  -2   5   3   41.51    2.17 
  -1  -5   3    0.59    0.63 
  -1  -5   3    0.61    0.48 
  -1  -5   3    0.86    0.30 
   1  -5  -3    1.37    0.49 
  -1  -5   3    0.66    0.61 
  -1  -5   3    0.51    0.72 
   1  -5  -3    0.68    0.63 
   1  -5  -3    0.93    0.58 
   1  -5  -3    0.56    0.60 
  -1   5   3    0.76    0.46 
  -1   5   3    0.51    0.50 
   1   5  -3    1.19    0.53 
   1   5  -3    1.78    0.69 
   1   5  -3    1.74    0.75 
  -1   5   3    0.98    0.53 
  -1   5   3    0.67    0.43 
  -1   5   3    0.98    0.45 
  -1   5   3    2.37    0.68 
   1   5  -3    0.97    0.62 
   0  -5  -3    2.89    0.80 
   0  -5   3    3.73    0.53 
   0  -5  -3    3.65    0.61 
   0  -5   3    2.97    0.71 
   0  -5  -3    4.27    0.84 
   0  -5   3    1.78    0.71 
   0  -5   3    3.67    0.82 
   0  -5   3    2.96    0.50 
   0  -5   3    4.23    0.81 
   0  -5  -3    3.14    0.82 
   0   5  -3    3.88    0.91 
   0   5   3    3.40    0.79 
   0   5   3    2.73    0.61 
   0   5   3    2.89    0.52 
   0   5  -3    4.62    0.92 
   0   5  -3    4.46    1.02 
   0   5  -3    2.88    0.64 
   0   5   3    3.52    0.72 
   0   5   3    2.89    0.68 
   0   5   3    1.86    0.63 
   1  -5   3    1.16    0.52 
   1  -5   3    1.45    0.47 
  -1  -5  -3    0.99    0.41 
  -1  -5  -3    1.55    0.76 
  -1  -5  -3    0.49    0.56 
   1  -5   3    0.85    0.44 
   1  -5   3    1.10    0.61 
   1  -5   3    1.10    0.60 
   1  -5   3    1.17    0.70 
  -1  -5  -3    0.51    0.60 
  -1   5  -3    1.27    0.49 
   1   5   3    1.50    0.69 
  -1   5  -3    2.11    0.82 
   1   5   3    1.78    0.36 
   1   5   3    1.12    0.63 
   1   5   3    1.20    0.68 
   1   5   3    1.02    0.50 
  -1   5  -3    1.06    0.67 
   1   5   3    1.29    0.54 
  -1   5  -3    0.76    0.57 
   2  -5   3   65.15    2.81 
   2  -5   3   68.53    2.77 
   2  -5   3   71.81    2.41 
   2  -5   3   70.77    2.85 
  -2  -5  -3   72.39    2.85 
  -2  -5  -3   72.24    2.76 
  -2  -5  -3   70.10    2.79 
   2  -5   3   70.05    2.39 
   2   5   3   71.91    2.46 
  -2   5  -3   72.44    2.77 
  -2   5  -3   71.26    2.26 
   2   5   3   70.78    2.68 
   2   5   3   71.20    2.73 
   2   5   3   72.43    2.81 
  -2   5  -3   70.15    2.81 
   2   5   3   68.98    2.78 
  -2   5  -3   66.91    2.87 
   3  -5   3    9.88    1.18 
   3  -5   3   11.05    1.20 
   3  -5   3   10.28    0.93 
   3  -5   3    9.80    1.18 
   3  -5   3   13.23    1.05 
   3  -5   3   10.71    0.75 
  -3  -5  -3    9.20    1.04 
   3   5   3    8.79    1.08 
   3   5   3   11.20    1.10 
  -3   5  -3    9.12    1.12 
   3   5   3    8.48    1.06 
  -3   5  -3    9.53    1.11 
  -3   5  -3    8.03    0.74 
  -3   5  -3   11.04    1.25 
   3   5   3   13.19    1.01 
   4  -5   3    6.67    1.05 
  -4  -5  -3    6.98    0.94 
   4  -5   3    5.89    1.11 
  -4  -5  -3    5.26    1.02 
   4  -5   3    7.16    1.15 
   4  -5   3    8.39    1.28 
   4  -5   3    6.45    0.86 
   4   5   3    6.21    0.98 
  -4   5  -3    7.15    1.19 
  -4   5  -3    7.12    1.15 
  -4   5  -3    5.28    1.00 
   4   5   3    5.56    0.99 
   4   5   3    6.49    1.15 
   4   5   3    6.97    0.95 
   4   5   3    6.64    0.84 
  -5  -5  -3    1.75    0.61 
   5  -5   3    0.66    0.71 
   5  -5   3    1.73    0.81 
   5  -5   3    2.41    0.71 
  -5  -5  -3    0.84    0.56 
   5  -5   3    2.70    0.74 
  -5  -5  -3    2.31    0.87 
   5  -5   3    1.30    0.77 
   5   5   3    1.88    0.82 
  -5   5  -3    1.68    0.82 
  -5   5  -3    2.26    0.89 
   5   5   3    1.64    0.80 
   5   5   3    1.86    0.64 
   5   5   3    1.04    0.65 
   5   5   3    2.37    0.70 
  -5   5  -3    2.65    0.82 
  -6  -5  -3   32.24    1.65 
   6  -5   3   30.70    1.91 
   6  -5   3   32.96    1.90 
  -6  -5  -3   32.16    2.05 
   6  -5   3   32.62    1.88 
  -6  -5  -3   35.03    1.62 
   6  -5   3   31.49    2.01 
  -6   5  -3   33.70    2.01 
  -6   5  -3   32.85    2.07 
   6   5   3   31.97    1.66 
  -6   5  -3   32.11    2.02 
   6   5   3   29.54    1.62 
   6   5   3   31.97    2.00 
  -7  -5  -3   18.25    1.21 
  -7  -5  -3   16.56    1.17 
   7  -5   3   18.61    1.64 
  -7  -5  -3   15.90    1.65 
   7  -5   3   18.61    1.54 
   7   5   3   18.92    1.60 
  -7   5  -3   17.07    1.52 
   7   5   3   15.57    1.15 
   7   5   3   17.63    1.31 
  -7   5  -3   17.42    1.61 
  -8  -5  -3   20.23    1.29 
   8  -5   3   19.61    1.66 
  -8  -5  -3   20.01    1.81 
   8  -5   3   21.55    1.75 
  -8  -5  -3   18.87    1.15 
   8   5   3   20.17    1.18 
  -8   5  -3   21.50    1.62 
   8   5   3   21.78    1.76 
   8   5   3   19.04    1.44 
  -8   5  -3   19.04    1.74 
   9  -5   3    8.79    1.40 
  -9  -5  -3    7.15    0.74 
  -9  -5  -3    6.68    1.42 
  -9  -5  -3    6.76    0.67 
   9  -5   3    7.38    1.36 
   9   5   3   10.66    1.36 
   9   5   3    8.48    0.67 
   9   5   3    5.80    1.24 
  -9   5  -3    7.49    1.25 
  -9   5  -3    8.40    1.48 
  10  -5   3    5.50    1.23 
  10  -5   3    5.24    1.24 
 -10   5  -3    5.69    1.13 
 -10   5  -3    4.32    1.27 
  10   5   3    5.10    1.22 
  10   5   3    3.94    0.88 
  10   5   3    5.64    0.67 
  10   5   3    5.68    0.84 
  10   5   3    7.72    1.31 
  11  -5   3    2.15    1.12 
  11   5   3    4.63    0.96 
  11   5   3    4.43    0.94 
   9  -6  -3    5.45    1.03 
   9  -6  -3    7.25    1.49 
  -9  -6   3    6.95    1.37 
  -9  -6   3    7.24    1.08 
  -9   6   3    6.91    1.34 
   9   6  -3    8.83    1.43 
  -8  -6   3    0.35    0.61 
  -8  -6   3    0.16    0.78 
   8  -6  -3    3.17    0.98 
  -8  -6   3    0.59    0.64 
   8  -6  -3   -0.47    0.61 
   8   6  -3    0.45    0.77 
  -8   6   3    0.20    0.67 
  -8   6   3    0.64    0.84 
   8   6  -3    0.60    0.57 
   7  -6  -3    5.36    1.03 
   7  -6  -3    6.51    1.16 
  -7  -6   3    6.15    1.23 
  -7  -6   3    7.78    1.19 
  -7  -6   3    6.89    1.13 
  -7   6   3    8.43    1.28 
   7   6  -3    6.78    1.11 
  -7   6   3    6.98    1.41 
   7   6  -3    7.17    1.32 
   6  -6  -3    3.09    1.04 
  -6  -6   3    3.20    0.87 
  -6  -6   3    3.33    1.02 
  -6  -6   3    2.64    0.87 
   6  -6  -3    2.22    0.83 
   6   6  -3    2.89    0.94 
  -6   6   3    4.20    0.99 
  -6   6   3    3.05    1.01 
   6   6  -3    3.76    0.88 
   5  -6  -3   73.46    2.88 
  -5  -6   3   65.86    2.79 
   5  -6  -3   69.93    3.11 
  -5  -6   3   70.81    3.01 
  -5  -6   3   67.93    2.79 
   5  -6  -3   65.67    2.91 
  -5  -6   3   70.46    3.09 
   5  -6  -3   67.27    2.74 
  -5   6   3   59.92    3.01 
  -5   6   3   59.23    2.69 
   5   6  -3   68.40    2.86 
   5   6  -3   67.07    2.80 
  -5   6   3   66.12    2.78 
   5   6  -3   67.11    3.69 
  -4  -6   3    9.75    1.17 
   4  -6  -3    9.09    1.20 
  -4  -6   3   10.28    1.20 
   4  -6  -3   11.53    1.18 
   4  -6  -3   10.59    1.37 
   4  -6  -3   10.62    1.19 
  -4  -6   3   10.22    1.26 
  -4   6   3    8.37    1.14 
  -4   6   3   10.14    1.39 
  -4   6   3   10.11    1.11 
   4   6  -3   11.43    1.28 
   4   6  -3   10.04    1.17 
   4   6  -3   11.07    1.25 
  -4   6   3   10.38    1.38 
   4   6  -3   10.69    1.19 
   3  -6  -3   40.19    2.07 
   3  -6  -3   45.97    2.40 
   3  -6  -3   43.53    2.14 
  -3  -6   3   40.16    2.18 
  -3  -6   3   37.42    2.11 
  -3  -6   3   38.43    2.08 
   3  -6  -3   39.02    1.91 
  -3  -6   3   38.94    2.19 
  -3   6   3   39.73    1.61 
  -3   6   3   38.51    2.29 
  -3   6   3   38.59    2.08 
  -3   6   3   38.62    2.01 
   3   6  -3   44.73    2.13 
  -3   6   3   40.57    1.54 
   3   6  -3   40.94    2.20 
   3   6  -3   39.70    2.05 
   3   6  -3   39.53    2.14 
  -3   6   3   40.02    1.90 
   2  -6  -3   16.06    1.39 
   2  -6  -3   15.67    1.35 
  -2  -6   3   13.83    1.39 
  -2  -6   3   16.05    1.64 
  -2  -6   3   16.18    1.31 
  -2  -6   3   16.23    1.47 
   2  -6  -3   16.42    1.18 
   2  -6  -3   15.96    1.53 
  -2   6   3   15.48    1.35 
  -2   6   3   17.26    1.16 
  -2   6   3   15.83    1.54 
   2   6  -3   16.44    1.50 
   2   6  -3   18.42    1.38 
   2   6  -3   16.16    1.29 
   2   6  -3   19.61    1.53 
  -2   6   3   18.62    1.34 
  -2   6   3   16.44    1.11 
  -2   6   3   17.81    1.09 
   1  -6  -3   68.32    2.69 
   1  -6  -3   66.83    2.34 
   1  -6  -3   68.29    2.83 
  -1  -6   3   70.12    2.66 
  -1  -6   3   66.38    3.02 
   1  -6  -3   66.66    2.98 
  -1  -6   3   67.27    2.94 
  -1  -6   3   58.90    2.77 
  -1   6   3   67.50    2.29 
  -1   6   3   59.82    2.69 
   1   6  -3   67.64    2.57 
  -1   6   3   71.25    3.06 
  -1   6   3   66.06    2.42 
  -1   6   3   65.23    2.57 
   1   6  -3   69.07    2.87 
   1   6  -3   71.42    3.01 
   1   6  -3   69.54    2.75 
  -1   6   3   68.19    2.46 
   0  -6  -3    0.86    0.71 
   0  -6   3    1.29    0.42 
   0  -6   3    1.00    0.62 
   0  -6   3    0.66    0.69 
   0  -6  -3    0.53    0.70 
   0  -6  -3    1.53    0.53 
   0  -6   3    0.67    0.61 
   0  -6   3    0.38    0.65 
   0  -6  -3    1.76    0.73 
   0  -6   3    0.99    0.43 
   0   6  -3    0.47    0.74 
   0   6   3    1.66    0.46 
   0   6   3    0.69    0.57 
   0   6  -3    1.44    0.71 
   0   6   3    1.51    0.61 
   0   6   3    0.49    0.62 
   0   6   3    1.00    0.57 
   0   6  -3    0.19    0.61 
   0   6   3    0.51    0.51 
   0   6  -3    1.21    0.57 
   1  -6   3   64.95    2.19 
   1  -6   3   64.63    2.80 
  -1  -6  -3   62.19    2.08 
  -1  -6  -3   63.66    2.69 
   1  -6   3   66.63    2.85 
   1  -6   3   66.64    2.38 
   1  -6   3   64.34    2.20 
   1  -6   3   62.92    2.86 
  -1  -6  -3   64.12    2.85 
  -1  -6  -3   55.93    2.68 
  -1   6  -3   66.63    2.96 
  -1   6  -3   65.21    2.68 
   1   6   3   64.14    2.87 
  -1   6  -3   64.38    2.79 
   1   6   3   70.11    2.64 
   1   6   3   60.07    2.34 
   1   6   3   66.93    2.63 
  -1   6  -3   63.43    2.30 
   1   6   3   61.27    2.73 
   1   6   3   63.18    1.91 
   2  -6   3   13.14    1.34 
  -2  -6  -3   14.33    1.34 
   2  -6   3   11.43    0.95 
  -2  -6  -3   11.97    1.32 
   2  -6   3   10.00    1.25 
  -2  -6  -3   11.63    1.29 
   2  -6   3   13.19    1.04 
   2  -6   3   11.29    1.31 
   2   6   3   12.84    1.31 
   2   6   3   11.22    1.00 
   2   6   3   13.32    1.20 
  -2   6  -3   13.68    1.37 
  -2   6  -3   11.55    0.92 
  -2   6  -3   11.85    1.40 
   2   6   3   11.65    1.21 
   2   6   3   12.86    1.32 
  -2   6  -3   13.24    1.31 
   3  -6   3   15.07    1.45 
   3  -6   3   14.57    1.45 
  -3  -6  -3   17.58    1.32 
   3  -6   3   15.72    1.19 
  -3  -6  -3   12.53    1.27 
   3  -6   3   14.25    1.14 
  -3  -6  -3   14.40    1.46 
   3  -6   3   17.63    1.55 
   3   6   3   16.85    1.41 
  -3   6  -3   12.73    1.32 
   3   6   3   15.65    1.36 
  -3   6  -3   15.93    0.98 
  -3   6  -3   15.21    1.47 
   3   6   3   14.89    1.44 
   3   6   3   17.32    1.46 
   3   6   3   16.38    1.11 
  -3   6  -3   15.57    1.59 
  -4  -6  -3    7.10    0.92 
  -4  -6  -3    6.96    1.31 
   4  -6   3    5.01    0.89 
   4  -6   3    5.73    1.23 
   4  -6   3    5.56    0.96 
  -4  -6  -3    3.62    0.84 
   4  -6   3    4.95    1.06 
   4  -6   3    3.97    0.95 
   4   6   3    5.67    1.10 
   4   6   3    4.19    0.95 
   4   6   3    6.09    0.86 
  -4   6  -3    5.23    1.19 
  -4   6  -3    4.97    1.06 
   4   6   3    4.10    0.98 
   5  -6   3   27.18    1.92 
  -5  -6  -3   27.44    1.71 
   5  -6   3   27.44    1.70 
  -5  -6  -3   27.30    1.96 
  -5  -6  -3   26.82    1.48 
   5  -6   3   27.55    1.94 
   5  -6   3   27.88    1.72 
   5   6   3   25.66    1.41 
   5   6   3   29.33    1.79 
  -5   6  -3   28.17    1.95 
  -5   6  -3   28.41    1.93 
   5   6   3   27.56    1.88 
  -6  -6  -3    1.34    0.55 
   6  -6   3    1.02    0.72 
  -6  -6  -3    0.33    0.72 
   6  -6   3    0.75    0.75 
  -6  -6  -3    1.00    0.61 
  -6   6  -3    0.23    0.71 
  -6   6  -3    0.98    0.75 
   6   6   3    0.67    0.56 
   6   6   3    0.64    0.60 
   6   6   3    0.89    0.67 
  -7  -6  -3    3.01    1.12 
  -7  -6  -3    4.41    0.79 
   7  -6   3    2.88    1.02 
   7  -6   3    2.34    0.83 
   7   6   3    2.76    0.79 
  -7   6  -3    4.00    1.08 
   7   6   3    2.79    0.97 
   7   6   3    3.54    0.84 
  -7   6  -3    3.76    1.08 
   8  -6   3    0.16    0.82 
  -8  -6  -3    0.90    0.58 
   8  -6   3   -0.27    0.65 
  -8  -6  -3    1.00    0.48 
  -8  -6  -3    0.28    0.78 
   8   6   3    0.22    0.71 
  -8   6  -3   -0.54    0.63 
  -8   6  -3    0.20    0.67 
   8   6   3    1.85    0.65 
   8   6   3    2.20    0.65 
  -9  -6  -3    9.07    0.90 
   9  -6   3    9.13    1.46 
   9  -6   3    5.41    1.25 
  -9  -6  -3    8.55    1.59 
  -9   6  -3    6.12    1.28 
   9   6   3    7.60    1.48 
   9   6   3    8.89    0.94 
  -9   6  -3    7.13    1.29 
   9   6   3    5.55    0.96 
  -8  -7   3    7.13    1.17 
   8  -7  -3    2.66    1.06 
  -8  -7   3    5.38    1.24 
   8  -7  -3    7.16    1.22 
  -8   7   3    5.07    1.34 
   8   7  -3    7.62    1.26 
  -7  -7   3    1.26    0.85 
  -7  -7   3    2.85    1.05 
   7  -7  -3    4.34    1.03 
  -7  -7   3    3.15    0.94 
   7  -7  -3    1.71    1.01 
   7   7  -3    3.92    0.96 
   7   7  -3    1.71    0.86 
  -7   7   3    1.25    1.00 
  -6  -7   3   11.48    1.26 
   6  -7  -3   10.88    1.30 
  -6  -7   3   10.42    1.25 
   6  -7  -3   10.13    1.39 
  -6  -7   3   11.20    1.59 
   6   7  -3   11.32    1.27 
  -6   7   3   13.02    1.61 
   6   7  -3   12.55    1.41 
  -5  -7   3    1.18    0.87 
   5  -7  -3    2.96    0.92 
   5  -7  -3    0.86    0.65 
  -5  -7   3    1.88    0.84 
  -5  -7   3    1.42    0.75 
  -5   7   3    3.00    0.85 
   5   7  -3    2.67    0.88 
   5   7  -3    2.45    0.95 
  -5   7   3    2.26    1.03 
  -4  -7   3    4.26    1.08 
   4  -7  -3    5.30    1.12 
   4  -7  -3    5.48    1.07 
  -4  -7   3    5.57    1.22 
   4  -7  -3    6.38    1.08 
   4  -7  -3    6.37    1.18 
   4   7  -3    6.24    1.09 
  -4   7   3    4.45    1.15 
   4   7  -3    6.81    1.22 
  -4   7   3    5.41    1.02 
   3  -7  -3    0.96    0.71 
   3  -7  -3    1.94    0.81 
  -3  -7   3    1.67    0.81 
   3  -7  -3    2.70    0.77 
  -3  -7   3    0.48    0.78 
  -3  -7   3    2.58    0.87 
   3  -7  -3    1.53    0.98 
  -3   7   3    1.16    0.65 
  -3   7   3    1.14    0.55 
  -3   7   3    1.37    0.45 
   3   7  -3    1.04    0.66 
  -3   7   3    0.50    0.78 
   3   7  -3    1.76    0.89 
  -2  -7   3   21.02    1.73 
   2  -7  -3   19.28    1.77 
   2  -7  -3   22.13    1.59 
   2  -7  -3   18.92    1.35 
  -2  -7   3   21.66    1.78 
  -2  -7   3   27.09    1.90 
   2  -7  -3   21.41    1.67 
   2   7  -3   19.08    1.45 
  -2   7   3   19.78    1.21 
   2   7  -3   18.90    1.46 
  -2   7   3   24.65    1.58 
  -2   7   3   18.70    1.24 
  -2   7   3   19.17    1.78 
  -2   7   3   18.02    1.28 
   2   7  -3   20.72    1.77 
  -1  -7   3    0.87    0.96 
  -1  -7   3   -0.04    0.65 
   1  -7  -3    0.91    0.70 
   1  -7  -3    0.16    0.78 
   1  -7  -3    2.29    0.65 
  -1  -7   3    0.34    0.74 
   1   7  -3    1.02    0.65 
   1   7  -3    0.80    0.63 
  -1   7   3    0.96    0.55 
  -1   7   3    0.61    0.53 
  -1   7   3    1.19    0.52 
   1   7  -3    1.34    0.79 
  -1   7   3    1.26    0.92 
  -1   7   3    1.22    0.63 
   0  -7  -3    0.85    0.80 
   0  -7   3    0.66    0.64 
   0  -7   3    1.33    0.83 
   0  -7  -3    0.82    0.54 
   0  -7  -3    1.05    0.77 
   0  -7   3    1.15    0.50 
   0  -7  -3    3.55    0.98 
   0  -7   3    3.95    1.17 
   0   7   3    1.40    0.66 
   0   7   3    1.33    0.59 
   0   7  -3    1.57    0.62 
   0   7   3    1.66    0.52 
   0   7   3    0.63    0.82 
   0   7  -3    1.21    0.88 
   0   7   3    0.44    0.53 
   0   7  -3    0.04    0.58 
  -1  -7  -3    4.04    1.13 
   1  -7   3    3.40    0.69 
   1  -7   3    2.08    0.96 
   1  -7   3    1.68    0.85 
  -1  -7  -3    2.86    0.96 
  -1  -7  -3    4.08    1.05 
   1  -7   3    1.67    0.88 
   1  -7   3    3.38    0.72 
  -1  -7  -3    4.24    0.70 
  -1   7  -3    3.29    0.74 
  -1   7  -3    4.42    0.96 
   1   7   3    4.04    1.08 
  -1   7  -3    3.50    1.14 
   1   7   3    5.07    0.66 
   1   7   3    3.12    0.86 
   1   7   3    4.30    0.89 
   1   7   3    2.89    0.75 
  -2  -7  -3   29.11    2.03 
  -2  -7  -3   27.91    1.80 
   2  -7   3   30.79    2.13 
   2  -7   3   29.03    1.56 
   2  -7   3   29.85    1.52 
   2  -7   3   27.07    1.98 
  -2  -7  -3   29.08    1.97 
   2  -7   3   28.21    2.58 
   2   7   3   27.09    1.50 
   2   7   3   28.18    1.98 
   2   7   3   28.90    1.78 
  -2   7  -3   28.04    1.42 
  -2   7  -3   27.42    1.43 
  -2   7  -3   26.52    2.05 
   2   7   3   28.51    1.82 
  -2   7  -3   28.02    1.86 
   3  -7   3    2.40    0.78 
  -3  -7  -3    2.04    0.84 
   3  -7   3    2.21    1.04 
   3  -7   3    2.12    0.91 
  -3  -7  -3    2.45    0.79 
  -3  -7  -3    1.19    0.85 
   3  -7   3    1.95    0.65 
   3   7   3    2.61    0.67 
  -3   7  -3    2.04    0.58 
   3   7   3    1.37    0.86 
  -3   7  -3    2.75    0.57 
  -3   7  -3    1.73    0.84 
  -3   7  -3    2.26    0.99 
   3   7   3    1.32    0.77 
  -4  -7  -3    1.79    0.70 
   4  -7   3    1.24    0.71 
   4  -7   3    2.86    0.97 
  -4  -7  -3    0.78    0.79 
   4  -7   3    1.65    0.84 
   4  -7   3    1.35    0.70 
  -4   7  -3    3.81    0.98 
   4   7   3    1.70    0.79 
  -4   7  -3    3.04    1.01 
   4   7   3    2.87    0.64 
   4   7   3    1.41    0.78 
  -5  -7  -3    0.26    0.58 
  -5  -7  -3    0.01    0.79 
  -5  -7  -3    0.91    0.53 
   5  -7   3    1.68    0.60 
   5  -7   3    0.67    0.77 
   5   7   3    0.33    0.76 
   5   7   3    0.21    0.72 
  -5   7  -3    1.05    0.87 
   5   7   3    0.34    0.48 
  -5   7  -3    0.75    0.77 
  -6  -7  -3   13.15    1.32 
   6  -7   3   12.32    1.56 
  -6  -7  -3   12.59    1.02 
  -6  -7  -3   11.97    1.73 
   6  -7   3   10.82    1.34 
   6   7   3   15.40    1.42 
  -6   7  -3   11.76    1.56 
   6   7   3   12.61    1.51 
  -6   7  -3   14.44    1.59 
   6   7   3   13.77    1.04 
  -7  -7  -3    5.94    0.79 
  -7  -7  -3    3.49    1.14 
  -7  -7  -3    5.48    1.06 
   7  -7   3    4.79    1.16 
   7  -7   3    5.28    1.20 
   7   7   3    5.76    0.90 
   7   7   3    3.50    1.04 
   7   7   3    4.04    1.04 
  -7   7  -3    6.32    1.35 
  -7   7  -3    4.10    1.12 
  -8  -7  -3    5.35    1.00 
   8  -7   3    3.72    1.04 
   8  -7   3    4.05    1.22 
  -8  -7  -3    3.87    0.72 
   6  -8  -3    0.98    0.88 
  -6  -8   3    2.08    1.00 
   6  -8  -3    0.65    0.79 
   6   8  -3    0.91    0.74 
  -6   8   3    0.05    0.95 
  -5  -8   3    8.56    1.49 
   5  -8  -3    8.31    1.41 
   5   8  -3   11.85    1.47 
   5   8  -3    9.73    1.34 
  -5   8   3    8.46    1.59 
   4  -8  -3    7.22    1.38 
   4  -8  -3    4.87    1.20 
  -4   8   3    6.46    1.14 
   4   8  -3    6.25    1.33 
   4   8  -3    5.41    1.25 
   4   8  -3    6.56    1.09 
   3  -8  -3    2.47    0.85 
   3  -8  -3    2.37    0.91 
   3  -8  -3    2.65    1.07 
  -3  -8   3    1.68    0.86 
   3  -8  -3    4.31    1.11 
  -3  -8   3    1.67    0.94 
  -3   8   3    4.46    0.76 
   3   8  -3    0.97    0.70 
   3   8  -3    2.34    0.82 
  -3   8   3    2.22    0.77 
  -3   8   3    2.29    0.58 
   3   8  -3    3.45    1.11 
  -3   8   3    1.71    1.06 
   2  -8  -3   21.38    2.03 
  -2  -8   3   31.38    2.17 
   2  -8  -3   22.25    1.57 
   2  -8  -3   25.71    1.79 
  -2  -8   3   24.11    1.99 
   2  -8  -3   23.58    1.87 
   2   8  -3   23.75    1.99 
   2   8  -3   24.18    1.74 
   2   8  -3   23.21    1.68 
  -2   8   3   25.31    1.51 
  -2   8   3   23.65    1.38 
  -2   8   3   23.52    1.43 
  -2   8   3   24.82    2.11 
   1  -8  -3    9.65    1.10 
  -1  -8   3   11.19    1.71 
  -1  -8   3   10.76    1.72 
   1  -8  -3    9.24    1.49 
   1  -8  -3   10.03    1.46 
   1  -8  -3   11.78    1.79 
  -1   8   3    8.31    0.93 
  -1   8   3    8.64    1.04 
   1   8  -3    9.08    1.15 
   1   8  -3    8.88    1.36 
  -1   8   3   13.69    1.99 
   1   8  -3   12.55    1.92 
  -1   8   3    8.48    1.16 
   0  -8  -3    3.70    1.07 
   0  -8   3    3.55    1.05 
   0  -8  -3    3.73    0.83 
   0  -8  -3    1.50    0.93 
   0  -8   3    2.74    0.83 
   0  -8   3    2.49    0.62 
   0  -8   3    2.00    0.49 
   0   8   3    1.56    0.68 
   0   8  -3    2.31    1.09 
   0   8  -3    2.72    0.85 
   0   8  -3    2.48    0.94 
   0   8  -3    2.70    0.85 
   0   8   3    1.27    0.73 
   0   8   3    1.78    0.79 
   0   8   3    3.50    0.66 
   0   8   3    3.26    1.17 
  -1  -8  -3   11.91    1.61 
  -1  -8  -3   11.39    1.75 
   1  -8   3   10.86    1.01 
  -1  -8  -3   10.38    1.57 
   1  -8   3   11.62    0.96 
  -1  -8  -3   10.50    0.93 
   1  -8   3    8.75    1.46 
   1  -8   3   11.44    1.60 
   1   8   3    9.98    0.77 
  -1   8  -3   15.19    1.19 
   1   8   3   11.53    1.25 
   1   8   3   11.02    1.52 
   1   8   3   11.57    1.12 
  -1   8  -3   11.13    1.11 
  -1   8  -3   10.21    1.29 
  -1   8  -3   11.35    1.55 
  -2  -8  -3   33.92    1.91 
   2  -8   3   25.41    1.46 
  -2  -8  -3   24.45    2.00 
   2  -8   3   23.96    2.08 
   2  -8   3   22.66    1.95 
   2  -8   3   27.55    1.56 
  -2  -8  -3   26.38    2.10 
   2   8   3   26.37    1.83 
  -2   8  -3   26.40    1.88 
  -2   8  -3   29.25    2.25 
  -2   8  -3   27.99    1.48 
   2   8   3   24.24    2.03 
  -2   8  -3   24.33    1.43 
   2   8   3   27.24    1.53 
  -3  -8  -3    0.21    0.78 
   3  -8   3    0.59    0.81 
   3  -8   3    1.25    0.71 
   3  -8   3    0.41    0.90 
  -3  -8  -3    0.04    0.72 
   3  -8   3    0.16    0.58 
  -3   8  -3    0.58    0.79 
   3   8   3    0.27    0.74 
  -3   8  -3    0.29    0.45 
   3   8   3    0.86    0.85 
  -3   8  -3    0.65    0.49 
   3   8   3    0.83    0.57 
  -3   8  -3    1.02    0.87 
  -4  -8  -3    0.59    0.56 
   4  -8   3    0.30    0.87 
  -4  -8  -3    0.23    0.69 
   4  -8   3    2.08    0.82 
  -4  -8  -3    1.53    0.92 
   4   8   3    3.28    1.08 
  -4   8  -3    1.77    0.92 
   4   8   3    1.02    0.55 
   4   8   3    1.46    0.94 
  -4   8  -3    1.16    0.83 
  -5  -8  -3    8.79    0.94 
   5  -8   3   10.99    1.70 
   5  -8   3    8.98    1.33 
  -5  -8  -3    9.01    1.64 
  -5   8  -3    8.52    1.55 
   5   8   3    8.43    0.94 
   5   8   3    7.67    1.37 
  -5   8  -3    9.04    1.71 
   6  -8   3    4.05    1.06 
  -6   8  -3    7.18    1.41 
   1  -9  -3    1.30    1.00 
  -1   9   3    1.79    0.75 
   1   9  -3    0.68    1.00 
   1   9  -3   -0.60    0.61 
  -1   9   3    1.37    1.01 
   1   9  -3   -0.33    0.63 
   0  -9  -3    1.25    0.96 
   0   9   3    0.54    0.70 
   0   9  -3    1.46    0.73 
   0   9   3    1.69    0.96 
   0   9  -3    0.83    0.92 
   0   9  -3    2.80    0.89 
  -1  -9  -3    1.10    0.84 
   1  -9   3   -0.04    0.56 
  -1   9  -3    0.09    0.67 
   1   9   3    2.03    0.72 
  -1   9  -3   -0.17    0.72 
  -1   9  -3    3.15    0.79 
  -1   9  -3    0.65    1.02 
  13   0  -4    8.60    0.96 
  13   0  -4    7.91    1.30 
  12   0  -4   14.91    0.92 
  12   0  -4   16.82    1.79 
  12   0  -4   19.36    1.04 
  12   0  -4   15.58    1.44 
  11   0  -4    1.62    0.91 
  11   0  -4    2.16    0.75 
  11   0  -4    3.92    0.80 
  11   0  -4    0.77    0.43 
  11   0  -4    2.28    0.53 
  10   0  -4    7.90    0.71 
  10   0  -4    8.90    0.64 
  10   0  -4    6.40    1.22 
  10   0  -4    6.18    0.63 
  10   0  -4    5.47    0.98 
  10   0  -4    6.32    0.99 
 -10   0   4    7.29    0.96 
   9   0  -4    7.70    0.68 
   9   0  -4    8.05    0.67 
   9   0  -4   10.30    0.80 
   9   0  -4    9.57    0.98 
   9   0  -4    9.31    1.02 
   9   0  -4    7.61    0.63 
  -9   0   4    8.69    1.00 
   9   0  -4    6.74    1.15 
   9   0  -4    7.90    1.32 
  -8   0   4   12.76    1.10 
   8   0  -4   11.72    0.69 
   8   0  -4   10.24    1.20 
   8   0  -4   11.86    0.71 
   8   0  -4   12.62    1.03 
   8   0  -4   11.91    1.30 
   8   0  -4   11.38    1.03 
  -8   0   4   13.06    1.07 
   8   0  -4   12.41    0.91 
   8   0  -4   10.23    0.80 
   7   0  -4   29.69    1.05 
   7   0  -4   29.58    1.78 
   7   0  -4   28.96    1.41 
   7   0  -4   31.48    1.54 
   7   0  -4   30.25    1.34 
   7   0  -4   30.18    1.50 
  -7   0   4   29.59    1.52 
  -7   0   4   29.32    1.50 
   7   0  -4   28.20    1.71 
   7   0  -4   30.12    1.02 
   6   0  -4   10.63    1.07 
  -6   0   4    8.30    0.85 
   6   0  -4    9.51    0.83 
   6   0  -4    9.46    0.88 
   6   0  -4    8.44    0.45 
   6   0  -4    8.94    0.83 
   6   0  -4    8.57    0.47 
   6   0  -4    8.75    0.76 
  -6   0   4    9.94    0.87 
  -5   0   4   84.81    2.99 
  -5   0   4   87.13    2.69 
   5   0  -4   85.37    2.99 
   5   0  -4   88.11    2.75 
   5   0  -4   88.99    2.81 
  -5   0   4   88.90    2.78 
   5   0  -4   90.94    2.76 
   5   0  -4   88.84    2.71 
  -4   0   4   35.02    1.69 
  -4   0   4   42.41    1.66 
   4   0  -4   42.03    1.81 
   4   0  -4   41.00    1.74 
   4   0  -4   41.47    1.63 
   4   0  -4   42.53    1.59 
  -4   0   4   41.21    1.56 
   4   0  -4   41.64    1.69 
   3   0  -4   47.69    1.86 
   3   0  -4   49.73    1.93 
  -3   0   4   48.67    1.88 
   3   0  -4   46.50    1.87 
   3   0  -4   50.79    1.70 
  -3   0   4   49.41    1.69 
   3   0  -4   49.45    1.78 
  -3   0   4   49.42    1.80 
   2   0  -4   -0.06    0.39 
  -2   0   4   -0.14    0.27 
  -2   0   4    0.03    0.36 
   2   0  -4   -0.20    0.30 
   2   0  -4   -0.02    0.39 
   2   0  -4    0.20    0.45 
  -2   0   4    0.02    0.34 
  -2   0   4    0.09    0.14 
  -1   0   4  362.71    8.47 
  -1   0   4  352.32    8.56 
  -1   0   4  358.86    8.35 
   1   0  -4  374.61    8.49 
   1   0  -4  378.50    8.42 
  -1   0   4  366.77    8.49 
  -1   0   4  360.50    7.99 
   1   0  -4  360.61    8.00 
   0   0  -4  165.15    4.04 
   0   0   4  167.13    4.29 
   0   0   4  166.04    4.26 
   0   0  -4  164.82    4.40 
   0   0  -4  163.00    4.28 
   0   0  -4  168.12    4.29 
   0   0  -4  159.71    4.27 
   0   0   4  164.26    4.03 
   0   0   4  163.17    4.27 
   0   0   4  160.84    4.36 
  -1   0  -4  254.91    6.23 
   1   0   4  259.20    6.27 
  -1   0  -4  261.16    6.19 
   1   0   4  268.02    6.22 
   1   0   4  256.63    6.29 
   1   0   4  263.81    6.16 
  -1   0  -4  251.57    6.27 
  -1   0  -4  256.90    6.36 
  -1   0  -4  255.25    6.11 
   1   0   4  259.95    6.36 
   2   0   4    0.35    0.43 
  -2   0  -4    0.69    0.43 
   2   0   4    0.71    0.48 
   2   0   4    0.34    0.39 
   2   0   4    0.56    0.36 
   2   0   4    0.91    0.35 
  -2   0  -4    0.64    0.43 
  -2   0  -4    0.65    0.36 
  -2   0  -4    0.38    0.40 
   3   0   4   14.91    0.86 
   3   0   4   15.02    0.97 
   3   0   4   14.54    1.13 
  -3   0  -4   14.84    0.87 
  -3   0  -4   12.17    0.96 
  -3   0  -4   15.78    0.96 
   3   0   4   15.48    0.98 
  -3   0  -4   14.32    0.94 
   3   0   4   15.35    0.99 
  -4   0  -4   84.80    2.60 
  -4   0  -4   85.15    2.53 
   4   0   4   83.36    2.60 
   4   0   4   67.72    2.58 
   4   0   4   85.32    2.51 
   4   0   4   82.71    2.92 
  -4   0  -4   83.89    2.48 
  -4   0  -4   83.87    2.73 
   5   0   4   69.86    2.21 
  -5   0  -4   67.89    2.32 
   5   0   4   70.47    2.51 
  -5   0  -4   70.51    2.54 
   5   0   4   70.55    2.69 
   5   0   4   70.57    2.33 
  -5   0  -4   71.43    2.15 
   5   0   4   68.94    2.73 
   5   0   4   72.15    2.40 
  -5   0  -4   67.29    2.35 
   6   0   4    9.52    1.11 
  -6   0  -4    7.61    0.63 
   6   0   4    9.58    0.96 
   6   0   4    7.21    0.79 
  -6   0  -4    7.49    0.79 
   6   0   4    9.29    1.19 
   6   0   4    7.70    0.81 
  -6   0  -4   10.03    0.91 
  -6   0  -4    8.85    0.95 
   6   0   4    8.01    0.68 
  -7   0  -4    7.99    0.93 
   7   0   4    7.94    1.26 
  -7   0  -4    8.25    0.60 
   7   0   4    7.70    0.97 
  -7   0  -4    8.33    0.66 
   7   0   4    6.78    1.09 
   7   0   4    9.37    0.90 
   7   0   4    9.02    0.95 
   8   0   4   16.43    1.60 
  -8   0  -4   14.49    0.70 
   8   0   4   13.79    1.38 
   8   0   4   14.16    1.12 
  -8   0  -4   14.67    1.24 
   8   0   4   14.20    1.18 
   8   0   4   13.61    1.25 
  -8   0  -4   14.12    0.65 
   8   0   4   13.43    1.05 
   9   0   4   26.10    1.88 
   9   0   4   23.79    1.69 
  -9   0  -4   25.66    1.67 
   9   0   4   24.45    1.50 
   9   0   4   27.05    1.78 
   9   0   4   28.01    1.66 
   9   0   4   28.37    2.02 
   9   0   4   26.91    1.49 
  10   0   4   13.01    1.33 
  10   0   4   11.14    1.12 
  10   0   4   11.10    1.21 
  10   0   4   12.23    1.59 
  10   0   4   12.72    1.13 
  11   0   4    2.66    1.16 
  11   0   4    1.70    0.84 
  11   0   4    2.56    0.79 
  11   0   4    2.88    0.72 
  12   0   4    2.08    0.87 
  12   0   4    3.62    0.86 
  12   0   4    3.09    0.91 
  12   0   4    2.67    0.85 
  12   0   4    2.70    1.07 
  12  -1  -4    0.48    0.54 
  12  -1  -4    1.87    0.81 
  12  -1  -4    0.52    0.44 
  12  -1  -4    0.60    0.41 
  12  -1  -4    0.95    0.69 
  12  -1  -4    1.00    0.84 
  12   1  -4    1.30    0.85 
  12   1  -4    1.28    0.50 
  12   1  -4   -0.05    0.57 
  12   1  -4    0.89    0.55 
  11  -1  -4   11.91    0.79 
  11  -1  -4   13.08    1.14 
  11  -1  -4   13.46    1.36 
  11  -1  -4   12.07    0.81 
  11  -1  -4   10.47    0.85 
  11  -1  -4   15.30    1.66 
  11   1  -4   11.88    1.14 
  11   1  -4   12.16    1.55 
  11   1  -4   11.72    1.13 
  11   1  -4   10.60    0.84 
  11   1  -4   12.06    0.99 
  10  -1  -4   22.27    1.60 
  10  -1  -4   22.08    1.38 
  10  -1  -4   21.68    1.24 
  10  -1  -4   24.04    1.08 
 -10  -1   4   17.59    1.42 
  10  -1  -4   21.43    1.01 
  10  -1  -4   19.91    1.72 
  10   1  -4   22.63    1.12 
  10   1  -4   23.31    1.42 
  10   1  -4   23.06    1.58 
  10   1  -4   22.88    1.26 
 -10   1   4   21.67    1.32 
  10   1  -4   23.44    1.84 
  10   1  -4   20.98    1.42 
   9  -1  -4    4.07    0.51 
   9  -1  -4    3.91    0.92 
   9  -1  -4    5.08    0.56 
  -9  -1   4    3.80    0.81 
   9  -1  -4    7.03    0.88 
   9  -1  -4    4.21    0.78 
   9  -1  -4    3.51    0.73 
   9  -1  -4    5.04    0.93 
   9   1  -4    4.65    0.60 
   9   1  -4    3.36    0.73 
   9   1  -4    3.34    0.71 
  -9   1   4    3.14    0.87 
   9   1  -4    3.89    0.67 
   9   1  -4    4.60    0.55 
  -9   1   4    4.30    0.74 
   9   1  -4    4.80    0.54 
   9   1  -4    3.43    0.84 
   9   1  -4    3.43    0.80 
   8  -1  -4    1.32    0.69 
   8  -1  -4    0.35    0.30 
   8  -1  -4    0.23    0.54 
   8  -1  -4    0.13    0.48 
   8  -1  -4    0.83    0.42 
   8  -1  -4    0.16    0.30 
   8  -1  -4   -0.04    0.53 
  -8  -1   4    0.32    0.53 
   8  -1  -4    0.26    0.45 
   8   1  -4    0.80    0.68 
   8   1  -4    0.31    0.32 
   8   1  -4    0.14    0.34 
   8   1  -4    0.19    0.54 
   8   1  -4    0.34    0.42 
   8   1  -4    0.04    0.44 
   8   1  -4    0.53    0.40 
  -8   1   4    0.08    0.50 
   8   1  -4   -0.09    0.47 
  -8   1   4   -0.14    0.36 
   7  -1  -4   36.74    1.67 
   7  -1  -4   43.69    1.75 
  -7  -1   4   43.46    1.98 
   7  -1  -4   45.08    2.22 
   7  -1  -4   44.68    1.88 
   7  -1  -4   43.93    1.32 
   7  -1  -4   44.82    2.00 
   7  -1  -4   45.54    2.17 
   7  -1  -4   41.40    1.28 
  -7  -1   4   45.20    1.79 
   7   1  -4   46.66    2.25 
   7   1  -4   45.46    1.62 
   7   1  -4   42.40    1.45 
  -7   1   4   41.32    1.95 
   7   1  -4   44.93    1.98 
   7   1  -4   43.47    1.67 
   7   1  -4   44.74    1.66 
   7   1  -4   46.89    1.78 
  -7   1   4   44.12    1.75 
   6  -1  -4  101.45    3.41 
  -6  -1   4   96.12    3.35 
  -6  -1   4  102.99    2.94 
   6  -1  -4  100.08    2.99 
   6  -1  -4   99.29    3.43 
   6  -1  -4   98.88    3.19 
  -6  -1   4  103.33    3.25 
   6  -1  -4  100.01    3.11 
   6  -1  -4   97.99    3.01 
   6  -1  -4   99.79    2.39 
   6  -1  -4   97.01    2.37 
  -6   1   4  100.14    3.22 
   6   1  -4  101.45    2.59 
  -6   1   4  102.68    2.98 
   6   1  -4   99.86    3.44 
   6   1  -4   96.15    2.88 
   6   1  -4  100.89    2.99 
   6   1  -4  101.30    2.94 
   6   1  -4   98.58    3.19 
   5  -1  -4   15.98    0.52 
   5  -1  -4   15.31    1.09 
  -5  -1   4   16.49    1.09 
   5  -1  -4   15.90    1.17 
  -5  -1   4   16.45    0.91 
   5  -1  -4   16.15    1.21 
  -5  -1   4   15.97    0.77 
   5  -1  -4   16.48    0.52 
  -5  -1   4   17.06    1.13 
   5  -1  -4   16.42    1.01 
   5  -1  -4   16.11    1.10 
   5  -1  -4   17.30    1.08 
  -5  -1   4   15.66    1.19 
   5   1  -4   16.48    1.25 
   5   1  -4   16.21    1.10 
  -5   1   4   17.39    0.99 
   5   1  -4   15.89    0.70 
  -5   1   4   17.23    1.10 
   5   1  -4   16.85    0.91 
   5   1  -4   15.95    1.00 
  -4  -1   4   15.78    0.81 
   4  -1  -4   16.11    1.00 
  -4  -1   4   15.98    0.71 
   4  -1  -4   15.80    1.04 
  -4  -1   4   15.46    1.13 
  -4  -1   4   14.37    1.07 
   4  -1  -4   14.68    1.08 
  -4  -1   4   15.96    1.06 
   4  -1  -4   11.90    0.94 
  -4   1   4   16.25    0.95 
   4   1  -4   16.42    0.67 
   4   1  -4   17.78    1.06 
   4   1  -4   15.47    0.82 
  -4   1   4   16.14    1.01 
   4   1  -4   15.69    1.17 
   4   1  -4   14.87    1.01 
  -3  -1   4   40.68    1.78 
  -3  -1   4   41.40    1.35 
  -3  -1   4   41.13    1.23 
   3  -1  -4   41.96    1.63 
   3  -1  -4   41.54    1.65 
   3  -1  -4   43.40    1.70 
   3  -1  -4   42.24    1.70 
  -3  -1   4   38.03    1.62 
   3  -1  -4   40.20    0.98 
   3   1  -4   39.99    1.37 
   3   1  -4   40.25    1.66 
  -3   1   4   35.44    0.98 
  -3   1   4   40.39    1.62 
  -3   1   4   40.62    1.68 
  -3   1   4   41.56    1.57 
   3   1  -4   40.80    1.21 
   3   1  -4   40.67    1.81 
   3   1  -4   42.27    1.66 
  -2  -1   4   98.36    2.87 
   2  -1  -4   96.13    2.80 
  -2  -1   4   82.86    2.87 
  -2  -1   4   98.19    2.44 
   2  -1  -4   95.62    2.28 
   2  -1  -4   95.81    2.84 
  -2  -1   4   99.39    2.54 
  -2  -1   4   89.87    2.98 
   2  -1  -4   94.38    2.81 
   2  -1  -4   97.50    2.94 
   2   1  -4   96.13    3.12 
  -2   1   4   98.23    2.96 
   2   1  -4   98.30    2.93 
  -2   1   4   92.62    2.79 
   2   1  -4   93.62    2.81 
  -2   1   4   99.86    2.84 
  -2   1   4   97.55    2.28 
  -2   1   4   99.58    2.80 
   2   1  -4   96.37    2.43 
   2   1  -4  100.03    2.62 
  -1  -1   4   58.75    2.01 
   1  -1  -4   61.71    1.89 
  -1  -1   4   57.73    2.18 
   1  -1  -4   62.71    2.17 
   1  -1  -4   59.58    1.66 
   1  -1  -4   59.53    2.01 
   1  -1  -4   58.26    2.00 
  -1  -1   4   59.79    1.76 
  -1  -1   4   60.05    2.12 
  -1  -1   4   56.72    1.81 
   1   1  -4   60.41    2.11 
  -1   1   4   59.56    1.87 
   1   1  -4   58.35    1.99 
   1   1  -4   60.86    1.87 
  -1   1   4   62.53    2.07 
  -1   1   4   60.12    1.67 
   1   1  -4   58.28    1.73 
   0  -1  -4    7.89    0.63 
   0  -1   4    8.12    0.73 
   0  -1  -4    8.66    0.75 
   0  -1  -4    7.42    0.72 
   0  -1   4    8.19    0.74 
   0  -1   4    7.73    0.86 
   0  -1   4    8.16    0.68 
   0  -1  -4    7.09    0.90 
   0  -1   4    7.61    0.77 
   0  -1  -4    7.52    0.77 
   0   1   4    7.57    0.79 
   0   1  -4    8.42    0.83 
   0   1  -4    6.88    0.74 
   0   1  -4    8.12    0.66 
   0   1   4    7.96    0.75 
   0   1  -4    6.94    0.81 
   0   1   4    8.29    0.63 
   0   1   4    8.24    0.61 
   0   1  -4    8.20    0.65 
  -1  -1  -4   28.86    1.29 
   1  -1   4   28.71    1.28 
   1  -1   4   27.47    1.17 
  -1  -1  -4   24.43    1.36 
   1  -1   4   26.43    1.25 
  -1  -1  -4   27.50    1.30 
   1  -1   4   26.49    1.29 
   1  -1   4   27.18    1.30 
  -1  -1  -4   26.26    1.29 
  -1  -1  -4   25.99    1.01 
  -1   1  -4   28.06    1.34 
  -1   1  -4   28.91    1.28 
  -1   1  -4   28.67    1.33 
  -1   1  -4   29.14    1.22 
   1   1   4   29.11    1.09 
   1   1   4   26.34    1.26 
   1   1   4   28.07    1.22 
  -1   1  -4   26.85    1.29 
   1   1   4   27.70    1.44 
  -2  -1  -4   57.94    2.04 
   2  -1   4   61.04    2.02 
   2  -1   4   57.15    2.00 
  -2  -1  -4   56.76    2.14 
  -2  -1  -4   60.74    2.07 
   2  -1   4   58.46    2.05 
   2  -1   4   57.05    2.09 
  -2  -1  -4   60.31    1.66 
   2  -1   4   58.58    2.01 
   2   1   4   59.82    2.07 
   2   1   4   61.19    2.09 
  -2   1  -4   58.90    2.13 
   2   1   4   62.10    1.72 
  -2   1  -4   59.44    2.04 
  -2   1  -4   62.19    2.09 
   2   1   4   60.13    2.23 
  -2   1  -4   59.19    2.01 
  -2   1  -4   58.01    1.98 
   3  -1   4   67.08    2.42 
   3  -1   4   65.86    2.24 
  -3  -1  -4   64.34    2.25 
   3  -1   4   69.19    2.27 
  -3  -1  -4   69.26    2.26 
  -3  -1  -4   66.37    1.87 
  -3  -1  -4   68.77    2.16 
   3  -1   4   63.97    2.19 
  -3  -1  -4   64.12    2.30 
   3  -1   4   65.77    2.18 
  -3   1  -4   68.59    2.28 
   3   1   4   67.67    2.34 
   3   1   4   65.07    2.27 
   3   1   4   66.21    1.87 
   3   1   4   68.30    2.38 
  -3   1  -4   66.29    2.43 
  -3   1  -4   66.76    2.12 
  -3   1  -4   62.31    2.18 
  -3   1  -4   65.39    2.24 
  -4  -1  -4    9.06    0.83 
  -4  -1  -4    9.09    0.66 
  -4  -1  -4    9.11    0.81 
  -4  -1  -4    9.51    0.75 
  -4  -1  -4    8.94    0.90 
   4  -1   4    8.89    0.86 
   4  -1   4   11.20    0.84 
   4  -1   4    9.09    0.85 
   4  -1   4    9.46    0.78 
   4  -1   4    8.36    1.00 
  -4   1  -4    9.07    0.73 
  -4   1  -4    8.99    0.77 
   4   1   4    7.30    0.84 
   4   1   4    8.93    0.63 
  -4   1  -4    9.33    0.88 
   4   1   4    9.71    0.96 
  -4   1  -4    9.16    0.86 
  -4   1  -4   10.13    1.04 
   4   1   4    9.89    1.06 
   4   1   4    9.23    0.87 
  -5  -1  -4   10.71    0.77 
   5  -1   4    9.94    0.94 
   5  -1   4    9.71    0.78 
   5  -1   4   10.77    1.13 
  -5  -1  -4   11.44    0.96 
  -5  -1  -4   10.44    0.73 
  -5  -1  -4   11.06    0.79 
  -5  -1  -4   11.50    0.99 
   5  -1   4   10.64    0.83 
  -5   1  -4   12.06    1.01 
  -5   1  -4   11.28    1.00 
   5   1   4   10.98    0.76 
   5   1   4   10.50    0.94 
   5   1   4   10.76    1.06 
  -5   1  -4   10.14    0.80 
  -5   1  -4   10.28    1.14 
  -5   1  -4   10.15    0.79 
   5   1   4   11.99    1.00 
   5   1   4   11.56    1.20 
   6  -1   4   47.12    2.25 
   6  -1   4   44.67    1.97 
  -6  -1  -4   38.91    1.66 
  -6  -1  -4   46.23    1.49 
   6  -1   4   45.17    1.74 
   6  -1   4   46.28    2.03 
   6  -1   4   42.87    1.68 
  -6  -1  -4   43.47    1.97 
  -6  -1  -4   46.60    1.52 
  -6   1  -4   45.79    1.72 
  -6   1  -4   44.15    1.98 
  -6   1  -4   45.04    2.22 
   6   1   4   46.21    2.28 
   6   1   4   45.30    1.72 
  -6   1  -4   46.77    1.68 
   6   1   4   44.75    1.95 
   6   1   4   45.14    1.99 
   6   1   4   43.49    2.11 
   7  -1   4   78.68    2.89 
   7  -1   4   80.36    2.59 
  -7  -1  -4   79.42    2.08 
  -7  -1  -4   79.26    2.08 
   7  -1   4   79.20    2.97 
   7  -1   4   76.94    3.16 
  -7  -1  -4   79.83    2.93 
   7  -1   4   78.78    2.47 
  -7  -1  -4   78.29    2.66 
  -7   1  -4   80.02    2.93 
   7   1   4   76.88    3.03 
   7   1   4   75.84    2.87 
   7   1   4   81.49    2.89 
   7   1   4   81.98    3.26 
  -7   1  -4   80.20    2.40 
   7   1   4   79.88    2.62 
   8  -1   4   -0.32    0.71 
   8  -1   4    0.59    0.58 
   8  -1   4   -0.21    0.40 
   8  -1   4    0.29    0.45 
   8  -1   4    0.15    0.54 
   8  -1   4    0.16    0.38 
   8  -1   4    0.16    0.52 
   8   1   4    0.32    0.54 
  -8   1  -4    0.78    0.63 
   8   1   4    0.09    0.58 
   8   1   4   -0.32    0.38 
   8   1   4    0.93    0.57 
   8   1   4    0.24    0.42 
  -8   1  -4    0.13    0.34 
   8   1   4   -0.27    0.74 
   9  -1   4   18.87    1.23 
   9  -1   4   16.85    1.48 
   9  -1   4   20.30    1.51 
   9  -1   4   19.34    1.18 
   9  -1   4   18.99    2.03 
   9  -1   4   19.12    1.69 
   9  -1   4   17.43    0.96 
   9  -1   4   16.51    1.61 
   9   1   4   18.88    1.28 
   9   1   4   19.29    1.41 
  -9   1  -4   19.53    0.90 
   9   1   4   21.22    1.83 
   9   1   4   17.99    1.46 
   9   1   4   20.70    1.69 
  -9   1  -4   19.21    1.52 
   9   1   4   19.25    1.37 
  10  -1   4    6.34    1.21 
  10  -1   4    5.87    0.91 
  10  -1   4    5.01    1.18 
  10  -1   4    4.24    0.76 
  10   1   4    5.34    1.04 
  10   1   4    4.86    0.91 
  10   1   4    5.02    1.27 
  10   1   4    5.70    0.97 
  10   1   4    4.26    0.86 
  10   1   4    4.42    0.91 
 -10   1  -4    5.45    1.01 
  11  -1   4   31.78    2.26 
  11  -1   4   29.90    1.55 
  11  -1   4   29.59    2.03 
  11  -1   4   32.05    1.64 
  11   1   4   28.74    1.82 
  11   1   4   30.07    2.26 
  11   1   4   27.98    1.79 
  11   1   4   31.52    1.90 
  11   1   4   30.71    1.94 
  12  -1   4    1.39    0.78 
  12  -1   4    0.10    0.83 
  12  -1   4    0.94    0.62 
  12  -1   4    0.74    0.65 
  12   1   4    0.87    0.73 
  12   1   4    2.69    1.06 
  12   1   4    0.80    0.60 
  12   1   4    0.31    0.67 
  12  -2  -4    1.71    0.50 
  12  -2  -4    2.32    0.72 
  12  -2  -4    1.23    0.54 
  12  -2  -4    2.26    0.91 
  12  -2  -4    1.42    0.96 
  12  -2  -4    2.07    0.58 
  12   2  -4    0.74    0.84 
  12   2  -4    2.84    0.79 
  12   2  -4    0.87    0.57 
  12   2  -4    1.80    0.67 
  11  -2  -4    3.13    0.71 
  11  -2  -4    2.78    0.53 
  11  -2  -4    2.57    0.51 
  11  -2  -4    2.93    0.90 
  11  -2  -4    2.42    0.79 
  11  -2  -4    2.71    0.92 
  11   2  -4    2.93    0.82 
  11   2  -4    3.22    1.03 
  11   2  -4    2.87    0.64 
  11   2  -4    3.47    0.72 
  10  -2  -4    3.99    0.94 
 -10  -2   4    2.34    0.81 
  10  -2  -4    4.07    0.61 
  10  -2  -4    4.44    1.13 
  10  -2  -4    3.24    0.72 
  10  -2  -4    2.28    0.50 
  10  -2  -4    5.32    0.93 
  10   2  -4    4.26    0.80 
  10   2  -4    4.21    1.14 
  10   2  -4    3.78    0.84 
  10   2  -4    4.60    0.76 
   9  -2  -4   12.26    1.14 
   9  -2  -4   12.63    1.01 
   9  -2  -4   13.60    0.81 
   9  -2  -4   12.95    0.83 
   9  -2  -4   13.37    1.42 
   9  -2  -4   13.38    1.32 
  -9  -2   4   12.62    1.27 
   9   2  -4   11.91    1.23 
  -9   2   4   11.15    1.26 
   9   2  -4   12.72    0.99 
   9   2  -4   13.05    0.75 
   9   2  -4   12.48    1.14 
   9   2  -4   13.01    0.96 
   9   2  -4   13.36    0.88 
   9   2  -4   13.81    1.35 
   9   2  -4   12.08    0.90 
   9   2  -4   12.80    1.45 
  -9   2   4   13.50    0.94 
   8  -2  -4   10.00    0.96 
  -8  -2   4   10.92    1.17 
   8  -2  -4   10.81    1.17 
   8  -2  -4   10.99    0.75 
   8  -2  -4    9.19    0.67 
   8  -2  -4    9.27    1.21 
   8  -2  -4   10.80    1.23 
   8  -2  -4   11.31    0.94 
   8   2  -4    9.55    1.26 
   8   2  -4   10.94    0.82 
   8   2  -4   10.63    1.12 
   8   2  -4   10.36    0.83 
  -8   2   4    9.46    1.11 
   8   2  -4   10.00    0.77 
  -8   2   4   10.52    0.81 
   8   2  -4    7.77    0.75 
   8   2  -4    9.75    0.79 
   7  -2  -4    6.13    0.54 
   7  -2  -4    5.98    0.79 
  -7  -2   4    6.95    0.81 
  -7  -2   4    6.68    1.04 
  -7  -2   4    5.14    0.88 
   7  -2  -4    6.48    1.08 
   7  -2  -4    7.16    0.88 
   7  -2  -4    6.84    0.93 
   7  -2  -4    5.71    0.92 
   7   2  -4    6.91    0.72 
   7   2  -4    6.27    1.13 
  -7   2   4    6.02    0.92 
  -7   2   4    6.31    0.67 
   7   2  -4    7.59    0.67 
   7   2  -4    5.53    0.65 
  -7   2   4    6.93    0.93 
   7   2  -4    7.00    0.67 
   6  -2  -4   14.27    1.14 
  -6  -2   4   13.54    0.93 
  -6  -2   4   12.97    1.15 
   6  -2  -4   12.90    0.69 
   6  -2  -4   14.16    1.23 
   6  -2  -4   14.59    1.24 
   6  -2  -4   14.63    0.99 
   6  -2  -4   14.28    1.07 
  -6  -2   4   13.35    1.07 
  -6  -2   4   13.42    1.19 
  -6   2   4   16.61    1.23 
   6   2  -4   14.64    1.15 
   6   2  -4   13.34    0.78 
  -6   2   4   14.21    0.79 
   6   2  -4   13.11    0.82 
  -6   2   4   12.37    1.08 
   6   2  -4   12.80    1.25 
  -6   2   4   14.00    0.86 
   6   2  -4   14.40    0.94 
  -5  -2   4   12.77    0.87 
   5  -2  -4   12.05    1.00 
  -5  -2   4   11.21    1.01 
  -5  -2   4   13.31    1.14 
   5  -2  -4   11.96    1.06 
  -5  -2   4   10.43    1.00 
   5  -2  -4   11.31    1.06 
   5  -2  -4   13.37    0.93 
  -5  -2   4   12.53    0.69 
   5  -2  -4   12.11    1.05 
   5  -2  -4   10.86    0.61 
   5   2  -4   10.86    0.74 
  -5   2   4   11.46    1.03 
  -5   2   4   12.28    1.02 
   5   2  -4   11.44    1.18 
   5   2  -4   11.82    0.66 
   5   2  -4   10.94    0.99 
  -5   2   4   12.43    0.71 
   5   2  -4   12.29    0.92 
  -5   2   4   12.27    0.79 
   4  -2  -4   85.44    2.28 
   4  -2  -4   92.27    2.94 
  -4  -2   4   90.04    2.27 
  -4  -2   4   86.28    2.95 
   4  -2  -4   86.31    2.89 
   4  -2  -4   84.53    2.90 
  -4  -2   4   91.08    2.60 
   4  -2  -4   88.83    2.93 
  -4  -2   4   93.87    3.11 
   4  -2  -4   92.14    2.67 
  -4  -2   4   87.02    2.85 
  -4   2   4   89.83    2.58 
  -4   2   4   90.72    2.91 
   4   2  -4   87.13    3.14 
   4   2  -4   90.35    2.28 
   4   2  -4   89.66    2.94 
  -4   2   4   90.91    2.35 
   4   2  -4   89.12    2.77 
  -4   2   4   88.85    2.96 
   4   2  -4   85.06    2.50 
  -3  -2   4    0.89    0.59 
  -3  -2   4    1.19    0.40 
  -3  -2   4    1.32    0.27 
   3  -2  -4    0.85    0.44 
   3  -2  -4    0.72    0.49 
   3  -2  -4    1.42    0.33 
  -3  -2   4    1.13    0.45 
   3  -2  -4    1.12    0.46 
   3  -2  -4    1.48    0.51 
   3  -2  -4    1.48    0.48 
   3   2  -4    1.42    0.41 
   3   2  -4    1.41    0.48 
  -3   2   4    1.13    0.52 
   3   2  -4    1.28    0.50 
   3   2  -4    1.15    0.82 
  -3   2   4    1.23    0.46 
   3   2  -4    1.22    0.40 
  -3   2   4    1.32    0.34 
  -3   2   4    1.85    0.54 
  -2  -2   4   14.64    1.19 
   2  -2  -4   15.13    0.92 
   2  -2  -4   15.35    0.93 
  -2  -2   4   13.42    0.60 
  -2  -2   4   13.28    0.83 
   2  -2  -4   15.07    0.92 
  -2  -2   4   13.88    1.02 
   2  -2  -4   13.07    1.03 
  -2  -2   4   13.41    0.96 
   2  -2  -4   14.04    0.74 
   2  -2  -4   13.91    1.02 
   2   2  -4   15.21    0.65 
   2   2  -4   14.25    0.97 
  -2   2   4   14.01    0.96 
   2   2  -4   12.58    0.97 
   2   2  -4   14.23    1.28 
  -2   2   4   13.13    0.96 
   2   2  -4   14.44    0.84 
  -2   2   4   14.02    0.74 
  -2   2   4   13.96    1.08 
   1  -2  -4   64.18    1.92 
   1  -2  -4   62.67    2.07 
  -1  -2   4   62.27    2.25 
  -1  -2   4   64.66    2.52 
   1  -2  -4   66.69    1.97 
  -1  -2   4   63.75    2.05 
  -1  -2   4   64.24    1.89 
   1  -2  -4   65.04    1.93 
   1  -2  -4   61.99    2.28 
  -1  -2   4   60.55    2.12 
  -1   2   4   65.01    2.22 
   1   2  -4   64.11    1.74 
   1   2  -4   63.90    2.02 
  -1   2   4   64.63    2.31 
  -1   2   4   62.34    2.11 
  -1   2   4   64.11    1.94 
   1   2  -4   59.78    2.22 
   1   2  -4   63.93    2.15 
   0  -2  -4  456.48   10.74 
   0  -2   4  463.15   10.90 
   0  -2   4  459.28   10.58 
   0  -2  -4  467.43   10.62 
   0  -2  -4  469.89   10.48 
   0  -2   4  472.75   10.59 
   0  -2   4  474.51   10.28 
   0  -2  -4  455.68   10.14 
   0  -2  -4  473.53   10.80 
   0   2  -4  461.07   10.53 
   0   2  -4  466.01   10.25 
   0   2   4  464.47   10.78 
   0   2  -4  443.89   10.84 
   0   2  -4  466.68   10.56 
   0   2  -4  471.68   10.82 
   0   2   4  470.69   10.49 
   0   2   4  456.11   10.60 
   0   2   4  470.92   10.77 
  -1  -2  -4   88.86    2.74 
   1  -2   4   88.88    2.75 
   1  -2   4   85.68    2.78 
   1  -2   4   90.65    2.84 
  -1  -2  -4   86.53    2.64 
  -1  -2  -4   89.65    2.97 
   1  -2   4   87.27    2.49 
   1  -2   4   91.42    2.62 
  -1  -2  -4   85.92    2.14 
  -1  -2  -4   88.41    2.78 
  -1   2  -4   72.70    2.71 
  -1   2  -4   90.45    2.52 
   1   2   4   89.42    2.81 
   1   2   4   90.91    2.69 
  -1   2  -4   90.45    2.73 
  -1   2  -4   89.73    2.64 
  -1   2  -4   86.86    2.82 
   1   2   4   88.05    2.83 
   2  -2   4   35.50    1.61 
   2  -2   4   37.79    1.68 
  -2  -2  -4   37.04    1.61 
   2  -2   4   38.00    1.49 
   2  -2   4   38.19    1.65 
  -2  -2  -4   37.34    1.63 
   2  -2   4   37.29    1.44 
  -2   2  -4   35.03    1.47 
   2   2   4   36.44    1.61 
  -2   2  -4   37.94    1.67 
   2   2   4   35.58    1.54 
  -2   2  -4   34.71    1.49 
  -2   2  -4   36.36    1.64 
  -2   2  -4   36.62    1.66 
   2   2   4   37.57    1.63 
   2   2   4   35.58    1.76 
   3  -2   4    2.03    0.68 
   3  -2   4    2.09    0.54 
  -3  -2  -4    1.43    0.46 
   3  -2   4    1.77    0.59 
   3  -2   4    1.88    0.52 
  -3  -2  -4    1.45    0.58 
  -3  -2  -4    1.72    0.57 
   3  -2   4    1.90    0.50 
  -3  -2  -4    1.49    0.41 
   3   2   4    1.10    0.69 
  -3   2  -4    1.16    0.57 
   3   2   4    1.17    0.54 
  -3   2  -4    1.74    0.55 
  -3   2  -4    2.38    0.51 
   3   2   4    1.36    0.52 
  -3   2  -4    1.52    0.60 
  -3   2  -4    1.65    0.52 
   3   2   4    2.08    0.56 
  -4  -2  -4  239.66    6.39 
   4  -2   4  231.85    6.41 
   4  -2   4  247.10    6.37 
  -4  -2  -4  244.63    6.37 
   4  -2   4  236.51    5.86 
   4  -2   4  239.78    6.16 
  -4  -2  -4  260.33    6.37 
  -4  -2  -4  244.82    5.95 
  -4  -2  -4  235.69    5.97 
   4  -2   4  241.75    6.26 
  -4   2  -4  235.78    6.42 
   4   2   4  245.43    6.35 
  -4   2  -4  251.07    6.40 
   4   2   4  245.12    5.48 
   4   2   4  253.38    6.44 
   4   2   4  245.32    6.41 
  -4   2  -4  250.16    5.84 
  -4   2  -4  241.07    6.16 
  -5  -2  -4   36.64    1.41 
   5  -2   4   36.22    1.78 
   5  -2   4   37.94    1.78 
   5  -2   4   35.96    1.62 
   5  -2   4   33.14    1.85 
  -5  -2  -4   37.57    1.75 
  -5  -2  -4   36.90    1.51 
  -5  -2  -4   35.42    1.75 
   5  -2   4   36.09    1.47 
   5   2   4   35.20    1.75 
  -5   2  -4   34.07    1.36 
  -5   2  -4   36.02    1.79 
   5   2   4   37.43    1.88 
  -5   2  -4   34.52    1.59 
  -5   2  -4   34.60    1.90 
   5   2   4   36.43    1.77 
   5   2   4   36.63    1.26 
   6  -2   4   33.19    1.79 
   6  -2   4   35.26    1.58 
   6  -2   4   34.36    1.83 
  -6  -2  -4   34.82    1.72 
   6  -2   4   33.97    1.79 
   6  -2   4   34.22    1.45 
   6  -2   4   35.36    1.96 
  -6  -2  -4   33.76    1.29 
  -6  -2  -4   33.58    1.42 
  -6   2  -4   37.80    1.39 
  -6   2  -4   34.34    1.97 
   6   2   4   33.61    1.76 
  -6   2  -4   32.03    1.53 
   6   2   4   33.51    1.88 
   6   2   4   34.58    1.80 
   6   2   4   32.67    1.32 
  -6   2  -4   31.84    1.79 
   6   2   4   35.96    1.37 
   7  -2   4   16.89    1.52 
   7  -2   4   14.69    1.30 
   7  -2   4   14.99    1.28 
  -7  -2  -4   15.56    0.76 
  -7  -2  -4   16.86    0.85 
   7  -2   4   15.49    1.02 
   7  -2   4   15.40    1.06 
  -7  -2  -4   15.55    1.20 
   7  -2   4   14.11    1.29 
   7   2   4   14.89    0.95 
  -7   2  -4   15.71    1.07 
  -7   2  -4   15.86    1.36 
   7   2   4   16.09    1.27 
   7   2   4   15.42    1.01 
  -7   2  -4   14.88    1.49 
   7   2   4   16.66    1.29 
   7   2   4   16.30    1.33 
   7   2   4   18.03    1.57 
   7   2   4   16.04    1.44 
   8  -2   4   30.74    1.85 
   8  -2   4   32.48    1.51 
   8  -2   4   31.17    1.32 
   8  -2   4   32.64    2.05 
   8  -2   4   33.51    1.95 
   8  -2   4   31.95    1.90 
   8  -2   4   28.16    1.38 
  -8  -2  -4   31.58    1.77 
  -8   2  -4   28.62    1.84 
  -8   2  -4   32.26    1.47 
   8   2   4   28.73    2.08 
   8   2   4   30.32    1.51 
   8   2   4   36.11    1.89 
   8   2   4   33.04    1.83 
   8   2   4   32.64    1.98 
   8   2   4   31.78    1.47 
  -8   2  -4   32.08    2.12 
   8   2   4   28.72    1.79 
   9  -2   4   19.03    1.15 
   9  -2   4   18.49    1.87 
   9  -2   4   20.33    1.76 
   9  -2   4   19.02    1.57 
   9  -2   4   21.27    1.09 
   9   2   4   19.69    1.30 
  -9   2  -4   20.14    1.63 
   9   2   4   18.60    1.47 
   9   2   4   19.10    1.47 
   9   2   4   20.82    1.26 
  -9   2  -4   19.41    1.13 
   9   2   4   18.97    1.49 
   9   2   4   21.96    1.93 
  10  -2   4   12.13    1.59 
  10  -2   4   12.37    1.41 
  10  -2   4   12.31    0.99 
  10  -2   4   11.47    0.86 
  10   2   4   12.09    1.63 
 -10   2  -4   11.71    1.42 
  10   2   4   12.22    1.07 
  10   2   4   13.34    1.35 
 -10   2  -4   11.32    0.86 
  10   2   4   11.78    1.15 
  11  -2   4   14.48    1.66 
  11  -2   4   13.00    1.04 
  11  -2   4   14.76    0.95 
  11  -2   4   12.73    1.49 
  11   2   4   12.52    1.93 
  11   2   4   12.83    1.37 
 -11   2  -4   11.68    1.50 
  11   2   4   13.39    1.23 
  11   2   4   11.92    1.28 
 -11   2  -4   14.88    0.80 
  11   2   4   14.03    1.27 
  12  -2   4    1.14    0.62 
  12  -2   4    0.28    0.86 
  12  -2   4    0.98    0.77 
  12   2   4    1.26    0.78 
  12   2   4    1.67    0.79 
  12   2   4    0.65    0.60 
  12   2   4    1.43    1.11 
  12  -3  -4    0.66    0.82 
  12  -3  -4    1.03    0.48 
  12   3  -4    0.64    1.02 
  12   3  -4    0.51    0.54 
  12   3  -4    0.21    0.70 
  11  -3  -4    8.35    0.85 
  11  -3  -4    7.68    1.44 
  11  -3  -4    6.52    1.16 
  11  -3  -4    9.17    1.13 
  11   3  -4    7.89    1.17 
  11   3  -4    5.28    1.25 
  11   3  -4    6.79    0.88 
  11   3  -4    5.44    0.88 
  11   3  -4    6.11    0.78 
  10  -3  -4   17.61    1.05 
  10  -3  -4   17.96    1.59 
  10  -3  -4   17.53    1.70 
  10  -3  -4   16.26    1.07 
  10   3  -4   20.25    1.14 
  10   3  -4   18.10    1.06 
  10   3  -4   18.61    1.22 
  10   3  -4   18.30    1.47 
  10   3  -4   16.35    1.70 
   9  -3  -4    4.48    1.02 
  -9  -3   4    6.35    1.02 
   9  -3  -4    5.66    0.68 
  -9  -3   4    4.99    1.09 
   9  -3  -4    4.44    0.99 
   9   3  -4    5.91    0.66 
   9   3  -4    5.99    0.66 
  -9   3   4    5.84    1.01 
   9   3  -4    5.63    0.83 
   9   3  -4    5.50    0.69 
   9   3  -4    3.60    1.02 
   8  -3  -4    0.20    0.36 
   8  -3  -4   -0.08    0.60 
  -8  -3   4    0.73    0.60 
  -8  -3   4    0.96    0.59 
  -8  -3   4    0.17    0.62 
   8  -3  -4    0.54    0.65 
   8  -3  -4    0.75    0.65 
   8   3  -4    0.67    0.38 
  -8   3   4    0.10    0.33 
   8   3  -4    0.30    0.34 
   8   3  -4    0.21    0.36 
  -8   3   4    0.09    0.69 
  -8   3   4    0.97    0.66 
  -8   3   4    0.14    0.48 
   8   3  -4    0.28    0.79 
   8   3  -4    0.57    0.47 
   8   3  -4   -0.51    0.44 
  -7  -3   4   27.93    1.52 
   7  -3  -4   27.28    1.69 
  -7  -3   4   25.88    1.68 
   7  -3  -4   26.81    1.19 
   7  -3  -4   25.49    1.13 
   7  -3  -4   27.55    1.76 
   7  -3  -4   26.91    1.57 
  -7  -3   4   28.31    1.54 
  -7  -3   4   25.53    1.71 
   7  -3  -4   26.29    1.76 
  -7   3   4   26.55    1.32 
   7   3  -4   25.42    1.62 
   7   3  -4   25.11    1.90 
   7   3  -4   25.01    1.33 
   7   3  -4   24.86    1.30 
  -7   3   4   26.66    1.69 
  -7   3   4   29.29    1.10 
  -7   3   4   25.34    1.60 
  -6  -3   4   61.00    2.27 
   6  -3  -4   59.22    1.91 
   6  -3  -4   54.87    2.34 
   6  -3  -4   57.28    2.48 
  -6  -3   4   56.87    2.48 
   6  -3  -4   59.45    1.86 
   6  -3  -4   59.54    2.53 
  -6  -3   4   58.21    2.49 
  -6  -3   4   60.82    2.28 
   6  -3  -4   57.87    2.48 
   6   3  -4   58.41    2.09 
  -6   3   4   57.02    2.46 
  -6   3   4   57.71    1.79 
   6   3  -4   58.80    2.15 
  -6   3   4   58.09    2.47 
  -6   3   4   53.65    1.96 
   6   3  -4   58.56    2.74 
   6   3  -4   56.06    2.41 
  -5  -3   4    8.78    1.00 
  -5  -3   4    9.05    0.92 
   5  -3  -4    6.55    0.93 
  -5  -3   4    8.01    0.86 
   5  -3  -4    9.48    0.73 
   5  -3  -4    9.11    0.99 
   5  -3  -4    8.94    1.00 
  -5  -3   4    7.83    1.00 
   5  -3  -4    9.89    1.05 
   5  -3  -4    9.13    0.71 
  -5   3   4    8.59    0.75 
   5   3  -4   12.06    1.61 
   5   3  -4    8.48    0.94 
  -5   3   4    8.97    1.03 
  -5   3   4   11.30    0.72 
  -5   3   4    9.65    1.00 
   5   3  -4    9.13    0.88 
   5   3  -4    9.37    0.82 
   4  -3  -4   12.76    1.12 
  -4  -3   4   14.44    1.02 
  -4  -3   4   13.87    1.11 
  -4  -3   4   14.19    1.20 
   4  -3  -4   14.87    1.17 
   4  -3  -4   13.60    0.85 
   4  -3  -4   14.78    1.11 
   4  -3  -4   14.42    1.09 
  -4  -3   4   14.75    1.10 
   4  -3  -4   13.15    0.82 
   4   3  -4   13.08    1.06 
  -4   3   4   13.85    1.10 
   4   3  -4   14.32    1.46 
  -4   3   4   14.65    0.89 
   4   3  -4   15.12    0.99 
  -4   3   4   14.68    0.90 
   4   3  -4   14.39    1.05 
  -4   3   4   14.09    1.21 
   3  -3  -4   24.86    1.30 
   3  -3  -4   27.26    1.53 
   3  -3  -4   25.73    1.15 
   3  -3  -4   27.73    1.51 
   3  -3  -4   26.49    1.35 
   3  -3  -4   27.94    1.21 
  -3  -3   4   26.43    1.33 
  -3  -3   4   26.45    1.46 
  -3  -3   4   27.80    1.63 
   3   3  -4   27.31    1.43 
   3   3  -4   27.31    1.31 
   3   3  -4   27.53    1.45 
  -3   3   4   27.12    1.27 
   3   3  -4   26.06    1.67 
  -3   3   4   26.02    1.55 
  -3   3   4   26.30    1.19 
  -3   3   4   23.46    1.38 
   2  -3  -4   50.62    1.82 
   2  -3  -4   51.06    1.82 
   2  -3  -4   51.21    2.07 
  -2  -3   4   51.91    2.09 
   2  -3  -4   50.88    1.81 
  -2  -3   4   52.30    1.95 
  -2  -3   4   49.43    2.28 
   2  -3  -4   52.87    2.19 
   2  -3  -4   51.35    1.80 
  -2  -3   4   51.32    2.03 
  -2   3   4   52.38    1.90 
   2   3  -4   50.98    2.08 
  -2   3   4   54.38    1.85 
  -2   3   4   53.27    2.20 
   2   3  -4   53.38    1.95 
   2   3  -4   51.93    2.01 
   2   3  -4   49.34    2.24 
  -2   3   4   51.14    2.04 
  -1  -3   4   31.83    1.05 
   1  -3  -4   30.90    1.37 
   1  -3  -4   30.39    1.20 
   1  -3  -4   29.79    1.52 
  -1  -3   4   31.46    1.47 
   1  -3  -4   31.42    1.62 
   1  -3  -4   30.00    1.19 
  -1  -3   4   30.88    0.99 
  -1  -3   4   30.68    1.57 
   1  -3  -4   29.94    1.36 
  -1  -3   4   32.22    1.50 
  -1  -3   4   31.57    1.80 
   1   3  -4   28.33    1.64 
  -1   3   4   31.61    1.51 
   1   3  -4   30.67    1.44 
  -1   3   4   31.43    1.38 
   1   3  -4   30.50    1.56 
  -1   3   4   30.20    1.39 
  -1   3   4   30.07    1.60 
   1   3  -4   30.93    1.45 
   0  -3   4    0.13    0.38 
   0  -3   4    0.15    0.36 
   0  -3  -4   -0.29    0.40 
   0  -3   4    0.33    0.28 
   0  -3   4    0.05    0.41 
   0  -3   4    0.12    0.41 
   0  -3  -4   -0.14    0.22 
   0  -3  -4    0.06    0.23 
   0  -3  -4    0.09    0.36 
   0  -3  -4   -0.14    0.47 
   0  -3   4    0.04    0.25 
   0  -3  -4    0.80    0.44 
   0   3   4    0.21    0.39 
   0   3   4    0.07    0.37 
   0   3  -4    0.64    0.52 
   0   3  -4   -0.03    0.39 
   0   3   4    0.43    0.40 
   0   3  -4   -0.35    0.31 
   0   3   4    0.50    0.46 
   0   3  -4    0.64    0.45 
  -1  -3  -4   16.65    1.13 
  -1  -3  -4   18.17    1.23 
   1  -3   4   16.64    1.18 
   1  -3   4   17.63    1.00 
  -1  -3  -4   17.25    1.11 
  -1  -3  -4   18.27    1.41 
   1  -3   4   17.15    1.21 
   1  -3   4   18.23    0.93 
   1  -3   4   18.28    0.95 
   1  -3   4   18.07    1.23 
   1   3   4   19.66    1.21 
  -1   3  -4   16.98    1.22 
  -1   3  -4   17.95    1.24 
  -1   3  -4   17.71    1.16 
   1   3   4   17.22    1.12 
  -1   3  -4   16.79    1.00 
   1   3   4   18.77    1.23 
   1   3   4   18.84    1.16 
   2  -3   4   36.30    1.75 
  -2  -3  -4   36.93    1.82 
   2  -3   4   36.12    1.74 
   2  -3   4   30.86    1.43 
  -2  -3  -4   34.70    1.65 
   2  -3   4   35.39    1.73 
  -2  -3  -4   35.14    1.67 
   2  -3   4   37.44    1.51 
  -2  -3  -4   35.87    1.66 
   2  -3   4   35.24    1.38 
   2   3   4   34.89    1.65 
  -2   3  -4   35.74    1.77 
  -2   3  -4   33.78    1.69 
   2   3   4   34.55    1.67 
   2   3   4   35.88    1.68 
  -2   3  -4   36.19    1.47 
  -2   3  -4   35.46    1.70 
   2   3   4   36.28    1.66 
  -3  -3  -4   49.85    2.14 
   3  -3   4   55.70    2.21 
  -3  -3  -4   51.57    2.15 
   3  -3   4   50.41    2.20 
   3  -3   4   52.49    2.19 
  -3  -3  -4   52.46    2.01 
   3  -3   4   54.23    1.76 
   3  -3   4   51.52    2.01 
  -3  -3  -4   51.74    2.14 
   3  -3   4   50.17    1.97 
   3   3   4   51.86    2.15 
   3   3   4   54.81    2.22 
   3   3   4   48.76    2.13 
  -3   3  -4   54.81    2.21 
  -3   3  -4   49.46    2.14 
  -3   3  -4   50.66    2.17 
  -3   3  -4   56.37    1.86 
   4  -3   4    7.65    0.84 
  -4  -3  -4    8.34    0.81 
  -4  -3  -4    8.17    0.93 
   4  -3   4    6.97    0.84 
  -4  -3  -4    8.10    1.02 
   4  -3   4    7.59    0.62 
   4  -3   4    8.26    0.92 
   4  -3   4    7.28    0.93 
   4  -3   4    8.45    1.03 
   4   3   4    8.30    0.95 
  -4   3  -4    7.51    0.67 
   4   3   4    8.54    1.22 
   4   3   4    7.49    0.80 
  -4   3  -4    7.41    1.00 
   4   3   4    7.65    0.95 
  -4   3  -4    8.10    0.98 
  -4   3  -4    7.37    0.91 
   5  -3   4    5.47    0.94 
   5  -3   4    6.82    0.94 
   5  -3   4    5.80    0.91 
   5  -3   4    6.15    0.59 
   5  -3   4    6.62    0.89 
  -5  -3  -4    5.04    0.70 
   5  -3   4    5.70    0.99 
  -5  -3  -4    9.18    0.95 
  -5  -3  -4    5.42    1.01 
   5   3   4    8.64    1.22 
  -5   3  -4    6.63    1.06 
  -5   3  -4    6.42    0.86 
   5   3   4    5.86    0.73 
   5   3   4    6.39    0.98 
   5   3   4    5.94    1.00 
  -5   3  -4    8.28    1.08 
  -5   3  -4    6.13    0.57 
  -6  -3  -4   28.35    1.57 
   6  -3   4   31.01    1.90 
   6  -3   4   29.35    1.76 
  -6  -3  -4   28.82    1.30 
  -6  -3  -4   27.66    1.82 
   6  -3   4   28.34    1.68 
  -6  -3  -4   28.64    1.35 
   6  -3   4   29.65    1.59 
   6  -3   4   27.92    1.69 
   6   3   4   28.29    1.12 
   6   3   4   29.34    1.81 
   6   3   4   29.70    1.75 
   6   3   4   28.72    1.06 
  -6   3  -4   29.37    1.11 
   6   3   4   29.38    1.75 
   6   3   4   26.84    1.75 
  -6   3  -4   28.50    1.58 
  -6   3  -4   29.13    1.79 
  -6   3  -4   32.03    1.97 
  -7  -3  -4   63.47    2.12 
   7  -3   4   63.43    2.84 
  -7  -3  -4   63.07    1.97 
   7  -3   4   62.57    2.45 
   7  -3   4   60.67    2.73 
  -7  -3  -4   63.23    2.49 
   7  -3   4   61.74    2.69 
   7  -3   4   63.94    2.70 
  -7   3  -4   58.48    2.69 
   7   3   4   63.64    2.70 
   7   3   4   62.01    2.02 
   7   3   4   63.38    2.67 
  -7   3  -4   60.76    2.41 
   7   3   4   64.02    2.79 
   7   3   4   64.42    2.73 
   7   3   4   62.15    1.93 
  -7   3  -4   57.27    2.81 
   8  -3   4    0.61    0.76 
  -8  -3  -4    0.08    0.28 
  -8  -3  -4    0.25    0.50 
   8  -3   4    0.05    0.71 
   8  -3   4    0.83    0.72 
  -8  -3  -4    0.43    0.36 
  -8   3  -4    0.48    0.53 
   8   3   4    0.36    0.66 
   8   3   4    0.15    0.53 
   8   3   4    0.35    0.62 
   8   3   4    0.72    0.77 
   8   3   4    0.84    0.48 
  -8   3  -4    1.97    0.79 
   8   3   4    0.45    0.40 
  -8   3  -4    0.23    0.81 
  -9  -3  -4   17.30    1.38 
   9  -3   4   17.30    1.65 
   9  -3   4   16.74    1.55 
   9   3   4   17.39    1.20 
   9   3   4   18.40    1.11 
   9   3   4   18.11    1.56 
   9   3   4   16.15    1.45 
   9   3   4   17.74    1.76 
  -9   3  -4   16.35    1.61 
  -9   3  -4   16.26    1.23 
  10  -3   4    4.99    1.10 
  10  -3   4    6.25    1.29 
  10   3   4    6.16    1.20 
  10   3   4    6.77    0.94 
  10   3   4    6.74    1.50 
 -10   3  -4    6.70    0.90 
  10   3   4    6.58    0.84 
 -10   3  -4    4.72    1.09 
  11  -3   4   22.04    1.86 
  11  -3   4   17.95    1.85 
  11   3   4   19.26    2.03 
  11   3   4   20.20    1.43 
 -11   3  -4   23.00    1.28 
  11   3   4   21.57    1.76 
  11   3   4   21.65    1.59 
 -11   3  -4   18.40    1.80 
  11   3   4   20.03    1.37 
  12  -3   4    0.19    0.87 
  12   3   4    1.22    0.99 
  12   3   4    0.79    0.73 
 -12   3  -4    2.84    1.13 
  12   3   4    1.93    0.80 
  12   3   4    0.78    0.83 
 -12   3  -4    0.24    0.44 
  11  -4  -4    0.19    0.73 
  11  -4  -4    0.21    0.76 
  11  -4  -4    0.44    0.51 
  11   4  -4    0.69    0.65 
 -11   4   4    0.45    0.68 
  11   4  -4    3.70    1.23 
  10  -4  -4    4.88    0.77 
  10  -4  -4    3.99    1.03 
 -10  -4   4    4.09    1.02 
  10  -4  -4    2.61    1.07 
 -10   4   4    3.91    0.94 
  10   4  -4    5.11    0.91 
  10   4  -4    5.41    1.44 
 -10   4   4    6.28    0.95 
  -9  -4   4    4.28    0.84 
  -9  -4   4    1.53    0.64 
   9  -4  -4    2.40    0.94 
   9  -4  -4    1.83    0.87 
  -9  -4   4    2.69    0.90 
   9  -4  -4    2.75    0.64 
  -9   4   4    2.91    0.74 
   9   4  -4    3.67    0.81 
   9   4  -4    2.95    0.61 
   9   4  -4    1.53    1.09 
  -9   4   4    3.28    0.93 
   8  -4  -4    5.95    1.24 
   8  -4  -4    5.78    0.84 
  -8  -4   4    5.92    1.00 
  -8  -4   4    6.49    1.08 
  -8  -4   4    5.81    1.12 
  -8  -4   4    6.42    1.29 
   8  -4  -4    4.17    1.01 
   8   4  -4    6.85    0.99 
  -8   4   4    6.98    1.02 
  -8   4   4    5.38    1.09 
   8   4  -4    5.72    1.41 
   8   4  -4    5.85    0.76 
  -7  -4   4   12.05    1.24 
  -7  -4   4   12.09    1.30 
   7  -4  -4   11.06    1.23 
   7  -4  -4    9.40    1.24 
   7  -4  -4   12.32    1.32 
   7  -4  -4   11.63    1.28 
   7  -4  -4   10.35    0.90 
  -7  -4   4   10.23    1.17 
  -7  -4   4   11.20    1.08 
   7   4  -4   13.87    1.88 
   7   4  -4   11.93    1.06 
  -7   4   4    9.24    0.99 
   7   4  -4   11.58    1.01 
  -7   4   4   11.83    1.26 
   6  -4  -4    7.49    0.81 
   6  -4  -4    7.88    1.33 
   6  -4  -4    8.69    1.10 
   6  -4  -4    8.76    1.23 
  -6  -4   4    6.35    0.90 
  -6  -4   4    7.32    0.98 
  -6  -4   4    9.18    1.32 
   6  -4  -4    7.96    1.10 
  -6  -4   4    5.21    0.86 
   6   4  -4    6.39    0.87 
   6   4  -4    7.14    0.88 
   6   4  -4    7.80    1.30 
  -6   4   4    6.44    0.82 
  -6   4   4   10.09    1.43 
   6   4  -4    6.13    0.99 
  -5  -4   4   32.26    1.69 
  -5  -4   4   31.27    1.83 
  -5  -4   4   29.89    1.80 
   5  -4  -4   29.93    1.75 
  -5  -4   4   32.44    1.72 
   5  -4  -4   31.27    1.84 
   5  -4  -4   30.80    1.81 
   5  -4  -4   31.40    1.47 
   5  -4  -4   30.46    1.18 
   5  -4  -4   29.88    1.71 
  -5   4   4   30.93    1.85 
   5   4  -4   35.90    1.72 
   5   4  -4   30.85    2.01 
   5   4  -4   31.26    1.76 
   5   4  -4   29.91    1.60 
  -5   4   4   30.77    1.76 
  -5   4   4   32.45    1.20 
  -5   4   4   29.98    1.51 
   4  -4  -4   23.84    1.06 
   4  -4  -4   21.19    1.21 
  -4  -4   4   20.65    1.38 
   4  -4  -4   21.77    1.48 
  -4  -4   4   21.49    1.39 
   4  -4  -4   20.54    1.51 
  -4  -4   4   19.46    1.41 
  -4  -4   4   20.55    1.52 
   4  -4  -4   22.22    1.38 
  -4   4   4   20.37    1.09 
   4   4  -4   20.86    1.40 
  -4   4   4   21.51    1.44 
  -4   4   4   21.06    1.55 
   4   4  -4   20.11    1.31 
  -4   4   4   21.58    1.24 
   4   4  -4   20.31    1.60 
   4   4  -4   22.24    1.40 
  -3  -4   4   28.67    1.63 
   3  -4  -4   30.79    1.31 
   3  -4  -4   29.23    1.65 
   3  -4  -4   27.71    1.44 
  -3  -4   4   29.17    1.57 
   3  -4  -4   29.13    1.72 
   3  -4  -4   30.50    1.46 
  -3  -4   4   27.37    1.72 
  -3  -4   4   26.41    1.57 
  -3   4   4   28.23    1.76 
  -3   4   4   29.67    1.45 
   3   4  -4   27.07    1.74 
   3   4  -4   28.27    1.62 
   3   4  -4   29.30    1.58 
   3   4  -4   26.53    1.49 
  -3   4   4   28.44    1.37 
  -3   4   4   28.65    1.59 
  -2  -4   4    1.11    0.60 
  -2  -4   4    1.57    0.51 
  -2  -4   4    1.80    0.81 
  -2  -4   4    2.61    0.75 
   2  -4  -4    1.33    0.59 
   2  -4  -4    1.71    0.49 
   2  -4  -4    1.62    0.48 
   2  -4  -4    1.55    0.55 
   2  -4  -4    1.14    0.61 
  -2   4   4    2.84    0.68 
   2   4  -4    1.29    0.55 
   2   4  -4    1.65    0.59 
   2   4  -4    1.09    0.56 
  -2   4   4    1.94    0.71 
  -2   4   4    1.14    0.50 
   2   4  -4    2.95    0.81 
  -2   4   4    1.07    0.53 
   1  -4  -4  139.21    4.33 
  -1  -4   4  136.35    4.28 
  -1  -4   4  137.86    4.01 
   1  -4  -4  138.42    4.14 
   1  -4  -4  140.43    3.67 
  -1  -4   4  145.33    4.53 
   1  -4  -4  144.14    4.08 
   1  -4  -4  139.68    3.91 
   1  -4  -4  139.52    3.64 
  -1  -4   4  139.70    4.17 
   1   4  -4  140.48    4.12 
  -1   4   4  138.74    3.92 
  -1   4   4  141.28    4.06 
   1   4  -4  138.47    4.31 
  -1   4   4  138.71    4.36 
   1   4  -4  145.32    4.37 
  -1   4   4  134.92    4.06 
   1   4  -4  141.36    4.05 
   0  -4   4   71.31    2.06 
   0  -4   4   72.07    2.68 
   0  -4   4   71.65    2.77 
   0  -4  -4   71.72    1.99 
   0  -4   4   70.33    2.44 
   0  -4   4   71.79    2.06 
   0  -4  -4   72.78    2.65 
   0  -4  -4   69.22    2.53 
   0  -4  -4   73.19    2.01 
   0  -4  -4   73.19    2.52 
   0  -4  -4   70.93    2.74 
   0  -4   4   72.06    2.77 
   0   4  -4   69.96    2.60 
   0   4  -4   70.47    2.76 
   0   4   4   70.08    2.74 
   0   4  -4   71.50    2.74 
   0   4   4   71.28    2.55 
   0   4   4   71.23    2.50 
   0   4  -4   71.93    2.43 
   0   4   4   71.29    2.54 
   1  -4   4  114.82    3.68 
  -1  -4  -4  109.73    3.54 
   1  -4   4  119.55    3.17 
   1  -4   4  116.22    3.30 
   1  -4   4  113.22    3.12 
  -1  -4  -4  111.46    3.51 
   1  -4   4  109.35    3.65 
  -1  -4  -4  114.65    3.71 
   1  -4   4  114.00    3.74 
  -1  -4  -4  110.25    3.65 
   1   4   4  113.05    3.54 
  -1   4  -4  116.84    3.73 
  -1   4  -4  111.00    3.74 
   1   4   4  112.96    3.70 
   1   4   4  113.39    3.49 
  -1   4  -4  110.32    3.58 
   1   4   4  107.90    3.54 
  -1   4  -4  113.62    3.28 
   2  -4   4    5.02    0.68 
  -2  -4  -4    5.28    0.92 
   2  -4   4    3.86    0.82 
   2  -4   4    2.70    0.72 
   2  -4   4    4.10    0.69 
  -2  -4  -4    4.84    0.84 
   2  -4   4    4.11    0.66 
  -2  -4  -4    4.92    1.03 
   2  -4   4    4.06    0.88 
  -2   4  -4    4.97    0.96 
   2   4   4    5.43    0.93 
   2   4   4    5.71    0.99 
  -2   4  -4    3.07    0.76 
   2   4   4    4.68    0.84 
  -2   4  -4    5.27    0.96 
  -2   4  -4    5.00    0.72 
   2   4   4    4.67    0.84 
   3  -4   4   11.50    1.18 
   3  -4   4   10.80    0.92 
  -3  -4  -4   11.13    1.12 
   3  -4   4   10.96    1.15 
   3  -4   4   11.31    0.77 
   3  -4   4   10.91    0.97 
   3  -4   4    9.99    1.10 
  -3   4  -4   11.36    1.15 
   3   4   4   11.63    1.06 
   3   4   4   11.88    1.16 
   3   4   4   12.11    1.08 
  -3   4  -4   10.85    1.12 
   3   4   4   11.59    1.11 
  -3   4  -4   12.34    0.90 
   4  -4   4   28.25    1.12 
  -4  -4  -4   28.05    1.71 
  -4  -4  -4   28.09    1.51 
  -4  -4  -4   28.06    1.59 
   4  -4   4   28.66    1.53 
   4  -4   4   27.72    1.76 
   4  -4   4   27.23    1.68 
   4  -4   4   28.12    1.55 
   4  -4   4   29.42    1.71 
   4   4   4   25.89    1.63 
  -4   4  -4   26.50    1.18 
   4   4   4   24.32    1.52 
  -4   4  -4   27.19    1.70 
   4   4   4   27.52    1.51 
  -4   4  -4   25.42    1.66 
  -4   4  -4   26.25    1.65 
   4   4   4   26.29    1.67 
   5  -4   4   22.98    1.62 
   5  -4   4   24.39    1.59 
   5  -4   4   22.66    1.47 
  -5  -4  -4   23.45    1.45 
  -5  -4  -4   28.89    1.47 
   5  -4   4   26.24    1.59 
   5  -4   4   21.98    1.66 
  -5  -4  -4   22.87    1.65 
   5   4   4   22.70    1.56 
   5   4   4   25.45    1.63 
  -5   4  -4   23.39    1.68 
  -5   4  -4   21.51    1.61 
   5   4   4   23.89    1.37 
  -5   4  -4   21.72    1.55 
   5   4   4   24.76    1.64 
   5   4   4   21.78    1.59 
  -6  -4  -4    3.94    0.78 
  -6  -4  -4    4.38    0.76 
   6  -4   4    4.48    0.93 
   6  -4   4    3.82    0.99 
  -6  -4  -4    2.37    0.92 
   6  -4   4    3.50    0.82 
   6  -4   4    3.93    0.86 
   6  -4   4    4.06    0.86 
   6   4   4    5.75    1.05 
  -6   4  -4    3.51    0.94 
   6   4   4    4.77    0.91 
   6   4   4    5.02    1.14 
   6   4   4    5.67    0.77 
  -6   4  -4    5.73    1.11 
  -6   4  -4    5.01    1.04 
   6   4   4    3.54    0.88 
   7  -4   4    3.49    0.74 
   7  -4   4    3.36    0.89 
  -7  -4  -4    2.70    0.98 
  -7  -4  -4    3.82    0.79 
   7  -4   4    2.45    0.86 
  -7  -4  -4    2.92    0.64 
   7  -4   4    1.88    0.72 
  -7   4  -4    2.69    0.78 
   7   4   4    2.94    0.86 
   7   4   4    2.70    1.15 
  -7   4  -4    2.43    0.85 
  -7   4  -4    2.70    1.00 
   7   4   4    1.76    0.90 
  -8  -4  -4    4.38    1.15 
   8  -4   4    6.62    1.33 
  -8  -4  -4    6.57    0.86 
  -8  -4  -4    4.23    0.84 
   8  -4   4    5.65    1.13 
  -8  -4  -4    4.61    0.63 
   8   4   4    6.88    0.60 
  -8   4  -4    6.37    1.17 
   8   4   4    5.41    1.27 
  -8   4  -4    4.84    1.01 
   8   4   4    4.54    1.12 
   8   4   4    6.18    0.79 
   9  -4   4   10.29    1.35 
  -9  -4  -4    7.60    1.00 
   9  -4   4   10.62    1.44 
  -9   4  -4    8.47    1.30 
   9   4   4    8.35    0.72 
   9   4   4    6.75    0.87 
   9   4   4   11.82    1.67 
   9   4   4   10.31    1.57 
  -9   4  -4    9.44    1.12 
  10  -4   4    7.66    1.41 
  10  -4   4    4.50    1.13 
 -10   4  -4    2.93    1.04 
  10   4   4    4.88    0.86 
 -10   4  -4    4.13    0.92 
  10   4   4    6.59    1.35 
  10   4   4    5.45    1.32 
  10   4   4    5.74    0.73 
  11  -4   4    0.03    0.70 
 -11   4  -4    0.73    0.60 
  11   4   4    0.92    0.66 
  11   4   4    1.59    1.09 
  11   4   4   -0.63    0.73 
  11   4   4    1.64    0.75 
  11   4   4    0.86    0.78 
 -11   4  -4    2.66    1.04 
  10  -5  -4   11.59    1.07 
 -10  -5   4   13.79    1.55 
  10  -5  -4    9.67    1.57 
  10  -5  -4   11.21    1.72 
 -10  -5   4   10.93    1.04 
 -10   5   4   11.73    1.28 
 -10   5   4   10.46    1.37 
  10   5  -4   10.56    1.68 
   9  -5  -4    2.81    1.04 
   9  -5  -4    1.70    0.89 
  -9  -5   4    3.04    0.99 
  -9  -5   4    4.38    0.95 
   9  -5  -4    3.10    0.73 
  -9   5   4    3.00    0.87 
   9   5  -4    4.24    1.23 
  -9   5   4    4.09    1.02 
   9   5  -4    3.81    0.75 
  -8  -5   4    0.17    0.71 
  -8  -5   4    1.05    0.82 
  -8  -5   4    1.17    0.68 
   8  -5  -4    0.93    0.82 
   8  -5  -4    0.95    0.78 
   8  -5  -4    0.51    0.55 
  -8  -5   4    0.42    0.62 
   8   5  -4    1.60    0.62 
   8   5  -4    0.25    0.78 
   8   5  -4    2.24    0.69 
  -8   5   4    0.77    0.74 
  -8   5   4    2.14    0.77 
   7  -5  -4   17.62    1.55 
  -7  -5   4   16.75    1.32 
  -7  -5   4   17.67    1.56 
   7  -5  -4   16.69    1.22 
   7  -5  -4   17.82    1.57 
  -7  -5   4   17.03    1.45 
  -7  -5   4   14.69    1.42 
   7   5  -4   17.07    1.38 
   7   5  -4   17.43    1.30 
  -7   5   4   16.28    1.57 
   7   5  -4   11.16    1.47 
  -7   5   4   17.39    1.31 
   6  -5  -4   28.55    1.90 
   6  -5  -4   30.22    1.58 
  -6  -5   4   27.38    1.81 
   6  -5  -4   31.00    1.95 
  -6  -5   4   26.07    1.64 
  -6  -5   4   29.79    1.92 
  -6  -5   4   29.98    1.84 
   6  -5  -4   27.61    1.81 
  -6   5   4   27.72    1.64 
   6   5  -4   29.59    1.74 
   6   5  -4   25.98    1.90 
  -6   5   4   28.80    1.92 
   6   5  -4   29.58    1.69 
   5  -5  -4    6.31    0.94 
   5  -5  -4    4.96    1.06 
   5  -5  -4    7.04    1.17 
   5  -5  -4    6.11    1.19 
  -5  -5   4    6.15    1.22 
  -5  -5   4    6.66    1.13 
  -5  -5   4    7.21    1.17 
  -5   5   4    5.91    1.03 
   5   5  -4    6.12    1.09 
   5   5  -4    7.00    1.14 
  -5   5   4    4.51    1.03 
   5   5  -4    6.69    1.18 
   5   5  -4    4.90    1.19 
  -5   5   4    6.73    1.01 
  -4  -5   4    3.78    0.78 
  -4  -5   4    2.68    0.87 
   4  -5  -4    3.24    0.80 
   4  -5  -4    3.62    0.81 
   4  -5  -4    2.78    0.77 
   4  -5  -4    4.88    1.07 
  -4  -5   4    4.45    0.95 
  -4   5   4    4.56    0.87 
   4   5  -4    4.16    0.91 
   4   5  -4    4.96    0.98 
  -4   5   4    4.08    0.71 
   4   5  -4    3.14    0.96 
  -4   5   4    4.29    1.12 
  -4   5   4    3.81    0.94 
   4   5  -4    3.81    0.87 
   3  -5  -4    8.51    0.92 
  -3  -5   4    8.97    1.30 
   3  -5  -4    7.89    0.97 
   3  -5  -4   10.01    1.33 
   3  -5  -4    8.58    1.28 
  -3  -5   4    8.68    1.08 
  -3  -5   4    9.46    1.22 
  -3  -5   4    9.58    1.10 
  -3   5   4    8.50    1.01 
   3   5  -4    7.82    0.97 
  -3   5   4    8.05    1.20 
   3   5  -4    9.08    1.18 
  -3   5   4    8.07    0.87 
   3   5  -4    8.84    1.10 
   3   5  -4    8.52    1.04 
  -3   5   4    7.60    0.99 
  -2  -5   4   17.74    1.29 
   2  -5  -4   16.88    1.34 
   2  -5  -4   15.59    1.42 
  -2  -5   4   15.16    1.33 
   2  -5  -4   15.47    1.07 
   2  -5  -4   16.50    1.27 
  -2  -5   4   16.68    1.63 
  -2  -5   4   16.89    1.40 
  -2   5   4   15.96    1.09 
   2   5  -4   17.79    1.28 
  -2   5   4   15.31    1.41 
   2   5  -4   18.12    1.43 
  -2   5   4   17.99    1.32 
   2   5  -4   16.87    1.41 
  -2   5   4   15.65    1.23 
   2   5  -4   16.21    1.31 
  -1  -5   4    8.85    1.14 
  -1  -5   4    9.40    1.54 
  -1  -5   4    8.13    1.04 
   1  -5  -4    7.92    0.74 
   1  -5  -4    7.68    1.02 
  -1  -5   4    7.36    0.89 
   1  -5  -4    7.90    1.11 
   1  -5  -4    7.32    1.00 
   1   5  -4    8.13    1.07 
   1   5  -4    8.05    1.11 
   1   5  -4    8.68    0.91 
  -1   5   4    5.17    0.95 
  -1   5   4    8.36    0.99 
   1   5  -4    8.15    1.05 
  -1   5   4    9.21    0.96 
  -1   5   4    8.08    0.89 
   0  -5   4    0.39    0.54 
   0  -5   4    1.16    0.70 
   0  -5  -4    0.11    0.30 
   0  -5  -4    0.56    0.58 
   0  -5  -4    0.25    0.62 
   0  -5  -4    0.59    0.59 
   0  -5   4   -0.31    0.49 
   0  -5   4    0.20    0.32 
   0  -5   4    0.24    0.44 
   0  -5   4    0.13    0.31 
   0   5  -4    0.05    0.55 
   0   5  -4    0.26    0.45 
   0   5   4   -0.07    0.45 
   0   5  -4    0.78    0.61 
   0   5   4    0.31    0.60 
   0   5   4    0.43    0.49 
   0   5   4   -0.14    0.48 
   0   5  -4    1.98    0.67 
   1  -5   4    8.37    0.76 
   1  -5   4   10.44    1.22 
   1  -5   4    8.59    0.74 
  -1  -5  -4    9.14    1.13 
   1  -5   4    7.54    1.08 
  -1  -5  -4    9.12    1.29 
   1  -5   4    8.08    0.83 
  -1  -5  -4    8.01    1.08 
   1  -5   4    8.03    1.08 
  -1   5  -4    8.64    0.86 
   1   5   4    8.53    0.94 
  -1   5  -4    7.63    1.10 
  -1   5  -4    9.17    1.28 
   1   5   4    8.15    1.10 
  -1   5  -4    9.15    1.26 
   1   5   4    7.65    1.10 
  -2  -5  -4   14.28    1.39 
   2  -5   4   12.50    1.31 
   2  -5   4   14.11    1.00 
  -2  -5  -4   13.22    1.29 
   2  -5   4   14.56    0.98 
  -2  -5  -4   13.95    1.32 
   2  -5   4   13.84    1.33 
   2  -5   4   14.29    1.00 
   2  -5   4   12.53    1.30 
   2   5   4   14.87    1.22 
  -2   5  -4   14.11    1.38 
   2   5   4   14.46    1.32 
   2   5   4   16.45    1.36 
   2   5   4   14.84    1.15 
  -2   5  -4   13.06    0.96 
   2   5   4   14.53    1.24 
  -2   5  -4   14.60    1.36 
  -2   5  -4   16.54    1.38 
   3  -5   4   15.36    1.38 
   3  -5   4   14.35    0.89 
   3  -5   4   13.49    1.33 
   3  -5   4   14.39    1.37 
  -3  -5  -4   15.08    1.29 
  -3  -5  -4   14.00    1.36 
   3  -5   4   13.58    1.06 
   3  -5   4   13.55    1.09 
   3   5   4   13.54    1.31 
  -3   5  -4   11.97    1.30 
  -3   5  -4   15.18    1.42 
  -3   5  -4   12.94    1.31 
   3   5   4   14.83    1.29 
   3   5   4   13.13    1.21 
  -3   5  -4   13.03    0.97 
   3   5   4   13.93    1.13 
   3   5   4   15.32    1.30 
  -4  -5  -4    3.46    0.91 
  -4  -5  -4    4.63    0.89 
   4  -5   4    6.28    0.99 
   4  -5   4    4.48    1.09 
   4  -5   4    4.76    0.89 
   4  -5   4    4.81    1.00 
   4  -5   4    4.81    1.06 
  -4  -5  -4    5.75    1.01 
   4  -5   4    5.08    0.56 
  -4   5  -4    4.83    1.10 
   4   5   4    5.50    1.00 
   4   5   4    4.41    0.96 
  -4   5  -4    4.97    0.69 
   4   5   4    5.81    1.00 
  -4   5  -4    4.86    1.06 
   4   5   4    5.58    0.92 
   4   5   4    4.92    1.01 
  -4   5  -4    5.44    1.17 
   5  -5   4    0.85    0.65 
   5  -5   4    1.44    0.69 
   5  -5   4    1.94    0.84 
  -5  -5  -4    1.06    0.73 
  -5  -5  -4    2.50    0.68 
   5  -5   4    0.89    0.61 
   5  -5   4    0.42    0.57 
  -5  -5  -4    1.52    0.64 
  -5   5  -4    2.20    0.85 
   5   5   4    1.82    0.85 
   5   5   4    0.65    0.55 
   5   5   4    1.25    0.69 
  -5   5  -4    0.94    0.71 
  -5   5  -4    1.04    0.77 
   5   5   4    1.28    0.63 
   5   5   4    0.88    0.62 
  -6  -5  -4    9.97    1.06 
  -6  -5  -4   12.09    1.42 
   6  -5   4   10.28    1.19 
   6  -5   4   10.32    1.20 
   6  -5   4   10.72    1.37 
   6  -5   4   10.28    1.29 
  -6  -5  -4   10.05    1.04 
  -6   5  -4    9.48    1.26 
   6   5   4   10.39    1.03 
   6   5   4    8.37    1.10 
   6   5   4   10.37    1.24 
  -6   5  -4   10.77    1.36 
   7  -5   4   36.08    2.21 
   7  -5   4   34.55    2.10 
  -7  -5  -4   34.62    1.70 
  -7  -5  -4   35.18    2.27 
  -7  -5  -4   33.34    1.76 
   7   5   4   33.24    1.88 
  -7   5  -4   39.96    2.18 
   7   5   4   39.76    1.76 
   7   5   4   35.52    2.18 
  -7   5  -4   33.34    2.17 
  -8  -5  -4    1.10    0.92 
   8  -5   4    0.68    0.88 
  -8  -5  -4    0.83    0.55 
   8  -5   4    2.16    0.79 
  -8  -5  -4    1.03    0.52 
  -8   5  -4    1.23    0.70 
   8   5   4    1.71    0.84 
   8   5   4    0.93    0.77 
  -8   5  -4    0.24    0.72 
  -9  -5  -4    8.08    0.89 
  -9  -5  -4   10.25    1.60 
   9  -5   4   11.99    1.79 
  -9  -5  -4    8.94    0.77 
  -9  -5  -4    7.54    0.98 
   9   5   4    8.45    1.41 
   9   5   4   11.71    1.38 
  -9   5  -4    8.92    1.20 
  -9   5  -4    6.50    1.20 
  10  -5   4    1.39    0.97 
  10  -5   4    4.09    1.12 
 -10   5  -4    1.99    0.97 
  10   5   4    5.08    1.24 
 -10   5  -4    3.48    0.89 
   9  -6  -4    4.80    1.19 
   9  -6  -4    5.48    1.23 
  -9  -6   4    4.51    1.01 
   9  -6  -4    6.52    0.99 
  -9  -6   4    4.56    1.21 
  -9   6   4    3.44    1.07 
   9   6  -4    5.71    0.98 
  -9   6   4    5.83    1.22 
   9   6  -4    5.56    1.29 
  -8  -6   4    4.71    1.13 
   8  -6  -4    4.08    1.09 
   8  -6  -4    2.70    1.04 
   8  -6  -4    3.61    0.87 
  -8  -6   4    3.64    0.94 
   8   6  -4    3.44    0.85 
   8   6  -4    2.01    0.99 
  -8   6   4    3.49    0.95 
  -8   6   4    2.46    1.01 
   7  -6  -4    0.51    0.72 
   7  -6  -4    1.64    0.86 
  -7  -6   4    0.30    0.63 
  -7  -6   4    1.22    0.88 
  -7  -6   4    1.11    0.75 
  -7  -6   4    1.20    0.88 
   7  -6  -4    0.78    0.63 
  -7   6   4    0.98    0.70 
  -7   6   4    0.67    0.76 
   7   6  -4    1.27    0.83 
   7   6  -4    1.99    0.76 
   6  -6  -4    5.83    1.15 
  -6  -6   4    6.08    1.08 
  -6  -6   4    3.44    0.98 
   6  -6  -4    5.62    0.97 
  -6  -6   4    4.46    1.06 
  -6  -6   4    5.31    1.06 
  -6   6   4    5.26    1.06 
   6   6  -4    5.36    1.05 
  -6   6   4    6.12    1.27 
   6   6  -4    5.05    1.13 
   5  -6  -4    2.60    0.95 
  -5  -6   4    1.19    0.61 
  -5  -6   4    1.53    0.78 
  -5  -6   4    1.39    0.75 
   5  -6  -4    3.94    0.94 
  -5  -6   4    2.62    0.89 
   5  -6  -4    2.32    0.79 
   5   6  -4    2.56    0.86 
   5   6  -4    2.02    0.83 
  -5   6   4    1.70    0.80 
  -5   6   4    1.30    0.84 
  -4  -6   4   23.58    1.73 
  -4  -6   4   20.99    1.61 
   4  -6  -4   21.37    1.47 
  -4  -6   4   20.21    1.61 
   4  -6  -4   21.85    1.53 
   4  -6  -4   20.62    1.59 
  -4  -6   4   23.01    1.70 
   4  -6  -4   20.85    1.78 
  -4   6   4   20.46    1.04 
   4   6  -4   22.46    1.62 
  -4   6   4   23.68    1.22 
  -4   6   4   20.77    1.77 
   4   6  -4   20.78    1.61 
   4   6  -4   21.05    1.67 
  -3  -6   4    2.35    0.89 
  -3  -6   4    1.26    0.78 
  -3  -6   4    1.24    0.72 
   3  -6  -4    1.02    0.63 
  -3  -6   4    1.10    0.76 
   3  -6  -4    1.70    0.73 
   3  -6  -4    1.23    0.79 
   3  -6  -4    1.70    0.77 
  -3   6   4    1.31    0.48 
   3   6  -4    1.47    0.79 
  -3   6   4    1.38    0.71 
  -3   6   4    2.00    0.86 
   3   6  -4    1.57    0.77 
   3   6  -4    2.77    0.67 
  -3   6   4    2.23    0.77 
  -3   6   4    1.53    0.61 
   3   6  -4    1.70    0.73 
   2  -6  -4   12.32    1.24 
  -2  -6   4    9.37    1.43 
   2  -6  -4    8.37    1.44 
  -2  -6   4    9.31    1.11 
   2  -6  -4    7.70    0.90 
  -2  -6   4   10.22    1.25 
   2  -6  -4    9.00    1.17 
  -2  -6   4   10.03    1.26 
   2   6  -4    8.87    1.31 
  -2   6   4    9.26    1.45 
  -2   6   4    8.84    0.94 
  -2   6   4    7.92    0.85 
   2   6  -4    8.95    1.22 
   2   6  -4    8.95    1.16 
  -2   6   4    8.33    1.14 
   2   6  -4    8.50    1.05 
  -2   6   4    8.90    1.29 
  -1  -6   4   12.58    1.36 
   1  -6  -4   13.19    0.96 
   1  -6  -4    9.55    1.31 
  -1  -6   4   11.92    1.53 
  -1  -6   4   12.13    1.35 
  -1  -6   4   11.42    1.13 
   1  -6  -4   13.19    1.29 
   1  -6  -4   12.37    1.30 
  -1   6   4   14.58    1.09 
   1   6  -4   12.20    1.40 
   1   6  -4   11.51    1.10 
  -1   6   4   12.83    1.30 
  -1   6   4   13.35    1.13 
   1   6  -4   14.50    1.37 
  -1   6   4   11.66    1.14 
  -1   6   4   13.52    1.46 
   1   6  -4   12.51    1.31 
   0  -6   4   97.94    3.26 
   0  -6  -4   99.02    3.74 
   0  -6   4   95.50    3.75 
   0  -6   4   96.76    2.71 
   0  -6  -4   93.23    2.74 
   0  -6   4   99.57    3.66 
   0  -6  -4   96.65    3.48 
   0  -6   4   92.83    3.66 
   0  -6  -4   95.29    3.52 
   0  -6   4   94.70    2.70 
   0   6   4   91.05    3.19 
   0   6  -4   93.14    3.54 
   0   6   4   99.03    3.32 
   0   6   4   98.29    3.58 
   0   6   4   98.52    3.75 
   0   6  -4   99.14    3.24 
   0   6  -4   96.35    3.52 
   0   6   4   97.16    3.29 
   0   6  -4   96.62    3.75 
  -1  -6  -4   19.63    1.70 
   1  -6   4   19.01    1.64 
   1  -6   4   19.09    1.65 
   1  -6   4   19.00    1.12 
   1  -6   4   18.16    1.57 
   1  -6   4   19.56    1.28 
  -1  -6  -4   18.14    1.53 
  -1  -6  -4   20.00    1.63 
  -1  -6  -4   19.30    0.93 
   1  -6   4   18.83    1.08 
   1   6   4   19.70    1.43 
   1   6   4   18.69    1.39 
  -1   6  -4   19.43    1.26 
  -1   6  -4   17.60    1.61 
  -1   6  -4   20.65    1.63 
  -1   6  -4   20.21    1.56 
   1   6   4   19.16    1.56 
   1   6   4   20.02    1.64 
   1   6   4   19.21    1.34 
  -2  -6  -4   15.85    1.48 
   2  -6   4   19.85    1.19 
   2  -6   4   17.49    1.58 
   2  -6   4   17.54    1.16 
   2  -6   4   18.76    1.58 
  -2  -6  -4   18.21    1.53 
   2  -6   4   17.14    1.54 
  -2  -6  -4   18.78    1.59 
   2  -6   4   17.80    1.19 
  -2   6  -4   15.01    1.49 
   2   6   4   16.54    1.34 
  -2   6  -4   16.36    1.14 
   2   6   4   16.46    1.49 
  -2   6  -4   12.95    1.35 
   2   6   4   17.30    1.24 
   2   6   4   19.08    1.45 
   2   6   4   15.60    1.49 
  -3  -6  -4    0.71    0.67 
  -3  -6  -4    1.39    0.79 
   3  -6   4    1.66    0.92 
  -3  -6  -4    1.32    0.72 
   3  -6   4    1.42    0.60 
   3  -6   4    0.54    0.75 
   3  -6   4    1.11    0.59 
   3  -6   4    0.59    0.75 
   3  -6   4    1.15    0.47 
   3   6   4    0.91    0.65 
  -3   6  -4    1.19    0.57 
  -3   6  -4    0.88    0.74 
  -3   6  -4    0.67    0.69 
   3   6   4    0.06    0.53 
   3   6   4    1.99    0.66 
   3   6   4    1.25    0.71 
   4  -6   4   44.77    2.48 
  -4  -6  -4   50.33    2.59 
   4  -6   4   45.90    2.12 
   4  -6   4   46.06    2.14 
  -4  -6  -4   48.63    2.33 
  -4  -6  -4   49.55    2.22 
   4  -6   4   48.62    2.56 
  -4   6  -4   46.28    1.70 
   4   6   4   47.59    2.36 
   4   6   4   46.76    2.42 
  -4   6  -4   47.30    2.45 
   4   6   4   46.58    2.06 
  -4   6  -4   48.61    2.56 
   5  -6   4    5.05    0.97 
  -5  -6  -4    3.28    1.01 
  -5  -6  -4    5.54    1.06 
   5  -6   4    5.18    1.13 
   5  -6   4    5.18    1.06 
   5  -6   4    4.94    1.25 
  -5  -6  -4    5.57    0.92 
   5   6   4    5.94    1.09 
  -5   6  -4    5.73    1.21 
   5   6   4    6.00    0.96 
  -5   6  -4    3.86    1.09 
   5   6   4    4.08    1.08 
  -6  -6  -4    8.04    1.19 
   6  -6   4    9.41    1.18 
  -6  -6  -4    8.14    0.98 
  -6  -6  -4    7.54    1.36 
   6  -6   4   10.97    1.65 
  -6   6  -4    8.80    1.42 
   6   6   4    9.35    1.31 
  -6   6  -4   10.02    1.51 
   6   6   4   12.10    1.14 
  -7  -6  -4    5.91    1.01 
   7  -6   4    5.53    1.32 
   7  -6   4    3.11    0.98 
  -7  -6  -4    5.31    1.32 
  -7   6  -4    4.42    1.16 
   7   6   4    5.63    1.28 
  -7   6  -4    4.58    1.08 
   7   6   4    6.60    1.05 
   7   6   4    5.32    1.02 
  -8  -6  -4    8.25    0.98 
   8  -6   4   13.50    1.56 
   8  -6   4    8.65    1.35 
  -8  -6  -4    7.97    1.00 
  -8  -6  -4    6.64    1.51 
  -8   6  -4    6.59    1.37 
   8   6   4   10.61    1.08 
   8   6   4    7.55    1.45 
  -8   6  -4    9.03    1.50 
   8   6   4    9.93    1.13 
  -9  -6  -4    3.84    0.74 
  -9  -6  -4    3.21    0.81 
  -9  -6  -4    1.97    1.13 
   9  -6   4    1.90    0.94 
   9  -6   4    1.91    1.03 
   9   6   4    4.63    0.99 
  -9   6  -4    3.72    1.02 
  -8  -7   4    1.07    0.74 
   8  -7  -4    2.06    0.88 
  -8  -7   4    2.65    1.11 
   8  -7  -4    0.49    0.77 
  -8   7   4    1.35    0.86 
   8   7  -4    0.10    0.81 
   7  -7  -4    3.50    0.89 
  -7  -7   4    3.38    1.15 
   7  -7  -4    5.76    1.19 
   7  -7  -4    2.74    0.92 
  -7  -7   4    5.95    1.15 
   7   7  -4    3.14    1.10 
   7   7  -4    2.81    1.00 
  -7   7   4    4.21    1.08 
   6  -7  -4    8.39    1.50 
  -6  -7   4    9.65    1.29 
  -6  -7   4    9.45    1.64 
   6  -7  -4   11.04    1.28 
   6   7  -4    8.83    1.42 
   6   7  -4   11.67    1.38 
  -6   7   4    8.18    1.51 
  -5  -7   4    1.01    0.72 
  -5  -7   4    1.71    1.02 
   5  -7  -4    0.74    0.69 
   5  -7  -4    1.18    0.81 
  -5  -7   4    0.13    0.76 
   5   7  -4   -0.12    0.65 
  -5   7   4    0.91    0.91 
   5   7  -4    0.59    0.81 
   4  -7  -4    5.28    1.23 
  -4  -7   4    5.09    1.18 
  -4  -7   4    4.62    0.98 
   4  -7  -4    5.14    1.12 
  -4  -7   4    6.10    1.23 
   4  -7  -4    4.56    1.02 
  -4  -7   4    4.79    1.03 
   4  -7  -4    6.01    1.17 
   4   7  -4    5.88    1.12 
   4   7  -4    5.15    1.19 
  -4   7   4    4.53    0.60 
  -4   7   4    8.85    1.60 
  -3  -7   4    4.05    1.04 
  -3  -7   4    3.96    1.07 
  -3  -7   4    4.08    1.05 
   3  -7  -4    3.25    0.84 
   3  -7  -4    8.39    1.36 
   3  -7  -4    2.68    0.94 
   3  -7  -4    4.15    1.03 
  -3  -7   4    2.03    0.76 
   3   7  -4    5.36    1.16 
   3   7  -4    3.31    0.97 
  -3   7   4    5.67    0.86 
  -3   7   4    4.21    1.17 
  -2  -7   4    5.55    1.12 
   2  -7  -4    4.89    0.89 
  -2  -7   4    5.06    0.94 
   2  -7  -4    7.30    1.31 
   2  -7  -4    6.06    1.14 
   2  -7  -4    3.29    0.97 
  -2  -7   4    4.39    1.12 
  -2  -7   4    7.79    1.39 
   2   7  -4    5.21    1.20 
  -2   7   4    4.54    0.87 
   2   7  -4    9.26    1.31 
  -2   7   4    5.72    0.86 
  -2   7   4    5.41    1.15 
   2   7  -4    5.01    1.61 
  -1  -7   4    3.11    1.10 
  -1  -7   4    3.12    1.27 
   1  -7  -4    4.26    0.78 
  -1  -7   4    4.00    0.90 
  -1  -7   4    2.86    1.03 
   1  -7  -4    2.05    0.96 
   1  -7  -4    3.87    1.01 
   1   7  -4    3.57    0.94 
   1   7  -4    3.32    0.95 
  -1   7   4    4.37    1.19 
  -1   7   4    4.30    0.86 
  -1   7   4    4.17    0.86 
  -1   7   4    4.19    0.84 
   1   7  -4    8.74    1.38 
   0  -7   4    2.05    0.70 
   0  -7  -4    2.02    0.60 
   0  -7  -4    3.81    1.02 
   0  -7   4    1.63    0.51 
   0  -7  -4    2.56    0.99 
   0  -7  -4    3.98    1.03 
   0  -7   4    1.79    0.93 
   0  -7   4    1.41    1.02 
   0  -7   4    2.56    0.50 
   0  -7   4    1.74    0.82 
   0   7  -4    3.33    1.08 
   0   7  -4    2.25    0.86 
   0   7   4    1.60    0.67 
   0   7  -4    2.20    0.78 
   0   7   4    2.56    0.81 
   0   7   4    2.22    0.90 
   0   7   4    2.39    0.79 
   1  -7   4    3.42    0.83 
  -1  -7  -4    3.13    0.92 
   1  -7   4    5.44    0.82 
   1  -7   4    4.45    1.05 
  -1  -7  -4    3.78    1.21 
   1  -7   4    3.80    1.08 
   1  -7   4    5.26    0.77 
  -1  -7  -4    4.77    0.65 
  -1  -7  -4    4.88    1.11 
  -1   7  -4    4.61    0.97 
  -1   7  -4    5.03    0.95 
   1   7   4    2.80    0.78 
   1   7   4    4.87    0.99 
   1   7   4    3.64    0.95 
   1   7   4    5.07    1.14 
  -1   7  -4    2.78    0.94 
   2  -7   4    5.59    1.38 
  -2  -7  -4    4.34    1.05 
   2  -7   4    6.15    1.35 
   2  -7   4    6.75    0.95 
  -2  -7  -4    5.40    1.16 
   2  -7   4    6.93    0.96 
  -2  -7  -4    4.97    1.08 
  -2   7  -4    4.98    1.23 
   2   7   4    5.70    0.93 
  -2   7  -4    6.24    0.95 
   2   7   4    6.03    1.16 
   2   7   4    5.55    1.30 
  -2   7  -4    5.31    1.16 
   3  -7   4   11.43    1.72 
  -3  -7  -4   10.00    1.30 
   3  -7   4   11.17    1.41 
  -3  -7  -4    9.37    1.19 
   3  -7   4    9.14    1.01 
   3  -7   4    9.01    1.04 
  -3  -7  -4   13.24    1.79 
  -3   7  -4    9.91    0.95 
   3   7   4   11.09    1.30 
   3   7   4   10.61    1.37 
   3   7   4   10.14    1.06 
  -3   7  -4   12.64    1.80 
  -3   7  -4   15.76    1.51 
  -4  -7  -4    2.01    0.97 
   4  -7   4    2.55    1.05 
   4  -7   4    2.34    0.95 
  -4  -7  -4    3.24    0.85 
   4  -7   4    2.87    0.83 
   4  -7   4    4.13    0.87 
  -4   7  -4    3.99    1.13 
  -4   7  -4    2.58    0.90 
   4   7   4    1.59    0.85 
   4   7   4    2.61    0.88 
   4   7   4    3.83    0.79 
  -5  -7  -4    0.47    0.89 
  -5  -7  -4   -0.94    0.52 
  -5  -7  -4    0.87    0.71 
   5  -7   4    0.66    0.65 
  -5   7  -4    0.34    0.74 
   5   7   4    1.24    0.68 
   5   7   4    0.74    0.69 
   5   7   4    1.07    0.76 
  -5   7  -4    0.76    0.84 
  -6  -7  -4    3.49    1.19 
  -6  -7  -4    4.34    1.02 
   6  -7   4    5.60    1.23 
   6  -7   4    4.71    1.15 
  -6  -7  -4    4.42    0.86 
   6   7   4    3.70    0.86 
   6   7   4    4.87    1.10 
   6   7   4    5.13    1.10 
  -6   7  -4    5.30    1.16 
  -6   7  -4    2.50    1.00 
  -7  -7  -4   14.97    1.41 
  -7  -7  -4   15.97    1.20 
   7  -7   4   17.26    1.83 
   7  -7   4   17.16    1.58 
  -7  -7  -4   15.99    1.77 
  -7   7  -4   17.80    1.75 
   7   7   4   14.17    1.21 
   7   7   4   15.81    1.58 
   7   7   4   14.56    1.65 
  -7   7  -4   14.74    1.67 
  -8  -7  -4    1.77    0.64 
  -8  -7  -4    0.04    0.62 
  -5  -8   4    4.68    1.30 
   5  -8  -4    6.02    1.23 
   5  -8  -4    3.55    1.02 
   5   8  -4    5.59    1.21 
  -5   8   4   11.62    1.96 
   4  -8  -4    1.50    0.87 
  -4  -8   4    0.89    0.67 
  -4  -8   4    3.76    1.12 
   4  -8  -4    1.40    0.87 
   4   8  -4    2.65    0.95 
  -4   8   4    2.52    0.99 
   4   8  -4    2.01    0.96 
  -3  -8   4    6.00    1.39 
   3  -8  -4    5.90    1.15 
   3  -8  -4    5.28    1.32 
   3  -8  -4    5.71    1.30 
   3  -8  -4    4.63    1.08 
  -3  -8   4    8.30    1.52 
   3   8  -4    6.52    1.41 
  -3   8   4    6.42    0.80 
   3   8  -4    9.42    1.20 
  -3   8   4    6.07    1.32 
   2  -8  -4    0.18    0.82 
   2  -8  -4    0.36    0.82 
   2  -8  -4    0.32    0.76 
   2  -8  -4    1.26    0.66 
  -2  -8   4    0.05    0.80 
  -2  -8   4    1.67    0.88 
  -2   8   4   -0.54    0.47 
   2   8  -4    0.60    0.70 
  -2   8   4    0.44    0.77 
   2   8  -4    0.26    0.74 
   1  -8  -4   20.00    1.72 
   1  -8  -4   19.19    1.85 
  -1  -8   4   20.31    1.88 
   1  -8  -4   19.19    1.29 
   1  -8  -4   21.01    1.82 
  -1  -8   4   17.98    1.81 
  -1   8   4   17.49    1.40 
  -1   8   4   22.91    1.98 
   1   8  -4   21.49    1.94 
   1   8  -4   17.87    1.60 
  -1   8   4   18.60    1.38 
   0  -8  -4    9.84    0.94 
   0  -8   4    8.36    1.47 
   0  -8  -4    8.56    1.42 
   0  -8   4    8.78    0.71 
   0  -8   4    4.97    1.25 
   0  -8   4    7.67    0.75 
   0  -8  -4   10.01    1.54 
   0   8   4    8.82    1.49 
   0   8  -4    9.79    1.68 
   0   8  -4    8.82    1.13 
   0   8  -4    9.43    1.38 
   0   8   4    8.01    1.22 
   1  -8   4   15.69    1.72 
   1  -8   4   16.76    1.83 
   1  -8   4   14.23    1.06 
   1  -8   4   15.11    1.02 
  -1  -8  -4   16.51    1.67 
  -1  -8  -4   16.57    1.67 
  -1  -8  -4   15.14    1.72 
  -1   8  -4   14.95    1.76 
   1   8   4   15.66    1.43 
   1   8   4   16.16    1.78 
  -1   8  -4   20.31    1.38 
  -1   8  -4   15.54    1.55 
   1   8   4   15.83    1.59 
   2  -8   4    0.96    1.00 
   2  -8   4    0.40    0.55 
  -2  -8  -4    2.49    0.97 
  -2  -8  -4    1.34    0.96 
   2  -8   4    1.17    0.62 
  -2  -8  -4    2.10    0.90 
   2   8   4    3.68    0.80 
   2   8   4    1.28    0.81 
  -2   8  -4    1.23    0.62 
  -2   8  -4    0.19    0.85 
   2   8   4    2.18    1.03 
  -2   8  -4    2.13    0.70 
  -2   8  -4    1.31    0.86 
   3  -8   4    4.76    0.92 
   3  -8   4    1.62    0.74 
  -3  -8  -4    1.67    0.78 
   3  -8   4    1.27    1.00 
  -3  -8  -4    3.45    0.88 
  -3  -8  -4    1.91    0.94 
  -3   8  -4    2.81    1.03 
   3   8   4    2.43    0.95 
  -3   8  -4    1.95    0.59 
  -3   8  -4    4.55    0.78 
   3   8   4    0.88    0.68 
  -3   8  -4    1.59    0.96 
   3   8   4    2.17    0.83 
   4  -8   4    1.77    0.97 
   4  -8   4    3.24    0.86 
  -4  -8  -4    2.88    0.84 
  -4  -8  -4    2.17    1.00 
   4   8   4    2.06    0.96 
  -4   8  -4    7.54    1.50 
  -4   8  -4    2.55    0.98 
   4   8   4    2.74    0.75 
   4   8   4    1.08    0.87 
   5  -8   4    3.08    0.85 
  -5  -8  -4    1.52    0.71 
   5   8   4    2.72    1.24 
   5   8   4    3.63    1.15 
  -5   8  -4    1.86    1.01 
  -5   8  -4    2.83    1.04 
  12   0  -5   19.98    1.89 
  12   0  -5   17.02    0.71 
  12   0  -5   17.30    0.71 
  12   0  -5   18.61    1.50 
  11   0  -5   14.18    1.31 
  11   0  -5   14.62    0.84 
 -11   0   5   15.31    1.29 
  11   0  -5   12.37    1.25 
  11   0  -5   14.69    0.66 
  11   0  -5   13.81    0.66 
  11   0  -5   13.31    1.63 
 -10   0   5    3.58    0.83 
  10   0  -5    3.51    0.39 
  10   0  -5    4.03    0.40 
  10   0  -5    3.01    0.79 
  10   0  -5    4.99    0.73 
  10   0  -5    2.51    0.97 
  10   0  -5    2.98    0.82 
  -9   0   5   23.93    1.50 
   9   0  -5   23.53    0.80 
  -9   0   5   22.63    1.52 
   9   0  -5   22.56    1.28 
   9   0  -5   21.73    1.79 
   9   0  -5   23.21    0.78 
   9   0  -5   23.24    1.49 
   9   0  -5   22.53    1.46 
   8   0  -5   65.69    2.46 
   8   0  -5   61.55    2.18 
   8   0  -5   61.03    2.28 
  -8   0   5   63.19    2.45 
  -8   0   5   61.03    2.44 
   8   0  -5   60.32    2.73 
   8   0  -5   63.19    2.44 
   8   0  -5   53.10    2.70 
  -7   0   5   33.59    1.68 
   7   0  -5   32.88    1.95 
   7   0  -5   30.91    1.58 
  -7   0   5   34.17    1.65 
   7   0  -5   31.22    1.60 
   7   0  -5   33.60    1.56 
   7   0  -5   32.61    1.64 
   6   0  -5   29.24    1.47 
   6   0  -5   29.52    1.52 
  -6   0   5   29.45    1.46 
   6   0  -5   28.08    1.53 
  -6   0   5   29.14    1.51 
   6   0  -5   31.18    1.50 
   6   0  -5   30.69    1.76 
   5   0  -5    0.66    0.46 
  -5   0   5    0.50    0.50 
  -5   0   5    0.72    0.45 
   5   0  -5    0.54    0.41 
   5   0  -5    0.81    0.55 
  -5   0   5    0.85    0.41 
   5   0  -5    1.36    0.49 
   5   0  -5    0.78    0.50 
  -4   0   5   77.79    2.54 
  -4   0   5   75.13    2.69 
   4   0  -5   72.39    2.57 
   4   0  -5   72.83    2.50 
   4   0  -5   76.68    2.42 
   4   0  -5   71.68    2.63 
  -4   0   5   74.46    2.38 
   4   0  -5   71.88    2.67 
  -3   0   5   21.45    1.21 
  -3   0   5   20.15    1.26 
   3   0  -5   21.19    1.28 
   3   0  -5   20.76    1.20 
   3   0  -5   20.88    1.13 
   3   0  -5   22.53    1.37 
   3   0  -5   18.76    1.25 
  -3   0   5   20.96    1.09 
   2   0  -5   43.37    1.63 
  -2   0   5   41.65    1.60 
   2   0  -5   41.38    1.71 
  -2   0   5   38.19    1.13 
  -2   0   5   32.28    1.59 
   2   0  -5   39.10    1.75 
  -2   0   5   40.73    1.75 
   2   0  -5   39.80    1.82 
  -2   0   5   40.70    1.16 
  -1   0   5    3.69    0.47 
   1   0  -5    3.41    0.80 
   1   0  -5    2.20    0.61 
  -1   0   5    2.63    0.74 
  -1   0   5    2.12    0.59 
  -1   0   5    2.05    0.51 
   1   0  -5    2.88    0.75 
   1   0  -5    2.69    0.70 
  -1   0   5    2.94    0.62 
   0   0   5    0.80    0.51 
   0   0  -5    1.50    0.61 
   0   0   5    1.09    0.56 
   0   0  -5    1.72    0.62 
   0   0  -5    0.90    0.50 
   0   0   5    1.54    0.89 
   0   0   5    0.98    0.54 
   0   0  -5    1.21    0.54 
   0   0   5    1.62    0.46 
   1   0   5    0.46    0.52 
  -1   0  -5    1.38    0.60 
  -1   0  -5    1.49    0.51 
   1   0   5    1.15    0.62 
   1   0   5    1.74    0.62 
   1   0   5    1.04    0.54 
  -1   0  -5    0.89    0.47 
  -1   0  -5    1.10    0.53 
  -2   0  -5   53.45    1.99 
   2   0   5   50.15    2.01 
   2   0   5   45.46    1.93 
  -2   0  -5   50.24    2.00 
  -2   0  -5   49.61    1.99 
  -2   0  -5   54.22    1.84 
   2   0   5   50.14    2.01 
   2   0   5   51.57    1.98 
   2   0   5   54.52    1.85 
  -3   0  -5   37.33    1.48 
  -3   0  -5   37.67    1.68 
   3   0   5   31.80    1.60 
   3   0   5   36.12    1.65 
   3   0   5   36.92    1.49 
   3   0   5   38.02    1.80 
   3   0   5   37.05    1.63 
  -3   0  -5   38.16    1.64 
  -3   0  -5   38.15    1.71 
   4   0   5   43.02    1.88 
   4   0   5   43.55    2.06 
   4   0   5   44.39    1.81 
  -4   0  -5   47.21    1.85 
   4   0   5   42.80    1.67 
  -4   0  -5   43.22    1.69 
  -4   0  -5   44.10    1.78 
   4   0   5   42.88    1.80 
  -4   0  -5   43.75    1.92 
   5   0   5    5.62    0.98 
   5   0   5    4.28    0.93 
   5   0   5    4.82    0.84 
  -5   0  -5    4.50    0.76 
  -5   0  -5    4.21    0.80 
  -5   0  -5    4.47    0.74 
   5   0   5    4.45    0.84 
   5   0   5    4.17    0.71 
  -5   0  -5    3.07    0.71 
   5   0   5    4.53    0.72 
   6   0   5   60.50    2.23 
   6   0   5   60.36    2.30 
  -6   0  -5   58.65    2.23 
   6   0   5   57.35    2.06 
   6   0   5   60.49    2.47 
   6   0   5   57.08    2.57 
   6   0   5   59.38    2.68 
  -6   0  -5   57.70    2.26 
  -6   0  -5   61.44    2.50 
  -6   0  -5   60.35    2.03 
   7   0   5   47.31    2.05 
  -7   0  -5   49.18    2.10 
   7   0   5   45.38    2.21 
  -7   0  -5   47.15    2.02 
  -7   0  -5   45.84    2.21 
  -7   0  -5   46.41    1.74 
   7   0   5   46.49    2.36 
   7   0   5   47.02    2.50 
  -7   0  -5   47.96    1.68 
   7   0   5   46.17    1.99 
   8   0   5   17.88    1.30 
   8   0   5   18.29    1.73 
   8   0   5   18.48    1.32 
  -8   0  -5   18.02    1.35 
  -8   0  -5   17.63    0.90 
  -8   0  -5   18.98    0.99 
   8   0   5   20.43    1.65 
   8   0   5   19.45    1.49 
   9   0   5    7.50    0.93 
   9   0   5    6.74    1.37 
   9   0   5    8.79    1.04 
  -9   0  -5    6.08    1.02 
   9   0   5    8.36    1.04 
  -9   0  -5    7.85    0.51 
  10   0   5    5.88    1.06 
  10   0   5    3.22    0.91 
  10   0   5    5.84    1.03 
 -10   0  -5    5.90    1.12 
  10   0   5    5.42    1.32 
  10   0   5    6.55    1.03 
  11   0   5   14.88    1.83 
  11   0   5   15.48    1.34 
  11   0   5   14.56    1.49 
  12   0   5   16.90    1.63 
  12   0   5   15.24    1.82 
  12   0   5   15.39    1.38 
  12   0   5   14.78    1.54 
  12  -1  -5    3.58    0.97 
  12  -1  -5    2.42    0.90 
  12  -1  -5    1.53    0.78 
  12   1  -5    2.44    1.07 
  12   1  -5    1.83    0.72 
  12   1  -5    2.95    0.62 
  11  -1  -5    3.16    0.70 
  11  -1  -5    0.46    0.74 
 -11  -1   5    0.53    0.61 
  11  -1  -5    1.61    0.74 
  11   1  -5    1.17    0.62 
  11   1  -5    0.48    0.84 
  11   1  -5    1.02    0.36 
 -11   1   5    1.97    0.63 
  11   1  -5    1.12    0.41 
 -10  -1   5    7.31    1.11 
  10  -1  -5    6.57    0.92 
  10  -1  -5    7.48    1.33 
  10  -1  -5    5.00    1.02 
  10  -1  -5    6.12    1.02 
  10   1  -5    6.12    0.98 
  10   1  -5    5.59    1.27 
  10   1  -5    5.18    0.92 
  10   1  -5    6.55    0.64 
  10   1  -5    5.46    0.52 
 -10   1   5    6.09    0.92 
  10   1  -5    6.59    1.05 
  10   1  -5    5.69    0.71 
   9  -1  -5   11.10    1.11 
   9  -1  -5   11.65    1.21 
   9  -1  -5   11.37    1.07 
   9  -1  -5   10.23    1.34 
  -9  -1   5   12.03    1.20 
   9   1  -5   13.03    1.23 
   9   1  -5   12.56    1.46 
   9   1  -5   11.61    1.01 
   9   1  -5   12.42    0.91 
  -9   1   5   11.61    1.21 
   9   1  -5   11.49    0.77 
  -9   1   5   13.27    1.08 
   9   1  -5   11.44    0.66 
   8  -1  -5   20.69    1.31 
   8  -1  -5   22.90    1.50 
   8  -1  -5   20.64    1.40 
  -8  -1   5   23.42    1.52 
  -8  -1   5   20.67    1.29 
   8  -1  -5   20.91    1.65 
   8  -1  -5   19.82    1.58 
   8  -1  -5   22.43    1.30 
  -8   1   5   21.71    1.47 
  -8   1   5   22.69    1.32 
   8   1  -5   22.20    1.29 
   8   1  -5   22.96    0.99 
   8   1  -5   20.97    1.19 
   8   1  -5   21.53    0.87 
   8   1  -5   18.60    1.40 
   8   1  -5   20.86    1.20 
   8   1  -5   18.38    1.62 
   7  -1  -5   11.63    1.13 
   7  -1  -5   10.62    1.06 
   7  -1  -5   10.92    1.22 
  -7  -1   5   11.32    1.11 
   7  -1  -5   11.40    1.03 
   7  -1  -5   11.54    0.99 
  -7  -1   5   14.06    1.00 
   7  -1  -5   10.70    1.19 
   7   1  -5   12.24    0.99 
   7   1  -5   12.05    0.95 
   7   1  -5   11.21    0.59 
   7   1  -5   13.56    1.02 
  -7   1   5   14.50    1.19 
   7   1  -5   11.38    1.29 
   7   1  -5   12.12    0.72 
   7   1  -5   11.47    1.09 
  -7   1   5   12.46    0.99 
   6  -1  -5    5.50    0.83 
   6  -1  -5    6.03    0.98 
   6  -1  -5    6.53    1.10 
   6  -1  -5    5.59    0.91 
  -6  -1   5    7.17    1.13 
   6  -1  -5    6.30    0.80 
  -6  -1   5    5.52    0.68 
   6  -1  -5    5.05    0.85 
  -6  -1   5    4.13    0.81 
   6   1  -5    6.33    0.90 
   6   1  -5    5.59    0.50 
   6   1  -5    5.11    0.82 
   6   1  -5    4.98    0.82 
  -6   1   5    4.91    0.82 
   6   1  -5    4.92    0.40 
  -6   1   5    4.83    0.74 
   6   1  -5    4.80    0.65 
   6   1  -5    4.36    0.98 
  -5  -1   5   72.25    2.60 
   5  -1  -5   69.40    2.67 
   5  -1  -5   68.87    2.51 
  -5  -1   5   70.69    2.21 
   5  -1  -5   69.04    2.51 
  -5  -1   5   74.39    2.78 
  -5  -1   5   69.43    2.54 
   5  -1  -5   73.72    2.46 
  -5  -1   5   68.79    1.85 
   5   1  -5   68.94    2.73 
   5   1  -5   68.63    1.80 
  -5   1   5   69.10    2.49 
   5   1  -5   70.16    2.54 
  -5   1   5   71.61    2.39 
   5   1  -5   71.11    2.23 
   5   1  -5   70.04    2.48 
  -4  -1   5   26.95    1.16 
  -4  -1   5   26.07    1.50 
   4  -1  -5   27.37    1.49 
  -4  -1   5   28.37    1.47 
   4  -1  -5   28.48    1.48 
   4  -1  -5   25.29    1.36 
  -4  -1   5   28.45    1.57 
   4  -1  -5   25.20    1.45 
   4  -1  -5   27.76    1.42 
  -4  -1   5   27.87    0.93 
   4   1  -5   27.20    0.89 
   4   1  -5   28.39    1.45 
  -4   1   5   27.45    1.34 
   4   1  -5   25.54    1.56 
  -4   1   5   26.59    1.36 
   4   1  -5   28.05    1.19 
   4   1  -5   26.08    1.41 
  -3  -1   5   60.98    1.89 
   3  -1  -5   62.89    2.32 
  -3  -1   5   62.29    2.42 
  -3  -1   5   60.85    2.22 
  -3  -1   5   61.95    1.67 
  -3  -1   5   61.37    2.41 
   3  -1  -5   61.55    2.22 
   3  -1  -5   59.47    2.16 
   3  -1  -5   61.79    2.32 
   3  -1  -5   55.77    2.15 
   3   1  -5   60.08    1.65 
  -3   1   5   61.30    2.21 
  -3   1   5   57.24    2.12 
   3   1  -5   59.22    2.25 
   3   1  -5   53.90    2.13 
   3   1  -5   60.93    2.46 
   3   1  -5   60.46    1.93 
  -3   1   5   64.54    2.20 
  -2  -1   5    3.39    0.61 
  -2  -1   5    2.76    0.49 
   2  -1  -5    3.55    0.68 
  -2  -1   5    2.50    0.65 
  -2  -1   5    2.59    0.73 
   2  -1  -5    2.39    0.61 
  -2  -1   5    2.03    0.38 
   2  -1  -5    2.56    0.56 
   2  -1  -5    2.87    0.70 
   2  -1  -5    2.00    0.56 
  -2   1   5    2.36    0.56 
   2   1  -5    2.60    0.68 
   2   1  -5    2.73    0.42 
   2   1  -5    2.34    0.64 
  -2   1   5    2.42    0.37 
  -2   1   5    2.60    0.34 
  -2   1   5    1.86    0.56 
  -2   1   5    2.32    0.56 
   2   1  -5    2.63    0.60 
   2   1  -5    3.06    0.89 
   1  -1  -5  146.18    4.04 
   1  -1  -5  147.42    4.16 
  -1  -1   5  147.67    4.21 
  -1  -1   5  143.68    3.65 
  -1  -1   5  143.68    3.81 
   1  -1  -5  147.57    4.18 
   1  -1  -5  126.75    3.94 
   1  -1  -5  148.64    3.90 
   1   1  -5  147.37    3.66 
  -1   1   5  148.24    3.58 
  -1   1   5  149.31    4.08 
  -1   1   5  149.43    3.85 
  -1   1   5  142.36    4.04 
   1   1  -5  146.10    3.83 
   1   1  -5  143.26    4.15 
   1   1  -5  140.52    3.98 
   0  -1   5   63.78    2.41 
   0  -1  -5   61.96    2.08 
   0  -1   5   62.75    2.15 
   0  -1   5   58.94    2.27 
   0  -1  -5   61.31    2.31 
   0  -1  -5   60.37    2.19 
   0  -1  -5   62.39    2.38 
   0  -1   5   58.59    2.15 
   0  -1   5   60.90    1.99 
   0   1   5   57.54    2.19 
   0   1   5   58.49    2.19 
   0   1  -5   57.52    2.24 
   0   1   5   61.09    1.95 
   0   1  -5   58.46    2.02 
   0   1  -5   60.77    2.00 
   0   1  -5   58.96    2.26 
   0   1  -5   59.07    2.16 
   0   1   5   60.34    1.93 
   1  -1   5  158.24    4.20 
   1  -1   5  156.05    4.42 
  -1  -1  -5  154.90    4.47 
   1  -1   5  153.57    4.30 
   1  -1   5  158.50    4.34 
   1  -1   5  155.67    4.25 
  -1  -1  -5  158.34    4.35 
  -1  -1  -5  156.97    3.99 
  -1  -1  -5  160.08    4.43 
  -1  -1  -5  162.87    4.46 
  -1   1  -5  160.63    4.46 
   1   1   5  170.26    4.08 
   1   1   5  153.89    4.16 
   1   1   5  159.76    4.50 
  -1   1  -5  160.48    4.39 
  -1   1  -5  160.69    4.35 
  -1   1  -5  161.61    4.27 
   1   1   5  155.44    4.34 
   1   1   5  156.95    4.21 
  -1   1  -5  162.07    4.23 
  -2  -1  -5    5.34    0.96 
   2  -1   5    5.80    0.74 
   2  -1   5    5.47    0.78 
   2  -1   5    7.13    0.97 
  -2  -1  -5    5.82    0.98 
  -2  -1  -5    5.13    0.88 
  -2  -1  -5    6.37    0.91 
   2  -1   5    6.31    0.81 
  -2  -1  -5    5.05    0.54 
   2  -1   5    6.16    0.88 
   2   1   5    5.73    0.77 
  -2   1  -5    5.67    0.76 
  -2   1  -5    4.77    0.76 
   2   1   5    5.81    0.68 
  -2   1  -5    5.34    0.80 
   2   1   5    4.58    0.75 
  -2   1  -5    6.32    0.83 
  -2   1  -5    5.44    0.87 
   2   1   5    4.60    0.85 
  -3  -1  -5   65.42    2.28 
  -3  -1  -5   54.51    2.22 
  -3  -1  -5   63.05    2.32 
   3  -1   5   63.78    2.27 
   3  -1   5   63.18    2.29 
   3  -1   5   64.39    2.43 
  -3  -1  -5   61.86    2.38 
  -3  -1  -5   64.27    1.89 
   3  -1   5   62.84    2.24 
   3   1   5   52.89    2.25 
  -3   1  -5   68.50    2.32 
  -3   1  -5   64.44    2.31 
  -3   1  -5   64.30    2.21 
  -3   1  -5   64.96    2.31 
   3   1   5   64.12    2.45 
  -3   1  -5   61.13    2.41 
   3   1   5   65.24    2.34 
   3   1   5   64.44    1.91 
   3   1   5   64.05    2.44 
   4  -1   5    8.22    0.85 
   4  -1   5    8.72    1.06 
  -4  -1  -5    9.11    0.94 
   4  -1   5    9.29    0.91 
   4  -1   5    7.51    0.83 
  -4  -1  -5    8.35    0.68 
  -4  -1  -5    8.22    0.86 
   4  -1   5    9.00    0.87 
  -4  -1  -5    7.67    0.84 
  -4  -1  -5    8.54    0.81 
   4   1   5    8.19    0.89 
   4   1   5    8.39    0.98 
   4   1   5    7.41    0.91 
  -4   1  -5    8.10    0.86 
  -4   1  -5    9.78    0.83 
  -4   1  -5    8.43    0.83 
  -4   1  -5    8.43    0.87 
   4   1   5   10.55    0.70 
   4   1   5    8.36    1.09 
  -4   1  -5    8.05    1.02 
  -5  -1  -5  112.05    3.40 
  -5  -1  -5  123.17    3.31 
   5  -1   5  120.31    3.75 
  -5  -1  -5  118.10    3.79 
   5  -1   5  115.28    3.92 
   5  -1   5  121.19    3.52 
   5  -1   5  120.21    3.66 
   5  -1   5  118.45    3.53 
  -5  -1  -5  122.72    3.42 
  -5  -1  -5  120.56    3.73 
   5   1   5  118.69    3.89 
   5   1   5  118.79    3.71 
   5   1   5  118.97    3.76 
  -5   1  -5  124.35    3.51 
  -5   1  -5  117.46    3.78 
  -5   1  -5  123.72    3.52 
  -5   1  -5  114.65    3.93 
  -5   1  -5  120.89    3.67 
   5   1   5  121.30    3.98 
   5   1   5  121.22    3.29 
  -6  -1  -5   11.61    1.06 
  -6  -1  -5   10.44    0.84 
  -6  -1  -5   10.66    1.08 
   6  -1   5   10.59    0.95 
  -6  -1  -5   10.50    0.80 
   6  -1   5   11.96    1.05 
   6  -1   5    9.46    1.21 
   6  -1   5    9.52    1.03 
  -6  -1  -5   11.57    0.88 
   6  -1   5   11.50    0.97 
  -6   1  -5   11.03    1.09 
   6   1   5   10.59    1.07 
  -6   1  -5    9.92    0.88 
  -6   1  -5    8.90    1.03 
   6   1   5   10.63    0.84 
  -6   1  -5   10.42    0.87 
   6   1   5   10.85    1.31 
   6   1   5    9.39    1.01 
   6   1   5    9.82    1.17 
  -6   1  -5    9.95    1.21 
  -7  -1  -5    7.84    0.69 
   7  -1   5   10.02    0.93 
  -7  -1  -5    9.05    0.90 
  -7  -1  -5    8.59    1.03 
  -7  -1  -5    8.11    0.69 
   7  -1   5    9.99    0.94 
   7  -1   5    7.52    1.26 
   7  -1   5    8.30    1.08 
   7  -1   5    9.87    1.06 
   7   1   5    9.38    1.20 
  -7   1  -5   10.99    0.86 
   7   1   5    8.93    1.38 
  -7   1  -5    8.77    1.06 
   7   1   5    8.84    0.85 
   7   1   5    9.15    1.07 
   7   1   5    7.99    0.99 
  -7   1  -5    7.77    0.84 
  -8  -1  -5    6.92    0.54 
  -8  -1  -5    6.67    0.55 
  -8  -1  -5    7.56    0.93 
   8  -1   5    5.79    0.96 
   8  -1   5    3.60    1.00 
  -8  -1  -5    5.96    1.08 
   8  -1   5    7.22    0.85 
   8  -1   5    4.31    0.85 
   8  -1   5    9.14    0.95 
   8   1   5   10.10    1.10 
  -8   1  -5    5.46    1.00 
   8   1   5    9.24    0.91 
   8   1   5    6.95    1.22 
  -8   1  -5    6.34    0.70 
   8   1   5    5.02    0.90 
   8   1   5    6.66    1.30 
   9  -1   5    9.63    0.92 
   9  -1   5    7.76    0.95 
   9  -1   5    6.77    1.09 
   9  -1   5   11.61    1.69 
  -9   1  -5   13.30    1.32 
   9   1   5    8.67    0.97 
   9   1   5    8.51    1.13 
   9   1   5    9.47    1.07 
   9   1   5    8.92    1.49 
  -9   1  -5    8.04    0.72 
   9   1   5   10.23    1.11 
  10  -1   5    1.30    0.72 
  10  -1   5    1.51    0.71 
  10  -1   5    0.86    0.91 
  10  -1   5    3.71    0.73 
 -10   1  -5    1.88    0.42 
  10   1   5    1.67    0.65 
 -10   1  -5    1.91    0.78 
  10   1   5    2.33    0.66 
  10   1   5    3.63    0.82 
  10   1   5    2.19    1.11 
  11  -1   5    2.80    0.75 
  11  -1   5    4.08    1.04 
  11  -1   5    5.55    1.25 
  11  -1   5    2.38    0.79 
  11   1   5    2.16    0.90 
  11   1   5    3.27    1.20 
 -11   1  -5    2.39    0.93 
  11   1   5    1.29    0.73 
  11   1   5    5.19    1.10 
  11   1   5    3.97    0.92 
  12  -1   5    0.25    0.53 
  12  -1   5    0.70    0.74 
  12  -1   5    0.94    0.63 
  12  -1   5    2.14    1.01 
  12   1   5    1.76    1.00 
  12   1   5   -0.12    0.69 
  12   1   5    0.08    0.70 
  12   1   5    0.31    0.71 
  12  -2  -5   17.02    1.60 
  12  -2  -5   21.43    1.23 
  12   2  -5   16.09    1.08 
  12   2  -5   16.09    1.85 
  12   2  -5   16.04    1.35 
  12   2  -5   16.04    1.27 
 -11  -2   5   11.50    1.32 
  11  -2  -5    6.58    1.16 
  11  -2  -5    7.24    0.49 
  11  -2  -5    9.71    1.66 
  11  -2  -5    6.68    1.18 
  11  -2  -5    7.84    1.10 
  11   2  -5    8.92    0.74 
  11   2  -5    7.58    1.44 
  11   2  -5    9.33    0.98 
  11   2  -5    8.44    0.91 
  11   2  -5    7.54    0.98 
 -10  -2   5   22.03    1.71 
  10  -2  -5   22.46    1.85 
  10  -2  -5   22.07    0.84 
  10  -2  -5   21.17    1.66 
  10  -2  -5   24.46    1.62 
  10  -2  -5   23.16    0.82 
  10  -2  -5   23.19    1.41 
  10   2  -5   22.59    1.92 
 -10   2   5   23.63    1.29 
  10   2  -5   22.19    1.28 
  10   2  -5   21.99    1.31 
  10   2  -5   19.29    1.06 
  10   2  -5   23.79    1.37 
  10   2  -5   21.48    1.02 
   9  -2  -5   25.79    1.60 
   9  -2  -5   25.57    0.89 
   9  -2  -5   28.28    1.97 
   9  -2  -5   24.60    1.72 
   9  -2  -5   24.71    1.44 
   9  -2  -5   25.32    0.91 
  -9  -2   5   30.11    1.88 
   9   2  -5   26.82    1.38 
   9   2  -5   27.47    1.19 
   9   2  -5   24.61    1.33 
   9   2  -5   30.89    2.35 
   9   2  -5   26.28    1.36 
  -9   2   5   26.48    1.35 
   9   2  -5   24.68    1.23 
   9   2  -5   26.88    1.97 
  -8  -2   5   58.58    2.58 
   8  -2  -5   56.88    1.54 
   8  -2  -5   53.89    2.27 
   8  -2  -5   55.23    2.51 
   8  -2  -5   56.03    2.67 
   8  -2  -5   57.43    2.21 
   8  -2  -5   58.69    1.56 
   8  -2  -5   58.79    2.44 
   8  -2  -5   61.27    2.81 
   8   2  -5   55.90    2.02 
   8   2  -5   59.15    2.57 
  -8   2   5   61.12    2.11 
   8   2  -5   57.44    1.88 
   8   2  -5   58.79    2.18 
   8   2  -5   59.49    2.06 
  -8   2   5   57.49    2.56 
   8   2  -5   62.71    2.87 
   8   2  -5   52.98    2.02 
  -7  -2   5    9.19    1.09 
   7  -2  -5    8.98    0.47 
   7  -2  -5    9.23    1.01 
   7  -2  -5   10.98    1.14 
   7  -2  -5    9.43    1.15 
  -7  -2   5    9.57    1.15 
   7  -2  -5    8.52    0.94 
  -7  -2   5   10.94    0.87 
   7  -2  -5    9.86    1.19 
  -7   2   5   11.21    0.89 
   7   2  -5   11.45    0.93 
   7   2  -5    9.83    1.26 
   7   2  -5   10.81    0.72 
  -7   2   5   11.63    1.14 
   7   2  -5    7.18    0.69 
   7   2  -5   10.01    1.11 
  -6  -2   5   52.88    2.21 
  -6  -2   5   51.34    2.39 
   6  -2  -5   52.22    1.39 
   6  -2  -5   49.37    2.32 
   6  -2  -5   51.11    2.02 
   6  -2  -5   51.92    2.33 
   6  -2  -5   54.82    2.22 
  -6  -2   5   57.00    2.36 
  -6  -2   5   52.83    1.74 
   6  -2  -5   51.68    2.28 
  -6  -2   5   51.97    1.83 
   6   2  -5   53.03    1.75 
   6   2  -5   52.12    2.52 
  -6   2   5   52.04    1.46 
  -6   2   5   56.24    1.96 
  -6   2   5   51.06    2.25 
   6   2  -5   52.93    1.73 
   6   2  -5   50.24    2.25 
   6   2  -5   52.73    2.05 
  -6   2   5   51.75    2.26 
   5  -2  -5   12.44    1.16 
  -5  -2   5   13.86    1.16 
  -5  -2   5   15.01    0.88 
  -5  -2   5   13.49    1.17 
   5  -2  -5   14.58    1.06 
  -5  -2   5   14.03    1.23 
   5  -2  -5   12.80    1.12 
   5  -2  -5   14.40    0.59 
   5  -2  -5   14.40    1.14 
   5  -2  -5   14.14    1.17 
  -5  -2   5   14.41    0.77 
  -5   2   5   16.27    1.24 
   5   2  -5   13.21    0.79 
   5   2  -5   12.81    1.04 
  -5   2   5   11.11    0.88 
   5   2  -5   13.79    1.11 
   5   2  -5   13.78    1.39 
   5   2  -5   13.04    0.78 
  -5   2   5   13.66    0.64 
  -5   2   5   15.36    1.15 
   4  -2  -5   64.25    1.68 
   4  -2  -5   62.23    2.37 
  -4  -2   5   63.87    1.98 
  -4  -2   5   58.66    2.36 
  -4  -2   5   60.17    2.55 
   4  -2  -5   61.11    2.38 
  -4  -2   5   61.55    2.41 
   4  -2  -5   65.04    2.24 
   4  -2  -5   60.44    2.33 
  -4  -2   5   62.21    1.77 
   4  -2  -5   61.87    2.42 
   4   2  -5   61.33    1.85 
   4   2  -5   61.36    2.36 
   4   2  -5   60.62    2.30 
  -4   2   5   61.76    2.16 
   4   2  -5   64.17    2.75 
  -4   2   5   61.76    2.45 
  -4   2   5   61.01    1.70 
  -4   2   5   62.25    2.36 
   4   2  -5   63.31    1.92 
   3  -2  -5  145.39    4.23 
   3  -2  -5  138.40    3.90 
   3  -2  -5  143.47    3.99 
  -3  -2   5  140.65    4.12 
   3  -2  -5  140.79    3.97 
   3  -2  -5  138.61    4.10 
  -3  -2   5  140.85    4.36 
  -3  -2   5  138.10    4.13 
  -3  -2   5  140.65    3.40 
  -3  -2   5  143.53    3.66 
   3  -2  -5  142.55    3.40 
  -3   2   5  135.83    3.90 
  -3   2   5  141.96    4.21 
   3   2  -5  138.16    4.08 
   3   2  -5  138.79    4.43 
   3   2  -5  139.84    3.61 
  -3   2   5  138.23    3.41 
  -3   2   5  142.37    4.07 
   3   2  -5  133.85    4.04 
   3   2  -5  144.10    3.53 
   2  -2  -5   10.55    1.00 
   2  -2  -5    8.78    0.83 
   2  -2  -5    9.09    0.93 
   2  -2  -5    9.70    0.65 
  -2  -2   5    8.92    0.63 
  -2  -2   5    9.86    1.05 
  -2  -2   5    8.66    0.91 
  -2  -2   5    9.44    0.89 
   2  -2  -5    8.41    0.78 
  -2  -2   5    9.83    0.75 
  -2   2   5    9.21    0.92 
  -2   2   5    9.75    0.65 
   2   2  -5    9.00    0.63 
   2   2  -5    9.48    0.97 
   2   2  -5    9.26    1.15 
   2   2  -5    8.15    0.84 
  -2   2   5    9.43    0.89 
  -2   2   5    9.67    1.00 
   2   2  -5    9.72    0.73 
   1  -2  -5   46.17    1.95 
  -1  -2   5   37.11    2.05 
   1  -2  -5   47.15    1.85 
   1  -2  -5   47.36    2.02 
  -1  -2   5   48.83    1.68 
  -1  -2   5   48.25    1.74 
   1  -2  -5   48.33    1.66 
  -1  -2   5   47.45    1.89 
  -1  -2   5   46.76    1.98 
   1  -2  -5   48.45    1.62 
   1   2  -5   48.76    1.56 
   1   2  -5   47.31    1.88 
  -1   2   5   38.78    1.84 
  -1   2   5   46.41    1.62 
  -1   2   5   45.77    2.00 
   1   2  -5   44.74    2.10 
   1   2  -5   51.85    2.06 
   1   2  -5   47.82    1.71 
   0  -2   5    5.29    0.87 
   0  -2   5    6.17    0.87 
   0  -2   5    6.66    0.70 
   0  -2  -5    6.90    0.67 
   0  -2  -5    6.32    0.76 
   0  -2  -5    7.21    1.09 
   0  -2  -5    6.64    0.86 
   0  -2   5    7.43    0.79 
   0  -2  -5    6.59    0.70 
   0  -2   5    5.49    0.72 
   0   2   5    5.87    0.53 
   0   2  -5    6.23    0.71 
   0   2   5    6.29    0.70 
   0   2   5    6.22    0.81 
   0   2  -5    6.37    0.62 
   0   2   5    6.54    0.88 
   0   2  -5    6.27    0.97 
   0   2  -5    6.24    0.77 
   0   2   5    6.25    0.78 
   0   2  -5    6.47    0.86 
  -1  -2  -5   57.98    1.69 
  -1  -2  -5   59.51    2.45 
   1  -2   5   54.63    2.06 
   1  -2   5   59.67    2.18 
   1  -2   5   54.67    2.23 
  -1  -2  -5   61.23    2.21 
   1  -2   5   60.80    2.28 
   1  -2   5   60.75    2.00 
  -1  -2  -5   59.05    2.26 
   1   2   5   57.26    2.28 
  -1   2  -5   59.07    2.15 
   1   2   5   57.59    2.23 
   1   2   5   59.57    2.13 
  -1   2  -5   61.68    2.32 
  -1   2  -5   58.91    2.31 
   1   2   5   58.12    2.18 
   1   2   5   60.99    1.64 
  -1   2  -5   57.53    1.97 
  -1   2  -5   58.83    2.14 
  -2  -2  -5    5.03    0.76 
   2  -2   5    7.04    0.86 
   2  -2   5    5.61    0.79 
   2  -2   5    6.44    0.88 
   2  -2   5    5.05    0.78 
  -2  -2  -5    8.71    0.89 
  -2  -2  -5    6.04    0.78 
   2  -2   5    6.18    0.75 
  -2  -2  -5    5.47    0.91 
  -2  -2  -5    5.64    0.39 
   2   2   5    7.02    1.08 
   2   2   5    5.85    0.42 
   2   2   5    5.97    0.80 
   2   2   5    5.99    0.89 
  -2   2  -5    6.52    0.82 
  -2   2  -5    6.14    0.67 
  -2   2  -5    5.48    0.88 
  -2   2  -5    6.53    0.85 
  -2   2  -5    4.18    0.67 
   2   2   5    5.75    0.78 
   3  -2   5   78.95    2.87 
  -3  -2  -5   78.80    2.69 
   3  -2   5   83.39    2.61 
   3  -2   5   80.57    2.81 
   3  -2   5   79.47    2.67 
  -3  -2  -5   80.67    1.99 
  -3  -2  -5   80.39    2.67 
   3  -2   5   82.09    2.79 
  -3  -2  -5   80.35    2.83 
  -3  -2  -5   79.85    2.81 
  -3  -2  -5   81.01    2.90 
   3   2   5   80.76    2.84 
   3   2   5   83.32    2.11 
   3   2   5   80.65    3.00 
  -3   2  -5   82.51    2.82 
  -3   2  -5   82.19    2.60 
  -3   2  -5   84.03    2.74 
  -3   2  -5   77.38    2.80 
   3   2   5   79.64    2.81 
  -3   2  -5   82.84    2.90 
   4  -2   5   19.76    1.43 
  -4  -2  -5   17.35    1.24 
   4  -2   5   18.09    1.22 
  -4  -2  -5   18.93    1.32 
   4  -2   5   19.68    1.13 
  -4  -2  -5   20.06    0.77 
   4  -2   5   19.60    1.30 
   4  -2   5   18.56    1.23 
  -4  -2  -5   19.42    1.15 
  -4  -2  -5   19.17    1.21 
  -4   2  -5   18.44    1.30 
  -4   2  -5   19.12    1.09 
   4   2   5   19.00    1.36 
  -4   2  -5   18.06    1.23 
   4   2   5   17.15    1.24 
  -4   2  -5   18.60    1.39 
   4   2   5   18.29    0.77 
  -4   2  -5   18.72    1.25 
   4   2   5   18.15    1.42 
   5  -2   5    7.07    0.86 
  -5  -2  -5    7.04    0.91 
  -5  -2  -5    7.49    0.58 
   5  -2   5    6.18    0.81 
  -5  -2  -5    7.23    0.74 
   5  -2   5    6.37    0.85 
  -5  -2  -5    6.59    0.83 
   5  -2   5    6.01    1.02 
   5  -2   5    5.13    0.84 
  -5  -2  -5    7.50    0.95 
  -5   2  -5    6.92    0.94 
  -5   2  -5    6.25    0.82 
   5   2   5    5.70    1.00 
  -5   2  -5    7.04    0.71 
   5   2   5    7.56    1.20 
   5   2   5    5.06    0.82 
   5   2   5    7.15    0.56 
  -5   2  -5    6.09    1.16 
   6  -2   5   21.08    1.23 
   6  -2   5   19.02    1.25 
  -6  -2  -5   19.22    1.05 
  -6  -2  -5   19.00    1.38 
  -6  -2  -5   17.94    1.15 
   6  -2   5   18.86    1.39 
  -6  -2  -5   21.37    1.43 
   6  -2   5   18.42    1.34 
   6  -2   5   19.41    1.56 
   6   2   5   19.41    1.60 
  -6   2  -5   17.63    1.38 
  -6   2  -5   20.88    1.64 
   6   2   5   18.84    1.39 
   6   2   5   19.61    1.52 
   6   2   5   18.29    1.42 
   6   2   5   19.99    0.97 
  -6   2  -5   16.98    1.19 
  -6   2  -5   19.57    1.09 
   7  -2   5   36.72    1.72 
   7  -2   5   37.61    1.68 
  -7  -2  -5   38.41    1.43 
  -7  -2  -5   39.72    2.00 
   7  -2   5   37.61    1.99 
   7  -2   5   35.88    2.18 
   7  -2   5   38.56    2.08 
  -7  -2  -5   37.01    1.51 
   7  -2   5   36.95    1.99 
   7   2   5   38.31    2.27 
  -7   2  -5   37.14    2.03 
  -7   2  -5   37.89    1.72 
   7   2   5   37.71    1.51 
   7   2   5   34.90    2.08 
  -7   2  -5   39.23    1.58 
   7   2   5   38.37    2.00 
   7   2   5   35.63    1.99 
  -7   2  -5   32.35    2.18 
  -8  -2  -5   15.26    0.80 
   8  -2   5   17.45    1.66 
   8  -2   5   16.24    1.19 
   8  -2   5   16.53    1.18 
   8  -2   5   16.51    1.42 
   8  -2   5   15.16    1.41 
   8  -2   5   14.97    1.42 
  -8  -2  -5   17.23    0.79 
  -8  -2  -5   17.36    1.38 
   8   2   5   19.68    1.12 
   8   2   5   16.55    1.56 
  -8   2  -5   16.55    1.73 
   8   2   5   17.20    1.43 
   8   2   5   17.30    1.72 
   8   2   5   16.45    1.36 
   8   2   5   18.70    1.14 
  -8   2  -5   16.46    1.13 
  -8   2  -5   15.24    1.42 
   8   2   5   18.25    1.45 
   9  -2   5   18.93    1.25 
  -9  -2  -5   18.67    1.51 
   9  -2   5   19.36    1.11 
   9  -2   5   17.38    1.77 
   9  -2   5   14.65    1.42 
   9   2   5   18.74    1.83 
   9   2   5   17.06    1.16 
  -9   2  -5   17.94    1.13 
   9   2   5   14.94    1.42 
  -9   2  -5   17.12    1.58 
   9   2   5   16.96    1.64 
   9   2   5   18.51    1.23 
   9   2   5   19.89    1.56 
  10  -2   5    3.49    0.88 
  10  -2   5    6.37    0.73 
  10  -2   5    4.33    1.18 
  10  -2   5    5.12    0.84 
 -10   2  -5    4.72    1.09 
  10   2   5    5.25    0.87 
  10   2   5    6.09    1.15 
  10   2   5    4.65    0.86 
  10   2   5    3.65    1.22 
 -10   2  -5    7.00    0.77 
  11  -2   5   15.36    1.19 
  11  -2   5   12.24    1.66 
  11  -2   5   13.75    0.97 
  11  -2   5   16.09    1.61 
 -11   2  -5   11.67    1.81 
  11   2   5   13.09    1.41 
  11   2   5   12.00    1.17 
  11   2   5   14.00    1.81 
  11   2   5   14.41    1.29 
 -11   2  -5   13.13    0.85 
  11   2   5   13.66    1.44 
  12  -2   5   13.72    1.12 
  12  -2   5   13.11    1.88 
  12   2   5   11.16    1.25 
 -12   2  -5   12.00    1.59 
  12   2   5   10.56    1.31 
  12   2   5   14.71    2.13 
  12   2   5   12.31    1.43 
  11  -3  -5    1.63    0.87 
  11  -3  -5    0.05    0.32 
  11  -3  -5    0.94    0.73 
  11  -3  -5    0.34    0.33 
  11  -3  -5   -0.12    0.65 
 -11  -3   5    0.68    0.86 
  11   3  -5    0.32    0.42 
  11   3  -5   -0.26    0.86 
  11   3  -5    1.72    0.52 
  11   3  -5    0.98    0.70 
  11   3  -5    0.60    0.47 
  10  -3  -5    3.19    0.54 
  10  -3  -5    2.70    1.03 
  10  -3  -5    3.64    1.06 
 -10  -3   5    5.05    1.22 
  10  -3  -5    3.27    0.52 
  10  -3  -5    3.29    0.96 
  10   3  -5    1.90    0.74 
  10   3  -5    2.05    0.60 
  10   3  -5    3.07    1.20 
  10   3  -5    3.59    0.67 
  10   3  -5    3.51    0.59 
  10   3  -5    4.37    0.70 
  -9  -3   5   14.07    1.40 
   9  -3  -5   14.62    1.54 
   9  -3  -5   13.93    0.97 
   9  -3  -5   13.73    0.82 
   9  -3  -5   13.81    1.40 
   9  -3  -5   12.81    0.77 
   9   3  -5   14.13    0.89 
   9   3  -5   13.59    1.66 
  -9   3   5   10.61    0.80 
   9   3  -5   12.98    0.98 
   9   3  -5   13.84    0.97 
   9   3  -5   13.55    0.86 
  -8  -3   5   18.81    1.35 
   8  -3  -5   18.60    1.53 
   8  -3  -5   19.11    1.13 
  -8  -3   5   18.17    1.29 
  -8  -3   5   20.72    1.63 
   8  -3  -5   19.69    0.92 
   8  -3  -5   19.91    1.64 
  -8  -3   5   17.82    1.56 
   8   3  -5   19.63    1.19 
  -8   3   5   19.80    1.02 
  -8   3   5   22.18    1.57 
   8   3  -5   20.52    0.96 
   8   3  -5   20.09    1.87 
   8   3  -5   19.91    1.15 
   8   3  -5   19.14    0.94 
  -8   3   5   18.93    1.02 
  -7  -3   5   11.41    1.22 
   7  -3  -5   12.69    1.28 
  -7  -3   5   13.23    1.34 
   7  -3  -5   13.11    0.76 
   7  -3  -5   13.54    1.34 
   7  -3  -5   12.48    0.94 
  -7  -3   5   12.48    1.07 
   7  -3  -5   11.34    1.28 
  -7  -3   5   12.49    1.21 
   7  -3  -5   13.48    1.23 
   7   3  -5   14.12    0.98 
  -7   3   5   13.61    0.87 
   7   3  -5   13.22    1.27 
  -7   3   5   14.25    0.88 
   7   3  -5   13.86    1.06 
   7   3  -5   11.76    1.59 
  -7   3   5   14.35    1.34 
  -7   3   5   13.21    1.27 
   6  -3  -5    2.02    0.70 
  -6  -3   5    3.02    0.87 
   6  -3  -5    3.54    0.88 
  -6  -3   5    2.39    0.66 
   6  -3  -5    2.68    0.59 
   6  -3  -5    3.15    0.76 
  -6  -3   5    2.85    0.68 
   6  -3  -5    2.18    0.76 
   6  -3  -5    2.41    0.44 
  -6  -3   5    2.86    0.78 
  -6   3   5    3.60    0.88 
   6   3  -5    2.63    0.65 
  -6   3   5    2.41    0.52 
  -6   3   5    3.22    0.77 
  -6   3   5    3.49    0.57 
   6   3  -5    2.89    0.74 
   6   3  -5    3.80    1.29 
   6   3  -5    1.89    0.54 
   5  -3  -5   45.09    1.56 
  -5  -3   5   46.81    2.19 
   5  -3  -5   47.29    2.20 
  -5  -3   5   49.90    1.92 
  -5  -3   5   43.80    2.05 
   5  -3  -5   46.74    2.12 
   5  -3  -5   49.35    2.16 
  -5  -3   5   45.29    2.25 
   5  -3  -5   46.83    1.77 
   5  -3  -5   45.51    2.15 
  -5   3   5   46.97    2.22 
   5   3  -5   47.38    1.79 
  -5   3   5   47.14    2.17 
  -5   3   5   49.12    1.76 
   5   3  -5   44.96    2.11 
   5   3  -5   45.92    2.49 
  -5   3   5   44.33    1.61 
   5   3  -5   43.81    1.96 
   4  -3  -5   19.07    1.27 
  -4  -3   5   18.30    1.46 
   4  -3  -5   20.45    1.43 
  -4  -3   5   17.95    1.29 
  -4  -3   5   20.60    1.39 
   4  -3  -5   18.09    1.24 
   4  -3  -5   18.93    0.96 
  -4  -3   5   20.24    1.17 
   4  -3  -5   19.55    1.11 
   4  -3  -5   19.20    1.36 
   4   3  -5   20.30    1.67 
  -4   3   5   19.24    0.98 
  -4   3   5   19.04    1.33 
  -4   3   5   19.15    1.13 
   4   3  -5   19.16    1.11 
   4   3  -5   20.21    1.34 
   4   3  -5   19.06    1.32 
  -4   3   5   20.38    1.46 
   3  -3  -5   47.95    2.11 
   3  -3  -5   48.86    1.82 
  -3  -3   5   45.12    2.04 
  -3  -3   5   47.19    2.26 
   3  -3  -5   43.82    1.86 
   3  -3  -5   46.52    1.65 
   3  -3  -5   47.29    1.89 
   3  -3  -5   45.71    2.12 
  -3  -3   5   48.13    1.86 
  -3   3   5   45.22    1.66 
   3   3  -5   48.93    2.09 
   3   3  -5   45.36    1.80 
  -3   3   5   45.73    2.03 
   3   3  -5   46.47    2.30 
   3   3  -5   47.03    2.02 
  -3   3   5   48.00    2.23 
  -2  -3   5    5.43    1.03 
   2  -3  -5    6.67    0.98 
  -2  -3   5    5.16    0.79 
   2  -3  -5    5.26    0.65 
  -2  -3   5    5.31    0.78 
  -2  -3   5    5.86    0.93 
   2  -3  -5    6.57    1.06 
   2  -3  -5    5.51    0.68 
   2  -3  -5    6.21    0.69 
   2  -3  -5    5.36    0.64 
   2   3  -5    6.48    0.94 
   2   3  -5    5.79    0.76 
  -2   3   5    5.66    0.65 
   2   3  -5    8.06    1.26 
   2   3  -5    6.73    0.87 
  -2   3   5    6.84    1.00 
  -2   3   5    5.97    1.06 
  -2   3   5    6.20    0.89 
  -1  -3   5   74.02    2.75 
  -1  -3   5   75.93    3.03 
  -1  -3   5   77.35    2.60 
   1  -3  -5   76.00    2.81 
  -1  -3   5   74.95    2.61 
   1  -3  -5   76.28    2.26 
   1  -3  -5   72.93    2.67 
   1  -3  -5   79.88    2.57 
  -1  -3   5   77.65    2.19 
   1  -3  -5   76.71    2.26 
   1   3  -5   78.04    2.83 
  -1   3   5   73.12    2.82 
  -1   3   5   75.23    2.70 
   1   3  -5   79.39    2.66 
  -1   3   5   74.73    2.57 
   1   3  -5   63.77    2.43 
  -1   3   5   80.07    2.49 
   1   3  -5   73.04    2.86 
   1   3  -5   77.62    2.07 
   0  -3  -5   22.94    1.50 
   0  -3  -5   23.81    1.32 
   0  -3   5   21.39    1.03 
   0  -3  -5   22.56    0.91 
   0  -3   5   24.12    1.36 
   0  -3  -5   23.46    1.26 
   0  -3  -5   23.76    0.95 
   0  -3   5   22.95    1.56 
   0  -3   5   22.27    1.27 
   0  -3   5   25.14    1.49 
   0   3   5   23.54    1.32 
   0   3   5   23.28    1.40 
   0   3  -5   23.53    1.52 
   0   3  -5   22.88    1.46 
   0   3  -5   24.96    1.06 
   0   3  -5   23.53    1.32 
   0   3   5   23.21    1.49 
   0   3   5   23.74    1.27 
   0   3  -5   20.91    1.23 
   1  -3   5   76.17    2.37 
   1  -3   5   73.93    2.47 
  -1  -3  -5   76.36    2.76 
  -1  -3  -5   73.16    2.90 
  -1  -3  -5   75.65    2.62 
  -1  -3  -5   76.79    2.69 
   1  -3   5   80.09    2.76 
   1  -3   5   79.12    2.83 
   1  -3   5   76.21    2.81 
  -1   3  -5   78.47    2.85 
   1   3   5   74.46    2.67 
  -1   3  -5   75.47    2.85 
   1   3   5   76.01    2.63 
  -1   3  -5   76.72    2.53 
   1   3   5   73.36    2.73 
   1   3   5   76.53    2.77 
  -1   3  -5   76.75    2.67 
  -2  -3  -5    5.00    0.83 
   2  -3   5    5.02    0.67 
  -2  -3  -5    3.31    0.65 
  -2  -3  -5    4.55    0.88 
  -2  -3  -5    5.59    0.93 
   2  -3   5    5.88    0.97 
   2  -3   5    3.70    0.79 
   2  -3   5    6.07    0.95 
   2  -3   5    5.62    0.68 
   2   3   5    5.21    0.85 
  -2   3  -5    5.69    1.01 
  -2   3  -5    4.73    0.75 
  -2   3  -5    5.73    0.90 
   2   3   5    5.17    0.83 
  -2   3  -5    6.35    1.00 
   2   3   5    5.78    0.90 
   2   3   5    6.02    0.86 
   3  -3   5   47.30    2.18 
  -3  -3  -5   47.84    2.14 
   3  -3   5   49.00    1.94 
  -3  -3  -5   47.80    2.19 
   3  -3   5   47.56    2.14 
   3  -3   5   49.53    2.17 
   3  -3   5   48.82    1.79 
  -3  -3  -5   49.62    2.02 
  -3  -3  -5   47.70    2.12 
  -3   3  -5   49.94    2.20 
  -3   3  -5   47.20    2.15 
  -3   3  -5   50.29    1.89 
   3   3   5   49.36    2.18 
   3   3   5   48.55    2.19 
   3   3   5   47.80    2.13 
   3   3   5   48.86    2.03 
  -3   3  -5   47.90    2.14 
  -4  -3  -5    4.63    0.73 
   4  -3   5    4.35    0.79 
   4  -3   5    6.26    0.84 
  -4  -3  -5    9.26    1.03 
  -4  -3  -5    6.81    0.83 
  -4  -3  -5    7.85    1.04 
   4  -3   5    5.49    0.94 
   4  -3   5    6.41    0.90 
   4  -3   5    7.98    0.75 
  -4   3  -5    6.87    0.73 
   4   3   5    6.66    1.13 
   4   3   5    5.45    0.96 
   4   3   5    6.36    1.05 
  -4   3  -5    5.66    0.99 
   4   3   5    6.75    0.86 
  -4   3  -5    6.89    0.95 
  -4   3  -5    4.37    0.83 
   5  -3   5   65.55    2.65 
   5  -3   5   68.31    2.64 
   5  -3   5   69.31    2.78 
  -5  -3  -5   65.50    2.34 
   5  -3   5   67.56    2.87 
  -5  -3  -5   68.44    2.66 
  -5  -3  -5   66.07    2.78 
   5  -3   5   68.22    2.19 
  -5  -3  -5   69.11    2.74 
   5  -3   5   68.16    2.64 
  -5   3  -5   64.86    2.59 
  -5   3  -5   65.00    2.73 
  -5   3  -5   65.38    2.83 
   5   3   5   65.78    2.69 
   5   3   5   64.15    2.83 
  -5   3  -5   69.98    2.20 
   5   3   5   66.05    2.78 
   6  -3   5   11.10    1.20 
   6  -3   5   11.01    0.85 
  -6  -3  -5   10.70    0.89 
   6  -3   5    9.86    1.28 
   6  -3   5    9.15    1.05 
   6  -3   5    9.94    1.13 
  -6  -3  -5    9.30    1.05 
   6  -3   5    9.13    1.06 
  -6  -3  -5    9.46    0.96 
   6   3   5    9.39    0.55 
  -6   3  -5   10.17    1.05 
  -6   3  -5   10.01    1.21 
   6   3   5    8.65    1.18 
   6   3   5    9.09    1.10 
  -6   3  -5   10.92    1.54 
   6   3   5    9.70    1.32 
  -6   3  -5   11.16    0.77 
   7  -3   5   12.38    0.90 
   7  -3   5   13.20    1.45 
   7  -3   5   11.57    1.23 
  -7  -3  -5   11.63    1.16 
   7  -3   5    9.95    1.17 
   7  -3   5   12.41    1.15 
  -7  -3  -5   13.40    0.91 
   7  -3   5   10.99    1.24 
  -7  -3  -5   12.70    1.02 
  -7   3  -5   11.72    0.79 
   7   3   5   10.33    1.20 
   7   3   5   11.64    0.72 
   7   3   5   11.78    0.77 
  -7   3  -5   10.93    1.57 
   7   3   5   12.34    1.26 
   7   3   5   11.65    1.38 
  -7   3  -5   12.30    1.13 
  -7   3  -5   12.59    1.35 
   7   3   5   12.37    1.40 
   8  -3   5    5.47    1.19 
  -8  -3  -5    3.37    0.77 
  -8  -3  -5    6.37    0.71 
  -8  -3  -5    5.61    0.62 
   8  -3   5    6.27    1.11 
   8  -3   5    6.35    0.73 
  -8   3  -5    4.53    0.98 
   8   3   5    6.98    1.39 
   8   3   5    4.06    1.02 
  -8   3  -5    3.96    0.78 
   8   3   5    6.37    0.71 
   8   3   5    3.42    0.91 
   8   3   5    6.58    0.67 
   9  -3   5    8.76    1.37 
  -9  -3  -5    9.10    1.18 
   9  -3   5   11.48    1.69 
   9   3   5    8.09    1.44 
   9   3   5    7.44    1.43 
  -9   3  -5   10.05    1.35 
   9   3   5    8.68    1.30 
   9   3   5    9.10    0.89 
   9   3   5    8.58    0.81 
  -9   3  -5    8.92    1.00 
  10  -3   5    0.98    0.96 
  10  -3   5    0.59    0.66 
  10   3   5    0.30    0.48 
 -10   3  -5    0.78    0.74 
  10   3   5    0.39    0.96 
  10   3   5    0.30    0.55 
 -10   3  -5    1.88    0.63 
  10   3   5    1.59    0.89 
  11  -3   5    2.29    1.20 
  11  -3   5    1.99    0.95 
 -11   3  -5    1.13    0.87 
  11   3   5    4.11    1.26 
  11   3   5    3.08    0.79 
 -11   3  -5    1.99    0.62 
  11   3   5    0.59    0.74 
  11  -4  -5    6.76    0.69 
  11   4  -5    4.63    1.04 
  11   4  -5    4.96    1.09 
  11   4  -5    5.52    1.55 
 -10  -4   5    0.48    0.71 
 -10  -4   5    0.22    0.60 
  10  -4  -5    0.90    0.79 
  10  -4  -5    0.77    0.45 
  10  -4  -5    0.98    0.77 
  10   4  -5    1.54    0.66 
  10   4  -5    0.10    1.07 
 -10   4   5    0.38    0.66 
  -9  -4   5   10.77    1.11 
  -9  -4   5    9.93    1.22 
   9  -4  -5    9.41    0.81 
  -9  -4   5   12.14    1.41 
   9  -4  -5   11.58    1.45 
   9  -4  -5   10.64    1.36 
   9   4  -5    9.63    0.92 
   9   4  -5   11.85    1.09 
   9   4  -5   12.70    2.00 
  -9   4   5   12.24    0.96 
  -9   4   5    9.52    1.28 
  -8  -4   5   32.85    1.88 
   8  -4  -5   33.67    1.43 
  -8  -4   5   34.98    2.14 
  -8  -4   5   32.97    1.83 
   8  -4  -5   36.95    2.18 
   8  -4  -5   33.05    2.10 
   8   4  -5   34.25    1.72 
  -8   4   5   32.09    1.53 
   8   4  -5   36.30    2.46 
  -8   4   5   35.75    2.11 
   8   4  -5   33.40    1.65 
   7  -4  -5   15.07    0.97 
  -7  -4   5   15.92    1.49 
   7  -4  -5   17.64    1.52 
  -7  -4   5   17.02    1.50 
   7  -4  -5   17.04    1.51 
  -7  -4   5   16.34    1.36 
   7  -4  -5   15.65    1.45 
  -7  -4   5   14.91    1.30 
   7   4  -5   14.65    1.73 
  -7   4   5   15.81    1.44 
  -7   4   5   12.71    1.02 
   7   4  -5   13.68    1.16 
   7   4  -5   15.00    1.16 
  -6  -4   5   10.11    1.26 
   6  -4  -5    9.91    1.22 
   6  -4  -5   10.90    1.24 
  -6  -4   5   10.91    1.19 
   6  -4  -5    8.82    1.13 
   6  -4  -5   11.00    0.86 
  -6  -4   5    9.99    1.11 
  -6  -4   5   11.15    1.14 
   6  -4  -5   10.71    1.17 
   6  -4  -5   11.06    0.77 
  -6   4   5   10.48    0.91 
   6   4  -5   10.55    1.09 
   6   4  -5   10.14    1.16 
  -6   4   5   10.58    0.75 
   6   4  -5   11.03    1.00 
  -6   4   5   12.26    1.26 
   6   4  -5   10.72    1.50 
  -6   4   5   11.31    1.34 
  -5  -4   5    0.86    0.59 
  -5  -4   5    0.93    0.63 
   5  -4  -5    1.36    0.61 
  -5  -4   5    1.77    0.80 
   5  -4  -5    1.17    0.65 
   5  -4  -5    1.63    0.52 
   5  -4  -5    1.70    0.47 
  -5  -4   5    2.49    0.76 
   5  -4  -5    0.63    0.63 
   5  -4  -5    1.02    0.60 
  -5   4   5    1.36    0.51 
  -5   4   5    1.42    0.77 
  -5   4   5    1.34    0.54 
   5   4  -5    3.34    0.87 
  -5   4   5    0.45    0.52 
   5   4  -5    0.11    0.77 
   5   4  -5    2.45    0.66 
   5   4  -5    0.87    0.57 
   4  -4  -5   47.57    1.75 
  -4  -4   5   47.57    2.24 
   4  -4  -5   43.46    2.21 
   4  -4  -5   46.74    2.04 
   4  -4  -5   48.19    2.27 
  -4  -4   5   43.41    2.31 
   4  -4  -5   48.03    1.83 
   4  -4  -5   46.72    2.05 
  -4  -4   5   45.76    2.04 
  -4   4   5   47.54    2.33 
   4   4  -5   49.23    2.19 
   4   4  -5   48.25    2.00 
   4   4  -5   55.60    2.31 
  -4   4   5   43.96    2.13 
  -4   4   5   38.62    1.75 
   4   4  -5   48.51    2.45 
  -4   4   5   37.47    1.71 
   3  -4  -5    9.29    1.09 
   3  -4  -5    9.05    0.81 
  -3  -4   5   10.81    1.25 
  -3  -4   5    8.85    1.01 
  -3  -4   5    9.72    1.10 
   3  -4  -5    8.93    1.14 
   3  -4  -5    9.38    0.90 
   3  -4  -5    8.72    0.90 
   3  -4  -5    9.30    0.88 
  -3  -4   5    9.32    1.01 
  -3   4   5    9.49    0.89 
  -3   4   5    7.96    1.12 
   3   4  -5    8.22    0.94 
   3   4  -5   10.10    1.05 
  -3   4   5    9.26    1.02 
   3   4  -5   10.02    1.28 
  -3   4   5    9.61    0.97 
   3   4  -5    9.19    1.06 
   2  -4  -5   27.99    1.63 
  -2  -4   5   24.32    1.47 
   2  -4  -5   23.32    1.32 
  -2  -4   5   23.27    1.74 
  -2  -4   5   23.09    1.56 
  -2  -4   5   25.98    1.52 
   2  -4  -5   25.63    1.26 
   2  -4  -5   24.98    1.64 
   2  -4  -5   25.12    1.26 
   2   4  -5   25.01    1.71 
  -2   4   5   25.52    1.39 
   2   4  -5   24.23    1.45 
  -2   4   5   23.80    1.49 
   2   4  -5   23.98    1.42 
  -2   4   5   25.85    1.69 
  -2   4   5   25.32    1.37 
   2   4  -5   23.77    1.57 
  -1  -4   5    2.61    0.69 
   1  -4  -5    2.39    0.49 
   1  -4  -5    2.31    0.72 
   1  -4  -5    1.59    0.70 
  -1  -4   5    0.83    0.78 
  -1  -4   5    2.51    0.78 
   1  -4  -5    3.54    0.57 
   1  -4  -5    2.41    0.64 
   1  -4  -5    2.41    0.70 
  -1  -4   5    2.06    0.69 
  -1  -4   5    2.51    0.44 
  -1   4   5    2.35    0.66 
  -1   4   5    2.20    0.81 
   1   4  -5    2.38    0.68 
  -1   4   5    1.43    0.57 
  -1   4   5    2.11    0.65 
   1   4  -5    2.46    0.86 
   1   4  -5    2.21    0.58 
   1   4  -5    2.35    0.79 
   0  -4  -5    0.43    0.29 
   0  -4  -5    0.66    0.56 
   0  -4   5    0.12    0.42 
   0  -4   5    0.42    0.32 
   0  -4  -5    0.60    0.42 
   0  -4  -5    0.61    0.59 
   0  -4   5    0.95    0.59 
   0  -4  -5    0.04    0.61 
   0  -4   5    0.43    0.35 
   0  -4   5    0.69    0.58 
   0  -4  -5    0.73    0.32 
   0  -4   5    0.43    0.59 
   0   4   5    0.55    0.56 
   0   4  -5    0.48    0.57 
   0   4   5    0.30    0.56 
   0   4   5    0.70    0.51 
   0   4   5    0.61    0.56 
   0   4  -5    0.60    0.45 
   0   4  -5    0.67    0.60 
   0   4  -5    0.54    0.55 
   1  -4   5    1.09    0.62 
  -1  -4  -5    2.27    0.70 
   1  -4   5    1.73    0.48 
  -1  -4  -5    0.88    0.56 
  -1  -4  -5    0.95    0.52 
   1  -4   5    0.92    0.59 
   1  -4   5    1.07    0.43 
   1  -4   5    1.59    0.53 
   1  -4   5    1.18    0.68 
  -1  -4  -5    1.91    0.81 
   1   4   5    0.95    0.55 
  -1   4  -5    0.88    0.51 
  -1   4  -5    0.99    0.65 
  -1   4  -5    1.51    0.67 
   1   4   5    1.92    0.67 
   1   4   5    1.54    0.57 
  -1   4  -5    0.88    0.63 
   1   4   5    1.52    0.61 
   2  -4   5   32.65    1.47 
  -2  -4  -5   32.92    1.75 
   2  -4   5   30.27    1.79 
   2  -4   5   33.01    1.84 
   2  -4   5   31.37    1.81 
  -2  -4  -5   30.30    1.84 
   2  -4   5   30.60    1.48 
   2  -4   5   31.84    1.46 
  -2  -4  -5   31.55    1.74 
  -2  -4  -5   30.73    1.73 
   2   4   5   32.33    1.77 
   2   4   5   31.93    1.73 
   2   4   5   31.80    1.72 
  -2   4  -5   32.01    1.52 
  -2   4  -5   32.19    1.83 
  -2   4  -5   32.29    1.84 
  -2   4  -5   31.16    1.75 
   2   4   5   33.76    1.81 
   3  -4   5   21.44    1.15 
  -3  -4  -5   24.11    1.54 
   3  -4   5   22.88    1.34 
  -3  -4  -5   23.89    1.57 
   3  -4   5   22.68    1.36 
   3  -4   5   25.38    1.65 
  -3  -4  -5   23.78    1.60 
   3  -4   5   21.64    1.53 
   3  -4   5   22.06    1.55 
  -3   4  -5   22.36    1.60 
  -3   4  -5   22.22    1.29 
   3   4   5   20.89    1.48 
   3   4   5   22.56    1.51 
  -3   4  -5   22.47    1.56 
  -3   4  -5   25.93    1.67 
   3   4   5   21.50    1.54 
   3   4   5   24.62    1.54 
  -4  -4  -5   30.69    1.77 
  -4  -4  -5   29.93    1.65 
   4  -4   5   30.07    1.31 
   4  -4   5   32.06    1.67 
  -4  -4  -5   29.46    1.83 
   4  -4   5   31.48    1.88 
   4  -4   5   31.05    1.91 
   4  -4   5   31.05    1.83 
   4  -4   5   32.02    1.68 
  -4   4  -5   30.30    1.89 
   4   4   5   30.99    1.86 
   4   4   5   31.64    1.79 
   4   4   5   28.97    1.77 
   4   4   5   29.82    1.67 
  -4   4  -5   31.19    1.86 
  -4   4  -5   35.57    1.47 
  -4   4  -5   30.98    1.86 
   5  -4   5   -0.12    0.52 
   5  -4   5    1.19    0.63 
   5  -4   5    0.56    0.61 
  -5  -4  -5    0.48    0.53 
   5  -4   5    0.59    0.53 
  -5  -4  -5    0.58    0.72 
   5  -4   5    0.39    0.38 
  -5  -4  -5    0.70    0.58 
   5  -4   5    1.04    0.74 
   5   4   5    0.69    0.55 
   5   4   5    0.76    0.71 
   5   4   5    3.43    0.90 
  -5   4  -5    0.60    0.74 
  -5   4  -5    0.90    0.65 
  -5   4  -5    0.53    0.40 
   5   4   5    0.83    0.64 
  -5   4  -5    0.81    0.65 
   6  -4   5   24.89    1.85 
  -6  -4  -5   24.68    1.82 
   6  -4   5   27.80    1.70 
   6  -4   5   24.85    1.69 
  -6  -4  -5   27.34    1.63 
   6  -4   5   23.08    1.62 
  -6  -4  -5   26.42    1.45 
   6  -4   5   28.54    1.87 
   6   4   5   25.90    1.79 
   6   4   5   24.40    1.80 
   6   4   5   24.47    1.73 
  -6   4  -5   26.85    1.92 
  -6   4  -5   25.17    1.68 
   6   4   5   22.01    1.76 
  -6   4  -5   25.31    1.80 
   6   4   5   27.62    1.48 
  -7  -4  -5   25.70    1.42 
  -7  -4  -5   22.67    1.30 
   7  -4   5   20.79    1.63 
  -7  -4  -5   18.97    1.71 
   7  -4   5   22.07    1.81 
  -7  -4  -5   21.05    1.51 
   7   4   5   21.06    1.77 
  -7   4  -5   22.13    1.75 
   7   4   5   24.01    1.74 
  -7   4  -5   21.88    1.55 
  -8  -4  -5   10.49    1.00 
  -8  -4  -5   10.17    0.84 
  -8  -4  -5   10.34    1.14 
   8  -4   5    9.90    1.30 
   8  -4   5   11.02    1.46 
   8   4   5   10.32    1.30 
  -8   4  -5   11.30    1.41 
  -8   4  -5   10.09    1.19 
   8   4   5    7.66    1.30 
   9  -4   5    1.85    0.86 
   9  -4   5    1.89    1.06 
  -9  -4  -5    1.01    0.66 
  -9  -4  -5    2.69    0.55 
  -9  -4  -5    1.91    0.40 
  -9   4  -5    2.40    0.77 
   9   4   5    2.42    0.80 
   9   4   5    2.55    0.44 
  -9   4  -5    1.13    0.80 
  10  -4   5    0.84    0.79 
  10  -4   5    0.88    0.89 
  10   4   5    1.45    0.43 
 -10   4  -5    1.62    0.71 
  10   4   5    1.47    1.01 
 -10   4  -5    1.16    0.84 
  10   4   5    1.14    0.61 
  10   4   5    0.43    0.76 
  11  -4   5    2.18    1.06 
  11   4   5    5.94    0.89 
  11   4   5    5.54    1.16 
 -10  -5   5    1.76    1.18 
 -10  -5   5    2.69    0.77 
  10  -5  -5    2.77    0.98 
 -10  -5   5    1.18    0.86 
  10   5  -5    2.48    0.83 
 -10   5   5    1.92    0.76 
  10   5  -5    1.43    1.11 
   9  -5  -5    3.88    0.78 
  -9  -5   5    5.92    1.20 
   9  -5  -5    8.37    1.54 
   9  -5  -5    5.30    1.23 
  -9  -5   5    7.11    1.19 
  -9  -5   5    5.22    1.22 
   9   5  -5    6.25    1.09 
  -9   5   5    6.46    1.24 
   9   5  -5    6.39    0.98 
  -8  -5   5   11.99    1.33 
  -8  -5   5   10.37    1.38 
   8  -5  -5   11.43    1.42 
  -8  -5   5   12.45    1.28 
   8  -5  -5   12.96    1.04 
   8  -5  -5    9.93    1.34 
   8   5  -5   12.41    1.23 
  -8   5   5   10.58    1.12 
   8   5  -5   12.09    1.14 
  -8   5   5   12.14    1.42 
   8   5  -5   12.73    1.59 
   7  -5  -5    6.80    1.26 
  -7  -5   5    7.36    1.23 
   7  -5  -5    6.58    0.85 
  -7  -5   5    6.44    1.22 
  -7  -5   5    6.58    1.16 
   7  -5  -5    5.84    1.08 
  -7   5   5    7.07    0.94 
   7   5  -5    7.80    1.02 
  -7   5   5    9.36    1.50 
   7   5  -5    6.05    1.09 
   7   5  -5    5.38    1.19 
  -6  -5   5    1.91    0.72 
   6  -5  -5    5.49    1.11 
   6  -5  -5    1.67    0.73 
  -6  -5   5    1.93    0.82 
   6  -5  -5    2.67    0.90 
   6  -5  -5    1.79    0.75 
   6  -5  -5    1.28    0.56 
  -6  -5   5    1.99    0.84 
  -6   5   5    2.46    0.72 
  -6   5   5    1.85    0.81 
   6   5  -5    1.67    0.87 
   6   5  -5    1.89    0.72 
  -5  -5   5   17.91    1.42 
   5  -5  -5   16.12    1.35 
   5  -5  -5   17.30    1.21 
  -5  -5   5   17.07    1.52 
  -5  -5   5   17.39    1.44 
   5  -5  -5   16.17    1.32 
   5  -5  -5   19.32    1.57 
   5  -5  -5   15.25    1.53 
  -5  -5   5   17.68    1.55 
   5  -5  -5   16.87    0.96 
  -5   5   5   16.26    0.99 
  -5   5   5   17.72    1.25 
   5   5  -5   17.17    1.39 
   5   5  -5   22.42    1.48 
  -5   5   5   18.30    1.65 
   5   5  -5   14.64    1.56 
  -4  -5   5    9.25    1.35 
   4  -5  -5    8.00    0.96 
  -4  -5   5    8.69    1.22 
  -4  -5   5    7.56    1.31 
   4  -5  -5    7.49    1.23 
   4  -5  -5    7.83    0.93 
   4  -5  -5    7.20    0.74 
  -4  -5   5    8.22    1.15 
   4  -5  -5    7.91    0.99 
  -4   5   5    7.43    1.19 
   4   5  -5    7.73    1.10 
   4   5  -5    9.27    1.45 
  -4   5   5    9.65    1.03 
   4   5  -5    8.81    1.18 
   4   5  -5    8.86    1.17 
  -4   5   5    8.90    1.09 
   3  -5  -5   19.78    1.31 
  -3  -5   5   18.48    1.42 
   3  -5  -5   16.24    1.08 
  -3  -5   5   19.58    1.64 
   3  -5  -5   20.73    1.57 
   3  -5  -5   17.74    1.22 
   3  -5  -5   18.85    1.54 
   3  -5  -5   17.26    1.19 
  -3  -5   5   18.12    1.44 
  -3  -5   5   16.63    1.43 
  -3   5   5   18.35    1.39 
  -3   5   5   15.95    1.50 
   3   5  -5   17.55    1.48 
  -3   5   5   17.71    1.30 
   3   5  -5   17.88    1.38 
   3   5  -5   19.61    1.61 
  -3   5   5   18.58    1.27 
   3   5  -5   18.48    1.39 
  -2  -5   5    2.76    0.81 
   2  -5  -5    1.73    0.65 
  -2  -5   5    1.41    0.63 
  -2  -5   5    1.66    0.60 
  -2  -5   5    2.45    1.07 
   2  -5  -5    4.63    1.10 
   2  -5  -5    2.16    0.59 
   2  -5  -5    2.55    0.64 
   2  -5  -5    1.42    0.74 
   2  -5  -5    2.98    0.68 
   2   5  -5    3.19    0.81 
  -2   5   5    2.41    0.69 
  -2   5   5    4.40    1.09 
  -2   5   5    2.88    0.74 
   2   5  -5    2.06    0.87 
   2   5  -5    1.90    0.68 
   2   5  -5    1.86    0.61 
  -2   5   5    2.24    0.73 
  -1  -5   5   28.73    1.72 
   1  -5  -5   25.53    1.70 
  -1  -5   5   30.44    1.86 
  -1  -5   5   28.47    1.62 
   1  -5  -5   28.71    1.65 
   1  -5  -5   27.40    1.85 
   1  -5  -5   27.40    1.50 
   1  -5  -5   27.40    1.25 
   1  -5  -5   27.17    1.23 
  -1  -5   5   26.57    2.00 
   1   5  -5   27.17    1.68 
  -1   5   5   28.93    1.56 
   1   5  -5   27.68    1.58 
   1   5  -5   28.65    1.84 
  -1   5   5   27.88    1.66 
  -1   5   5   28.80    1.86 
   1   5  -5   29.77    1.89 
  -1   5   5   29.19    1.66 
   0  -5   5    9.58    0.71 
   0  -5  -5    9.54    0.64 
   0  -5  -5    9.46    1.11 
   0  -5   5    9.56    0.72 
   0  -5   5    8.32    0.94 
   0  -5  -5    9.70    1.26 
   0  -5   5   10.58    1.35 
   0  -5  -5    8.89    0.65 
   0  -5  -5    9.74    0.99 
   0  -5  -5   11.26    1.56 
   0  -5   5    8.44    1.14 
   0  -5   5    8.98    1.13 
   0   5   5    8.49    1.06 
   0   5   5    9.57    1.04 
   0   5   5    8.88    1.00 
   0   5  -5    8.32    0.95 
   0   5  -5   10.34    1.23 
   0   5   5    8.70    1.17 
   0   5  -5   11.37    1.60 
   0   5  -5   10.09    1.18 
   1  -5   5   34.83    2.04 
   1  -5   5   31.99    1.41 
   1  -5   5   31.41    1.40 
   1  -5   5   32.19    1.97 
   1  -5   5   32.22    1.58 
  -1  -5  -5   31.86    1.92 
  -1  -5  -5   32.19    1.89 
   1  -5   5   32.44    1.93 
  -1  -5  -5   33.41    2.10 
   1   5   5   33.10    1.77 
  -1   5  -5   31.43    1.86 
   1   5   5   39.74    1.92 
  -1   5  -5   32.54    1.62 
   1   5   5   31.27    1.82 
  -1   5  -5   34.19    2.02 
  -1   5  -5   33.20    1.98 
   1   5   5   32.72    1.94 
  -2  -5  -5    5.04    0.97 
   2  -5   5    3.63    0.93 
   2  -5   5    5.15    0.78 
   2  -5   5    5.87    1.16 
  -2  -5  -5    4.32    0.92 
  -2  -5  -5    5.64    1.24 
   2  -5   5    5.81    0.85 
   2  -5   5    5.50    1.13 
   2  -5   5    4.91    0.80 
   2   5   5    4.32    0.92 
  -2   5  -5    5.06    0.86 
   2   5   5    6.39    1.13 
   2   5   5    5.00    0.95 
  -2   5  -5    5.81    1.14 
  -2   5  -5    4.35    0.95 
  -2   5  -5    5.89    1.15 
   2   5   5    4.96    0.98 
   3  -5   5   18.21    1.27 
  -3  -5  -5   19.10    1.54 
  -3  -5  -5   19.75    1.53 
   3  -5   5   20.61    1.29 
   3  -5   5   20.86    1.13 
   3  -5   5   17.88    1.54 
   3  -5   5   19.93    1.58 
   3  -5   5   20.25    1.64 
  -3  -5  -5   17.59    1.41 
   3   5   5   19.02    1.40 
   3   5   5   19.62    1.53 
  -3   5  -5   18.90    1.61 
  -3   5  -5   18.45    1.21 
   3   5   5   20.41    1.51 
   3   5   5   19.32    1.48 
  -3   5  -5   19.86    1.60 
  -3   5  -5   20.20    1.58 
  -4  -5  -5    4.12    1.00 
  -4  -5  -5    1.74    0.71 
   4  -5   5    1.45    0.45 
   4  -5   5    3.12    0.88 
   4  -5   5    2.03    0.65 
   4  -5   5    2.27    0.65 
   4  -5   5    2.98    0.97 
   4  -5   5    2.85    0.94 
  -4  -5  -5    3.25    0.81 
   4   5   5    2.63    0.82 
   4   5   5    2.98    0.66 
  -4   5  -5    2.58    0.85 
  -4   5  -5    3.43    0.67 
   4   5   5    4.58    1.03 
  -4   5  -5    2.31    0.74 
  -4   5  -5    3.40    1.02 
   4   5   5    4.75    0.97 
   4   5   5    2.95    0.78 
  -5  -5  -5   31.02    1.76 
  -5  -5  -5   33.31    1.87 
   5  -5   5   32.77    1.83 
   5  -5   5   32.82    1.87 
  -5  -5  -5   35.58    2.16 
   5  -5   5   33.49    2.12 
   5  -5   5   34.36    1.28 
   5  -5   5   40.86    2.19 
   5   5   5   31.72    1.86 
  -5   5  -5   34.00    2.08 
   5   5   5   34.79    1.86 
   5   5   5   34.58    2.06 
  -5   5  -5   31.19    1.29 
  -5   5  -5   30.05    1.97 
  -6  -5  -5    8.89    1.28 
  -6  -5  -5    6.73    1.25 
   6  -5   5    8.17    1.24 
   6  -5   5    8.97    1.47 
  -6  -5  -5    7.61    0.98 
   6  -5   5    8.49    1.27 
   6   5   5    6.91    1.29 
   6   5   5    9.25    1.16 
  -6   5  -5    9.13    1.48 
  -6   5  -5    6.70    1.31 
   6   5   5    6.87    0.96 
  -7  -5  -5    5.90    0.98 
   7  -5   5    6.03    1.12 
  -7  -5  -5    6.22    1.25 
   7  -5   5    3.86    1.12 
  -7  -5  -5    5.20    0.89 
   7   5   5    6.07    0.96 
  -7   5  -5    4.98    1.03 
   7   5   5    6.68    1.15 
   7   5   5    3.72    1.01 
  -7   5  -5    5.38    1.20 
   8  -5   5    2.60    0.91 
  -8  -5  -5    3.93    0.73 
   8  -5   5    2.26    1.02 
  -8  -5  -5    4.04    0.82 
  -8  -5  -5    3.91    0.81 
   8   5   5    4.76    1.02 
  -8   5  -5    2.69    0.96 
  -8   5  -5    3.46    0.94 
   8   5   5    2.33    0.78 
   9  -5   5    4.52    1.13 
  -9  -5  -5    4.68    0.72 
  -9  -5  -5    7.17    1.15 
   9  -5   5    6.93    1.45 
  -9  -5  -5    3.81    0.75 
   9   5   5    4.26    1.04 
  -9   5  -5    5.29    1.08 
  -9   5  -5    4.28    1.16 
  10  -5   5    0.56    0.84 
 -10  -5  -5    0.83    0.72 
  10  -5   5   -1.06    0.81 
  -9  -6   5    7.13    1.24 
   9  -6  -5    6.24    1.35 
  -9  -6   5    5.94    1.21 
   9  -6  -5    9.07    1.03 
  -9   6   5    6.39    1.16 
  -9   6   5    8.77    1.85 
   9   6  -5    5.23    1.29 
   8  -6  -5   17.69    1.66 
   8  -6  -5   18.77    1.36 
  -8  -6   5   15.56    1.65 
   8  -6  -5   17.14    1.74 
  -8  -6   5   18.11    1.52 
  -8  -6   5   18.44    1.73 
  -8   6   5   18.36    1.45 
   8   6  -5   22.19    1.88 
  -8   6   5   17.75    1.76 
   8   6  -5   17.84    1.48 
  -7  -6   5    2.17    0.82 
   7  -6  -5    3.98    0.79 
   7  -6  -5    2.20    0.87 
   7  -6  -5    1.52    0.79 
  -7  -6   5    1.99    0.83 
  -7  -6   5    2.85    0.96 
   7   6  -5    1.70    0.94 
  -7   6   5    1.07    0.88 
  -7   6   5    0.94    0.73 
   7   6  -5    3.75    0.90 
   6  -6  -5    9.80    1.11 
  -6  -6   5   10.82    1.50 
   6  -6  -5   10.77    1.45 
  -6  -6   5    8.69    1.18 
   6  -6  -5    9.94    1.35 
  -6  -6   5   11.52    1.37 
   6   6  -5    9.27    1.50 
  -6   6   5    9.53    1.14 
  -6   6   5   11.63    1.53 
   6   6  -5   10.48    1.22 
   5  -6  -5    0.89    0.66 
  -5  -6   5    1.80    0.77 
  -5  -6   5    0.60    0.77 
   5  -6  -5    1.27    0.69 
   5  -6  -5    2.19    0.84 
  -5  -6   5    1.86    0.80 
  -5  -6   5    1.03    0.81 
   5  -6  -5    0.66    0.79 
   5  -6  -5    2.00    0.78 
   5   6  -5    3.21    1.02 
  -5   6   5    1.40    0.50 
  -5   6   5    1.54    0.96 
   5   6  -5    2.64    0.93 
  -5   6   5    0.83    0.72 
  -4  -6   5   24.35    1.75 
  -4  -6   5   25.09    1.78 
   4  -6  -5   25.64    1.60 
  -4  -6   5   23.83    1.74 
  -4  -6   5   19.89    1.72 
   4  -6  -5   24.84    1.92 
   4  -6  -5   24.06    1.78 
   4  -6  -5   27.92    1.58 
   4  -6  -5   23.28    1.54 
  -4   6   5   24.31    1.91 
  -4   6   5   24.04    1.21 
  -4   6   5   25.56    1.37 
   4   6  -5   22.92    1.69 
   4   6  -5   25.15    1.86 
  -4   6   5   24.48    1.64 
   4   6  -5   23.71    1.77 
   3  -6  -5   32.02    1.66 
   3  -6  -5   32.45    2.15 
   3  -6  -5   31.48    1.62 
   3  -6  -5   33.16    1.87 
   3  -6  -5   34.60    2.05 
  -3  -6   5   34.14    2.05 
  -3  -6   5   31.33    1.93 
  -3  -6   5   32.84    2.06 
  -3  -6   5   29.15    2.03 
  -3   6   5   30.09    1.63 
  -3   6   5   33.49    1.92 
   3   6  -5   31.48    1.89 
   3   6  -5   27.86    1.95 
   3   6  -5   31.92    1.94 
  -3   6   5   32.90    2.17 
   3   6  -5   32.80    2.04 
   2  -6  -5    5.55    1.25 
  -2  -6   5    4.16    0.90 
   2  -6  -5    3.71    0.89 
  -2  -6   5    2.56    0.74 
   2  -6  -5    5.79    0.88 
  -2  -6   5    4.23    1.07 
   2  -6  -5    5.60    0.82 
   2  -6  -5    5.43    1.15 
  -2  -6   5    4.13    1.19 
  -2   6   5    4.66    1.03 
  -2   6   5    5.18    1.26 
  -2   6   5    5.68    0.88 
   2   6  -5    4.85    0.90 
  -2   6   5    4.35    0.96 
   2   6  -5    3.53    1.02 
   2   6  -5    4.16    1.03 
   2   6  -5    6.31    1.16 
  -1  -6   5   14.47    1.77 
   1  -6  -5   12.87    1.36 
   1  -6  -5   13.73    0.90 
  -1  -6   5   13.65    1.23 
   1  -6  -5   12.59    0.93 
   1  -6  -5   13.73    1.32 
   1  -6  -5   14.80    1.54 
  -1  -6   5   15.95    1.50 
  -1  -6   5   14.53    1.44 
   1   6  -5   13.11    1.36 
  -1   6   5   12.95    1.20 
   1   6  -5   13.98    1.49 
  -1   6   5   14.01    1.52 
  -1   6   5   14.76    1.37 
  -1   6   5   12.00    1.16 
   1   6  -5   12.63    1.20 
   1   6  -5   10.94    1.33 
   0  -6   5    1.36    0.84 
   0  -6  -5    2.55    0.48 
   0  -6   5    2.36    1.08 
   0  -6   5    1.96    0.65 
   0  -6   5    1.56    0.82 
   0  -6  -5    0.87    0.75 
   0  -6   5    2.26    0.50 
   0  -6  -5    2.34    0.93 
   0  -6   5    1.94    0.46 
   0  -6  -5    1.97    0.85 
   0  -6  -5    3.09    0.53 
   0   6   5    2.77    0.76 
   0   6   5    3.21    0.75 
   0   6   5    2.74    0.82 
   0   6  -5    2.49    0.76 
   0   6   5    2.32    0.78 
   0   6   5    0.65    0.70 
   0   6  -5    3.05    0.91 
   0   6  -5    2.25    0.92 
   0   6  -5    2.80    0.95 
   1  -6   5   15.80    1.51 
  -1  -6  -5   15.57    1.51 
   1  -6   5   14.54    0.96 
   1  -6   5   13.49    1.13 
  -1  -6  -5   16.52    1.66 
   1  -6   5   14.51    1.55 
   1  -6   5   15.05    1.00 
   1  -6   5   13.42    1.45 
  -1  -6  -5   13.68    1.41 
   1   6   5   14.37    1.26 
   1   6   5   14.15    1.41 
   1   6   5   12.89    1.22 
  -1   6  -5   17.86    1.24 
  -1   6  -5   15.36    1.48 
   1   6   5   15.36    1.33 
  -1   6  -5   13.24    1.50 
   1   6   5   12.48    1.42 
  -2  -6  -5    2.20    0.84 
  -2  -6  -5    3.56    0.99 
   2  -6   5    1.72    0.89 
   2  -6   5    3.83    1.04 
  -2  -6  -5    1.45    0.84 
   2  -6   5    2.31    0.60 
   2  -6   5    2.34    0.65 
   2  -6   5    2.48    0.89 
   2   6   5    3.18    0.85 
  -2   6  -5    2.61    0.71 
   2   6   5    0.89    1.16 
   2   6   5    1.70    0.71 
  -2   6  -5    3.13    0.83 
  -2   6  -5    3.75    1.04 
   2   6   5    1.69    0.79 
   2   6   5    1.50    0.71 
   3  -6   5   24.09    1.48 
   3  -6   5   26.54    1.94 
   3  -6   5   25.59    1.49 
  -3  -6  -5   25.69    1.77 
  -3  -6  -5   24.30    1.73 
   3  -6   5   25.81    1.35 
   3  -6   5   24.93    1.92 
  -3  -6  -5   27.66    1.95 
   3   6   5   24.45    1.60 
  -3   6  -5   28.00    1.91 
   3   6   5   27.11    1.87 
  -3   6  -5   28.35    2.00 
   3   6   5   26.06    1.77 
   3   6   5   24.24    1.80 
  -3   6  -5   24.04    1.39 
   4  -6   5    8.09    0.98 
  -4  -6  -5    7.30    1.14 
   4  -6   5    8.85    1.06 
  -4  -6  -5   10.76    1.19 
   4  -6   5    6.40    1.24 
   4  -6   5    6.90    1.14 
   4  -6   5    9.29    0.78 
  -4   6  -5    6.13    1.27 
   4   6   5    7.86    1.22 
   4   6   5    9.20    1.11 
  -4   6  -5    8.11    1.32 
   4   6   5    5.45    0.95 
   5  -6   5    0.16    0.56 
   5  -6   5    0.36    0.77 
   5  -6   5    0.40    0.58 
  -5  -6  -5    0.19    0.56 
  -5  -6  -5    0.34    0.63 
  -5  -6  -5    0.25    0.72 
  -5   6  -5    0.55    0.70 
  -5   6  -5    0.17    0.68 
   5   6   5    0.58    0.63 
   5   6   5   -0.14    0.66 
   5   6   5   -0.25    0.61 
   6  -6   5    2.25    0.95 
   6  -6   5    2.22    0.83 
  -6  -6  -5    2.94    0.82 
  -6  -6  -5    2.93    1.12 
  -6  -6  -5    2.82    0.81 
   6   6   5    2.76    0.88 
  -6   6  -5    2.81    0.99 
   6   6   5    1.96    0.84 
  -6   6  -5    3.38    1.00 
   6   6   5    2.09    0.82 
  -7  -6  -5    9.93    1.58 
  -7  -6  -5    8.96    1.09 
   7  -6   5    9.57    1.37 
   7  -6   5   11.08    1.50 
   7   6   5    8.29    1.13 
  -7   6  -5    7.43    1.41 
   7   6   5    9.05    1.14 
   7   6   5    9.47    1.49 
   8  -6   5    3.38    1.19 
   8  -6   5    5.86    1.19 
  -8  -6  -5    3.85    0.84 
  -8  -6  -5    3.23    0.90 
  -8  -6  -5    2.56    1.11 
   8   6   5    7.21    1.14 
   8   6   5    3.19    0.87 
  -8   6  -5    6.03    1.13 
   9  -6   5    3.16    1.02 
   7  -7  -5    5.86    1.15 
  -7   7   5    8.70    1.55 
   7   7  -5    4.47    1.18 
   6  -7  -5    1.26    0.80 
   6  -7  -5    0.66    0.74 
  -6  -7   5    1.90    0.75 
   6  -7  -5    1.95    0.89 
  -6  -7   5    1.57    0.94 
  -6  -7   5    2.28    0.97 
  -6   7   5    1.95    1.02 
   6   7  -5    1.21    0.86 
   6   7  -5    0.36    0.75 
  -5  -7   5    9.25    1.43 
   5  -7  -5    5.00    1.14 
   5  -7  -5    7.61    1.23 
   5  -7  -5    8.10    1.13 
  -5  -7   5    8.45    1.48 
   5   7  -5    8.25    1.45 
   5   7  -5    8.64    1.39 
   4  -7  -5    3.75    0.93 
  -4  -7   5    5.79    1.28 
   4  -7  -5    3.94    0.90 
  -4  -7   5    3.11    1.09 
  -4  -7   5    3.58    1.08 
   4  -7  -5    4.20    0.94 
   4  -7  -5    3.32    0.96 
   4  -7  -5    3.48    1.04 
   4   7  -5    4.92    1.21 
  -4   7   5    4.76    0.72 
  -4   7   5    5.16    0.86 
   4   7  -5    2.86    0.96 
  -4   7   5    2.05    1.06 
  -3  -7   5    8.13    1.43 
   3  -7  -5    8.76    0.98 
   3  -7  -5    8.25    1.23 
  -3  -7   5    9.07    1.18 
   3  -7  -5   11.31    1.61 
   3  -7  -5    7.31    1.01 
  -3  -7   5    9.78    1.44 
  -3   7   5    7.46    1.30 
   3   7  -5    9.46    1.32 
  -3   7   5    8.82    1.03 
  -3   7   5    7.85    0.86 
   2  -7  -5    6.09    0.92 
  -2  -7   5    6.87    1.29 
  -2  -7   5    4.27    1.10 
   2  -7  -5    6.00    1.20 
  -2  -7   5    6.83    1.25 
   2  -7  -5    5.11    1.09 
   2  -7  -5    4.93    1.10 
   2  -7  -5    5.68    0.84 
  -2   7   5    4.71    0.91 
   2   7  -5    4.98    1.21 
  -2   7   5    5.70    1.23 
  -2   7   5    5.59    0.93 
   2   7  -5    5.33    1.36 
   1  -7  -5    7.79    1.37 
   1  -7  -5    6.50    0.73 
  -1  -7   5    9.31    1.32 
  -1  -7   5    9.52    1.40 
   1  -7  -5    8.71    1.32 
   1  -7  -5    9.25    1.48 
  -1  -7   5    9.66    1.55 
   1  -7  -5    7.11    0.81 
  -1   7   5    9.54    1.09 
   1   7  -5   10.58    1.53 
   1   7  -5    8.36    1.08 
   1   7  -5    7.76    1.26 
  -1   7   5    8.49    1.02 
  -1   7   5    9.33    1.62 
   0  -7  -5    3.56    0.95 
   0  -7  -5    1.42    0.48 
   0  -7   5    1.34    0.97 
   0  -7  -5    1.13    0.97 
   0  -7   5    1.72    0.73 
   0  -7  -5    2.17    1.06 
   0  -7  -5    0.88    0.37 
   0  -7   5    0.98    0.42 
   0  -7   5    0.88    0.83 
   0   7   5    1.21    0.68 
   0   7  -5    1.73    0.71 
   0   7  -5    0.94    0.89 
   0   7   5    2.21    0.85 
   0   7   5    0.45    0.58 
   0   7   5    1.12    0.67 
   0   7  -5    0.52    0.72 
   1  -7   5    6.68    1.44 
  -1  -7  -5    6.35    1.30 
   1  -7   5    6.45    0.84 
  -1  -7  -5    8.28    1.52 
   1  -7   5    6.02    0.77 
   1  -7   5    5.82    1.18 
  -1  -7  -5    4.07    0.97 
  -1   7  -5   10.00    1.36 
  -1   7  -5    6.32    1.02 
  -1   7  -5    6.81    1.25 
   1   7   5    5.84    1.12 
   1   7   5    9.49    1.12 
   1   7   5    5.30    1.11 
   1   7   5    7.94    1.49 
   2  -7   5    2.81    0.84 
   2  -7   5    3.30    1.03 
  -2  -7  -5    1.19    0.86 
   2  -7   5    2.64    0.67 
  -2  -7  -5    1.26    0.75 
   2  -7   5    2.16    0.67 
  -2  -7  -5    1.15    0.80 
   2   7   5    2.47    0.92 
  -2   7  -5    3.04    0.99 
   2   7   5    0.96    0.72 
  -2   7  -5    1.77    0.90 
  -2   7  -5    3.10    0.75 
   2   7   5    1.85    0.76 
  -3  -7  -5   11.29    1.56 
   3  -7   5   10.19    0.94 
  -3  -7  -5   12.24    1.53 
   3  -7   5    9.41    1.01 
   3  -7   5   10.10    1.51 
   3  -7   5   11.47    1.12 
   3  -7   5   13.13    1.56 
  -3  -7  -5   10.69    1.41 
  -3   7  -5   12.32    1.05 
   3   7   5    9.78    1.13 
  -3   7  -5   12.68    1.78 
  -3   7  -5   13.31    1.49 
   3   7   5   11.19    1.42 
   3   7   5   11.19    1.36 
   4  -7   5    0.77    0.64 
  -4  -7  -5    0.94    0.73 
   4  -7   5    0.65    0.63 
   4  -7   5    2.14    0.91 
  -4  -7  -5    1.93    0.96 
  -4   7  -5    1.81    0.80 
  -4   7  -5    1.68    0.96 
   4   7   5    1.49    0.70 
   4   7   5    1.43    0.82 
  -4   7  -5    0.90    0.56 
  -5  -7  -5    9.97    1.54 
  -5  -7  -5    6.34    1.13 
   5  -7   5    5.92    1.33 
  -5  -7  -5    9.37    1.21 
   5  -7   5    9.45    1.15 
  -5   7  -5    8.50    1.47 
   5   7   5    6.87    1.37 
  -5   7  -5    8.24    1.51 
   5   7   5    8.10    1.30 
   5   7   5    7.80    1.16 
  -6  -7  -5    4.26    0.96 
  -6  -7  -5    4.22    1.23 
   6  -7   5    3.41    1.03 
  -6  -7  -5    4.03    1.02 
   6  -7   5    2.78    1.09 
   6   7   5    4.68    0.98 
  -6   7  -5    6.81    1.46 
   6   7   5    3.69    1.01 
  -6   7  -5    4.25    1.18 
   6   7   5    3.98    1.15 
   7  -7   5    4.26    1.59 
   7  -7   5    4.58    1.19 
  -7  -7  -5    4.58    0.92 
  -7  -7  -5    4.25    1.02 
  -7   7  -5    5.23    1.18 
  -7   7  -5    4.20    1.79 
   7   7   5    3.39    1.02 
   5  -8  -5    0.70    0.79 
   5  -8  -5    2.51    0.91 
  -5  -8   5    1.68    1.15 
   5  -8  -5   -0.33    0.65 
  -5   8   5    0.25    0.85 
   5   8  -5    4.28    1.01 
   4  -8  -5    8.66    1.40 
   4  -8  -5   12.04    1.76 
  -4  -8   5   11.57    1.77 
   4  -8  -5    9.06    1.13 
  -4   8   5   10.02    0.85 
  -4   8   5    9.10    1.74 
   4   8  -5   10.92    1.97 
   4   8  -5    9.50    1.48 
   3  -8  -5    1.71    0.90 
   3  -8  -5    3.57    1.05 
  -3  -8   5    0.37    0.86 
  -3  -8   5    2.68    0.93 
   3  -8  -5    0.97    0.66 
   3  -8  -5    2.35    0.68 
   3  -8  -5   -0.37    1.25 
  -3   8   5   -0.41    0.63 
   3   8  -5    0.28    0.75 
   3   8  -5    0.52    0.96 
  -3   8   5    0.98    0.58 
  -3   8   5    0.07    0.72 
   2  -8  -5    4.94    1.16 
  -2  -8   5    3.86    1.14 
   2  -8  -5    4.13    1.09 
  -2  -8   5    3.84    1.24 
   2  -8  -5    4.60    0.87 
   2  -8  -5    4.81    0.82 
  -2   8   5    4.10    0.93 
  -2   8   5    6.66    1.36 
   2   8  -5    3.61    1.11 
  -2   8   5    5.51    0.95 
   2   8  -5    7.76    1.30 
  -1  -8   5    1.45    0.84 
  -1  -8   5    0.69    0.77 
   1  -8  -5    0.20    0.77 
   1  -8  -5    0.90    0.47 
   1  -8  -5    1.14    0.56 
   1  -8  -5    0.82    0.90 
  -1   8   5    0.84    0.64 
   1   8  -5    0.55    0.76 
   1   8  -5   -0.13    0.77 
  -1   8   5    1.11    0.72 
  -1   8   5    0.17    0.85 
   0  -8  -5   -0.10    0.70 
   0  -8  -5    1.61    1.13 
   0  -8   5    0.44    0.91 
   0  -8  -5    0.17    0.75 
   0  -8   5    2.00    0.93 
   0   8   5    0.30    0.74 
   0   8  -5    0.52    0.90 
   0   8   5    1.56    0.75 
   0   8  -5   -0.04    0.69 
   1  -8   5    0.28    0.47 
   1  -8   5    1.16    0.82 
  -1  -8  -5    0.91    0.95 
   1  -8   5    0.34    0.81 
  -1  -8  -5    0.86    0.91 
   1  -8   5    0.12    0.48 
  -1  -8  -5    3.90    1.19 
   1   8   5    1.22    0.67 
   1   8   5   -0.05    0.80 
  -1   8  -5   -0.52    0.61 
  -1   8  -5    2.48    1.00 
  -1   8  -5   -0.73    0.67 
   2  -8   5    4.53    1.30 
  -2  -8  -5    6.29    1.19 
   2  -8   5    8.25    1.09 
   2  -8   5    6.77    0.92 
  -2  -8  -5    6.36    1.38 
  -2  -8  -5    7.64    1.33 
   2  -8   5    6.48    1.37 
  -2   8  -5    7.02    1.04 
  -2   8  -5    4.82    1.12 
   2   8   5    6.72    1.23 
  -2   8  -5    6.37    1.45 
   2   8   5    7.97    1.57 
  -3  -8  -5    3.70    1.14 
   3  -8   5    3.12    1.09 
   3  -8   5    3.17    0.86 
  -3  -8  -5    5.12    1.11 
   3  -8   5    4.00    0.91 
  -3   8  -5    5.13    0.93 
  -3   8  -5    5.18    1.20 
   3   8   5    2.88    0.95 
  -3   8  -5    3.33    0.69 
   3   8   5    7.06    1.48 
  -3   8  -5    4.37    1.23 
   4  -8   5   10.37    1.19 
  -4  -8  -5    8.63    2.04 
  -4  -8  -5    5.82    1.10 
   4   8   5    6.65    1.55 
  -4   8  -5    8.22    1.59 
  -4   8  -5    6.49    1.38 
   5  -8   5   -0.67    0.59 
  -5  -8  -5    1.35    0.69 
   5   8   5    0.28    0.76 
  -5   8  -5    0.22    0.80 
 -12   0   6    2.25    0.80 
  12   0  -6    1.32    0.73 
  12   0  -6    0.02    0.94 
  11   0  -6    3.51    1.02 
  11   0  -6    3.89    0.77 
 -11   0   6    4.23    0.95 
  10   0  -6   33.21    1.91 
  10   0  -6   34.96    2.34 
 -10   0   6   31.57    1.88 
  10   0  -6   34.02    1.87 
 -10   0   6   35.90    1.94 
  10   0  -6   32.08    1.61 
   9   0  -6   10.40    1.07 
  -9   0   6   11.39    1.15 
   9   0  -6   11.70    1.19 
   9   0  -6   11.58    1.50 
   9   0  -6   11.23    1.13 
  -9   0   6   12.64    1.18 
   8   0  -6   56.17    2.75 
   8   0  -6   59.47    2.34 
  -8   0   6   52.77    2.30 
   8   0  -6   55.90    2.70 
   8   0  -6   52.12    2.18 
   8   0  -6   55.81    2.32 
  -8   0   6   54.54    2.30 
   8   0  -6   55.69    2.38 
   7   0  -6   13.98    1.20 
   7   0  -6   14.16    1.16 
   7   0  -6   13.99    1.20 
   7   0  -6   17.15    1.20 
   7   0  -6   13.24    1.38 
  -7   0   6   13.43    1.11 
  -7   0   6   12.63    1.14 
   6   0  -6   76.18    2.84 
   6   0  -6   77.61    2.70 
   6   0  -6   75.92    3.06 
  -6   0   6   76.90    2.65 
   6   0  -6   76.07    2.77 
   6   0  -6   75.57    2.79 
  -6   0   6   75.52    2.76 
  -6   0   6   75.03    3.04 
  -5   0   6   12.14    0.96 
   5   0  -6   15.02    1.29 
  -5   0   6   15.07    1.14 
   5   0  -6   15.48    1.23 
   5   0  -6   13.23    1.18 
   5   0  -6   15.08    1.08 
  -5   0   6   16.14    1.31 
   5   0  -6   13.45    1.09 
   4   0  -6  134.31    4.17 
   4   0  -6  132.55    4.13 
  -4   0   6  134.41    3.83 
   4   0  -6  139.40    3.87 
  -4   0   6  129.63    4.14 
   4   0  -6  135.17    4.00 
   4   0  -6  139.14    4.20 
  -4   0   6  140.18    4.05 
   3   0  -6    7.94    0.94 
   3   0  -6    7.68    0.91 
  -3   0   6    8.31    0.90 
   3   0  -6    7.14    0.98 
   3   0  -6    6.34    0.99 
  -3   0   6    7.24    0.88 
  -3   0   6    8.49    0.80 
   3   0  -6    7.94    0.83 
   2   0  -6   48.85    2.08 
  -2   0   6   43.73    1.37 
   2   0  -6   47.68    2.12 
  -2   0   6   44.89    1.97 
   2   0  -6   45.56    1.91 
  -2   0   6   45.85    1.84 
  -2   0   6   44.42    1.36 
   2   0  -6   45.99    1.97 
  -2   0   6   44.06    1.92 
  -1   0   6   17.74    1.18 
   1   0  -6   18.32    1.28 
  -1   0   6   17.52    0.90 
  -1   0   6   18.38    1.33 
  -1   0   6   18.59    1.22 
   1   0  -6   18.66    1.37 
   1   0  -6   16.42    1.26 
   1   0  -6   17.87    1.38 
  -1   0   6   17.53    1.22 
   0   0   6    0.89    0.57 
   0   0   6    0.49    0.51 
   0   0   6    0.77    0.64 
   0   0  -6    0.38    0.63 
   0   0  -6    0.43    0.49 
   0   0  -6    1.23    0.56 
   0   0   6    0.73    0.59 
   0   0  -6    0.99    0.49 
   0   0   6    0.54    0.44 
  -1   0  -6   10.82    1.01 
   1   0   6   13.18    1.23 
  -1   0  -6   10.18    0.97 
   1   0   6   11.45    0.97 
  -1   0  -6   10.89    0.96 
   1   0   6    9.93    1.06 
   1   0   6   11.19    1.06 
   1   0   6   11.42    1.17 
  -2   0  -6   16.99    1.25 
  -2   0  -6   17.32    1.23 
   2   0   6   17.68    1.14 
   2   0   6   16.78    1.25 
  -2   0  -6   14.74    1.13 
  -2   0  -6   18.52    1.11 
   2   0   6   21.61    1.37 
   2   0   6   19.59    1.27 
   2   0   6   17.88    1.27 
   3   0   6   11.47    0.91 
  -3   0  -6   11.41    0.90 
   3   0   6   11.78    1.15 
   3   0   6   10.37    1.01 
  -3   0  -6   11.18    0.97 
   3   0   6   11.67    1.06 
  -3   0  -6   12.35    1.08 
   3   0   6   10.68    1.02 
  -3   0  -6   11.27    1.05 
  -4   0  -6   45.01    1.90 
  -4   0  -6   42.30    1.73 
   4   0   6   40.93    1.87 
   4   0   6   41.68    1.85 
  -4   0  -6   43.62    2.01 
  -4   0  -6   38.19    1.81 
   4   0   6   38.44    1.67 
   5   0   6    9.05    1.01 
  -5   0  -6    7.83    0.88 
  -5   0  -6    8.64    0.87 
  -5   0  -6    7.75    0.96 
   5   0   6    6.40    1.05 
   5   0   6    8.54    0.84 
   5   0   6    7.54    0.94 
   5   0   6   10.18    1.20 
  -5   0  -6    8.01    0.88 
   5   0   6    9.10    0.93 
   6   0   6   22.72    1.32 
   6   0   6   20.79    1.69 
  -6   0  -6   21.67    1.39 
  -6   0  -6   21.81    1.27 
  -6   0  -6   23.27    1.37 
   6   0   6   22.14    1.42 
   7   0   6   42.17    2.01 
   7   0   6   34.08    2.15 
  -7   0  -6   39.41    2.11 
   7   0   6   43.19    2.42 
  -7   0  -6   39.97    1.90 
  -7   0  -6   40.02    1.73 
  -7   0  -6   42.28    1.96 
   7   0   6   38.33    2.07 
  -7   0  -6   38.88    1.65 
   7   0   6   41.32    1.89 
  -8   0  -6   15.22    0.96 
  -8   0  -6   16.53    1.31 
   8   0   6   18.70    1.74 
   8   0   6   14.25    1.54 
   8   0   6   15.28    1.21 
   8   0   6   16.45    1.30 
  -8   0  -6   15.15    1.02 
  -8   0  -6   14.09    1.38 
  -9   0  -6    5.11    0.59 
  -9   0  -6    4.70    0.67 
   9   0   6    4.54    0.90 
   9   0   6    5.69    1.38 
  -9   0  -6    7.80    1.06 
   9   0   6    4.63    0.92 
  10   0   6   17.31    1.39 
  10   0   6   15.52    1.57 
 -10   0  -6   19.67    1.53 
  10   0   6   16.36    1.38 
  10   0   6   15.17    1.81 
  10   0   6   16.05    1.29 
  11   0   6   24.65    2.16 
  11   0   6   20.36    1.55 
  11   0   6   18.40    1.67 
  12   0   6    2.94    0.99 
  12   0   6    1.34    0.89 
  12   0   6    0.56    1.01 
  12  -1  -6    3.75    1.16 
  12  -1  -6    3.34    1.23 
  12   1  -6    2.70    1.26 
 -12   1   6    5.54    0.98 
  12   1  -6    5.66    1.02 
  11  -1  -6    6.29    0.99 
  11  -1  -6    4.70    1.03 
  11  -1  -6    5.99    1.38 
 -11  -1   6    6.57    1.15 
  11  -1  -6    7.01    1.14 
  11   1  -6    8.01    0.75 
 -11   1   6    5.89    0.96 
  11   1  -6    7.73    1.03 
  11   1  -6    3.24    1.10 
  11   1  -6    5.96    1.03 
  10  -1  -6    5.01    1.14 
  10  -1  -6    5.52    1.00 
  10  -1  -6    6.62    1.02 
 -10  -1   6    6.97    1.11 
  10  -1  -6    6.05    1.03 
  10   1  -6    5.50    0.93 
  10   1  -6    6.17    1.36 
 -10   1   6    7.45    0.98 
  10   1  -6    5.91    0.83 
   9  -1  -6    0.40    0.63 
   9  -1  -6    0.30    0.65 
   9  -1  -6    0.92    0.62 
  -9  -1   6   -0.22    0.49 
   9  -1  -6    0.12    0.59 
   9   1  -6    0.29    0.51 
   9   1  -6   -0.17    0.45 
  -9   1   6    0.54    0.60 
  -9   1   6    0.29    0.50 
   9   1  -6    0.59    0.74 
   9   1  -6    0.46    0.59 
   8  -1  -6   20.60    1.48 
  -8  -1   6   18.25    1.45 
   8  -1  -6   17.89    1.60 
   8  -1  -6   21.83    1.75 
   8  -1  -6   19.44    1.48 
   8  -1  -6   22.09    1.44 
   8  -1  -6   18.93    1.34 
  -8  -1   6   20.10    1.27 
   8   1  -6   18.43    1.44 
   8   1  -6   20.06    1.72 
  -8   1   6   18.39    1.28 
  -8   1   6   17.38    1.39 
   8   1  -6   17.44    1.27 
   8   1  -6   20.54    1.29 
   8   1  -6   21.32    1.34 
   7  -1  -6   22.79    1.43 
   7  -1  -6   23.66    1.51 
   7  -1  -6   24.22    1.45 
  -7  -1   6   21.05    1.65 
  -7  -1   6   21.32    1.50 
  -7  -1   6   23.58    1.30 
   7  -1  -6   21.50    1.61 
   7  -1  -6   22.88    1.69 
   7  -1  -6   21.94    1.56 
   7   1  -6   19.75    1.37 
   7   1  -6   22.65    1.29 
  -7   1   6   23.53    1.49 
  -7   1   6   22.11    1.36 
   7   1  -6   23.20    1.43 
   7   1  -6   20.11    1.64 
   7   1  -6   23.22    1.53 
   6  -1  -6   13.21    1.29 
   6  -1  -6   14.29    1.30 
  -6  -1   6   13.18    1.17 
   6  -1  -6   17.21    1.35 
   6  -1  -6   13.06    1.15 
   6  -1  -6   12.35    1.13 
  -6  -1   6   10.74    1.25 
  -6  -1   6   12.22    0.93 
   6  -1  -6   13.56    1.17 
   6   1  -6   13.38    0.99 
  -6   1   6   13.45    1.09 
   6   1  -6   10.68    1.07 
   6   1  -6   12.73    1.14 
   6   1  -6   13.53    1.15 
  -6   1   6   13.42    1.12 
   6   1  -6   13.21    1.35 
  -5  -1   6   29.08    1.76 
   5  -1  -6   31.25    1.75 
   5  -1  -6   28.48    1.69 
  -5  -1   6   29.46    0.89 
   5  -1  -6   30.47    1.65 
  -5  -1   6   31.74    1.38 
   5  -1  -6   30.77    1.61 
   5  -1  -6   28.84    1.57 
  -5  -1   6   30.12    1.65 
   5   1  -6   31.24    1.66 
   5   1  -6   31.36    1.40 
  -5   1   6   30.90    1.57 
   5   1  -6   29.91    0.85 
   5   1  -6   28.60    1.78 
   5   1  -6   29.58    1.61 
  -5   1   6   29.39    1.52 
  -4  -1   6   19.02    1.41 
   4  -1  -6   19.22    1.35 
  -4  -1   6   20.43    0.76 
   4  -1  -6   18.59    1.36 
  -4  -1   6   20.58    1.08 
   4  -1  -6   20.88    1.33 
   4  -1  -6   20.01    1.27 
  -4  -1   6   18.66    1.29 
   4  -1  -6   20.12    1.37 
  -4   1   6   20.64    1.26 
   4   1  -6   18.68    1.08 
  -4   1   6   20.81    1.37 
   4   1  -6   19.58    1.35 
   4   1  -6   20.49    1.52 
   4   1  -6   19.11    1.29 
   4   1  -6   20.78    0.75 
  -4   1   6   19.53    1.25 
  -3  -1   6  162.25    3.96 
  -3  -1   6  168.38    4.99 
   3  -1  -6  168.49    4.89 
   3  -1  -6  174.17    4.75 
   3  -1  -6  149.04    4.79 
  -3  -1   6  173.96    4.80 
   3  -1  -6  172.61    4.75 
   3  -1  -6  173.43    4.69 
  -3  -1   6  176.09    4.38 
  -3  -1   6  172.79    4.96 
  -3   1   6  175.88    4.70 
   3   1  -6  167.99    4.85 
   3   1  -6  166.46    4.73 
  -3   1   6  170.59    4.70 
  -3   1   6  182.05    4.80 
  -3   1   6  153.88    3.68 
   3   1  -6  169.24    5.05 
   3   1  -6  174.11    4.48 
   3   1  -6  169.20    3.98 
  -3   1   6  159.66    3.69 
   2  -1  -6    0.32    0.47 
  -2  -1   6    0.22    0.39 
  -2  -1   6    0.62    0.33 
  -2  -1   6    1.08    0.49 
   2  -1  -6    0.82    0.51 
   2  -1  -6   -0.02    0.54 
   2  -1  -6    0.76    0.44 
   2  -1  -6    0.75    0.51 
  -2  -1   6    0.87    0.60 
  -2  -1   6    0.89    0.64 
   2   1  -6    0.93    0.60 
  -2   1   6    1.01    0.33 
   2   1  -6    0.06    0.62 
   2   1  -6    1.07    0.37 
  -2   1   6    1.08    0.52 
   2   1  -6    0.66    0.45 
  -2   1   6    0.78    0.29 
  -2   1   6    0.65    0.44 
   2   1  -6    0.08    0.49 
  -2   1   6    0.48    0.43 
   1  -1  -6   94.97    3.20 
  -1  -1   6   97.66    3.27 
  -1  -1   6   75.99    3.02 
   1  -1  -6   91.98    3.12 
   1  -1  -6   93.82    2.92 
  -1  -1   6   89.61    3.02 
  -1  -1   6   95.13    2.84 
   1  -1  -6   97.43    3.25 
  -1  -1   6   93.79    2.65 
   1  -1  -6   89.23    3.00 
   1   1  -6   92.17    3.19 
   1   1  -6   91.70    3.00 
  -1   1   6   96.09    2.59 
   1   1  -6   95.85    2.89 
  -1   1   6   93.50    2.57 
   1   1  -6   92.20    2.64 
  -1   1   6   93.98    2.87 
   1   1  -6   94.52    3.17 
  -1   1   6   94.92    3.08 
  -1   1   6   75.66    2.88 
   0  -1   6   42.10    2.04 
   0  -1   6   35.83    1.86 
   0  -1  -6   30.99    1.65 
   0  -1  -6   41.28    1.98 
   0  -1   6   39.22    1.79 
   0  -1   6   38.32    1.57 
   0  -1  -6   39.92    1.92 
   0  -1  -6   39.77    1.70 
   0  -1   6   38.81    1.79 
   0  -1  -6   39.24    1.89 
   0   1   6   39.21    1.58 
   0   1  -6   41.14    1.92 
   0   1  -6   37.38    1.57 
   0   1  -6   38.08    1.64 
   0   1   6   39.26    1.54 
   0   1  -6   33.95    1.73 
   0   1   6   39.86    1.59 
   0   1  -6   37.57    1.83 
   0   1   6   36.66    1.80 
   0   1   6   30.81    1.68 
  -1  -1  -6  120.12    3.87 
  -1  -1  -6  127.46    3.90 
   1  -1   6  124.63    3.88 
   1  -1   6  126.45    3.81 
   1  -1   6  110.85    3.54 
  -1  -1  -6  125.02    3.76 
   1  -1   6  124.84    3.74 
   1  -1   6  127.84    3.69 
  -1  -1  -6  120.19    3.39 
  -1  -1  -6  123.57    3.86 
  -1   1  -6  122.29    3.84 
   1   1   6  123.10    3.78 
  -1   1  -6  121.14    3.76 
  -1   1  -6  125.59    3.64 
  -1   1  -6  126.25    3.76 
   1   1   6  125.48    3.57 
   1   1   6  127.80    3.64 
   1   1   6  125.60    3.45 
   1   1   6  131.01    3.89 
  -1   1  -6  124.96    3.63 
  -2  -1  -6    2.16    0.60 
   2  -1   6    3.12    0.81 
  -2  -1  -6    3.81    0.59 
   2  -1   6    2.39    0.68 
  -2  -1  -6    2.51    0.61 
   2  -1   6    2.81    0.74 
  -2  -1  -6    3.34    0.80 
   2  -1   6    3.28    0.79 
  -2  -1  -6    3.22    0.68 
   2  -1   6    4.53    0.77 
   2   1   6    4.09    0.86 
   2   1   6    2.93    0.66 
  -2   1  -6    3.54    0.73 
  -2   1  -6    3.13    0.72 
   2   1   6    2.89    0.68 
  -2   1  -6    2.23    0.65 
  -2   1  -6    3.13    0.65 
   2   1   6    3.59    0.90 
   2   1   6    3.90    0.76 
  -2   1  -6    3.44    0.77 
  -3  -1  -6  214.51    6.90 
  -3  -1  -6  244.60    6.78 
   3  -1   6  255.82    6.73 
   3  -1   6  257.86    6.59 
  -3  -1  -6  263.39    6.09 
   3  -1   6  265.31    6.73 
   3  -1   6  259.91    6.52 
   3  -1   6  256.81    6.57 
  -3  -1  -6  257.61    6.68 
  -3  -1  -6  267.31    6.73 
  -3   1  -6  214.84    6.38 
  -3   1  -6  264.79    6.72 
   3   1   6  262.27    6.76 
  -3   1  -6  261.17    6.77 
   3   1   6  260.98    6.72 
   3   1   6  261.99    6.69 
  -3   1  -6  272.86    6.72 
   3   1   6  260.63    6.15 
  -3   1  -6  262.60    6.57 
   3   1   6  264.09    6.89 
   4  -1   6   16.48    1.23 
  -4  -1  -6   16.64    1.30 
  -4  -1  -6   17.56    1.24 
   4  -1   6   17.08    1.22 
   4  -1   6   17.18    1.24 
  -4  -1  -6   17.01    1.18 
   4  -1   6   17.37    1.41 
  -4  -1  -6   18.01    1.25 
   4  -1   6   16.80    1.19 
  -4  -1  -6   17.44    0.96 
   4   1   6   16.74    1.33 
  -4   1  -6   17.02    1.41 
  -4   1  -6   20.67    1.30 
   4   1   6   18.61    1.29 
   4   1   6   15.55    1.28 
  -4   1  -6   17.11    1.26 
  -4   1  -6   17.42    1.21 
   4   1   6   16.61    0.95 
   4   1   6   16.37    1.39 
  -4   1  -6   16.65    1.14 
   5  -1   6   67.49    2.85 
   5  -1   6   69.76    2.56 
   5  -1   6   67.23    2.66 
  -5  -1  -6   67.85    2.42 
  -5  -1  -6   66.16    2.46 
   5  -1   6   66.68    2.54 
  -5  -1  -6   70.11    2.77 
  -5  -1  -6   67.23    2.23 
   5  -1   6   69.53    2.57 
  -5  -1  -6   71.48    2.73 
   5   1   6   69.74    2.24 
   5   1   6   65.96    2.76 
   5   1   6   67.02    2.72 
  -5   1  -6   67.98    2.70 
   5   1   6   69.34    2.89 
  -5   1  -6   70.65    2.62 
  -5   1  -6   69.38    2.90 
  -5   1  -6   69.95    2.52 
   5   1   6   68.07    2.65 
  -5   1  -6   68.80    2.47 
  -6  -1  -6   23.30    1.50 
   6  -1   6   23.64    1.44 
  -6  -1  -6   26.71    1.66 
   6  -1   6   24.40    1.49 
  -6  -1  -6   23.25    1.25 
  -6  -1  -6   21.04    1.27 
  -6  -1  -6   23.14    1.30 
   6  -1   6   23.51    1.45 
   6  -1   6   23.24    1.56 
   6  -1   6   21.11    1.69 
   6   1   6   24.01    1.55 
   6   1   6   26.03    1.27 
   6   1   6   22.00    1.74 
  -6   1  -6   23.86    1.59 
  -6   1  -6   23.26    1.36 
   6   1   6   23.54    1.68 
  -6   1  -6   24.03    1.53 
  -6   1  -6   22.49    1.72 
  -6   1  -6   23.65    1.37 
   6   1   6   22.35    1.55 
  -7  -1  -6   42.85    2.20 
  -7  -1  -6   43.35    1.84 
  -7  -1  -6   44.53    2.13 
  -7  -1  -6   42.76    1.69 
   7  -1   6   42.58    2.42 
  -7  -1  -6   42.89    1.72 
   7  -1   6   43.56    1.98 
   7  -1   6   43.24    2.08 
   7  -1   6   42.85    2.18 
   7  -1   6   39.78    1.88 
  -7   1  -6   42.06    1.80 
   7   1   6   46.21    2.18 
  -7   1  -6   42.20    2.09 
   7   1   6   35.94    2.07 
   7   1   6   42.55    1.79 
  -7   1  -6   43.14    2.20 
  -7   1  -6   42.08    1.88 
   7   1   6   40.36    2.27 
   7   1   6   44.17    2.45 
  -8  -1  -6    8.75    0.97 
  -8  -1  -6    7.89    0.70 
   8  -1   6    5.41    1.21 
   8  -1   6    6.98    1.29 
   8  -1   6    7.70    1.65 
  -8  -1  -6    5.72    1.10 
   8  -1   6    7.22    0.98 
   8  -1   6    8.33    1.00 
   8  -1   6    7.72    1.02 
  -8  -1  -6    7.50    0.71 
   8   1   6    5.53    1.14 
  -8   1  -6    6.58    0.84 
  -8   1  -6    6.74    1.08 
   8   1   6    8.91    1.12 
   8   1   6    8.02    0.87 
  -8   1  -6    7.30    0.82 
   8   1   6    6.61    1.07 
   8   1   6    6.21    1.27 
   9  -1   6    1.36    0.68 
   9  -1   6    2.36    0.88 
  -9  -1  -6    1.51    0.66 
  -9  -1  -6    2.10    0.80 
   9  -1   6    1.84    1.02 
  -9  -1  -6    2.43    0.44 
  -9  -1  -6    1.89    0.41 
   9  -1   6    3.15    0.83 
  -9   1  -6    2.97    0.89 
   9   1   6    1.18    0.62 
   9   1   6    1.37    0.62 
  -9   1  -6    1.92    0.58 
   9   1   6    1.19    0.84 
   9   1   6    0.30    0.87 
  10  -1   6    4.84    0.88 
  10  -1   6    4.92    1.13 
  10  -1   6    3.74    1.31 
 -10   1  -6    5.10    1.09 
  10   1   6    5.85    1.25 
  10   1   6    5.81    0.98 
 -10   1  -6    5.65    0.77 
 -10   1  -6    4.85    0.65 
  11  -1   6    4.28    0.92 
  11  -1   6    6.71    1.42 
  11  -1   6    3.69    0.87 
  11  -1   6    2.58    0.83 
 -11   1  -6    3.65    1.06 
  11   1   6    3.64    0.93 
  11   1   6    2.53    0.98 
  11   1   6    4.21    0.98 
  11   1   6    5.19    1.21 
  11   1   6    4.51    1.37 
  12  -1   6    1.15    0.70 
  12  -1   6    0.19    0.95 
  12  -1   6    1.73    0.74 
  12   1   6   -0.65    1.03 
  12   1   6    0.81    0.77 
  12   1   6    0.87    0.79 
  12   1   6   -0.26    0.69 
  12  -2  -6    3.61    1.05 
 -12  -2   6    3.07    0.89 
  12   2  -6    2.90    0.77 
 -11  -2   6    3.74    1.00 
  11  -2  -6    2.31    0.81 
  11  -2  -6    1.06    0.78 
  11  -2  -6    1.68    0.78 
  11  -2  -6    0.39    0.73 
  11   2  -6    1.28    0.60 
  11   2  -6    2.08    0.67 
 -11   2   6    0.77    0.50 
  11   2  -6    0.32    0.78 
  11   2  -6    0.75    0.34 
  10  -2  -6   30.43    1.97 
  10  -2  -6   29.81    1.82 
  10  -2  -6   29.54    1.68 
  10  -2  -6   32.71    2.23 
 -10  -2   6   31.21    2.01 
  10   2  -6   28.15    2.19 
 -10   2   6   30.52    1.57 
  10   2  -6   27.79    1.11 
  10   2  -6   27.96    1.37 
  10   2  -6   28.41    1.23 
  10   2  -6   30.81    1.56 
  10   2  -6   29.49    1.53 
   9  -2  -6   17.04    1.43 
  -9  -2   6   15.18    1.41 
   9  -2  -6   14.06    1.54 
   9  -2  -6   17.18    1.30 
   9  -2  -6   14.21    1.40 
   9   2  -6   14.10    1.05 
   9   2  -6   12.02    1.52 
   9   2  -6   14.65    1.04 
   9   2  -6   13.79    1.04 
   9   2  -6   13.16    0.76 
   9   2  -6   14.86    0.92 
  -9   2   6   15.06    1.11 
   8  -2  -6    8.94    1.41 
   8  -2  -6    7.95    1.21 
   8  -2  -6    8.81    1.07 
   8  -2  -6    7.12    1.19 
  -8  -2   6    7.51    1.25 
  -8   2   6    8.48    1.34 
  -8   2   6    7.20    0.87 
   8   2  -6    8.72    0.77 
   8   2  -6    8.58    1.33 
   8   2  -6    9.08    0.86 
   8   2  -6    6.85    0.86 
   8   2  -6    7.56    0.62 
   8   2  -6    7.24    1.41 
   7  -2  -6   11.37    1.15 
   7  -2  -6   14.20    1.33 
   7  -2  -6   16.70    1.44 
  -7  -2   6   12.99    0.86 
  -7  -2   6   12.41    1.24 
  -7  -2   6   12.94    1.37 
   7  -2  -6   14.86    1.40 
   7  -2  -6   11.49    1.13 
  -7  -2   6   12.75    0.88 
   7  -2  -6   12.65    1.25 
   7   2  -6   10.98    1.16 
  -7   2   6   13.70    1.27 
   7   2  -6   12.40    0.89 
   7   2  -6   13.93    1.12 
  -7   2   6   13.00    1.01 
   7   2  -6   12.62    0.74 
   7   2  -6   10.82    1.43 
   6  -2  -6   77.20    3.02 
   6  -2  -6   73.81    2.89 
   6  -2  -6   73.04    2.90 
   6  -2  -6   72.54    2.82 
  -6  -2   6   72.75    2.23 
  -6  -2   6   74.30    2.93 
   6  -2  -6   73.93    2.94 
  -6  -2   6   74.61    2.87 
  -6  -2   6   74.09    3.07 
  -6  -2   6   74.90    2.26 
   6  -2  -6   72.29    2.65 
   6   2  -6   71.99    2.27 
   6   2  -6   76.60    2.15 
  -6   2   6   77.15    2.57 
   6   2  -6   73.17    2.87 
  -6   2   6   69.97    2.81 
   6   2  -6   74.56    2.71 
   6   2  -6   78.15    3.25 
   5  -2  -6   72.97    2.84 
   5  -2  -6   72.81    2.63 
  -5  -2   6   77.05    2.27 
  -5  -2   6   73.35    2.85 
   5  -2  -6   78.02    2.89 
  -5  -2   6   74.84    2.20 
   5  -2  -6   75.32    2.87 
   5  -2  -6   76.21    2.87 
  -5  -2   6   73.48    3.01 
  -5  -2   6   75.33    2.92 
   5   2  -6   73.55    3.14 
   5   2  -6   75.87    2.17 
   5   2  -6   75.38    2.84 
   5   2  -6   75.82    2.76 
  -5   2   6   73.47    2.56 
  -5   2   6   72.91    2.77 
   5   2  -6   74.42    2.27 
   4  -2  -6   59.75    1.57 
  -4  -2   6   59.34    1.82 
  -4  -2   6   59.60    2.63 
  -4  -2   6   60.64    1.93 
   4  -2  -6   60.51    2.50 
   4  -2  -6   60.64    2.39 
   4  -2  -6   60.77    2.43 
   4  -2  -6   59.14    2.27 
   4  -2  -6   59.46    2.38 
  -4  -2   6   60.39    2.45 
   4   2  -6   60.23    1.87 
   4   2  -6   61.14    2.42 
  -4   2   6   58.81    2.38 
   4   2  -6   59.97    2.79 
   4   2  -6   61.05    2.00 
  -4   2   6   56.98    1.57 
   4   2  -6   59.22    2.42 
  -4   2   6   56.11    2.21 
   3  -2  -6   52.00    2.09 
  -3  -2   6   51.50    2.20 
   3  -2  -6   49.90    2.18 
  -3  -2   6   52.41    2.42 
   3  -2  -6   52.01    1.56 
  -3  -2   6   53.66    1.79 
  -3  -2   6   53.52    1.69 
  -3  -2   6   52.42    2.31 
   3  -2  -6   52.85    2.31 
  -3   2   6   54.63    2.35 
   3   2  -6   52.71    1.76 
  -3   2   6   54.80    2.22 
   3   2  -6   54.90    1.80 
   3   2  -6   53.82    2.21 
   3   2  -6   51.22    2.49 
   3   2  -6   54.52    2.28 
  -3   2   6   51.81    1.56 
  -3   2   6   52.83    2.12 
   2  -2  -6   40.01    1.87 
  -2  -2   6   40.78    2.11 
  -2  -2   6   44.85    1.59 
  -2  -2   6   46.35    2.00 
  -2  -2   6   49.74    2.17 
   2  -2  -6   48.02    1.55 
   2  -2  -6   49.13    2.18 
  -2  -2   6   46.37    1.71 
   2  -2  -6   48.13    1.87 
   2  -2  -6   45.98    2.01 
   2   2  -6   46.92    2.00 
  -2   2   6   47.82    2.01 
   2   2  -6   46.10    1.64 
  -2   2   6   47.81    1.57 
   2   2  -6   43.61    1.64 
   2   2  -6   45.80    2.09 
   2   2  -6   46.84    2.25 
  -2   2   6   46.40    2.03 
  -1  -2   6  176.10    4.52 
  -1  -2   6  177.41    5.05 
  -1  -2   6  176.89    5.16 
  -1  -2   6  173.41    4.90 
   1  -2  -6  177.79    4.59 
   1  -2  -6  173.30    4.43 
  -1  -2   6  176.07    4.62 
   1  -2  -6  176.28    4.98 
   1  -2  -6  182.29    4.91 
   1   2  -6  173.43    4.86 
  -1   2   6  180.24    4.50 
   1   2  -6  175.51    4.57 
   1   2  -6  175.81    5.06 
   1   2  -6  175.76    5.17 
  -1   2   6  174.61    4.92 
  -1   2   6  177.20    4.52 
   1   2  -6  173.58    4.46 
  -1   2   6  176.11    5.07 
   0  -2  -6   13.82    0.96 
   0  -2   6   14.45    1.05 
   0  -2   6   15.06    1.17 
   0  -2  -6   14.62    1.20 
   0  -2   6   13.46    1.32 
   0  -2   6   14.02    1.03 
   0  -2  -6   15.75    1.05 
   0  -2  -6   12.33    1.28 
   0  -2   6   15.16    1.11 
   0  -2  -6   14.59    1.10 
   0   2  -6   14.21    0.92 
   0   2   6   13.05    1.12 
   0   2   6   13.75    0.95 
   0   2  -6   14.67    1.02 
   0   2  -6   12.43    1.15 
   0   2  -6   14.80    1.28 
   0   2  -6   13.59    1.10 
   0   2   6   13.64    1.11 
   0   2   6   12.91    0.80 
   1  -2   6   74.94    2.56 
   1  -2   6   66.39    2.60 
  -1  -2  -6   64.53    2.68 
   1  -2   6   68.28    2.63 
  -1  -2  -6   66.74    2.03 
  -1  -2  -6   68.80    2.60 
  -1  -2  -6   66.90    2.52 
   1  -2   6   68.96    2.34 
   1  -2   6   75.19    2.55 
  -1   2  -6   70.38    2.34 
   1   2   6   68.01    2.55 
  -1   2  -6   65.84    2.42 
   1   2   6   75.05    2.72 
  -1   2  -6   63.02    2.45 
   1   2   6   71.10    2.00 
  -1   2  -6   70.23    2.68 
  -1   2  -6   69.88    2.69 
   2  -2   6   44.46    2.01 
   2  -2   6   45.66    2.04 
  -2  -2  -6   47.07    2.01 
  -2  -2  -6   42.41    1.94 
  -2  -2  -6   44.01    2.11 
   2  -2   6   38.04    1.73 
  -2  -2  -6   44.65    1.37 
  -2  -2  -6   44.92    2.00 
   2  -2   6   43.41    1.98 
   2  -2   6   41.94    1.85 
  -2  -2  -6   44.34    1.93 
   2   2   6   41.56    1.94 
  -2   2  -6   42.21    1.87 
   2   2   6   43.90    1.94 
   2   2   6   46.44    2.13 
  -2   2  -6   44.10    2.05 
  -2   2  -6   45.29    1.85 
  -2   2  -6   45.60    2.05 
  -2   2  -6   42.10    1.95 
   2   2   6   41.26    1.37 
   3  -2   6   64.62    2.39 
   3  -2   6   65.29    2.51 
   3  -2   6   64.18    2.59 
  -3  -2  -6   67.64    1.80 
   3  -2   6   62.71    2.50 
  -3  -2  -6   62.65    2.62 
  -3  -2  -6   64.22    2.53 
  -3  -2  -6   61.19    2.70 
  -3  -2  -6   66.07    2.52 
   3  -2   6   65.82    2.39 
   3   2   6   66.69    2.73 
   3   2   6   64.06    2.53 
  -3   2  -6   61.95    2.34 
  -3   2  -6   65.90    2.56 
  -3   2  -6   69.28    2.48 
   3   2   6   66.01    2.58 
   3   2   6   68.19    1.90 
  -3   2  -6   65.77    2.60 
  -3   2  -6   66.13    2.57 
  -4  -2  -6   44.17    1.91 
  -4  -2  -6   42.63    2.06 
   4  -2   6   46.61    1.92 
  -4  -2  -6   44.22    1.38 
   4  -2   6   43.03    1.97 
  -4  -2  -6   42.79    1.97 
   4  -2   6   42.97    2.03 
   4  -2   6   44.55    2.20 
   4  -2   6   43.76    2.01 
  -4  -2  -6   40.98    2.08 
   4   2   6   43.80    1.46 
  -4   2  -6   43.13    2.16 
  -4   2  -6   44.53    2.04 
  -4   2  -6   45.06    2.07 
  -4   2  -6   47.29    2.06 
  -4   2  -6   44.32    1.86 
   4   2   6   41.47    2.21 
   4   2   6   44.68    2.14 
   4   2   6   44.18    2.08 
  -5  -2  -6   25.54    1.04 
  -5  -2  -6   28.42    1.70 
   5  -2   6   25.24    1.58 
   5  -2   6   26.15    1.45 
   5  -2   6   23.88    1.48 
  -5  -2  -6   22.83    1.44 
   5  -2   6   25.50    1.55 
  -5  -2  -6   24.25    1.55 
   5  -2   6   26.21    1.75 
  -5  -2  -6   25.09    1.37 
   5   2   6   21.96    1.66 
   5   2   6   25.68    1.61 
  -5   2  -6   23.82    1.57 
  -5   2  -6   27.10    1.79 
   5   2   6   27.83    1.81 
   5   2   6   24.71    1.04 
  -5   2  -6   21.10    1.26 
  -5   2  -6   24.10    1.56 
   5   2   6   25.01    1.68 
  -5   2  -6   23.86    1.48 
  -6  -2  -6   43.06    2.14 
  -6  -2  -6   44.09    1.55 
   6  -2   6   41.39    2.10 
   6  -2   6   42.96    1.97 
   6  -2   6   43.31    2.14 
  -6  -2  -6   41.29    1.87 
   6  -2   6   41.80    2.31 
   6  -2   6   44.70    1.92 
  -6  -2  -6   43.24    1.77 
  -6  -2  -6   42.53    2.16 
  -6   2  -6   43.15    2.15 
   6   2   6   41.85    2.34 
   6   2   6   42.89    2.15 
  -6   2  -6   43.29    1.80 
   6   2   6   42.43    1.53 
   6   2   6   37.53    2.15 
   6   2   6   41.23    2.23 
  -6   2  -6   42.72    2.33 
  -6   2  -6   41.69    1.93 
   7  -2   6   21.36    1.42 
   7  -2   6   18.05    1.47 
  -7  -2  -6   22.06    1.27 
  -7  -2  -6   21.97    1.58 
   7  -2   6   19.93    1.36 
   7  -2   6   22.58    1.61 
   7  -2   6   21.57    1.77 
  -7  -2  -6   20.33    1.15 
   7   2   6   18.89    1.77 
  -7   2  -6   20.89    1.24 
  -7   2  -6   24.54    1.68 
   7   2   6   21.32    1.12 
   7   2   6   19.78    1.52 
  -7   2  -6   24.25    1.43 
   7   2   6   20.65    1.63 
  -7   2  -6   21.05    1.83 
   7   2   6   23.57    1.77 
   8  -2   6    9.41    1.55 
  -8  -2  -6   11.09    1.20 
  -8  -2  -6   10.93    0.80 
  -8  -2  -6   11.53    0.88 
   8  -2   6   11.31    1.10 
   8  -2   6   11.57    1.32 
   8  -2   6   12.37    1.31 
  -8   2  -6   11.63    1.04 
   8   2   6   15.21    1.42 
   8   2   6    9.67    1.21 
  -8   2  -6   11.17    0.96 
   8   2   6   11.60    1.78 
   8   2   6   11.65    0.89 
  -8   2  -6   13.47    1.36 
   9  -2   6    3.59    1.27 
  -9  -2  -6    2.49    0.82 
   9  -2   6    3.43    0.79 
   9  -2   6    5.00    1.06 
  -9   2  -6    2.09    0.81 
   9   2   6    4.97    1.10 
   9   2   6    4.13    1.23 
   9   2   6    4.23    0.77 
   9   2   6    5.47    0.76 
  -9   2  -6    3.79    0.73 
  10  -2   6   25.03    1.50 
  10  -2   6   22.46    2.04 
  10  -2   6   25.20    1.90 
  10  -2   6   23.26    1.30 
  10   2   6   24.19    1.80 
 -10   2  -6   26.08    1.93 
 -10   2  -6   24.66    1.32 
  10   2   6   23.49    1.45 
  10   2   6   21.72    2.08 
  10   2   6   22.82    1.38 
  11  -2   6    7.23    0.83 
  11  -2   6    9.08    1.54 
  11  -2   6    6.56    1.27 
  11  -2   6    7.66    1.16 
 -11   2  -6    7.29    0.76 
  11   2   6    8.65    1.27 
  11   2   6    6.41    1.05 
  11   2   6    8.03    1.72 
  11   2   6    5.99    1.22 
 -11   2  -6    5.80    1.23 
  12  -2   6    5.25    0.96 
  12   2   6    3.15    1.07 
  12   2   6    4.58    0.98 
  12   2   6    1.92    1.05 
 -12   2  -6    3.67    1.11 
  11  -3  -6    3.28    1.11 
  11  -3  -6    2.48    1.04 
  11  -3  -6    2.04    0.93 
 -11  -3   6    2.18    0.81 
  11   3  -6    4.50    0.83 
  11   3  -6    4.24    1.43 
  11   3  -6    4.24    0.95 
  11   3  -6    2.49    0.94 
 -10  -3   6    3.07    0.96 
  10  -3  -6    2.93    1.07 
  10  -3  -6    3.02    0.97 
  10  -3  -6    4.90    0.85 
  10  -3  -6    5.57    1.11 
  10   3  -6    3.47    1.23 
 -10   3   6    3.51    0.64 
  10   3  -6    3.49    0.81 
  10   3  -6    5.44    0.78 
   9  -3  -6    0.31    0.68 
   9  -3  -6    0.35    0.61 
   9  -3  -6    1.72    0.59 
   9  -3  -6    0.90    0.77 
  -9  -3   6    1.19    0.69 
  -9   3   6    0.54    0.44 
   9   3  -6   -0.20    0.38 
   9   3  -6    0.10    0.42 
   9   3  -6   -0.25    0.83 
   9   3  -6    0.44    0.38 
   9   3  -6   -0.03    0.46 
   8  -3  -6   15.07    1.45 
  -8  -3   6   17.10    1.38 
  -8  -3   6   15.03    1.42 
   8  -3  -6   16.21    1.56 
   8  -3  -6   15.57    0.62 
   8  -3  -6   14.58    1.13 
   8  -3  -6   14.79    0.64 
  -8  -3   6   14.71    1.12 
   8   3  -6   15.44    1.19 
   8   3  -6   15.14    0.98 
   8   3  -6   14.50    1.78 
  -8   3   6   15.72    1.03 
   7  -3  -6   14.03    1.39 
  -7  -3   6   12.55    1.06 
   7  -3  -6   14.05    1.37 
  -7  -3   6   14.42    1.34 
   7  -3  -6   14.46    0.65 
   7  -3  -6   13.60    1.32 
  -7  -3   6   14.28    1.46 
   7  -3  -6   14.48    1.09 
  -7  -3   6   13.85    1.36 
   7  -3  -6   16.42    1.48 
  -7   3   6   14.32    1.40 
  -7   3   6   14.97    1.40 
  -7   3   6   12.95    0.71 
  -7   3   6   14.13    0.99 
   7   3  -6   12.65    1.13 
   7   3  -6   12.91    1.91 
   7   3  -6   14.69    0.95 
   7   3  -6   12.91    1.30 
   6  -3  -6    6.53    0.81 
   6  -3  -6    7.68    1.05 
   6  -3  -6    7.40    0.54 
   6  -3  -6    8.01    1.22 
  -6  -3   6    5.25    1.07 
   6  -3  -6    6.98    1.14 
  -6  -3   6    6.52    1.15 
  -6  -3   6    7.31    1.19 
   6  -3  -6    6.39    1.06 
  -6  -3   6    7.51    0.85 
  -6   3   6    6.95    1.14 
   6   3  -6    8.43    0.77 
  -6   3   6    7.10    0.79 
   6   3  -6    5.83    1.30 
   6   3  -6    8.36    1.01 
  -6   3   6    6.20    1.13 
  -6   3   6    7.57    0.62 
   6   3  -6    7.41    1.21 
  -5  -3   6   18.37    1.17 
  -5  -3   6   18.89    1.56 
   5  -3  -6   19.61    1.48 
   5  -3  -6   18.81    1.40 
   5  -3  -6   18.43    1.43 
   5  -3  -6   18.33    1.20 
  -5  -3   6   16.52    1.39 
   5  -3  -6   20.63    1.44 
  -5  -3   6   17.31    1.40 
   5  -3  -6   17.77    0.87 
   5   3  -6   18.63    1.35 
  -5   3   6   18.73    1.18 
   5   3  -6   18.26    1.38 
  -5   3   6   17.57    1.49 
   5   3  -6   18.87    1.09 
  -5   3   6   19.42    0.93 
  -5   3   6   17.64    1.37 
   5   3  -6   18.25    1.82 
   4  -3  -6   14.66    0.83 
  -4  -3   6   15.92    1.06 
   4  -3  -6   14.67    1.31 
  -4  -3   6   13.08    1.36 
   4  -3  -6   15.40    1.19 
   4  -3  -6   13.42    1.06 
   4  -3  -6   15.28    1.31 
  -4  -3   6   14.25    1.26 
   4  -3  -6   14.96    1.20 
  -4   3   6   16.29    1.16 
   4   3  -6   16.46    1.28 
   4   3  -6   16.22    1.61 
  -4   3   6   15.46    0.87 
   4   3  -6   16.02    1.02 
  -4   3   6   15.28    1.26 
  -4   3   6   17.31    1.44 
   4   3  -6   14.35    1.22 
   3  -3  -6  114.92    3.47 
   3  -3  -6  108.84    3.80 
  -3  -3   6  116.83    3.79 
   3  -3  -6  117.47    3.52 
   3  -3  -6  112.44    3.12 
  -3  -3   6  118.69    4.05 
   3  -3  -6  110.19    3.74 
   3  -3  -6  115.99    3.49 
  -3  -3   6  110.53    3.73 
  -3  -3   6  113.61    3.38 
   3   3  -6  113.03    3.70 
   3   3  -6  115.68    3.34 
   3   3  -6  115.15    4.05 
  -3   3   6  116.13    3.18 
  -3   3   6  121.59    4.01 
  -3   3   6  113.91    3.74 
   3   3  -6  114.94    3.78 
  -3   3   6  112.30    3.53 
   2  -3  -6    2.04    0.48 
  -2  -3   6    0.40    0.49 
  -2  -3   6    0.65    0.33 
   2  -3  -6    0.92    0.45 
  -2  -3   6    0.00    0.54 
  -2  -3   6    1.01    0.52 
   2  -3  -6    1.11    0.48 
   2  -3  -6    0.64    0.47 
  -2  -3   6    0.40    0.44 
   2  -3  -6    0.74    0.57 
   2  -3  -6    1.58    1.04 
   2   3  -6    0.75    0.31 
   2   3  -6    0.49    0.42 
  -2   3   6    0.77    0.42 
  -2   3   6    0.31    0.61 
   2   3  -6    0.34    0.45 
   2   3  -6    0.88    0.64 
  -2   3   6    0.55    0.51 
   2   3  -6    0.48    0.56 
  -2   3   6    1.22    0.62 
  -1  -3   6   67.85    2.44 
  -1  -3   6   63.79    2.64 
   1  -3  -6   65.11    2.67 
   1  -3  -6   66.96    2.10 
   1  -3  -6   64.41    2.42 
   1  -3  -6   67.58    2.15 
  -1  -3   6   64.98    2.49 
  -1  -3   6   65.19    2.10 
   1  -3  -6   62.10    2.58 
   1  -3  -6   67.31    2.27 
  -1  -3   6   64.41    2.88 
  -1   3   6   66.01    2.72 
   1   3  -6   61.26    2.70 
   1   3  -6   68.30    2.70 
   1   3  -6   65.27    2.48 
  -1   3   6   66.62    2.28 
   1   3  -6   65.91    2.35 
  -1   3   6   64.83    2.59 
   1   3  -6   65.58    1.98 
  -1   3   6   65.13    2.48 
   0  -3   6   25.95    1.46 
   0  -3  -6   25.52    1.11 
   0  -3  -6   24.60    1.68 
   0  -3  -6   25.18    1.03 
   0  -3   6   24.57    1.56 
   0  -3   6   26.13    1.74 
   0  -3   6   25.00    1.21 
   0  -3  -6   26.23    1.35 
   0  -3  -6   24.01    1.41 
   0  -3   6   23.59    1.37 
   0  -3  -6   24.78    1.58 
   0   3   6   26.28    1.64 
   0   3  -6   25.16    1.16 
   0   3  -6   24.59    1.40 
   0   3   6   24.58    1.34 
   0   3  -6   25.44    1.43 
   0   3  -6   23.31    1.57 
   0   3  -6   23.95    1.65 
   0   3   6   26.12    1.57 
   0   3   6   22.39    1.43 
  -1  -3  -6   69.86    2.74 
   1  -3   6   70.75    2.80 
   1  -3   6   74.45    2.74 
  -1  -3  -6   72.53    2.59 
  -1  -3  -6   70.37    1.91 
   1  -3   6   72.90    2.55 
   1  -3   6   72.00    2.35 
   1  -3   6   69.57    2.80 
  -1  -3  -6   71.94    2.66 
  -1  -3  -6   71.94    2.92 
  -1  -3  -6   70.60    1.85 
  -1   3  -6   75.25    2.87 
  -1   3  -6   70.47    2.84 
   1   3   6   71.16    2.67 
  -1   3  -6   74.49    2.38 
   1   3   6   71.98    2.60 
  -1   3  -6   72.43    2.63 
   1   3   6   70.05    2.75 
   1   3   6   69.28    2.76 
  -1   3  -6   70.41    2.55 
  -2  -3  -6    1.77    0.72 
   2  -3   6    2.14    0.58 
  -2  -3  -6    1.23    0.58 
   2  -3   6    2.31    0.64 
   2  -3   6    1.35    0.56 
   2  -3   6    1.01    0.63 
  -2  -3  -6    1.93    0.70 
   2  -3   6    1.17    0.60 
  -2  -3  -6    1.66    0.61 
  -2   3  -6    1.95    0.68 
   2   3   6    1.87    0.68 
   2   3   6    1.60    0.69 
  -2   3  -6    2.65    0.81 
  -2   3  -6    1.65    0.67 
  -2   3  -6    2.50    0.65 
   2   3   6    1.61    0.60 
   2   3   6    3.00    0.86 
  -2   3  -6    2.77    0.77 
   3  -3   6  183.72    4.99 
   3  -3   6  186.87    4.89 
  -3  -3  -6  175.08    5.32 
  -3  -3  -6  176.30    5.18 
  -3  -3  -6  182.81    5.30 
   3  -3   6  181.88    5.29 
   3  -3   6  181.24    5.28 
   3  -3   6  181.75    5.34 
   3   3   6  178.51    5.30 
   3   3   6  179.86    5.24 
   3   3   6  181.70    5.28 
  -3   3  -6  183.03    5.36 
  -3   3  -6  187.30    5.32 
   3   3   6  179.75    5.15 
  -3   3  -6  178.68    5.27 
   4  -3   6   10.55    1.18 
  -4  -3  -6   10.78    1.23 
   4  -3   6   11.86    1.18 
  -4  -3  -6   13.63    1.12 
  -4  -3  -6   12.11    1.23 
  -4  -3  -6   12.51    1.18 
   4  -3   6   13.39    1.12 
   4  -3   6   12.38    0.99 
   4  -3   6   11.20    1.25 
  -4   3  -6   12.25    0.98 
  -4   3  -6   12.73    1.21 
  -4   3  -6   11.44    1.28 
  -4   3  -6   12.29    1.24 
   4   3   6   12.53    1.27 
   4   3   6   12.62    1.41 
   4   3   6   12.94    1.21 
  -5  -3  -6   39.81    2.08 
  -5  -3  -6   38.65    1.86 
   5  -3   6   36.82    2.03 
  -5  -3  -6   38.94    1.79 
   5  -3   6   37.41    1.64 
  -5  -3  -6   38.94    2.05 
   5  -3   6   37.36    2.14 
  -5  -3  -6   35.90    2.09 
   5  -3   6   38.74    2.02 
   5  -3   6   37.50    1.96 
   5  -3   6   37.08    1.92 
   5   3   6   38.03    2.03 
   5   3   6   44.30    2.24 
   5   3   6   37.26    2.22 
  -5   3  -6   36.91    2.07 
  -5   3  -6   35.33    2.12 
  -5   3  -6   37.97    1.64 
  -5   3  -6   37.50    1.97 
  -6  -3  -6    9.77    1.19 
   6  -3   6   11.38    1.22 
   6  -3   6   11.20    1.18 
   6  -3   6   10.67    1.35 
   6  -3   6   11.34    0.98 
  -6  -3  -6    9.48    1.06 
  -6  -3  -6   11.49    0.99 
   6  -3   6   12.68    1.21 
   6  -3   6   13.31    1.33 
  -6   3  -6   12.47    1.31 
   6   3   6    8.63    1.13 
  -6   3  -6   12.84    1.46 
  -6   3  -6   11.81    0.90 
   6   3   6   11.78    1.53 
   6   3   6    9.53    1.37 
  -6   3  -6   12.74    1.21 
   7  -3   6   27.15    1.86 
  -7  -3  -6   28.21    1.41 
   7  -3   6   26.35    1.83 
   7  -3   6   24.26    1.75 
  -7  -3  -6   29.55    1.58 
   7  -3   6   25.92    2.49 
   7  -3   6   26.79    1.40 
   7  -3   6   27.14    2.00 
  -7  -3  -6   29.95    1.84 
  -7   3  -6   27.66    1.66 
   7   3   6   28.51    1.86 
   7   3   6   28.66    2.05 
   7   3   6   26.68    1.07 
   7   3   6   32.18    2.09 
  -7   3  -6   28.17    1.35 
  -7   3  -6   29.12    1.92 
   7   3   6   29.62    1.07 
   8  -3   6    9.00    0.89 
  -8  -3  -6    7.77    0.87 
  -8  -3  -6    6.69    0.74 
  -8  -3  -6    8.74    1.14 
   8  -3   6    7.21    1.35 
   8   3   6    8.88    1.59 
  -8   3  -6    8.12    0.73 
   8   3   6    7.35    1.49 
  -8   3  -6   10.22    1.33 
   8   3   6    7.85    0.71 
  -8   3  -6    7.61    1.01 
   8   3   6    6.44    1.12 
   8   3   6    7.38    0.67 
  -9  -3  -6    0.33    0.64 
   9  -3   6    0.46    0.73 
  -9  -3  -6    0.48    0.41 
   9  -3   6    1.77    0.56 
  -9  -3  -6    2.11    0.43 
   9  -3   6    1.44    0.98 
   9  -3   6    1.36    0.50 
   9   3   6    1.26    0.53 
   9   3   6    1.91    0.83 
  -9   3  -6    1.05    0.80 
  -9   3  -6    0.62    0.57 
   9   3   6    1.16    1.07 
   9   3   6    1.27    0.47 
  10  -3   6    2.46    1.18 
 -10  -3  -6    2.43    0.89 
  10  -3   6    3.47    1.05 
  10  -3   6    2.76    0.56 
  10  -3   6    4.76    0.75 
  10   3   6    3.74    0.78 
  10   3   6    2.43    0.84 
 -10   3  -6    2.21    1.00 
  10   3   6    3.01    1.29 
 -10   3  -6    2.28    0.73 
  10   3   6    2.34    0.60 
  11  -3   6    1.53    1.07 
  11  -3   6    1.77    1.18 
 -11   3  -6    2.59    0.75 
  11   3   6    2.56    1.36 
  11   3   6    2.55    0.98 
  11   4  -6    1.77    0.78 
  11   4  -6    0.77    1.23 
  10  -4  -6   13.54    1.66 
  10  -4  -6   14.49    0.71 
 -10  -4   6   13.63    1.55 
  10  -4  -6   13.41    0.74 
  10  -4  -6   16.57    1.70 
  10   4  -6   14.39    1.15 
  10   4  -6   14.28    1.98 
  10   4  -6   14.20    1.08 
  -9  -4   6    2.53    1.01 
   9  -4  -6    4.43    0.53 
  -9  -4   6    2.78    0.84 
   9  -4  -6    3.78    1.09 
   9  -4  -6    4.08    1.09 
  -9  -4   6    3.96    1.00 
  -9   4   6    2.70    1.01 
   9   4  -6    2.67    0.75 
   9   4  -6    4.45    0.81 
  -8  -4   6   26.61    1.77 
  -8  -4   6   25.71    1.61 
  -8  -4   6   28.07    2.00 
   8  -4  -6   27.66    1.97 
   8  -4  -6   28.33    1.96 
   8  -4  -6   27.84    1.23 
   8  -4  -6   26.87    1.15 
   8   4  -6   27.18    2.26 
  -8   4   6   26.49    1.26 
  -8   4   6   27.75    1.93 
   8   4  -6   27.03    1.57 
   8   4  -6   30.84    1.53 
  -7  -4   6    8.60    1.04 
  -7  -4   6    7.62    1.18 
  -7  -4   6    5.45    1.12 
   7  -4  -6    5.50    1.09 
   7  -4  -6    4.00    0.59 
   7  -4  -6    6.98    0.72 
   7  -4  -6    6.07    1.25 
  -7   4   6    5.16    1.16 
   7   4  -6    4.03    1.12 
   7   4  -6    5.76    0.96 
   7   4  -6    5.51    0.83 
  -7   4   6    5.25    0.67 
  -7   4   6    7.18    0.76 
  -6  -4   6   31.22    2.08 
   6  -4  -6   34.35    2.06 
   6  -4  -6   34.19    1.40 
   6  -4  -6   31.83    1.96 
   6  -4  -6   32.33    1.92 
  -6  -4   6   32.72    1.99 
  -6  -4   6   33.72    1.77 
   6  -4  -6   33.91    1.47 
  -6  -4   6   33.19    1.91 
   6  -4  -6   30.39    1.87 
   6   4  -6   36.31    2.35 
  -6   4   6   33.43    2.09 
   6   4  -6   31.72    1.59 
  -6   4   6   30.68    1.43 
   6   4  -6   32.20    1.81 
  -6   4   6   35.20    1.47 
  -5  -4   6    4.56    0.90 
   5  -4  -6    3.57    0.88 
  -5  -4   6    4.29    0.96 
  -5  -4   6    5.31    0.94 
   5  -4  -6    3.72    0.66 
   5  -4  -6    5.23    1.08 
  -5  -4   6    3.84    0.97 
   5  -4  -6    4.87    0.95 
   5  -4  -6    4.27    0.93 
   5  -4  -6    4.88    0.70 
   5   4  -6    5.74    0.88 
  -5   4   6    4.78    0.71 
  -5   4   6    4.32    1.11 
   5   4  -6    5.67    1.00 
  -5   4   6    3.47    0.80 
   5   4  -6    3.31    0.96 
   5   4  -6    3.91    0.87 
  -5   4   6    5.05    0.80 
   4  -4  -6   51.71    1.93 
   4  -4  -6   53.43    2.25 
  -4  -4   6   52.38    2.22 
   4  -4  -6   52.13    2.03 
   4  -4  -6   52.41    2.48 
  -4  -4   6   52.89    2.65 
  -4  -4   6   52.85    2.43 
   4  -4  -6   60.23    2.34 
   4  -4  -6   52.04    2.52 
  -4  -4   6   55.74    2.49 
   4   4  -6   56.68    2.20 
   4   4  -6   50.16    2.37 
   4   4  -6   53.32    2.70 
  -4   4   6   57.12    2.18 
  -4   4   6   54.85    2.63 
  -4   4   6   56.17    2.04 
  -4   4   6   52.88    2.44 
   4   4  -6   54.80    2.44 
   3  -4  -6   12.31    1.28 
   3  -4  -6    9.53    0.95 
  -3  -4   6    9.69    1.02 
  -3  -4   6   11.40    1.23 
   3  -4  -6   10.16    1.15 
   3  -4  -6    8.98    0.92 
   3  -4  -6    9.35    0.91 
   3  -4  -6    9.27    0.96 
  -3  -4   6    9.63    1.25 
  -3  -4   6    9.79    1.11 
   3   4  -6    9.59    1.13 
  -3   4   6    9.07    1.08 
  -3   4   6    9.72    1.27 
   3   4  -6    9.65    1.48 
  -3   4   6   10.32    1.22 
   3   4  -6    9.36    1.05 
   3   4  -6   10.09    1.00 
  -3   4   6   11.43    0.95 
  -2  -4   6   29.87    1.64 
   2  -4  -6   29.00    1.85 
   2  -4  -6   29.02    1.37 
   2  -4  -6   26.97    1.38 
  -2  -4   6   28.36    1.68 
  -2  -4   6   27.12    1.76 
   2  -4  -6   28.77    1.51 
   2  -4  -6   29.03    1.47 
  -2  -4   6   28.65    2.00 
   2  -4  -6   28.47    1.75 
  -2   4   6   30.93    1.52 
   2   4  -6   28.89    1.79 
   2   4  -6   27.49    1.63 
   2   4  -6   27.32    1.89 
   2   4  -6   27.30    1.54 
  -2   4   6   28.75    1.72 
  -2   4   6   29.40    1.65 
  -2   4   6   30.20    1.93 
   1  -4  -6   11.33    1.03 
   1  -4  -6   10.65    0.81 
   1  -4  -6    9.54    1.18 
  -1  -4   6   10.49    0.66 
   1  -4  -6   10.06    0.79 
  -1  -4   6   11.13    1.52 
   1  -4  -6   12.60    1.07 
  -1  -4   6   12.15    1.16 
   1  -4  -6   13.97    1.72 
  -1  -4   6   11.28    0.87 
  -1  -4   6   11.56    1.23 
  -1  -4   6   11.66    1.09 
  -1   4   6   11.03    1.14 
  -1   4   6   10.36    1.01 
   1   4  -6   12.03    1.11 
   1   4  -6   10.34    1.45 
  -1   4   6    9.76    1.07 
  -1   4   6   10.45    1.25 
   1   4  -6   10.16    1.19 
   1   4  -6   11.95    1.13 
   0  -4  -6    0.08    0.45 
   0  -4   6    0.80    0.43 
   0  -4  -6   -0.03    0.52 
   0  -4  -6    0.47    0.81 
   0  -4   6    0.28    0.48 
   0  -4   6   -0.21    0.65 
   0  -4  -6    0.64    0.55 
   0  -4   6    0.16    0.62 
   0  -4   6    0.50    0.36 
   0  -4   6    0.21    0.56 
   0  -4  -6    0.89    0.36 
   0  -4  -6    0.49    0.30 
   0   4   6    0.74    0.56 
   0   4  -6    0.47    0.59 
   0   4  -6   -0.07    0.58 
   0   4  -6    1.58    0.64 
   0   4   6    0.43    0.64 
   0   4   6    0.58    0.61 
   0   4   6    0.01    0.50 
   0   4  -6   -0.11    0.45 
  -1  -4  -6    7.62    1.01 
   1  -4   6    6.51    0.73 
  -1  -4  -6    7.27    1.32 
   1  -4   6    6.20    0.72 
  -1  -4  -6    7.14    1.07 
   1  -4   6    6.49    1.06 
   1  -4   6    7.72    0.89 
   1  -4   6    7.14    1.15 
   1  -4   6    8.04    1.35 
  -1  -4  -6    8.04    1.19 
   1   4   6    7.12    0.96 
  -1   4  -6    8.48    1.16 
  -1   4  -6    8.73    1.21 
  -1   4  -6    7.88    1.29 
   1   4   6    8.78    1.06 
  -1   4  -6    6.68    0.89 
   1   4   6    7.50    1.06 
   1   4   6    7.13    1.10 
  -2  -4  -6    9.61    1.24 
   2  -4   6   11.25    0.97 
   2  -4   6    8.93    1.31 
   2  -4   6    9.38    0.91 
   2  -4   6   10.50    1.21 
  -2  -4  -6    9.59    1.11 
  -2  -4  -6   14.79    1.24 
   2  -4   6   10.06    1.20 
  -2  -4  -6   10.51    1.09 
   2  -4   6   11.51    0.94 
   2   4   6   10.64    1.17 
   2   4   6   11.04    1.15 
  -2   4  -6   10.75    1.19 
  -2   4  -6   10.91    1.06 
   2   4   6    9.60    1.14 
   2   4   6    9.15    1.10 
  -2   4  -6   11.32    1.26 
  -2   4  -6   10.26    1.25 
  -3  -4  -6    8.58    1.08 
   3  -4   6    9.32    0.99 
   3  -4   6    9.13    1.23 
  -3  -4  -6    8.91    1.16 
   3  -4   6   10.04    1.23 
   3  -4   6    8.67    0.93 
   3  -4   6    8.90    0.89 
   3  -4   6   10.64    1.23 
  -3  -4  -6   11.41    1.27 
   3   4   6   10.08    1.16 
   3   4   6    9.01    1.11 
  -3   4  -6    9.64    1.02 
  -3   4  -6   11.58    1.24 
   3   4   6    9.70    1.18 
  -3   4  -6   10.04    1.20 
   3   4   6    9.38    1.14 
  -3   4  -6   10.03    1.22 
  -4  -4  -6   17.13    1.42 
  -4  -4  -6   17.32    1.46 
  -4  -4  -6   17.48    1.34 
   4  -4   6   17.13    1.53 
   4  -4   6   18.56    1.49 
  -4  -4  -6   18.00    1.52 
   4  -4   6   18.04    1.10 
   4  -4   6   17.68    1.48 
   4  -4   6   19.74    1.36 
   4  -4   6   15.68    1.28 
   4   4   6   17.47    1.36 
  -4   4  -6   17.51    1.18 
  -4   4  -6   17.58    1.53 
   4   4   6   17.99    1.45 
  -4   4  -6   17.55    1.51 
   4   4   6   13.20    1.38 
   4   4   6   21.32    1.59 
  -4   4  -6   17.54    1.49 
  -5  -4  -6    6.73    1.13 
  -5  -4  -6    4.96    1.05 
  -5  -4  -6    6.80    1.01 
   5  -4   6    5.52    0.93 
   5  -4   6    4.98    1.15 
   5  -4   6    6.40    1.07 
   5  -4   6    5.53    0.71 
   5  -4   6    4.66    1.01 
   5  -4   6    3.84    0.94 
   5   4   6    7.53    1.30 
   5   4   6    6.55    1.21 
   5   4   6    6.74    1.03 
   5   4   6    7.69    1.08 
  -5   4  -6    5.74    0.76 
  -5   4  -6    7.65    1.30 
  -5   4  -6    6.31    1.10 
  -5   4  -6    6.76    1.21 
   6  -4   6    9.70    1.18 
  -6  -4  -6   10.52    1.38 
  -6  -4  -6   10.43    1.21 
   6  -4   6    7.54    1.33 
   6  -4   6    9.63    1.21 
  -6  -4  -6   10.36    1.08 
  -6  -4  -6   11.35    1.07 
   6  -4   6    7.77    0.75 
   6  -4   6   10.31    1.21 
  -6   4  -6    9.83    1.22 
  -6   4  -6   11.46    1.37 
   6   4   6   11.52    1.31 
   6   4   6    8.20    1.30 
  -6   4  -6   11.67    0.85 
  -7  -4  -6   14.62    1.37 
  -7  -4  -6   16.70    1.29 
   7  -4   6   15.36    1.44 
  -7  -4  -6   16.55    1.19 
   7  -4   6   15.59    1.62 
  -7   4  -6   16.87    0.92 
   7   4   6   16.51    1.69 
  -7   4  -6   17.95    1.49 
  -7   4  -6   17.13    1.64 
   7   4   6   16.07    1.54 
   8  -4   6    6.40    1.28 
  -8  -4  -6    7.57    1.00 
  -8  -4  -6    8.44    0.87 
  -8  -4  -6    5.56    1.00 
   8  -4   6    7.47    1.35 
  -8   4  -6    5.63    1.19 
  -8   4  -6    8.69    1.15 
   8   4   6    5.05    1.11 
   9  -4   6    6.37    1.26 
   9  -4   6    2.07    0.95 
  -9  -4  -6    2.91    0.86 
  -9  -4  -6    3.55    0.70 
  -9  -4  -6    3.77    0.61 
   9   4   6    2.50    1.02 
  -9   4  -6    2.56    0.97 
  -9   4  -6    2.88    0.89 
   9   4   6    3.54    1.12 
  10  -4   6    6.95    1.62 
  10  -4   6    8.46    1.49 
 -10  -4  -6   11.16    1.31 
  10   4   6    8.49    1.43 
 -10   4  -6    9.38    1.14 
  10   4   6    9.22    1.69 
 -10   4  -6    8.80    1.55 
 -10  -5   6    3.74    1.07 
 -10  -5   6    6.76    1.14 
  10  -5  -6    3.55    0.64 
  10  -5  -6    2.96    1.74 
  10   5  -6    3.84    1.23 
  -9  -5   6    0.68    0.81 
   9  -5  -6    0.62    0.83 
  -9  -5   6    0.61    0.67 
  -9  -5   6    0.65    0.78 
   9  -5  -6    0.83    0.83 
   9  -5  -6    1.11    0.49 
   9   5  -6    2.77    0.78 
   9   5  -6    2.76    0.80 
  -9   5   6    0.66    0.81 
   9   5  -6    1.58    1.13 
  -9   5   6    1.32    0.60 
  -8  -5   6   10.97    1.31 
   8  -5  -6   11.11    1.37 
  -8  -5   6   12.59    1.50 
   8  -5  -6   11.24    1.45 
   8  -5  -6   12.21    0.96 
  -8  -5   6   14.58    1.41 
   8   5  -6   11.24    1.67 
   8   5  -6    9.85    1.15 
   8   5  -6   10.33    1.14 
  -8   5   6   14.60    1.95 
  -7  -5   6   12.02    1.31 
   7  -5  -6   13.15    1.45 
  -7  -5   6   11.79    1.30 
   7  -5  -6   13.44    1.43 
  -7  -5   6   13.55    1.50 
   7   5  -6   14.60    1.67 
   7   5  -6   12.28    1.24 
  -7   5   6   12.90    1.06 
  -7   5   6   13.15    1.50 
   7   5  -6   10.82    1.15 
   6  -5  -6    2.29    0.83 
   6  -5  -6    2.55    0.88 
  -6  -5   6    2.48    0.85 
  -6  -5   6    1.32    0.76 
   6  -5  -6    2.38    0.86 
   6  -5  -6    2.80    0.63 
   6  -5  -6    3.51    0.62 
  -6  -5   6    0.88    0.63 
  -6   5   6    1.77    0.70 
   6   5  -6    2.93    1.07 
   6   5  -6    2.13    0.75 
  -6   5   6    2.99    0.93 
  -6   5   6    2.99    0.58 
   6   5  -6    2.38    0.80 
   5  -5  -6   14.41    0.98 
   5  -5  -6   16.22    1.55 
  -5  -5   6   17.08    1.60 
  -5  -5   6   15.45    1.42 
   5  -5  -6   15.67    1.55 
  -5  -5   6   15.19    1.43 
   5  -5  -6   15.35    1.36 
  -5  -5   6   18.09    1.43 
   5  -5  -6   16.31    1.16 
   5  -5  -6   17.03    1.36 
   5   5  -6   16.95    1.34 
  -5   5   6   15.40    1.18 
   5   5  -6   16.33    1.42 
  -5   5   6   15.51    1.59 
  -5   5   6   15.31    1.09 
   5   5  -6   13.82    1.60 
   4  -5  -6    4.98    0.82 
  -4  -5   6    5.24    1.25 
  -4  -5   6    3.06    0.78 
   4  -5  -6    3.51    1.00 
   4  -5  -6    3.76    0.75 
   4  -5  -6    5.36    1.16 
   4  -5  -6    4.21    0.88 
   4  -5  -6    5.70    0.96 
  -4  -5   6    3.78    0.94 
  -4  -5   6    2.30    0.85 
   4   5  -6    6.45    1.18 
  -4   5   6    5.03    1.28 
   4   5  -6    3.51    0.77 
  -4   5   6    4.71    0.85 
   4   5  -6    3.07    0.88 
   4   5  -6    4.03    1.02 
  -4   5   6    5.19    0.92 
  -4   5   6    4.90    1.19 
   3  -5  -6   52.94    2.14 
   3  -5  -6   52.88    2.65 
   3  -5  -6   52.56    2.54 
  -3  -5   6   47.75    2.39 
  -3  -5   6   54.11    2.43 
  -3  -5   6   53.47    2.56 
  -3  -5   6   50.85    2.64 
   3  -5  -6   53.83    2.12 
   3  -5  -6   55.43    2.17 
   3  -5  -6   53.15    2.18 
  -3   5   6   54.71    2.26 
   3   5  -6   53.62    2.71 
   3   5  -6   54.79    2.60 
  -3   5   6   54.54    2.70 
   3   5  -6   52.86    2.44 
   3   5  -6   55.02    2.37 
  -3   5   6   54.46    2.26 
  -3   5   6   53.01    2.47 
   2  -5  -6    0.68    0.46 
   2  -5  -6   -0.08    0.41 
   2  -5  -6    0.44    0.63 
  -2  -5   6    0.29    0.64 
  -2  -5   6   -0.25    0.83 
  -2  -5   6    0.12    0.49 
   2  -5  -6   -0.29    0.56 
   2  -5  -6    0.49    0.54 
  -2  -5   6   -0.23    0.63 
   2  -5  -6    0.19    0.55 
  -2   5   6    1.85    0.75 
   2   5  -6    0.77    0.63 
  -2   5   6    0.17    0.60 
  -2   5   6    0.39    0.60 
  -2   5   6    0.88    0.61 
   2   5  -6    1.24    0.81 
   2   5  -6    0.00    0.49 
   2   5  -6    0.65    0.66 
   1  -5  -6   35.34    2.07 
   1  -5  -6   36.31    1.43 
   1  -5  -6   36.68    2.13 
   1  -5  -6   36.94    1.44 
   1  -5  -6   36.94    1.88 
  -1  -5   6   35.33    1.99 
  -1  -5   6   34.43    1.82 
  -1  -5   6   30.24    2.26 
  -1  -5   6   36.40    2.12 
   1  -5  -6   35.07    1.77 
  -1   5   6   35.00    1.94 
   1   5  -6   33.44    1.89 
   1   5  -6   35.74    1.87 
  -1   5   6   35.99    1.89 
   1   5  -6   33.68    2.07 
   1   5  -6   35.65    2.15 
  -1   5   6   35.86    1.84 
  -1   5   6   34.69    2.12 
   0  -5   6    3.64    0.77 
   0  -5  -6    3.96    0.90 
   0  -5   6    3.96    0.59 
   0  -5  -6    3.86    0.52 
   0  -5   6    3.87    1.16 
   0  -5  -6    5.20    0.95 
   0  -5   6    6.73    1.25 
   0  -5  -6    4.91    1.27 
   0  -5   6    5.41    1.20 
   0  -5  -6    4.13    0.98 
   0  -5  -6    4.45    0.51 
   0   5   6    4.06    0.93 
   0   5  -6    4.15    1.12 
   0   5   6    4.71    0.99 
   0   5   6    4.96    1.10 
   0   5  -6    2.44    0.77 
   0   5   6    4.99    0.88 
   0   5  -6    3.67    0.80 
   0   5  -6    6.56    1.10 
   1  -5   6   26.87    1.36 
  -1  -5  -6   29.82    1.74 
  -1  -5  -6   30.87    2.12 
  -1  -5  -6   31.08    1.86 
   1  -5   6   31.54    2.01 
   1  -5   6   29.65    1.62 
   1  -5   6   30.29    1.39 
   1  -5   6   30.66    1.97 
   1  -5   6   29.17    1.90 
  -1   5  -6   31.50    2.01 
   1   5   6   33.25    1.85 
  -1   5  -6   30.16    1.87 
   1   5   6   32.72    1.85 
  -1   5  -6   31.31    2.00 
   1   5   6   30.79    1.85 
   1   5   6   30.57    1.96 
  -1   5  -6   31.26    1.65 
   2  -5   6    0.70    0.64 
  -2  -5  -6   -0.19    0.58 
   2  -5   6    0.49    0.48 
   2  -5   6    0.50    0.68 
   2  -5   6    0.52    0.51 
  -2  -5  -6   -0.05    0.57 
   2  -5   6    0.36    0.50 
  -2  -5  -6   -0.61    0.43 
  -2  -5  -6   -0.13    0.64 
   2  -5   6    0.87    0.78 
  -2   5  -6   -0.05    0.61 
  -2   5  -6   -0.34    0.61 
   2   5   6    2.54    0.75 
  -2   5  -6    0.85    0.62 
   2   5   6    0.06    0.56 
   2   5   6    0.56    0.69 
   2   5   6    0.20    0.60 
  -2   5  -6    0.46    0.67 
   3  -5   6   71.65    3.09 
   3  -5   6   71.73    2.64 
  -3  -5  -6   70.63    2.95 
   3  -5   6   67.78    3.05 
  -3  -5  -6   58.08    2.74 
  -3  -5  -6   73.16    3.03 
   3  -5   6   73.26    2.47 
   3  -5   6   71.64    3.11 
   3  -5   6   71.51    2.61 
  -3   5  -6   69.66    2.55 
   3   5   6   70.04    2.93 
   3   5   6   70.78    2.95 
   3   5   6   68.67    2.87 
  -3   5  -6   71.60    3.10 
  -3   5  -6   66.60    2.97 
  -3   5  -6   72.00    3.14 
   3   5   6   71.62    3.02 
   4  -5   6    8.46    1.05 
   4  -5   6   12.21    1.68 
  -4  -5  -6    6.73    1.18 
  -4  -5  -6    7.42    1.15 
  -4  -5  -6    7.68    1.35 
   4  -5   6    6.50    1.02 
   4  -5   6    5.98    0.76 
  -4   5  -6    6.44    1.23 
   4   5   6    5.54    1.05 
   4   5   6    7.72    1.29 
   4   5   6    8.32    2.14 
  -4   5  -6    5.77    0.86 
   4   5   6    6.21    1.18 
   5  -5   6   25.29    1.22 
   5  -5   6   25.59    1.64 
   5  -5   6   24.33    1.80 
  -5  -5  -6   25.61    1.64 
   5  -5   6   24.89    1.91 
  -5  -5  -6   23.95    1.71 
  -5  -5  -6   28.93    1.98 
   5  -5   6   20.66    1.57 
   5   5   6   23.80    1.80 
   5   5   6   22.68    1.69 
  -5   5  -6   25.60    1.28 
  -5   5  -6   26.83    1.95 
   5   5   6   24.40    1.65 
  -5   5  -6   26.65    1.88 
  -6  -5  -6    7.72    1.01 
  -6  -5  -6    4.03    1.12 
   6  -5   6    7.49    1.29 
   6  -5   6    6.49    0.65 
   6  -5   6    7.65    1.44 
  -6  -5  -6    7.00    1.21 
  -6   5  -6    7.21    1.31 
   6   5   6    6.88    1.13 
   6   5   6    7.87    1.38 
   6   5   6    8.15    1.23 
  -6   5  -6    5.54    1.10 
  -7  -5  -6   11.20    1.16 
   7  -5   6   12.67    1.80 
  -7  -5  -6   11.87    1.58 
   7  -5   6   11.38    1.38 
  -7  -5  -6   11.14    1.24 
  -7  -5  -6   13.04    1.16 
   7   5   6   11.75    1.42 
  -7   5  -6   11.23    1.47 
   7   5   6   12.99    1.43 
  -7   5  -6   10.31    1.34 
  -8  -5  -6    5.58    0.90 
   8  -5   6    6.30    1.20 
  -8  -5  -6    7.39    1.02 
  -8  -5  -6    6.38    1.08 
   8  -5   6    5.57    1.29 
   8   5   6    5.37    1.23 
  -8   5  -6    4.56    1.06 
  -8   5  -6    5.33    1.28 
  -9  -5  -6    1.59    0.75 
   9  -5   6    2.33    1.14 
   9  -5   6    5.22    1.19 
  -9  -5  -6    2.61    0.71 
   9   5   6    4.85    1.02 
  -9   5  -6    3.75    1.12 
  -9   5  -6    2.23    0.87 
 -10  -5  -6    4.78    1.14 
  -8  -6   6    0.77    0.84 
  -8  -6   6    2.37    0.90 
   8  -6  -6    1.05    0.74 
  -8  -6   6    1.50    0.82 
   8  -6  -6    3.93    1.04 
   8  -6  -6    1.99    0.67 
   8   6  -6    1.42    0.95 
  -8   6   6    1.14    0.77 
  -8   6   6    0.82    0.88 
   7  -6  -6    4.36    1.12 
  -7  -6   6    5.71    1.12 
   7  -6  -6    3.24    1.03 
  -7  -6   6    3.51    1.00 
  -7  -6   6    4.29    1.03 
   7  -6  -6    3.84    0.79 
   7   6  -6    3.78    0.99 
   7   6  -6    3.60    1.15 
  -7   6   6    6.10    1.01 
  -7   6   6    5.15    1.20 
   6  -6  -6   18.19    1.50 
  -6  -6   6   16.22    1.53 
   6  -6  -6   15.51    1.26 
  -6  -6   6   18.97    1.63 
  -6  -6   6   17.90    1.69 
   6  -6  -6   17.56    1.70 
   6   6  -6   17.19    1.55 
  -6   6   6   18.06    1.78 
   6   6  -6   15.70    1.70 
  -6   6   6   17.60    1.43 
   5  -6  -6   17.01    1.29 
   5  -6  -6   15.68    1.41 
  -5  -6   6   14.49    1.49 
   5  -6  -6   16.73    1.60 
   5  -6  -6   16.48    1.35 
  -5  -6   6   16.61    1.59 
   5   6  -6   15.08    1.47 
   5   6  -6   11.71    1.53 
  -5   6   6   15.45    1.09 
  -5   6   6   18.14    1.40 
  -5   6   6   15.63    1.69 
   4  -6  -6   12.55    1.58 
   4  -6  -6   12.75    1.16 
  -4  -6   6   12.68    1.41 
   4  -6  -6   10.43    1.33 
  -4  -6   6   12.07    1.39 
   4  -6  -6   11.53    1.16 
   4  -6  -6   11.51    1.16 
  -4  -6   6   10.86    1.31 
  -4   6   6   12.67    1.14 
  -4   6   6   13.20    1.52 
  -4   6   6   10.83    1.25 
   4   6  -6   11.97    1.40 
   4   6  -6   13.27    1.55 
   3  -6  -6   22.40    1.41 
   3  -6  -6   22.27    1.86 
  -3  -6   6   21.32    1.70 
  -3  -6   6   23.97    1.69 
   3  -6  -6   22.60    1.37 
   3  -6  -6   24.20    1.57 
   3  -6  -6   22.48    1.76 
  -3  -6   6   22.86    1.80 
   3   6  -6   21.55    2.13 
  -3   6   6   22.21    1.60 
   3   6  -6   20.35    1.78 
   3   6  -6   22.75    1.78 
  -3   6   6   22.99    1.51 
  -3   6   6   22.37    1.89 
   2  -6  -6   12.74    1.00 
  -2  -6   6   13.64    1.29 
   2  -6  -6   14.51    1.32 
  -2  -6   6   12.40    1.69 
  -2  -6   6   11.44    1.37 
  -2  -6   6   11.28    1.35 
   2  -6  -6   13.51    1.45 
  -2   6   6   16.58    1.43 
  -2   6   6   13.63    1.21 
   2   6  -6   14.88    1.54 
   2   6  -6   15.00    1.56 
   2   6  -6   14.34    1.64 
  -2   6   6   15.55    1.62 
   2   6  -6   12.54    1.28 
  -1  -6   6   45.54    2.52 
  -1  -6   6   43.29    2.19 
  -1  -6   6   47.31    2.82 
   1  -6  -6   41.40    2.19 
   1  -6  -6   46.74    1.73 
  -1  -6   6   49.02    2.48 
   1  -6  -6   49.00    2.52 
   1  -6  -6   46.16    2.55 
   1  -6  -6   46.50    1.70 
  -1   6   6   49.51    2.41 
  -1   6   6   46.11    2.59 
   1   6  -6   53.14    2.69 
   1   6  -6   50.63    2.63 
   1   6  -6   48.79    2.31 
  -1   6   6   45.40    2.31 
  -1   6   6   51.38    2.28 
   0  -6  -6    6.23    1.40 
   0  -6  -6    5.22    1.13 
   0  -6   6    6.29    0.63 
   0  -6   6    4.44    1.49 
   0  -6  -6    5.66    1.11 
   0  -6   6    6.39    1.32 
   0  -6   6    5.37    1.19 
   0  -6  -6    4.27    0.51 
   0  -6   6    3.87    0.83 
   0  -6   6    4.62    0.61 
   0  -6  -6    4.85    0.50 
   0   6   6    7.05    1.35 
   0   6   6    6.07    1.13 
   0   6  -6    4.57    0.93 
   0   6  -6    5.71    1.22 
   0   6   6    6.66    1.11 
   0   6   6    5.66    1.08 
   0   6  -6    4.25    0.99 
   1  -6   6   21.55    1.41 
   1  -6   6   21.59    1.72 
  -1  -6  -6   19.87    1.69 
   1  -6   6   20.43    1.72 
  -1  -6  -6   15.31    1.69 
  -1  -6  -6   20.45    1.66 
   1  -6   6   21.04    1.16 
   1  -6   6   23.45    1.22 
   1   6   6   18.78    1.60 
   1   6   6   17.16    1.49 
  -1   6  -6   20.65    1.43 
  -1   6  -6   21.73    1.82 
  -1   6  -6   22.00    1.78 
   1   6   6   18.83    1.66 
   1   6   6   22.42    1.56 
   2  -6   6   12.48    1.02 
  -2  -6  -6    9.26    1.32 
   2  -6   6   11.23    0.99 
  -2  -6  -6   10.64    1.49 
   2  -6   6   12.45    1.43 
   2  -6   6   14.44    1.51 
  -2  -6  -6    9.42    1.43 
   2  -6   6   10.07    1.01 
  -2   6  -6   11.01    1.55 
  -2   6  -6   10.73    1.41 
   2   6   6   12.13    1.31 
   2   6   6   10.72    1.22 
   2   6   6   10.58    1.37 
   3  -6   6   22.47    1.85 
  -3  -6  -6   23.94    1.78 
   3  -6   6   21.88    1.42 
   3  -6   6   23.08    1.44 
   3  -6   6   22.51    1.83 
   3  -6   6   23.17    1.34 
  -3  -6  -6   24.13    1.83 
  -3  -6  -6   19.08    1.65 
   3   6   6   24.61    1.82 
  -3   6  -6   25.28    1.93 
   3   6   6   21.93    1.60 
   3   6   6   22.20    1.70 
  -3   6  -6   23.84    1.87 
  -3   6  -6   23.54    1.45 
   4  -6   6   15.99    1.04 
   4  -6   6   15.68    1.29 
  -4  -6  -6   14.19    1.41 
   4  -6   6   14.69    1.24 
   4  -6   6   15.92    1.61 
  -4  -6  -6   18.09    1.67 
   4  -6   6   14.64    1.56 
  -4  -6  -6   15.26    1.46 
   4   6   6   16.60    1.50 
  -4   6  -6   15.47    1.62 
   4   6   6   16.88    1.47 
   4   6   6   15.75    1.49 
  -4   6  -6   16.79    1.67 
  -4   6  -6   16.61    1.16 
   5  -6   6    4.07    1.11 
  -5  -6  -6    6.29    1.11 
   5  -6   6    5.91    1.09 
  -5  -6  -6    5.74    1.24 
  -5  -6  -6    6.56    1.15 
   5  -6   6    6.31    0.68 
  -5   6  -6    3.96    1.06 
  -5   6  -6    4.51    1.03 
   5   6   6    5.64    1.28 
   5   6   6    6.46    1.22 
   5   6   6    6.57    1.20 
  -6  -6  -6   14.36    1.67 
   6  -6   6   14.94    1.70 
  -6  -6  -6   19.25    1.48 
  -6  -6  -6   13.10    1.35 
   6  -6   6   15.34    1.48 
  -6   6  -6   14.94    1.67 
  -6   6  -6   14.89    1.62 
   6   6   6   20.02    1.61 
   6   6   6   13.97    1.57 
   6   6   6   14.78    1.40 
  -7  -6  -6    3.57    0.91 
   7  -6   6    3.98    1.19 
  -7  -6  -6    4.67    1.26 
   7  -6   6    4.10    1.34 
  -7  -6  -6    4.60    0.99 
   7   6   6    6.42    1.29 
   7   6   6    6.44    1.15 
  -7   6  -6    3.76    1.19 
  -7   6  -6    5.70    1.35 
   8  -6   6    5.82    1.18 
  -8  -6  -6    3.31    1.23 
  -8  -6  -6    4.45    0.94 
  -8  -6  -6    2.94    0.85 
  -8  -6  -6    5.30    1.04 
  -8   6  -6    3.31    1.07 
   8   6   6    2.41    1.08 
  -7  -7   6   -0.16    0.83 
   7  -7  -6    1.23    0.72 
  -7  -7   6    2.38    0.97 
   7  -7  -6    2.83    1.02 
  -7   7   6    2.29    0.98 
   7   7  -6    1.71    1.05 
   6  -7  -6    0.55    0.73 
  -6  -7   6    1.14    0.75 
   6  -7  -6    0.27    0.67 
  -6  -7   6    0.38    0.83 
   6  -7  -6    0.54    0.65 
  -6   7   6    0.65    0.92 
   6   7  -6    0.44    0.80 
   5  -7  -6    2.31    0.96 
  -5  -7   6    1.98    0.87 
   5  -7  -6    4.35    0.92 
  -5  -7   6    3.82    1.08 
   5  -7  -6    4.26    0.95 
  -5   7   6    2.12    0.93 
  -5   7   6    3.61    0.70 
   5   7  -6    4.08    1.17 
   5   7  -6    3.51    1.09 
   4  -7  -6    4.20    0.94 
   4  -7  -6    1.79    0.85 
   4  -7  -6    2.95    0.90 
  -4  -7   6    5.06    1.20 
  -4  -7   6    2.45    0.98 
   4  -7  -6    2.75    0.79 
  -4  -7   6    4.43    0.91 
  -4   7   6    4.62    1.28 
   4   7  -6    3.66    1.08 
  -4   7   6    3.69    0.84 
   4   7  -6    3.01    0.98 
   3  -7  -6   18.05    1.51 
  -3  -7   6   19.54    1.75 
   3  -7  -6   19.18    1.72 
   3  -7  -6   19.22    1.87 
  -3  -7   6   16.57    1.67 
   3  -7  -6   19.54    1.30 
  -3  -7   6   18.38    1.62 
   3  -7  -6   19.00    1.36 
  -3   7   6   19.90    1.43 
   3   7  -6   18.17    1.79 
  -3   7   6   16.55    1.18 
  -3   7   6   17.98    1.84 
   3   7  -6   17.87    1.72 
  -2  -7   6   -0.46    0.76 
   2  -7  -6    0.34    0.77 
   2  -7  -6    0.08    0.45 
   2  -7  -6    0.05    0.47 
  -2  -7   6    1.28    0.78 
  -2  -7   6   -0.18    0.53 
   2  -7  -6    0.39    0.79 
   2  -7  -6    1.12    0.78 
  -2   7   6   -0.31    0.48 
  -2   7   6   -0.39    0.59 
   2   7  -6   -0.25    0.67 
  -2   7   6    0.69    0.89 
   2   7  -6    0.43    0.81 
  -1  -7   6   13.52    1.57 
   1  -7  -6   12.74    1.59 
   1  -7  -6   16.54    1.72 
  -1  -7   6   12.58    1.52 
   1  -7  -6   14.08    0.91 
  -1  -7   6   13.85    1.35 
   1  -7  -6   12.66    0.91 
   1  -7  -6   13.38    1.41 
   1   7  -6   12.61    1.57 
  -1   7   6   13.61    1.33 
  -1   7   6   12.19    1.23 
  -1   7   6   15.61    1.71 
   1   7  -6   13.23    1.55 
   0  -7  -6    3.07    1.26 
   0  -7   6    4.71    1.19 
   0  -7  -6    4.77    1.19 
   0  -7  -6    4.20    1.09 
   0  -7   6    3.34    0.89 
   0  -7   6    2.72    0.93 
   0   7  -6    3.52    1.05 
   0   7   6    4.53    1.15 
   0   7  -6    4.73    1.01 
   0   7   6    3.86    0.91 
   0   7   6    5.04    1.00 
   0   7  -6    2.39    1.00 
  -1  -7  -6    8.45    1.58 
   1  -7   6    9.05    0.84 
  -1  -7  -6    9.24    1.45 
   1  -7   6    8.22    1.05 
  -1  -7  -6    8.80    1.35 
   1  -7   6    8.19    0.82 
   1  -7   6   11.76    1.54 
   1  -7   6   10.40    1.66 
   1   7   6   10.42    1.69 
  -1   7  -6   11.12    1.76 
  -1   7  -6   11.53    1.71 
  -1   7  -6    8.46    1.09 
   1   7   6    9.17    1.23 
  -2  -7  -6   -0.05    0.66 
   2  -7   6   -0.57    0.79 
   2  -7   6    0.41    0.54 
   2  -7   6   -0.13    0.49 
  -2  -7  -6    0.69    0.83 
   2  -7   6    1.06    0.55 
   2  -7   6    1.04    0.90 
  -2  -7  -6   -0.08    0.72 
  -2   7  -6    0.31    0.78 
  -2   7  -6    0.48    0.72 
   2   7   6    0.40    0.65 
   2   7   6   -0.12    0.69 
  -2   7  -6    1.80    0.91 
  -3  -7  -6   32.95    2.16 
   3  -7   6   29.30    2.19 
   3  -7   6   31.10    2.22 
  -3  -7  -6   30.47    2.19 
   3  -7   6   30.41    1.69 
   3  -7   6   34.66    1.64 
   3  -7   6   29.77    1.67 
  -3  -7  -6   32.37    2.07 
  -3   7  -6   31.14    2.22 
   3   7   6   33.76    2.24 
   3   7   6   33.11    2.12 
  -3   7  -6   30.99    2.31 
  -3   7  -6   31.59    1.70 
   4  -7   6    3.64    1.10 
  -4  -7  -6    3.55    1.06 
   4  -7   6    4.90    0.72 
   4  -7   6    3.13    0.85 
   4  -7   6    6.24    0.97 
  -4  -7  -6    2.62    1.00 
  -4   7  -6    3.74    1.13 
  -4   7  -6    4.34    1.19 
   4   7   6    5.12    1.14 
   4   7   6    3.82    1.00 
  -4   7  -6    3.26    0.75 
  -5  -7  -6    4.56    1.11 
   5  -7   6    5.36    1.06 
   5  -7   6    4.66    1.30 
  -5  -7  -6    3.41    0.99 
  -5  -7  -6    4.55    1.24 
   5   7   6    5.08    1.16 
  -5   7  -6    5.90    1.27 
   5   7   6    4.52    1.16 
  -5   7  -6    5.03    1.43 
   6  -7   6    0.92    0.74 
  -6  -7  -6   -0.35    0.84 
   6  -7   6    0.00    0.87 
  -6  -7  -6    1.31    0.77 
  -6  -7  -6    1.98    0.84 
  -6   7  -6    0.85    0.91 
   6   7   6   -0.11    0.86 
  -6   7  -6    1.00    0.96 
   7  -7   6    4.27    1.24 
  -7  -7  -6    4.71    1.09 
  -7  -7  -6    6.79    1.16 
  -7   7  -6    3.17    1.12 
  -4  -8   6    8.51    1.50 
   4  -8  -6    8.74    1.22 
   4  -8  -6    9.98    1.44 
   4  -8  -6    8.70    1.43 
  -4  -8   6    6.26    1.31 
  -4   8   6    6.63    1.04 
  -4   8   6    9.32    1.73 
   4   8  -6   12.92    1.55 
   3  -8  -6    3.14    0.91 
   3  -8  -6    2.95    1.04 
   3  -8  -6    2.08    0.91 
  -3  -8   6    5.23    1.17 
   3  -8  -6    2.83    0.78 
  -3  -8   6    3.49    1.16 
   3   8  -6    2.69    1.08 
   3   8  -6    5.05    1.18 
  -3   8   6    3.11    0.71 
  -3   8   6    3.69    0.85 
  -3   8   6    2.73    1.11 
   2  -8  -6    5.89    0.92 
   2  -8  -6    8.96    0.90 
   2  -8  -6    4.82    1.14 
  -2  -8   6    7.08    1.42 
  -2  -8   6    5.44    1.20 
   2  -8  -6    5.10    1.30 
  -2  -8   6    6.56    1.34 
   2  -8  -6    7.16    1.55 
   2   8  -6    7.18    1.35 
  -2   8   6    8.25    1.17 
   2   8  -6    5.15    1.30 
  -2   8   6    6.79    1.07 
  -2   8   6    5.76    1.45 
   1  -8  -6    3.04    0.56 
  -1  -8   6    0.98    0.70 
   1  -8  -6    3.32    1.12 
  -1  -8   6    1.06    0.89 
   1  -8  -6    0.50    0.95 
   1  -8  -6    0.62    0.87 
   1  -8  -6    1.89    0.49 
  -1  -8   6    1.63    0.98 
  -1   8   6    1.43    0.79 
  -1   8   6    1.05    0.97 
   1   8  -6    1.75    0.93 
   1   8  -6    2.43    0.94 
   0  -8  -6    0.07    0.81 
   0  -8   6    0.65    0.90 
   0  -8  -6   -0.26    0.87 
   0  -8   6    2.64    0.99 
   0  -8  -6   -1.40    0.82 
   0  -8   6    0.04    0.60 
   0   8  -6   -0.02    0.69 
   0   8   6    0.06    0.63 
   0   8   6   -0.03    0.70 
   0   8  -6    2.02    1.00 
  -1  -8  -6    3.84    1.23 
  -1  -8  -6    0.07    0.97 
  -1  -8  -6    1.16    0.92 
   1  -8   6    2.32    1.03 
   1  -8   6    1.50    0.52 
   1  -8   6   -0.59    0.80 
   1  -8   6    2.00    0.56 
   1  -8   6    1.27    0.70 
  -1   8  -6    0.33    0.74 
  -1   8  -6    0.18    0.87 
   1   8   6    1.39    1.03 
   1   8   6    1.44    0.80 
   2  -8   6    2.88    0.68 
  -2  -8  -6    3.15    1.09 
   2  -8   6    1.62    0.99 
   2  -8   6    0.48    1.00 
  -2  -8  -6   -0.20    0.64 
   2  -8   6    2.90    0.77 
  -2  -8  -6    0.90    0.84 
  -2   8  -6    1.24    0.90 
  -2   8  -6    1.64    1.01 
   2   8   6    1.30    0.85 
   2   8   6    2.01    1.05 
   3  -8   6    2.63    0.80 
  -3  -8  -6    2.72    1.10 
   3  -8   6    2.35    0.77 
  -3  -8  -6    2.36    0.95 
  -3   8  -6    3.30    0.81 
   3   8   6    1.76    0.87 
   3   8   6    1.12    1.47 
  -3   8  -6    1.62    0.88 
  -3   8  -6    3.41    1.18 
   4  -8   6    3.97    0.91 
  -4  -8  -6    1.92    0.94 
   4   8   6    2.13    0.88 
  -4   8  -6    0.70    0.99 
  12   0  -7    7.83    1.24 
 -12   0   7    6.15    1.16 
  11   0  -7    3.07    0.76 
  11   0  -7    2.48    1.11 
 -11   0   7    3.72    0.91 
  11   0  -7    1.61    0.77 
  10   0  -7   13.09    1.67 
 -10   0   7   13.51    1.34 
  10   0  -7   13.19    1.26 
  10   0  -7   13.68    1.20 
   9   0  -7   12.17    1.55 
   9   0  -7   10.35    1.15 
  -9   0   7   14.02    1.23 
  -9   0   7   12.32    1.22 
   9   0  -7   11.49    1.18 
   9   0  -7   13.35    1.31 
  -8   0   7    6.47    1.02 
   8   0  -7    8.96    1.09 
   8   0  -7    8.64    1.03 
   8   0  -7    7.89    1.38 
   8   0  -7    9.66    1.10 
  -8   0   7    7.24    0.99 
  -7   0   7    2.79    0.74 
  -7   0   7    3.73    0.80 
   7   0  -7    4.08    0.85 
   7   0  -7    4.27    0.93 
   7   0  -7    4.49    0.95 
   7   0  -7    3.69    1.10 
   7   0  -7    4.53    0.87 
   6   0  -7    0.82    0.62 
  -6   0   7    0.58    0.52 
   6   0  -7    0.57    0.61 
  -6   0   7    0.17    0.58 
   6   0  -7    0.97    0.66 
   6   0  -7    0.93    0.70 
   6   0  -7    0.34    0.51 
  -6   0   7    0.64    0.68 
   5   0  -7   38.77    2.10 
   5   0  -7   38.61    2.03 
  -5   0   7   38.39    1.90 
   5   0  -7   39.18    1.80 
  -5   0   7   37.05    1.73 
  -5   0   7   39.03    2.07 
   5   0  -7   39.35    1.93 
   5   0  -7   36.92    2.01 
   4   0  -7   31.61    1.81 
  -4   0   7   31.26    1.55 
   4   0  -7   30.42    1.55 
  -4   0   7   29.76    1.76 
   4   0  -7   31.62    1.82 
  -4   0   7   28.52    1.63 
   4   0  -7   29.47    1.67 
   4   0  -7   30.54    1.79 
  -3   0   7  252.40    5.56 
  -3   0   7  243.85    5.58 
   3   0  -7  249.92    6.67 
   3   0  -7  265.04    6.94 
  -3   0   7  253.87    6.71 
  -3   0   7  260.91    6.52 
   3   0  -7  257.64    6.85 
   3   0  -7  257.91    6.95 
  -3   0   7  243.36    6.73 
   3   0  -7  256.88    6.51 
   2   0  -7    0.53    0.69 
   2   0  -7    1.05    0.65 
  -2   0   7    1.94    0.57 
  -2   0   7    1.57    0.58 
  -2   0   7    1.51    0.61 
  -2   0   7    0.45    0.31 
  -2   0   7    0.87    0.34 
   2   0  -7    1.10    0.65 
   2   0  -7    0.22    0.53 
  -1   0   7  150.66    3.89 
  -1   0   7  157.67    4.50 
   1   0  -7  143.62    4.40 
   1   0  -7  149.71    4.52 
   1   0  -7  154.06    4.50 
  -1   0   7  143.73    4.45 
  -1   0   7  153.25    3.92 
   1   0  -7  150.15    4.65 
  -1   0   7  155.11    4.38 
   0   0  -7    9.33    1.00 
   0   0   7    8.15    1.06 
   0   0   7   10.80    1.05 
   0   0  -7    9.87    1.02 
   0   0   7   10.34    1.00 
   0   0  -7   10.37    1.05 
   0   0   7   10.17    1.05 
   0   0   7    9.72    0.86 
   0   0  -7    9.56    1.14 
   1   0   7  292.03    7.29 
  -1   0  -7  291.13    7.53 
   1   0   7  302.07    7.46 
  -1   0  -7  288.96    7.56 
  -1   0  -7  307.04    7.72 
   1   0   7  296.44    7.60 
   1   0   7  295.31    7.68 
   1   0   7  290.70    7.54 
  -1   0  -7  290.16    7.34 
   2   0   7    2.16    0.67 
  -2   0  -7    2.24    0.69 
   2   0   7    2.23    0.77 
   2   0   7    2.56    0.83 
  -2   0  -7    1.22    0.57 
   2   0   7    1.70    0.71 
  -2   0  -7    1.37    0.52 
   2   0   7    0.81    0.61 
  -2   0  -7    1.41    0.54 
   3   0   7  102.09    3.45 
  -3   0  -7  100.30    3.49 
  -3   0  -7  104.09    3.22 
   3   0   7  112.21    3.59 
   3   0   7   98.42    3.47 
  -3   0  -7  105.28    3.46 
   3   0   7   99.68    3.19 
   3   0   7  106.71    3.50 
  -3   0  -7  103.81    3.54 
   4   0   7    9.42    1.05 
  -4   0  -7    9.15    1.11 
  -4   0  -7    8.91    0.97 
   4   0   7    9.88    1.21 
   4   0   7    9.48    1.12 
   4   0   7    8.54    1.05 
   4   0   7    9.34    0.91 
  -4   0  -7    9.03    1.04 
  -4   0  -7    8.86    0.89 
   4   0   7   10.33    1.09 
   5   0   7   74.19    3.08 
   5   0   7   73.20    2.81 
   5   0   7   72.36    2.89 
  -5   0  -7   74.66    2.81 
   5   0   7   75.96    2.63 
  -5   0  -7   75.11    2.64 
  -5   0  -7   75.08    2.99 
   5   0   7   72.58    3.00 
  -5   0  -7   71.73    2.74 
   5   0   7   74.15    2.76 
   6   0   7    0.47    0.83 
  -6   0  -7    1.33    0.72 
   6   0   7    1.09    0.72 
  -6   0  -7    1.63    0.64 
   6   0   7    1.20    0.59 
   6   0   7    2.20    0.88 
  -6   0  -7    0.71    0.58 
  -6   0  -7    0.89    0.60 
   6   0   7    0.88    0.64 
  -7   0  -7    4.86    0.94 
   7   0   7    4.48    1.13 
   7   0   7    3.84    1.11 
   7   0   7    5.14    0.89 
  -7   0  -7    6.05    1.07 
   7   0   7    4.15    0.97 
  -7   0  -7    5.73    1.10 
  -7   0  -7    5.91    0.94 
  -7   0  -7    4.14    0.80 
   8   0   7    6.80    1.07 
  -8   0  -7    5.95    0.84 
  -8   0  -7    6.98    1.26 
  -8   0  -7    7.47    1.00 
  -8   0  -7    6.14    0.94 
   8   0   7    8.24    1.53 
   8   0   7    7.25    1.23 
  -8   0  -7    5.23    0.94 
   9   0   7   35.83    2.03 
  -9   0  -7   36.70    1.99 
  -9   0  -7   41.04    1.60 
  -9   0  -7   38.46    1.65 
   9   0   7   36.19    1.95 
   9   0   7   36.14    2.49 
 -10   0  -7   10.63    0.77 
  10   0   7    8.23    1.79 
  10   0   7   15.69    1.62 
 -10   0  -7    9.49    1.27 
 -10   0  -7    9.85    0.72 
  10   0   7   10.99    1.26 
  11   0   7    0.87    0.82 
 -11   0  -7    0.77    0.77 
  11   0   7   -0.25    0.98 
  11   0   7    0.53    0.66 
 -11  -1   7   10.76    1.57 
  11  -1  -7   11.49    1.66 
  11  -1  -7   11.23    1.34 
  11  -1  -7    9.20    1.14 
  11  -1  -7    8.87    1.48 
  11   1  -7    9.74    1.12 
  11   1  -7    9.75    0.95 
  11   1  -7    6.99    1.37 
 -11   1   7   13.93    1.27 
  10  -1  -7    9.67    1.24 
 -10  -1   7    9.32    1.27 
  10  -1  -7    8.38    1.48 
  10  -1  -7    8.51    1.10 
  10  -1  -7   10.47    1.30 
  10   1  -7    9.98    1.12 
  10   1  -7    7.68    1.38 
 -10   1   7    8.59    1.06 
  10   1  -7   10.41    1.03 
  -9  -1   7    1.96    0.87 
  -9  -1   7    0.56    0.62 
   9  -1  -7    2.50    0.84 
   9  -1  -7    1.13    0.86 
   9  -1  -7    1.26    0.68 
   9  -1  -7    0.56    0.71 
   9   1  -7    0.91    0.65 
   9   1  -7    1.21    0.93 
   9   1  -7   -0.08    0.56 
  -9   1   7    0.42    0.59 
   8  -1  -7   28.03    1.78 
   8  -1  -7   32.70    1.85 
   8  -1  -7   32.51    1.96 
   8  -1  -7   35.62    2.20 
  -8  -1   7   33.15    1.67 
  -8  -1   7   37.10    2.00 
  -8   1   7   36.13    1.94 
   8   1  -7   35.76    1.72 
   8   1  -7   34.49    1.81 
  -8   1   7   35.08    1.82 
   8   1  -7   30.32    2.11 
   8   1  -7   33.35    1.96 
  -7  -1   7    9.09    0.93 
  -7  -1   7   10.35    1.15 
   7  -1  -7   10.15    1.11 
   7  -1  -7   10.42    1.28 
  -7  -1   7   10.71    1.31 
   7  -1  -7   10.70    1.29 
   7  -1  -7    9.69    1.13 
   7  -1  -7   11.00    1.35 
   7  -1  -7   10.61    1.16 
   7   1  -7   10.68    1.39 
   7   1  -7    9.92    0.97 
   7   1  -7    9.91    1.13 
   7   1  -7    9.04    1.12 
   7   1  -7    7.47    1.07 
  -7   1   7   10.44    1.11 
  -7   1   7    9.46    1.03 
   6  -1  -7    2.82    0.77 
   6  -1  -7    3.76    0.90 
   6  -1  -7    3.91    0.98 
   6  -1  -7    3.03    0.93 
  -6  -1   7    1.23    0.68 
   6  -1  -7    2.36    0.85 
  -6  -1   7    1.92    0.66 
  -6  -1   7    3.03    0.64 
   6   1  -7    2.02    0.77 
   6   1  -7    2.82    0.69 
  -6   1   7    2.98    0.75 
   6   1  -7    3.52    0.81 
   6   1  -7    2.75    1.00 
   6   1  -7    3.07    0.88 
  -6   1   7    2.77    0.78 
   5  -1  -7    9.17    1.14 
   5  -1  -7   10.76    1.15 
   5  -1  -7    9.80    1.22 
  -5  -1   7    8.83    0.82 
  -5  -1   7   12.08    1.26 
  -5  -1   7    9.18    1.07 
   5  -1  -7   10.28    1.12 
   5  -1  -7    9.15    1.03 
   5   1  -7    9.09    0.93 
   5   1  -7    7.88    1.05 
   5   1  -7    9.74    1.08 
  -5   1   7   10.29    1.03 
  -5   1   7   12.95    1.14 
   5   1  -7    9.67    1.30 
   4  -1  -7   32.14    1.90 
   4  -1  -7   32.69    1.79 
  -4  -1   7   25.50    1.70 
  -4  -1   7   32.76    1.90 
   4  -1  -7   33.22    1.70 
  -4  -1   7   32.36    1.45 
  -4  -1   7   31.41    1.73 
   4  -1  -7   34.54    1.79 
   4  -1  -7   30.70    1.79 
  -4  -1   7   32.82    1.02 
   4   1  -7   31.49    1.99 
   4   1  -7   30.93    1.01 
   4   1  -7   33.41    1.75 
  -4   1   7   32.48    1.68 
   4   1  -7   31.10    1.53 
  -4   1   7   32.45    1.76 
   4   1  -7   32.30    1.81 
  -4   1   7   33.37    1.72 
  -3  -1   7   31.43    1.13 
  -3  -1   7   32.28    1.46 
   3  -1  -7   32.55    1.70 
  -3  -1   7   29.40    1.81 
  -3  -1   7   31.00    1.72 
  -3  -1   7   30.01    1.82 
   3  -1  -7   31.76    1.73 
   3  -1  -7   31.34    1.67 
   3  -1  -7   30.68    1.85 
   3  -1  -7   32.63    1.89 
  -3   1   7   34.29    1.72 
  -3   1   7   30.39    0.92 
  -3   1   7   31.66    1.69 
   3   1  -7   32.32    1.16 
   3   1  -7   32.11    2.01 
   3   1  -7   31.01    1.69 
  -3   1   7   30.86    0.92 
   3   1  -7   32.04    1.83 
   3   1  -7   33.63    1.63 
  -3   1   7   31.62    1.66 
  -2  -1   7   34.15    1.90 
   2  -1  -7   33.52    1.71 
   2  -1  -7   33.10    1.89 
   2  -1  -7   33.87    1.73 
   2  -1  -7   33.19    1.84 
  -2  -1   7   29.31    1.23 
  -2  -1   7   30.51    1.68 
  -2  -1   7   31.04    1.49 
  -2  -1   7   31.65    1.80 
   2  -1  -7   34.14    1.77 
  -2   1   7   33.26    1.74 
   2   1  -7   32.31    1.29 
   2   1  -7   30.67    1.68 
  -2   1   7   31.53    1.67 
   2   1  -7   31.07    1.90 
   2   1  -7   30.24    1.78 
  -2   1   7   32.11    1.18 
   2   1  -7   31.37    1.55 
  -2   1   7   30.88    1.60 
  -2   1   7   32.59    1.17 
  -1  -1   7   11.30    1.07 
  -1  -1   7   10.42    1.20 
   1  -1  -7   14.05    1.28 
  -1  -1   7   11.89    1.16 
   1  -1  -7   13.92    1.16 
   1  -1  -7   10.49    1.22 
   1  -1  -7   10.63    1.19 
   1  -1  -7   11.75    1.18 
  -1  -1   7   11.79    0.99 
  -1  -1   7   10.63    0.83 
  -1   1   7   10.66    0.95 
   1   1  -7    9.85    1.16 
  -1   1   7   11.67    0.80 
  -1   1   7    9.13    0.99 
   1   1  -7   10.54    1.08 
  -1   1   7    8.90    1.06 
   1   1  -7   12.29    1.01 
  -1   1   7   11.62    0.83 
   1   1  -7   10.98    0.85 
   1   1  -7   10.76    1.15 
   0  -1  -7   28.59    1.63 
   0  -1   7   24.21    1.33 
   0  -1   7   31.84    1.78 
   0  -1  -7   28.78    1.72 
   0  -1   7   27.47    1.75 
   0  -1   7   30.25    1.60 
   0  -1   7   30.49    1.66 
   0  -1  -7   29.60    1.77 
   0  -1  -7   29.36    1.50 
   0   1  -7   28.93    1.68 
   0   1   7   28.46    1.36 
   0   1   7   29.40    1.45 
   0   1   7   29.38    1.41 
   0   1  -7   28.27    1.63 
   0   1  -7   30.24    1.45 
   0   1   7   28.27    1.64 
   0   1  -7   29.87    1.76 
   0   1   7   31.10    1.69 
   0   1  -7   29.45    1.51 
   1  -1   7    4.08    0.86 
  -1  -1  -7    4.19    0.69 
  -1  -1  -7    3.62    0.74 
   1  -1   7    3.38    0.85 
  -1  -1  -7    4.80    1.01 
   1  -1   7    4.16    0.82 
   1  -1   7    4.74    0.84 
  -1  -1  -7    4.13    0.79 
   1  -1   7    4.11    0.91 
  -1  -1  -7    4.68    0.74 
  -1   1  -7    3.77    0.80 
   1   1   7    3.99    0.69 
  -1   1  -7    6.59    0.83 
   1   1   7    3.86    0.76 
  -1   1  -7    4.90    0.83 
  -1   1  -7    3.80    0.83 
  -1   1  -7    3.57    0.77 
   1   1   7    3.28    0.81 
   1   1   7    4.32    0.97 
   1   1   7    4.61    0.74 
   2  -1   7   40.78    1.91 
  -2  -1  -7   41.46    1.96 
   2  -1   7   44.00    2.10 
  -2  -1  -7   37.68    1.93 
  -2  -1  -7   37.23    1.98 
  -2  -1  -7   39.63    2.02 
  -2  -1  -7   40.22    1.61 
   2  -1   7   40.49    1.91 
   2  -1   7   41.09    1.92 
   2  -1   7   39.69    1.91 
   2   1   7   40.04    1.68 
   2   1   7   41.05    2.11 
  -2   1  -7   42.00    1.94 
   2   1   7   41.10    1.88 
   2   1   7   41.33    1.97 
  -2   1  -7   40.75    1.91 
  -2   1  -7   40.42    2.03 
   2   1   7   41.05    1.93 
  -2   1  -7   42.92    1.96 
  -2   1  -7   37.94    1.85 
   3  -1   7   34.87    1.75 
  -3  -1  -7   34.69    1.81 
   3  -1   7   34.72    1.77 
  -3  -1  -7   35.01    1.45 
   3  -1   7   34.45    1.84 
   3  -1   7   35.53    1.90 
  -3  -1  -7   36.53    1.91 
   3  -1   7   34.44    1.77 
  -3  -1  -7   31.15    1.85 
  -3   1  -7   34.68    1.88 
  -3   1  -7   34.47    1.76 
   3   1   7   34.99    1.84 
  -3   1  -7   35.06    1.87 
  -3   1  -7   35.40    1.82 
   3   1   7   34.81    1.56 
   3   1   7   33.79    1.84 
   3   1   7   34.96    1.83 
  -3   1  -7   33.60    1.75 
   3   1   7   36.37    2.01 
   4  -1   7   28.53    1.63 
   4  -1   7   27.42    1.56 
  -4  -1  -7   28.35    1.31 
  -4  -1  -7   29.12    1.67 
  -4  -1  -7   28.77    1.76 
  -4  -1  -7   26.29    1.57 
   4  -1   7   25.87    1.63 
   4  -1   7   26.99    1.74 
  -4  -1  -7   28.08    1.66 
   4  -1   7   28.24    1.63 
   4   1   7   24.71    1.61 
  -4   1  -7   28.52    1.79 
  -4   1  -7   28.87    1.59 
   4   1   7   29.11    1.80 
  -4   1  -7   29.48    1.69 
  -4   1  -7   30.66    1.72 
   4   1   7   27.17    1.33 
   4   1   7   26.47    1.68 
   4   1   7   27.35    1.78 
  -4   1  -7   27.84    1.61 
   5  -1   7    2.13    0.67 
  -5  -1  -7    2.59    0.59 
  -5  -1  -7    2.70    0.73 
  -5  -1  -7    2.55    0.81 
   5  -1   7    1.90    0.68 
   5  -1   7    1.76    0.68 
   5  -1   7    1.41    0.61 
   5  -1   7    2.87    0.85 
  -5  -1  -7    3.56    0.81 
  -5  -1  -7    3.06    0.72 
  -5   1  -7    2.18    0.66 
   5   1   7    2.41    0.89 
   5   1   7    2.43    0.82 
  -5   1  -7    2.39    0.71 
   5   1   7    2.30    0.88 
   5   1   7    2.67    0.76 
  -5   1  -7    3.70    0.91 
   5   1   7    2.34    0.59 
  -5   1  -7    2.35    0.64 
   6  -1   7    7.87    1.17 
  -6  -1  -7    6.25    0.79 
   6  -1   7    4.80    1.14 
  -6  -1  -7    7.34    1.05 
  -6  -1  -7    5.43    0.94 
   6  -1   7    8.21    1.21 
  -6  -1  -7    8.43    1.33 
   6  -1   7    6.24    1.09 
   6  -1   7    4.77    0.92 
  -6  -1  -7    8.91    1.31 
   6   1   7    6.87    1.29 
  -6   1  -7    6.91    1.11 
  -6   1  -7    7.79    1.11 
   6   1   7    7.25    1.12 
   6   1   7   10.21    1.50 
   6   1   7    6.19    1.13 
  -6   1  -7    6.56    0.99 
   6   1   7    5.65    0.76 
  -6   1  -7    7.45    1.10 
  -7  -1  -7   13.38    1.09 
   7  -1   7   15.99    1.41 
  -7  -1  -7   15.91    1.19 
   7  -1   7   17.01    1.36 
  -7  -1  -7   16.40    1.17 
   7  -1   7   17.46    1.68 
   7  -1   7   14.53    1.34 
  -7  -1  -7   14.84    1.32 
   7  -1   7   14.61    1.28 
  -7  -1  -7   15.36    1.44 
  -7   1  -7   14.95    1.23 
  -7   1  -7   16.60    1.46 
  -7   1  -7   16.59    1.23 
   7   1   7   16.28    1.44 
   7   1   7   14.69    1.50 
   7   1   7   16.39    1.13 
  -7   1  -7   14.65    1.35 
   7   1   7   17.33    1.54 
   7   1   7   12.76    1.57 
  -8  -1  -7   75.33    2.49 
   8  -1   7   71.33    2.92 
   8  -1   7   72.22    3.33 
   8  -1   7   73.20    2.86 
  -8  -1  -7   73.39    2.46 
  -8  -1  -7   73.46    3.00 
  -8  -1  -7   73.11    2.67 
  -8  -1  -7   73.34    3.17 
   8   1   7   75.93    3.09 
  -8   1  -7   73.89    2.79 
   8   1   7   74.72    2.63 
  -8   1  -7   74.56    2.60 
   8   1   7   71.23    3.37 
  -8   1  -7   67.03    2.91 
   9  -1   7    0.61    0.69 
  -9  -1  -7    0.64    0.42 
   9  -1   7    0.22    0.63 
   9  -1   7    1.56    0.98 
  -9  -1  -7   -0.09    0.36 
  -9  -1  -7   -0.18    0.51 
  -9  -1  -7   -0.07    0.56 
  -9   1  -7    0.27    0.45 
   9   1   7    1.17    0.68 
   9   1   7    2.28    0.69 
   9   1   7   -0.06    0.82 
  -9   1  -7   -0.36    0.58 
  10  -1   7    1.92    0.81 
  10  -1   7    2.32    0.96 
  10  -1   7    2.82    1.17 
 -10   1  -7    1.83    0.54 
  10   1   7    2.81    0.73 
  10   1   7    2.72    0.96 
 -10   1  -7    1.88    0.69 
 -10   1  -7    1.43    0.82 
  11  -1   7   10.93    1.27 
  11  -1   7   11.23    1.22 
  11  -1   7   12.47    1.57 
  11  -1   7   13.87    1.80 
 -11   1  -7   11.85    0.76 
 -11   1  -7   12.53    1.50 
  11   1   7   10.81    1.93 
  11   1   7   12.30    1.44 
 -11   1  -7   12.92    0.85 
  11  -2  -7    1.68    0.95 
  11  -2  -7    1.74    0.83 
 -11  -2   7    0.71    0.72 
  11  -2  -7   -0.22    0.71 
  11   2  -7    3.92    0.78 
  11   2  -7    2.33    0.98 
 -11   2   7   -0.22    0.56 
  11   2  -7    0.57    0.58 
  11   2  -7    1.22    0.99 
  10  -2  -7    0.74    0.80 
  10  -2  -7    1.18    0.74 
  10  -2  -7   -0.21    0.72 
  10  -2  -7   -0.17    0.69 
 -10  -2   7    0.94    0.76 
  10   2  -7   -0.15    0.47 
  10   2  -7    1.27    0.57 
 -10   2   7    1.15    0.54 
  10   2  -7   -0.37    0.47 
  10   2  -7    3.81    1.07 
   9  -2  -7   16.94    1.67 
   9  -2  -7   16.55    1.51 
   9  -2  -7   15.70    1.39 
   9  -2  -7   14.86    1.47 
  -9  -2   7   18.25    1.56 
   9   2  -7   20.50    1.32 
   9   2  -7   15.89    1.15 
   9   2  -7   16.24    1.82 
  -9   2   7   15.45    1.19 
   8  -2  -7    3.94    1.08 
  -8  -2   7    3.15    0.69 
   8  -2  -7    3.28    0.89 
   8  -2  -7    3.90    1.03 
  -8  -2   7    2.60    0.81 
   8  -2  -7    3.79    0.98 
   8   2  -7    3.72    0.51 
  -8   2   7    3.24    0.81 
   8   2  -7    3.31    0.78 
   8   2  -7    2.56    1.15 
   8   2  -7    3.15    0.43 
   8   2  -7    3.37    0.71 
   7  -2  -7   -0.03    0.65 
   7  -2  -7    0.74    0.62 
   7  -2  -7    0.80    0.69 
  -7  -2   7    1.32    0.67 
  -7  -2   7    0.00    0.37 
   7  -2  -7    0.76    0.72 
  -7  -2   7    0.41    0.33 
   7  -2  -7   -0.19    0.64 
   7  -2  -7    1.22    0.62 
  -7  -2   7    0.43    0.67 
  -7   2   7    0.80    0.60 
   7   2  -7    0.81    0.72 
   7   2  -7    1.89    0.38 
   7   2  -7    0.34    0.83 
   7   2  -7    0.80    0.54 
   7   2  -7    1.16    0.66 
  -7   2   7    0.75    0.56 
   6  -2  -7   32.40    1.94 
  -6  -2   7   30.00    2.00 
   6  -2  -7   30.07    1.83 
   6  -2  -7   35.02    2.01 
  -6  -2   7   30.27    1.86 
   6  -2  -7   31.14    1.90 
   6  -2  -7   31.83    1.73 
  -6  -2   7   31.86    1.91 
  -6  -2   7   36.27    1.43 
   6  -2  -7   34.03    1.92 
  -6  -2   7   29.25    1.20 
   6   2  -7   30.86    1.77 
   6   2  -7   33.06    1.87 
  -6   2   7   32.16    1.64 
   6   2  -7   31.49    1.15 
   6   2  -7   30.80    1.44 
   6   2  -7   29.28    2.15 
  -6   2   7   30.18    1.79 
   5  -2  -7   13.90    1.28 
  -5  -2   7   15.59    1.49 
  -5  -2   7   14.57    1.34 
   5  -2  -7   12.44    1.28 
   5  -2  -7   14.37    1.38 
  -5  -2   7   15.17    1.33 
   5  -2  -7   16.09    1.34 
  -5  -2   7   15.05    0.86 
   5  -2  -7   12.99    1.25 
  -5  -2   7   15.00    0.89 
   5  -2  -7   15.88    1.24 
   5   2  -7   14.02    1.26 
   5   2  -7   13.05    1.23 
  -5   2   7   14.17    1.15 
   5   2  -7   13.99    1.70 
   5   2  -7   13.77    0.78 
   5   2  -7   14.39    1.12 
  -5   2   7   17.30    1.32 
   4  -2  -7   19.48    1.33 
   4  -2  -7   19.44    1.39 
   4  -2  -7   19.17    1.49 
  -4  -2   7   17.21    1.46 
   4  -2  -7   17.15    1.45 
  -4  -2   7   19.34    0.99 
   4  -2  -7   19.38    1.43 
  -4  -2   7   19.75    1.43 
  -4  -2   7   18.38    1.55 
  -4  -2   7   19.47    0.99 
   4   2  -7   17.03    1.34 
  -4   2   7   18.02    0.65 
  -4   2   7   20.56    1.44 
   4   2  -7   18.86    1.15 
   4   2  -7   17.65    0.93 
  -4   2   7   16.83    1.26 
   4   2  -7   19.15    1.42 
  -4   2   7   17.15    0.64 
   4   2  -7   15.73    1.61 
   3  -2  -7   56.32    2.50 
  -3  -2   7   54.19    2.50 
  -3  -2   7   54.90    1.85 
  -3  -2   7   53.50    1.84 
   3  -2  -7   51.64    2.44 
   3  -2  -7   52.70    2.21 
   3  -2  -7   51.70    2.22 
  -3  -2   7   52.56    2.52 
  -3  -2   7   55.29    2.38 
   3  -2  -7   55.33    2.35 
  -3   2   7   51.28    2.27 
   3   2  -7   51.39    2.29 
   3   2  -7   55.12    2.64 
   3   2  -7   54.08    1.83 
  -3   2   7   55.05    1.63 
   3   2  -7   55.94    1.94 
   3   2  -7   52.57    2.39 
  -3   2   7   53.78    2.27 
  -2  -2   7    3.59    0.88 
  -2  -2   7    4.09    0.66 
   2  -2  -7    4.98    0.97 
   2  -2  -7    6.20    1.05 
  -2  -2   7    4.84    0.70 
   2  -2  -7    4.69    0.88 
   2  -2  -7    5.00    0.84 
  -2  -2   7    2.03    0.67 
   2  -2  -7    4.65    0.78 
  -2  -2   7    3.17    0.70 
  -2   2   7    5.81    0.92 
   2   2  -7    3.72    0.65 
   2   2  -7    4.17    0.86 
   2   2  -7    3.17    0.75 
   2   2  -7    3.71    0.61 
  -2   2   7    4.72    0.57 
  -2   2   7    3.26    0.65 
  -2   2   7    4.33    0.93 
   2   2  -7    4.24    1.07 
   1  -2  -7   46.40    2.09 
  -1  -2   7   47.24    2.27 
   1  -2  -7   47.91    2.26 
   1  -2  -7   42.46    1.87 
  -1  -2   7   44.74    2.08 
   1  -2  -7   48.38    2.27 
  -1  -2   7   48.55    1.89 
  -1  -2   7   48.56    2.35 
   1  -2  -7   46.39    2.26 
  -1  -2   7   50.11    1.88 
   1   2  -7   46.59    2.10 
  -1   2   7   48.37    2.22 
  -1   2   7   49.50    1.79 
   1   2  -7   45.65    1.80 
   1   2  -7   52.03    2.32 
  -1   2   7   49.07    1.86 
   1   2  -7   49.22    2.33 
  -1   2   7   47.23    2.15 
   1   2  -7   47.55    1.85 
   0  -2  -7   18.96    1.44 
   0  -2  -7   18.79    1.17 
   0  -2  -7   19.23    1.32 
   0  -2   7   18.23    1.31 
   0  -2  -7   19.44    1.55 
   0  -2  -7   16.72    1.38 
   0  -2   7   20.88    1.33 
   0  -2   7   19.10    1.45 
   0  -2   7   17.06    1.19 
   0  -2   7   18.75    1.59 
   0   2  -7   16.50    1.15 
   0   2  -7   18.74    1.44 
   0   2   7   18.85    1.03 
   0   2   7   18.63    1.39 
   0   2   7   17.65    1.36 
   0   2  -7   17.59    1.33 
   0   2   7   18.63    1.14 
   0   2  -7   19.25    1.16 
   0   2  -7   16.99    1.43 
  -1  -2  -7   62.13    2.50 
   1  -2   7   63.33    2.49 
   1  -2   7   64.50    2.47 
  -1  -2  -7   61.46    2.58 
  -1  -2  -7   62.38    2.67 
  -1  -2  -7   60.26    2.60 
   1  -2   7   61.79    2.62 
   1  -2   7   64.01    2.65 
   1  -2   7   62.75    2.35 
  -1  -2  -7   63.81    2.04 
  -1   2  -7   66.46    2.71 
   1   2   7   64.28    2.63 
  -1   2  -7   65.14    2.35 
   1   2   7   64.30    2.37 
   1   2   7   64.66    2.03 
  -1   2  -7   56.73    2.57 
   1   2   7   61.91    2.53 
  -1   2  -7   60.81    2.39 
  -1   2  -7   70.01    2.58 
   2  -2   7    9.13    0.92 
  -2  -2  -7    8.47    1.09 
   2  -2   7    8.98    1.03 
   2  -2   7    7.73    0.95 
  -2  -2  -7    9.28    1.06 
   2  -2   7    7.60    1.10 
  -2  -2  -7    8.23    0.98 
   2  -2   7    7.48    1.02 
  -2  -2  -7    8.50    1.24 
  -2  -2  -7    8.91    0.66 
  -2   2  -7   10.28    1.04 
   2   2   7    8.46    1.14 
   2   2   7    8.76    0.99 
  -2   2  -7    8.12    1.03 
  -2   2  -7    8.03    1.06 
   2   2   7    7.72    1.01 
  -2   2  -7   12.87    1.61 
  -2   2  -7    7.92    0.90 
   2   2   7    8.41    0.68 
   3  -2   7   37.37    1.91 
   3  -2   7   36.91    1.95 
  -3  -2  -7   37.87    1.31 
  -3  -2  -7   34.19    1.97 
  -3  -2  -7   38.36    1.96 
  -3  -2  -7   37.26    1.96 
   3  -2   7   37.72    1.84 
   3  -2   7   36.57    1.80 
   3  -2   7   37.19    1.98 
   3   2   7   38.87    1.39 
   3   2   7   35.89    1.93 
  -3   2  -7   39.30    1.99 
   3   2   7   37.79    1.95 
  -3   2  -7   38.11    2.00 
   3   2   7   35.63    1.91 
  -3   2  -7   41.96    1.88 
  -3   2  -7   35.93    1.82 
  -3   2  -7   39.20    2.00 
   3   2   7   35.83    2.08 
   4  -2   7   23.72    1.57 
  -4  -2  -7   23.93    1.01 
   4  -2   7   23.69    1.70 
   4  -2   7   25.44    1.63 
   4  -2   7   23.88    1.46 
   4  -2   7   24.12    1.50 
  -4  -2  -7   23.70    1.48 
  -4  -2  -7   25.87    1.64 
  -4  -2  -7   23.12    1.63 
  -4  -2  -7   25.89    1.62 
  -4   2  -7   24.46    1.59 
  -4   2  -7   23.68    1.44 
   4   2   7   23.33    1.79 
   4   2   7   24.27    1.71 
  -4   2  -7   22.59    1.66 
   4   2   7   24.01    1.18 
   4   2   7   24.04    1.65 
  -4   2  -7   23.90    1.53 
  -4   2  -7   23.77    1.61 
   4   2   7   23.42    1.60 
   5  -2   7   36.19    2.14 
  -5  -2  -7   37.29    1.35 
  -5  -2  -7   35.45    2.05 
   5  -2   7   38.12    1.84 
   5  -2   7   37.89    1.98 
   5  -2   7   37.57    1.95 
   5  -2   7   37.33    1.98 
  -5  -2  -7   36.98    1.81 
  -5  -2  -7   40.81    2.08 
  -5  -2  -7   37.52    1.93 
   5   2   7   35.83    1.39 
   5   2   7   34.72    2.15 
   5   2   7   34.60    2.07 
  -5   2  -7   34.43    1.74 
  -5   2  -7   35.26    2.14 
   5   2   7   37.04    2.01 
  -5   2  -7   35.83    1.93 
  -5   2  -7   35.27    1.97 
  -5   2  -7   34.25    1.95 
   5   2   7   32.32    2.08 
   6  -2   7   14.73    1.30 
  -6  -2  -7   14.21    1.38 
  -6  -2  -7   13.03    1.25 
  -6  -2  -7   13.90    1.12 
   6  -2   7   13.00    1.30 
   6  -2   7   16.59    1.31 
   6  -2   7   12.67    1.27 
  -6  -2  -7   15.17    0.88 
   6  -2   7   13.04    1.43 
  -6  -2  -7   10.73    1.11 
   6   2   7   11.67    1.43 
  -6   2  -7   14.17    1.23 
  -6   2  -7   13.89    1.33 
   6   2   7   13.74    1.33 
  -6   2  -7   15.23    1.57 
  -6   2  -7   13.73    1.33 
   6   2   7   12.98    1.52 
  -6   2  -7   16.72    1.20 
   6   2   7   13.26    0.87 
   6   2   7   11.37    1.39 
   7  -2   7    1.79    0.75 
  -7  -2  -7    1.32    0.50 
  -7  -2  -7    1.42    0.75 
   7  -2   7    2.75    1.04 
  -7  -2  -7    1.93    0.63 
   7  -2   7    1.42    0.72 
   7  -2   7    2.40    1.03 
  -7  -2  -7    1.68    0.68 
  -7  -2  -7    1.43    0.80 
   7   2   7    1.53    0.98 
  -7   2  -7    2.01    0.72 
   7   2   7    1.16    0.53 
  -7   2  -7    0.69    0.68 
   7   2   7    0.96    0.73 
  -7   2  -7    2.09    0.65 
   7   2   7    1.51    0.84 
  -8  -2  -7    0.68    0.49 
   8  -2   7   -0.19    0.79 
  -8  -2  -7    1.38    0.59 
   8  -2   7    1.05    0.74 
  -8  -2  -7    0.78    0.73 
   8   2   7    2.31    0.94 
   8   2   7    0.30    0.86 
  -8   2  -7    1.39    0.63 
  -8   2  -7    1.20    0.58 
  -8   2  -7    1.30    0.79 
   8   2   7    1.72    0.58 
  -9  -2  -7   47.35    1.64 
   9  -2   7   48.56    2.16 
  -9  -2  -7   47.24    1.67 
  -9  -2  -7   46.19    2.51 
   9  -2   7   41.54    2.67 
   9  -2   7   43.76    2.53 
   9   2   7   49.41    1.99 
   9   2   7   45.31    2.76 
   9   2   7   44.80    2.45 
   9   2   7   46.80    1.91 
  -9   2  -7   43.93    2.44 
  -9   2  -7   44.26    2.01 
  10  -2   7    1.85    1.12 
  10  -2   7    2.53    0.69 
  10  -2   7    2.25    0.81 
  10  -2   7    2.11    0.92 
 -10  -2  -7    2.36    0.91 
 -10   2  -7    1.94    0.63 
  10   2   7    2.52    0.69 
  10   2   7    1.76    1.01 
 -10   2  -7    2.04    0.92 
  10   2   7    2.13    0.78 
  10   2   7    0.36    0.97 
  11  -2   7   -0.52    0.70 
  11  -2   7    1.07    0.73 
  11  -2   7    1.02    0.54 
  11  -2   7   -1.36    0.81 
 -11   2  -7    0.22    0.48 
  11   2   7    0.31    0.68 
  11   2   7    1.51    0.61 
  11   2   7    0.00    1.03 
 -11   2  -7   -0.90    0.66 
  11   2   7    0.17    0.56 
 -11  -3   7    6.89    1.48 
  11  -3  -7    6.56    1.24 
 -11   3   7    6.57    0.87 
  11   3  -7    7.45    0.93 
  11   3  -7    6.55    0.85 
  11   3  -7    6.98    1.59 
  10  -3  -7   10.80    1.72 
  10  -3  -7    8.33    1.02 
 -10  -3   7    6.77    1.26 
  10  -3  -7    9.47    1.62 
 -10   3   7    8.32    0.86 
  10   3  -7    5.85    1.47 
  10   3  -7    8.36    0.86 
  10   3  -7    9.19    1.00 
  10   3  -7    7.71    0.68 
   9  -3  -7    0.25    0.67 
   9  -3  -7    1.17    0.87 
   9  -3  -7    3.65    0.86 
   9  -3  -7    1.15    0.85 
   9   3  -7    0.79    0.61 
   9   3  -7    1.20    0.45 
   9   3  -7    0.52    1.07 
  -9   3   7    1.77    0.55 
   9   3  -7    0.90    0.42 
  -8  -3   7   27.37    1.89 
  -8  -3   7   26.31    1.32 
  -8  -3   7   27.35    1.76 
   8  -3  -7   26.83    1.51 
   8  -3  -7   26.39    1.92 
   8  -3  -7   25.00    1.85 
   8  -3  -7   27.38    1.88 
  -8   3   7   25.26    1.39 
   8   3  -7   23.16    2.22 
   8   3  -7   26.63    1.60 
   8   3  -7   24.35    1.17 
  -7  -3   7    8.71    1.32 
   7  -3  -7    8.50    1.37 
  -7  -3   7    8.16    1.36 
   7  -3  -7    8.66    1.35 
   7  -3  -7    8.97    1.17 
  -7  -3   7    8.06    0.85 
   7   3  -7    6.97    0.73 
   7   3  -7    8.40    1.07 
   7   3  -7    8.72    1.72 
  -7   3   7    7.18    0.88 
   6  -3  -7    3.75    0.98 
  -6  -3   7    2.71    0.98 
  -6  -3   7    4.33    0.96 
   6  -3  -7    3.45    0.91 
   6  -3  -7    3.33    0.85 
   6  -3  -7    4.54    0.87 
   6  -3  -7    4.92    1.02 
  -6  -3   7    3.60    0.82 
  -6  -3   7    4.35    0.72 
   6   3  -7    2.90    0.88 
   6   3  -7    3.77    0.91 
  -6   3   7    3.77    0.39 
   6   3  -7    2.44    1.04 
  -6   3   7    3.13    0.80 
   6   3  -7    4.17    0.65 
  -6   3   7    3.79    0.75 
   5  -3  -7   12.03    1.21 
   5  -3  -7   11.77    1.10 
   5  -3  -7   11.59    1.25 
  -5  -3   7   13.88    1.35 
  -5  -3   7   11.32    1.21 
   5  -3  -7   13.59    0.68 
   5  -3  -7   14.61    1.39 
  -5  -3   7   10.40    0.93 
   5  -3  -7   13.23    1.25 
  -5  -3   7   10.58    1.31 
   5   3  -7   12.38    1.21 
  -5   3   7   10.75    1.05 
  -5   3   7   11.09    1.34 
  -5   3   7   11.88    1.22 
   5   3  -7   12.43    1.25 
   5   3  -7   14.43    0.95 
  -5   3   7   10.95    0.68 
   5   3  -7   10.88    1.49 
   4  -3  -7   19.54    1.37 
   4  -3  -7   19.23    1.56 
  -4  -3   7   19.58    1.62 
   4  -3  -7   21.83    0.95 
   4  -3  -7   18.68    1.47 
  -4  -3   7   14.00    1.41 
  -4  -3   7   19.09    1.16 
  -4  -3   7   18.82    0.82 
   4  -3  -7   19.13    1.39 
  -4  -3   7   18.98    1.46 
   4  -3  -7   19.05    1.31 
  -4   3   7   20.71    1.51 
   4   3  -7   17.42    1.42 
  -4   3   7   19.87    0.95 
   4   3  -7   21.83    1.17 
  -4   3   7   19.16    1.60 
  -4   3   7   18.01    1.32 
   4   3  -7   17.60    1.38 
   4   3  -7   19.21    1.75 
   3  -3  -7   17.72    0.98 
  -3  -3   7   16.71    1.45 
  -3  -3   7   18.28    0.86 
   3  -3  -7   17.05    1.40 
  -3  -3   7   17.54    1.39 
  -3  -3   7   18.53    1.17 
   3  -3  -7   17.64    1.48 
   3  -3  -7   18.84    1.30 
  -3  -3   7   16.16    1.52 
   3  -3  -7   15.54    1.19 
   3  -3  -7   17.25    1.20 
  -3   3   7   17.67    0.98 
   3   3  -7   16.50    1.40 
   3   3  -7   16.66    1.58 
   3   3  -7   18.51    1.14 
  -3   3   7   19.93    1.58 
   3   3  -7   15.55    1.31 
  -3   3   7   16.93    1.31 
  -3   3   7   16.89    1.38 
   3   3  -7   18.07    0.87 
  -2  -3   7   17.93    1.56 
  -2  -3   7   16.90    1.34 
   2  -3  -7   13.66    1.03 
   2  -3  -7   16.25    1.37 
  -2  -3   7   17.05    1.43 
  -2  -3   7   16.43    0.92 
  -2  -3   7   16.49    1.15 
   2  -3  -7   14.55    0.99 
   2  -3  -7   17.45    1.16 
   2  -3  -7   17.20    1.25 
   2  -3  -7   13.48    1.33 
   2   3  -7   16.94    0.90 
   2   3  -7   15.95    1.31 
  -2   3   7   17.58    1.05 
  -2   3   7   13.74    1.26 
  -2   3   7   16.87    1.36 
  -2   3   7   16.23    1.45 
   2   3  -7   18.44    1.59 
   2   3  -7   17.04    1.43 
   2   3  -7   19.25    1.19 
   1  -3  -7   10.00    0.85 
  -1  -3   7   10.80    1.02 
   1  -3  -7   10.28    0.93 
  -1  -3   7   10.22    1.06 
  -1  -3   7    9.77    1.17 
  -1  -3   7   10.66    0.91 
   1  -3  -7   10.22    1.18 
   1  -3  -7    9.79    0.82 
   1  -3  -7   13.15    1.11 
   1  -3  -7   10.35    1.27 
  -1  -3   7   12.09    1.64 
   1   3  -7    9.53    0.78 
   1   3  -7   10.51    0.97 
   1   3  -7   11.02    1.22 
  -1   3   7   10.21    1.20 
  -1   3   7    8.54    1.07 
   1   3  -7    9.42    1.05 
   1   3  -7    8.97    1.24 
  -1   3   7   10.35    0.91 
  -1   3   7    9.76    1.14 
   0  -3  -7   19.08    1.35 
   0  -3  -7   19.98    1.68 
   0  -3  -7   19.88    1.26 
   0  -3  -7   17.96    1.45 
   0  -3  -7   18.72    1.13 
   0  -3   7   20.17    1.35 
   0  -3   7   21.72    1.71 
   0  -3  -7   19.26    0.97 
   0  -3   7   18.98    1.49 
   0  -3   7   19.24    1.22 
   0  -3   7   20.08    1.38 
   0   3  -7   19.99    1.11 
   0   3  -7   17.13    1.52 
   0   3   7   17.66    1.46 
   0   3   7   19.14    1.39 
   0   3  -7   20.37    1.52 
   0   3  -7   18.83    1.36 
   0   3   7   19.27    1.43 
   0   3  -7   20.28    1.32 
   1  -3   7    2.34    0.64 
   1  -3   7    3.31    0.67 
  -1  -3  -7    3.73    1.09 
   1  -3   7    3.62    0.85 
   1  -3   7    1.87    0.65 
  -1  -3  -7    3.07    0.72 
  -1  -3  -7    2.92    0.47 
  -1  -3  -7    3.27    0.45 
  -1  -3  -7    2.58    0.67 
   1  -3   7    1.76    0.86 
  -1  -3  -7    2.73    0.75 
  -1   3  -7    3.85    0.88 
  -1   3  -7    2.84    0.73 
   1   3   7    2.77    0.67 
   1   3   7    3.20    0.73 
  -1   3  -7    3.00    0.65 
   1   3   7    2.47    0.83 
   1   3   7    2.53    0.75 
  -1   3  -7    3.55    0.87 
  -1   3  -7    2.87    0.85 
   2  -3   7   21.25    1.58 
  -2  -3  -7   22.44    1.64 
  -2  -3  -7   17.84    1.36 
   2  -3   7   21.59    1.53 
   2  -3   7   20.68    1.34 
  -2  -3  -7   19.19    1.42 
   2  -3   7   20.38    1.28 
   2  -3   7   17.95    1.52 
  -2  -3  -7   21.24    1.50 
  -2   3  -7   21.72    1.61 
   2   3   7   19.76    1.46 
  -2   3  -7   21.65    1.31 
  -2   3  -7   19.66    1.55 
  -2   3  -7   20.52    1.47 
   2   3   7   18.68    1.50 
  -2   3  -7   21.04    1.43 
   2   3   7   18.91    1.40 
  -3  -3  -7   21.33    1.54 
   3  -3   7   18.90    1.51 
  -3  -3  -7   20.86    2.30 
  -3  -3  -7   20.28    1.59 
   3  -3   7   19.62    1.53 
  -3  -3  -7   22.34    1.55 
   3  -3   7   21.29    1.58 
  -3  -3  -7   19.86    1.47 
   3  -3   7   19.53    1.32 
   3  -3   7   20.04    1.32 
   3   3   7   20.93    1.61 
  -3   3  -7   20.49    1.37 
   3   3   7   20.59    1.52 
   3   3   7   21.55    1.53 
  -3   3  -7   20.18    1.56 
  -3   3  -7   21.16    1.37 
  -3   3  -7   20.72    1.58 
  -3   3  -7   20.02    1.56 
  -4  -3  -7   15.77    1.34 
   4  -3   7   14.98    1.26 
  -4  -3  -7   15.67    1.43 
   4  -3   7   14.36    1.37 
  -4  -3  -7   15.32    1.35 
   4  -3   7   15.41    1.43 
   4  -3   7   15.15    1.45 
   4  -3   7   14.29    1.15 
  -4  -3  -7   15.11    1.25 
  -4   3  -7   14.33    1.16 
  -4   3  -7   14.91    1.43 
  -4   3  -7   16.86    1.43 
   4   3   7   16.09    1.45 
  -4   3  -7   15.85    1.46 
   4   3   7   15.55    1.38 
  -5  -3  -7    2.47    0.74 
  -5  -3  -7    2.46    0.89 
   5  -3   7    3.36    0.80 
  -5  -3  -7    3.23    0.83 
   5  -3   7    3.21    0.81 
   5  -3   7    3.85    0.76 
  -5  -3  -7    3.33    0.75 
   5  -3   7    3.74    0.90 
   5  -3   7    2.46    0.90 
   5   3   7    3.71    0.92 
   5   3   7    2.65    0.88 
  -5   3  -7    3.93    1.06 
  -5   3  -7    4.37    1.01 
  -5   3  -7    3.78    0.74 
  -5   3  -7    4.16    0.96 
   5   3   7    3.86    1.09 
   6  -3   7    4.46    0.85 
   6  -3   7    3.39    0.94 
   6  -3   7    5.02    0.97 
  -6  -3  -7    4.37    0.91 
   6  -3   7    4.72    1.15 
   6  -3   7    4.67    0.94 
  -6  -3  -7    6.81    1.01 
  -6  -3  -7    4.20    1.07 
   6  -3   7    3.35    0.96 
  -6  -3  -7    5.06    1.06 
   6   3   7    6.23    1.24 
  -6   3  -7    4.44    0.96 
  -6   3  -7    3.18    1.04 
  -6   3  -7    5.19    0.85 
  -6   3  -7    3.18    0.85 
   6   3   7    4.93    1.18 
   6   3   7    4.97    1.18 
   6   3   7    5.27    1.16 
   7  -3   7   12.89    1.41 
  -7  -3  -7   12.24    1.07 
   7  -3   7   11.07    1.09 
   7  -3   7   12.05    1.54 
  -7  -3  -7   12.92    1.19 
  -7  -3  -7   13.83    1.38 
   7   3   7   17.69    1.79 
  -7   3  -7   12.81    1.02 
  -7   3  -7   13.81    1.48 
  -7   3  -7   13.04    1.30 
   7   3   7   16.41    1.70 
   7   3   7   12.77    1.39 
   8  -3   7   50.76    2.66 
  -8  -3  -7   51.73    1.98 
  -8  -3  -7   52.96    2.13 
   8  -3   7   50.78    2.08 
   8  -3   7   52.81    2.88 
  -8  -3  -7   56.94    2.69 
   8   3   7   49.19    1.67 
   8   3   7   51.65    2.65 
  -8   3  -7   52.55    2.71 
  -8   3  -7   53.16    2.02 
   8   3   7   51.88    2.96 
   8   3   7   52.73    1.66 
  -8   3  -7   53.42    2.40 
   9  -3   7    0.45    0.82 
  -9  -3  -7   -0.04    0.45 
   9  -3   7    0.94    0.57 
  -9  -3  -7    0.12    0.42 
   9  -3   7    0.53    0.76 
  -9  -3  -7    1.48    0.77 
  -9   3  -7    0.23    0.76 
   9   3   7   -0.10    0.69 
  -9   3  -7    0.56    0.56 
   9   3   7   -0.15    0.40 
   9   3   7    0.35    0.43 
   9   3   7    1.24    1.01 
 -10  -3  -7    1.63    0.81 
  10  -3   7    0.73    0.77 
  10  -3   7    3.08    1.14 
  10  -3   7    2.58    0.70 
  10   3   7    2.00    0.57 
 -10   3  -7    2.36    0.74 
  10   3   7    4.06    0.64 
 -10   3  -7    1.58    0.88 
  10   3   7    1.63    0.88 
  10   3   7    0.16    0.98 
 -11   3  -7    9.63    1.58 
  11   3   7    9.28    1.46 
  11   3   7   10.81    1.02 
  10  -4  -7    4.76    1.02 
  10  -4  -7    5.59    1.31 
 -10  -4   7    4.17    1.23 
  10   4  -7    4.01    1.35 
   9  -4  -7    3.54    1.03 
  -9  -4   7    5.77    0.91 
   9  -4  -7    4.51    1.12 
  -9  -4   7    4.46    1.04 
  -9  -4   7    3.30    0.94 
  -9   4   7    4.97    0.67 
   9   4  -7    3.60    0.69 
   9   4  -7    3.71    1.38 
   9   4  -7    3.90    0.80 
  -8  -4   7    3.81    0.84 
   8  -4  -7    3.74    0.41 
  -8  -4   7    1.76    0.88 
   8  -4  -7    4.05    0.77 
  -8  -4   7    3.15    0.87 
   8  -4  -7    4.38    1.17 
   8  -4  -7    2.69    0.94 
   8   4  -7    2.62    1.20 
  -8   4   7    3.02    1.01 
   8   4  -7    3.99    0.74 
   8   4  -7    3.14    0.83 
  -8   4   7    3.09    0.62 
  -7  -4   7    1.96    0.80 
   7  -4  -7    1.38    0.63 
   7  -4  -7    0.95    0.72 
   7  -4  -7    1.28    0.41 
  -7  -4   7    1.23    0.71 
   7  -4  -7    1.69    0.80 
  -7  -4   7    2.13    0.69 
   7   4  -7    0.52    0.93 
  -7   4   7    1.68    0.59 
  -7   4   7    1.98    0.47 
   7   4  -7    1.17    0.57 
  -7   4   7    1.73    0.91 
   7   4  -7    1.46    0.69 
  -6  -4   7    0.66    0.72 
   6  -4  -7    0.43    0.67 
  -6  -4   7    1.20    0.65 
   6  -4  -7    0.13    0.45 
   6  -4  -7    1.02    0.68 
   6  -4  -7    0.55    0.64 
  -6  -4   7    0.99    0.71 
   6  -4  -7   -0.43    0.59 
   6  -4  -7    0.95    0.41 
   6   4  -7    3.66    1.20 
  -6   4   7    0.75    0.44 
   6   4  -7    0.43    0.53 
  -6   4   7    0.55    0.51 
   6   4  -7    0.62    0.63 
  -6   4   7    0.72    0.80 
  -5  -4   7   19.35    1.56 
   5  -4  -7   17.77    1.61 
  -5  -4   7   20.39    1.37 
  -5  -4   7   19.00    1.72 
   5  -4  -7   19.77    1.05 
   5  -4  -7   18.45    1.59 
  -5  -4   7   16.52    1.65 
   5  -4  -7   20.56    1.28 
   5  -4  -7   20.25    1.50 
   5  -4  -7   20.07    1.50 
   5   4  -7   19.29    1.51 
  -5   4   7   20.27    1.72 
   5   4  -7   19.84    1.27 
  -5   4   7   18.03    1.25 
   5   4  -7   18.84    1.80 
  -5   4   7   19.77    1.09 
  -4  -4   7   10.80    1.25 
   4  -4  -7   12.79    1.16 
  -4  -4   7   10.24    1.08 
   4  -4  -7   11.36    1.11 
  -4  -4   7   11.08    1.23 
   4  -4  -7   10.49    0.87 
   4  -4  -7   10.05    1.00 
   4  -4  -7   10.60    1.35 
   4  -4  -7   11.83    1.32 
   4   4  -7   13.04    1.32 
   4   4  -7    8.46    1.32 
  -4   4   7   10.24    1.07 
   4   4  -7   11.64    1.24 
  -4   4   7   10.15    1.36 
  -4   4   7    9.17    0.85 
   4   4  -7   10.86    1.00 
  -4   4   7   10.93    1.23 
   3  -4  -7  112.97    3.28 
   3  -4  -7  108.18    3.42 
   3  -4  -7  114.06    4.07 
  -3  -4   7  111.79    3.94 
  -3  -4   7  102.65    4.01 
   3  -4  -7  108.41    3.50 
  -3  -4   7  114.97    3.90 
   3  -4  -7  107.52    3.86 
  -3  -4   7  106.14    3.52 
   3  -4  -7  110.67    3.47 
   3   4  -7  109.90    4.11 
   3   4  -7  110.79    3.80 
  -3   4   7  110.34    3.34 
  -3   4   7  108.02    3.87 
   3   4  -7  108.66    3.90 
  -3   4   7  109.97    4.09 
  -3   4   7  108.12    3.57 
   3   4  -7  107.27    3.46 
  -2  -4   7    1.46    0.60 
   2  -4  -7    0.92    0.77 
  -2  -4   7    0.44    0.63 
   2  -4  -7    0.95    0.60 
   2  -4  -7    0.68    0.71 
  -2  -4   7    1.55    0.92 
   2  -4  -7    1.26    0.57 
   2  -4  -7    1.06    0.52 
   2  -4  -7    1.07    0.57 
  -2  -4   7    0.28    0.54 
  -2   4   7    1.53    0.75 
  -2   4   7    1.27    0.72 
   2   4  -7    0.61    0.78 
   2   4  -7    0.52    0.59 
   2   4  -7    0.18    0.61 
  -2   4   7    1.18    0.72 
   2   4  -7    1.24    0.76 
  -2   4   7    0.08    0.48 
  -1  -4   7   79.89    2.99 
   1  -4  -7   81.80    2.96 
   1  -4  -7   78.62    3.19 
   1  -4  -7   82.84    2.83 
  -1  -4   7   81.40    2.45 
   1  -4  -7   79.70    2.45 
  -1  -4   7   77.70    3.20 
   1  -4  -7   81.24    2.51 
   1  -4  -7   79.94    3.25 
  -1  -4   7   81.99    3.03 
  -1  -4   7   76.96    3.44 
  -1   4   7   76.99    3.11 
  -1   4   7   82.86    2.87 
  -1   4   7   82.01    3.33 
   1   4  -7   82.73    3.04 
  -1   4   7   78.60    2.99 
   1   4  -7   81.60    3.40 
   1   4  -7   75.71    3.20 
   1   4  -7   79.44    2.92 
   0  -4  -7    7.36    0.76 
   0  -4  -7    6.74    1.25 
   0  -4  -7    6.91    0.98 
   0  -4   7    7.54    1.10 
   0  -4   7    7.24    0.95 
   0  -4  -7    6.66    0.60 
   0  -4  -7    5.81    1.04 
   0  -4  -7    9.11    1.32 
   0  -4   7    5.65    0.99 
   0  -4   7    8.26    1.30 
   0  -4   7    6.53    0.83 
   0   4  -7    8.39    1.36 
   0   4  -7    5.37    1.05 
   0   4   7    7.67    1.16 
   0   4  -7    8.54    1.06 
   0   4   7    7.23    0.96 
   0   4   7    8.91    1.25 
   0   4  -7    7.52    1.17 
   0   4   7    6.26    1.08 
   1  -4   7  148.21    4.05 
   1  -4   7  147.54    4.78 
  -1  -4  -7  133.35    4.58 
  -1  -4  -7  145.50    4.44 
   1  -4   7  151.25    4.64 
  -1  -4  -7  141.85    4.57 
   1  -4   7  152.13    4.40 
  -1  -4  -7  146.30    4.86 
   1  -4   7  139.47    4.83 
  -1   4  -7  145.30    4.87 
  -1   4  -7  145.19    4.51 
  -1   4  -7  144.68    4.79 
   1   4   7  143.99    4.68 
   1   4   7  146.58    4.55 
   1   4   7  144.68    4.47 
  -1   4  -7  135.57    4.31 
   1   4   7  144.42    4.68 
  -2  -4  -7    0.02    0.72 
  -2  -4  -7    0.20    0.59 
   2  -4   7    0.64    0.57 
  -2  -4  -7    0.28    0.57 
   2  -4   7    0.88    0.52 
   2  -4   7   -0.35    0.60 
  -2  -4  -7    1.19    0.69 
   2  -4   7    0.58    0.67 
   2  -4   7   -0.16    0.61 
  -2   4  -7    1.32    0.68 
   2   4   7    1.06    0.73 
  -2   4  -7   -0.06    0.60 
  -2   4  -7    0.93    0.74 
   2   4   7    0.72    0.67 
   2   4   7    1.02    0.74 
   2   4   7   -0.33    0.51 
  -2   4  -7    1.04    0.69 
   3  -4   7   50.14    2.51 
   3  -4   7   50.67    2.51 
   3  -4   7   52.65    2.20 
  -3  -4  -7   45.75    2.33 
   3  -4   7   52.28    2.10 
   3  -4   7   51.08    2.53 
  -3  -4  -7   49.71    2.49 
   3  -4   7   51.06    2.21 
  -3  -4  -7   48.84    2.34 
  -3  -4  -7   49.38    2.39 
   3   4   7   53.14    2.49 
  -3   4  -7   50.09    2.19 
   3   4   7   50.41    2.42 
   3   4   7   49.54    2.46 
   3   4   7   45.90    2.34 
  -3   4  -7   50.25    2.56 
  -3   4  -7   49.30    2.45 
  -3   4  -7   50.88    2.54 
   4  -4   7    3.44    0.73 
   4  -4   7    2.73    0.73 
  -4  -4  -7    1.97    0.74 
  -4  -4  -7    3.84    0.88 
  -4  -4  -7    3.16    0.94 
  -4  -4  -7    3.53    1.03 
   4  -4   7    3.46    0.84 
   4  -4   7    2.73    0.93 
   4  -4   7    5.11    1.04 
   4  -4   7    3.04    0.94 
   4   4   7    3.27    0.82 
  -4   4  -7    4.63    0.83 
   4   4   7    3.80    0.95 
  -4   4  -7    4.55    1.06 
  -4   4  -7    3.36    0.99 
  -4   4  -7    3.59    1.01 
   4   4   7    2.53    0.89 
   5  -4   7   47.38    2.42 
  -5  -4  -7   42.78    2.39 
   5  -4   7   46.48    1.92 
   5  -4   7   49.71    2.35 
  -5  -4  -7   45.38    2.22 
  -5  -4  -7   45.90    2.39 
   5  -4   7   46.13    2.23 
  -5  -4  -7   46.88    2.18 
   5  -4   7   45.83    2.53 
  -5   4  -7   42.96    1.91 
   5   4   7   43.42    2.38 
  -5   4  -7   48.19    2.44 
   5   4   7   45.55    2.40 
  -5   4  -7   47.59    2.53 
  -6  -4  -7    3.22    0.88 
   6  -4   7    2.10    0.62 
  -6  -4  -7    2.06    0.90 
   6  -4   7    3.95    1.50 
   6  -4   7    2.52    1.08 
   6  -4   7    1.76    0.82 
  -6  -4  -7    2.03    0.71 
   6   4   7    2.09    0.79 
  -6   4  -7    2.77    0.91 
   6   4   7    3.39    1.05 
  -6   4  -7    2.19    0.60 
  -6   4  -7    2.95    0.93 
   7  -4   7    0.95    0.51 
  -7  -4  -7    1.84    0.79 
  -7  -4  -7    2.06    0.69 
   7  -4   7    1.68    0.72 
  -7  -4  -7    1.11    0.72 
   7  -4   7    1.17    0.94 
  -7   4  -7    1.18    0.51 
  -7   4  -7    0.31    0.68 
   7   4   7    2.18    0.86 
  -7   4  -7    3.07    0.87 
   8  -4   7    4.87    0.74 
   8  -4   7    5.02    1.28 
  -8  -4  -7    6.85    0.91 
  -8  -4  -7    4.15    1.08 
  -8  -4  -7    6.17    1.02 
   8  -4   7    4.26    1.22 
   8   4   7    6.89    1.45 
  -8   4  -7    5.00    1.07 
  -8   4  -7    4.20    0.66 
  -8   4  -7    4.50    1.14 
   8   4   7    6.72    1.26 
  -9  -4  -7   19.00    1.62 
   9  -4   7   20.42    1.80 
   9  -4   7   19.40    1.95 
  -9  -4  -7   17.93    1.10 
  -9  -4  -7   16.95    1.20 
  -9   4  -7   18.90    1.55 
   9   4   7   20.26    2.05 
   9   4   7   18.32    1.75 
  -9   4  -7   18.87    1.84 
  10  -4   7    5.91    1.38 
 -10  -4  -7    5.80    1.14 
  10  -4   7    4.64    1.53 
 -10   4  -7    5.05    1.30 
  10   4   7    5.71    1.49 
   9  -5  -7    2.65    0.91 
  -9  -5   7    1.04    0.71 
  -9   5   7    1.38    0.71 
   9   5  -7   -0.12    0.92 
  -9   5   7    0.17    0.85 
   9   5  -7    2.71    0.69 
   8  -5  -7   13.53    0.93 
   8  -5  -7   14.31    1.52 
  -8  -5   7   13.27    1.43 
   8  -5  -7   12.47    1.55 
  -8  -5   7   13.80    1.35 
  -8  -5   7   14.67    1.62 
   8   5  -7   15.40    1.34 
   8   5  -7   13.18    1.69 
   8   5  -7   17.53    1.29 
  -8   5   7   11.15    1.57 
  -8   5   7   13.36    0.98 
   7  -5  -7    8.98    1.44 
   7  -5  -7    7.08    0.74 
  -7  -5   7    5.09    1.20 
  -7  -5   7    9.12    1.24 
   7  -5  -7    5.76    1.28 
   7  -5  -7    6.52    0.78 
  -7  -5   7    7.99    1.34 
  -7   5   7    6.01    1.35 
   7   5  -7    7.25    1.06 
   7   5  -7    6.54    1.31 
  -7   5   7    6.52    0.85 
  -7   5   7    6.43    0.73 
   7   5  -7    9.47    1.38 
  -6  -5   7    2.89    0.90 
   6  -5  -7    3.43    0.69 
  -6  -5   7    2.06    0.84 
  -6  -5   7    3.43    0.95 
   6  -5  -7    1.83    0.83 
   6  -5  -7    3.05    0.65 
   6  -5  -7    2.52    1.01 
   6   5  -7    3.08    0.84 
   6   5  -7    2.72    1.18 
  -6   5   7    2.27    0.66 
   6   5  -7    4.12    1.00 
  -6   5   7    3.22    0.73 
  -6   5   7    2.82    1.14 
  -5  -5   7    4.28    0.97 
   5  -5  -7    3.00    0.97 
   5  -5  -7    3.35    0.91 
   5  -5  -7    5.31    0.84 
  -5  -5   7    3.33    1.06 
   5  -5  -7    4.98    1.23 
   5  -5  -7    4.62    0.96 
   5  -5  -7    4.34    0.76 
  -5   5   7    5.36    0.88 
   5   5  -7    4.37    0.93 
  -5   5   7    3.39    1.06 
  -5   5   7    2.70    0.74 
   5   5  -7    3.47    1.07 
   5   5  -7    5.36    1.14 
  -4  -5   7    8.44    1.27 
   4  -5  -7    7.38    1.22 
   4  -5  -7    7.70    0.89 
  -4  -5   7    9.45    1.50 
  -4  -5   7    8.49    1.13 
   4  -5  -7    7.13    0.98 
   4  -5  -7    7.07    0.87 
   4  -5  -7    7.30    1.23 
   4  -5  -7    7.36    1.13 
   4   5  -7    7.26    1.16 
  -4   5   7    8.92    0.98 
  -4   5   7    9.22    1.53 
   4   5  -7    8.46    1.18 
   4   5  -7    9.70    1.59 
  -4   5   7    7.85    1.04 
   3  -5  -7    9.58    1.34 
   3  -5  -7    9.00    0.97 
  -3  -5   7    9.77    1.18 
  -3  -5   7   10.63    1.64 
   3  -5  -7   10.95    1.35 
  -3  -5   7   10.49    1.36 
   3  -5  -7   10.87    1.06 
   3  -5  -7    9.89    1.00 
  -3  -5   7    9.81    1.20 
   3  -5  -7    8.96    1.02 
  -3   5   7    9.96    1.35 
   3   5  -7   11.13    1.60 
  -3   5   7    9.06    1.04 
   3   5  -7    9.89    1.32 
   3   5  -7   10.50    1.17 
   3   5  -7   10.90    1.25 
  -3   5   7   10.95    1.20 
  -2  -5   7   13.05    1.32 
   2  -5  -7   10.99    1.12 
   2  -5  -7   10.66    1.36 
   2  -5  -7   11.90    1.47 
   2  -5  -7   12.57    1.15 
   2  -5  -7   12.80    1.00 
  -2  -5   7   15.29    1.48 
  -2  -5   7   12.38    1.26 
   2  -5  -7   12.35    0.95 
  -2  -5   7   11.63    1.53 
   2   5  -7   13.08    1.45 
  -2   5   7   13.58    1.46 
   2   5  -7   11.78    1.26 
  -2   5   7   11.57    1.25 
   2   5  -7   13.41    1.53 
  -2   5   7   12.79    1.35 
  -2   5   7   10.89    1.15 
   2   5  -7   13.28    1.30 
  -1  -5   7    4.97    0.98 
   1  -5  -7    5.39    0.66 
  -1  -5   7    6.93    1.20 
   1  -5  -7    4.63    1.05 
  -1  -5   7    7.60    1.30 
   1  -5  -7    5.23    0.68 
   1  -5  -7    7.31    1.07 
   1  -5  -7    3.49    0.91 
  -1  -5   7    4.61    1.23 
  -1  -5   7    5.91    0.72 
   1  -5  -7    5.45    0.93 
   1   5  -7    5.04    1.10 
   1   5  -7    5.09    1.06 
  -1   5   7    5.00    1.00 
  -1   5   7    5.02    0.97 
  -1   5   7    4.37    0.94 
   1   5  -7    4.93    1.02 
   1   5  -7    8.22    1.39 
  -1   5   7    7.16    1.35 
   0  -5  -7    3.89    1.03 
   0  -5   7    3.80    0.61 
   0  -5   7    3.08    0.66 
   0  -5   7    2.80    0.81 
   0  -5  -7    4.38    0.54 
   0  -5   7    3.18    1.01 
   0  -5  -7    4.31    0.60 
   0  -5  -7    2.78    0.84 
   0  -5   7    3.90    0.97 
   0  -5   7    4.67    1.03 
   0  -5  -7    3.07    1.20 
   0  -5  -7    2.75    0.81 
   0   5  -7    4.06    0.96 
   0   5   7    7.65    1.19 
   0   5   7    3.44    0.96 
   0   5   7    5.84    1.12 
   0   5  -7    4.40    1.15 
   0   5  -7    3.37    0.89 
   0   5   7    3.70    0.87 
   0   5  -7    3.53    0.85 
   1  -5   7    2.13    0.61 
   1  -5   7    2.57    0.84 
   1  -5   7    1.82    0.57 
   1  -5   7    2.69    0.80 
   1  -5   7    2.78    0.93 
  -1  -5  -7    1.59    0.70 
  -1  -5  -7    1.68    0.76 
   1  -5   7    2.62    0.90 
  -1  -5  -7    3.76    1.04 
  -1  -5  -7    2.52    0.96 
   1   5   7    2.07    0.89 
   1   5   7    2.18    0.80 
  -1   5  -7    1.24    0.78 
   1   5   7    0.80    0.73 
  -1   5  -7    1.77    0.89 
   1   5   7    2.45    0.85 
  -1   5  -7    2.50    0.87 
  -1   5  -7    2.70    0.80 
   2  -5   7    8.88    0.93 
  -2  -5  -7    8.88    1.21 
   2  -5   7    9.82    0.94 
   2  -5   7   10.81    1.36 
  -2  -5  -7   11.67    1.71 
  -2  -5  -7    9.55    1.28 
  -2  -5  -7    9.35    1.15 
   2  -5   7   11.50    1.76 
   2  -5   7    9.95    1.35 
   2  -5   7    9.36    1.01 
  -2   5  -7   10.30    1.34 
  -2   5  -7    7.79    1.26 
  -2   5  -7    9.36    1.36 
   2   5   7   10.71    1.26 
   2   5   7    9.79    1.26 
  -2   5  -7   10.75    1.40 
   2   5   7    8.76    1.14 
   2   5   7   10.66    1.28 
  -3  -5  -7    4.46    1.14 
   3  -5   7    4.67    0.88 
   3  -5   7    5.98    0.93 
   3  -5   7    5.34    1.16 
  -3  -5  -7    4.30    1.05 
  -3  -5  -7    5.46    1.14 
   3  -5   7    6.54    1.34 
   3  -5   7    6.50    0.99 
   3   5   7    7.71    1.29 
  -3   5  -7    6.00    1.22 
   3   5   7    6.77    1.23 
   3   5   7    5.04    0.97 
   3   5   7    6.43    1.21 
  -3   5  -7    7.65    1.39 
   4  -5   7    8.31    1.20 
   4  -5   7    8.78    1.39 
  -4  -5  -7    6.85    1.29 
   4  -5   7    9.56    1.56 
  -4  -5  -7    7.87    1.09 
  -4  -5  -7    8.83    1.46 
   4  -5   7    7.88    0.87 
   4  -5   7    7.80    1.02 
  -4   5  -7    5.75    1.16 
  -4   5  -7    8.34    0.97 
   4   5   7    8.90    1.40 
  -4   5  -7    6.56    1.21 
   4   5   7   11.03    1.60 
   4   5   7    8.09    1.20 
  -5  -5  -7    2.07    0.84 
   5  -5   7    0.80    0.51 
  -5  -5  -7    0.28    0.63 
   5  -5   7    1.70    0.92 
   5  -5   7    1.39    0.78 
   5  -5   7    0.63    0.62 
  -5  -5  -7    0.92    0.76 
   5   5   7    1.11    0.82 
  -5   5  -7    0.63    0.71 
   5   5   7   -0.30    0.64 
  -5   5  -7    0.92    0.74 
  -5   5  -7    2.33    0.59 
   5   5   7    3.31    0.95 
   6  -5   7    1.25    0.77 
  -6  -5  -7    2.02    0.75 
  -6  -5  -7    2.75    0.92 
   6  -5   7    2.08    0.56 
  -6  -5  -7    3.06    1.11 
   6  -5   7    1.76    0.98 
   6   5   7    1.20    0.74 
  -6   5  -7    1.69    0.52 
  -6   5  -7    4.29    1.09 
  -6   5  -7    1.68    0.74 
  -7  -5  -7    2.41    0.81 
   7  -5   7    3.94    1.09 
  -7  -5  -7    2.70    0.73 
  -7  -5  -7    1.93    0.79 
   7  -5   7    2.24    1.07 
  -7   5  -7    3.91    1.04 
   7   5   7    3.02    0.96 
  -7   5  -7    0.90    0.88 
  -8  -5  -7   20.74    1.68 
  -8  -5  -7   19.61    1.38 
   8  -5   7   20.82    1.98 
   8  -5   7   21.87    1.84 
  -8  -5  -7   20.92    1.53 
   8   5   7   20.45    1.81 
  -8   5  -7   20.14    1.71 
  -8   5  -7   19.71    1.90 
  -9  -5  -7    1.12    0.72 
  -9  -5  -7    1.14    0.78 
   9  -5   7    3.45    1.08 
  -9  -5  -7    2.32    0.62 
   9  -5   7    1.29    1.61 
  -9   5  -7    0.66    0.94 
  -9   5  -7    1.50    1.42 
  -8  -6   7    0.23    0.75 
   8  -6  -7    0.32    0.50 
  -8  -6   7    0.88    0.80 
   8  -6  -7    0.39    0.75 
   8   6  -7   -0.24    0.80 
  -8   6   7    1.37    0.85 
   7  -6  -7    1.33    0.59 
  -7  -6   7    1.09    0.77 
  -7  -6   7    1.08    0.81 
   7  -6  -7    2.14    0.87 
   7  -6  -7    0.85    0.87 
  -7  -6   7    0.50    0.62 
   7   6  -7    0.51    0.92 
  -7   6   7    0.18    0.86 
  -7   6   7    1.24    0.66 
   7   6  -7    1.33    0.84 
   6  -6  -7   10.43    1.46 
   6  -6  -7   10.62    1.44 
  -6  -6   7    8.08    1.27 
  -6  -6   7   11.90    1.40 
   6  -6  -7   10.19    1.03 
  -6  -6   7   10.40    1.32 
  -6   6   7   11.94    0.90 
   6   6  -7   12.02    1.65 
  -6   6   7   12.76    1.87 
   6   6  -7    9.42    1.51 
  -6   6   7    9.56    1.13 
   5  -6  -7    4.77    0.92 
   5  -6  -7    3.89    0.81 
   5  -6  -7    7.54    1.25 
  -5  -6   7    3.08    0.95 
   5  -6  -7    2.77    0.62 
   5  -6  -7    3.50    1.07 
  -5  -6   7    3.01    0.89 
  -5  -6   7    2.05    0.91 
  -5   6   7    3.74    0.88 
   5   6  -7    2.48    0.82 
  -5   6   7    2.94    0.79 
   5   6  -7    7.49    1.43 
  -5   6   7    3.61    1.13 
   4  -6  -7    5.92    1.01 
  -4  -6   7    5.88    1.24 
   4  -6  -7    5.14    0.82 
  -4  -6   7    4.25    1.05 
   4  -6  -7    7.24    0.97 
   4  -6  -7    5.24    0.95 
   4  -6  -7    4.74    1.27 
   4  -6  -7    3.67    0.95 
   4   6  -7    3.15    1.12 
   4   6  -7    4.90    1.13 
  -4   6   7    3.78    0.88 
  -4   6   7    4.24    0.90 
   3  -6  -7    7.66    0.97 
  -3  -6   7    7.94    1.25 
   3  -6  -7    8.29    1.07 
  -3  -6   7    7.83    1.39 
  -3  -6   7   10.98    1.61 
   3  -6  -7   13.35    1.46 
   3  -6  -7    8.58    0.98 
   3  -6  -7    7.40    1.43 
   3  -6  -7    8.17    0.97 
  -3   6   7    9.48    1.18 
  -3   6   7   11.50    1.23 
  -3   6   7    9.59    1.63 
   3   6  -7    8.32    1.46 
   3   6  -7    8.56    1.46 
  -2  -6   7    1.08    0.77 
  -2  -6   7    1.61    0.77 
   2  -6  -7    2.29    0.71 
   2  -6  -7    0.13    0.77 
  -2  -6   7    0.98    0.74 
   2  -6  -7    4.00    0.68 
   2  -6  -7    2.00    0.58 
   2  -6  -7    1.68    0.79 
   2  -6  -7    2.54    0.94 
  -2   6   7    1.90    0.74 
  -2   6   7    0.82    0.78 
  -2   6   7    1.10    0.75 
   2   6  -7    1.87    0.85 
   2   6  -7    0.52    0.79 
   1  -6  -7   13.69    0.89 
   1  -6  -7   14.11    1.57 
  -1  -6   7   13.11    1.52 
   1  -6  -7   12.85    1.63 
   1  -6  -7   15.22    0.93 
   1  -6  -7   15.17    1.31 
  -1  -6   7   16.81    1.42 
   1  -6  -7   16.39    1.42 
  -1  -6   7   17.02    1.58 
  -1   6   7   15.50    1.37 
   1   6  -7   13.84    1.37 
   1   6  -7   13.31    1.57 
  -1   6   7   13.03    1.37 
  -1   6   7   15.49    1.66 
   1   6  -7   15.49    1.64 
   0  -6  -7   14.50    1.52 
   0  -6  -7   12.54    1.35 
   0  -6   7    7.58    1.19 
   0  -6   7   10.56    1.54 
   0  -6  -7    8.25    1.10 
   0  -6   7   11.67    1.72 
   0  -6   7    9.23    0.73 
   0  -6   7    8.80    0.79 
   0  -6  -7    8.45    1.49 
   0   6   7    9.77    1.37 
   0   6  -7    9.40    1.52 
   0   6   7   11.21    1.33 
   0   6  -7    9.94    1.39 
   0   6   7    7.16    1.35 
   0   6  -7    9.04    1.17 
  -1  -6  -7   15.36    1.49 
   1  -6   7   15.23    1.04 
   1  -6   7   15.87    1.60 
   1  -6   7   15.46    1.29 
  -1  -6  -7   14.44    1.67 
   1  -6   7   15.54    1.07 
  -1  -6  -7   14.57    1.51 
   1  -6   7   16.89    1.68 
  -1   6  -7   15.40    1.64 
  -1   6  -7   14.53    1.60 
   1   6   7   14.96    1.45 
   1   6   7   14.86    1.62 
  -1   6  -7   14.48    1.33 
   2  -6   7    5.41    1.19 
   2  -6   7    5.73    1.33 
   2  -6   7    6.32    0.90 
  -2  -6  -7    5.27    1.29 
  -2  -6  -7    5.22    1.19 
   2  -6   7    6.25    0.95 
  -2  -6  -7    4.75    1.09 
  -2   6  -7    5.21    1.25 
   2   6   7    5.72    1.15 
  -2   6  -7    5.98    1.02 
  -2   6  -7    4.98    1.13 
   2   6   7    5.40    1.33 
  -3  -6  -7   10.60    1.40 
   3  -6   7    8.39    1.00 
  -3  -6  -7   10.41    1.53 
   3  -6   7    8.44    0.95 
   3  -6   7    7.62    0.98 
   3  -6   7    8.16    1.51 
   3  -6   7   12.62    1.50 
  -3  -6  -7    8.43    1.36 
  -3   6  -7    8.00    1.45 
  -3   6  -7   10.05    1.14 
   3   6   7   11.03    1.62 
  -3   6  -7   10.27    1.62 
   4  -6   7    9.42    1.59 
   4  -6   7    9.39    1.15 
   4  -6   7   10.14    1.16 
  -4  -6  -7   11.63    1.51 
  -4  -6  -7   11.56    1.36 
   4  -6   7    9.81    0.96 
  -4   6  -7   11.46    1.07 
  -4   6  -7   12.01    1.54 
   4   6   7    9.53    1.36 
   4   6   7   10.64    1.34 
  -4   6  -7   13.64    1.91 
   5  -6   7   10.12    1.61 
  -5  -6  -7   11.22    1.33 
  -5  -6  -7   11.89    1.58 
   5  -6   7   11.22    1.30 
   5  -6   7   12.66    0.97 
  -5  -6  -7   14.38    1.46 
  -5   6  -7   13.65    1.63 
  -5   6  -7   10.97    1.61 
   5   6   7   11.03    1.39 
   5   6   7   11.09    1.42 
  -5   6  -7   11.54    0.99 
  -6  -6  -7    2.19    0.79 
   6  -6   7    2.77    0.94 
  -6  -6  -7    2.87    0.92 
   6  -6   7    3.13    1.20 
  -6  -6  -7    2.93    1.13 
   6   6   7    2.81    0.96 
  -6   6  -7    2.04    0.98 
   6   6   7    2.37    0.86 
  -6   6  -7    2.58    1.02 
  -7  -6  -7   -0.52    0.54 
  -7  -6  -7    0.22    0.77 
   7  -6   7    0.06    0.75 
  -7  -6  -7   -0.91    0.76 
   7  -6   7    2.15    0.97 
  -7  -6  -7    1.35    0.73 
   7   6   7    0.56    0.79 
  -7   6  -7   -0.19    0.71 
  -7   6  -7   -0.68    0.73 
  -8  -6  -7    0.03    0.77 
   8  -6   7    0.54    0.81 
  -8  -6  -7    0.11    0.54 
  -6  -7   7    3.88    1.18 
   6  -7  -7    1.85    0.81 
   6  -7  -7    1.92    0.74 
   6   7  -7    1.99    1.02 
  -6   7   7    1.37    1.03 
  -5  -7   7    5.43    1.24 
   5  -7  -7    6.14    1.07 
  -5  -7   7    3.71    1.13 
   5  -7  -7    5.19    1.08 
   5  -7  -7    3.71    1.07 
   5   7  -7    5.21    1.26 
   5   7  -7    6.40    1.40 
  -5   7   7    4.64    0.87 
  -5   7   7    7.24    0.77 
  -5   7   7    5.86    1.32 
   4  -7  -7    3.05    1.05 
   4  -7  -7    5.84    1.03 
   4  -7  -7    1.48    0.74 
  -4  -7   7    3.43    0.94 
  -4  -7   7    1.65    0.96 
  -4  -7   7    1.21    0.92 
   4  -7  -7    1.46    0.77 
  -4   7   7    2.97    0.68 
  -4   7   7    3.79    1.31 
   4   7  -7    3.28    1.18 
   4   7  -7    2.29    1.11 
  -4   7   7    2.93    0.78 
   3  -7  -7    0.76    0.61 
   3  -7  -7    3.37    1.22 
  -3  -7   7    1.21    0.94 
  -3  -7   7    1.57    0.81 
  -3  -7   7    1.60    0.90 
   3  -7  -7    0.75    0.76 
   3  -7  -7    2.02    0.71 
   3  -7  -7    0.86    0.89 
  -3   7   7    1.12    0.96 
  -3   7   7    0.53    0.79 
   3   7  -7    0.65    0.85 
   3   7  -7    4.60    1.21 
  -2  -7   7    1.63    0.98 
   2  -7  -7   -0.12    0.83 
   2  -7  -7    0.82    0.89 
   2  -7  -7    0.81    0.53 
   2  -7  -7    2.33    0.61 
   2  -7  -7    2.74    0.95 
  -2  -7   7    3.09    0.99 
   2   7  -7    2.29    0.92 
   2   7  -7    2.45    1.02 
  -2   7   7    1.30    0.80 
  -2   7   7    2.16    1.17 
   1  -7  -7    3.34    0.58 
  -1  -7   7    4.39    1.10 
   1  -7  -7    3.51    1.10 
  -1  -7   7    2.31    1.03 
   1  -7  -7    2.17    1.07 
   1  -7  -7    1.04    0.80 
  -1  -7   7    3.98    1.21 
   1  -7  -7    2.32    0.56 
  -1   7   7    1.57    0.86 
   1   7  -7    1.42    0.98 
  -1   7   7    3.86    1.26 
   1   7  -7    2.39    0.96 
   0  -7  -7    2.20    1.02 
   0  -7  -7    6.82    1.27 
   0  -7   7    2.77    0.85 
   0  -7  -7    2.44    1.23 
   0  -7   7    3.84    1.12 
   0  -7   7    1.93    1.08 
   0   7  -7    2.54    0.93 
   0   7  -7    3.57    1.13 
   0   7   7    2.42    0.94 
   0   7   7    2.52    1.09 
  -1  -7  -7    0.80    0.94 
   1  -7   7    1.62    0.54 
  -1  -7  -7    0.63    0.79 
   1  -7   7    1.25    0.90 
   1  -7   7    1.76    0.59 
  -1  -7  -7    2.04    0.92 
   1  -7   7    0.05    0.58 
   1  -7   7    0.08    0.91 
  -1   7  -7    1.53    0.88 
  -1   7  -7    0.65    0.95 
   1   7   7    0.33    0.84 
   1   7   7    0.79    0.75 
  -1   7  -7    0.05    0.66 
   2  -7   7    0.39    0.80 
   2  -7   7    1.50    0.61 
   2  -7   7    2.17    0.99 
   2  -7   7    0.96    0.54 
  -2  -7  -7    0.95    0.92 
  -2  -7  -7    1.40    0.94 
  -2  -7  -7    1.89    0.89 
   2  -7   7    1.30    0.72 
  -2   7  -7    1.19    0.91 
  -2   7  -7   -0.27    0.67 
   2   7   7    1.94    0.93 
  -2   7  -7    0.22    0.70 
   2   7   7    2.36    1.07 
   3  -7   7    2.16    0.79 
   3  -7   7    3.14    0.75 
   3  -7   7    1.59    0.70 
  -3  -7  -7    2.90    1.03 
   3  -7   7    1.96    0.97 
  -3  -7  -7    1.65    1.05 
  -3   7  -7    1.22    0.86 
  -3   7  -7    1.72    0.96 
  -3   7  -7    2.10    0.88 
   3   7   7    1.50    0.97 
   3   7   7    1.50    0.82 
   4  -7   7    1.95    0.80 
  -4  -7  -7   -0.89    0.91 
   4  -7   7    1.87    0.96 
  -4  -7  -7    5.77    1.31 
   4  -7   7    1.25    0.61 
  -4  -7  -7    2.32    0.86 
  -4   7  -7    2.42    0.71 
  -4   7  -7    1.26    0.87 
   4   7   7    1.67    0.93 
   4   7   7    2.08    0.89 
  -4   7  -7    0.93    0.79 
  -5  -7  -7    2.19    0.90 
   5  -7   7    1.18    0.77 
  -5  -7  -7   -0.39    0.91 
   5   7   7    1.80    1.46 
  -5   7  -7    0.40    0.87 
  -5   7  -7    1.56    0.88 
   5   7   7    1.33    0.87 
   6  -7   7    0.49    0.69 
  -6  -7  -7    0.65    0.66 
  -6  -7  -7    2.34    0.94 
  -6   7  -7    1.32    0.94 
   3  -8  -7   14.67    1.81 
  -3  -8   7   14.72    1.74 
   3  -8  -7   13.92    1.51 
  -3  -8   7   14.58    1.54 
   3  -8  -7   15.08    1.18 
   3   8  -7   13.01    1.70 
  -3   8   7   18.70    2.01 
  -3   8   7   13.24    1.39 
   2  -8  -7    0.45    0.80 
  -2  -8   7    0.90    0.85 
  -2  -8   7    0.49    0.69 
   2  -8  -7    2.09    0.55 
   2  -8  -7    2.01    1.23 
   2  -8  -7    0.32    1.12 
   2   8  -7    2.73    1.08 
   2   8  -7    1.07    0.93 
  -2   8   7    1.20    0.82 
   1  -8  -7   10.76    1.47 
   1  -8  -7   11.56    1.88 
   1  -8  -7   12.56    2.07 
  -1  -8   7   12.63    1.84 
  -1  -8   7    8.86    1.85 
  -1  -8   7   12.08    1.40 
   1   8  -7   14.16    1.78 
   1   8  -7   13.64    1.66 
  -1   8   7   11.99    1.38 
  -1   8   7    8.81    1.52 
   0  -8  -7   -0.41    0.95 
   0  -8  -7    0.53    0.89 
   0  -8  -7    1.11    0.86 
   0  -8   7    0.50    0.85 
   0  -8   7    1.96    1.09 
   0  -8   7    3.14    0.83 
   0   8   7    1.53    0.93 
   0   8  -7   -0.30    0.73 
   0   8   7    1.29    0.89 
   0   8  -7    1.26    0.91 
   1  -8   7   23.54    2.16 
   1  -8   7   28.79    4.11 
  -1  -8  -7   22.11    1.96 
  -1  -8  -7   21.14    1.92 
   1  -8   7   22.13    1.58 
   1  -8   7   20.99    1.14 
  -1   8  -7   20.04    2.06 
   1   8   7   21.78    2.07 
  -1   8  -7   19.53    1.95 
   1   8   7   23.66    1.83 
  -2  -8  -7    1.51    0.91 
   2  -8   7    0.65    0.58 
  -2  -8  -7    1.59    0.88 
   2  -8   7    1.77    0.60 
  -2   8  -7    0.52    0.88 
  -2   8  -7    0.68    0.80 
   2   8   7    0.34    0.71 
   2   8   7   -0.71    1.01 
   3  -8   7    7.55    0.96 
   3  -8   7    8.56    1.08 
  -3  -8  -7   12.08    1.52 
  -3   8  -7    7.70    1.60 
  11   0  -8   24.30    1.60 
  11   0  -8   22.93    1.70 
  11   0  -8   24.29    2.27 
 -11   0   8   22.77    1.71 
 -10   0   8    1.51    0.72 
  10   0  -8    3.54    0.92 
  10   0  -8    1.17    0.74 
  10   0  -8    0.69    0.96 
  -9   0   8   12.35    1.27 
   9   0  -8   12.84    1.26 
   9   0  -8   12.32    1.28 
  -9   0   8   14.90    1.32 
   9   0  -8    9.90    1.53 
   8   0  -8    5.33    1.11 
   8   0  -8    6.87    1.09 
  -8   0   8    2.96    0.82 
   8   0  -8    4.63    1.19 
  -8   0   8    5.82    0.96 
   8   0  -8    4.16    0.92 
   7   0  -8   39.61    2.38 
   7   0  -8   49.32    2.96 
   7   0  -8   43.73    2.23 
   7   0  -8   39.32    2.16 
  -7   0   8   41.68    2.02 
  -7   0   8   44.27    2.19 
   7   0  -8   41.69    2.05 
   6   0  -8   10.43    1.23 
  -6   0   8    8.60    0.99 
   6   0  -8    8.68    1.44 
  -6   0   8   12.21    1.36 
   6   0  -8    8.77    1.06 
   6   0  -8    7.21    1.17 
   6   0  -8    8.43    1.19 
  -6   0   8    9.76    1.13 
   5   0  -8    6.72    1.06 
  -5   0   8    6.37    1.05 
   5   0  -8    5.39    0.91 
   5   0  -8    5.50    1.04 
   5   0  -8    4.87    0.93 
  -5   0   8    7.88    0.91 
  -5   0   8    4.08    0.79 
   5   0  -8    5.81    1.12 
   4   0  -8    8.41    1.31 
  -4   0   8    8.53    0.94 
   4   0  -8    8.50    1.16 
  -4   0   8    8.81    1.21 
   4   0  -8    8.50    1.07 
   4   0  -8    8.72    1.19 
   4   0  -8   10.58    1.47 
  -4   0   8    8.61    1.28 
  -3   0   8   27.14    1.67 
  -3   0   8   28.29    1.55 
   3   0  -8   28.94    1.85 
   3   0  -8   26.32    1.77 
   3   0  -8   29.67    1.94 
  -3   0   8   27.04    0.92 
  -3   0   8   27.09    0.95 
   3   0  -8   29.58    1.75 
  -3   0   8   25.56    1.68 
   3   0  -8   26.85    1.68 
  -2   0   8   11.99    0.77 
   2   0  -8   13.99    1.36 
   2   0  -8   13.75    1.28 
   2   0  -8   10.57    1.32 
  -2   0   8   13.17    1.11 
   2   0  -8   11.60    1.26 
  -2   0   8   12.83    0.79 
  -2   0   8   13.26    1.21 
  -2   0   8   12.57    1.20 
   1   0  -8   33.29    1.81 
   1   0  -8   33.12    1.97 
  -1   0   8   35.30    1.86 
  -1   0   8   34.56    1.44 
   1   0  -8   33.68    1.85 
   1   0  -8   33.65    1.89 
  -1   0   8   34.91    1.90 
  -1   0   8   34.98    1.79 
  -1   0   8   34.94    1.45 
   0   0   8   23.95    1.51 
   0   0   8   21.77    1.43 
   0   0   8   21.69    1.25 
   0   0  -8   22.17    1.51 
   0   0  -8   23.83    1.54 
   0   0   8   22.36    1.53 
   0   0   8   26.23    1.33 
   0   0  -8   22.18    1.48 
   0   0  -8   22.32    1.61 
  -1   0  -8   48.54    2.32 
   1   0   8   47.08    2.24 
   1   0   8   48.09    2.00 
  -1   0  -8   45.36    2.18 
  -1   0  -8   46.09    2.07 
   1   0   8   48.13    2.32 
  -1   0  -8   45.57    2.18 
   1   0   8   49.47    2.05 
   1   0   8   47.07    2.24 
   1   0   8   49.74    2.17 
  -2   0  -8   21.54    1.37 
   2   0   8   21.88    1.43 
   2   0   8   20.74    1.61 
  -2   0  -8   22.12    1.55 
  -2   0  -8   19.32    1.46 
   2   0   8   22.40    1.55 
   2   0   8   21.06    1.53 
   2   0   8   24.05    1.63 
  -2   0  -8   24.40    1.64 
   2   0   8   23.01    1.49 
   3   0   8   13.72    1.29 
   3   0   8   14.41    1.29 
   3   0   8   13.29    1.24 
   3   0   8   11.13    1.28 
  -3   0  -8   13.52    1.20 
  -3   0  -8   12.17    1.26 
   3   0   8   11.64    1.11 
  -3   0  -8   12.17    1.08 
  -3   0  -8   12.35    1.23 
   3   0   8   12.12    1.24 
  -4   0  -8    2.65    0.83 
   4   0   8    2.31    0.86 
   4   0   8    2.45    0.80 
  -4   0  -8    2.93    0.73 
   4   0   8    3.36    0.78 
  -4   0  -8    2.25    0.77 
  -4   0  -8    3.76    0.76 
   4   0   8    2.10    0.75 
   4   0   8    3.13    0.90 
   4   0   8    0.95    0.65 
  -5   0  -8   25.99    1.52 
   5   0   8   24.25    1.69 
   5   0   8   23.73    1.67 
   5   0   8   28.19    1.91 
  -5   0  -8   24.82    1.74 
  -5   0  -8   23.35    1.61 
   5   0   8   27.25    1.53 
  -5   0  -8   24.46    1.63 
   5   0   8   26.06    1.82 
  -6   0  -8    6.59    1.00 
   6   0   8    5.55    1.20 
  -6   0  -8    6.75    1.06 
   6   0   8    6.45    1.20 
   6   0   8    7.57    0.97 
   6   0   8    4.34    0.91 
  -6   0  -8    6.82    1.23 
  -6   0  -8    7.79    1.04 
   6   0   8    5.44    1.04 
  -6   0  -8    6.06    0.98 
   7   0   8   18.44    1.77 
  -7   0  -8   17.98    1.36 
   7   0   8   20.95    1.43 
  -7   0  -8   15.72    1.31 
  -7   0  -8   14.40    1.33 
  -7   0  -8   16.80    1.51 
  -7   0  -8   19.19    1.38 
  -8   0  -8   -0.39    0.44 
  -8   0  -8    1.08    0.66 
  -8   0  -8    1.55    0.68 
  -8   0  -8    0.93    0.75 
   8   0   8    0.88    0.98 
   8   0   8    0.84    0.64 
   8   0   8    0.80    0.66 
  -8   0  -8    1.22    0.58 
   9   0   8   12.39    1.37 
  -9   0  -8    8.90    1.17 
  -9   0  -8   12.25    1.10 
   9   0   8   11.93    1.27 
   9   0   8   14.37    2.04 
  -9   0  -8   10.52    1.40 
  -9   0  -8   12.03    1.02 
 -10   0  -8    9.03    1.23 
 -10   0  -8    9.46    0.83 
 -10   0  -8    7.92    0.86 
  10   0   8    9.67    1.67 
  10   0   8    8.72    1.34 
  11   0   8    7.92    1.30 
  11   0   8    6.99    1.56 
  11   0   8    9.58    1.63 
 -11   0  -8    8.30    1.34 
 -11  -1   8    1.61    0.84 
  11  -1  -8    2.72    0.96 
  11   1  -8    4.17    0.91 
 -11   1   8    1.60    0.70 
  11   1  -8    3.04    0.86 
  11   1  -8    1.20    1.18 
  10  -1  -8   17.69    1.85 
  10  -1  -8   16.00    1.48 
 -10  -1   8   15.39    1.49 
  10  -1  -8   14.78    1.36 
 -10  -1   8   14.10    1.30 
  10   1  -8   12.61    1.67 
  10   1  -8   13.05    1.22 
  10   1  -8   14.33    1.28 
 -10   1   8   14.12    1.34 
   9  -1  -8    5.48    1.10 
   9  -1  -8    6.07    1.25 
  -9  -1   8    4.28    0.90 
   9  -1  -8    8.75    1.21 
   9  -1  -8    6.55    1.45 
  -9  -1   8    5.81    1.14 
  -9   1   8    5.03    0.93 
   9   1  -8    5.09    1.02 
   9   1  -8    5.64    1.34 
   9   1  -8    6.58    1.05 
   8  -1  -8   15.88    1.42 
  -8  -1   8   13.31    1.37 
   8  -1  -8   12.57    1.42 
  -8  -1   8   13.84    1.15 
   8  -1  -8   13.59    1.35 
   8  -1  -8   15.92    1.63 
  -8   1   8   13.89    1.35 
   8   1  -8   13.01    1.29 
  -8   1   8   14.68    1.29 
   8   1  -8   15.01    1.67 
   8   1  -8   15.02    1.22 
   7  -1  -8   17.80    1.45 
   7  -1  -8   20.61    1.69 
  -7  -1   8   18.56    1.24 
   7  -1  -8   17.68    1.50 
   7  -1  -8   18.33    1.64 
  -7  -1   8   19.64    1.54 
   7   1  -8   17.08    1.50 
  -7   1   8   19.49    1.45 
   7   1  -8   16.18    1.43 
  -7   1   8   16.81    1.38 
   7   1  -8   17.51    1.74 
   7   1  -8   18.48    1.30 
   6  -1  -8   17.74    1.46 
   6  -1  -8   14.63    1.46 
  -6  -1   8   17.34    1.44 
  -6  -1   8   17.24    1.17 
  -6  -1   8   18.40    1.63 
   6  -1  -8   16.89    1.57 
   6  -1  -8   17.07    1.41 
   6  -1  -8   18.76    1.54 
   6   1  -8   15.29    1.40 
  -6   1   8   18.21    1.39 
   6   1  -8   17.86    1.73 
   6   1  -8   18.70    1.46 
   6   1  -8   15.44    1.45 
  -6   1   8   17.68    1.36 
   6   1  -8   20.40    1.35 
  -5  -1   8   10.46    1.31 
   5  -1  -8   12.44    1.38 
  -5  -1   8   10.34    1.20 
   5  -1  -8   14.19    1.39 
  -5  -1   8   12.14    1.01 
   5  -1  -8   10.38    1.17 
   5  -1  -8   10.26    1.23 
   5  -1  -8   10.77    1.28 
  -5   1   8   12.01    1.15 
   5   1  -8   11.75    1.14 
  -5   1   8   12.87    1.19 
   5   1  -8   11.43    1.52 
   5   1  -8   13.30    1.33 
   5   1  -8   12.56    1.31 
  -5   1   8   11.37    1.32 
   5   1  -8   12.41    1.25 
   4  -1  -8   17.58    1.46 
   4  -1  -8   17.51    1.45 
  -4  -1   8   18.68    1.53 
   4  -1  -8   18.43    1.56 
   4  -1  -8   19.36    1.55 
  -4  -1   8   17.76    1.41 
  -4  -1   8   19.34    1.59 
  -4  -1   8   18.30    1.17 
  -4  -1   8   17.69    0.73 
   4  -1  -8   17.59    1.42 
   4   1  -8   19.19    1.78 
  -4   1   8   18.03    1.40 
   4   1  -8   17.09    1.40 
  -4   1   8   18.44    1.36 
   4   1  -8   18.93    1.42 
   4   1  -8   19.16    1.51 
  -4   1   8   17.55    1.41 
   4   1  -8   17.84    0.74 
   3  -1  -8   14.12    1.43 
  -3  -1   8   16.34    1.34 
  -3  -1   8   16.72    1.13 
  -3  -1   8   14.30    0.79 
   3  -1  -8   15.71    1.37 
  -3  -1   8   16.61    1.44 
   3  -1  -8   17.09    1.39 
   3  -1  -8   16.20    1.34 
   3   1  -8   13.65    1.23 
  -3   1   8   13.53    0.63 
  -3   1   8   18.12    1.35 
   3   1  -8   15.95    1.42 
   3   1  -8   17.06    1.39 
   3   1  -8   14.35    1.57 
  -3   1   8   19.23    1.36 
  -3   1   8   18.28    1.39 
  -3   1   8   15.27    0.65 
   3   1  -8   16.71    0.87 
  -2  -1   8   26.00    1.78 
  -2  -1   8   26.83    1.45 
   2  -1  -8   23.56    1.70 
   2  -1  -8   27.38    1.81 
   2  -1  -8   25.64    1.69 
  -2  -1   8   25.21    1.63 
   2  -1  -8   28.77    1.78 
  -2  -1   8   24.62    1.17 
   2  -1  -8   24.78    1.58 
  -2  -1   8   28.19    1.78 
  -2   1   8   25.51    1.61 
  -2   1   8   23.97    1.51 
   2   1  -8   26.18    1.50 
   2   1  -8   26.92    1.23 
   2   1  -8   25.67    1.73 
   2   1  -8   24.90    1.77 
  -2   1   8   25.47    1.63 
  -2   1   8   26.12    1.11 
  -2   1   8   26.30    1.12 
  -1  -1   8    7.24    1.15 
   1  -1  -8    6.05    0.88 
   1  -1  -8    7.69    1.31 
   1  -1  -8    5.13    0.99 
  -1  -1   8    8.56    1.29 
  -1  -1   8    6.60    1.22 
   1  -1  -8    6.28    1.17 
   1  -1  -8    5.76    1.10 
  -1  -1   8    5.42    0.71 
  -1  -1   8    6.36    0.98 
  -1   1   8    6.30    0.96 
  -1   1   8    5.17    0.90 
   1   1  -8    5.08    0.92 
  -1   1   8    4.92    0.90 
   1   1  -8    5.75    0.87 
   1   1  -8    5.79    1.11 
   1   1  -8    3.93    0.79 
   1   1  -8    7.06    0.88 
  -1   1   8    5.61    0.71 
  -1   1   8    5.84    0.76 
   0  -1   8   49.48    2.12 
   0  -1   8   48.22    1.95 
   0  -1  -8   47.07    2.23 
   0  -1   8   47.14    2.22 
   0  -1  -8   46.60    2.36 
   0  -1  -8   44.84    2.31 
   0  -1  -8   48.88    2.06 
   0  -1   8   46.17    2.25 
   0  -1  -8   48.35    2.30 
   0   1  -8   46.83    1.93 
   0   1   8   46.48    1.89 
   0   1  -8   49.33    2.25 
   0   1   8   46.23    1.97 
   0   1  -8   42.99    2.27 
   0   1  -8   47.89    2.09 
   0   1   8   49.92    2.27 
   0   1   8   49.31    1.93 
   0   1   8   48.88    2.26 
   0   1  -8   50.38    2.28 
   1  -1   8    1.38    0.80 
   1  -1   8    2.17    0.90 
   1  -1   8    2.08    0.70 
  -1  -1  -8    1.36    0.71 
  -1  -1  -8    1.66    0.80 
  -1  -1  -8    2.28    0.82 
  -1  -1  -8    1.73    0.72 
   1  -1   8    1.90    0.83 
   1  -1   8    2.38    0.71 
  -1  -1  -8    2.31    0.66 
  -1   1  -8    1.85    0.76 
  -1   1  -8    1.30    0.60 
  -1   1  -8    1.37    0.63 
   1   1   8    1.86    0.60 
  -1   1  -8    2.14    0.69 
   1   1   8    2.02    0.61 
   1   1   8    2.13    0.67 
   1   1   8    4.11    0.91 
  -1   1  -8    1.95    0.61 
   1   1   8    1.56    0.65 
   2  -1   8   15.66    1.35 
  -2  -1  -8   15.10    1.06 
   2  -1   8   16.16    1.37 
  -2  -1  -8   16.08    1.38 
  -2  -1  -8   16.03    1.39 
   2  -1   8   18.86    1.36 
  -2  -1  -8   16.40    1.43 
   2  -1   8   17.29    1.37 
  -2  -1  -8   15.99    1.32 
   2  -1   8   17.75    1.47 
  -2   1  -8   16.42    1.32 
  -2   1  -8   16.98    1.34 
   2   1   8   15.50    1.46 
  -2   1  -8   16.62    1.34 
  -2   1  -8   15.64    1.29 
   2   1   8   16.90    1.28 
   2   1   8   17.09    1.33 
  -2   1  -8   17.31    1.44 
   2   1   8   17.45    1.42 
   2   1   8   16.97    1.17 
  -3  -1  -8   47.12    1.88 
   3  -1   8   49.86    2.41 
  -3  -1  -8   49.43    2.37 
  -3  -1  -8   50.90    2.34 
  -3  -1  -8   51.42    2.47 
   3  -1   8   51.88    2.33 
   3  -1   8   52.55    2.28 
   3  -1   8   49.32    2.30 
   3  -1   8   49.10    2.29 
   3   1   8   47.37    2.25 
  -3   1  -8   51.34    2.28 
   3   1   8   48.66    2.32 
   3   1   8   54.22    2.12 
   3   1   8   54.19    2.59 
  -3   1  -8   50.12    2.36 
  -3   1  -8   51.45    2.30 
  -3   1  -8   51.97    2.36 
   3   1   8   48.97    2.34 
  -3   1  -8   46.87    2.35 
  -4  -1  -8   14.27    1.01 
   4  -1   8   12.99    1.32 
  -4  -1  -8   14.83    1.32 
   4  -1   8   14.67    1.33 
  -4  -1  -8   13.58    1.25 
   4  -1   8   13.41    1.31 
   4  -1   8   14.82    1.42 
  -4  -1  -8   15.14    1.39 
   4  -1   8   14.35    1.27 
  -4  -1  -8   14.81    1.32 
  -4   1  -8   16.27    1.38 
   4   1   8   14.02    1.36 
   4   1   8   12.09    1.26 
  -4   1  -8   14.86    1.27 
  -4   1  -8   13.91    1.34 
   4   1   8   14.79    1.51 
   4   1   8   17.50    1.18 
  -4   1  -8   13.47    1.37 
  -4   1  -8   13.58    1.22 
   4   1   8   13.69    1.39 
   5  -1   8    6.67    1.02 
   5  -1   8    6.86    1.21 
   5  -1   8    7.82    1.17 
  -5  -1  -8    9.83    1.15 
  -5  -1  -8    8.80    0.87 
  -5  -1  -8    8.44    1.29 
   5  -1   8    9.23    1.17 
   5  -1   8    9.28    1.19 
  -5  -1  -8    8.29    1.09 
  -5  -1  -8   10.10    1.13 
   5   1   8    9.32    1.23 
   5   1   8    6.21    1.20 
   5   1   8    6.36    1.07 
  -5   1  -8    8.93    1.16 
  -5   1  -8    7.54    1.00 
  -5   1  -8    7.61    1.06 
   5   1   8    6.02    0.83 
  -5   1  -8    8.83    1.13 
  -6  -1  -8   15.82    1.12 
   6  -1   8   15.61    1.56 
   6  -1   8   13.43    1.33 
  -6  -1  -8   14.54    1.27 
  -6  -1  -8   15.97    1.48 
   6  -1   8   15.87    1.40 
   6  -1   8   15.69    1.35 
  -6  -1  -8   13.58    1.24 
   6  -1   8   15.26    1.38 
  -6  -1  -8   13.70    1.37 
  -6   1  -8   14.69    1.32 
   6   1   8   13.41    1.55 
   6   1   8   13.43    1.46 
  -6   1  -8   14.85    1.40 
  -6   1  -8   16.36    1.36 
   6   1   8   13.91    1.49 
  -6   1  -8   19.05    1.40 
   6   1   8   14.88    1.39 
   6   1   8   16.06    1.14 
   7  -1   8   15.59    1.43 
  -7  -1  -8   17.75    1.62 
   7  -1   8   17.86    1.73 
  -7  -1  -8   16.21    1.44 
  -7  -1  -8   16.24    1.26 
  -7  -1  -8   15.05    1.26 
   7  -1   8   19.00    1.48 
  -7  -1  -8   19.52    1.26 
  -7   1  -8   17.95    1.38 
  -7   1  -8   16.82    1.53 
   7   1   8   18.44    1.57 
  -7   1  -8   16.52    1.44 
   7   1   8   16.35    1.18 
   7   1   8   17.20    1.73 
  -7   1  -8   16.02    1.34 
  -8  -1  -8    5.60    0.90 
  -8  -1  -8    5.95    0.94 
   8  -1   8    6.69    1.11 
  -8  -1  -8    5.88    0.90 
   8  -1   8    6.96    1.46 
  -8  -1  -8    4.70    0.92 
   8  -1   8    6.07    1.12 
   8   1   8    5.72    1.09 
   8   1   8    6.58    1.41 
  -8   1  -8    5.86    0.97 
  -8   1  -8    7.23    1.39 
   8   1   8    8.51    0.95 
  -8   1  -8    5.85    1.09 
  -8   1  -8    5.47    1.01 
   9  -1   8    7.78    1.25 
   9  -1   8   14.10    2.03 
  -9  -1  -8    8.68    1.08 
  -9  -1  -8    6.23    0.82 
  -9  -1  -8    6.97    0.85 
  -9  -1  -8    5.41    1.25 
   9   1   8    7.62    1.03 
   9   1   8    6.06    1.45 
  -9   1  -8    7.88    1.27 
  -9   1  -8    8.40    0.96 
  -9   1  -8    6.67    1.09 
   9   1   8    7.03    1.31 
 -10  -1  -8   11.33    0.84 
  10  -1   8   12.41    1.85 
 -10  -1  -8   13.60    1.26 
 -10  -1  -8   11.52    0.83 
  10  -1   8   11.85    1.35 
  10  -1   8   11.91    1.54 
 -10  -1  -8   10.92    1.46 
 -10   1  -8   13.01    1.16 
 -10   1  -8   12.73    1.03 
  10   1   8   16.67    1.33 
 -10   1  -8   13.87    1.47 
  10   1   8   13.23    1.48 
  10   1   8   17.97    1.94 
  11  -1   8    3.40    1.04 
  11   1   8    4.53    1.17 
 -11   1  -8    5.37    0.82 
 -11   1  -8    4.24    1.10 
 -11   1  -8    3.40    0.65 
  11  -2  -8   11.04    1.39 
 -11  -2   8   11.58    1.71 
  11   2  -8    9.12    1.12 
  10  -2  -8    0.44    0.77 
  10  -2  -8    0.97    0.71 
  10  -2  -8    1.62    0.77 
  10  -2  -8    0.42    0.82 
 -10  -2   8    1.64    0.78 
  10   2  -8    0.40    0.59 
  10   2  -8    4.65    1.38 
  10   2  -8    0.52    0.61 
 -10   2   8    0.03    0.56 
  10   2  -8    2.47    0.78 
   9  -2  -8   12.15    1.55 
  -9  -2   8   13.30    1.46 
   9  -2  -8   12.12    1.34 
   9  -2  -8   11.79    1.43 
   9  -2  -8   15.31    1.48 
   9   2  -8   12.50    1.23 
  -9   2   8   11.05    1.15 
   9   2  -8   12.58    1.09 
   9   2  -8   13.16    1.81 
   8  -2  -8    4.57    1.03 
  -8  -2   8    5.85    0.82 
   8  -2  -8    5.49    1.10 
  -8  -2   8    7.34    1.34 
   8  -2  -8    7.32    1.39 
   8  -2  -8    6.00    1.17 
   8   2  -8    6.82    0.95 
   8   2  -8    5.71    1.03 
   8   2  -8    6.61    1.51 
  -8   2   8    5.35    0.93 
   7  -2  -8   32.83    1.99 
   7  -2  -8   31.46    2.06 
   7  -2  -8   29.94    2.05 
  -7  -2   8   32.19    2.02 
  -7  -2   8   31.31    1.46 
   7  -2  -8   32.26    1.85 
   7   2  -8   34.02    1.93 
  -7   2   8   32.22    1.77 
   7   2  -8   31.49    1.57 
  -7   2   8   34.97    2.36 
   7   2  -8   32.02    2.39 
   6  -2  -8    2.27    0.80 
  -6  -2   8    2.68    0.91 
  -6  -2   8    1.95    0.84 
   6  -2  -8    1.22    0.85 
   6  -2  -8    1.95    0.76 
   6  -2  -8    1.59    0.80 
   6  -2  -8    1.09    0.73 
  -6  -2   8    1.41    0.81 
   6  -2  -8    0.43    0.65 
  -6  -2   8    1.21    0.50 
   6   2  -8    2.22    0.39 
  -6   2   8    2.39    0.76 
   6   2  -8    1.06    0.69 
   6   2  -8    1.59    0.74 
  -6   2   8    1.85    0.82 
   6   2  -8    1.61    0.73 
   6   2  -8    0.87    1.01 
  -5  -2   8   17.37    1.47 
  -5  -2   8   17.60    0.91 
  -5  -2   8   17.09    1.61 
   5  -2  -8   16.97    1.53 
   5  -2  -8   17.36    1.45 
   5  -2  -8   18.73    1.60 
  -5  -2   8   16.50    1.00 
   5  -2  -8   18.36    1.49 
   5  -2  -8   16.58    1.37 
   5  -2  -8   15.07    1.41 
   5   2  -8   18.31    1.46 
   5   2  -8   11.44    1.62 
   5   2  -8   17.49    1.23 
  -5   2   8   17.07    1.36 
  -5   2   8   14.18    1.32 
   5   2  -8   19.78    1.53 
   5   2  -8   16.86    0.86 
   4  -2  -8    3.75    1.04 
  -4  -2   8    4.92    0.64 
   4  -2  -8    4.09    0.87 
   4  -2  -8    4.45    0.86 
   4  -2  -8    4.72    1.10 
   4  -2  -8    4.52    0.89 
  -4  -2   8    5.23    1.02 
  -4  -2   8    5.83    1.20 
  -4  -2   8    3.91    1.02 
  -4  -2   8    4.30    0.66 
   4   2  -8    2.24    0.84 
  -4   2   8    3.50    0.80 
   4   2  -8    4.57    0.62 
  -4   2   8    4.36    0.93 
   4   2  -8    4.98    0.85 
   4   2  -8    3.39    0.87 
   4   2  -8    3.47    0.87 
   3  -2  -8   46.77    2.42 
   3  -2  -8   47.19    2.29 
  -3  -2   8   46.11    1.74 
   3  -2  -8   47.28    2.15 
  -3  -2   8   48.64    2.49 
   3  -2  -8   50.23    2.50 
  -3  -2   8   49.23    2.49 
   3  -2  -8   49.26    2.25 
  -3  -2   8   51.27    2.36 
  -3  -2   8   46.50    1.82 
  -3   2   8   46.85    2.29 
  -3   2   8   49.69    2.27 
   3   2  -8   47.00    1.74 
   3   2  -8   48.40    1.88 
   3   2  -8   55.53    2.54 
   3   2  -8   48.52    2.30 
   3   2  -8   50.06    2.61 
  -3   2   8   46.02    1.53 
  -3   2   8   46.96    1.52 
   2  -2  -8    3.09    1.02 
  -2  -2   8    2.87    0.63 
   2  -2  -8    2.10    0.75 
  -2  -2   8    3.33    0.90 
   2  -2  -8    3.67    0.86 
   2  -2  -8    2.91    0.83 
  -2  -2   8    3.44    0.86 
  -2  -2   8    2.84    0.61 
  -2  -2   8    3.10    0.94 
   2  -2  -8    4.11    1.02 
  -2   2   8    1.71    0.70 
  -2   2   8    3.49    0.62 
   2   2  -8    2.55    0.62 
   2   2  -8    3.06    0.65 
  -2   2   8    3.04    0.87 
   2   2  -8    3.01    0.98 
  -2   2   8    3.22    0.56 
   2   2  -8    3.95    0.96 
  -2   2   8    2.57    0.71 
   2   2  -8    2.95    0.88 
  -1  -2   8  143.97    4.66 
   1  -2  -8  145.62    4.20 
   1  -2  -8  140.04    4.41 
  -1  -2   8  143.89    4.06 
   1  -2  -8  148.09    4.71 
   1  -2  -8  143.05    4.65 
   1  -2  -8  143.60    4.67 
  -1  -2   8  139.44    4.03 
  -1  -2   8  140.88    4.65 
  -1   2   8  139.66    4.03 
   1   2  -8  138.68    4.40 
  -1   2   8  131.82    4.46 
   1   2  -8  144.02    4.67 
   1   2  -8  124.66    3.93 
  -1   2   8  146.42    3.95 
   1   2  -8  150.00    4.70 
   1   2  -8  142.17    4.05 
  -1   2   8  140.44    4.45 
   0  -2   8   18.46    1.27 
   0  -2   8   17.89    1.54 
   0  -2   8   20.46    1.44 
   0  -2  -8   14.00    1.12 
   0  -2  -8   18.80    1.59 
   0  -2  -8   18.20    1.51 
   0  -2  -8   19.23    1.56 
   0  -2  -8   17.74    1.37 
   0  -2   8   18.87    1.67 
   0  -2   8   20.79    1.41 
   0   2   8   18.09    1.23 
   0   2  -8   18.04    1.23 
   0   2   8   18.68    1.12 
   0   2   8   17.69    1.44 
   0   2  -8   24.48    1.70 
   0   2   8   18.52    1.45 
   0   2  -8   17.52    1.42 
   0   2  -8   18.13    1.53 
   0   2  -8   19.27    1.27 
   0   2   8   16.51    1.16 
  -1  -2  -8   78.29    2.48 
  -1  -2  -8   75.00    3.11 
   1  -2   8   81.78    2.92 
   1  -2   8   81.69    3.21 
  -1  -2  -8   81.03    3.08 
  -1  -2  -8   78.46    3.15 
   1  -2   8   75.39    2.85 
   1  -2   8   76.36    2.95 
  -1  -2  -8   75.90    3.11 
   1  -2   8   76.49    3.17 
  -1   2  -8   79.19    3.15 
   1   2   8   79.10    2.49 
   1   2   8   79.13    3.06 
   1   2   8   83.10    3.15 
  -1   2  -8   78.94    2.99 
  -1   2  -8   82.21    2.86 
   1   2   8   79.81    2.85 
   1   2   8   74.85    2.76 
  -1   2  -8   78.98    3.18 
  -1   2  -8   77.85    2.85 
   2  -2   8    5.03    1.08 
  -2  -2  -8    6.05    1.19 
  -2  -2  -8    5.29    1.04 
  -2  -2  -8    4.90    0.64 
  -2  -2  -8    4.30    1.13 
   2  -2   8    3.49    0.77 
  -2  -2  -8    3.86    0.86 
   2  -2   8    6.01    1.17 
   2  -2   8    5.31    0.97 
  -2   2  -8    4.78    0.97 
   2   2   8    4.93    0.70 
  -2   2  -8    5.59    0.95 
  -2   2  -8    5.19    1.10 
   2   2   8    4.97    0.94 
   2   2   8    5.17    0.99 
   2   2   8    4.58    1.02 
  -2   2  -8    5.19    1.02 
  -2   2  -8    4.19    0.95 
   2   2   8    4.86    0.99 
   3  -2   8   64.23    2.59 
  -3  -2  -8   61.47    2.79 
   3  -2   8   61.95    2.75 
  -3  -2  -8   60.15    2.66 
   3  -2   8   62.22    2.71 
  -3  -2  -8   64.18    1.99 
  -3  -2  -8   65.88    2.85 
  -3  -2  -8   64.77    2.77 
   3  -2   8   63.68    2.59 
   3  -2   8   68.47    2.78 
  -3   2  -8   61.94    2.56 
   3   2   8   60.86    2.64 
  -3   2  -8   62.60    2.71 
   3   2   8   67.03    2.77 
   3   2   8   62.50    2.04 
  -3   2  -8   62.05    2.73 
  -3   2  -8   64.10    2.81 
   3   2   8   64.01    2.84 
  -3   2  -8   62.57    2.60 
   3   2   8   65.08    2.75 
   4  -2   8    3.80    0.86 
  -4  -2  -8    4.83    0.93 
   4  -2   8    4.15    0.90 
  -4  -2  -8    4.20    0.57 
  -4  -2  -8    3.26    0.81 
   4  -2   8    3.98    0.95 
   4  -2   8    5.67    1.19 
  -4  -2  -8    4.16    0.99 
  -4  -2  -8    4.60    0.87 
  -4   2  -8    4.04    0.86 
   4   2   8    4.90    0.95 
   4   2   8    4.54    0.74 
  -4   2  -8    3.34    0.81 
   4   2   8    6.22    1.39 
  -4   2  -8    5.23    1.16 
  -4   2  -8    5.17    0.99 
   4   2   8    4.83    1.10 
   4   2   8    3.28    0.93 
  -4   2  -8    5.15    1.02 
   5  -2   8   23.47    1.68 
  -5  -2  -8   26.53    1.83 
  -5  -2  -8   23.20    1.56 
   5  -2   8   24.67    1.85 
   5  -2   8   24.01    1.65 
  -5  -2  -8   27.05    1.80 
   5  -2   8   24.84    1.59 
   5  -2   8   21.30    1.65 
  -5  -2  -8   24.13    1.11 
  -5  -2  -8   24.58    1.65 
  -5   2  -8   24.62    1.70 
   5   2   8   23.94    1.24 
  -5   2  -8   23.88    1.53 
  -5   2  -8   26.83    1.76 
  -5   2  -8   25.28    1.71 
  -5   2  -8   23.24    1.82 
   5   2   8   23.63    1.82 
   5   2   8   23.46    1.77 
   5   2   8   24.86    1.96 
   5   2   8   23.41    1.71 
   6  -2   8    3.47    0.92 
  -6  -2  -8    3.99    0.88 
   6  -2   8    2.99    0.93 
  -6  -2  -8    2.71    0.92 
   6  -2   8    2.94    0.89 
  -6  -2  -8    3.99    0.64 
  -6  -2  -8    3.43    0.90 
  -6  -2  -8    2.87    0.88 
   6  -2   8    2.65    1.02 
   6  -2   8    4.42    1.03 
  -6   2  -8    2.20    0.76 
   6   2   8    1.96    0.98 
  -6   2  -8    4.79    1.05 
   6   2   8    3.44    1.12 
   6   2   8    4.16    0.68 
   6   2   8    3.33    0.94 
  -6   2  -8    2.91    0.86 
   6   2   8    3.32    1.05 
  -6   2  -8    3.68    0.88 
  -6   2  -8    5.29    1.30 
  -7  -2  -8   19.10    1.40 
   7  -2   8   17.53    1.46 
  -7  -2  -8   14.08    1.21 
   7  -2   8   16.34    1.50 
  -7  -2  -8   18.56    1.65 
   7  -2   8   14.94    1.68 
  -7  -2  -8   18.64    1.08 
   7   2   8   16.58    1.73 
   7   2   8   18.79    1.63 
  -7   2  -8   18.73    1.36 
   7   2   8   18.30    1.09 
  -7   2  -8   15.72    1.38 
  -7   2  -8   19.94    1.63 
  -8  -2  -8    4.39    0.90 
   8  -2   8    3.81    1.22 
   8  -2   8    4.85    1.01 
  -8  -2  -8    4.94    1.19 
  -8  -2  -8    5.17    0.86 
  -8   2  -8    4.83    0.90 
  -8   2  -8    4.01    1.08 
   8   2   8    5.18    0.81 
  -8   2  -8    6.69    1.10 
   8   2   8    5.09    1.15 
   9  -2   8   13.67    1.80 
  -9  -2  -8   13.29    1.02 
   9  -2   8   16.22    1.40 
  -9  -2  -8   12.35    1.01 
   9  -2   8   14.67    1.65 
  -9   2  -8   12.62    1.19 
  -9   2  -8   12.06    1.45 
   9   2   8   14.92    1.57 
  -9   2  -8   13.68    1.24 
   9   2   8   14.62    1.80 
 -10  -2  -8    1.17    0.88 
 -10  -2  -8    1.93    0.48 
  10  -2   8    1.37    1.12 
 -10  -2  -8    1.48    0.46 
  10  -2   8    2.14    1.01 
  10  -2   8    2.32    0.91 
  10   2   8    3.96    0.83 
  10   2   8    0.66    1.12 
  10   2   8    1.24    0.64 
 -10   2  -8    1.35    0.80 
  10   2   8    1.28    0.90 
 -10   2  -8    1.68    0.67 
 -11   2  -8    3.44    1.09 
  11   2   8    4.67    1.12 
  11   2   8    3.29    0.85 
  10  -3  -8   13.94    1.24 
 -10  -3   8    7.53    1.30 
  10  -3  -8   10.23    1.50 
  10  -3  -8    7.91    1.44 
  10   3  -8    8.47    1.70 
 -10   3   8    9.14    0.99 
  10   3  -8    9.75    0.59 
  10   3  -8   11.59    1.18 
   9  -3  -8    4.31    1.09 
   9  -3  -8    3.95    0.91 
   9  -3  -8    2.05    1.08 
  -9  -3   8    3.60    0.98 
   9   3  -8    5.52    1.53 
   9   3  -8    5.16    0.95 
   9   3  -8    3.31    0.52 
  -9   3   8    4.85    0.87 
   8  -3  -8    5.88    1.14 
  -8  -3   8   10.58    1.64 
   8  -3  -8   10.54    1.35 
   8  -3  -8    7.36    1.39 
  -8  -3   8    7.88    0.75 
   8  -3  -8    8.82    1.16 
   8   3  -8    7.78    1.71 
   8   3  -8    7.16    1.17 
   8   3  -8    8.87    0.70 
  -8   3   8    8.05    0.95 
   7  -3  -8    9.51    1.49 
  -7  -3   8    9.38    1.41 
   7  -3  -8    8.33    1.29 
   7  -3  -8    8.17    1.29 
  -7  -3   8    5.79    0.80 
  -7  -3   8    8.18    1.33 
   7  -3  -8    8.76    1.16 
   7   3  -8    9.85    1.77 
  -7   3   8    8.90    1.00 
   7   3  -8    8.00    0.73 
   7   3  -8    8.86    1.37 
   6  -3  -8   18.73    1.66 
  -6  -3   8   15.76    1.53 
  -6  -3   8   16.86    1.09 
   6  -3  -8   18.00    1.38 
   6  -3  -8   16.93    1.49 
  -6  -3   8   16.88    0.85 
   6  -3  -8   16.24    1.52 
   6  -3  -8   16.76    1.52 
   6  -3  -8   15.49    1.55 
  -6   3   8   17.29    1.29 
   6   3  -8   16.41    1.79 
   6   3  -8   17.35    1.01 
   6   3  -8   15.60    1.41 
   5  -3  -8   13.98    1.42 
  -5  -3   8   13.79    1.02 
   5  -3  -8   14.01    1.46 
  -5  -3   8   11.99    1.43 
   5  -3  -8   13.68    1.32 
   5  -3  -8   14.30    1.49 
   5  -3  -8   14.12    1.24 
  -5  -3   8   14.50    0.78 
   5  -3  -8   15.27    1.38 
  -5  -3   8   13.60    1.39 
   5   3  -8   15.25    1.00 
   5   3  -8   13.75    1.65 
   5   3  -8   13.11    1.38 
  -5   3   8   16.26    1.44 
  -5   3   8   15.57    1.29 
   5   3  -8   15.20    0.85 
  -5   3   8   13.09    0.65 
   5   3  -8   14.73    1.39 
   4  -3  -8   15.32    0.84 
   4  -3  -8   16.05    1.53 
  -4  -3   8   14.60    1.53 
  -4  -3   8   15.79    1.11 
  -4  -3   8   17.62    0.86 
   4  -3  -8   13.01    1.38 
  -4  -3   8   15.52    1.40 
   4  -3  -8   15.05    1.30 
   4  -3  -8   13.91    1.26 
   4  -3  -8   18.94    1.39 
  -4  -3   8   16.00    1.54 
   4   3  -8   16.32    0.90 
   4   3  -8   16.53    1.42 
  -4   3   8   15.63    0.83 
  -4   3   8   18.11    1.40 
   4   3  -8   15.31    1.04 
   4   3  -8   10.98    1.51 
   4   3  -8   15.16    1.43 
   3  -3  -8   11.26    1.16 
   3  -3  -8    9.92    1.26 
   3  -3  -8    9.59    1.04 
  -3  -3   8    8.28    0.87 
  -3  -3   8    9.69    1.47 
   3  -3  -8    7.66    1.31 
  -3  -3   8    8.46    1.45 
   3  -3  -8    9.09    1.00 
  -3  -3   8    8.56    1.12 
  -3  -3   8    8.98    0.71 
   3  -3  -8    8.29    0.75 
   3   3  -8    9.02    0.74 
   3   3  -8    5.72    1.18 
   3   3  -8    6.34    1.12 
   3   3  -8    9.86    0.90 
  -3   3   8    8.87    0.75 
  -3   3   8    9.23    1.14 
   3   3  -8    6.67    1.20 
  -3   3   8    9.63    1.15 
   2  -3  -8   16.26    1.15 
  -2  -3   8   15.63    1.19 
  -2  -3   8   17.09    1.53 
  -2  -3   8   15.71    1.40 
   2  -3  -8   14.79    1.48 
  -2  -3   8   17.22    1.56 
  -2  -3   8   15.41    0.98 
   2  -3  -8   15.58    1.18 
   2  -3  -8   15.47    1.30 
   2  -3  -8   16.57    1.05 
   2  -3  -8   19.02    1.61 
   2   3  -8   18.35    1.03 
   2   3  -8   16.23    1.38 
   2   3  -8   14.71    1.13 
   2   3  -8   16.92    1.59 
  -2   3   8   13.82    1.35 
  -2   3   8   16.48    1.40 
  -2   3   8   17.67    1.11 
   2   3  -8   14.82    1.47 
  -1  -3   8    3.86    1.07 
   1  -3  -8    6.44    0.94 
  -1  -3   8    5.23    0.89 
   1  -3  -8    5.25    0.72 
   1  -3  -8    6.96    1.30 
   1  -3  -8    5.82    1.32 
   1  -3  -8    5.86    0.89 
   1  -3  -8    5.35    0.93 
  -1  -3   8    6.34    1.06 
  -1  -3   8    6.27    1.23 
  -1  -3   8    6.85    0.92 
  -1   3   8    6.32    1.15 
   1   3  -8    6.55    1.21 
   1   3  -8    5.62    0.80 
  -1   3   8    8.02    1.18 
  -1   3   8    5.80    0.79 
   1   3  -8    7.29    1.32 
   1   3  -8    5.99    1.04 
   1   3  -8    6.58    0.90 
   0  -3   8   41.93    2.47 
   0  -3  -8   43.36    1.92 
   0  -3  -8   41.49    2.35 
   0  -3   8   40.07    2.05 
   0  -3  -8   41.99    1.73 
   0  -3   8   43.06    1.94 
   0  -3  -8   40.51    2.08 
   0  -3  -8   41.28    2.26 
   0  -3   8   39.25    2.21 
   0  -3   8   44.57    2.07 
   0   3  -8   39.08    2.27 
   0   3   8   38.85    1.87 
   0   3  -8   40.88    2.07 
   0   3  -8   42.66    1.99 
   0   3   8   41.05    2.19 
   0   3   8   40.03    2.13 
   0   3  -8   43.03    2.33 
   0   3  -8   40.92    1.75 
  -1  -3  -8    1.18    0.86 
   1  -3   8    2.26    0.85 
  -1  -3  -8    2.76    0.77 
   1  -3   8    1.42    0.80 
  -1  -3  -8    1.52    0.45 
   1  -3   8    2.13    0.78 
  -1  -3  -8    0.56    0.63 
   1  -3   8    1.17    0.71 
   1  -3   8    1.76    0.68 
  -1  -3  -8    1.89    0.71 
  -1  -3  -8    1.59    0.78 
  -1   3  -8    0.50    0.63 
   1   3   8    0.57    0.62 
  -1   3  -8    1.16    0.58 
  -1   3  -8    2.77    0.80 
   1   3   8    2.26    0.83 
   1   3   8    0.56    0.69 
  -1   3  -8    0.77    0.57 
  -1   3  -8    1.77    0.84 
  -2  -3  -8    9.59    0.58 
  -2  -3  -8    6.18    1.17 
   2  -3   8    6.15    1.08 
   2  -3   8    8.15    1.14 
   2  -3   8    8.62    1.05 
  -2  -3  -8    8.81    1.20 
   2  -3   8    6.87    0.93 
  -2  -3  -8    6.28    1.15 
   2  -3   8    7.47    1.25 
  -2  -3  -8    5.53    0.99 
  -2   3  -8    6.80    1.24 
  -2   3  -8    7.75    0.92 
  -2   3  -8    8.25    1.09 
   2   3   8    8.66    1.08 
   2   3   8    7.85    1.24 
  -2   3  -8    8.74    1.13 
   2   3   8    5.51    1.00 
  -2   3  -8    8.87    1.22 
   3  -3   8   23.43    1.69 
  -3  -3  -8   24.19    1.73 
  -3  -3  -8   22.94    1.75 
   3  -3   8   24.24    1.54 
   3  -3   8   26.48    1.80 
   3  -3   8   25.72    1.80 
   3  -3   8   25.53    1.56 
  -3  -3  -8   22.04    1.65 
   3   3   8   25.50    1.72 
  -3   3  -8   25.82    1.81 
  -3   3  -8   27.99    1.63 
  -3   3  -8   25.11    1.57 
  -3   3  -8   24.89    1.81 
  -3   3  -8   25.52    1.76 
   3   3   8   24.58    1.73 
   3   3   8   23.72    1.76 
  -4  -3  -8    9.19    1.22 
  -4  -3  -8    9.35    1.11 
  -4  -3  -8   10.28    1.27 
   4  -3   8    8.63    1.32 
   4  -3   8    6.58    1.20 
  -4  -3  -8    9.02    1.16 
   4  -3   8    8.55    1.38 
   4  -3   8    8.02    1.06 
   4  -3   8    9.76    1.08 
  -4   3  -8    9.76    1.47 
   4   3   8   10.69    1.40 
  -4   3  -8    9.25    1.06 
   4   3   8    5.86    1.11 
   4   3   8    8.14    1.28 
  -4   3  -8    8.37    1.06 
  -4   3  -8    8.70    1.30 
   5  -3   8   10.20    1.36 
  -5  -3  -8    6.45    1.16 
  -5  -3  -8   10.45    1.26 
   5  -3   8   10.54    1.10 
  -5  -3  -8    9.04    1.40 
  -5  -3  -8    9.75    1.12 
   5  -3   8   11.21    1.54 
   5  -3   8   10.19    1.20 
   5  -3   8   10.56    1.49 
   5   3   8   11.12    1.42 
  -5   3  -8    8.54    1.21 
   5   3   8    9.05    1.44 
   5   3   8    8.12    1.30 
  -5   3  -8   14.19    1.18 
  -5   3  -8    9.65    1.52 
   5   3   8    9.87    1.28 
  -5   3  -8   10.41    1.33 
   6  -3   8    9.09    1.43 
  -6  -3  -8   14.54    1.24 
   6  -3   8   12.12    1.17 
  -6  -3  -8   11.26    1.40 
  -6  -3  -8    9.38    1.21 
  -6   3  -8   11.22    1.29 
  -6   3  -8   11.93    1.09 
   6   3   8    9.65    1.58 
   6   3   8   11.93    1.38 
  -6   3  -8   11.32    1.41 
  -7  -3  -8   10.50    1.06 
  -7  -3  -8    8.87    1.13 
   7  -3   8    9.40    1.09 
   7  -3   8    8.36    1.53 
   7  -3   8   12.43    1.78 
  -7  -3  -8   10.20    1.62 
  -7   3  -8    7.99    0.97 
   7   3   8   10.76    1.79 
  -7   3  -8    7.93    1.35 
   7   3   8   10.08    1.58 
  -7   3  -8    8.14    1.17 
  -8  -3  -8    3.19    0.93 
  -8  -3  -8    3.33    0.82 
   8  -3   8    2.57    0.96 
   8  -3   8    1.70    1.07 
   8  -3   8    2.37    0.77 
   8   3   8    1.51    0.80 
   8   3   8    2.45    1.13 
  -8   3  -8    1.40    0.93 
  -8   3  -8    2.87    0.69 
  -8   3  -8    1.85    0.82 
  -9  -3  -8    3.14    0.90 
   9  -3   8    2.77    0.84 
  -9  -3  -8    3.06    0.74 
   9  -3   8    2.03    1.01 
   9  -3   8    3.17    1.18 
  -9  -3  -8    3.61    0.75 
  -9   3  -8    5.09    1.28 
   9   3   8    2.86    0.56 
   9   3   8    5.04    0.63 
  -9   3  -8    2.87    0.87 
  -9   3  -8    3.87    0.77 
   9   3   8    3.30    1.16 
   9   3   8    1.79    1.16 
  10  -3   8    4.86    1.24 
  10  -3   8    9.00    1.70 
 -10  -3  -8    5.81    0.64 
 -10  -3  -8    6.54    0.67 
 -10  -3  -8    6.53    1.35 
  10  -3   8    5.18    0.99 
  10   3   8    5.65    1.22 
 -10   3  -8    6.22    1.30 
  10   3   8    4.54    1.52 
 -10   3  -8    8.67    1.13 
  10   3   8    7.20    0.75 
  -9  -4   8    6.61    0.92 
   9  -4  -8    4.22    0.82 
   9  -4  -8    4.50    1.30 
   9  -4  -8    3.41    1.07 
  -9  -4   8    4.39    1.14 
   9  -4  -8    4.75    1.19 
   9   4  -8    8.32    1.10 
   9   4  -8    5.62    0.75 
   9   4  -8    3.65    1.29 
  -9   4   8    5.01    0.80 
  -8  -4   8    5.28    0.88 
   8  -4  -8    4.50    1.08 
   8  -4  -8    5.61    0.90 
   8  -4  -8    3.55    1.21 
  -8  -4   8    5.07    1.21 
  -8  -4   8    2.85    0.86 
   8  -4  -8    4.36    1.18 
   8   4  -8    4.48    1.51 
   8   4  -8    5.03    1.01 
   8   4  -8    5.15    0.77 
  -8   4   8    5.18    0.82 
  -7  -4   8   18.54    1.31 
   7  -4  -8   22.29    1.82 
   7  -4  -8   19.82    1.36 
   7  -4  -8   19.45    1.65 
  -7  -4   8   19.94    1.72 
  -7  -4   8   19.92    1.74 
   7   4  -8   18.38    1.54 
  -7   4   8   18.44    1.26 
   7   4  -8   21.35    1.24 
   7   4  -8   20.43    2.02 
   6  -4  -8    7.13    1.19 
   6  -4  -8    7.36    0.97 
   6  -4  -8    5.24    1.13 
   6  -4  -8    7.17    1.19 
  -6  -4   8    7.40    1.03 
  -6  -4   8    5.80    1.30 
  -6   4   8    8.14    1.48 
  -6   4   8    7.04    0.63 
  -6   4   8    6.06    0.96 
   6   4  -8    6.23    0.84 
   6   4  -8    8.01    1.56 
   6   4  -8    6.00    1.14 
   5  -4  -8    4.53    1.01 
  -5  -4   8    4.28    0.83 
   5  -4  -8    2.46    1.02 
  -5  -4   8    4.15    1.03 
   5  -4  -8    3.12    0.81 
  -5  -4   8    3.38    1.15 
   5  -4  -8    2.38    0.83 
   5  -4  -8    5.13    0.63 
   5  -4  -8    4.89    0.87 
  -5   4   8    4.93    0.89 
  -5   4   8    5.35    0.65 
  -5   4   8    2.82    1.02 
   5   4  -8    4.81    1.06 
   5   4  -8    3.07    0.95 
   4  -4  -8    5.99    0.98 
   4  -4  -8    9.10    1.54 
   4  -4  -8    7.80    0.78 
  -4  -4   8    8.85    1.45 
   4  -4  -8    8.09    1.05 
  -4  -4   8    7.75    1.00 
   4  -4  -8   10.21    1.57 
   4  -4  -8    7.42    1.02 
  -4  -4   8    6.85    1.30 
  -4   4   8    8.58    1.38 
  -4   4   8    9.03    1.25 
  -4   4   8    5.97    0.75 
   4   4  -8   10.74    1.56 
   4   4  -8    9.52    1.63 
   4   4  -8    7.51    0.94 
   3  -4  -8    8.46    1.05 
   3  -4  -8   10.55    0.92 
  -3  -4   8    8.83    1.18 
  -3  -4   8    9.59    1.58 
   3  -4  -8    7.80    0.97 
   3  -4  -8   12.30    1.68 
   3  -4  -8    8.98    1.00 
  -3  -4   8    9.55    1.42 
  -3  -4   8    7.47    1.02 
   3  -4  -8    8.98    1.34 
  -3   4   8   10.06    1.41 
   3   4  -8   10.12    1.05 
  -3   4   8    8.83    1.18 
  -3   4   8    9.81    1.26 
  -3   4   8    8.38    0.88 
   3   4  -8    8.99    1.28 
   3   4  -8   12.45    1.70 
   3   4  -8    9.09    1.40 
   2  -4  -8   12.38    0.98 
  -2  -4   8    9.18    1.16 
   2  -4  -8   11.25    1.16 
   2  -4  -8   11.57    1.39 
  -2  -4   8    9.75    1.10 
   2  -4  -8   11.06    1.01 
   2  -4  -8   10.14    1.38 
  -2  -4   8   12.55    1.51 
  -2  -4   8   10.34    1.50 
  -2  -4   8   10.61    0.75 
   2  -4  -8   13.05    1.07 
   2   4  -8   11.82    1.12 
   2   4  -8   10.58    1.33 
   2   4  -8   12.60    1.50 
  -2   4   8   10.72    1.41 
  -2   4   8   10.79    1.26 
  -2   4   8   11.59    1.03 
   2   4  -8   10.33    1.25 
  -2   4   8    9.50    1.22 
  -1  -4   8   12.00    1.54 
  -1  -4   8   13.92    0.98 
   1  -4  -8    8.30    1.26 
   1  -4  -8   12.84    0.90 
  -1  -4   8   11.62    1.21 
  -1  -4   8   12.67    1.24 
   1  -4  -8    7.00    1.23 
   1  -4  -8   13.55    1.27 
   1  -4  -8   10.25    0.96 
   1  -4  -8   10.85    1.09 
  -1  -4   8   11.71    1.38 
  -1   4   8   13.11    1.14 
  -1   4   8   11.44    1.45 
  -1   4   8   10.41    1.27 
   1   4  -8   10.22    1.55 
   1   4  -8   12.12    1.24 
  -1   4   8   11.77    1.31 
   1   4  -8    9.76    1.32 
   1   4  -8   12.08    1.19 
   0  -4   8    7.22    1.10 
   0  -4   8    7.11    1.23 
   0  -4  -8    7.83    0.85 
   0  -4  -8    8.52    1.48 
   0  -4   8   10.98    1.79 
   0  -4  -8    7.36    1.05 
   0  -4   8    7.77    1.25 
   0  -4  -8    5.46    1.04 
   0  -4  -8    8.58    1.15 
   0  -4  -8    7.81    0.65 
   0  -4   8    6.87    1.01 
   0   4   8    8.14    1.14 
   0   4   8    8.13    1.38 
   0   4  -8    6.84    1.32 
   0   4  -8    8.24    1.09 
   0   4   8    9.06    1.27 
   0   4  -8   11.33    1.54 
   0   4   8    9.05    1.17 
   0   4  -8    7.28    1.28 
   1  -4   8   23.34    1.40 
   1  -4   8   22.31    1.55 
   1  -4   8   24.42    1.95 
   1  -4   8   23.59    1.72 
  -1  -4  -8   21.75    1.84 
   1  -4   8   25.56    1.88 
  -1  -4  -8   20.70    1.58 
  -1  -4  -8   25.20    1.79 
  -1  -4  -8   24.93    1.61 
   1   4   8   23.15    1.60 
  -1   4  -8   25.39    1.89 
  -1   4  -8   23.04    1.67 
   1   4   8   25.52    1.86 
  -1   4  -8   24.94    1.67 
   1   4   8   23.34    1.68 
   1   4   8   20.94    1.66 
  -1   4  -8   22.89    1.84 
  -2  -4  -8   11.28    1.37 
  -2  -4  -8   12.17    1.29 
   2  -4   8   14.34    1.22 
  -2  -4  -8   13.05    1.31 
   2  -4   8   13.16    1.39 
   2  -4   8   15.89    1.58 
   2  -4   8   12.96    1.13 
  -2  -4  -8   11.43    1.31 
   2  -4   8   13.03    1.49 
  -2   4  -8   13.63    1.46 
  -2   4  -8   14.35    1.49 
   2   4   8   13.81    1.41 
   2   4   8   14.77    1.37 
  -2   4  -8   13.44    1.39 
   2   4   8    9.95    1.29 
  -2   4  -8   12.90    1.31 
   2   4   8   15.64    1.51 
  -3  -4  -8    4.75    1.11 
  -3  -4  -8    3.66    0.86 
   3  -4   8    3.09    1.00 
   3  -4   8    4.07    0.80 
   3  -4   8    4.95    0.84 
  -3  -4  -8    4.95    1.16 
   3  -4   8    4.58    1.14 
   3  -4   8    3.72    1.03 
  -3  -4  -8    2.79    0.92 
   3   4   8    4.53    1.04 
  -3   4  -8    3.67    1.03 
   3   4   8    3.94    0.96 
  -3   4  -8    3.74    0.94 
   3   4   8    4.49    1.00 
  -3   4  -8    3.40    1.04 
  -3   4  -8    4.24    0.89 
   4  -4   8    3.25    0.98 
  -4  -4  -8    4.17    1.10 
  -4  -4  -8    4.72    0.99 
   4  -4   8    3.90    0.83 
   4  -4   8    3.20    0.85 
   4  -4   8    2.88    0.78 
  -4  -4  -8    2.42    0.82 
  -4  -4  -8    3.28    0.98 
   4  -4   8    3.34    0.99 
   4   4   8    3.54    0.91 
  -4   4  -8    3.14    1.02 
   4   4   8    4.73    1.02 
  -4   4  -8    3.35    0.95 
   4   4   8    2.78    0.93 
   5  -4   8   17.73    1.27 
  -5  -4  -8   16.04    1.55 
   5  -4   8   17.34    1.65 
   5  -4   8   15.66    1.40 
  -5  -4  -8   18.43    1.55 
   5  -4   8   18.38    1.72 
   5  -4   8   18.29    1.52 
  -5  -4  -8   17.51    1.43 
  -5   4  -8   19.09    1.73 
   5   4   8   16.34    1.56 
  -5   4  -8   17.34    1.62 
  -5   4  -8   16.68    1.28 
   6  -4   8    5.11    1.25 
   6  -4   8    6.57    1.19 
  -6  -4  -8    6.26    1.29 
   6  -4   8    7.31    1.02 
  -6  -4  -8    8.56    1.10 
  -6  -4  -8    7.40    1.22 
  -6   4  -8    6.35    1.23 
  -6   4  -8    8.80    1.46 
  -6   4  -8    7.01    1.01 
   6   4   8    5.87    1.13 
  -7  -4  -8    8.99    1.08 
   7  -4   8    9.05    0.95 
  -7  -4  -8    7.50    1.27 
  -7  -4  -8    9.81    1.21 
   7  -4   8   11.56    1.37 
   7  -4   8    6.46    1.42 
   7   4   8   11.41    1.40 
  -7   4  -8    8.00    1.40 
   7   4   8    9.04    1.48 
  -7   4  -8   10.12    0.98 
  -7   4  -8    9.03    1.29 
   8  -4   8    1.29    0.81 
  -8  -4  -8    1.60    0.66 
   8  -4   8    0.91    0.91 
   8  -4   8    0.71    0.55 
  -8  -4  -8   -0.13    0.65 
  -8  -4  -8    0.77    0.76 
  -8   4  -8    0.77    0.66 
   8   4   8    0.41    0.72 
   8   4   8   -0.17    0.87 
  -8   4  -8    2.41    0.92 
   9  -4   8    6.33    0.89 
  -9  -4  -8    4.93    0.93 
   9  -4   8    4.55    1.39 
   9  -4   8    3.59    0.99 
  -9  -4  -8    6.07    0.91 
  -9  -4  -8    4.44    1.32 
   9   4   8    6.94    1.54 
  -9   4  -8    4.46    1.04 
  -9   4  -8    5.41    1.30 
  -9  -5   8    1.01    0.78 
  -9  -5   8    2.04    0.92 
   9  -5  -8    1.84    0.92 
   9   5  -8    1.68    1.07 
  -8  -5   8    6.45    1.23 
   8  -5  -8    7.84    1.45 
   8  -5  -8    4.75    0.54 
   8  -5  -8    4.90    0.77 
   8  -5  -8    4.40    1.20 
  -8  -5   8    5.48    1.04 
  -8   5   8    5.92    1.33 
   8   5  -8    5.05    1.45 
   8   5  -8    6.30    1.19 
  -8   5   8    6.41    0.84 
   8   5  -8    5.37    0.97 
   7  -5  -8    7.36    1.26 
  -7  -5   8    5.06    1.12 
  -7  -5   8    6.20    1.06 
   7  -5  -8    5.02    0.81 
  -7  -5   8    6.44    1.37 
   7  -5  -8    6.71    1.38 
   7  -5  -8    5.98    0.68 
   7   5  -8    5.72    0.99 
  -7   5   8    6.03    1.45 
   7   5  -8    5.46    1.19 
  -7   5   8    5.54    0.83 
  -7   5   8    6.30    0.72 
   7   5  -8    6.02    1.42 
  -6  -5   8   10.33    1.19 
   6  -5  -8   10.44    1.42 
   6  -5  -8   11.59    1.04 
   6  -5  -8   10.92    0.91 
  -6  -5   8   11.63    1.42 
  -6  -5   8   11.22    1.46 
   6  -5  -8   10.64    1.26 
  -6   5   8    9.51    0.90 
   6   5  -8   11.51    1.16 
   6   5  -8   10.66    1.38 
  -6   5   8   10.63    1.08 
  -6   5   8   11.64    1.56 
   6   5  -8   14.30    1.69 
   5  -5  -8    6.19    1.16 
   5  -5  -8    9.99    1.44 
   5  -5  -8    5.08    0.81 
  -5  -5   8    7.06    1.12 
   5  -5  -8    7.81    1.86 
  -5  -5   8    6.55    1.31 
   5  -5  -8    5.90    0.97 
   5  -5  -8    4.10    0.93 
  -5  -5   8    7.90    1.42 
   5   5  -8    5.13    1.06 
   5   5  -8    5.86    1.22 
  -5   5   8    6.10    0.91 
  -5   5   8    6.43    1.04 
  -5   5   8    6.48    1.42 
   5   5  -8    6.55    1.02 
  -4  -5   8   10.53    1.56 
  -4  -5   8   10.39    1.39 
   4  -5  -8    9.44    1.06 
  -4  -5   8    8.83    1.13 
   4  -5  -8    8.14    1.38 
   4  -5  -8    9.32    1.11 
   4  -5  -8    9.10    1.42 
   4  -5  -8   10.18    1.11 
   4  -5  -8    8.63    0.94 
  -4   5   8    9.99    1.14 
   4   5  -8   12.41    1.73 
  -4   5   8    8.45    0.94 
   4   5  -8    8.86    1.47 
  -4   5   8    9.75    1.66 
   4   5  -8    8.10    1.10 
   3  -5  -8    5.53    1.00 
  -3  -5   8    5.91    1.05 
   3  -5  -8    5.70    0.92 
   3  -5  -8    5.54    0.91 
   3  -5  -8    7.23    1.36 
  -3  -5   8    6.75    1.24 
   3  -5  -8    5.30    0.87 
  -3  -5   8    4.92    0.98 
   3  -5  -8    4.58    1.08 
   3   5  -8    5.24    0.98 
  -3   5   8    7.07    1.15 
   3   5  -8    4.50    1.14 
   3   5  -8    9.54    1.31 
  -3   5   8    3.04    0.94 
  -3   5   8    5.77    0.95 
   2  -5  -8   10.73    0.98 
   2  -5  -8   12.41    1.20 
   2  -5  -8    9.99    1.08 
   2  -5  -8   10.24    1.49 
  -2  -5   8   11.96    1.44 
   2  -5  -8    9.54    0.92 
   2  -5  -8   10.91    1.47 
  -2  -5   8   10.23    1.26 
  -2  -5   8   10.99    1.24 
  -2   5   8   13.61    1.55 
   2   5  -8   10.52    1.80 
   2   5  -8    7.98    1.38 
   2   5  -8    9.85    1.20 
   2   5  -8    9.15    1.39 
  -2   5   8    9.56    1.10 
  -2   5   8    8.84    1.25 
   1  -5  -8    1.00    0.91 
  -1  -5   8    1.85    0.88 
   1  -5  -8    2.35    0.55 
   1  -5  -8    1.21    0.70 
  -1  -5   8    2.28    0.49 
  -1  -5   8    2.61    0.56 
   1  -5  -8    1.75    0.83 
  -1  -5   8    3.46    0.94 
   1  -5  -8    2.02    0.59 
   1  -5  -8    1.18    0.71 
  -1  -5   8    1.59    0.77 
   1   5  -8    2.00    0.80 
   1   5  -8    2.50    0.78 
  -1   5   8    2.69    0.95 
   1   5  -8    1.08    0.86 
  -1   5   8    1.87    0.74 
  -1   5   8    2.41    0.92 
   1   5  -8    0.98    0.90 
   0  -5   8   19.75    1.75 
   0  -5  -8   20.03    0.96 
   0  -5   8   19.36    1.63 
   0  -5   8   17.92    1.20 
   0  -5  -8   18.34    1.50 
   0  -5   8   21.25    1.55 
   0  -5  -8   20.13    1.52 
   0  -5   8   20.73    1.12 
   0  -5  -8   17.87    1.87 
   0  -5  -8   19.63    1.74 
   0   5  -8   18.08    1.76 
   0   5  -8   18.34    1.56 
   0   5  -8   22.53    1.63 
   0   5   8   21.23    1.57 
   0   5   8   20.42    1.77 
   0   5  -8   17.95    1.72 
   0   5   8   17.46    1.53 
  -1  -5  -8    0.55    0.69 
  -1  -5  -8    1.37    0.85 
   1  -5   8    0.69    0.50 
   1  -5   8    0.74    0.77 
   1  -5   8    0.66    0.66 
   1  -5   8    2.47    0.70 
   1  -5   8    1.59    0.84 
  -1  -5  -8    0.92    0.74 
  -1  -5  -8    1.24    0.82 
   1   5   8    1.91    0.76 
  -1   5  -8    1.39    0.74 
   1   5   8    1.52    0.75 
  -1   5  -8    0.74    0.78 
   1   5   8    1.11    0.82 
  -1   5  -8    1.86    0.85 
   1   5   8    1.96    0.95 
  -2  -5  -8    6.67    1.13 
  -2  -5  -8    4.13    1.05 
   2  -5   8    4.62    0.91 
   2  -5   8    8.07    1.28 
  -2  -5  -8    5.31    1.19 
   2  -5   8    5.88    0.90 
   2  -5   8    2.59    0.92 
   2  -5   8    5.92    0.92 
   2   5   8    2.35    1.02 
  -2   5  -8    4.48    1.17 
  -2   5  -8    5.02    1.12 
   2   5   8    8.18    1.45 
   2   5   8    7.58    1.30 
   2   5   8    5.28    1.11 
  -2   5  -8    4.25    0.99 
   3  -5   8   13.60    1.19 
   3  -5   8   11.93    1.48 
  -3  -5  -8   12.28    1.42 
   3  -5   8   11.77    1.16 
  -3  -5  -8   12.39    1.36 
   3  -5   8   11.99    1.13 
  -3  -5  -8   12.60    1.45 
   3  -5   8   10.79    1.48 
  -3   5  -8   14.10    1.30 
  -3   5  -8   14.02    1.58 
   3   5   8   13.41    1.45 
  -3   5  -8   13.56    1.57 
   3   5   8   12.74    1.44 
  -4  -5  -8    3.23    0.99 
   4  -5   8    4.18    0.85 
   4  -5   8    3.09    1.12 
   4  -5   8    3.46    1.08 
  -4  -5  -8    3.18    1.03 
   4  -5   8    4.98    0.95 
   4  -5   8    4.52    0.91 
  -4   5  -8    4.09    1.11 
   4   5   8    4.68    1.11 
  -4   5  -8    3.46    1.07 
  -4   5  -8    3.87    0.89 
  -5  -5  -8    2.81    1.03 
   5  -5   8    2.70    1.01 
  -5  -5  -8    3.09    0.99 
   5  -5   8    3.38    0.84 
  -5  -5  -8    3.91    0.95 
  -5  -5  -8    3.41    1.11 
   5  -5   8    3.55    0.78 
  -5   5  -8    1.87    0.67 
   5   5   8    4.31    1.09 
  -5   5  -8    3.86    1.12 
  -5   5  -8    4.17    1.11 
  -6  -5  -8    9.15    1.16 
  -6  -5  -8    7.75    1.34 
   6  -5   8    6.42    0.85 
   6  -5   8    5.57    1.36 
  -6  -5  -8    6.05    1.17 
   6  -5   8    6.25    1.16 
  -6   5  -8    5.19    1.19 
  -6   5  -8    5.14    0.87 
  -6   5  -8    5.54    1.25 
   6   5   8    6.15    1.35 
   7  -5   8    4.41    1.09 
   7  -5   8    4.90    1.26 
  -7  -5  -8    5.19    1.11 
  -7  -5  -8    4.85    1.00 
  -7  -5  -8    4.48    1.19 
   7  -5   8    4.80    0.78 
   7   5   8    5.26    1.15 
  -7   5  -8    4.46    0.74 
  -7   5  -8    4.73    1.10 
  -7   5  -8    2.89    1.24 
   8  -5   8    4.62    1.15 
  -8  -5  -8    1.05    0.78 
  -8  -5  -8    1.53    0.92 
  -8  -5  -8    2.88    0.74 
   8  -5   8    0.57    0.88 
  -8   5  -8    0.44    0.94 
  -8   5  -8    0.56    0.68 
   8   5   8    0.54    0.83 
  -7  -6   8    5.45    1.22 
   7  -6  -8    9.45    1.28 
   7  -6  -8    7.17    0.86 
  -7   6   8   11.27    1.86 
   7   6  -8    8.94    1.66 
   6  -6  -8    1.23    0.60 
  -6  -6   8   -0.20    0.61 
   6  -6  -8    0.89    0.71 
  -6  -6   8    1.13    0.75 
   6  -6  -8    0.73    0.83 
  -6  -6   8    1.56    0.76 
  -6   6   8    0.52    0.89 
  -6   6   8    0.85    0.68 
   6   6  -8    1.20    0.93 
  -6   6   8    1.89    0.63 
   5  -6  -8    7.50    1.51 
  -5  -6   8    3.79    0.93 
  -5  -6   8    7.33    1.34 
  -5  -6   8    6.48    1.21 
   5  -6  -8    8.37    1.21 
   5  -6  -8    5.10    0.92 
   5  -6  -8    5.48    0.91 
   5  -6  -8    3.96    1.16 
  -5   6   8    6.47    1.47 
   5   6  -8    5.49    1.27 
  -5   6   8    5.91    1.03 
   5   6  -8    4.56    1.23 
  -5   6   8    5.34    0.98 
  -4  -6   8    1.25    0.83 
  -4  -6   8   -0.21    0.68 
  -4  -6   8   -0.65    0.59 
   4  -6  -8    3.17    1.09 
   4  -6  -8    0.21    0.54 
   4  -6  -8    0.30    0.82 
   4  -6  -8    0.65    0.61 
   4  -6  -8   -0.08    0.51 
   4  -6  -8    0.88    0.65 
   4   6  -8    0.59    0.94 
  -4   6   8    0.60    0.65 
  -4   6   8    0.85    0.67 
  -4   6   8    0.61    0.87 
   4   6  -8    0.42    0.73 
  -3  -6   8    7.89    1.33 
  -3  -6   8    7.47    1.15 
   3  -6  -8    7.89    1.41 
  -3  -6   8    7.97    1.51 
   3  -6  -8    8.97    0.98 
   3  -6  -8   12.83    1.63 
   3  -6  -8    7.73    1.06 
  -3   6   8    6.75    1.43 
   3   6  -8   10.03    1.67 
  -3   6   8   10.84    1.21 
  -3   6   8    8.94    1.18 
   3   6  -8    8.35    1.43 
   2  -6  -8    5.35    0.97 
   2  -6  -8    4.25    1.15 
  -2  -6   8    3.90    0.93 
   2  -6  -8    3.45    0.92 
   2  -6  -8    4.72    0.80 
  -2  -6   8    3.53    1.04 
  -2  -6   8    3.63    1.08 
   2  -6  -8    3.59    1.19 
   2  -6  -8    4.47    0.77 
   2   6  -8    2.71    1.05 
  -2   6   8    3.98    1.20 
   2   6  -8    3.88    1.15 
  -2   6   8    2.27    0.82 
  -2   6   8    2.73    0.96 
   1  -6  -8   30.13    1.30 
   1  -6  -8   31.95    2.23 
  -1  -6   8   29.41    1.88 
   1  -6  -8   27.36    1.80 
  -1  -6   8   31.61    2.08 
  -1  -6   8   26.23    2.07 
   1  -6  -8   29.62    1.86 
   1  -6  -8   31.32    1.28 
   1  -6  -8   29.89    2.28 
  -1   6   8   31.80    1.94 
   1   6  -8   31.09    2.24 
  -1   6   8   32.90    1.98 
   1   6  -8   29.26    2.20 
  -1   6   8   29.78    2.22 
   0  -6  -8    1.91    0.94 
   0  -6   8    3.03    0.55 
   0  -6   8    2.69    0.94 
   0  -6  -8    1.72    0.85 
   0  -6   8    2.85    0.84 
   0  -6  -8    2.73    1.19 
   0  -6   8    2.13    0.96 
   0  -6   8    2.03    0.64 
   0   6   8    2.61    0.94 
   0   6  -8    1.69    0.98 
   0   6   8    2.82    1.13 
   0   6  -8    2.05    0.96 
   0   6  -8    2.00    1.13 
  -1  -6  -8   21.89    1.93 
   1  -6   8   23.00    1.88 
   1  -6   8   20.31    1.25 
   1  -6   8   21.28    1.88 
   1  -6   8   20.93    1.23 
  -1  -6  -8   19.90    1.80 
  -1  -6  -8   22.66    1.74 
   1  -6   8   19.81    1.49 
   1   6   8   21.39    1.89 
   1   6   8   20.73    1.73 
  -1   6  -8   21.19    1.93 
  -1   6  -8   20.16    1.62 
  -2  -6  -8    1.89    0.95 
   2  -6   8    1.23    0.64 
  -2  -6  -8    1.43    0.79 
   2  -6   8    1.72    0.96 
   2  -6   8    2.02    0.66 
   2  -6   8    1.35    0.97 
   2  -6   8    1.88    0.67 
  -2   6  -8    1.64    0.84 
  -2   6  -8    1.84    1.04 
   2   6   8    1.46    0.90 
  -2   6  -8    0.81    0.88 
   2   6   8    0.94    0.76 
   3  -6   8   15.18    1.69 
  -3  -6  -8   12.83    1.55 
   3  -6   8   15.11    1.24 
   3  -6   8    9.57    1.49 
   3  -6   8   13.19    1.23 
  -3  -6  -8   12.31    1.46 
   3  -6   8   13.60    1.20 
  -3  -6  -8   14.43    1.55 
  -3   6  -8   13.88    1.69 
  -3   6  -8   13.05    1.62 
   3   6   8   14.15    1.54 
  -3   6  -8   12.45    1.31 
   4  -6   8    0.04    0.50 
   4  -6   8    0.17    0.63 
  -4  -6  -8    0.37    0.73 
   4  -6   8   -0.26    0.54 
  -4  -6  -8    1.13    0.89 
   4  -6   8    0.50    0.85 
  -4   6  -8    0.77    0.79 
  -4   6  -8    0.62    0.66 
   4   6   8    0.37    0.70 
  -4   6  -8    0.25    0.72 
   4   6   8    0.56    0.76 
   5  -6   8   10.87    1.48 
  -5  -6  -8   11.38    1.43 
  -5  -6  -8   10.54    1.38 
   5  -6   8   15.42    1.12 
   5  -6   8   10.32    1.78 
  -5  -6  -8   10.15    1.65 
  -5   6  -8   13.69    1.68 
   5   6   8   10.58    1.43 
  -5   6  -8   11.18    1.07 
  -5   6  -8   10.15    1.65 
   6  -6   8    0.93    0.90 
  -6  -6  -8   -0.11    0.63 
  -6  -6  -8    1.17    0.85 
  -6  -6  -8    0.67    0.75 
   6  -6   8    1.09    0.79 
  -6  -6  -8    2.93    1.11 
   6  -6   8    1.49    0.55 
  -6   6  -8    0.90    0.81 
  -6   6  -8    0.38    0.77 
  -6   6  -8   -0.02    0.54 
   6   6   8    0.20    0.82 
  -7  -6  -8    6.78    1.24 
  -7  -6  -8    6.80    1.35 
   7  -6   8    5.76    1.30 
  -7   6  -8    5.03    1.18 
   5  -7  -8    5.09    1.05 
  -5  -7   8    6.22    1.55 
  -5  -7   8    3.28    1.17 
   5  -7  -8    7.05    1.10 
  -5   7   8    8.22    1.02 
  -5   7   8    4.72    1.29 
   5   7  -8    4.49    1.30 
   4  -7  -8    6.39    1.41 
  -4  -7   8    6.87    1.27 
   4  -7  -8    4.21    0.94 
  -4  -7   8    3.77    1.01 
   4  -7  -8    6.95    1.10 
   4  -7  -8    6.00    1.11 
   4   7  -8    4.16    1.31 
  -4   7   8    4.88    1.30 
   4   7  -8    6.97    1.42 
  -4   7   8    7.72    1.18 
   3  -7  -8    0.11    0.61 
   3  -7  -8    0.70    1.05 
  -3  -7   8    1.21    0.75 
   3  -7  -8    1.47    0.76 
  -3  -7   8    0.95    0.90 
   3  -7  -8    2.42    0.70 
  -3  -7   8    1.80    0.92 
   3  -7  -8    0.58    0.92 
  -3   7   8    0.86    0.83 
   3   7  -8    1.61    0.90 
  -3   7   8    0.41    0.87 
   3   7  -8    1.28    0.91 
  -2  -7   8    1.92    0.98 
  -2  -7   8    2.67    0.88 
   2  -7  -8    2.26    0.92 
   2  -7  -8    2.94    0.62 
   2  -7  -8    3.60    0.73 
   2  -7  -8    2.42    1.14 
  -2  -7   8    4.26    1.17 
   2  -7  -8    2.35    1.09 
   2   7  -8    1.45    0.98 
  -2   7   8    2.65    1.00 
   2   7  -8    3.13    1.10 
  -2   7   8    3.18    1.13 
   1  -7  -8    0.78    1.07 
   1  -7  -8    0.41    0.93 
  -1  -7   8    1.52    0.97 
  -1  -7   8    1.14    0.82 
  -1  -7   8    0.66    0.95 
   1  -7  -8    1.10    0.87 
  -1   7   8    0.08    0.69 
   1   7  -8    1.34    0.94 
  -1   7   8    1.30    1.02 
   1   7  -8    1.20    0.90 
   0  -7  -8   10.02    1.73 
   0  -7   8   10.03    1.64 
   0  -7  -8   14.45    1.53 
   0  -7   8   14.27    1.39 
   0  -7   8   12.62    1.62 
   0  -7  -8   13.80    1.95 
   0   7  -8   16.99    1.77 
   0   7   8   13.58    1.67 
   0   7  -8   11.84    1.69 
   0   7   8   12.88    1.43 
   1  -7   8    0.01    0.60 
  -1  -7  -8   -0.01    0.75 
   1  -7   8    0.87    0.49 
  -1  -7  -8    0.20    0.84 
  -1  -7  -8    0.29    0.79 
   1  -7   8    0.06    0.86 
   1  -7   8    0.33    0.95 
   1  -7   8    0.22    0.49 
   1   7   8   -0.66    0.74 
  -1   7  -8   -0.83    0.70 
  -1   7  -8   -0.59    0.73 
   1   7   8    1.31    0.80 
  -2  -7  -8    1.22    0.85 
   2  -7   8    1.98    1.08 
   2  -7   8    1.02    0.61 
   2  -7   8    0.63    0.57 
  -2  -7  -8    2.13    1.03 
   2  -7   8    1.26    0.88 
  -2  -7  -8    0.84    0.93 
   2  -7   8    0.58    0.56 
  -2   7  -8    1.32    0.88 
   2   7   8    0.35    0.83 
  -2   7  -8    1.32    0.79 
   2   7   8    0.92    0.73 
  -2   7  -8    0.38    0.88 
   3  -7   8    2.51    0.80 
  -3  -7  -8    1.83    0.95 
   3  -7   8    1.77    1.05 
   3  -7   8    2.15    0.71 
   3  -7   8    1.99    0.69 
  -3  -7  -8    2.36    1.10 
  -3  -7  -8    0.80    0.81 
   3   7   8    1.85    0.92 
  -3   7  -8    2.26    1.07 
  -3   7  -8    2.91    1.22 
  -3   7  -8    4.52    0.95 
   3   7   8    1.93    1.01 
  -4  -7  -8    2.06    0.83 
  -4  -7  -8    2.67    0.99 
   4  -7   8    1.54    0.93 
   4  -7   8    3.90    0.77 
  -4  -7  -8    1.82    1.01 
   4  -7   8    1.78    0.77 
  -4   7  -8    2.05    0.94 
   4   7   8    1.42    1.22 
  -4   7  -8    2.69    0.76 
  -4   7  -8    0.62    0.86 
   4   7   8    0.94    0.72 
   5  -7   8    4.08    0.74 
   5  -7   8    4.09    1.09 
  -5  -7  -8    2.51    1.02 
  -5   7  -8    5.35    1.35 
 -11   0   9    8.45    1.41 
  11   0  -9    9.39    1.27 
 -10   0   9    9.97    1.31 
  10   0  -9    9.50    1.34 
  10   0  -9   11.62    1.36 
   9   0  -9   17.93    1.55 
  -9   0   9   16.65    1.51 
   9   0  -9   18.79    1.89 
   9   0  -9   17.61    1.48 
   8   0  -9    2.72    0.97 
   8   0  -9    2.46    0.78 
  -8   0   9    3.20    0.98 
   8   0  -9    1.51    0.80 
  -7   0   9    8.22    1.03 
  -7   0   9    8.87    1.17 
   7   0  -9    7.83    1.37 
   7   0  -9    8.75    1.21 
   7   0  -9   11.17    1.32 
   7   0  -9   10.80    1.20 
  -6   0   9  104.21    3.56 
   6   0  -9  102.74    3.86 
   6   0  -9  108.81    4.06 
   6   0  -9  113.02    4.22 
  -6   0   9  130.85    5.51 
  -6   0   9   94.16    3.72 
   6   0  -9  105.03    3.84 
   6   0  -9  106.55    3.65 
   5   0  -9   40.19    2.42 
  -5   0   9   43.40    2.25 
   5   0  -9   45.74    2.39 
   5   0  -9   46.37    2.21 
   5   0  -9   43.50    2.42 
  -5   0   9   42.52    2.37 
   5   0  -9   38.51    2.19 
  -5   0   9   45.88    2.09 
   4   0  -9   13.12    1.35 
   4   0  -9   12.30    1.37 
  -4   0   9   15.95    1.24 
  -4   0   9   12.43    1.32 
   4   0  -9   12.24    1.40 
  -4   0   9   11.65    1.28 
   4   0  -9   12.90    1.59 
   4   0  -9   13.22    1.40 
  -3   0   9    5.54    0.48 
  -3   0   9    6.47    1.19 
  -3   0   9    7.00    1.20 
   3   0  -9    6.09    1.24 
   3   0  -9    6.78    1.27 
  -3   0   9    5.13    0.93 
   3   0  -9    6.80    1.27 
   3   0  -9    6.90    1.31 
   3   0  -9    5.56    1.13 
  -3   0   9    5.71    0.51 
  -2   0   9   45.79    1.65 
  -2   0   9   46.34    2.30 
   2   0  -9   47.76    2.46 
  -2   0   9   44.58    2.12 
   2   0  -9   47.75    2.29 
   2   0  -9   47.57    2.44 
   2   0  -9   45.96    2.30 
  -2   0   9   47.33    1.65 
  -2   0   9   42.75    2.22 
   2   0  -9   49.07    2.47 
  -1   0   9   37.11    1.59 
   1   0  -9   39.14    2.08 
   1   0  -9   39.56    2.07 
   1   0  -9   36.75    2.16 
   1   0  -9   39.25    2.01 
  -1   0   9   37.60    1.95 
   1   0  -9   35.71    2.12 
  -1   0   9   38.12    2.00 
  -1   0   9   39.45    2.13 
  -1   0   9   38.79    1.60 
   0   0   9   11.39    0.99 
   0   0  -9   11.13    1.31 
   0   0  -9   13.30    1.25 
   0   0  -9   12.49    1.22 
   0   0   9   11.53    1.01 
   0   0   9   11.68    1.18 
   0   0  -9   12.17    1.25 
   0   0   9   12.22    1.27 
   1   0   9   48.66    2.35 
   1   0   9   48.08    2.22 
  -1   0  -9   48.15    2.31 
   1   0   9   48.06    2.09 
   1   0   9   47.27    2.30 
  -1   0  -9   46.31    2.40 
  -1   0  -9   49.03    2.32 
  -1   0  -9   48.06    2.20 
   1   0   9   45.81    2.05 
   2   0   9   15.61    1.42 
  -2   0  -9   15.19    1.37 
  -2   0  -9   14.17    1.24 
   2   0   9   13.77    1.40 
  -2   0  -9   18.71    1.48 
  -2   0  -9   13.27    1.40 
   2   0   9   17.16    1.34 
   2   0   9   14.24    1.27 
  -3   0  -9    7.17    1.01 
   3   0   9    9.10    1.38 
   3   0   9    9.31    1.21 
  -3   0  -9    9.54    1.33 
   3   0   9   10.71    1.42 
  -3   0  -9    8.95    1.17 
   3   0   9    8.88    1.19 
  -3   0  -9   10.50    1.50 
   3   0   9   12.68    1.70 
   4   0   9   10.99    1.34 
  -4   0  -9   11.01    1.31 
  -4   0  -9   11.46    1.32 
   4   0   9    9.78    1.25 
  -4   0  -9    9.41    1.18 
  -4   0  -9    9.04    1.03 
   4   0   9    8.09    1.23 
   4   0   9    9.20    1.24 
   4   0   9   10.56    1.19 
   5   0   9   47.61    2.40 
   5   0   9   43.34    2.40 
  -5   0  -9   44.34    2.04 
  -5   0  -9   36.48    2.13 
  -5   0  -9   43.12    2.22 
   5   0   9   42.87    2.33 
   5   0   9   38.27    2.29 
  -5   0  -9   41.14    2.21 
   5   0   9   44.89    2.09 
  -5   0  -9   45.21    2.41 
  -6   0  -9   29.95    1.81 
   6   0   9   26.62    1.89 
  -6   0  -9   29.70    1.85 
  -6   0  -9   26.10    1.75 
  -6   0  -9   31.08    1.74 
   7   0   9    6.21    1.26 
  -7   0  -9    4.45    1.00 
   7   0   9    4.69    1.30 
   7   0   9    4.70    0.95 
  -7   0  -9    6.83    1.18 
  -7   0  -9    5.43    1.02 
  -7   0  -9    6.55    1.09 
  -7   0  -9    3.82    1.01 
  -8   0  -9    4.25    0.98 
   8   0   9    4.63    1.16 
   8   0   9    3.82    0.94 
  -8   0  -9    2.20    0.85 
   8   0   9    2.24    1.07 
  -8   0  -9    4.98    1.03 
  -8   0  -9    3.63    0.89 
   9   0   9    2.82    1.06 
  -9   0  -9    3.62    1.12 
  -9   0  -9    2.28    0.72 
   9   0   9    4.79    1.04 
  -9   0  -9    2.83    0.75 
   9   0   9    1.70    1.11 
  -9   0  -9    3.45    0.89 
 -10   0  -9    2.64    0.73 
  10   0   9    0.37    1.02 
 -10   0  -9    2.18    0.63 
  10   0   9    2.50    1.05 
 -10   0  -9    1.01    0.76 
  10  -1  -9    0.56    0.70 
  10  -1  -9    0.22    0.75 
 -10  -1   9    1.83    0.75 
 -10  -1   9    0.52    0.77 
  10  -1  -9    0.73    0.78 
 -10   1   9    0.17    0.62 
  10   1  -9    0.07    0.68 
  10   1  -9    0.29    0.85 
  10   1  -9    0.14    0.64 
   9  -1  -9    3.72    1.20 
   9  -1  -9    5.82    1.05 
  -9  -1   9    3.30    0.85 
   9  -1  -9    5.63    1.17 
  -9  -1   9    3.69    1.00 
   9   1  -9    5.78    1.31 
   9   1  -9    4.54    1.07 
  -9   1   9    5.67    1.09 
   9   1  -9    5.45    1.01 
  -8  -1   9   10.30    1.61 
   8  -1  -9    9.71    1.42 
  -8  -1   9    8.04    1.01 
   8  -1  -9    7.88    1.37 
   8  -1  -9    9.01    1.34 
   8  -1  -9    6.47    1.29 
   8   1  -9    9.39    1.28 
   8   1  -9    7.18    1.25 
  -8   1   9    7.88    1.22 
  -7  -1   9   21.70    1.40 
  -7  -1   9   21.14    1.68 
   7  -1  -9   18.66    1.64 
   7  -1  -9   19.43    1.71 
   7  -1  -9   19.62    1.59 
   7  -1  -9   20.92    1.78 
   7   1  -9   19.98    1.95 
   7   1  -9   19.92    1.65 
  -7   1   9   21.81    1.59 
   7   1  -9   20.70    1.46 
  -7   1   9   18.73    1.51 
   6  -1  -9   13.58    1.34 
   6  -1  -9   11.22    1.35 
  -6  -1   9   14.44    1.42 
   6  -1  -9    9.62    1.33 
   6  -1  -9   14.08    1.51 
  -6  -1   9   12.36    1.06 
   6  -1  -9   12.25    1.49 
   6   1  -9   14.86    1.79 
   6   1  -9   11.46    1.32 
   6   1  -9   11.60    1.36 
   6   1  -9   10.74    1.24 
  -6   1   9   12.75    1.29 
  -6   1   9   11.31    1.21 
   6   1  -9   12.25    1.41 
  -5  -1   9   29.05    1.52 
   5  -1  -9   27.33    1.89 
   5  -1  -9   25.53    1.94 
  -5  -1   9   26.91    1.83 
   5  -1  -9   27.71    1.78 
   5  -1  -9   21.54    1.77 
   5  -1  -9   25.58    1.80 
  -5  -1   9   27.24    1.94 
  -5   1   9   23.97    1.78 
  -5   1   9   28.68    1.74 
  -5   1   9   25.98    1.72 
   5   1  -9   25.05    1.79 
   5   1  -9   24.04    1.80 
   5   1  -9   25.11    1.84 
   5   1  -9   27.54    2.18 
   5   1  -9   26.15    1.71 
  -4  -1   9    4.62    0.85 
   4  -1  -9    3.30    0.90 
  -4  -1   9    4.48    1.12 
   4  -1  -9    4.34    1.04 
  -4  -1   9    5.86    1.05 
  -4  -1   9    3.62    0.41 
   4  -1  -9    5.15    1.10 
   4  -1  -9    5.78    1.06 
   4  -1  -9    4.47    1.01 
   4   1  -9    5.51    1.01 
  -4   1   9    3.97    0.93 
   4   1  -9    3.11    0.90 
  -4   1   9    4.84    0.97 
   4   1  -9    4.91    1.25 
   4   1  -9    4.21    1.00 
  -4   1   9    5.12    1.08 
  -3  -1   9   21.87    1.61 
   3  -1  -9   24.81    1.86 
   3  -1  -9   25.01    1.68 
  -3  -1   9   21.36    1.69 
   3  -1  -9   21.65    1.73 
   3  -1  -9   22.34    1.81 
  -3  -1   9   22.50    1.78 
  -3  -1   9   22.97    1.41 
   3  -1  -9   22.86    1.75 
  -3  -1   9   21.37    1.02 
  -3   1   9   21.81    0.87 
   3   1  -9   21.34    1.81 
   3   1  -9   22.47    1.65 
  -3   1   9   24.58    1.65 
  -3   1   9   22.80    0.89 
  -3   1   9   24.02    1.60 
  -3   1   9   21.41    1.56 
   3   1  -9   23.09    1.51 
   3   1  -9   23.99    1.77 
  -2  -1   9   63.94    2.80 
  -2  -1   9   56.28    2.63 
  -2  -1   9   60.77    2.08 
   2  -1  -9   62.74    2.81 
   2  -1  -9   61.96    2.74 
   2  -1  -9   57.13    2.79 
   2  -1  -9   62.68    2.67 
  -2  -1   9   60.21    2.81 
  -2  -1   9   62.20    2.44 
   2  -1  -9   62.32    2.93 
   2   1  -9   59.75    2.78 
   2   1  -9   65.31    2.51 
  -2   1   9   64.31    2.00 
   2   1  -9   66.73    2.87 
  -2   1   9   62.37    2.70 
  -2   1   9   58.69    1.96 
  -2   1   9   60.97    2.66 
   2   1  -9   57.81    2.66 
  -2   1   9   55.84    2.49 
   2   1  -9   61.88    2.12 
   1  -1  -9   32.09    1.89 
  -1  -1   9   33.63    1.94 
  -1  -1   9   31.75    1.51 
   1  -1  -9   31.04    2.05 
   1  -1  -9   27.69    1.96 
   1  -1  -9   29.42    1.93 
  -1  -1   9   33.50    2.10 
   1  -1  -9   32.55    1.84 
  -1  -1   9   33.03    1.94 
  -1  -1   9   35.07    1.77 
  -1   1   9   30.30    1.70 
   1   1  -9   31.87    1.54 
   1   1  -9   34.52    2.02 
   1   1  -9   28.81    1.94 
  -1   1   9   29.37    1.41 
   1   1  -9   32.01    1.92 
  -1   1   9   34.15    1.96 
   1   1  -9   31.55    1.74 
  -1   1   9   31.70    1.46 
  -1   1   9   32.64    1.89 
   0  -1  -9    1.06    0.61 
   0  -1   9    0.76    0.75 
   0  -1  -9    0.84    0.68 
   0  -1   9    2.86    0.81 
   0  -1   9    0.22    0.53 
   0  -1  -9    1.52    0.82 
   0  -1  -9    0.97    0.78 
   0  -1   9    0.83    0.71 
   0  -1  -9    1.52    0.86 
   0  -1   9    1.35    0.69 
   0   1   9    0.45    0.63 
   0   1   9    0.57    0.57 
   0   1   9    0.93    0.77 
   0   1  -9    0.61    0.55 
   0   1  -9    1.18    0.69 
   0   1  -9    0.66    0.64 
   0   1   9    0.65    0.49 
   0   1   9    1.05    0.60 
   0   1  -9    0.78    0.73 
   0   1  -9    1.13    0.68 
  -1  -1  -9   85.83    3.27 
  -1  -1  -9   78.54    3.18 
   1  -1   9   83.05    3.15 
   1  -1   9   81.00    3.17 
  -1  -1  -9   84.60    2.87 
   1  -1   9   84.83    2.96 
  -1  -1  -9   86.94    3.39 
   1  -1   9   81.92    3.23 
   1  -1   9   81.80    3.35 
  -1   1  -9   79.36    3.05 
  -1   1  -9   81.10    2.96 
  -1   1  -9   83.73    3.35 
   1   1   9   81.19    3.22 
   1   1   9   78.75    2.85 
  -1   1  -9   79.09    3.14 
   1   1   9   81.97    2.92 
   1   1   9   79.52    2.83 
   1   1   9   82.08    3.20 
  -1   1  -9   83.11    3.16 
  -2  -1  -9   52.90    2.57 
  -2  -1  -9   53.40    2.55 
  -2  -1  -9   54.27    2.58 
   2  -1   9   51.13    2.48 
   2  -1   9   53.52    2.46 
   2  -1   9   53.09    2.60 
  -2  -1  -9   51.08    2.08 
   2  -1   9   52.83    2.35 
   2  -1   9   47.59    2.42 
  -2  -1  -9   48.67    2.42 
  -2   1  -9   50.98    2.39 
   2   1   9   51.25    2.27 
  -2   1  -9   50.99    2.38 
  -2   1  -9   52.38    2.42 
  -2   1  -9   51.15    2.57 
   2   1   9   53.67    2.15 
   2   1   9   51.71    2.51 
  -2   1  -9   50.93    2.33 
   2   1   9   48.93    2.30 
   2   1   9   50.40    2.49 
   3  -1   9   27.60    1.80 
  -3  -1  -9   29.25    1.89 
  -3  -1  -9   31.07    1.97 
   3  -1   9   28.76    1.82 
  -3  -1  -9   28.90    1.84 
  -3  -1  -9   31.21    1.96 
   3  -1   9   29.31    1.89 
  -3  -1  -9   29.13    1.50 
   3  -1   9   29.07    1.82 
   3  -1   9   32.76    2.03 
  -3   1  -9   31.64    1.88 
  -3   1  -9   30.93    1.88 
  -3   1  -9   29.04    1.93 
   3   1   9   30.89    1.64 
   3   1   9   30.25    1.88 
   3   1   9   28.87    2.01 
  -3   1  -9   29.49    1.88 
  -3   1  -9   28.76    1.78 
   3   1   9   28.13    1.79 
   3   1   9   28.83    1.92 
  -4  -1  -9    5.60    1.05 
  -4  -1  -9    6.20    1.16 
  -4  -1  -9    6.98    0.94 
  -4  -1  -9    6.65    1.25 
   4  -1   9    6.35    1.29 
   4  -1   9    7.66    1.30 
   4  -1   9    6.77    1.25 
   4  -1   9    7.22    1.22 
   4  -1   9    8.56    1.24 
   4   1   9    6.43    1.15 
  -4   1  -9    7.19    1.13 
  -4   1  -9    5.70    1.07 
   4   1   9    5.28    1.19 
   4   1   9    5.21    1.09 
  -4   1  -9    6.37    1.21 
  -4   1  -9    4.98    0.97 
   4   1   9    4.74    1.00 
  -5  -1  -9   71.34    2.96 
   5  -1   9   70.03    3.01 
  -5  -1  -9   68.69    2.97 
   5  -1   9   71.08    2.87 
   5  -1   9   69.04    2.88 
   5  -1   9   69.24    2.95 
  -5  -1  -9   68.04    2.85 
   5  -1   9   72.25    3.10 
  -5  -1  -9   69.78    2.47 
  -5  -1  -9   66.87    3.08 
  -5   1  -9   66.02    2.82 
  -5   1  -9   65.42    2.78 
   5   1   9   68.63    2.98 
   5   1   9   67.41    3.16 
  -5   1  -9   68.61    3.04 
   5   1   9   66.89    3.07 
   5   1   9   69.41    3.04 
  -5   1  -9   64.66    2.90 
   5   1   9   72.33    2.59 
  -6  -1  -9   17.38    1.46 
  -6  -1  -9   17.16    1.22 
   6  -1   9   18.47    1.54 
   6  -1   9   18.08    1.46 
  -6  -1  -9   19.53    1.67 
  -6  -1  -9   13.90    1.44 
   6  -1   9   17.57    1.71 
  -6  -1  -9   16.58    1.42 
  -6   1  -9   14.69    1.47 
   6   1   9   15.96    1.52 
   6   1   9   15.12    1.67 
  -6   1  -9   16.24    1.43 
  -6   1  -9   16.22    1.43 
   6   1   9   17.15    1.25 
  -6   1  -9   17.78    1.50 
  -7  -1  -9   10.63    1.68 
   7  -1   9    8.20    1.47 
  -7  -1  -9   10.97    1.17 
  -7  -1  -9    7.68    0.98 
  -7  -1  -9    7.71    1.10 
   7  -1   9    6.01    1.12 
   7  -1   9    8.96    1.25 
  -7   1  -9   11.80    1.24 
   7   1   9    8.40    1.05 
  -7   1  -9    7.47    1.31 
  -7   1  -9    6.50    1.11 
   7   1   9    7.87    1.37 
   7   1   9    6.71    1.38 
  -7   1  -9    9.36    1.17 
   8  -1   9    0.51    0.89 
   8  -1   9    1.20    0.86 
  -8  -1  -9    2.48    0.69 
  -8  -1  -9    0.76    0.64 
  -8  -1  -9    1.82    0.74 
  -8  -1  -9    1.69    1.00 
   8   1   9    1.55    1.13 
   8   1   9    2.03    0.73 
   8   1   9    1.52    0.81 
  -8   1  -9    2.70    0.77 
  -8   1  -9    2.72    1.01 
  -8   1  -9    2.14    0.82 
  -8   1  -9    1.40    0.68 
   9  -1   9   17.84    1.93 
  -9  -1  -9   12.26    1.50 
  -9  -1  -9   14.15    1.26 
  -9  -1  -9   12.10    1.10 
  -9  -1  -9   12.30    1.14 
   9  -1   9   15.75    1.52 
  -9   1  -9   11.23    1.26 
  -9   1  -9   12.54    1.19 
   9   1   9   11.43    1.77 
  -9   1  -9   11.49    1.37 
   9   1   9   15.23    1.29 
   9   1   9   11.49    1.44 
  10  -1   9    1.12    0.99 
 -10  -1  -9    1.33    0.58 
 -10  -1  -9    1.29    0.81 
  10  -1   9    3.26    1.00 
 -10  -1  -9    1.57    0.95 
 -10  -1  -9    2.30    0.65 
  10   1   9    2.35    1.16 
 -10   1  -9    1.42    0.87 
 -10   1  -9    2.11    0.75 
  10   1   9    2.02    1.08 
  10  -2  -9    0.80    0.90 
  10  -2  -9    1.87    0.92 
 -10  -2   9    1.71    0.90 
 -10   2   9    4.81    0.95 
  10   2  -9    1.63    0.75 
  10   2  -9    4.55    1.29 
  10   2  -9    0.99    1.16 
  -9  -2   9   29.10    2.06 
   9  -2  -9   25.39    2.12 
   9  -2  -9   25.68    1.92 
   9  -2  -9   27.39    1.81 
  -9  -2   9   27.29    1.51 
   9  -2  -9   27.99    2.04 
   9   2  -9   30.50    1.64 
  -9   2   9   30.48    1.81 
   9   2  -9   27.89    2.44 
   9   2  -9   29.19    1.83 
   8  -2  -9   13.09    1.35 
  -8  -2   9   11.29    1.43 
   8  -2  -9   11.32    1.49 
   8  -2  -9   12.59    1.39 
   8  -2  -9   11.84    1.56 
  -8  -2   9   11.68    0.99 
   8   2  -9   12.04    1.20 
  -8   2   9   10.23    1.14 
   8   2  -9    9.99    1.44 
   8   2  -9   13.08    2.06 
   7  -2  -9    6.19    1.15 
   7  -2  -9    8.84    1.45 
   7  -2  -9   12.95    1.54 
   7  -2  -9    8.74    1.43 
  -7  -2   9    6.37    0.83 
  -7  -2   9    6.68    1.22 
   7   2  -9    8.69    1.31 
   7   2  -9    6.54    1.53 
  -7   2   9    9.35    1.23 
   7   2  -9    8.30    1.13 
  -6  -2   9   28.18    1.94 
   6  -2  -9   25.98    2.00 
   6  -2  -9   25.82    1.81 
   6  -2  -9   26.44    1.96 
   6  -2  -9   27.00    1.76 
   6  -2  -9   25.59    1.90 
  -6  -2   9   27.33    1.37 
   6  -2  -9   28.05    1.93 
   6   2  -9   24.64    1.80 
  -6   2   9   26.26    1.72 
   6   2  -9   28.64    2.32 
   6   2  -9   26.01    0.86 
   6   2  -9   26.56    1.54 
   5  -2  -9   31.16    1.92 
  -5  -2   9   28.93    1.18 
  -5  -2   9   31.01    1.45 
   5  -2  -9   29.95    2.06 
  -5  -2   9   28.65    1.99 
   5  -2  -9   31.31    2.14 
  -5  -2   9   39.26    3.15 
   5  -2  -9   29.35    1.91 
  -5  -2   9   31.22    2.00 
   5  -2  -9   31.85    1.87 
  -5   2   9   29.31    1.88 
   5   2  -9   28.36    1.94 
   5   2  -9   30.50    1.16 
   5   2  -9   29.34    2.29 
   5   2  -9   28.11    1.90 
   5   2  -9   32.07    1.59 
  -5   2   9   28.06    1.79 
  -4  -2   9   38.15    1.63 
   4  -2  -9   37.15    2.11 
  -4  -2   9   36.63    2.13 
  -4  -2   9   36.58    2.27 
   4  -2  -9   35.66    2.23 
   4  -2  -9   35.04    2.02 
   4  -2  -9   36.04    2.29 
  -4  -2   9   36.93    2.23 
   4  -2  -9   36.09    2.02 
   4   2  -9   35.17    2.07 
   4   2  -9   35.19    1.41 
   4   2  -9   37.70    2.20 
  -4   2   9   36.32    2.02 
   4   2  -9   38.46    2.39 
   4   2  -9   36.59    1.71 
  -4   2   9   36.61    2.09 
   3  -2  -9   12.26    1.31 
   3  -2  -9   12.01    1.24 
   3  -2  -9   10.83    1.39 
  -3  -2   9   12.49    1.00 
   3  -2  -9   10.25    1.36 
  -3  -2   9   12.14    1.39 
  -3  -2   9   12.20    1.27 
   3  -2  -9   15.32    1.59 
  -3  -2   9   11.07    1.42 
  -3   2   9   10.12    1.17 
   3   2  -9   11.28    1.29 
  -3   2   9    9.88    1.22 
   3   2  -9   11.96    1.38 
   3   2  -9   11.61    1.43 
  -3   2   9   13.59    0.75 
   3   2  -9   12.65    0.94 
  -3   2   9    9.91    0.71 
   3   2  -9   12.02    1.04 
  -3   2   9   10.29    1.23 
   2  -2  -9   11.64    1.45 
  -2  -2   9   11.71    1.02 
   2  -2  -9   10.91    1.32 
  -2  -2   9   11.96    1.46 
  -2  -2   9   11.86    1.27 
  -2  -2   9   11.94    0.98 
   2  -2  -9   10.08    1.19 
  -2  -2   9   11.99    1.40 
   2  -2  -9   13.00    1.41 
   2  -2  -9   11.45    1.49 
  -2   2   9   10.62    1.08 
   2   2  -9    9.03    0.91 
   2   2  -9   10.53    1.24 
  -2   2   9   11.63    0.86 
   2   2  -9   12.31    1.41 
   2   2  -9   11.77    1.40 
  -2   2   9    9.91    1.22 
   2   2  -9   11.46    1.05 
  -2   2   9   13.13    1.34 
  -2   2   9   11.67    0.89 
  -1  -2   9   15.64    1.39 
  -1  -2   9   16.10    1.51 
   1  -2  -9   16.32    1.57 
   1  -2  -9   20.22    1.71 
  -1  -2   9   17.30    1.24 
   1  -2  -9   17.84    1.65 
   1  -2  -9   17.84    1.44 
  -1  -2   9   15.42    1.17 
   1  -2  -9   16.06    1.41 
  -1  -2   9   14.38    1.52 
  -1   2   9   14.36    1.40 
  -1   2   9   19.16    1.26 
   1   2  -9   16.53    1.20 
   1   2  -9   11.04    1.37 
   1   2  -9   15.81    1.53 
   1   2  -9   17.34    1.21 
  -1   2   9   16.48    1.50 
   1   2  -9   14.71    1.44 
  -1   2   9   15.51    1.14 
  -1   2   9   16.60    1.11 
   0  -2   9    5.47    1.23 
   0  -2   9    4.28    0.89 
   0  -2   9    3.50    0.79 
   0  -2  -9    2.85    0.88 
   0  -2   9    4.89    0.99 
   0  -2   9    4.86    1.13 
   0  -2  -9    5.06    1.20 
   0  -2  -9    4.65    0.87 
   0  -2  -9    4.71    1.05 
   0  -2  -9    4.92    1.19 
   0   2   9    4.70    0.97 
   0   2   9    5.56    1.12 
   0   2  -9    5.10    0.90 
   0   2   9    4.77    0.87 
   0   2  -9    4.27    1.06 
   0   2   9    3.12    0.69 
   0   2  -9    6.65    1.19 
   0   2  -9    3.96    1.02 
   0   2   9    4.64    0.82 
   0   2  -9    4.89    0.92 
  -1  -2  -9    3.71    1.02 
  -1  -2  -9    7.36    1.40 
  -1  -2  -9    5.06    1.10 
   1  -2   9    6.82    1.04 
   1  -2   9    6.71    1.17 
  -1  -2  -9    7.10    0.86 
   1  -2   9    6.44    1.09 
   1  -2   9    4.23    1.04 
  -1  -2  -9    3.99    0.96 
   1  -2   9    5.03    1.26 
   1   2   9    6.49    1.03 
   1   2   9    6.55    1.27 
   1   2   9    7.34    0.79 
  -1   2  -9    7.32    1.10 
  -1   2  -9    6.39    1.17 
  -1   2  -9    6.54    1.25 
   1   2   9    6.55    1.16 
  -1   2  -9    5.68    1.14 
  -1   2  -9    7.31    1.05 
  -2  -2  -9    6.32    1.11 
  -2  -2  -9    5.36    1.03 
  -2  -2  -9    7.66    0.78 
   2  -2   9   12.74    1.43 
   2  -2   9    8.67    1.41 
  -2  -2  -9    7.92    1.34 
   2  -2   9    8.34    1.24 
  -2  -2  -9    6.55    1.09 
   2  -2   9    8.38    1.20 
   2  -2   9    8.35    1.13 
   2   2   9    9.95    1.20 
   2   2   9    8.67    1.24 
   2   2   9    7.45    0.80 
  -2   2  -9    6.43    1.13 
  -2   2  -9    7.38    1.08 
  -2   2  -9    6.74    1.10 
   2   2   9    9.22    1.37 
   2   2   9    7.82    1.15 
  -2   2  -9    9.03    1.28 
  -2   2  -9    7.61    1.01 
  -3  -2  -9   13.33    1.35 
  -3  -2  -9   13.12    0.90 
  -3  -2  -9   12.71    1.41 
   3  -2   9   13.07    1.32 
  -3  -2  -9   13.77    1.47 
   3  -2   9   11.83    1.42 
   3  -2   9   12.96    1.36 
  -3  -2  -9   14.05    1.38 
   3  -2   9   11.35    1.26 
   3  -2   9   14.09    1.44 
   3   2   9   13.47    0.94 
  -3   2  -9   12.61    1.25 
   3   2   9   11.93    1.31 
  -3   2  -9   11.51    1.37 
  -3   2  -9   11.19    1.34 
   3   2   9   12.50    1.44 
   3   2   9   14.87    1.38 
   3   2   9   13.56    1.41 
  -3   2  -9   13.30    1.26 
  -3   2  -9   12.47    1.36 
   4  -2   9   32.32    2.00 
  -4  -2  -9   36.02    1.43 
   4  -2   9   31.92    2.08 
  -4  -2  -9   32.84    2.01 
   4  -2   9   32.28    2.05 
  -4  -2  -9   34.13    2.04 
  -4  -2  -9   30.88    2.05 
   4  -2   9   32.18    1.88 
   4  -2   9   29.01    1.87 
  -4   2  -9   33.66    1.91 
  -4   2  -9   33.66    2.06 
  -4   2  -9   33.00    2.02 
   4   2   9   30.62    1.97 
   4   2   9   32.93    1.44 
   4   2   9   29.17    2.10 
  -4   2  -9   35.65    2.02 
  -4   2  -9   34.94    2.13 
   4   2   9   32.59    2.11 
   4   2   9   31.46    2.00 
  -5  -2  -9   12.57    1.38 
   5  -2   9   13.51    1.40 
   5  -2   9   12.13    1.51 
   5  -2   9   11.45    1.27 
  -5  -2  -9   12.20    1.26 
   5  -2   9   12.73    1.43 
  -5  -2  -9   10.86    1.41 
  -5  -2  -9   10.72    1.31 
  -5  -2  -9   13.03    0.89 
   5  -2   9   11.96    1.28 
  -5   2  -9   12.48    1.37 
  -5   2  -9   12.36    1.31 
   5   2   9   11.00    1.35 
   5   2   9   10.47    1.40 
  -5   2  -9   14.54    1.33 
   5   2   9   13.65    1.04 
  -5   2  -9   12.05    1.46 
  -5   2  -9   11.51    1.32 
   5   2   9   11.14    1.84 
   5   2   9   10.19    1.54 
  -6  -2  -9    8.30    1.10 
   6  -2   9    8.60    1.15 
   6  -2   9    6.37    1.16 
  -6  -2  -9    8.35    1.17 
  -6  -2  -9    7.15    1.26 
   6  -2   9    8.84    1.48 
  -6  -2  -9    8.40    0.79 
  -6   2  -9   10.87    1.18 
   6   2   9   10.08    0.97 
  -6   2  -9   10.22    1.31 
  -6   2  -9    7.12    1.31 
  -6   2  -9    9.89    1.27 
   6   2   9    6.84    1.37 
   6   2   9    6.97    1.24 
   7  -2   9    4.70    1.03 
  -7  -2  -9    6.01    1.09 
  -7  -2  -9    5.45    0.99 
  -7  -2  -9    4.62    1.05 
   7  -2   9    7.10    1.42 
  -7  -2  -9    6.16    0.76 
   7   2   9    6.20    1.17 
   7   2   9    4.31    0.82 
  -7   2  -9    6.87    1.08 
  -7   2  -9    5.24    1.13 
  -7   2  -9    4.77    1.05 
  -7   2  -9    6.79    1.23 
   7   2   9    6.19    1.37 
  -8  -2  -9   19.07    1.19 
   8  -2   9   18.63    1.54 
   8  -2   9   19.78    1.98 
  -8  -2  -9   18.79    1.43 
  -8  -2  -9   18.15    1.36 
  -8  -2  -9   21.57    1.88 
   8   2   9   20.02    1.22 
   8   2   9   20.78    2.01 
   8   2   9   21.24    1.82 
  -8   2  -9   16.78    1.67 
  -8   2  -9   20.76    1.58 
  -8   2  -9   21.46    1.52 
  -9  -2  -9    3.44    0.77 
  -9  -2  -9    2.98    1.14 
   9  -2   9    6.14    1.12 
  -9  -2  -9    6.58    0.92 
   9  -2   9    4.17    1.38 
  -9   2  -9    4.05    0.85 
  -9   2  -9    5.10    1.10 
   9   2   9    3.29    1.11 
  -9   2  -9    3.86    0.89 
   9   2   9    6.70    0.90 
   9   2   9    2.99    0.95 
  10  -2   9    2.10    0.91 
 -10  -2  -9    0.46    0.94 
  10  -2   9    0.64    1.44 
 -10  -2  -9    0.40    0.50 
  10   2   9    3.01    0.82 
 -10   2  -9    0.19    0.75 
 -10   2  -9    0.52    0.79 
  10   2   9    1.38    0.92 
  10  -3  -9   -0.93    0.57 
 -10  -3   9    0.43    0.86 
 -10   3   9    0.86    0.64 
   9  -3  -9    3.84    1.11 
   9  -3  -9    5.54    1.11 
  -9  -3   9    2.45    1.06 
   9  -3  -9    3.31    1.17 
   9  -3  -9    2.09    1.01 
  -9   3   9    3.33    0.80 
   9   3  -9    4.43    0.93 
   9   3  -9    0.85    1.14 
  -8  -3   9    4.36    1.14 
   8  -3  -9    5.09    1.01 
   8  -3  -9    5.72    1.24 
   8  -3  -9    4.98    1.25 
   8  -3  -9    6.72    1.41 
   8   3  -9    4.33    1.01 
  -8   3   9    4.24    0.96 
   8   3  -9    3.31    1.35 
   8   3  -9    5.08    0.55 
  -7  -3   9   11.35    0.81 
  -7  -3   9   11.34    1.40 
   7  -3  -9   10.23    1.40 
   7  -3  -9   13.32    1.31 
  -7  -3   9   11.13    0.78 
  -7  -3   9   11.87    1.42 
   7  -3  -9   13.29    1.82 
   7  -3  -9   13.23    1.49 
   7   3  -9   12.25    0.78 
   7   3  -9   12.73    1.68 
  -7   3   9   11.93    1.18 
   7   3  -9   11.52    1.34 
  -6  -3   9    7.02    1.14 
  -6  -3   9    7.04    0.78 
  -6  -3   9    9.66    0.72 
   6  -3  -9    9.76    1.49 
  -6  -3   9    9.30    1.31 
   6  -3  -9    8.70    1.11 
   6  -3  -9   11.17    1.51 
   6  -3  -9    8.51    1.30 
  -6   3   9    8.23    1.09 
   6   3  -9    9.91    0.80 
   6   3  -9   11.44    1.35 
   6   3  -9    9.49    0.78 
   6   3  -9   10.26    1.81 
  -5  -3   9   18.13    1.12 
   5  -3  -9   19.65    1.50 
  -5  -3   9   17.43    0.95 
  -5  -3   9   16.59    1.63 
   5  -3  -9   20.59    1.59 
   5  -3  -9   19.95    1.74 
   5  -3  -9   18.81    1.54 
   5  -3  -9   21.03    1.82 
  -5  -3   9   18.34    1.61 
   5  -3  -9   19.88    1.66 
   5   3  -9   19.15    1.10 
   5   3  -9   17.14    1.60 
   5   3  -9   18.08    1.84 
   5   3  -9   17.95    1.03 
  -5   3   9   20.93    1.52 
  -4  -3   9    4.15    1.12 
   4  -3  -9    5.63    1.00 
  -4  -3   9    5.20    1.19 
   4  -3  -9    3.43    1.00 
   4  -3  -9    5.00    1.03 
   4  -3  -9    4.64    1.13 
   4  -3  -9    3.78    1.01 
  -4  -3   9    5.32    0.79 
   4  -3  -9    4.28    1.06 
  -4  -3   9    5.26    0.66 
   4   3  -9    3.76    1.06 
   4   3  -9    4.87    0.71 
   4   3  -9    3.18    1.03 
  -4   3   9    4.41    0.60 
  -4   3   9    2.85    1.03 
  -4   3   9    4.12    0.93 
   4   3  -9    4.19    0.73 
   3  -3  -9   18.07    1.65 
   3  -3  -9   16.35    1.30 
  -3  -3   9   14.70    1.56 
  -3  -3   9   15.53    1.61 
   3  -3  -9   15.04    1.58 
  -3  -3   9   15.02    1.12 
   3  -3  -9   13.90    1.53 
  -3  -3   9   13.15    0.93 
  -3  -3   9   13.18    1.41 
   3  -3  -9   14.02    1.27 
   3  -3  -9   13.24    1.32 
   3   3  -9   14.16    1.58 
  -3   3   9   12.92    0.88 
  -3   3   9   14.51    1.37 
  -3   3   9   14.11    1.40 
   3   3  -9   12.33    1.08 
   3   3  -9   15.62    1.55 
   3   3  -9   13.62    0.95 
   3   3  -9   13.62    1.38 
  -2  -3   9   38.77    2.22 
   2  -3  -9   40.32    2.40 
   2  -3  -9   46.78    2.57 
   2  -3  -9   43.83    1.98 
   2  -3  -9   41.37    2.18 
   2  -3  -9   47.47    2.13 
  -2  -3   9   45.63    2.50 
  -2  -3   9   44.70    1.77 
  -2  -3   9   43.95    2.51 
   2  -3  -9   44.63    2.50 
  -2  -3   9   44.33    1.98 
   2   3  -9   43.75    1.94 
  -2   3   9   40.99    2.30 
  -2   3   9   43.80    1.80 
   2   3  -9   44.03    1.78 
   2   3  -9   43.97    2.50 
   2   3  -9   44.93    2.34 
   2   3  -9   42.75    2.42 
  -2   3   9   49.07    2.37 
   1  -3  -9   22.00    1.52 
   1  -3  -9   24.78    1.68 
  -1  -3   9   23.44    1.66 
   1  -3  -9   23.36    1.85 
   1  -3  -9   19.26    1.83 
  -1  -3   9   22.77    1.87 
  -1  -3   9   25.40    1.39 
  -1  -3   9   23.61    1.50 
   1  -3  -9   20.14    1.74 
  -1   3   9   24.71    1.77 
   1   3  -9   24.94    1.90 
  -1   3   9   25.14    1.76 
   1   3  -9   23.56    1.48 
   1   3  -9   21.82    1.64 
  -1   3   9   22.04    1.36 
   1   3  -9   23.86    1.34 
   1   3  -9   23.10    1.84 
   0  -3  -9   -0.05    0.83 
   0  -3   9   -0.29    0.56 
   0  -3  -9    0.44    0.55 
   0  -3   9    1.41    0.89 
   0  -3  -9   -0.07    0.48 
   0  -3   9    0.15    0.61 
   0  -3  -9    0.73    0.76 
   0  -3   9    1.20    0.72 
   0  -3  -9    0.11    0.71 
   0  -3   9    0.38    0.66 
   0   3   9    0.68    0.74 
   0   3  -9    0.30    0.69 
   0   3  -9    1.01    0.78 
   0   3  -9    0.00    0.50 
   0   3   9    0.50    0.69 
   0   3  -9   -0.32    0.61 
   0   3   9   -0.44    0.50 
  -1  -3  -9   57.55    2.70 
  -1  -3  -9   60.01    2.85 
   1  -3   9   67.82    3.09 
   1  -3   9   59.42    2.64 
  -1  -3  -9   62.06    2.02 
  -1  -3  -9   57.75    2.83 
  -1  -3  -9   63.53    2.93 
   1  -3   9   59.29    2.64 
   1  -3   9   64.19    2.57 
   1  -3   9   59.01    2.89 
   1   3   9   63.39    2.83 
   1   3   9   59.47    2.53 
  -1   3  -9   62.74    2.45 
  -1   3  -9   57.05    2.86 
  -1   3  -9   58.78    2.60 
  -1   3  -9   59.72    2.68 
   1   3   9   58.68    2.79 
  -1   3  -9   60.28    2.91 
  -2  -3  -9   41.37    2.33 
   2  -3   9   42.40    2.39 
   2  -3   9   38.12    2.34 
  -2  -3  -9   41.75    2.27 
   2  -3   9   42.08    2.06 
  -2  -3  -9   37.68    1.37 
   2  -3   9   38.71    2.07 
  -2  -3  -9   40.68    2.29 
   2  -3   9   40.09    2.17 
  -2  -3  -9   38.91    2.30 
  -2   3  -9   34.52    2.22 
  -2   3  -9   42.34    2.40 
  -2   3  -9   40.48    2.10 
  -2   3  -9   41.18    1.99 
  -2   3  -9   39.67    2.17 
   2   3   9   35.13    2.15 
   2   3   9   40.00    2.28 
   2   3   9   39.34    2.09 
   2   3   9   40.66    1.40 
   3  -3   9   16.94    1.40 
  -3  -3  -9   16.00    1.49 
   3  -3   9   13.80    1.46 
   3  -3   9   17.42    1.62 
  -3  -3  -9   15.46    1.46 
  -3  -3  -9   18.23    1.62 
   3  -3   9   15.62    1.56 
   3  -3   9   16.80    1.40 
  -3  -3  -9   16.33    1.58 
  -3   3  -9   16.18    1.57 
   3   3   9   15.24    1.52 
   3   3   9   16.74    1.55 
   3   3   9   13.07    1.39 
  -3   3  -9   14.25    1.30 
   3   3   9   17.38    1.58 
  -3   3  -9   17.37    1.58 
  -3   3  -9   17.72    1.66 
  -3   3  -9   15.08    1.36 
  -4  -3  -9    5.88    1.23 
   4  -3   9    6.66    1.30 
  -4  -3  -9    5.46    1.14 
   4  -3   9    4.70    1.14 
   4  -3   9    5.40    1.05 
   4  -3   9    6.03    1.14 
   4  -3   9    7.18    1.31 
   4   3   9    5.29    1.17 
   4   3   9    5.21    1.13 
  -4   3  -9    6.47    1.30 
  -4   3  -9    5.89    1.00 
  -4   3  -9    6.92    1.10 
   4   3   9    4.86    1.14 
   4   3   9    7.37    1.33 
  -4   3  -9    3.80    1.07 
  -4   3  -9    4.67    1.09 
  -5  -3  -9   49.96    2.53 
   5  -3   9   48.09    2.44 
  -5  -3  -9   52.61    2.46 
   5  -3   9   52.50    2.72 
   5  -3   9   51.36    2.32 
  -5  -3  -9   46.72    2.62 
   5  -3   9   48.07    2.85 
   5   3   9   54.34    2.68 
  -5   3  -9   50.24    2.63 
  -5   3  -9   49.12    2.30 
  -5   3  -9   48.37    2.59 
  -5   3  -9   50.47    2.51 
   5   3   9   47.81    2.66 
  -6  -3  -9   12.26    1.35 
  -6  -3  -9   12.94    1.48 
   6  -3   9   12.03    1.25 
  -6  -3  -9   11.66    1.23 
   6  -3   9   14.28    1.62 
  -6   3  -9   14.39    1.54 
   6   3   9   12.07    1.46 
  -6   3  -9   13.23    1.47 
  -6   3  -9   13.87    1.27 
   6   3   9   12.05    1.62 
  -7  -3  -9    3.44    0.84 
  -7  -3  -9    3.76    0.96 
   7  -3   9    3.97    0.94 
   7  -3   9    3.22    1.15 
  -7  -3  -9    2.44    0.93 
  -7   3  -9    3.37    1.02 
   7   3   9    8.44    1.44 
   7   3   9    3.21    0.98 
  -7   3  -9    2.35    0.80 
  -7   3  -9    3.42    0.99 
  -8  -3  -9    1.55    0.83 
   8  -3   9    1.31    0.70 
  -8  -3  -9    1.89    0.64 
   8  -3   9    0.70    0.77 
  -8  -3  -9    1.70    0.77 
   8  -3   9    0.99    0.96 
  -8   3  -9    1.08    0.77 
  -8   3  -9    1.95    0.98 
   8   3   9    1.21    0.82 
  -8   3  -9    2.68    0.83 
   8   3   9    2.05    0.99 
   9  -3   9    9.19    1.65 
  -9  -3  -9    6.14    1.32 
  -9  -3  -9    7.56    1.08 
   9  -3   9    4.84    1.18 
   9  -3   9    8.25    1.09 
  -9  -3  -9    7.72    1.10 
   9   3   9    7.77    1.58 
   9   3   9    8.03    1.56 
  -9   3  -9    7.81    1.05 
  -9   3  -9    9.22    1.56 
  -9   3  -9    7.07    1.23 
 -10  -3  -9    1.22    0.81 
 -10  -3  -9    1.57    0.54 
  10  -3   9    2.32    0.79 
 -10   3  -9    1.79    0.95 
  -9  -4   9   14.17    0.99 
   9  -4  -9   14.08    1.62 
   9   4  -9   13.10    2.13 
  -9   4   9   11.18    1.10 
   8  -4  -9    2.23    0.93 
   8  -4  -9    2.30    1.05 
   8  -4  -9    0.71    0.63 
   8  -4  -9    1.52    0.83 
  -8  -4   9    0.64    0.74 
  -8  -4   9    0.11    0.51 
  -8  -4   9    1.69    0.87 
  -8   4   9    1.51    0.66 
   8   4  -9    1.28    1.06 
   8   4  -9    0.07    0.73 
   8   4  -9    1.11    0.52 
   7  -4  -9    2.38    0.81 
  -7  -4   9    4.40    1.13 
  -7  -4   9    1.69    0.96 
   7  -4  -9    2.82    0.95 
  -7  -4   9    3.08    0.74 
   7  -4  -9    2.52    1.08 
   7  -4  -9    3.01    1.08 
   7   4  -9    3.58    1.35 
   7   4  -9    2.66    0.98 
  -7   4   9    4.26    0.86 
   7   4  -9    3.56    0.70 
   6  -4  -9   55.66    2.65 
   6  -4  -9   52.94    2.89 
  -6  -4   9   51.24    2.73 
   6  -4  -9   51.01    2.35 
  -6  -4   9   51.65    2.70 
   6  -4  -9   51.47    2.73 
  -6  -4   9   49.96    2.12 
  -6   4   9   55.37    2.34 
   6   4  -9   51.38    2.04 
  -6   4   9   52.22    1.45 
   6   4  -9   51.03    2.66 
   6   4  -9   50.86    2.94 
  -5  -4   9   20.37    1.76 
   5  -4  -9   19.49    1.55 
   5  -4  -9   18.93    1.55 
   5  -4  -9   21.70    1.02 
  -5  -4   9   19.92    1.80 
  -5  -4   9   20.27    1.37 
   5  -4  -9   19.66    1.74 
   5  -4  -9   21.28    1.97 
   5  -4  -9   19.16    1.48 
  -5   4   9   20.88    1.00 
   5   4  -9   21.04    1.31 
   5   4  -9   23.93    2.00 
   5   4  -9   19.99    1.73 
  -5   4   9   23.50    1.57 
  -4  -4   9    7.07    1.40 
   4  -4  -9    4.18    1.01 
   4  -4  -9    7.41    1.12 
   4  -4  -9    5.86    0.73 
   4  -4  -9    7.47    1.17 
   4  -4  -9    5.63    1.03 
  -4  -4   9    5.38    1.27 
  -4  -4   9    5.59    0.93 
   4  -4  -9    5.56    1.29 
   4   4  -9    6.37    0.98 
  -4   4   9    6.28    0.72 
   4   4  -9    9.77    1.39 
   4   4  -9    7.29    1.47 
   3  -4  -9    7.94    1.53 
   3  -4  -9    6.50    1.00 
   3  -4  -9    8.10    1.42 
   3  -4  -9    5.97    1.00 
  -3  -4   9    6.71    1.25 
   3  -4  -9    6.53    0.83 
  -3  -4   9    6.43    1.33 
   3  -4  -9    5.76    1.01 
  -3  -4   9    6.13    1.01 
  -3   4   9    5.34    0.82 
   3   4  -9    6.88    1.24 
   3   4  -9    7.06    1.35 
   3   4  -9    5.48    0.98 
  -3   4   9    6.72    1.16 
   2  -4  -9   18.47    1.74 
   2  -4  -9   14.68    1.40 
  -2  -4   9   21.45    1.67 
   2  -4  -9   17.98    1.25 
   2  -4  -9   24.29    1.97 
  -2  -4   9   17.18    1.03 
  -2  -4   9   18.81    1.74 
  -2  -4   9   19.46    1.45 
   2  -4  -9   19.27    1.35 
   2  -4  -9   19.23    1.27 
   2   4  -9   21.04    1.69 
  -2   4   9   18.90    1.58 
   2   4  -9   18.72    1.39 
   2   4  -9   22.40    1.85 
   2   4  -9   20.23    1.03 
  -2   4   9   19.38    1.29 
   2   4  -9   19.60    1.81 
   1  -4  -9   12.71    1.32 
   1  -4  -9   13.46    1.74 
   1  -4  -9   13.13    1.20 
  -1  -4   9   12.44    1.48 
   1  -4  -9   13.00    0.96 
  -1  -4   9   16.79    1.09 
   1  -4  -9   13.16    1.51 
  -1  -4   9   12.75    1.35 
   1  -4  -9   14.06    1.20 
  -1  -4   9   13.03    1.29 
   1   4  -9   12.12    1.25 
  -1   4   9   15.33    1.27 
  -1   4   9   14.11    1.46 
   1   4  -9   13.81    0.96 
   1   4  -9   12.21    1.54 
   1   4  -9   14.15    1.62 
   1   4  -9   11.99    1.39 
   0  -4   9    2.31    0.97 
   0  -4  -9    4.15    1.21 
   0  -4   9    2.50    0.90 
   0  -4  -9    1.33    0.95 
   0  -4  -9    2.59    0.60 
   0  -4   9    1.94    0.83 
   0  -4   9    2.67    0.83 
   0  -4  -9    3.83    0.86 
   0  -4  -9    1.78    0.73 
   0   4   9    1.64    0.83 
   0   4  -9    3.38    1.09 
   0   4  -9    1.97    0.91 
   0   4   9    1.45    0.80 
   0   4  -9    2.32    0.82 
   0   4  -9    2.57    0.65 
   0   4  -9    3.89    0.91 
   0   4   9    2.72    0.79 
  -1  -4  -9   19.78    1.55 
   1  -4   9   20.82    1.75 
  -1  -4  -9   20.80    1.83 
  -1  -4  -9   20.17    1.73 
   1  -4   9   22.32    1.70 
   1  -4   9   23.56    1.51 
   1  -4   9   21.25    1.57 
  -1  -4  -9   18.81    1.58 
  -1   4  -9   20.48    1.63 
   1   4   9   20.32    1.78 
  -1   4  -9   19.55    1.79 
   1   4   9   19.17    1.63 
   1   4   9   21.18    1.58 
  -1   4  -9   21.03    1.36 
  -1   4  -9   21.33    1.85 
  -1   4  -9   17.83    1.54 
   2  -4   9    6.99    1.14 
   2  -4   9    6.13    1.13 
  -2  -4  -9    6.58    1.27 
  -2  -4  -9    4.08    1.00 
  -2  -4  -9    4.11    0.93 
   2  -4   9    7.83    1.36 
   2  -4   9    7.80    1.03 
  -2  -4  -9    7.78    1.22 
   2   4   9    5.30    1.04 
   2   4   9    6.95    1.20 
  -2   4  -9    9.48    1.56 
  -2   4  -9    6.72    1.41 
  -2   4  -9    5.48    1.09 
  -2   4  -9    7.36    1.23 
  -3  -4  -9    5.05    1.07 
   3  -4   9    4.37    1.10 
   3  -4   9    5.24    0.95 
   3  -4   9    4.75    1.01 
   3  -4   9    5.55    1.25 
  -3  -4  -9    5.33    1.14 
  -3  -4  -9    3.59    0.98 
  -3   4  -9    5.01    1.17 
   3   4   9    4.07    1.04 
  -3   4  -9    4.04    0.95 
  -3   4  -9    3.81    1.07 
   3   4   9    5.30    1.24 
  -4  -4  -9    2.85    0.98 
   4  -4   9    2.94    0.86 
   4  -4   9    3.84    1.09 
  -4  -4  -9    3.32    1.00 
   4  -4   9    3.62    0.89 
   4  -4   9    3.86    1.07 
  -4   4  -9    2.97    1.04 
  -4   4  -9    3.38    0.92 
  -4   4  -9    2.69    0.93 
   5  -4   9   21.37    1.47 
  -5  -4  -9   21.55    1.80 
  -5  -4  -9   19.71    1.70 
   5  -4   9   17.83    1.78 
  -5  -4  -9   20.45    1.62 
   5  -4   9   20.78    1.70 
  -5   4  -9   18.36    1.77 
  -5   4  -9   17.89    1.46 
   5   4   9   21.00    1.76 
  -5   4  -9   21.74    1.86 
   6  -4   9   16.02    1.72 
   6  -4   9   13.82    1.21 
  -6  -4  -9   15.25    1.59 
  -6  -4  -9   16.17    1.44 
  -6   4  -9   15.59    1.31 
   6   4   9   14.04    1.58 
   6   4   9   14.09    1.67 
  -6   4  -9   16.77    1.66 
  -6   4  -9   16.97    1.75 
  -7  -4  -9    5.45    1.05 
   7  -4   9    5.66    1.31 
   7  -4   9    4.25    0.86 
  -7  -4  -9    3.40    1.00 
   7  -4   9    4.39    1.29 
  -7   4  -9    2.90    0.97 
   7   4   9    3.68    1.32 
  -7   4  -9    4.89    1.23 
   7   4   9    2.89    1.05 
   8  -4   9    2.33    1.19 
   8  -4   9    3.18    0.79 
   8  -4   9    3.99    1.35 
  -8  -4  -9    3.39    0.94 
  -8  -4  -9    2.02    0.76 
  -8  -4  -9    2.96    1.05 
   8   4   9    2.26    1.28 
  -8   4  -9    4.22    0.82 
  -8   4  -9    2.44    1.06 
  -8   4  -9    2.82    1.00 
   8   4   9    3.09    1.05 
  -9  -4  -9    2.45    0.70 
   9  -4   9    3.97    0.75 
   9  -4   9    2.64    1.41 
  -9  -4  -9    2.74    1.06 
  -9   4  -9    1.30    1.13 
  -8  -5   9    1.80    0.96 
   8  -5  -9    2.04    0.90 
  -8   5   9    2.76    0.71 
   8   5  -9    1.27    1.07 
   7  -5  -9    8.78    1.06 
  -7  -5   9    7.58    1.11 
  -7  -5   9    7.49    1.44 
   7  -5  -9    7.13    1.46 
   7  -5  -9    5.94    1.23 
   7  -5  -9    7.09    0.59 
   7   5  -9    6.48    1.46 
   7   5  -9    7.84    1.41 
   7   5  -9    6.76    1.02 
  -7   5   9    7.28    1.04 
   6  -5  -9    3.14    0.92 
   6  -5  -9    1.79    0.87 
  -6  -5   9    1.46    0.74 
  -6  -5   9    2.19    0.88 
   6  -5  -9    2.23    0.74 
   6  -5  -9    2.60    0.57 
  -6  -5   9    0.40    0.89 
   6   5  -9    3.62    1.00 
   6   5  -9    3.55    1.25 
   6   5  -9    3.79    0.84 
  -6   5   9    1.67    0.96 
  -6   5   9    1.16    0.51 
  -6   5   9    0.75    0.67 
  -5  -5   9   11.27    1.51 
   5  -5  -9   14.50    1.03 
   5  -5  -9   12.59    1.32 
   5  -5  -9   12.18    1.39 
  -5  -5   9   14.10    1.52 
   5  -5  -9    9.63    1.22 
   5  -5  -9   12.64    1.55 
  -5  -5   9   11.81    1.24 
  -5   5   9   13.87    1.02 
  -5   5   9   12.03    1.24 
  -5   5   9   13.54    1.68 
   5   5  -9   12.16    1.21 
   5   5  -9   13.11    1.50 
   5   5  -9   12.26    1.65 
   4  -5  -9    2.57    0.96 
  -4  -5   9    3.32    1.08 
   4  -5  -9    3.59    1.10 
   4  -5  -9    3.62    0.95 
   4  -5  -9    5.08    0.98 
  -4  -5   9    4.83    1.17 
   4  -5  -9    4.20    0.98 
  -4  -5   9    4.67    0.94 
   4  -5  -9    4.13    0.79 
   4   5  -9    5.14    0.99 
   4   5  -9    4.24    1.19 
  -4   5   9    4.65    0.96 
  -4   5   9    4.29    1.20 
   4   5  -9    3.80    1.05 
   3  -5  -9   14.27    1.20 
   3  -5  -9   13.47    1.66 
   3  -5  -9   11.61    1.54 
   3  -5  -9   14.64    1.17 
  -3  -5   9   14.74    1.62 
  -3  -5   9   14.75    1.49 
   3  -5  -9   13.26    1.30 
  -3  -5   9   10.60    1.26 
   3  -5  -9   14.15    1.17 
  -3   5   9   15.12    1.71 
   3   5  -9   12.23    1.29 
   3   5  -9   11.86    1.52 
  -3   5   9   14.31    1.21 
  -3   5   9   12.59    1.38 
   3   5  -9   12.44    1.63 
   2  -5  -9   27.02    2.10 
  -2  -5   9   26.40    2.01 
   2  -5  -9   28.44    1.81 
   2  -5  -9   27.94    1.50 
  -2  -5   9   27.49    1.90 
  -2  -5   9   26.77    1.79 
   2  -5  -9   28.96    2.21 
   2  -5  -9   28.82    1.64 
   2  -5  -9   28.28    1.45 
   2   5  -9   30.02    2.16 
   2   5  -9   27.65    2.19 
  -2   5   9   27.31    1.66 
   2   5  -9   29.10    1.82 
  -2   5   9   27.84    1.89 
  -2   5   9   27.84    2.15 
   1  -5  -9   14.35    0.93 
  -1  -5   9   16.15    0.96 
   1  -5  -9   13.68    1.36 
  -1  -5   9   13.05    0.85 
   1  -5  -9   14.32    1.81 
   1  -5  -9   12.19    1.61 
   1  -5  -9   14.27    1.13 
  -1  -5   9   11.59    1.32 
  -1  -5   9   13.53    1.58 
   1  -5  -9   16.28    1.36 
  -1  -5   9   14.86    1.43 
   1   5  -9   13.65    1.40 
  -1   5   9   14.33    1.33 
  -1   5   9   13.38    1.61 
  -1   5   9   15.60    1.54 
   1   5  -9   12.27    1.58 
   1   5  -9   12.43    1.58 
   0  -5   9    0.50    0.90 
   0  -5   9    0.94    0.75 
   0  -5   9   -0.25    0.64 
   0  -5  -9    0.34    0.69 
   0  -5   9    0.76    0.51 
   0  -5  -9    0.78    0.35 
   0  -5   9    1.77    0.73 
   0  -5  -9    1.52    0.92 
   0  -5  -9    1.20    0.80 
   0   5  -9   -0.36    0.56 
   0   5   9    2.07    0.98 
   0   5  -9    0.72    0.84 
   0   5   9    0.22    0.69 
   0   5  -9    0.09    0.77 
   0   5   9    0.82    0.81 
   1  -5   9   35.85    1.80 
   1  -5   9   35.36    2.36 
  -1  -5  -9   35.07    2.01 
   1  -5   9   35.87    1.70 
   1  -5   9   34.55    2.19 
  -1  -5  -9   36.50    2.34 
   1  -5   9   34.94    2.00 
  -1  -5  -9   35.49    2.30 
  -1   5  -9   34.74    2.38 
   1   5   9   34.10    2.30 
   1   5   9   36.90    2.22 
   1   5   9   35.74    2.13 
  -1   5  -9   35.88    2.36 
  -1   5  -9   32.42    2.05 
   2  -5   9   25.19    1.58 
  -2  -5  -9   29.66    2.07 
   2  -5   9   21.89    1.59 
   2  -5   9   28.21    1.99 
   2  -5   9   24.85    1.55 
  -2  -5  -9   30.18    1.94 
  -2  -5  -9   26.68    1.96 
   2  -5   9   26.21    2.07 
   2   5   9   28.36    1.97 
  -2   5  -9   24.85    2.07 
  -2   5  -9   23.82    2.00 
  -2   5  -9   23.97    1.74 
   2   5   9   24.06    1.98 
   3  -5   9    8.37    1.10 
   3  -5   9    9.51    1.14 
   3  -5   9   10.48    1.16 
  -3  -5  -9   11.23    1.69 
   3  -5   9    9.49    1.57 
  -3  -5  -9   10.07    1.48 
  -3  -5  -9    9.46    1.32 
  -3   5  -9    8.49    1.57 
  -3   5  -9    9.08    1.21 
  -3   5  -9   11.26    1.50 
   3   5   9    9.64    1.42 
   4  -5   9    6.64    1.05 
   4  -5   9    7.62    1.22 
   4  -5   9    8.55    1.57 
  -4  -5  -9    6.42    1.22 
   4  -5   9    7.05    1.18 
  -4  -5  -9    7.94    1.32 
  -4  -5  -9    7.97    1.48 
   4   5   9    4.09    1.17 
  -4   5  -9    9.80    1.34 
  -4   5  -9    9.39    1.69 
  -4   5  -9    7.25    1.34 
  -5  -5  -9   21.26    1.77 
  -5  -5  -9   22.87    1.74 
  -5  -5  -9   20.47    1.81 
   5  -5   9   22.64    1.46 
   5  -5   9   20.29    1.64 
  -5   5  -9   21.43    1.92 
  -5   5  -9   21.61    2.03 
  -5   5  -9   20.67    1.49 
   5   5   9   21.15    1.85 
  -6  -5  -9    5.91    1.21 
   6  -5   9    4.28    1.25 
   6  -5   9    5.88    1.28 
  -6  -5  -9    5.46    1.25 
  -6  -5  -9    6.25    1.15 
   6  -5   9    5.32    0.92 
  -6   5  -9    2.90    1.00 
  -6   5  -9    7.18    1.38 
  -6   5  -9    5.91    0.99 
   6   5   9    5.56    1.26 
  -7  -5  -9    3.41    0.95 
  -7  -5  -9    4.84    1.24 
   7  -5   9    3.54    0.81 
  -7  -5  -9    5.20    1.12 
   7  -5   9    3.50    1.00 
   7  -5   9    1.48    1.01 
  -7   5  -9    3.67    1.12 
   7   5   9    4.95    1.40 
   7   5   9    3.47    1.08 
  -7   5  -9    3.82    1.28 
  -7   5  -9    4.56    0.84 
  -8  -5  -9    0.44    0.79 
   8  -5   9    1.10    0.56 
  -8  -5  -9    0.57    0.79 
   8  -5   9    1.18    0.82 
   6  -6  -9    6.71    0.94 
  -6  -6   9    5.94    1.16 
   6  -6  -9    3.80    1.05 
  -6   6   9    5.02    0.89 
  -6   6   9    6.89    1.61 
  -6   6   9    5.65    0.99 
   6   6  -9    5.74    1.39 
   5  -6  -9    8.24    1.06 
   5  -6  -9    7.65    1.21 
  -5  -6   9    7.71    1.28 
  -5  -6   9    6.81    1.17 
   5  -6  -9    6.85    0.94 
   5  -6  -9    5.90    1.29 
   5   6  -9    6.73    1.42 
  -5   6   9   10.04    1.75 
  -5   6   9    6.43    1.10 
  -5   6   9    8.12    1.13 
   4  -6  -9   11.15    1.76 
   4  -6  -9   11.17    1.19 
   4  -6  -9    9.17    1.16 
  -4  -6   9   12.28    1.83 
   4  -6  -9   12.01    1.15 
  -4  -6   9   11.10    1.43 
  -4  -6   9   10.69    1.51 
   4  -6  -9   10.90    1.18 
   4   6  -9   11.80    1.84 
  -4   6   9    8.93    1.64 
  -4   6   9   11.50    1.23 
   4   6  -9   12.22    1.86 
  -4   6   9    9.15    1.22 
  -3  -6   9    2.18    0.87 
   3  -6  -9    0.38    0.62 
   3  -6  -9    1.51    0.99 
   3  -6  -9    1.73    0.80 
  -3  -6   9    2.05    1.06 
   3  -6  -9   -0.11    0.94 
  -3  -6   9    1.72    0.90 
   3  -6  -9    1.53    0.69 
   3  -6  -9    1.47    0.66 
   3   6  -9    2.80    1.17 
  -3   6   9    3.31    0.92 
   3   6  -9    0.84    0.86 
  -3   6   9    3.32    0.84 
  -3   6   9    1.15    1.06 
   2  -6  -9    1.13    0.68 
   2  -6  -9    1.49    0.54 
   2  -6  -9    2.09    1.06 
   2  -6  -9    0.36    0.91 
  -2  -6   9    1.68    0.90 
  -2  -6   9    1.17    0.83 
  -2  -6   9    1.01    0.83 
   2  -6  -9    2.03    0.64 
  -2   6   9    1.02    0.83 
   2   6  -9    1.77    0.99 
   2   6  -9    1.66    1.08 
  -2   6   9    2.22    0.79 
  -2   6   9    1.06    0.98 
   1  -6  -9    1.44    0.90 
  -1  -6   9    1.04    0.94 
   1  -6  -9    2.43    0.52 
  -1  -6   9    1.91    0.91 
  -1  -6   9    1.23    0.82 
   1  -6  -9    1.33    0.81 
   1  -6  -9    1.85    0.63 
   1  -6  -9    2.43    1.27 
  -1   6   9    1.37    1.07 
   1   6  -9    0.92    0.94 
  -1   6   9    2.30    1.05 
   1   6  -9    1.05    0.79 
   0  -6  -9   -0.23    0.67 
   0  -6   9    0.07    0.77 
   0  -6  -9    0.65    0.87 
   0  -6  -9    0.52    0.73 
   0  -6   9   -0.11    0.60 
   0  -6   9    0.03    0.50 
   0  -6   9    0.98    0.45 
   0  -6   9    0.48    0.81 
   0   6   9    0.17    0.86 
   0   6   9    0.00    0.66 
   0   6  -9    0.94    0.80 
   0   6  -9   -0.37    0.65 
   1  -6   9    0.44    0.84 
  -1  -6  -9    0.42    0.74 
  -1  -6  -9    1.38    0.89 
  -1  -6  -9    3.17    1.02 
   1  -6   9    1.35    0.57 
   1  -6   9    2.57    1.06 
   1  -6   9    1.89    0.71 
   1  -6   9    2.31    0.92 
  -1   6  -9    0.57    0.82 
   1   6   9    2.07    0.96 
   1   6   9    0.81    0.93 
  -1   6  -9    1.09    0.94 
  -2  -6  -9    1.77    0.96 
  -2  -6  -9    1.57    0.89 
   2  -6   9    2.83    0.82 
   2  -6   9    2.64    1.02 
  -2  -6  -9    1.86    0.98 
   2  -6   9    2.49    0.73 
   2  -6   9    2.26    1.02 
  -2   6  -9    2.29    1.04 
   2   6   9    2.20    0.98 
  -2   6  -9    1.92    1.10 
  -2   6  -9    3.50    1.00 
   2   6   9    4.49    1.18 
  -3  -6  -9    6.31    1.32 
   3  -6   9    1.75    0.98 
  -3  -6  -9    2.10    0.94 
   3  -6   9    3.20    0.80 
  -3  -6  -9    1.30    0.93 
   3  -6   9    1.94    0.78 
   3  -6   9    1.52    0.70 
  -3   6  -9    2.47    1.05 
   3   6   9    4.07    1.05 
   3   6   9    2.34    1.03 
  -3   6  -9    4.15    1.05 
  -3   6  -9    1.47    1.03 
   4  -6   9    7.55    1.18 
  -4  -6  -9    8.31    1.45 
  -4  -6  -9    8.10    1.36 
   4  -6   9    8.09    1.16 
  -4  -6  -9    6.68    1.29 
   4  -6   9    8.22    1.56 
  -4   6  -9    6.20    1.47 
  -4   6  -9    6.90    1.55 
   4   6   9    7.85    1.37 
  -4   6  -9    9.27    1.35 
  -5  -6  -9    2.41    0.95 
  -5  -6  -9    2.41    0.99 
   5  -6   9    0.96    0.79 
   5  -6   9    0.10    0.91 
  -5  -6  -9   -0.45    0.64 
   5  -6   9    1.21    0.58 
   5   6   9    0.99    0.91 
  -5   6  -9    0.37    0.80 
  -5   6  -9    2.01    1.08 
  -5   6  -9    2.06    0.72 
  -6  -6  -9    2.99    1.08 
   6  -6   9    3.83    1.02 
   6  -6   9    4.29    0.78 
  -6   6  -9    3.04    1.10 
  -6   6  -9    3.48    0.89 
   4  -7  -9    1.29    0.78 
  -4  -7   9    1.51    0.95 
   4  -7  -9    1.32    0.74 
  -4   7   9    1.51    1.11 
   4   7  -9    0.55    0.88 
  -4   7   9    2.36    0.89 
   3  -7  -9    3.27    0.85 
   3  -7  -9    2.42    0.77 
   3  -7  -9    1.88    0.70 
  -3  -7   9    2.99    1.04 
  -3  -7   9    2.95    1.05 
   3  -7  -9    2.14    1.22 
  -3   7   9    3.47    1.20 
  -3   7   9    3.56    1.03 
   3   7  -9    2.81    1.01 
   2  -7  -9   11.96    1.90 
  -2  -7   9    7.98    1.45 
  -2  -7   9    9.29    1.72 
   2  -7  -9    8.23    1.58 
   2  -7  -9    7.65    0.82 
   2  -7  -9    9.40    0.90 
  -2  -7   9    9.30    1.40 
   2  -7  -9    7.57    1.32 
  -2   7   9   10.97    1.66 
   2   7  -9   10.19    1.76 
  -2   7   9   10.31    1.38 
   2   7  -9   10.73    1.66 
   1  -7  -9    4.95    1.11 
  -1  -7   9    3.93    1.33 
   1  -7  -9    5.29    1.38 
  -1  -7   9    4.82    1.23 
  -1  -7   9    4.24    1.17 
   1  -7  -9    2.87    1.25 
  -1   7   9    4.43    1.39 
   1   7  -9    3.23    1.12 
  -1   7   9    4.06    1.12 
   1   7  -9    4.02    1.10 
   0  -7  -9   -0.02    0.77 
   0  -7  -9   -0.56    0.85 
   0  -7   9    0.80    0.81 
   0  -7   9    0.60    0.78 
   0  -7   9    1.45    1.08 
   0  -7  -9    0.33    0.97 
   0   7   9    0.92    0.77 
   0   7   9    0.04    0.87 
   0   7  -9    0.88    0.83 
   0   7  -9    0.52    0.81 
   1  -7   9   18.34    1.22 
  -1  -7  -9   13.11    1.54 
  -1  -7  -9   12.36    1.64 
   1  -7   9   12.47    1.00 
   1  -7   9   15.89    1.45 
   1  -7   9   13.71    1.68 
  -1  -7  -9   13.46    1.72 
   1  -7   9   11.99    1.81 
   1   7   9   14.72    1.63 
  -1   7  -9   14.32    2.10 
  -1   7  -9   13.01    1.79 
   1   7   9   17.43    1.86 
   2  -7   9    9.97    1.65 
  -2  -7  -9    9.95    1.71 
  -2  -7  -9   12.35    1.62 
   2  -7   9   10.89    1.06 
   2  -7   9   11.80    1.15 
   2  -7   9    9.67    1.21 
   2   7   9   12.20    1.55 
  -2   7  -9   12.03    1.91 
   2   7   9    9.60    1.64 
  -2   7  -9    9.66    1.63 
   3  -7   9    2.01    0.73 
  -3  -7  -9    1.26    1.00 
   3  -7   9    1.63    0.76 
   3  -7   9    0.91    0.74 
  -3  -7  -9    2.33    1.04 
   3  -7   9    1.50    1.55 
  -3   7  -9    0.58    0.95 
   3   7   9    4.25    1.21 
   4  -7   9    4.41    0.88 
  -4  -7  -9    2.10    0.96 
   4  -7   9    3.80    0.96 
  -4   7  -9    2.46    1.06 
  10   0 -10    6.05    1.25 
 -10   0  10    6.18    1.18 
   9   0 -10    0.07    0.84 
  -9   0  10    1.58    0.83 
   9   0 -10   -0.48    0.65 
   9   0 -10   -0.21    0.67 
  -8   0  10    2.15    0.82 
   8   0 -10    2.60    1.15 
   8   0 -10    1.85    0.85 
   7   0 -10    8.36    1.35 
  -7   0  10    8.67    1.23 
   7   0 -10   10.70    1.43 
   7   0 -10   10.70    1.81 
  -7   0  10    8.18    1.30 
   6   0 -10   26.75    2.17 
  -6   0  10   28.10    1.73 
  -6   0  10   27.40    1.89 
   6   0 -10   24.83    1.85 
   6   0 -10   26.51    1.80 
   5   0 -10   22.70    1.88 
   5   0 -10   23.27    1.83 
  -5   0  10   22.28    1.72 
  -5   0  10   22.20    1.55 
   5   0 -10   23.37    1.78 
   5   0 -10   22.37    1.76 
  -5   0  10   21.62    2.12 
   5   0 -10   22.77    2.04 
  -4   0  10   20.24    1.70 
   4   0 -10   21.37    1.74 
  -4   0  10   21.93    1.50 
   4   0 -10   20.38    1.70 
   4   0 -10   19.37    1.68 
   4   0 -10   18.40    1.72 
  -4   0  10   22.34    1.68 
   4   0 -10   15.65    1.80 
  -3   0  10   13.75    0.75 
   3   0 -10   12.61    1.46 
  -3   0  10   12.92    1.43 
   3   0 -10   16.07    1.61 
   3   0 -10   13.08    1.45 
   3   0 -10   13.14    1.42 
  -3   0  10   14.29    1.41 
  -3   0  10   12.69    0.71 
  -3   0  10   13.55    1.26 
   3   0 -10   12.79    1.58 
  -2   0  10   11.84    1.35 
   2   0 -10   12.14    1.31 
  -2   0  10   12.43    0.88 
  -2   0  10   10.34    0.82 
   2   0 -10   12.70    1.46 
  -2   0  10   12.39    1.31 
   2   0 -10   14.05    1.50 
  -2   0  10   11.00    1.20 
   2   0 -10   11.19    1.57 
   2   0 -10   12.25    1.32 
   1   0 -10  142.15    4.52 
  -1   0  10  134.18    4.40 
   1   0 -10  139.49    4.73 
   1   0 -10  139.54    4.46 
   1   0 -10  124.03    4.42 
  -1   0  10  133.96    4.42 
  -1   0  10  137.15    3.88 
  -1   0  10  138.51    3.87 
  -1   0  10  137.03    4.58 
   0   0  10   48.04    2.02 
   0   0  10   47.51    2.41 
   0   0  10   47.78    2.29 
   0   0 -10   49.53    2.38 
   0   0 -10   48.90    2.31 
   0   0 -10   46.18    2.53 
   0   0 -10   46.21    2.49 
   0   0 -10   41.24    2.28 
   0   0  10   48.63    2.33 
   0   0  10   47.23    2.00 
  -1   0 -10   34.44    2.09 
   1   0  10   41.18    2.17 
  -1   0 -10   34.26    2.18 
  -1   0 -10   40.37    2.16 
   1   0  10   37.92    2.02 
  -1   0 -10   36.16    2.24 
   1   0  10   42.91    1.97 
  -1   0 -10   41.73    2.09 
   1   0  10   38.06    2.17 
  -2   0 -10    5.24    0.99 
   2   0  10    3.57    1.00 
   2   0  10    5.83    1.02 
   2   0  10    6.52    1.14 
   2   0  10    5.51    0.99 
  -2   0 -10    4.22    0.93 
  -2   0 -10    7.04    1.26 
   2   0  10    5.84    1.09 
  -2   0 -10    6.02    1.04 
  -3   0 -10   36.21    1.92 
   3   0  10   37.25    2.16 
   3   0  10   35.09    2.02 
   3   0  10   36.01    2.30 
  -3   0 -10   36.84    2.11 
   3   0  10   34.71    2.05 
  -3   0 -10   39.12    2.25 
  -3   0 -10   30.29    2.01 
   3   0  10   35.77    2.09 
   4   0  10   27.66    2.06 
  -4   0 -10   26.05    1.82 
   4   0  10   27.66    1.83 
   4   0  10   26.94    1.89 
  -4   0 -10   25.77    1.62 
  -4   0 -10   28.54    1.94 
   4   0  10   24.92    1.85 
  -4   0 -10   29.48    1.92 
  -4   0 -10   25.72    1.91 
   4   0  10   25.69    1.82 
   5   0  10   17.07    1.46 
  -5   0 -10   16.88    1.56 
  -5   0 -10   17.97    1.39 
   5   0  10   15.53    1.56 
  -5   0 -10   16.27    1.48 
   5   0  10   17.78    1.99 
  -5   0 -10   16.36    1.59 
  -5   0 -10   18.45    1.58 
   5   0  10   16.03    1.66 
   6   0  10   42.33    2.39 
   6   0  10   42.61    2.52 
  -6   0 -10   42.91    2.27 
  -6   0 -10   43.15    2.10 
  -6   0 -10   39.93    2.44 
   6   0  10   41.63    2.15 
  -6   0 -10   42.17    2.29 
   7   0  10   11.33    1.86 
  -7   0 -10   12.04    1.35 
   7   0  10   10.88    1.25 
   7   0  10   13.43    1.79 
  -7   0 -10   11.30    1.44 
  -7   0 -10   10.63    1.21 
  -7   0 -10    9.69    1.27 
  -8   0 -10    8.24    1.16 
   8   0  10   11.95    1.33 
   8   0  10   11.15    1.72 
  -8   0 -10    7.94    1.35 
  -8   0 -10    8.64    1.39 
   8   0  10   11.39    1.79 
   9   0  10    0.96    1.01 
  -9   0 -10   -0.22    0.54 
   9   0  10   -0.10    0.82 
  -9   0 -10   -0.26    0.58 
  -9   0 -10   -0.10    0.82 
  -9   0 -10    0.34    0.69 
 -10   0 -10   20.44    1.69 
  10   0  10   20.86    1.87 
 -10   0 -10   20.60    1.46 
  10  -1 -10    3.59    1.11 
 -10  -1  10    2.74    1.03 
  10   1 -10    5.39    1.04 
 -10   1  10    2.25    0.93 
   9  -1 -10    0.89    0.83 
   9  -1 -10    0.86    0.94 
   9  -1 -10    0.85    0.79 
  -9  -1  10    1.98    0.67 
  -9  -1  10    0.13    0.73 
   9   1 -10    0.33    0.65 
   9   1 -10   -0.54    0.92 
  -9   1  10    1.18    0.78 
   9   1 -10   -0.08    0.69 
  -8  -1  10    3.69    0.99 
   8  -1 -10    4.90    1.04 
  -8  -1  10    5.75    1.02 
   8  -1 -10    5.38    1.22 
   8  -1 -10    2.13    0.90 
   8   1 -10    4.63    1.06 
   8   1 -10    2.98    1.16 
   8   1 -10    3.69    1.05 
  -8   1  10    4.03    0.98 
  -7  -1  10   19.88    1.39 
   7  -1 -10   21.95    1.89 
   7  -1 -10   18.96    1.63 
   7  -1 -10   19.37    1.78 
  -7  -1  10   20.29    1.72 
   7   1 -10   20.06    1.73 
  -7   1  10   20.81    1.64 
   7   1 -10   18.85    2.07 
   7   1 -10   19.60    1.56 
   6  -1 -10    7.72    1.31 
   6  -1 -10    7.08    1.39 
  -6  -1  10    9.03    1.00 
  -6  -1  10   10.35    1.33 
   6  -1 -10    8.96    1.51 
   6  -1 -10    6.73    1.20 
   6   1 -10    5.50    1.35 
   6   1 -10    8.39    1.27 
  -6   1  10   10.10    1.23 
  -6   1  10    7.52    1.15 
   5  -1 -10    1.02    0.73 
  -5  -1  10    2.41    0.90 
   5  -1 -10    1.77    0.93 
   5  -1 -10    1.73    0.85 
   5  -1 -10    1.74    0.86 
   5  -1 -10    1.70    0.91 
  -5  -1  10    2.40    0.73 
   5   1 -10    2.42    0.83 
  -5   1  10    1.64    0.74 
   5   1 -10    0.32    0.73 
  -5   1  10    0.93    0.72 
  -5   1  10    1.46    0.78 
   5   1 -10    1.29    0.86 
   5   1 -10    2.23    1.18 
  -4  -1  10    2.77    0.76 
  -4  -1  10    1.87    0.96 
  -4  -1  10    1.40    0.82 
   4  -1 -10    1.18    0.82 
   4  -1 -10    3.08    0.96 
   4  -1 -10    2.68    1.02 
  -4  -1  10    2.24    0.39 
  -4  -1  10    2.25    0.38 
   4  -1 -10    3.62    0.90 
   4  -1 -10    1.92    0.93 
   4   1 -10    1.77    0.96 
   4   1 -10    2.63    0.84 
  -4   1  10    1.94    0.80 
   4   1 -10    1.62    0.83 
  -4   1  10    1.33    0.70 
  -4   1  10    3.57    0.95 
   4   1 -10    3.18    0.82 
   4   1 -10    4.52    1.12 
  -3  -1  10   29.39    2.00 
   3  -1 -10   27.67    2.04 
  -3  -1  10   29.02    1.98 
   3  -1 -10   28.80    1.87 
  -3  -1  10   32.04    1.72 
   3  -1 -10   30.95    2.14 
   3  -1 -10   28.27    2.09 
  -3  -1  10   26.46    1.19 
  -3  -1  10   33.37    2.03 
   3  -1 -10   29.48    2.07 
  -3   1  10   27.97    1.07 
  -3   1  10   32.01    1.96 
   3   1 -10   30.21    2.05 
  -3   1  10   25.98    1.78 
   3   1 -10   28.64    2.08 
   3   1 -10   29.96    1.73 
  -3   1  10   29.50    1.07 
   3   1 -10   30.44    1.98 
  -3   1  10   28.69    1.85 
  -2  -1  10    1.64    0.56 
   2  -1 -10    1.17    0.79 
  -2  -1  10    2.32    0.72 
  -2  -1  10    0.83    0.88 
  -2  -1  10    1.30    0.79 
  -2  -1  10    0.62    0.67 
   2  -1 -10    0.86    0.78 
   2  -1 -10    1.05    0.80 
   2  -1 -10    0.81    0.88 
   2  -1 -10    1.01    0.84 
   2   1 -10    0.88    0.64 
  -2   1  10    1.36    0.50 
  -2   1  10    0.83    0.64 
   2   1 -10    3.03    0.92 
  -2   1  10    2.12    0.53 
  -2   1  10    1.65    0.77 
   2   1 -10    2.23    0.81 
   2   1 -10    0.69    0.76 
  -2   1  10    3.22    0.94 
  -1  -1  10   12.24    1.38 
   1  -1 -10   12.35    1.48 
  -1  -1  10   12.88    1.38 
  -1  -1  10   15.74    1.12 
  -1  -1  10   10.66    1.43 
   1  -1 -10   14.54    1.59 
   1  -1 -10   12.86    1.30 
   1  -1 -10   15.32    1.41 
   1  -1 -10   10.61    1.34 
  -1  -1  10   13.48    1.24 
  -1   1  10   13.41    1.39 
  -1   1  10   13.65    1.37 
   1   1 -10   12.63    1.47 
  -1   1  10   13.09    1.23 
   1   1 -10   11.88    1.21 
  -1   1  10   13.34    1.01 
   1   1 -10   14.76    1.47 
   1   1 -10   14.25    1.43 
  -1   1  10   14.74    1.07 
   0  -1  10    0.52    0.79 
   0  -1  10    0.65    0.69 
   0  -1  10    0.47    0.69 
   0  -1  10    0.36    0.70 
   0  -1 -10    0.11    0.66 
   0  -1 -10    0.06    0.67 
   0  -1  10    0.43    0.55 
   0  -1 -10   -0.03    0.65 
   0  -1 -10    0.02    0.56 
   0  -1 -10    0.46    0.75 
   0   1  10    0.23    0.60 
   0   1 -10   -0.12    0.68 
   0   1  10    1.30    0.61 
   0   1  10    0.18    0.57 
   0   1 -10    0.13    0.73 
   0   1 -10    0.55    0.58 
   0   1 -10    0.62    0.64 
   0   1  10   -0.12    0.68 
   0   1  10    0.25    0.53 
   1  -1  10   26.32    1.95 
  -1  -1 -10   25.54    1.81 
   1  -1  10   27.36    1.64 
   1  -1  10   25.25    1.84 
  -1  -1 -10   23.69    1.87 
  -1  -1 -10   24.73    1.54 
  -1  -1 -10   23.35    1.85 
  -1  -1 -10   25.22    1.78 
   1  -1  10   25.19    1.77 
   1   1  10   24.60    1.57 
  -1   1 -10   30.36    2.02 
   1   1  10   24.24    1.81 
   1   1  10   25.54    1.56 
   1   1  10   20.92    1.66 
  -1   1 -10   25.22    1.67 
  -1   1 -10   23.99    1.73 
  -1   1 -10   23.42    1.73 
   1   1  10   23.45    1.51 
   2  -1  10    1.16    0.86 
  -2  -1 -10    1.80    0.63 
  -2  -1 -10    0.65    0.76 
  -2  -1 -10    0.66    0.72 
   2  -1  10    0.92    0.85 
   2  -1  10    0.61    0.90 
  -2  -1 -10   -0.13    0.52 
   2  -1  10    0.68    0.71 
   2  -1  10    0.75    0.80 
  -2  -1 -10    0.51    0.74 
  -2   1 -10    0.58    0.65 
   2   1  10    0.70    0.65 
  -2   1 -10    0.27    0.63 
  -2   1 -10    0.46    0.67 
   2   1  10   -0.34    0.64 
   2   1  10    1.01    0.62 
   2   1  10    0.28    0.75 
   2   1  10    0.38    0.72 
  -2   1 -10    0.50    0.75 
   3  -1  10   37.57    2.11 
  -3  -1 -10   35.07    2.18 
  -3  -1 -10   33.97    1.73 
   3  -1  10   43.47    2.36 
  -3  -1 -10   35.95    2.16 
  -3  -1 -10   35.35    2.17 
  -3  -1 -10   39.77    2.21 
   3  -1  10   36.99    2.22 
   3  -1  10   36.85    2.24 
   3  -1  10   36.28    2.10 
  -3   1 -10   36.09    2.14 
  -3   1 -10   34.39    2.03 
   3   1  10   38.46    1.86 
  -3   1 -10   37.61    2.29 
   3   1  10   35.85    2.08 
   3   1  10   35.62    2.18 
   3   1  10   35.88    2.27 
   3   1  10   35.05    2.01 
  -3   1 -10   40.03    2.17 
   4  -1  10    5.25    1.12 
   4  -1  10    4.90    1.15 
  -4  -1 -10    7.04    1.26 
  -4  -1 -10    5.71    1.23 
   4  -1  10    5.73    1.16 
   4  -1  10    8.27    1.35 
  -4  -1 -10    6.95    0.93 
   4  -1  10    6.41    1.12 
  -4  -1 -10    4.75    1.03 
  -4  -1 -10    8.48    1.42 
  -4   1 -10    4.69    0.99 
   4   1  10    5.19    1.18 
  -4   1 -10    6.94    1.22 
   4   1  10    5.02    1.29 
   4   1  10    4.11    1.11 
   4   1  10    8.55    1.18 
   4   1  10    8.20    1.32 
  -4   1 -10    5.63    1.14 
  -4   1 -10    4.37    1.09 
   5  -1  10    5.54    1.16 
   5  -1  10    7.76    1.37 
  -5  -1 -10    7.11    1.31 
  -5  -1 -10    4.46    1.04 
   5  -1  10    3.68    0.98 
  -5  -1 -10    6.95    0.98 
  -5  -1 -10    3.31    0.99 
  -5   1 -10    4.64    1.09 
   5   1  10    5.89    1.32 
   5   1  10    4.84    1.14 
  -5   1 -10    4.76    1.01 
   5   1  10    5.36    1.03 
  -5   1 -10    1.87    0.79 
  -5   1 -10    5.34    1.13 
  -6  -1 -10   24.25    1.75 
  -6  -1 -10   21.63    1.85 
   6  -1  10   23.92    1.77 
   6  -1  10   27.33    1.81 
  -6  -1 -10   24.77    1.46 
   6  -1  10   22.41    1.88 
  -6  -1 -10   20.80    1.66 
   6   1  10   21.96    1.49 
  -6   1 -10   20.58    1.70 
  -6   1 -10   20.16    1.74 
  -6   1 -10   23.13    1.71 
   6   1  10   22.97    1.94 
  -6   1 -10   18.46    1.58 
   6   1  10   22.23    1.84 
   7  -1  10   29.16    1.95 
   7  -1  10   29.17    1.97 
  -7  -1 -10   27.32    2.09 
  -7  -1 -10   28.30    1.88 
  -7  -1 -10   28.13    1.82 
   7  -1  10   30.19    2.20 
  -7  -1 -10   26.42    1.58 
   7   1  10   29.79    2.06 
   7   1  10   27.76    2.21 
  -7   1 -10   30.54    2.13 
  -7   1 -10   28.20    1.91 
   7   1  10   33.09    1.74 
  -7   1 -10   30.44    1.93 
   8  -1  10    3.16    1.03 
  -8  -1 -10    2.66    0.76 
  -8  -1 -10    4.95    0.94 
   8  -1  10    1.79    1.13 
  -8  -1 -10    1.64    0.77 
  -8  -1 -10    1.34    0.87 
   8   1  10    2.89    0.86 
  -8   1 -10    2.79    0.86 
   8   1  10    2.61    1.03 
  -8   1 -10    1.04    0.87 
  -8   1 -10    2.03    0.86 
   8   1  10    1.70    1.05 
  -9  -1 -10    0.19    0.68 
  -9  -1 -10    0.27    0.66 
   9  -1  10    0.02    0.80 
  -9  -1 -10    0.90    0.71 
  -9  -1 -10    0.16    0.58 
   9  -1  10    1.22    0.95 
   9   1  10    1.01    0.90 
   9   1  10    0.28    0.69 
   9   1  10    0.23    0.94 
  -9   1 -10    3.37    1.00 
  -9   1 -10    0.57    0.75 
  -9   1 -10    1.02    0.76 
 -10  -1 -10    9.40    1.06 
  10  -1  10    6.42    1.43 
 -10   1 -10    8.37    1.33 
  10   1  10    9.53    1.63 
 -10   1 -10    8.05    1.49 
  -9  -2  10    2.12    0.95 
   9  -2 -10    2.21    1.13 
  -9  -2  10    2.55    0.75 
   9  -2 -10    2.09    0.94 
   9  -2 -10    1.58    1.03 
   9   2 -10    3.03    1.36 
  -9   2  10    2.35    0.80 
   9   2 -10    5.46    1.09 
   9   2 -10    3.70    1.01 
  -8  -2  10   13.26    1.54 
   8  -2 -10   13.91    1.54 
   8  -2 -10   12.77    1.63 
   8  -2 -10   13.92    1.64 
  -8  -2  10   13.77    1.09 
   8   2 -10   13.84    2.12 
  -8   2  10   13.56    1.38 
   8   2 -10   13.28    1.31 
   8   2 -10   12.29    1.47 
  -7  -2  10    4.58    0.78 
   7  -2 -10    2.91    1.17 
   7  -2 -10    2.41    0.95 
   7  -2 -10    2.63    0.96 
   7  -2 -10    1.53    1.00 
  -7  -2  10    4.47    1.20 
   7   2 -10    3.96    1.15 
   7   2 -10    2.22    0.80 
   7   2 -10    2.18    1.03 
  -7   2  10    2.69    0.86 
   6  -2 -10    6.21    1.09 
   6  -2 -10    4.66    1.14 
  -6  -2  10    5.71    1.29 
   6  -2 -10    5.75    1.21 
  -6  -2  10    3.56    0.76 
   6   2 -10    3.98    1.24 
  -6   2  10    5.17    1.02 
   6   2 -10    4.67    1.12 
   6   2 -10    4.73    0.88 
   5  -2 -10    6.97    1.23 
  -5  -2  10    9.32    0.65 
   5  -2 -10   10.62    1.36 
   5  -2 -10    9.26    1.24 
  -5  -2  10   11.50    1.71 
  -5  -2  10   11.44    0.98 
   5  -2 -10   12.18    1.65 
  -5  -2  10   10.34    1.35 
   5   2 -10    9.78    0.69 
   5   2 -10   11.29    1.82 
   5   2 -10   10.41    1.04 
   5   2 -10    9.38    1.47 
  -5   2  10   11.43    1.55 
  -4  -2  10   57.60    2.81 
   4  -2 -10   57.05    2.95 
   4  -2 -10   55.96    2.70 
  -4  -2  10   54.65    1.88 
  -4  -2  10   55.17    2.17 
   4  -2 -10   56.30    2.77 
   4  -2 -10   58.96    2.68 
   4  -2 -10   57.05    2.98 
  -4  -2  10   58.59    2.90 
  -4   2  10   56.23    2.66 
   4   2 -10   57.77    2.97 
  -4   2  10   53.42    2.67 
   4   2 -10   54.60    2.81 
   4   2 -10   58.26    2.26 
   4   2 -10   59.36    1.92 
  -3  -2  10    5.43    1.14 
   3  -2 -10    5.89    1.21 
  -3  -2  10    4.42    0.72 
  -3  -2  10    7.14    1.34 
   3  -2 -10    7.05    1.45 
  -3  -2  10    8.39    1.38 
   3  -2 -10    4.56    1.15 
  -3  -2  10    4.44    0.85 
   3  -2 -10    6.61    1.44 
   3  -2 -10    5.51    1.15 
  -3   2  10    5.17    0.59 
  -3   2  10    4.65    0.98 
   3   2 -10    6.74    0.98 
  -3   2  10    6.29    1.10 
   3   2 -10    4.39    1.05 
   3   2 -10    3.73    1.03 
   3   2 -10    6.00    0.78 
  -3   2  10    4.49    0.99 
  -3   2  10    4.22    0.55 
   3   2 -10    6.75    1.37 
  -2  -2  10    0.08    0.50 
   2  -2 -10   -0.25    0.74 
   2  -2 -10    1.64    1.06 
   2  -2 -10    0.20    0.66 
   2  -2 -10    0.62    0.64 
   2  -2 -10   -0.26    0.76 
  -2  -2  10    0.05    0.76 
  -2  -2  10   -0.09    0.65 
  -2  -2  10    0.33    0.52 
  -2   2  10    0.12    0.63 
  -2   2  10    1.74    0.52 
   2   2 -10    0.73    0.58 
   2   2 -10    0.99    0.74 
   2   2 -10    1.27    0.59 
   2   2 -10   -0.06    0.62 
   2   2 -10    1.79    0.88 
  -2   2  10    0.28    0.41 
  -2   2  10    0.25    0.67 
  -2   2  10    0.11    0.57 
   1  -2 -10   22.05    1.87 
  -1  -2  10   28.42    1.99 
  -1  -2  10   22.76    1.96 
  -1  -2  10   29.26    1.58 
   1  -2 -10   28.38    1.89 
   1  -2 -10   30.72    2.17 
  -1  -2  10   27.87    1.61 
  -1  -2  10   24.05    1.78 
   1  -2 -10   30.78    1.79 
   1  -2 -10   25.54    1.98 
   1   2 -10   28.55    2.00 
   1   2 -10   27.64    2.01 
   1   2 -10   29.79    1.60 
  -1   2  10   27.28    1.89 
   1   2 -10   29.79    1.65 
  -1   2  10   29.27    1.50 
  -1   2  10   25.17    1.54 
  -1   2  10   25.66    1.43 
  -1   2  10   28.72    1.93 
   1   2 -10   27.15    1.91 
   0  -2 -10   53.69    2.23 
   0  -2  10   53.91    2.84 
   0  -2  10   58.81    2.44 
   0  -2 -10   46.78    2.56 
   0  -2 -10   53.87    2.79 
   0  -2  10   54.42    2.32 
   0  -2 -10   54.42    2.60 
   0  -2  10   52.63    2.68 
   0  -2 -10   52.70    2.80 
   0  -2  10   54.84    2.61 
   0   2 -10   50.18    2.26 
   0   2 -10   57.61    2.76 
   0   2  10   51.32    2.61 
   0   2  10   55.29    2.27 
   0   2  10   51.45    2.17 
   0   2 -10   54.42    2.62 
   0   2  10   55.95    2.67 
   0   2  10   55.90    2.29 
   0   2 -10   55.76    2.39 
   0   2 -10   54.34    2.79 
   1  -2  10    7.36    1.41 
   1  -2  10    6.49    1.13 
   1  -2  10    8.85    1.11 
  -1  -2 -10    4.57    0.92 
   1  -2  10    6.77    1.09 
  -1  -2 -10    7.30    1.39 
  -1  -2 -10    5.91    1.10 
   1  -2  10    7.34    1.40 
  -1  -2 -10   10.07    0.97 
   1   2  10    6.28    1.06 
   1   2  10    8.16    1.43 
  -1   2 -10    7.53    1.18 
  -1   2 -10    5.19    1.13 
  -1   2 -10    5.30    0.99 
  -1   2 -10    6.52    1.09 
   1   2  10    5.90    1.17 
   1   2  10    6.44    1.03 
  -1   2 -10   10.05    1.33 
   1   2  10    7.47    0.88 
   2  -2  10    1.94    0.82 
   2  -2  10    4.06    1.10 
   2  -2  10    2.57    1.10 
  -2  -2 -10    0.80    0.73 
  -2  -2 -10    1.13    0.79 
  -2  -2 -10    0.74    0.74 
  -2  -2 -10    1.10    0.56 
   2  -2  10    1.38    0.89 
  -2  -2 -10    0.89    0.57 
   2   2  10    1.38    0.81 
   2   2  10    1.42    0.84 
  -2   2 -10    2.16    0.88 
   2   2  10    1.49    0.58 
  -2   2 -10    0.80    0.68 
  -2   2 -10    1.52    0.70 
   2   2  10    0.81    0.71 
   2   2  10    2.03    0.89 
  -2   2 -10    0.87    0.85 
  -2   2 -10    0.87    0.80 
   3  -2  10    1.67    0.92 
  -3  -2 -10    1.71    0.85 
   3  -2  10    0.83    0.72 
   3  -2  10    1.30    0.93 
  -3  -2 -10    1.23    0.69 
   3  -2  10    1.25    0.83 
  -3  -2 -10    1.33    0.81 
   3  -2  10    1.36    0.83 
  -3  -2 -10    0.96    0.86 
  -3  -2 -10    1.09    0.51 
   3   2  10    2.26    0.95 
  -3   2 -10    2.36    0.83 
   3   2  10    2.42    0.89 
   3   2  10    1.60    0.83 
  -3   2 -10    2.34    0.79 
  -3   2 -10    2.15    0.85 
   3   2  10    1.49    0.84 
  -3   2 -10    0.54    0.69 
   3   2  10    2.59    0.62 
  -3   2 -10    1.03    0.82 
  -4  -2 -10   22.29    1.94 
   4  -2  10   26.12    1.77 
   4  -2  10   25.44    1.87 
   4  -2  10   24.62    1.95 
  -4  -2 -10   27.31    1.31 
  -4  -2 -10   24.27    1.89 
   4  -2  10   28.79    1.97 
   4  -2  10   24.26    1.82 
  -4  -2 -10   24.67    1.86 
  -4   2 -10   26.24    1.84 
  -4   2 -10   26.88    1.94 
   4   2  10   25.54    1.88 
  -4   2 -10   25.46    1.92 
  -4   2 -10   26.12    1.87 
   4   2  10   27.51    1.34 
  -4   2 -10   26.49    1.81 
   4   2  10   23.36    1.88 
   4   2  10   25.34    1.91 
   5  -2  10    6.12    1.33 
  -5  -2 -10    5.77    1.14 
  -5  -2 -10    6.59    1.21 
   5  -2  10    6.15    1.29 
   5  -2  10    3.43    0.86 
  -5  -2 -10    8.31    0.81 
  -5  -2 -10    6.58    1.18 
  -5   2 -10    5.01    1.06 
  -5   2 -10    5.18    1.10 
  -5   2 -10    5.07    1.21 
   5   2  10    6.81    0.83 
  -5   2 -10    7.48    1.37 
   5   2  10    7.01    1.36 
   5   2  10    5.08    1.19 
  -6  -2 -10   10.31    0.87 
  -6  -2 -10   11.71    1.31 
   6  -2  10   10.87    1.64 
   6  -2  10   10.81    1.29 
  -6  -2 -10    9.57    1.61 
  -6  -2 -10   10.59    1.32 
   6   2  10   12.02    1.79 
  -6   2 -10   12.51    1.30 
  -6   2 -10    9.28    1.42 
   6   2  10   10.67    1.02 
  -6   2 -10   10.84    1.41 
   6   2  10    9.61    1.38 
  -6   2 -10    9.86    1.34 
  -7  -2 -10    2.13    0.81 
  -7  -2 -10    3.48    0.69 
  -7  -2 -10    3.53    0.94 
  -7  -2 -10    2.89    1.01 
   7  -2  10    3.80    1.18 
   7  -2  10    2.52    0.89 
   7   2  10    4.39    1.16 
  -7   2 -10    4.27    0.99 
  -7   2 -10    2.61    0.91 
   7   2  10    2.69    0.78 
  -7   2 -10    4.54    1.18 
  -7   2 -10    3.01    1.17 
   7   2  10    4.07    1.19 
  -8  -2 -10    9.36    0.90 
   8  -2  10    6.69    1.20 
  -8  -2 -10    8.71    1.13 
  -8  -2 -10    7.85    1.08 
  -8  -2 -10    8.44    1.42 
   8  -2  10    8.68    1.68 
  -8   2 -10    9.35    1.49 
  -8   2 -10    5.44    1.14 
   8   2  10    7.56    0.97 
   8   2  10    6.26    1.29 
   9  -2  10   -0.02    0.72 
  -9  -2 -10    0.27    0.63 
  -9  -2 -10    1.06    0.65 
  -9  -2 -10    0.58    0.60 
   9  -2  10    0.13    0.98 
  -9   2 -10    1.38    0.85 
   9   2  10    1.32    0.65 
   9   2  10    0.23    0.87 
   9   2  10    0.49    0.91 
  -9   2 -10    1.32    0.67 
  -9  -3  10    0.17    0.67 
   9  -3 -10    1.51    0.85 
   9  -3 -10    0.40    0.89 
  -9   3  10    0.40    0.71 
   8  -3 -10    4.95    1.26 
   8  -3 -10    4.33    1.35 
  -8  -3  10    5.90    1.22 
   8  -3 -10    4.22    1.29 
   8   3 -10    4.95    1.08 
   8   3 -10    4.69    1.39 
  -8   3  10    5.15    1.10 
  -7  -3  10   15.06    1.60 
  -7  -3  10   14.47    1.59 
  -7  -3  10   15.13    0.93 
   7  -3 -10   16.72    1.78 
   7  -3 -10   16.09    1.65 
   7  -3 -10   15.15    1.61 
  -7  -3  10   14.49    0.76 
   7  -3 -10   16.86    1.50 
   7   3 -10   16.06    0.79 
   7   3 -10   13.66    0.96 
   7   3 -10   13.95    1.86 
  -7   3  10   13.28    1.33 
   7   3 -10   12.39    1.56 
   6  -3 -10    3.84    1.29 
  -6  -3  10    5.64    0.67 
  -6  -3  10    4.94    1.16 
   6  -3 -10    3.94    1.04 
   6  -3 -10    5.85    1.11 
   6  -3 -10    3.89    0.94 
  -6  -3  10    4.35    0.66 
  -6   3  10    9.03    1.36 
   6   3 -10    6.49    0.70 
   6   3 -10    5.97    1.44 
   6   3 -10    3.81    1.05 
   6   3 -10    5.12    0.77 
  -5  -3  10    0.57    0.76 
  -5  -3  10    0.73    0.50 
   5  -3 -10    0.86    0.74 
  -5  -3  10    0.79    0.45 
   5  -3 -10    1.21    0.93 
   5  -3 -10    2.64    0.95 
  -5  -3  10    0.94    0.72 
   5  -3 -10    0.91    0.75 
   5  -3 -10    0.29    0.72 
   5  -3 -10    0.58    0.87 
   5   3 -10    1.50    0.54 
   5   3 -10    1.53    0.56 
   5   3 -10    0.76    0.75 
  -5   3  10    1.40    0.74 
   5   3 -10    1.12    0.74 
   4  -3 -10    0.46    0.81 
   4  -3 -10    2.38    0.97 
  -4  -3  10    0.67    0.66 
  -4  -3  10    1.10    0.79 
  -4  -3  10    0.80    0.46 
   4  -3 -10    0.36    0.66 
   4  -3 -10    1.73    0.81 
   4  -3 -10    0.91    0.78 
   4  -3 -10    0.56    0.68 
   4   3 -10    0.98    0.55 
   4   3 -10    1.15    0.53 
   4   3 -10    0.74    0.78 
  -4   3  10    0.60    0.35 
  -4   3  10    1.46    0.38 
  -4   3  10    0.25    0.62 
   4   3 -10    0.45    0.71 
  -3  -3  10   25.94    1.33 
   3  -3 -10   24.75    2.05 
  -3  -3  10   23.35    1.99 
   3  -3 -10   25.94    2.06 
  -3  -3  10   25.92    1.89 
   3  -3 -10   26.20    1.76 
   3  -3 -10   24.63    1.78 
   3  -3 -10   26.51    2.05 
  -3  -3  10   24.85    1.42 
   3  -3 -10   26.72    1.68 
  -3   3  10   21.21    1.66 
  -3   3  10   24.07    1.24 
   3   3 -10   26.60    1.38 
   3   3 -10   23.71    1.92 
   3   3 -10   26.76    2.04 
   3   3 -10   25.05    1.43 
  -3   3  10   24.37    1.20 
  -2  -3  10    1.57    0.85 
   2  -3 -10    1.87    0.91 
   2  -3 -10    2.86    0.83 
   2  -3 -10    0.83    0.86 
  -2  -3  10    1.06    0.63 
  -2  -3  10    2.59    0.98 
  -2  -3  10    1.47    0.58 
   2  -3 -10    1.48    1.18 
   2  -3 -10    0.70    0.90 
   2   3 -10    1.09    0.74 
  -2   3  10   -0.51    0.65 
  -2   3  10    1.69    0.65 
   2   3 -10    0.78    0.64 
   2   3 -10    1.36    0.86 
   2   3 -10    0.88    0.56 
  -2   3  10    2.07    0.60 
  -1  -3  10   13.47    2.33 
  -1  -3  10   13.57    1.39 
  -1  -3  10   11.91    1.08 
   1  -3 -10   11.59    1.31 
   1  -3 -10   11.30    1.54 
  -1  -3  10   11.32    1.54 
  -1  -3  10   12.89    1.20 
   1  -3 -10   10.49    1.18 
   1  -3 -10   11.22    1.54 
   1  -3 -10   10.67    1.44 
   1   3 -10   13.05    1.47 
   1   3 -10    9.59    1.16 
   1   3 -10   12.59    1.52 
   1   3 -10    9.92    1.00 
  -1   3  10   11.87    1.13 
   1   3 -10   13.17    1.54 
  -1   3  10   11.79    1.07 
  -1   3  10   11.73    1.38 
   0  -3  10    0.38    0.61 
   0  -3  10   -0.04    0.68 
   0  -3 -10   -0.03    0.55 
   0  -3 -10    0.19    0.64 
   0  -3  10   -0.05    0.84 
   0  -3 -10    1.24    0.57 
   0  -3 -10    0.45    0.76 
   0  -3 -10    1.00    0.90 
   0  -3  10    0.44    0.66 
   0  -3  10    0.62    0.64 
   0   3  10    0.39    0.63 
   0   3 -10    0.41    0.73 
   0   3 -10    0.54    0.58 
   0   3 -10    0.13    0.79 
   0   3  10    1.63    0.93 
   0   3 -10   -0.25    0.60 
   0   3  10    0.28    0.81 
   0   3 -10   -0.11    0.70 
  -1  -3 -10   17.61    1.75 
   1  -3  10   18.30    1.56 
  -1  -3 -10   18.63    1.63 
   1  -3  10   20.78    1.96 
  -1  -3 -10   19.78    1.72 
   1  -3  10   20.82    1.59 
  -1  -3 -10   17.14    1.68 
   1  -3  10   19.40    1.60 
  -1  -3 -10   17.78    1.08 
   1  -3  10   19.77    1.85 
  -1   3 -10   19.87    1.83 
   1   3  10   18.91    1.48 
  -1   3 -10   18.61    1.38 
  -1   3 -10   18.81    1.74 
  -1   3 -10   21.80    1.61 
   1   3  10   19.27    1.11 
   1   3  10   18.01    1.53 
   1   3  10   18.59    1.71 
   2  -3  10    1.26    0.84 
  -2  -3 -10    0.64    0.66 
  -2  -3 -10    1.34    0.91 
   2  -3  10    0.63    0.81 
   2  -3  10    0.83    0.92 
   2  -3  10    1.03    1.32 
  -2  -3 -10    0.99    0.76 
   2  -3  10    0.02    0.67 
  -2  -3 -10    0.80    0.44 
  -2   3 -10    0.46    0.73 
   2   3  10    1.66    0.83 
  -2   3 -10    1.08    0.71 
   2   3  10    1.66    0.46 
   2   3  10    0.38    0.69 
   2   3  10    0.98    0.82 
  -2   3 -10    1.15    0.77 
  -2   3 -10    0.87    0.67 
  -2   3 -10    0.37    0.77 
  -3  -3 -10   27.13    1.96 
   3  -3  10   29.30    2.14 
   3  -3  10   28.96    2.00 
  -3  -3 -10   29.79    2.12 
   3  -3  10   30.26    1.91 
  -3  -3 -10   31.02    1.15 
   3  -3  10   28.47    1.83 
  -3  -3 -10   32.43    2.15 
   3   3  10   31.71    2.08 
  -3   3 -10   30.59    1.87 
  -3   3 -10   30.67    1.87 
  -3   3 -10   28.70    2.08 
  -3   3 -10   27.16    2.08 
   3   3  10   29.26    1.94 
  -3   3 -10   28.36    2.00 
   3   3  10   30.08    2.03 
   3   3  10   29.72    1.14 
   4  -3  10    6.03    1.32 
  -4  -3 -10    3.29    1.01 
  -4  -3 -10    5.24    1.30 
   4  -3  10    5.34    1.19 
   4  -3  10    5.71    1.08 
   4  -3  10    2.80    0.90 
   4   3  10    4.13    1.22 
   4   3  10    5.57    1.06 
  -4   3 -10    5.93    1.33 
  -4   3 -10    6.36    1.31 
  -4   3 -10    5.91    1.06 
  -4   3 -10    3.21    0.93 
   5  -3  10    3.76    1.14 
   5  -3  10    3.67    1.01 
  -5  -3 -10    4.21    1.12 
  -5  -3 -10    5.11    1.17 
  -5  -3 -10    5.59    1.18 
  -5   3 -10    3.38    1.11 
  -5   3 -10    3.08    0.91 
  -5   3 -10    3.93    1.11 
   5   3  10    1.87    0.87 
  -5   3 -10    4.73    1.20 
   5   3  10    3.45    1.12 
   6  -3  10   13.53    1.31 
  -6  -3 -10   16.07    1.54 
  -6  -3 -10   13.45    1.36 
   6  -3  10   14.92    1.70 
  -6  -3 -10   14.10    1.61 
  -6   3 -10   11.89    1.31 
   6   3  10   14.23    1.75 
  -6   3 -10   12.55    1.60 
   6   3  10   13.17    1.57 
  -7  -3 -10   16.78    1.78 
   7  -3  10   21.14    1.94 
  -7  -3 -10   20.03    1.62 
   7  -3  10   20.53    1.57 
  -7  -3 -10   18.61    1.51 
  -7   3 -10   21.90    1.90 
   7   3  10   17.94    1.96 
   7   3  10   25.05    1.98 
  -7   3 -10   22.51    1.85 
  -7   3 -10   21.15    1.60 
  -8  -3 -10    3.36    0.84 
   8  -3  10    2.30    1.13 
  -8  -3 -10    0.73    0.88 
   8  -3  10    1.24    0.81 
   8  -3  10    1.62    0.71 
  -8  -3 -10    1.91    0.85 
  -8   3 -10    0.99    0.79 
  -8   3 -10    3.42    1.03 
   8   3  10    1.87    1.19 
   8   3  10    1.02    1.00 
  -8   3 -10    1.28    0.75 
  -9  -3 -10    0.22    0.73 
   9  -3  10    0.95    0.71 
  -9  -3 -10   -0.31    0.59 
   9   3  10    0.92    1.74 
  -9   3 -10    0.20    0.84 
  -9   3 -10    0.95    0.78 
   8  -4 -10    1.59    0.96 
   8  -4 -10    5.11    1.07 
  -8  -4  10    1.76    0.56 
   8  -4 -10    1.06    0.92 
  -8   4  10    2.49    0.85 
   8   4 -10    3.82    1.37 
   7  -4 -10    5.75    1.10 
  -7  -4  10    5.75    1.25 
   7  -4 -10    7.53    1.62 
  -7  -4  10    6.73    1.28 
   7  -4 -10    8.22    1.42 
  -7  -4  10    5.74    0.87 
   7  -4 -10    5.49    1.22 
   7   4 -10    7.47    1.37 
   7   4 -10    8.07    0.83 
   7   4 -10    8.02    1.60 
  -7   4  10    5.59    0.99 
   6  -4 -10   11.40    1.37 
   6  -4 -10   10.90    1.31 
  -6  -4  10   13.65    1.11 
   6  -4 -10    7.74    1.50 
   6  -4 -10   14.32    1.61 
  -6  -4  10   11.43    1.46 
  -6   4  10   15.20    1.34 
   6   4 -10   13.26    1.72 
   6   4 -10   13.20    1.03 
   6   4 -10   11.43    1.47 
  -5  -4  10    9.26    1.45 
  -5  -4  10   12.35    1.59 
   5  -4 -10   10.77    1.63 
  -5  -4  10    9.20    1.04 
   5  -4 -10    9.56    1.19 
   5  -4 -10    9.76    1.26 
   5  -4 -10   13.20    1.73 
   5  -4 -10   12.82    1.96 
   5   4 -10    8.70    0.99 
   5   4 -10    8.61    1.46 
  -5   4  10   10.81    0.67 
  -5   4  10    9.30    1.20 
  -5   4  10   10.09    0.70 
   5   4 -10   11.10    1.51 
   4  -4 -10    9.50    1.45 
   4  -4 -10   10.87    1.25 
  -4  -4  10    8.50    1.61 
   4  -4 -10   12.42    1.33 
   4  -4 -10   14.10    1.69 
  -4  -4  10   12.08    1.77 
   4  -4 -10    9.75    1.63 
  -4  -4  10   12.31    1.16 
   4  -4 -10    8.97    1.17 
  -4   4  10    8.52    0.77 
   4   4 -10   13.15    1.59 
  -4   4  10   11.96    1.33 
   4   4 -10    8.51    1.05 
   4   4 -10   12.01    1.86 
  -3  -4  10    7.77    1.03 
   3  -4 -10    6.69    1.10 
   3  -4 -10   12.63    1.61 
  -3  -4  10    8.93    1.49 
   3  -4 -10    7.31    1.19 
   3  -4 -10    9.91    1.57 
   3  -4 -10    7.86    1.47 
  -3  -4  10    8.43    0.72 
  -3  -4  10   10.11    1.34 
   3   4 -10    8.50    1.10 
  -3   4  10   10.92    1.32 
   3   4 -10    8.72    1.51 
  -3   4  10    9.30    0.91 
   3   4 -10    6.56    1.30 
   3   4 -10    8.52    0.70 
  -2  -4  10    5.86    1.23 
  -2  -4  10    5.40    1.28 
  -2  -4  10    4.84    1.00 
   2  -4 -10    4.44    0.86 
   2  -4 -10    4.28    1.09 
   2  -4 -10    5.30    1.07 
   2  -4 -10    5.12    1.38 
  -2  -4  10    4.24    0.71 
   2  -4 -10    5.49    1.33 
   2  -4 -10    4.52    1.39 
   2   4 -10    6.69    1.43 
   2   4 -10    3.69    1.18 
   2   4 -10    4.16    0.94 
   2   4 -10    5.43    0.70 
  -2   4  10    3.05    1.00 
  -2   4  10    4.66    0.89 
  -1  -4  10   61.71    2.87 
  -1  -4  10   61.49    2.22 
   1  -4 -10   60.70    3.09 
  -1  -4  10   60.74    2.67 
   1  -4 -10   59.91    2.18 
  -1  -4  10   61.10    3.08 
   1  -4 -10   60.42    2.34 
   1  -4 -10   61.25    3.14 
   1  -4 -10   60.81    3.11 
   1  -4 -10   58.62    3.18 
   1   4 -10   57.32    3.04 
  -1   4  10   53.32    2.40 
   1   4 -10   59.75    3.08 
  -1   4  10   58.19    2.83 
   1   4 -10   60.48    2.21 
   1   4 -10   58.05    2.59 
   0  -4 -10   15.46    0.97 
   0  -4 -10   12.90    1.66 
   0  -4  10   16.10    1.50 
   0  -4 -10   12.42    1.53 
   0  -4  10   16.66    1.32 
   0  -4 -10   13.38    0.97 
   0  -4  10   16.03    1.70 
   0  -4  10   13.18    1.40 
   0  -4 -10   18.15    1.78 
   0   4  10   16.16    1.39 
   0   4 -10   18.22    1.23 
   0   4 -10   15.99    1.69 
   0   4  10   14.50    1.56 
   0   4 -10   17.70    1.80 
   0   4 -10   14.64    1.45 
  -1  -4 -10   17.27    1.71 
  -1  -4 -10   16.69    0.83 
   1  -4  10   17.46    1.50 
  -1  -4 -10   17.01    0.87 
   1  -4  10   16.12    1.48 
  -1  -4 -10   16.50    1.63 
  -1  -4 -10   13.80    1.65 
   1  -4  10   17.23    1.58 
   1  -4  10   14.85    1.69 
   1   4  10   18.71    1.68 
  -1   4 -10   18.32    1.63 
  -1   4 -10   13.99    1.70 
  -1   4 -10   18.60    1.31 
  -1   4 -10   15.89    1.57 
  -1   4 -10   17.51    1.77 
   1   4  10   17.63    1.51 
   2  -4  10    1.28    1.00 
  -2  -4 -10    1.37    0.80 
  -2  -4 -10    1.38    0.85 
  -2  -4 -10    0.74    0.78 
   2  -4  10    1.93    0.89 
   2  -4  10    1.54    0.73 
   2  -4  10    0.51    0.72 
  -2   4 -10    0.88    0.96 
  -2   4 -10    1.96    0.81 
  -2   4 -10    1.04    0.80 
   2   4  10    1.27    0.76 
  -2   4 -10    1.95    0.77 
   2   4  10    1.94    0.82 
   3  -4  10   21.67    1.59 
   3  -4  10   22.12    1.80 
  -3  -4 -10   23.18    1.82 
   3  -4  10   21.00    1.94 
   3  -4  10   19.26    1.56 
  -3  -4 -10   23.44    1.90 
  -3  -4 -10   19.54    1.81 
  -3   4 -10   21.30    1.61 
  -3   4 -10   18.67    1.83 
   3   4  10   18.28    1.74 
   4  -4  10   13.15    1.54 
  -4  -4 -10   13.02    1.55 
   4  -4  10   11.35    1.24 
  -4  -4 -10   13.49    1.56 
  -4  -4 -10   10.12    1.42 
   4   4  10   12.50    1.54 
  -4   4 -10   10.90    1.64 
  -4   4 -10   10.95    1.32 
   4   4  10   11.99    1.50 
  -4   4 -10   11.64    1.55 
   5  -4  10    4.01    0.93 
   5  -4  10    4.16    1.26 
  -5  -4 -10    5.74    1.13 
  -5  -4 -10    4.50    1.31 
  -5   4 -10    5.91    1.27 
  -5   4 -10    6.95    1.36 
   5   4  10    4.39    1.24 
  -5   4 -10    5.78    1.08 
   5   4  10    5.00    1.27 
  -6  -4 -10   18.77    1.61 
  -6  -4 -10   18.62    1.67 
  -6  -4 -10   17.27    1.77 
   6  -4  10   16.49    1.38 
   6  -4  10   16.12    1.69 
  -6   4 -10   18.42    1.49 
  -6   4 -10   18.31    1.83 
   6   4  10   22.22    2.06 
  -6   4 -10   18.63    1.83 
   6   4  10   16.08    1.71 
  -7  -4 -10    9.48    1.46 
  -7  -4 -10   10.63    1.26 
   7  -4  10   12.39    1.92 
  -7  -4 -10    8.31    1.57 
   7  -4  10    7.25    1.14 
   7  -4  10   10.49    1.72 
   7   4  10    7.79    1.74 
  -7   4 -10    8.90    1.50 
  -7   4 -10   10.98    1.70 
   8  -4  10    6.94    1.13 
  -8  -4 -10    8.93    1.59 
   8  -4  10    7.23    1.47 
  -8  -4 -10    9.39    1.26 
  -8   4 -10    8.59    1.60 
  -8   4 -10    7.92    1.83 
  -8   4 -10    9.53    1.27 
   7  -5 -10    2.73    1.57 
  -7  -5  10    8.01    1.05 
   7  -5 -10    4.26    1.15 
  -7   5  10    8.53    1.08 
   6  -5 -10    1.26    1.02 
   6  -5 -10    1.35    1.01 
   6  -5 -10    3.03    0.95 
   6  -5 -10    1.93    0.90 
  -6  -5  10    2.97    1.02 
   6   5 -10    0.91    0.82 
  -6   5  10    0.53    0.69 
   6   5 -10    4.73    1.20 
   5  -5 -10    2.07    0.87 
  -5  -5  10    1.07    0.85 
   5  -5 -10    3.34    1.13 
  -5  -5  10    0.55    0.77 
  -5  -5  10    2.74    0.98 
   5  -5 -10    3.93    0.67 
   5  -5 -10    6.12    1.10 
   5   5 -10    0.89    0.88 
   5   5 -10    4.32    0.92 
   5   5 -10    2.10    0.94 
  -5   5  10    2.77    0.61 
  -5   5  10    5.18    1.03 
  -4  -5  10    2.62    1.01 
  -4  -5  10    0.78    0.71 
   4  -5 -10    1.10    0.57 
   4  -5 -10   -0.37    1.21 
   4  -5 -10    0.71    0.90 
  -4  -5  10    1.88    0.78 
   4  -5 -10    1.22    0.71 
   4   5 -10    1.90    0.88 
  -4   5  10    1.46    0.83 
   4   5 -10    0.20    0.83 
   4   5 -10    2.44    0.77 
  -4   5  10    0.95    0.51 
  -3  -5  10   17.38    1.46 
   3  -5 -10   15.22    1.19 
   3  -5 -10   15.80    1.32 
   3  -5 -10   14.22    1.81 
  -3  -5  10   15.81    1.70 
   3  -5 -10   14.12    1.82 
  -3  -5  10   14.53    1.62 
   3  -5 -10   14.49    1.26 
  -3   5  10   14.81    1.50 
   3   5 -10   14.09    1.68 
  -3   5  10   15.66    1.29 
   3   5 -10   13.34    1.72 
   3   5 -10   17.46    1.46 
   2  -5 -10    2.59    0.77 
   2  -5 -10    1.54    1.02 
   2  -5 -10    1.40    0.92 
  -2  -5  10    2.48    0.91 
  -2  -5  10    1.70    0.80 
  -2  -5  10    4.21    1.27 
   2  -5 -10    3.09    0.73 
  -2   5  10    1.67    0.74 
  -2   5  10    1.64    0.89 
   2   5 -10    2.17    1.03 
   2   5 -10    2.88    0.87 
   2   5 -10    0.87    0.85 
  -1  -5  10    3.55    0.97 
  -1  -5  10    5.57    0.71 
   1  -5 -10    3.17    1.31 
   1  -5 -10    4.45    0.71 
   1  -5 -10    6.20    0.85 
   1  -5 -10    6.37    1.06 
   1  -5 -10    6.40    1.41 
  -1  -5  10    3.85    0.91 
  -1  -5  10    3.94    1.11 
  -1   5  10    2.95    0.89 
  -1   5  10    4.64    1.26 
   1   5 -10    5.59    1.39 
   1   5 -10    5.90    1.40 
   0  -5 -10   -0.11    0.62 
   0  -5  10    0.89    0.89 
   0  -5  10    0.21    0.57 
   0  -5 -10    0.57    0.34 
   0  -5  10    0.15    0.48 
   0  -5  10    0.29    0.70 
   0  -5  10    0.13    0.67 
   0  -5 -10    0.07    0.98 
   0  -5 -10    0.65    0.80 
   0   5 -10    0.21    0.79 
   0   5  10   -0.50    0.73 
   0   5 -10    0.36    0.68 
   0   5  10    0.35    0.73 
   1  -5  10   10.69    1.08 
  -1  -5 -10   10.06    1.33 
   1  -5  10   11.04    1.24 
   1  -5  10   12.05    1.33 
  -1  -5 -10   10.34    1.60 
  -1  -5 -10   11.70    1.86 
   1  -5  10   14.86    1.52 
  -1  -5 -10   11.10    1.51 
   1   5  10   13.67    1.53 
  -1   5 -10    9.98    1.60 
  -1   5 -10    7.82    1.35 
   2  -5  10    1.55    0.77 
   2  -5  10    1.01    0.66 
   2  -5  10    1.56    1.04 
  -2  -5 -10    1.21    0.87 
   2  -5  10    0.91    0.83 
  -2  -5 -10    0.08    0.76 
  -2  -5 -10    1.65    0.83 
  -2  -5 -10    1.11    0.81 
   2  -5  10    0.79    0.75 
  -2   5 -10   -0.50    0.65 
  -2   5 -10    1.23    0.85 
   2   5  10    0.75    0.77 
   3  -5  10   22.04    1.59 
   3  -5  10   19.16    1.53 
   3  -5  10   21.93    1.92 
  -3  -5 -10   19.64    1.77 
   3  -5  10   20.07    1.58 
  -3  -5 -10   19.51    1.84 
  -3  -5 -10   21.40    1.92 
  -3   5 -10   23.06    1.70 
  -3   5 -10   18.81    1.98 
  -3   5 -10   27.21    2.17 
   3   5  10   19.26    1.79 
  -4  -5 -10    6.28    1.39 
   4  -5  10    5.25    1.02 
   4  -5  10    6.75    1.49 
  -4  -5 -10    4.85    1.23 
   4  -5  10    5.35    1.12 
  -4  -5 -10    6.91    1.34 
  -4   5 -10    5.76    1.41 
   4   5  10    3.51    1.05 
  -4   5 -10    3.64    1.11 
  -4   5 -10    6.84    1.20 
  -5  -5 -10   -0.03    0.64 
   5  -5  10   -0.28    0.64 
   5  -5  10   -0.42    0.58 
  -5  -5 -10    0.10    0.76 
   5  -5  10    3.74    1.07 
  -5   5 -10    1.32    0.96 
   5   5  10    0.16    0.82 
  -5   5 -10    1.28    0.76 
  -5   5 -10    1.30    0.94 
   6  -5  10    6.63    1.49 
  -6  -5 -10    7.40    1.45 
   6  -5  10    5.89    1.01 
  -6  -5 -10    8.22    1.44 
   6  -5  10    8.09    1.36 
  -6  -5 -10    8.79    1.38 
  -6   5 -10    8.50    1.61 
   6   5  10    6.11    1.38 
  -6   5 -10    7.19    1.17 
  -6   5 -10    9.01    1.69 
   6   5  10    6.59    1.44 
   7  -5  10   11.49    1.17 
   7  -5  10   14.66    1.61 
  -7  -5 -10   12.79    1.62 
  -7  -5 -10    6.73    1.30 
  -7   5 -10    8.71    1.57 
  -7   5 -10    9.58    2.21 
   5  -6 -10    3.44    0.80 
  -5  -6  10    2.65    0.90 
   5  -6 -10    0.44    0.72 
   5   6 -10    2.86    1.22 
  -5   6  10    2.27    1.13 
  -4  -6  10   15.25    1.69 
   4  -6 -10   17.42    1.41 
   4  -6 -10   17.07    1.32 
   4  -6 -10   16.22    1.92 
   4  -6 -10   17.46    1.41 
  -4  -6  10   19.13    1.63 
  -4   6  10   16.05    1.92 
   4   6 -10   12.87    1.76 
  -4   6  10   13.41    1.28 
  -4   6  10   14.18    1.45 
   4   6 -10   17.92    1.95 
   3  -6 -10    1.60    1.05 
  -3  -6  10    1.98    0.89 
   3  -6 -10    1.38    0.70 
   3  -6 -10    2.28    0.79 
   3  -6 -10    1.56    1.14 
  -3  -6  10    1.85    0.91 
  -3  -6  10    1.92    1.04 
   3  -6 -10    1.63    0.72 
   3   6 -10    1.44    1.06 
   3   6 -10    1.73    0.94 
  -3   6  10    1.35    0.94 
  -3   6  10    1.29    1.07 
  -3   6  10    1.37    0.86 
  -2  -6  10    0.04    0.85 
   2  -6 -10    0.98    0.58 
   2  -6 -10    0.26    0.65 
   2  -6 -10    0.27    1.07 
   2  -6 -10    1.14    0.67 
   2  -6 -10   -1.58    0.74 
  -2  -6  10   -0.03    0.77 
  -2  -6  10    0.03    0.72 
   2   6 -10    0.84    0.75 
   2   6 -10   -0.27    0.88 
  -2   6  10    4.75    1.06 
  -2   6  10    0.19    0.80 
   1  -6 -10    4.75    1.09 
  -1  -6  10    3.50    1.11 
   1  -6 -10    3.55    1.35 
   1  -6 -10    3.95    0.61 
   1  -6 -10    4.76    1.38 
  -1  -6  10    5.06    1.21 
  -1  -6  10    3.85    1.07 
  -1   6  10    9.52    1.83 
   1   6 -10    5.63    1.51 
  -1   6  10    5.47    1.24 
   1   6 -10    4.86    1.29 
   0  -6 -10    9.96    1.52 
   0  -6 -10    9.48    1.73 
   0  -6  10   12.89    1.41 
   0  -6 -10    9.88    1.29 
   0  -6  10    8.38    0.91 
   0  -6  10    9.29    1.42 
   0   6  10   10.89    1.78 
   0   6 -10    8.15    1.58 
   0   6  10   12.57    1.75 
   0   6 -10   11.32    1.83 
   1  -6  10    3.05    0.71 
   1  -6  10    2.14    0.90 
   1  -6  10    1.47    0.83 
  -1  -6 -10    1.36    1.07 
  -1  -6 -10    1.61    0.84 
   1  -6  10    1.18    1.00 
   1  -6  10    1.88    0.89 
  -1   6 -10    1.89    1.07 
   1   6  10    2.53    1.10 
  -1   6 -10    0.47    0.90 
   1   6  10    2.30    0.94 
   2  -6  10    0.48    0.87 
   2  -6  10    1.59    0.65 
   2  -6  10   -0.36    0.61 
  -2  -6 -10   -0.37    0.78 
   2  -6  10   -0.05    0.50 
  -2  -6 -10    1.01    0.92 
  -2  -6 -10    3.18    1.17 
   2   6  10   -0.13    0.79 
  -2   6 -10    0.03    0.81 
  -2   6 -10    0.29    0.87 
  -3  -6 -10    2.65    0.97 
  -3  -6 -10    1.80    0.83 
  -3  -6 -10    1.09    0.94 
   3  -6  10    0.30    0.87 
  -3  -6 -10    1.87    0.97 
   3  -6  10    0.01    0.62 
   3  -6  10    0.92    0.77 
   3  -6  10    1.92    0.70 
   3   6  10    0.99    0.86 
  -3   6 -10   -0.21    0.73 
  -3   6 -10    7.29    1.73 
   4  -6  10    7.42    1.14 
  -4  -6 -10    4.36    1.15 
   4  -6  10    5.57    1.41 
   4  -6  10    6.49    1.12 
  -4  -6 -10    6.37    1.37 
   4   6  10    4.97    1.29 
  -4   6 -10    5.76    1.44 
  -4   6 -10    4.02    1.20 
  -5  -6 -10    0.52    0.75 
   5  -6  10    0.49    0.80 
  -5   6 -10    4.29    1.04 
  -5   6 -10    0.98    0.97 
   2  -7 -10    5.12    1.04 
   1  -7 -10    6.60    2.00 
  -1  -7  10    4.51    1.11 
  -1  -7  10    5.80    1.45 
   1  -7 -10    3.58    1.14 
   1   7 -10    2.54    1.20 
  -1   7  10    3.75    1.18 
  -1   7  10    3.12    1.15 
   0  -7  10   -0.20    0.67 
   0  -7 -10   -0.60    0.72 
   0  -7  10   -0.06    0.86 
   0  -7  10    0.41    1.23 
   0  -7 -10   -0.18    0.88 
   0   7  10    1.66    1.11 
   0   7 -10    2.76    1.19 
   0   7  10    0.42    0.84 
   1  -7  10    2.29    1.22 
  -1  -7 -10    4.53    1.38 
   1  -7  10    6.33    0.83 
  -1  -7 -10    5.08    1.23 
   1  -7  10    4.53    1.12 
   1   7  10    4.10    1.26 
   1   7  10    3.86    1.18 
  -1   7 -10    4.81    1.37 
   9   0 -11    2.68    0.97 
   9   0 -11    4.07    1.69 
  -9   0  11    1.89    0.94 
   8   0 -11    2.09    0.96 
  -8   0  11    2.39    0.88 
   8   0 -11    1.15    1.14 
   8   0 -11    2.79    0.95 
  -7   0  11    1.64    0.84 
   7   0 -11    1.88    0.96 
   7   0 -11    1.51    1.11 
   7   0 -11    2.45    0.97 
  -6   0  11   20.17    1.55 
   6   0 -11   19.51    1.77 
  -6   0  11   18.51    1.67 
   6   0 -11   21.50    1.84 
   6   0 -11   17.84    2.04 
  -5   0  11    0.64    0.71 
   5   0 -11    0.19    0.85 
  -5   0  11    1.37    0.84 
   5   0 -11    0.21    0.96 
   5   0 -11    1.87    0.89 
   4   0 -11    2.22    1.06 
   4   0 -11    4.64    1.16 
   4   0 -11    3.21    1.15 
  -4   0  11    2.43    0.90 
  -4   0  11    4.69    0.97 
   4   0 -11    2.52    0.98 
  -3   0  11    4.87    1.10 
   3   0 -11    7.29    1.48 
   3   0 -11    3.61    1.12 
   3   0 -11    4.60    1.09 
   3   0 -11    5.68    1.31 
  -3   0  11    4.83    1.04 
  -3   0  11    4.32    1.02 
  -3   0  11    4.80    0.56 
  -3   0  11    5.71    0.57 
   2   0 -11   58.70    2.87 
   2   0 -11   64.27    3.09 
   2   0 -11   59.98    2.97 
  -2   0  11   60.20    2.06 
   2   0 -11   56.97    2.74 
  -2   0  11   52.79    2.56 
  -2   0  11   58.46    2.74 
   2   0 -11   60.10    2.68 
  -2   0  11   56.18    2.00 
  -2   0  11   62.58    2.91 
  -1   0  11    6.02    0.87 
  -1   0  11    3.66    0.91 
   1   0 -11    6.77    1.43 
  -1   0  11    6.15    0.90 
   1   0 -11    7.92    1.83 
  -1   0  11    4.41    1.06 
  -1   0  11    5.32    1.05 
   1   0 -11    4.36    1.03 
   1   0 -11    7.39    1.35 
   1   0 -11    9.05    1.47 
   0   0  11    1.06    0.67 
   0   0  11    0.33    0.66 
   0   0  11    0.74    0.77 
   0   0  11    0.61    0.58 
   0   0 -11    2.21    0.86 
   0   0 -11    0.83    0.75 
   0   0 -11    0.63    0.71 
   0   0 -11    0.80    0.81 
   0   0  11    1.28    0.66 
   0   0 -11    0.89    0.75 
   1   0  11    5.81    1.02 
  -1   0 -11    3.27    1.01 
   1   0  11    4.28    0.84 
  -1   0 -11    2.22    0.82 
   1   0  11    2.78    0.95 
   1   0  11    3.42    0.84 
  -1   0 -11    4.36    1.01 
   1   0  11    5.13    1.25 
  -1   0 -11    7.50    1.33 
  -1   0 -11    3.84    1.11 
   2   0  11   50.66    2.35 
   2   0  11   47.30    2.53 
   2   0  11   48.44    2.37 
  -2   0 -11   51.14    2.39 
  -2   0 -11   50.69    2.69 
   2   0  11   50.97    2.58 
   2   0  11   50.80    2.36 
  -2   0 -11   48.73    2.65 
  -2   0 -11   51.24    2.57 
  -2   0 -11   48.24    2.61 
  -3   0 -11    3.99    0.91 
  -3   0 -11    3.61    1.05 
  -3   0 -11    3.76    1.11 
   3   0  11    3.89    1.00 
   3   0  11    3.62    0.99 
  -3   0 -11    3.88    0.98 
   3   0  11    3.63    1.00 
   3   0  11    4.10    1.11 
  -4   0 -11    2.25    0.88 
   4   0  11    1.68    0.91 
   4   0  11    2.01    1.00 
   4   0  11    0.05    0.80 
  -4   0 -11    1.92    0.89 
  -4   0 -11    2.39    0.96 
  -4   0 -11    1.06    0.66 
   4   0  11    2.47    0.90 
  -5   0 -11    3.49    1.04 
   5   0  11    2.39    0.98 
  -5   0 -11    2.85    0.83 
  -5   0 -11    3.22    0.94 
   5   0  11    3.11    1.06 
   5   0  11    3.51    1.17 
  -6   0 -11   19.68    1.66 
   6   0  11   21.53    1.68 
   6   0  11   22.59    1.94 
   6   0  11   20.54    1.78 
  -6   0 -11   19.02    1.50 
  -6   0 -11   20.98    1.74 
  -6   0 -11   17.39    1.78 
  -7   0 -11    0.86    0.77 
   7   0  11    3.45    0.92 
  -7   0 -11    1.49    0.84 
   7   0  11    2.28    1.04 
  -7   0 -11    2.33    0.91 
   7   0  11    0.54    0.98 
  -7   0 -11    2.15    0.91 
  -8   0 -11    1.50    0.83 
   8   0  11    1.34    1.02 
   8   0  11    0.42    0.88 
  -8   0 -11    0.91    0.82 
  -8   0 -11    4.16    1.03 
  -8   0 -11    3.40    1.13 
  -9   0 -11    1.93    0.94 
   9   0  11    2.18    1.06 
  -9   0 -11    2.34    0.85 
   9  -1 -11   19.14    2.34 
   9  -1 -11   19.95    1.76 
  -9  -1  11   22.18    1.89 
  -9   1  11   22.53    1.82 
   9   1 -11   19.33    1.69 
   8  -1 -11    1.75    0.97 
  -8  -1  11    1.62    0.76 
   8  -1 -11    2.97    0.99 
   8  -1 -11    1.91    0.97 
  -8  -1  11    1.59    0.92 
  -8   1  11    1.27    0.75 
   8   1 -11    2.28    1.00 
   8   1 -11    2.67    1.04 
   8   1 -11    1.77    1.27 
  -7  -1  11    3.09    0.84 
   7  -1 -11    4.95    1.18 
   7  -1 -11    3.16    1.13 
  -7  -1  11    3.39    1.08 
   7  -1 -11    2.00    1.05 
   7   1 -11    3.58    1.36 
   7   1 -11    2.01    0.95 
   7   1 -11    3.93    1.10 
  -7   1  11    5.00    1.09 
   6  -1 -11   -0.13    0.77 
   6  -1 -11   -0.04    0.83 
  -6  -1  11    0.84    0.60 
   6  -1 -11    0.05    0.77 
  -6  -1  11   -0.37    0.61 
   6   1 -11    0.26    1.02 
   6   1 -11    1.23    0.81 
   6   1 -11    1.10    0.93 
  -6   1  11    0.67    0.73 
   5  -1 -11   39.69    2.39 
   5  -1 -11   38.31    2.50 
  -5  -1  11   37.40    2.31 
  -5  -1  11   36.26    1.93 
   5  -1 -11   36.38    2.38 
  -5   1  11   34.91    2.17 
   5   1 -11   39.96    2.11 
   5   1 -11   40.68    2.42 
   5   1 -11   34.24    2.45 
  -4  -1  11    2.68    0.82 
   4  -1 -11    1.51    0.97 
  -4  -1  11    1.64    0.34 
   4  -1 -11    1.17    0.97 
   4  -1 -11    1.72    1.09 
  -4  -1  11    2.25    0.36 
  -4  -1  11    1.81    0.82 
   4  -1 -11    1.91    0.80 
  -4   1  11    0.57    0.67 
   4   1 -11    3.00    1.07 
   4   1 -11    1.65    0.78 
  -4   1  11    1.59    0.80 
   4   1 -11    1.09    0.86 
   4   1 -11    0.15    0.77 
  -4   1  11    2.33    0.83 
   3  -1 -11    1.20    0.85 
  -3  -1  11    1.12    0.45 
  -3  -1  11    1.19    0.44 
   3  -1 -11    1.10    0.93 
  -3  -1  11    0.56    0.72 
   3  -1 -11    2.12    1.03 
   3  -1 -11    0.89    0.70 
  -3  -1  11    1.77    0.67 
  -3   1  11    1.29    0.37 
  -3   1  11    1.23    0.75 
   3   1 -11    0.50    0.81 
   3   1 -11    1.35    0.70 
   3   1 -11    0.76    0.73 
  -3   1  11    0.51    0.73 
  -3   1  11    2.68    0.81 
  -3   1  11    1.30    0.36 
   2  -1 -11    3.24    1.03 
  -2  -1  11    2.33    0.90 
   2  -1 -11    3.32    1.00 
   2  -1 -11    2.05    0.86 
  -2  -1  11    3.93    0.72 
  -2  -1  11    3.43    0.65 
  -2  -1  11    2.92    0.98 
   2  -1 -11    2.26    0.86 
   2  -1 -11    4.52    1.18 
  -2  -1  11    3.74    0.84 
  -2  -1  11    3.42    1.05 
   2   1 -11    3.77    0.93 
  -2   1  11    2.71    0.60 
   2   1 -11    2.66    0.93 
  -2   1  11    1.58    0.77 
  -2   1  11    2.35    0.91 
   2   1 -11    2.12    1.04 
  -2   1  11    2.95    0.61 
  -2   1  11    3.45    0.99 
  -1  -1  11   32.02    2.04 
  -1  -1  11   34.61    2.27 
  -1  -1  11   32.00    2.09 
   1  -1 -11   33.75    2.11 
   1  -1 -11   34.22    2.28 
   1  -1 -11   34.45    2.30 
  -1  -1  11   32.54    1.64 
  -1  -1  11   33.52    1.90 
   1  -1 -11   32.28    1.93 
   1  -1 -11   34.44    2.09 
  -1   1  11   32.52    1.57 
  -1   1  11   33.19    2.11 
   1   1 -11   34.99    2.26 
  -1   1  11   33.08    1.59 
   1   1 -11   34.17    2.28 
  -1   1  11   31.03    1.89 
   1   1 -11   28.18    1.98 
   1   1 -11   32.02    1.87 
  -1   1  11   30.96    2.01 
   0  -1  11    6.18    1.00 
   0  -1  11    7.32    1.46 
   0  -1 -11    7.00    1.14 
   0  -1 -11    3.81    0.96 
   0  -1  11    5.93    1.10 
   0  -1 -11    3.21    1.02 
   0  -1 -11    7.25    1.46 
   0  -1  11    5.41    1.02 
   0  -1  11    7.68    1.26 
   0  -1 -11    7.82    1.41 
   0   1  11    4.89    1.03 
   0   1 -11    5.47    1.19 
   0   1 -11    6.47    1.17 
   0   1 -11    6.76    1.12 
   0   1  11    7.50    0.99 
   0   1  11    6.68    0.98 
   0   1 -11    5.77    1.28 
   0   1  11    7.85    1.43 
   0   1  11    7.29    1.17 
  -1  -1 -11    9.44    1.10 
   1  -1  11    9.05    1.46 
   1  -1  11   10.52    1.19 
   1  -1  11    6.99    1.13 
  -1  -1 -11   10.72    1.64 
   1  -1  11    7.54    1.35 
  -1  -1 -11    7.99    1.44 
   1  -1  11    9.96    1.28 
  -1  -1 -11    8.49    1.36 
   1   1  11   11.47    1.15 
   1   1  11    7.55    1.34 
   1   1  11    6.76    1.16 
  -1   1 -11    9.30    1.22 
  -1   1 -11   10.43    1.32 
  -1   1 -11   11.57    1.35 
   1   1  11   10.10    1.14 
   1   1  11   10.41    1.18 
  -1   1 -11    7.95    1.45 
   2  -1  11    1.45    0.94 
   2  -1  11    1.18    0.82 
   2  -1  11    2.75    0.98 
  -2  -1 -11    1.73    0.89 
  -2  -1 -11    2.41    1.00 
  -2  -1 -11    1.68    0.79 
   2  -1  11    2.40    0.87 
  -2  -1 -11    1.58    0.69 
   2  -1  11    3.56    1.02 
  -2   1 -11    0.74    0.72 
   2   1  11    1.58    0.76 
   2   1  11    1.47    0.84 
   2   1  11    1.58    0.70 
  -2   1 -11    0.99    0.78 
   2   1  11    2.66    0.86 
  -2   1 -11    2.67    0.94 
  -2   1 -11    1.56    0.94 
   3  -1  11    2.23    0.94 
   3  -1  11    2.34    1.10 
  -3  -1 -11    4.31    0.84 
  -3  -1 -11    3.09    1.12 
  -3  -1 -11    3.30    1.06 
  -3  -1 -11    3.76    1.16 
   3  -1  11    3.33    0.96 
   3  -1  11    3.92    1.13 
   3  -1  11    2.55    1.07 
   3   1  11    4.11    0.88 
   3   1  11    2.46    0.97 
   3   1  11    2.80    0.91 
  -3   1 -11    1.38    0.87 
  -3   1 -11    3.82    1.04 
   3   1  11    4.24    1.04 
  -3   1 -11    2.99    0.96 
  -3   1 -11    4.59    1.20 
  -4  -1 -11    2.12    0.73 
   4  -1  11    2.63    0.89 
  -4  -1 -11    1.55    0.92 
   4  -1  11    1.23    0.82 
   4  -1  11    1.91    1.27 
   4  -1  11    2.07    1.03 
  -4  -1 -11    1.44    0.85 
  -4  -1 -11    1.64    0.87 
   4   1  11    1.00    0.75 
  -4   1 -11    1.86    0.78 
   4   1  11    0.99    0.94 
   4   1  11    1.71    0.98 
  -4   1 -11    1.73    0.86 
  -4   1 -11    2.47    0.97 
   4   1  11    1.13    1.21 
   5  -1  11   10.79    1.37 
  -5  -1 -11   11.73    1.54 
   5  -1  11    5.67    1.18 
  -5  -1 -11   10.70    1.34 
   5  -1  11    6.71    1.19 
  -5  -1 -11    6.47    1.18 
   5   1  11    5.64    1.23 
   5   1  11    6.44    1.21 
  -5   1 -11   10.33    1.34 
   5   1  11    9.09    1.24 
  -5   1 -11    6.30    1.17 
  -6  -1 -11    0.76    0.64 
  -6  -1 -11    2.41    0.91 
   6  -1  11    2.80    1.02 
  -6  -1 -11    1.17    0.81 
   6  -1  11    1.10    0.89 
  -6  -1 -11    0.53    0.84 
  -6   1 -11    1.04    0.80 
  -6   1 -11    1.70    0.88 
   6   1  11    1.15    0.87 
   6   1  11    1.52    1.01 
   6   1  11    2.36    1.07 
  -6   1 -11    1.01    0.76 
  -7  -1 -11    1.49    0.84 
   7  -1  11    0.40    0.82 
  -7  -1 -11    1.70    0.92 
   7  -1  11   -0.22    0.78 
  -7  -1 -11    0.41    0.61 
  -7  -1 -11    1.41    0.70 
   7   1  11    2.74    0.99 
  -7   1 -11    1.22    0.81 
  -7   1 -11    1.84    0.80 
   7   1  11    1.04    0.77 
   7   1  11    2.16    1.10 
  -7   1 -11    1.38    0.85 
   8  -1  11   11.94    1.83 
  -8  -1 -11   13.16    1.22 
  -8  -1 -11   12.85    1.37 
  -8  -1 -11    8.95    1.24 
  -8  -1 -11   12.11    1.59 
   8  -1  11   11.94    1.49 
  -8   1 -11   10.25    1.76 
   8   1  11   13.77    1.81 
   8   1  11    9.50    1.26 
  -8   1 -11   11.63    1.45 
   8   1  11   13.70    1.93 
  -8   1 -11   12.87    1.75 
  -8   1 -11   11.70    1.47 
  -9  -1 -11    4.23    0.88 
   9  -1  11    4.38    1.17 
  -9  -1 -11    4.41    0.99 
  -9   1 -11    5.44    1.24 
   9   1  11    5.03    1.31 
  -9   1 -11    3.74    1.12 
   9  -2 -11    0.81    0.81 
  -9  -2  11    2.10    0.89 
  -9   2  11    0.96    0.76 
   9   2 -11    0.80    0.72 
  -8  -2  11   15.74    1.23 
   8  -2 -11    9.67    1.67 
  -8  -2  11   11.31    1.52 
   8  -2 -11   12.30    1.72 
   8  -2 -11   11.01    1.79 
   8   2 -11   12.93    1.61 
  -8   2  11   10.45    1.42 
   8   2 -11   10.05    1.89 
   8   2 -11   11.33    1.22 
   7  -2 -11    3.45    1.03 
   7  -2 -11    4.92    1.41 
   7  -2 -11    6.02    1.22 
  -7  -2  11    5.51    0.93 
   7   2 -11    8.18    1.04 
  -7   2  11    6.44    1.22 
   7   2 -11    3.88    1.29 
   7   2 -11    7.59    1.44 
   6  -2 -11    5.24    1.28 
  -6  -2  11    4.71    1.21 
   6  -2 -11    3.81    1.05 
  -6  -2  11    4.78    0.83 
   6  -2 -11    3.90    1.05 
   6   2 -11    4.54    1.35 
   6   2 -11    4.77    0.90 
  -6   2  11    3.85    0.99 
   6   2 -11    3.57    1.05 
   5  -2 -11    3.33    1.19 
  -5  -2  11    4.24    1.02 
  -5  -2  11    4.06    0.45 
   5  -2 -11    2.82    1.21 
   5  -2 -11    5.22    1.26 
  -5  -2  11    3.48    0.73 
  -5   2  11    7.08    1.39 
   5   2 -11    3.29    1.04 
   5   2 -11    2.30    1.05 
   5   2 -11    2.34    0.76 
   4  -2 -11    1.98    0.90 
   4  -2 -11    2.49    1.12 
   4  -2 -11    3.48    1.14 
   4  -2 -11    2.65    1.11 
  -4  -2  11    2.99    0.92 
  -4  -2  11    3.86    0.79 
  -4  -2  11    2.62    0.94 
  -4  -2  11    2.19    0.51 
   4   2 -11    2.11    0.69 
   4   2 -11    1.35    0.86 
   4   2 -11    2.27    0.57 
   4   2 -11    2.11    0.84 
  -4   2  11    4.96    1.19 
   3  -2 -11   13.99    1.63 
  -3  -2  11   13.17    1.16 
   3  -2 -11   12.61    1.67 
   3  -2 -11   12.71    1.61 
  -3  -2  11   14.66    1.50 
   3  -2 -11   12.55    1.65 
  -3  -2  11   15.46    1.03 
  -3  -2  11   14.68    1.63 
  -3   2  11   15.38    1.52 
  -3   2  11   13.43    0.80 
   3   2 -11   14.71    1.62 
  -3   2  11   13.00    0.79 
   3   2 -11   13.40    1.04 
   3   2 -11   11.90    1.14 
  -3   2  11   12.33    1.33 
   3   2 -11   12.14    1.56 
  -2  -2  11   22.52    1.35 
  -2  -2  11   21.62    1.78 
   2  -2 -11   23.08    1.94 
  -2  -2  11   24.40    1.51 
   2  -2 -11   19.82    1.93 
  -2  -2  11   22.05    1.95 
   2  -2 -11   20.11    1.66 
   2  -2 -11   19.65    1.85 
  -2   2  11   24.51    1.80 
  -2   2  11   23.50    1.24 
  -2   2  11   18.40    1.50 
   2   2 -11   19.79    1.81 
   2   2 -11   21.75    1.48 
   2   2 -11   22.42    1.39 
  -2   2  11   23.57    1.24 
   2   2 -11   24.49    1.93 
  -1  -2  11   12.73    1.61 
  -1  -2  11    9.44    1.27 
   1  -2 -11   10.74    1.20 
   1  -2 -11    8.07    1.46 
   1  -2 -11   12.24    1.92 
   1  -2 -11    8.83    1.53 
  -1  -2  11   12.07    1.18 
  -1  -2  11   10.88    1.10 
  -1   2  11   10.26    1.38 
   1   2 -11   10.43    1.15 
  -1   2  11   12.04    1.07 
   1   2 -11   12.18    1.49 
   1   2 -11    9.45    1.11 
   1   2 -11   10.61    1.46 
  -1   2  11   10.85    1.02 
  -1   2  11   10.83    1.12 
   0  -2 -11   10.19    1.57 
   0  -2  11   11.14    1.59 
   0  -2  11   11.87    1.25 
   0  -2  11    8.77    1.11 
   0  -2 -11    7.84    1.44 
   0  -2  11    7.26    1.21 
   0  -2  11   13.25    1.94 
   0  -2 -11   11.14    1.11 
   0   2  11   11.35    1.11 
   0   2  11    9.07    1.48 
   0   2 -11    9.81    1.63 
   0   2  11   10.34    1.13 
   0   2  11    9.20    1.02 
   0   2 -11   11.27    1.68 
   0   2 -11    8.65    1.16 
   0   2 -11    9.19    1.13 
  -1  -2 -11   32.99    2.12 
  -1  -2 -11   31.71    1.64 
   1  -2  11   31.28    1.87 
   1  -2  11   30.15    2.03 
  -1  -2 -11   32.87    2.26 
   1  -2  11   31.17    2.24 
  -1  -2 -11   31.55    2.21 
   1  -2  11   29.54    1.92 
   1  -2  11   29.95    2.14 
   1   2  11   31.45    2.11 
  -1   2 -11   33.98    2.27 
  -1   2 -11   30.07    1.89 
   1   2  11   29.99    1.82 
   1   2  11   29.95    1.60 
  -1   2 -11   30.00    2.07 
   1   2  11   36.60    1.91 
  -1   2 -11   31.14    1.92 
  -1   2 -11   33.89    2.30 
  -2  -2 -11   28.04    2.09 
   2  -2  11   31.64    2.12 
   2  -2  11   29.06    1.89 
  -2  -2 -11   30.85    1.56 
   2  -2  11   30.95    2.26 
  -2  -2 -11   31.39    2.11 
  -2  -2 -11   28.89    2.10 
   2  -2  11   30.33    1.98 
   2  -2  11   31.16    2.26 
  -2   2 -11   30.16    1.99 
  -2   2 -11   34.25    2.03 
   2   2  11   29.70    1.54 
  -2   2 -11   31.71    2.22 
  -2   2 -11   26.89    1.82 
   2   2  11   28.16    1.86 
   2   2  11   27.13    1.84 
  -2   2 -11   32.76    2.14 
   2   2  11   31.08    2.14 
   3  -2  11    2.98    1.97 
   3  -2  11    2.06    1.00 
  -3  -2 -11    3.55    1.04 
   3  -2  11    4.50    1.11 
  -3  -2 -11    2.51    0.64 
   3  -2  11    2.68    1.00 
  -3  -2 -11    4.13    1.01 
   3  -2  11    2.82    0.97 
  -3  -2 -11    3.37    0.99 
  -3   2 -11    2.87    1.00 
   3   2  11    3.62    0.95 
  -3   2 -11    4.07    1.03 
  -3   2 -11    2.60    0.95 
   3   2  11    3.18    1.05 
  -3   2 -11    1.05    0.80 
  -3   2 -11    4.48    1.13 
   3   2  11    2.92    0.91 
   3   2  11    4.05    0.75 
   4  -2  11   -0.22    0.66 
   4  -2  11    0.08    0.72 
  -4  -2 -11    0.93    0.83 
  -4  -2 -11    0.11    0.63 
  -4  -2 -11    0.56    0.52 
  -4  -2 -11    0.52    0.76 
  -4   2 -11    0.86    0.72 
   4   2  11    1.59    0.56 
  -4   2 -11    0.07    0.64 
   4   2  11    0.05    0.82 
  -4   2 -11    0.76    0.76 
   4   2  11    0.13    0.68 
  -5  -2 -11   19.36    1.69 
  -5  -2 -11   18.58    1.16 
   5  -2  11   20.72    1.69 
   5  -2  11   19.42    1.79 
  -5  -2 -11   19.52    1.64 
   5   2  11   18.98    1.83 
  -5   2 -11   17.33    1.65 
  -5   2 -11   25.21    1.96 
   5   2  11   19.23    1.18 
   5   2  11   17.09    1.75 
  -5   2 -11   17.15    1.62 
  -6  -2 -11   18.79    1.13 
  -6  -2 -11   17.27    1.64 
  -6  -2 -11   16.57    1.79 
   6  -2  11   19.01    1.83 
  -6  -2 -11   14.45    1.49 
   6  -2  11   18.64    1.58 
   6   2  11   19.08    1.87 
  -6   2 -11   18.29    1.70 
   6   2  11   20.29    1.87 
  -6   2 -11   16.01    1.67 
  -6   2 -11   15.17    1.64 
   6   2  11   17.40    1.16 
  -7  -2 -11    1.01    0.80 
   7  -2  11    0.64    0.94 
   7  -2  11    0.21    0.66 
  -7  -2 -11    3.28    0.90 
  -7  -2 -11    4.35    1.13 
  -7   2 -11   -0.07    0.75 
  -7   2 -11    0.11    0.75 
   7   2  11    1.57    0.85 
   7   2  11    0.49    0.95 
   7   2  11    1.90    0.66 
  -7   2 -11    1.69    0.94 
  -8  -2 -11    9.70    1.28 
   8  -2  11    6.55    1.48 
  -8  -2 -11   11.73    1.35 
   8  -2  11    7.65    1.32 
  -8  -2 -11   10.44    0.95 
  -8  -2 -11    5.53    1.47 
   8   2  11    5.67    1.49 
  -8   2 -11    5.58    1.22 
   8   2  11    8.50    1.15 
   8   2  11    8.79    1.56 
  -8   2 -11    8.00    1.53 
   9  -2  11    3.56    1.12 
  -9  -2 -11    3.46    0.91 
   9   2  11    4.18    1.62 
  -9   2 -11    3.81    1.22 
   8  -3 -11    2.29    0.92 
   8  -3 -11    1.66    0.99 
  -8  -3  11    3.98    1.17 
  -8   3  11    0.22    0.76 
   8   3 -11    1.09    0.54 
   7  -3 -11    1.76    0.92 
  -7  -3  11    2.71    1.05 
   7  -3 -11    1.70    1.00 
   7  -3 -11    3.66    1.11 
   7   3 -11    3.53    1.34 
   7   3 -11    3.10    0.65 
  -7   3  11    2.41    0.90 
   7   3 -11    3.16    0.96 
  -6  -3  11    0.28    0.37 
  -6  -3  11    1.20    0.95 
  -6  -3  11    0.98    0.46 
  -6  -3  11    0.42    0.83 
   6  -3 -11    1.64    1.11 
   6  -3 -11    0.50    0.71 
   6  -3 -11    2.01    0.99 
  -6   3  11    2.20    0.83 
   6   3 -11    0.92    0.72 
   6   3 -11   -0.58    0.63 
   6   3 -11    0.14    0.47 
   6   3 -11    0.14    0.38 
   5  -3 -11   24.82    2.02 
  -5  -3  11   21.90    1.91 
  -5  -3  11   23.75    1.25 
   5  -3 -11   23.41    1.87 
  -5  -3  11   22.12    1.19 
   5  -3 -11   18.97    2.00 
  -5  -3  11   23.54    1.93 
   5   3 -11   19.39    1.14 
  -5   3  11   25.50    1.80 
   5   3 -11   22.87    2.01 
   5   3 -11   20.43    1.89 
   5   3 -11   23.36    1.28 
  -4  -3  11    0.24    0.49 
  -4  -3  11    0.93    0.92 
  -4  -3  11    0.24    0.46 
   4  -3 -11    1.13    0.74 
   4  -3 -11   -0.63    0.77 
  -4  -3  11    0.71    0.71 
   4  -3 -11    0.21    0.98 
   4  -3 -11    1.69    0.92 
   4  -3 -11    0.99    1.01 
   4   3 -11    0.90    0.56 
  -4   3  11    0.97    0.33 
   4   3 -11    0.60    0.53 
   4   3 -11    0.62    0.84 
  -4   3  11    1.45    0.80 
  -4   3  11    1.37    0.34 
   4   3 -11    0.13    0.78 
  -3  -3  11    1.23    0.86 
  -3  -3  11    0.84    0.56 
   3  -3 -11    1.12    0.65 
   3  -3 -11    0.31    0.83 
  -3  -3  11    0.41    0.52 
  -3  -3  11    1.09    0.80 
   3  -3 -11    1.48    0.84 
   3  -3 -11    0.29    0.88 
   3  -3 -11    0.16    0.98 
   3   3 -11    0.82    0.58 
  -3   3  11   -0.15    0.41 
  -3   3  11    0.80    0.74 
   3   3 -11    0.61    0.78 
   3   3 -11    0.37    0.76 
   3   3 -11    0.26    0.51 
  -2  -3  11    3.68    1.14 
  -2  -3  11    1.46    0.90 
   2  -3 -11    3.30    1.04 
  -2  -3  11    5.22    0.88 
   2  -3 -11    3.32    1.20 
   2  -3 -11    3.54    1.26 
  -2  -3  11    2.70    0.77 
   2  -3 -11    3.70    1.02 
   2   3 -11    3.16    1.05 
   2   3 -11    3.09    1.13 
  -2   3  11    4.33    1.03 
  -2   3  11    3.66    0.75 
  -2   3  11    4.63    0.82 
   2   3 -11    1.92    0.75 
   2   3 -11    3.82    0.84 
   1  -3 -11   24.89    2.04 
   1  -3 -11   28.54    1.64 
   1  -3 -11   27.13    2.20 
   1  -3 -11   25.06    2.08 
  -1  -3  11   26.15    1.65 
  -1  -3  11   27.89    1.93 
  -1  -3  11   23.63    1.52 
  -1   3  11   22.88    1.49 
  -1   3  11   27.42    1.59 
   1   3 -11   31.57    1.79 
   1   3 -11   24.77    2.06 
  -1   3  11   28.35    1.99 
   1   3 -11   25.82    1.56 
   1   3 -11   27.19    2.08 
   0  -3 -11    4.88    1.20 
   0  -3 -11    3.90    1.31 
   0  -3  11    4.08    0.96 
   0  -3  11    3.39    0.93 
   0  -3 -11    3.89    0.79 
   0  -3  11    6.32    1.03 
   0  -3  11    5.66    1.42 
   0  -3 -11    2.02    0.87 
   0   3 -11    3.51    0.90 
   0   3  11    4.94    1.02 
   0   3 -11    4.62    1.23 
   0   3 -11    3.37    1.05 
   0   3  11    4.70    1.12 
   0   3  11    2.86    0.83 
   0   3 -11    3.24    0.90 
  -1  -3 -11    6.25    1.43 
   1  -3  11    5.97    1.18 
  -1  -3 -11    6.52    1.38 
   1  -3  11    4.44    1.01 
  -1  -3 -11    8.95    0.90 
  -1  -3 -11    6.46    1.38 
   1  -3  11    6.68    1.18 
   1  -3  11    6.56    1.13 
   1   3  11    5.48    1.06 
  -1   3 -11    8.18    1.56 
  -1   3 -11    9.10    1.08 
   1   3  11    5.61    0.77 
   1   3  11    5.90    1.11 
   1   3  11    5.79    1.08 
  -1   3 -11    6.10    1.17 
  -1   3 -11    5.71    1.17 
   2  -3  11    2.05    0.81 
  -2  -3 -11    3.56    0.99 
   2  -3  11    0.78    0.79 
  -2  -3 -11    2.57    0.96 
  -2  -3 -11    2.10    0.55 
  -2  -3 -11    1.01    0.72 
   2  -3  11    0.18    0.72 
   2  -3  11    2.85    1.03 
  -2   3 -11    1.26    0.87 
  -2   3 -11    1.46    1.04 
   2   3  11    0.52    0.81 
   2   3  11    2.58    0.98 
   2   3  11    2.15    0.86 
  -2   3 -11    1.03    0.75 
  -2   3 -11    1.57    0.68 
   2   3  11    2.83    0.56 
  -3  -3 -11    2.31    1.06 
  -3  -3 -11    3.30    0.58 
   3  -3  11    2.73    0.97 
  -3  -3 -11    4.78    1.20 
   3  -3  11    1.80    0.82 
   3  -3  11    2.18    0.96 
   3  -3  11    2.65    1.11 
  -3  -3 -11    2.50    0.96 
   3   3  11    5.16    1.18 
   3   3  11    2.85    0.56 
  -3   3 -11    3.02    0.95 
   3   3  11    3.83    1.10 
  -3   3 -11    4.87    1.30 
   4  -3  11    2.88    0.99 
  -4  -3 -11    3.64    1.24 
   4  -3  11    3.61    1.13 
  -4  -3 -11    4.17    1.21 
  -4  -3 -11    3.20    1.06 
  -4   3 -11    2.46    0.82 
   4   3  11    2.85    1.10 
   4   3  11    2.46    1.08 
  -4   3 -11    3.19    1.17 
  -5  -3 -11    3.50    1.08 
  -5  -3 -11    3.71    1.07 
  -5  -3 -11    2.43    0.91 
   5  -3  11    4.26    1.10 
   5  -3  11    4.77    0.97 
   5   3  11    5.69    1.27 
  -5   3 -11    5.52    1.25 
   5   3  11    4.46    1.13 
  -5   3 -11    4.90    1.11 
  -5   3 -11    3.70    1.12 
  -6  -3 -11    1.31    0.64 
   6  -3  11    0.59    0.88 
   6  -3  11    1.89    0.82 
  -6  -3 -11    0.51    0.87 
  -6  -3 -11    1.27    0.85 
  -6   3 -11    0.90    0.87 
   6   3  11    0.59    0.97 
  -6   3 -11    0.19    0.82 
   6   3  11   -0.29    0.69 
  -7  -3 -11    3.20    0.87 
   7  -3  11    0.33    0.67 
  -7  -3 -11   -0.39    0.73 
   7  -3  11    0.75    0.98 
  -7  -3 -11    0.53    0.70 
   7   3  11    0.67    0.94 
  -7   3 -11    0.34    0.77 
   7   3  11    0.98    0.76 
  -7   3 -11    0.47    0.81 
  -8  -3 -11    7.98    1.33 
   8  -3  11   10.13    1.26 
  -8  -3 -11    7.23    1.64 
  -8   3 -11    9.13    1.60 
   7  -4 -11    2.31    1.35 
   7  -4 -11    1.51    0.93 
  -7  -4  11   -1.21    0.69 
   7  -4 -11    0.98    1.02 
  -7  -4  11    2.40    0.59 
  -7   4  11    0.54    0.70 
  -6  -4  11   13.84    1.98 
   6  -4 -11   12.58    1.48 
   6  -4 -11   12.72    1.85 
   6  -4 -11   14.38    1.93 
  -6  -4  11   11.74    1.03 
  -6   4  11   12.64    1.37 
   6   4 -11   13.84    1.74 
   6   4 -11   12.87    1.02 
   6   4 -11   14.88    1.77 
  -5  -4  11    3.32    0.94 
  -5  -4  11   -0.48    0.63 
   5  -4 -11    0.06    0.65 
  -5  -4  11    0.28    0.47 
   5  -4 -11   -0.29    0.83 
   5  -4 -11   -0.20    0.91 
   5   4 -11   -0.04    0.87 
  -5   4  11    0.02    0.70 
   5   4 -11    0.12    0.58 
   4  -4 -11    2.70    0.91 
  -4  -4  11    2.41    0.90 
   4  -4 -11    3.57    0.99 
   4  -4 -11    3.16    1.31 
   4  -4 -11    2.06    1.12 
  -4  -4  11    1.34    0.99 
  -4   4  11    2.97    0.57 
  -4   4  11    3.50    0.97 
  -4   4  11    3.17    0.61 
   4   4 -11    2.60    0.91 
   4   4 -11    2.48    0.81 
   4   4 -11    1.91    0.99 
   3  -4 -11    1.87    1.06 
   3  -4 -11    2.42    0.95 
   3  -4 -11    2.56    0.80 
   3  -4 -11    1.77    1.20 
  -3  -4  11    1.82    0.81 
  -3  -4  11    2.95    1.06 
   3  -4 -11    3.13    1.17 
  -3  -4  11    2.25    1.15 
  -3  -4  11    1.58    0.52 
   3   4 -11    1.62    0.50 
   3   4 -11    2.24    1.00 
   3   4 -11    2.83    0.88 
  -3   4  11    2.72    0.65 
  -3   4  11    3.62    0.93 
   3   4 -11    1.93    1.02 
   2  -4 -11   31.92    1.90 
  -2  -4  11   30.66    2.18 
   2  -4 -11   34.77    2.51 
  -2  -4  11   34.60    1.56 
   2  -4 -11   37.35    2.59 
   2  -4 -11   32.75    1.75 
  -2  -4  11   37.35    2.51 
  -2  -4  11   32.00    1.87 
   2  -4 -11   35.31    2.52 
   2   4 -11   33.05    2.40 
   2   4 -11   34.31    2.40 
   2   4 -11   34.28    1.92 
  -2   4  11   37.05    2.24 
   2   4 -11   33.87    1.56 
  -2   4  11   35.19    1.73 
  -2   4  11   33.95    1.77 
   1  -4 -11    3.21    1.13 
   1  -4 -11    0.85    1.05 
  -1  -4  11    2.43    0.65 
  -1  -4  11    4.28    1.06 
   1  -4 -11    2.19    0.71 
   1  -4 -11    2.01    0.88 
  -1  -4  11    0.89    0.79 
   1  -4 -11    1.07    0.58 
  -1  -4  11    0.55    0.71 
  -1   4  11    1.68    0.86 
   1   4 -11    0.65    0.88 
   1   4 -11    0.98    0.96 
   1   4 -11    1.71    0.58 
  -1   4  11    1.89    0.75 
  -1   4  11    1.65    0.80 
   0  -4  11    0.20    0.70 
   0  -4 -11   -0.56    0.35 
   0  -4 -11    0.50    0.45 
   0  -4  11   -0.03    0.62 
   0  -4 -11    0.06    0.86 
   0  -4  11    0.05    0.64 
   0  -4 -11   -0.25    0.78 
   0  -4  11    0.37    0.95 
   0  -4 -11   -0.79    0.58 
   0   4 -11   -0.76    0.59 
   0   4  11    0.74    0.75 
   0   4  11   -0.05    0.60 
   0   4 -11    0.75    0.88 
   0   4 -11   -0.27    0.71 
   0   4 -11   -0.09    0.48 
   0   4  11    0.27    0.78 
   1  -4  11   -0.44    0.53 
  -1  -4 -11    0.08    0.65 
  -1  -4 -11    1.31    1.08 
  -1  -4 -11    0.61    0.38 
   1  -4  11    0.92    0.85 
   1  -4  11    0.79    0.81 
   1  -4  11   -0.28    0.71 
  -1  -4 -11    0.62    0.80 
  -1  -4 -11    0.50    0.38 
   1   4  11    2.11    0.82 
   1   4  11    0.17    0.69 
  -1   4 -11    0.89    0.83 
  -1   4 -11    0.33    0.61 
   1   4  11    0.39    0.78 
  -1   4 -11    1.63    1.03 
   2  -4  11   23.95    2.13 
   2  -4  11   26.69    1.94 
   2  -4  11   23.80    1.80 
  -2  -4 -11   22.41    2.06 
  -2  -4 -11   22.46    1.93 
  -2  -4 -11   25.30    2.00 
   2  -4  11   22.90    1.76 
  -2   4 -11   20.77    1.56 
  -2   4 -11   23.68    2.08 
   2   4  11   24.51    1.86 
   2   4  11   26.02    2.05 
  -2   4 -11   24.42    2.10 
  -3  -4 -11   -0.02    0.79 
   3  -4  11    2.41    0.99 
   3  -4  11    3.24    0.97 
  -3  -4 -11    2.53    0.96 
  -3  -4 -11    4.15    1.30 
   3   4  11    2.77    1.09 
   3   4  11    2.46    1.16 
  -3   4 -11    1.91    0.98 
  -3   4 -11    2.54    1.08 
  -4  -4 -11    0.90    0.77 
   4  -4  11    1.53    0.89 
  -4  -4 -11    0.54    0.76 
   4  -4  11    1.61    1.01 
  -4  -4 -11    2.08    1.02 
   4   4  11    1.14    0.97 
  -4   4 -11    2.04    1.00 
   4   4  11    1.52    0.91 
  -4   4 -11    0.80    0.95 
  -5  -4 -11    1.35    0.91 
  -5  -4 -11    0.24    0.92 
  -5  -4 -11    1.56    0.90 
   5  -4  11   -0.53    0.86 
   5  -4  11    1.10    0.71 
  -5   4 -11    2.73    1.07 
  -5   4 -11    1.57    1.00 
   5   4  11    1.90    1.02 
   5   4  11    0.68    0.80 
  -6  -4 -11    8.72    1.43 
   6  -4  11    5.50    1.24 
   6  -4  11    9.11    1.37 
  -6  -4 -11   13.68    1.47 
  -6  -4 -11    9.62    1.66 
  -6   4 -11    7.95    1.64 
  -6   4 -11    9.24    1.69 
   6   4  11    9.15    1.65 
   6   4  11    9.26    1.53 
  -7  -4 -11    1.49    0.81 
  -7  -4 -11    3.81    1.18 
   7  -4  11    3.56    0.95 
   7  -4  11    2.28    1.00 
  -7   4 -11    0.99    1.01 
  -7   4 -11    2.07    1.10 
   6  -5 -11    0.47    0.91 
  -6  -5  11    0.24    0.64 
   6  -5 -11    0.98    0.82 
  -6   5  11    1.07    0.82 
  -5  -5  11   12.02    1.57 
   5  -5 -11   13.32    1.45 
   5  -5 -11   13.62    1.77 
   5  -5 -11   15.02    2.21 
  -5  -5  11   12.82    1.29 
   5   5 -11   19.82    2.01 
   5   5 -11   14.27    1.35 
  -5   5  11   12.53    0.89 
  -5   5  11   13.20    1.41 
   5   5 -11   13.73    2.02 
  -4  -5  11   -0.17    0.86 
   4  -5 -11   -0.37    0.82 
   4  -5 -11   -0.32    0.89 
   4  -5 -11    3.02    0.87 
  -4  -5  11   -0.21    0.68 
   4  -5 -11   -0.26    0.69 
   4   5 -11    0.84    0.93 
   4   5 -11    0.84    0.96 
  -4   5  11    0.99    0.53 
  -4   5  11    0.57    0.72 
  -3  -5  11    0.43    0.86 
   3  -5 -11    1.01    0.95 
   3  -5 -11    0.54    1.01 
   3  -5 -11    3.70    1.33 
   3  -5 -11   -0.03    0.75 
  -3  -5  11    0.79    0.74 
   3  -5 -11    0.55    0.66 
  -3  -5  11   -0.20    0.64 
   3   5 -11    3.55    1.15 
  -3   5  11    0.80    0.89 
   3   5 -11    4.28    1.38 
  -3   5  11    2.05    0.75 
   2  -5 -11    1.31    0.93 
   2  -5 -11    3.47    1.50 
  -2  -5  11    2.39    1.15 
  -2  -5  11    2.37    0.84 
  -2  -5  11    3.92    1.11 
   2  -5 -11    4.08    0.92 
   2  -5 -11    2.38    0.74 
   2  -5 -11    3.21    1.35 
   2   5 -11    3.80    1.12 
  -2   5  11    2.89    0.89 
  -2   5  11    1.40    0.95 
   2   5 -11    3.43    1.17 
  -1  -5  11   14.77    1.52 
  -1  -5  11   15.03    1.03 
  -1  -5  11   20.02    1.97 
   1  -5 -11   13.77    1.80 
  -1  -5  11   21.66    1.80 
   1  -5 -11   15.21    1.91 
   1  -5 -11   13.38    1.79 
  -1  -5  11   14.31    1.06 
   1  -5 -11   18.41    1.13 
   1  -5 -11   18.13    1.07 
   1   5 -11   13.42    1.77 
  -1   5  11   15.37    1.67 
   1   5 -11   13.55    1.76 
   0  -5 -11    4.93    1.25 
   0  -5  11    3.63    1.37 
   0  -5 -11    2.47    0.99 
   0  -5  11    3.86    0.78 
   0  -5 -11    2.70    1.00 
   0  -5  11    4.04    1.16 
   0  -5  11    2.29    0.95 
   0   5 -11    2.49    1.08 
   0   5  11    3.29    1.21 
   0   5 -11    3.85    1.18 
   1  -5  11    3.54    0.84 
  -1  -5 -11    1.85    1.00 
  -1  -5 -11    4.81    1.32 
   1  -5  11    2.78    0.92 
   1  -5  11    3.48    1.11 
   1  -5  11    3.16    1.06 
   1  -5  11    2.26    0.93 
  -1  -5 -11    2.51    0.89 
  -1   5 -11    2.20    1.04 
   1   5  11    2.94    1.05 
  -1   5 -11    4.09    1.21 
   2  -5  11    1.20    0.88 
  -2  -5 -11    1.31    1.05 
   2  -5  11    1.52    0.92 
  -2  -5 -11    0.62    0.87 
   2  -5  11    2.34    1.09 
   2  -5  11    1.12    0.72 
  -2  -5 -11    3.09    1.09 
  -2   5 -11    2.31    1.11 
   2   5  11    1.85    0.99 
  -2   5 -11    1.31    1.03 
  -3  -5 -11    1.01    0.87 
   3  -5  11    3.69    1.14 
  -3  -5 -11    2.54    1.15 
   3  -5  11    3.00    0.94 
  -3  -5 -11    4.05    1.21 
   3  -5  11    4.39    0.99 
  -3   5 -11    2.27    1.09 
   3   5  11    3.25    1.10 
  -3   5 -11    2.78    1.18 
   4  -5  11    1.09    0.99 
   4  -5  11    2.47    0.90 
  -4  -5 -11    0.61    0.78 
  -4  -5 -11   -1.36    0.65 
  -4  -5 -11    2.97    1.13 
   4  -5  11    0.85    0.82 
   4   5  11    0.97    0.92 
  -4   5 -11    2.12    1.11 
  -4   5 -11    0.81    0.94 
   4   5  11    0.63    0.97 
   5  -5  11    2.50    1.12 
   5  -5  11    1.50    0.75 
   5  -5  11    0.82    0.77 
  -5  -5 -11    2.20    1.15 
  -5  -5 -11    1.16    0.89 
   5   5  11    1.95    1.08 
  -5   5 -11    2.29    1.03 
  -5   5 -11    1.12    1.01 
   5   5  11    4.71    1.23 
   6  -5  11   -0.13    0.70 
   6  -5  11    1.47    0.74 
  -6  -5 -11    0.09    0.81 
  -6   5 -11   -0.18    0.76 
   4  -6 -11    1.93    0.86 
   4  -6 -11    1.36    0.65 
  -4  -6  11    2.09    0.89 
  -3  -6  11    3.98    1.03 
   3  -6 -11    3.68    1.00 
   3  -6 -11    4.57    1.07 
  -3  -6  11    3.32    1.17 
  -3   6  11    6.51    1.28 
  -3   6  11    4.53    0.98 
   3   6 -11    3.61    1.20 
  -2  -6  11    6.26    1.58 
  -2  -6  11    7.11    1.35 
   2  -6 -11    5.99    1.08 
   2  -6 -11    6.06    1.55 
  -2  -6  11    8.24    1.41 
   2  -6 -11    6.49    0.87 
   2  -6 -11    7.08    1.02 
   2  -6 -11    4.31    1.53 
   2   6 -11    3.45    1.34 
  -2   6  11    7.06    1.31 
   2   6 -11    7.82    1.63 
   1  -6 -11    2.08    1.03 
  -1  -6  11    0.72    0.77 
  -1  -6  11    1.29    1.18 
   1  -6 -11    2.07    1.04 
   1  -6 -11    0.37    0.77 
  -1  -6  11    0.80    0.85 
   1   6 -11    1.85    0.99 
   1   6 -11    2.29    1.09 
  -1   6  11    1.41    0.87 
   0  -6 -11    6.26    1.43 
   0  -6 -11    1.75    0.89 
   0  -6 -11    0.51    1.00 
   0  -6  11    0.33    0.85 
   0  -6  11    1.79    1.10 
   0  -6 -11    0.53    0.86 
   0  -6  11    1.82    0.94 
   0  -6  11    1.54    0.58 
   0  -6  11    2.57    0.61 
   0   6 -11    0.93    0.92 
   0   6  11    1.68    1.02 
  -1  -6 -11    5.71    1.21 
  -1  -6 -11    6.25    1.34 
  -1  -6 -11    5.76    1.49 
   1  -6  11    6.94    1.40 
  -1  -6 -11    9.03    1.67 
   1  -6  11    1.31    1.54 
   1  -6  11    6.64    0.96 
  -1   6 -11    4.84    1.43 
   1   6  11    9.16    1.62 
  -1   6 -11    5.59    1.33 
   2  -6  11    7.73    1.48 
  -2  -6 -11    7.61    1.62 
   2  -6  11    8.25    1.03 
   2  -6  11    6.52    1.17 
  -2  -6 -11    4.41    1.73 
  -2  -6 -11    4.93    1.38 
   2  -6  11    6.72    1.30 
   2   6  11    4.25    1.22 
  -2   6 -11    5.72    1.67 
   3  -6  11    1.29    0.85 
  -3  -6 -11   -0.05    0.78 
   3  -6  11    1.49    1.02 
  -3  -6 -11    0.58    0.86 
   3  -6  11    2.57    0.90 
  -3   6 -11    2.50    1.04 
   3   6  11    1.44    0.87 
   8   0 -12    1.12    1.20 
   8   0 -12    2.29    1.13 
  -8   0  12    1.84    0.90 
   7   0 -12   24.93    2.01 
   7   0 -12   17.75    1.84 
  -7   0  12   18.99    1.77 
   7   0 -12   15.51    2.11 
   6   0 -12    4.30    1.31 
   6   0 -12    5.47    1.58 
  -6   0  12    3.64    1.12 
   6   0 -12    6.76    1.33 
   5   0 -12    3.26    1.03 
   5   0 -12    1.31    0.96 
  -5   0  12    1.50    0.81 
  -4   0  12    2.68    0.91 
   4   0 -12    3.89    1.11 
  -4   0  12    3.02    1.09 
   4   0 -12    1.05    0.92 
   4   0 -12    2.83    1.07 
   4   0 -12    3.02    1.20 
  -3   0  12   29.89    2.08 
  -3   0  12   26.91    1.13 
   3   0 -12   24.21    2.12 
   3   0 -12   28.56    2.15 
  -3   0  12   27.54    1.11 
   3   0 -12   25.77    1.85 
   3   0 -12   26.78    2.01 
  -3   0  12   30.72    1.94 
   2   0 -12    4.28    0.95 
  -2   0  12    2.64    0.92 
   2   0 -12    4.44    1.18 
  -2   0  12    4.79    0.76 
   2   0 -12    4.92    1.14 
  -2   0  12    4.69    1.11 
  -2   0  12    2.74    0.64 
  -2   0  12    4.57    1.22 
   2   0 -12    3.45    1.08 
  -1   0  12   15.61    1.52 
  -1   0  12   14.40    1.11 
  -1   0  12   14.82    1.56 
   1   0 -12   15.39    1.46 
   1   0 -12   21.44    2.46 
  -1   0  12   16.77    1.19 
  -1   0  12   14.22    1.45 
   1   0 -12   14.85    1.71 
   1   0 -12   14.30    1.48 
   0   0 -12   12.15    1.36 
   0   0  12   12.93    2.09 
   0   0 -12    8.89    1.42 
   0   0 -12    9.14    1.47 
   0   0  12   10.63    1.60 
   0   0  12   10.99    1.29 
   0   0  12   10.93    1.09 
   0   0  12   10.55    1.13 
   0   0 -12   11.34    1.34 
   1   0  12    7.07    1.17 
   1   0  12    6.93    1.14 
  -1   0 -12    5.92    1.28 
   1   0  12    5.55    1.03 
  -1   0 -12    5.41    1.31 
  -1   0 -12    5.11    1.07 
   1   0  12    5.02    0.99 
  -1   0 -12    8.80    1.20 
  -2   0 -12    7.06    1.41 
  -2   0 -12    9.85    1.55 
   2   0  12    6.58    1.22 
  -2   0 -12    8.42    1.31 
   2   0  12    8.69    1.57 
   2   0  12    6.31    1.13 
  -2   0 -12    7.43    1.43 
   2   0  12    6.71    1.17 
  -3   0 -12   48.77    2.39 
  -3   0 -12   49.14    2.74 
   3   0  12   43.61    2.34 
  -3   0 -12   51.62    2.75 
   3   0  12   46.13    2.50 
   3   0  12   53.27    2.72 
  -3   0 -12   53.09    2.74 
   3   0  12   48.91    2.48 
   4   0  12   13.29    1.47 
   4   0  12   11.53    1.41 
   4   0  12   12.37    1.55 
  -4   0 -12   13.07    1.57 
  -4   0 -12   11.57    1.28 
  -4   0 -12   11.62    1.51 
  -4   0 -12   14.73    1.63 
   5   0  12    3.46    1.06 
  -5   0 -12    2.14    0.98 
   5   0  12    2.66    1.07 
  -5   0 -12    1.31    0.90 
   5   0  12    3.48    1.10 
  -5   0 -12    1.76    0.82 
  -5   0 -12    1.36    0.94 
  -6   0 -12    2.53    1.00 
   6   0  12    5.43    1.21 
  -6   0 -12    0.98    0.82 
  -6   0 -12    1.62    0.83 
  -6   0 -12    1.87    0.92 
   6   0  12    1.80    1.02 
   6   0  12    1.98    1.02 
   7   0  12   21.36    1.98 
  -7   0 -12   14.61    1.61 
  -7   0 -12   22.48    2.01 
  -7   0 -12   16.34    1.49 
   7   0  12   15.56    1.78 
  -7   0 -12   14.70    1.56 
  -8   0 -12    7.93    1.41 
   8   0  12    5.60    1.30 
  -8   0 -12    8.58    1.36 
   8  -1 -12    4.67    1.49 
   8  -1 -12    6.64    1.38 
  -8  -1  12    6.63    1.21 
  -8   1  12    4.71    1.25 
   8   1 -12    5.62    1.20 
  -7  -1  12    6.19    1.49 
   7  -1 -12    9.08    1.65 
   7  -1 -12   11.07    1.66 
   7  -1 -12    9.16    1.51 
   7   1 -12   11.62    1.96 
  -7   1  12    9.37    1.44 
   7   1 -12    6.99    1.33 
  -6  -1  12    0.55    0.78 
   6  -1 -12   -0.04    0.83 
  -6  -1  12    0.88    0.69 
   6  -1 -12   -0.99    0.92 
   6  -1 -12    2.21    1.10 
   6   1 -12    0.61    0.85 
   6   1 -12    0.53    0.90 
  -6   1  12    0.45    0.72 
   6   1 -12    0.82    0.81 
   5  -1 -12    4.04    1.08 
  -5  -1  12    1.08    0.79 
   5  -1 -12    1.60    1.17 
  -5  -1  12    3.12    0.87 
   5  -1 -12    1.00    0.97 
  -5   1  12    2.08    0.90 
   5   1 -12    2.88    1.21 
   5   1 -12    3.45    1.09 
   5   1 -12    2.84    0.94 
  -4  -1  12   31.28    1.05 
   4  -1 -12   32.90    2.38 
  -4  -1  12   33.42    1.07 
   4  -1 -12   32.89    2.35 
   4  -1 -12   31.39    2.21 
  -4  -1  12   35.28    2.28 
  -4  -1  12   32.78    1.88 
   4  -1 -12   36.32    2.45 
   4   1 -12   32.37    2.29 
   4   1 -12   34.46    2.33 
   4   1 -12   28.44    1.84 
  -4   1  12   38.37    2.30 
   3  -1 -12   17.59    1.84 
   3  -1 -12   19.20    1.77 
   3  -1 -12   18.10    1.87 
  -3  -1  12   19.04    1.04 
  -3  -1  12   17.61    1.71 
   3  -1 -12   19.22    1.79 
  -3  -1  12   21.63    1.08 
  -3  -1  12   19.62    1.53 
   3   1 -12   20.52    1.88 
  -3   1  12   20.63    2.58 
   3   1 -12   22.53    1.97 
  -3   1  12   19.15    1.71 
   3   1 -12   19.81    1.79 
  -3   1  12   21.73    0.92 
  -3   1  12   19.60    0.91 
  -2  -1  12    2.47    0.81 
  -2  -1  12    4.71    0.97 
  -2  -1  12    3.78    0.73 
   2  -1 -12    3.74    1.18 
   2  -1 -12    4.41    1.28 
   2  -1 -12    2.71    1.06 
   2  -1 -12    3.39    0.93 
  -2  -1  12    4.35    0.73 
   2   1 -12    4.32    1.13 
   2   1 -12    2.39    0.94 
   2   1 -12    2.95    0.89 
  -2   1  12    5.67    0.73 
  -2   1  12    3.75    1.15 
  -2   1  12    4.07    1.07 
  -2   1  12    4.41    0.72 
  -1  -1  12    3.29    0.77 
   1  -1 -12    3.31    1.18 
  -1  -1  12    3.61    1.00 
   1  -1 -12    2.90    0.97 
  -1  -1  12    3.07    0.78 
  -1  -1  12    1.56    0.79 
   1  -1 -12    3.28    0.95 
   1  -1 -12    3.04    1.07 
  -1   1  12    3.95    1.17 
  -1   1  12    4.15    0.78 
   1   1 -12    2.12    0.90 
  -1   1  12    3.05    0.72 
   1   1 -12    3.89    1.02 
  -1   1  12    4.04    0.96 
   1   1 -12    3.68    1.03 
   0  -1  12   48.95    2.74 
   0  -1  12   41.46    2.43 
   0  -1 -12   38.52    2.50 
   0  -1  12   39.84    2.19 
   0  -1 -12   41.38    2.55 
   0  -1  12   38.89    2.37 
   0  -1 -12   45.23    2.20 
   0  -1  12   39.41    1.97 
   0  -1 -12   41.55    2.38 
   0  -1  12   40.38    2.00 
   0   1  12   40.46    2.39 
   0   1  12   38.25    1.93 
   0   1  12   42.16    2.16 
   0   1 -12   43.28    2.61 
   0   1  12   41.30    1.95 
   0   1 -12   43.27    2.42 
   0   1 -12   43.81    2.27 
   1  -1  12    7.59    1.37 
   1  -1  12    6.69    1.43 
   1  -1  12    7.53    1.15 
  -1  -1 -12    8.65    1.25 
  -1  -1 -12    8.23    1.57 
  -1  -1 -12    6.83    1.27 
   1  -1  12    8.65    1.27 
  -1  -1 -12    6.53    1.38 
   1  -1  12   11.37    1.35 
   1  -1  12    6.01    1.20 
  -1   1 -12    4.53    1.17 
   1   1  12    7.61    1.15 
  -1   1 -12    5.65    1.18 
  -1   1 -12    6.76    1.23 
   1   1  12    6.85    1.15 
   1   1  12    8.38    1.38 
   1   1  12    7.53    1.16 
   2  -1  12   14.78    1.59 
   2  -1  12   13.88    1.41 
   2  -1  12   12.27    1.50 
  -2  -1 -12   13.62    1.57 
   2  -1  12   14.16    1.65 
  -2  -1 -12   14.19    1.27 
  -2  -1 -12   16.13    1.68 
  -2  -1 -12   14.18    1.56 
   2  -1  12   13.52    1.39 
   2   1  12   14.03    1.59 
  -2   1 -12   13.12    1.45 
   2   1  12   13.96    1.38 
  -2   1 -12   14.68    1.48 
   2   1  12   14.18    1.29 
   2   1  12   15.74    1.47 
   3  -1  12    4.77    1.06 
  -3  -1 -12    3.03    1.02 
  -3  -1 -12    4.24    1.10 
   3  -1  12    5.03    1.09 
  -3  -1 -12    2.82    0.97 
   3  -1  12    4.58    1.18 
   3   1  12    5.46    1.11 
  -3   1 -12    4.34    1.21 
   3   1  12    5.07    1.20 
  -3   1 -12    4.21    1.08 
   3   1  12    4.07    0.90 
   3   1  12    6.14    1.26 
  -3   1 -12    4.35    1.11 
   4  -1  12   33.58    2.15 
  -4  -1 -12   31.24    2.19 
  -4  -1 -12   32.01    2.21 
  -4  -1 -12   29.49    2.12 
   4  -1  12   30.53    2.09 
  -4  -1 -12   29.03    1.70 
  -4   1 -12   29.62    2.11 
   4   1  12   29.42    2.20 
  -4   1 -12   29.49    1.98 
   4   1  12   28.49    2.06 
   4   1  12   32.44    1.78 
  -4   1 -12   26.56    2.12 
  -5  -1 -12    2.99    0.82 
   5  -1  12    2.24    1.07 
  -5  -1 -12    3.12    1.06 
  -5  -1 -12    2.17    1.10 
   5  -1  12    4.92    1.17 
   5   1  12    3.33    1.13 
   5   1  12    2.90    0.93 
  -5   1 -12    1.97    0.97 
  -5   1 -12    3.26    1.11 
   5   1  12    5.11    1.20 
  -5   1 -12    2.64    0.99 
  -6  -1 -12    3.97    1.12 
   6  -1  12    3.78    1.22 
   6  -1  12    5.86    1.25 
  -6  -1 -12    5.22    0.98 
  -6  -1 -12    6.19    1.35 
  -6  -1 -12    2.01    0.95 
  -6   1 -12    4.71    1.27 
   6   1  12    4.41    1.17 
   6   1  12    3.82    1.35 
   6   1  12    4.03    1.04 
  -6   1 -12    5.30    1.15 
  -6   1 -12    3.64    1.10 
  -7  -1 -12    1.34    0.86 
   7  -1  12    0.08    0.82 
   7  -1  12    1.36    1.01 
  -7  -1 -12    1.16    0.91 
  -7  -1 -12    1.45    0.68 
  -7  -1 -12    2.12    0.88 
  -7   1 -12    1.20    0.86 
   7   1  12    1.48    0.97 
  -7   1 -12    0.94    0.75 
  -7   1 -12    1.39    0.78 
   7   1  12    1.10    1.09 
  -7   1 -12    0.94    0.84 
   7   1  12    2.85    1.00 
  -8  -1 -12    2.62    0.99 
  -8  -1 -12    2.72    0.85 
   8  -1  12    1.94    1.06 
   8   1  12    2.75    1.11 
   8  -2 -12   -0.28    0.91 
   8  -2 -12    0.43    0.92 
   8   2 -12    0.69    0.74 
  -8   2  12    0.59    0.73 
   7  -2 -12   17.79    1.97 
  -7  -2  12   17.81    1.82 
   7  -2 -12   19.86    1.94 
  -7  -2  12   17.67    1.33 
   7  -2 -12   17.73    1.86 
   7   2 -12   17.62    2.04 
  -7   2  12   18.71    1.68 
   7   2 -12   20.65    1.88 
   7   2 -12   21.64    1.46 
  -6  -2  12    0.82    0.84 
   6  -2 -12   -0.66    0.87 
   6  -2 -12    1.83    1.07 
  -6  -2  12    0.90    0.61 
  -6   2  12    0.47    0.82 
   6   2 -12    0.27    0.65 
   6   2 -12    1.17    1.00 
   6   2 -12   -0.69    0.70 
   5  -2 -12    3.74    1.21 
  -5  -2  12    6.99    1.02 
  -5  -2  12    5.50    1.14 
   5  -2 -12    8.40    1.57 
   5  -2 -12    5.59    1.42 
   5   2 -12    3.52    1.22 
   5   2 -12    7.08    1.03 
  -5   2  12    6.01    1.14 
   5   2 -12    4.60    1.35 
  -4  -2  12    5.14    0.62 
  -4  -2  12    3.42    0.84 
   4  -2 -12    6.79    1.47 
   4  -2 -12    4.81    1.72 
   4  -2 -12    6.14    1.39 
   4  -2 -12    5.99    1.36 
  -4  -2  12    5.96    1.24 
  -4  -2  12    6.66    1.26 
   4   2 -12    5.20    0.93 
   4   2 -12    4.74    1.17 
  -4   2  12    6.87    1.26 
   4   2 -12    4.29    1.17 
   3  -2 -12   18.91    1.72 
   3  -2 -12   18.64    1.93 
  -3  -2  12   18.19    1.15 
  -3  -2  12   17.03    1.66 
   3  -2 -12   18.11    1.95 
   3  -2 -12   14.84    1.74 
  -3  -2  12   16.12    1.74 
  -3  -2  12   16.98    1.35 
   3   2 -12   18.20    1.82 
  -3   2  12   16.87    0.88 
  -3   2  12   18.77    1.69 
   3   2 -12   19.50    1.41 
  -3   2  12   14.64    1.52 
   3   2 -12   18.94    1.81 
  -3   2  12   15.92    0.88 
  -2  -2  12    5.34    0.95 
  -2  -2  12    3.64    1.12 
   2  -2 -12    2.93    1.03 
   2  -2 -12    2.26    1.02 
   2  -2 -12    7.25    1.19 
   2  -2 -12    6.72    2.01 
  -2  -2  12    3.87    1.23 
  -2  -2  12    5.02    0.90 
   2   2 -12    3.83    1.24 
   2   2 -12    4.87    0.92 
   2   2 -12    4.12    0.82 
   2   2 -12    5.35    1.30 
  -2   2  12    3.71    0.67 
  -2   2  12    3.16    1.11 
  -2   2  12    4.93    0.77 
  -2   2  12    4.23    1.00 
   1  -2 -12    2.75    1.09 
  -1  -2  12    2.53    0.76 
   1  -2 -12    2.27    0.83 
   1  -2 -12    2.22    1.05 
  -1  -2  12    1.73    1.00 
   1  -2 -12    1.44    0.99 
  -1  -2  12    3.15    0.82 
  -1  -2  12    2.73    0.82 
   1   2 -12    2.43    0.74 
  -1   2  12    1.86    0.94 
   1   2 -12    3.02    1.00 
  -1   2  12    2.17    0.71 
  -1   2  12    3.50    0.89 
   1   2 -12    2.25    0.75 
   1   2 -12    1.70    1.04 
   0  -2  12   21.35    2.06 
   0  -2  12   22.80    1.85 
   0  -2  12   23.59    1.61 
   0  -2 -12   22.56    1.88 
   0  -2 -12   22.20    2.06 
   0  -2 -12   22.30    1.52 
   0  -2  12   21.03    1.60 
   0  -2 -12   21.61    1.99 
   0   2  12   22.74    1.50 
   0   2 -12   21.23    1.97 
   0   2 -12   18.65    1.53 
   0   2 -12   26.45    1.99 
   0   2  12   21.34    1.84 
   0   2  12   23.51    1.54 
   0   2  12   21.44    1.50 
   0   2 -12   23.47    1.64 
  -1  -2 -12    7.03    1.52 
  -1  -2 -12    6.87    1.51 
   1  -2  12    5.56    1.20 
  -1  -2 -12    6.00    1.21 
   1  -2  12    7.30    1.47 
  -1  -2 -12    8.11    1.11 
   1  -2  12    9.12    1.35 
   1  -2  12    5.76    1.24 
  -1   2 -12    6.53    1.24 
   1   2  12    4.24    1.00 
  -1   2 -12    5.74    1.38 
   1   2  12    5.39    1.02 
   1   2  12    6.63    1.14 
  -1   2 -12    7.37    1.22 
  -1   2 -12    7.22    1.20 
   1   2  12    7.72    1.43 
  -2  -2 -12    1.03    0.95 
  -2  -2 -12    1.31    0.63 
   2  -2  12    1.12    0.74 
   2  -2  12    0.98    0.78 
  -2  -2 -12    1.68    0.92 
   2  -2  12    2.69    1.18 
  -2  -2 -12    0.90    0.77 
   2   2  12    2.35    1.01 
  -2   2 -12    2.14    0.87 
  -2   2 -12    0.27    0.79 
  -2   2 -12    1.24    0.71 
  -2   2 -12    1.02    0.79 
   2   2  12    1.43    0.77 
   2   2  12    1.29    0.80 
  -3  -2 -12   12.22    1.52 
   3  -2  12   12.95    1.45 
  -3  -2 -12   10.22    1.00 
  -3  -2 -12   12.73    1.57 
  -3  -2 -12   10.95    1.55 
   3  -2  12   11.11    1.38 
   3   2  12   12.63    1.07 
   3   2  12    9.49    1.41 
   3   2  12   12.07    1.47 
  -3   2 -12   11.25    1.47 
  -3   2 -12   10.29    1.32 
  -3   2 -12   10.94    1.55 
  -4  -2 -12   11.51    1.02 
   4  -2  12   10.50    1.38 
  -4  -2 -12   10.97    1.44 
  -4  -2 -12   11.47    1.50 
  -4  -2 -12   11.01    1.72 
   4  -2  12   12.08    1.48 
  -4   2 -12   13.14    1.95 
   4   2  12   10.61    1.59 
  -4   2 -12   13.52    1.47 
  -4   2 -12    8.23    1.39 
   4   2  12   10.03    1.58 
   4   2  12   10.13    0.98 
   5  -2  12    8.48    1.31 
  -5  -2 -12    7.45    1.56 
   5  -2  12    8.72    1.46 
  -5  -2 -12    7.58    0.87 
  -5  -2 -12    8.53    1.43 
   5   2  12    6.80    1.43 
   5   2  12    5.80    1.34 
  -5   2 -12    6.91    1.36 
   5   2  12    7.53    0.91 
  -5   2 -12    8.47    1.54 
  -5   2 -12    8.40    1.54 
  -6  -2 -12    0.27    0.72 
   6  -2  12   -0.71    0.61 
  -6  -2 -12    0.55    0.85 
   6  -2  12   -1.14    0.78 
  -6  -2 -12    0.04    0.78 
  -6  -2 -12    0.92    0.55 
   6   2  12    0.52    0.94 
   6   2  12   -0.62    0.48 
  -6   2 -12   -0.15    0.70 
  -6   2 -12    0.01    0.70 
   6   2  12   -0.38    0.79 
  -6   2 -12   -0.12    0.68 
  -7  -2 -12    3.09    1.12 
   7  -2  12    5.60    1.25 
  -7  -2 -12    4.35    1.02 
  -7  -2 -12    4.24    1.12 
   7  -2  12    4.89    1.39 
   7   2  12    6.19    0.97 
  -7   2 -12    5.21    1.26 
   7   2  12    5.07    1.30 
   7   2  12    4.45    1.29 
  -7   2 -12    4.16    1.21 
   8  -2  12    4.04    1.20 
  -8  -2 -12    6.21    1.30 
  -8  -2 -12    6.41    0.91 
  -8   2 -12    6.21    1.39 
   7  -3 -12    5.42    1.42 
   7  -3 -12    7.34    1.55 
  -7   3  12    9.47    1.37 
   7   3 -12    6.74    0.87 
  -6  -3  12    1.38    0.36 
  -6  -3  12    1.40    0.87 
   6  -3 -12    0.59    0.98 
  -6  -3  12    0.68    0.49 
   6  -3 -12    0.85    1.16 
   6  -3 -12   -0.71    0.83 
   6   3 -12    0.92    0.54 
   6   3 -12   -0.11    0.75 
   6   3 -12    0.87    0.77 
  -6   3  12    1.35    0.81 
   5  -3 -12    0.71    0.92 
  -5  -3  12   -0.37    0.48 
  -5  -3  12   -0.10    0.76 
   5  -3 -12    0.64    1.02 
  -5  -3  12    0.95    0.86 
   5  -3 -12   -0.80    0.87 
  -5  -3  12    0.68    0.45 
   5   3 -12    0.31    0.82 
   5   3 -12    1.69    0.53 
   5   3 -12    0.65    0.54 
  -5   3  12    1.23    0.85 
   5   3 -12    1.63    0.98 
  -4  -3  12   25.42    1.43 
  -4  -3  12   23.80    2.06 
   4  -3 -12   24.09    2.21 
  -4  -3  12   26.22    2.06 
  -4  -3  12   26.63    1.39 
   4  -3 -12   28.19    2.39 
   4  -3 -12   27.94    2.13 
   4   3 -12   26.49    1.41 
   4   3 -12   24.69    1.42 
   4   3 -12   22.80    2.03 
  -4   3  12   24.82    1.87 
   4   3 -12   23.58    2.07 
   3  -3 -12   13.59    1.83 
   3  -3 -12   12.82    1.52 
  -3  -3  12   12.91    1.55 
  -3  -3  12   10.76    1.08 
   3  -3 -12   14.55    2.14 
  -3  -3  12   16.18    2.18 
  -3  -3  12   10.44    1.02 
   3  -3 -12   11.04    1.72 
   3  -3 -12   12.98    1.36 
  -3   3  12   11.73    0.84 
   3   3 -12   11.50    1.56 
  -3   3  12   11.00    0.84 
   3   3 -12   11.24    1.11 
   3   3 -12   10.84    1.06 
   3   3 -12   11.80    1.72 
  -3   3  12   12.20    1.51 
   2  -3 -12    1.13    1.01 
   2  -3 -12    2.81    0.95 
  -2  -3  12    2.88    0.75 
  -2  -3  12    1.78    1.08 
   2  -3 -12    3.25    1.24 
  -2  -3  12    1.72    0.69 
  -2  -3  12    4.46    1.02 
   2  -3 -12    1.76    0.89 
   2   3 -12    1.17    0.70 
  -2   3  12    2.08    0.64 
   2   3 -12    3.00    1.08 
   2   3 -12    3.31    1.14 
  -2   3  12    1.91    0.65 
  -2   3  12    1.71    0.87 
   2   3 -12    0.84    0.71 
  -1  -3  12    1.82    1.12 
   1  -3 -12    3.10    1.03 
   1  -3 -12    2.20    0.85 
   1  -3 -12    1.13    0.90 
   1  -3 -12    1.66    1.11 
  -1  -3  12    3.85    1.05 
  -1  -3  12    2.68    0.80 
  -1  -3  12    3.76    0.88 
   1   3 -12    2.08    1.02 
  -1   3  12    3.12    0.77 
  -1   3  12    4.35    1.10 
  -1   3  12    3.05    0.81 
   1   3 -12    1.85    0.97 
   1   3 -12    3.05    0.89 
   1   3 -12    3.15    0.80 
   0  -3 -12   30.08    2.17 
   0  -3  12   28.75    1.89 
   0  -3  12   30.65    2.40 
   0  -3 -12   32.08    1.67 
   0  -3  12   27.51    2.06 
   0  -3 -12   29.66    2.31 
   0  -3 -12   31.54    2.36 
   0  -3  12   31.50    1.82 
   0   3  12   29.24    1.78 
   0   3 -12   31.40    1.85 
   0   3  12   35.32    2.29 
   0   3 -12   32.81    2.29 
   0   3 -12   34.26    2.00 
   0   3 -12   30.20    2.31 
   0   3  12   37.87    1.97 
  -1  -3 -12    6.54    1.57 
  -1  -3 -12    5.93    1.53 
   1  -3  12    3.57    1.27 
   1  -3  12    3.84    1.05 
   1  -3  12    4.10    1.07 
  -1  -3 -12    5.04    1.19 
  -1  -3 -12    5.08    0.84 
   1  -3  12    4.92    1.09 
   1   3  12    6.41    0.91 
   1   3  12    3.19    0.97 
  -1   3 -12    3.31    0.89 
   1   3  12    4.06    1.25 
  -1   3 -12    3.77    1.30 
   1   3  12    3.47    0.96 
  -1   3 -12    5.37    1.32 
   2  -3  12    9.51    1.55 
   2  -3  12    8.25    1.80 
   2  -3  12    8.45    1.43 
  -2  -3 -12    4.99    1.20 
  -2  -3 -12    8.22    1.48 
  -2  -3 -12    7.22    0.79 
   2   3  12    9.10    1.56 
   2   3  12    7.80    1.37 
   2   3  12    5.31    0.74 
  -2   3 -12    7.06    1.27 
  -2   3 -12    9.03    1.70 
  -2   3 -12    8.87    1.62 
  -3  -3 -12    2.51    1.12 
  -3  -3 -12    2.11    1.09 
  -3  -3 -12    2.32    0.89 
   3  -3  12    3.15    0.92 
   3  -3  12    3.24    1.09 
   3   3  12    3.30    1.18 
  -3   3 -12    4.72    1.19 
   3   3  12    2.60    1.06 
  -3   3 -12    2.12    0.72 
  -3   3 -12    2.83    1.11 
   4  -3  12   26.22    1.90 
  -4  -3 -12   24.36    2.02 
  -4  -3 -12   21.62    1.93 
  -4  -3 -12   24.14    2.03 
   4  -3  12   26.60    2.03 
   4   3  12   28.44    2.18 
  -4   3 -12   22.63    2.03 
   4   3  12   24.52    1.06 
  -4   3 -12   24.39    2.13 
  -4   3 -12   26.23    1.94 
   4   3  12   29.88    2.21 
   5  -3  12    1.10    0.92 
  -5  -3 -12    2.48    0.94 
   5  -3  12    1.46    1.09 
  -5  -3 -12    0.87    0.92 
  -5  -3 -12    1.58    0.96 
   5   3  12    2.31    1.08 
  -5   3 -12    1.54    0.95 
  -5   3 -12    2.72    1.11 
  -5   3 -12    0.46    0.84 
   5   3  12    1.17    0.88 
   6  -3  12    4.88    1.13 
   6  -3  12    4.45    1.25 
  -6  -3 -12    3.92    1.27 
  -6  -3 -12    2.65    1.06 
   6   3  12    3.15    1.22 
  -6   3 -12    2.35    1.07 
  -6   3 -12    1.26    0.93 
   6   3  12    6.47    1.44 
  -6   3 -12    4.75    1.29 
   7  -3  12    1.43    0.87 
  -7  -3 -12    0.20    0.62 
  -7   3 -12    0.35    1.18 
  -7   3 -12    1.81    0.93 
   6  -4 -12    3.57    1.25 
   6  -4 -12    2.65    1.07 
  -6   4  12    3.56    1.00 
  -5  -4  12    2.36    0.68 
   5  -4 -12    2.87    1.22 
  -5  -4  12    1.37    0.79 
   5  -4 -12    2.62    1.09 
   5  -4 -12   -0.47    1.02 
  -5  -4  12    0.53    0.74 
   5   4 -12    1.79    1.04 
  -5   4  12    1.41    0.84 
   5   4 -12    1.70    0.72 
   5   4 -12    1.72    0.99 
   4  -4 -12    1.22    1.07 
  -4  -4  12    1.98    0.69 
  -4  -4  12    1.54    1.09 
  -4  -4  12    1.71    1.04 
  -4  -4  12    0.98    0.46 
   4  -4 -12    2.26    1.18 
   4  -4 -12    2.61    1.00 
   4   4 -12    1.19    0.76 
   4   4 -12    0.22    0.87 
  -4   4  12    1.89    0.46 
   4   4 -12    0.17    0.85 
   3  -4 -12   15.98    2.31 
   3  -4 -12   12.47    1.32 
   3  -4 -12   11.42    1.47 
  -3  -4  12   13.15    1.58 
   3  -4 -12   16.70    2.33 
   3  -4 -12   13.44    1.89 
  -3  -4  12   11.73    1.95 
  -3  -4  12   14.29    1.30 
  -3  -4  12   14.64    1.03 
   3   4 -12   12.75    1.73 
  -3   4  12   14.81    1.03 
   3   4 -12   13.90    1.02 
  -3   4  12   19.22    1.70 
  -3   4  12   13.36    1.06 
   3   4 -12   13.65    1.71 
   3   4 -12   14.66    1.34 
   2  -4 -12    2.07    0.73 
   2  -4 -12    1.06    1.03 
  -2  -4  12    1.43    1.00 
  -2  -4  12    1.82    1.12 
  -2  -4  12    2.22    0.58 
   2  -4 -12    2.71    1.16 
   2  -4 -12    1.70    1.16 
  -2  -4  12    3.89    0.89 
   2  -4 -12    1.72    0.87 
   2   4 -12    1.68    0.63 
  -2   4  12    1.37    0.73 
   2   4 -12    2.02    1.02 
   2   4 -12    1.90    1.12 
  -2   4  12    1.94    0.95 
  -2   4  12    2.55    0.76 
   2   4 -12    2.74    0.91 
  -1  -4  12   10.87    1.99 
   1  -4 -12   11.90    1.09 
  -1  -4  12   10.44    1.28 
   1  -4 -12    9.97    1.05 
   1  -4 -12   12.24    1.97 
  -1  -4  12   11.27    1.65 
  -1  -4  12   12.79    1.16 
   1  -4 -12   13.83    2.05 
  -1   4  12   10.30    1.25 
   1   4 -12   14.26    1.74 
   1   4 -12   16.93    1.88 
  -1   4  12   10.79    1.22 
  -1   4  12   11.86    1.73 
   1   4 -12   15.82    1.18 
   0  -4 -12    5.86    1.40 
   0  -4 -12    4.52    1.35 
   0  -4  12    8.07    1.30 
   0  -4 -12    5.71    0.80 
   0  -4 -12    7.79    0.87 
   0  -4  12    9.78    1.52 
   0  -4 -12    5.42    1.23 
   0  -4  12    5.38    1.35 
   0  -4  12    6.50    1.10 
   0   4 -12    8.81    1.63 
   0   4  12    9.94    1.62 
   0   4  12    9.28    1.40 
   0   4 -12    7.20    1.40 
   0   4  12    8.08    1.23 
   0   4 -12    8.07    1.19 
  -1  -4 -12    1.53    0.86 
  -1  -4 -12    2.42    1.28 
   1  -4  12    3.42    1.03 
  -1  -4 -12    3.36    0.56 
  -1  -4 -12    2.68    1.16 
   1  -4  12    2.22    1.12 
   1  -4  12    2.36    0.92 
  -1  -4 -12    2.97    0.54 
   1  -4  12    2.42    1.00 
  -1   4 -12    2.13    0.80 
   1   4  12    1.90    0.93 
  -1   4 -12    0.92    1.07 
  -1   4 -12    2.75    1.09 
   1   4  12    3.70    1.05 
  -2  -4 -12    1.81    0.96 
   2  -4  12    3.11    1.02 
   2  -4  12    0.81    0.82 
  -2  -4 -12    2.45    0.97 
  -2  -4 -12    2.08    1.12 
  -2   4 -12    1.52    1.08 
   2   4  12    1.41    1.07 
  -2   4 -12    1.81    0.73 
   2   4  12    1.49    0.92 
  -2   4 -12    3.09    1.03 
  -3  -4 -12   23.60    1.97 
  -3  -4 -12   22.17    2.06 
   3  -4  12   23.64    1.83 
   3  -4  12   22.93    1.97 
  -3  -4 -12   25.14    2.05 
  -3   4 -12   25.23    1.80 
  -3   4 -12   22.15    2.15 
  -3   4 -12   22.28    2.05 
   3   4  12   28.29    2.20 
   3   4  12   23.00    1.98 
   4  -4  12    4.35    1.05 
  -4  -4 -12    5.08    1.20 
  -4  -4 -12    5.71    1.38 
   4  -4  12    4.01    1.17 
  -4   4 -12    4.17    1.23 
   4   4  12    3.80    1.32 
   4   4  12    5.48    1.36 
  -4   4 -12    6.80    1.52 
  -5  -4 -12    0.84    0.88 
  -5  -4 -12   -0.34    0.60 
   5  -4  12    0.85    0.82 
  -5  -4 -12    1.13    1.05 
  -5   4 -12    1.27    0.94 
  -5   4 -12    0.92    0.94 
   5   4  12    0.80    1.03 
   5   4  12    0.81    0.81 
   6  -4  12    0.37    0.87 
  -6  -4 -12    2.25    0.99 
   6   4  12    2.04    1.16 
  -6   4 -12    0.26    1.02 
  -6   4 -12    1.69    1.01 
   4  -5 -12   10.93    1.92 
  -4  -5  12    9.46    1.21 
   4   5 -12   11.10    1.86 
  -4   5  12   12.52    1.50 
  -4   5  12   10.16    0.98 
   3  -5 -12    2.76    1.27 
   3  -5 -12    6.42    1.21 
  -3  -5  12    4.86    1.11 
  -3  -5  12    7.09    1.57 
   3  -5 -12    7.03    1.14 
   3  -5 -12    2.12    1.12 
  -3   5  12    4.94    1.27 
   3   5 -12    4.96    1.31 
   3   5 -12    2.99    1.34 
  -3   5  12    4.82    0.92 
  -3   5  12    7.82    1.04 
  -2  -5  12    2.62    0.57 
   2  -5 -12    0.25    0.62 
   2  -5 -12   -0.86    1.00 
   2  -5 -12    1.16    0.96 
  -2  -5  12    1.67    0.75 
  -2  -5  12    0.98    0.86 
   2  -5 -12    0.28    1.04 
  -2  -5  12    4.80    1.43 
  -2   5  12    0.55    0.68 
   2   5 -12    2.07    0.98 
   2   5 -12    1.98    1.06 
  -2   5  12    0.54    0.85 
  -2   5  12    1.29    0.74 
  -1  -5  12   -0.19    0.63 
   1  -5 -12    0.32    0.49 
  -1  -5  12   -0.07    0.49 
   1  -5 -12    1.17    0.59 
   1  -5 -12    0.30    0.88 
  -1  -5  12    3.76    1.43 
  -1  -5  12    0.24    0.80 
   1  -5 -12    0.40    0.97 
   1  -5 -12    0.48    0.95 
   1   5 -12   -0.66    0.88 
  -1   5  12    0.04    0.71 
  -1   5  12   -0.24    0.79 
  -1   5  12    1.11    0.93 
   1   5 -12    0.01    0.81 
   0  -5  12   20.79    2.22 
   0  -5 -12   18.16    2.08 
   0  -5  12   19.61    1.80 
   0  -5 -12   21.60    2.02 
   0  -5 -12   14.68    1.94 
   0  -5  12   16.38    1.68 
   0  -5  12   18.41    1.33 
   0   5  12   21.71    1.95 
   0   5 -12   16.94    1.99 
   0   5 -12   19.02    2.00 
   0   5  12   19.28    1.66 
  -1  -5 -12    2.89    1.15 
   1  -5  12    1.32    0.82 
   1  -5  12    3.59    1.14 
  -1  -5 -12    2.28    1.21 
   1  -5  12    3.56    1.59 
  -1  -5 -12    2.25    1.22 
  -1   5 -12    1.71    1.12 
  -1   5 -12    2.35    1.19 
   1   5  12    1.95    1.06 
   1   5  12    1.90    1.00 
  -2  -5 -12    6.01    1.61 
   2  -5  12    6.23    1.34 
   2  -5  12    6.56    1.37 
   2  -5  12    5.87    1.14 
  -2  -5 -12    2.09    1.06 
  -2  -5 -12    4.86    1.32 
  -2   5 -12    4.37    1.25 
   2   5  12    5.70    1.37 
   2   5  12    6.11    1.34 
  -2   5 -12    6.17    1.43 
  -3  -5 -12    0.93    1.10 
  -3  -5 -12    0.31    0.72 
   3  -5  12    2.78    0.99 
  -3  -5 -12   -1.35    0.81 
   3  -5  12    1.31    0.78 
  -3   5 -12    2.12    1.17 
   3   5  12    0.30    1.00 
   3   5  12    2.51    1.17 
  -3   5 -12    1.21    0.94 
   4  -5  12   11.47    1.48 
   4  -5  12   11.98    1.75 
   4  -5  12   14.02    1.50 
  -4  -5 -12   14.96    2.56 
  -4  -5 -12   13.29    1.76 
  -4   5 -12   13.45    2.14 
  -7   0  13    3.59    1.02 
   7   0 -13    4.45    1.28 
   7   0 -13    1.26    1.27 
  -6   0  13    1.77    0.93 
   6   0 -13    0.54    1.03 
   6   0 -13    1.59    1.13 
   6   0 -13    1.65    0.97 
  -5   0  13   23.12    1.96 
   5   0 -13   24.68    2.13 
   5   0 -13   22.12    2.13 
   5   0 -13   28.07    1.98 
   4   0 -13    1.69    0.93 
   4   0 -13    0.56    0.78 
   4   0 -13    2.31    0.99 
  -3   0  13    6.36    0.62 
   3   0 -13    4.50    1.07 
   3   0 -13    9.35    1.65 
  -3   0  13    5.07    1.32 
   3   0 -13    4.58    1.11 
   3   0 -13    5.76    1.37 
  -2   0  13    2.56    0.63 
  -2   0  13    2.63    0.64 
  -2   0  13    2.51    1.08 
   2   0 -13    3.38    1.13 
   2   0 -13    1.58    1.16 
   2   0 -13    2.95    1.04 
   2   0 -13    1.00    0.75 
  -1   0  13   10.18    1.03 
  -1   0  13   11.57    1.79 
   1   0 -13   13.32    1.47 
   1   0 -13   16.49    2.30 
   1   0 -13   10.73    1.33 
  -1   0  13   10.59    1.04 
   0   0  13    2.89    0.83 
   0   0 -13    3.59    0.96 
   0   0  13    1.35    0.80 
   0   0 -13    4.07    1.20 
   0   0  13    0.79    0.63 
   0   0 -13    1.66    0.96 
   0   0 -13    0.98    0.81 
  -1   0 -13    5.26    1.21 
   1   0  13    3.88    0.92 
  -1   0 -13    2.69    0.92 
  -1   0 -13    3.30    1.02 
   1   0  13    1.56    0.81 
  -1   0 -13    3.21    1.19 
   1   0  13    5.00    0.97 
   1   0  13    5.27    1.30 
   2   0  13    2.71    0.87 
  -2   0 -13    2.58    1.05 
   2   0  13    1.13    0.77 
  -2   0 -13    2.20    0.94 
   2   0  13    2.10    1.03 
  -2   0 -13    2.43    1.01 
   2   0  13    2.29    0.92 
  -3   0 -13   15.70    1.66 
  -3   0 -13   16.78    1.79 
  -3   0 -13   15.97    1.71 
  -3   0 -13   18.08    1.54 
   3   0  13   14.74    1.46 
   3   0  13   16.75    1.55 
   4   0  13   10.09    1.51 
  -4   0 -13    9.09    1.58 
  -4   0 -13   12.04    1.55 
  -4   0 -13   10.03    1.45 
   4   0  13   11.76    1.68 
   4   0  13    8.86    1.59 
  -5   0 -13    6.70    1.48 
  -5   0 -13   10.03    1.58 
   5   0  13    9.00    1.62 
   5   0  13    5.03    1.30 
  -5   0 -13   12.08    1.36 
  -5   0 -13    7.56    1.48 
  -6   0 -13   -1.04    0.54 
  -6   0 -13    1.97    0.95 
  -6   0 -13    0.30    0.82 
   6   0  13    0.56    0.88 
  -6   0 -13   -0.11    0.57 
  -7   0 -13    1.94    0.96 
   7   0  13    7.03    1.43 
   7   0  13    0.38    1.24 
  -7   0 -13   -0.43    0.70 
   7  -1 -13    4.15    1.27 
   7  -1 -13    5.47    1.59 
  -7  -1  13    5.02    1.19 
   7   1 -13    3.46    1.04 
  -7   1  13    3.40    1.05 
   6  -1 -13    3.77    1.25 
   6  -1 -13    5.52    1.44 
   6  -1 -13    4.65    1.45 
  -6  -1  13    4.99    1.18 
   6   1 -13    5.20    1.40 
  -6   1  13    5.40    1.16 
   6   1 -13    6.55    1.48 
   6   1 -13    4.52    1.15 
   5  -1 -13   -0.75    0.89 
  -5  -1  13   -0.01    0.81 
   5  -1 -13    0.53    0.87 
   5  -1 -13   -1.05    0.79 
   5   1 -13    1.22    0.89 
   5   1 -13    0.39    0.75 
   5   1 -13    1.23    0.92 
  -5   1  13    1.52    0.89 
   4  -1 -13    8.74    1.59 
  -4  -1  13   11.67    1.74 
   4  -1 -13   12.51    1.59 
   4  -1 -13   11.85    1.81 
   4   1 -13   10.96    1.77 
   4   1 -13   15.15    1.74 
   4   1 -13   10.49    1.26 
  -4   1  13   13.21    1.57 
   3  -1 -13    2.20    1.01 
   3  -1 -13    2.34    1.19 
  -3  -1  13    2.88    0.57 
   3  -1 -13    1.18    1.03 
  -3  -1  13    5.89    1.42 
   3  -1 -13    1.85    0.93 
  -3  -1  13    2.70    0.55 
  -3   1  13    1.16    0.95 
   3   1 -13    2.64    1.26 
  -3   1  13    2.67    0.45 
  -3   1  13    2.19    0.44 
   3   1 -13    2.34    0.86 
   3   1 -13    3.70    1.03 
  -2  -1  13   24.19    1.34 
  -2  -1  13   27.99    2.02 
   2  -1 -13   24.23    2.19 
   2  -1 -13   25.56    2.13 
  -2  -1  13   26.56    1.40 
   2  -1 -13   25.68    1.87 
   2  -1 -13   21.73    1.84 
   2   1 -13   25.53    1.76 
   2   1 -13   22.88    1.94 
   2   1 -13   24.08    2.13 
   2   1 -13   21.81    2.01 
  -2   1  13   23.23    1.24 
  -2   1  13   25.61    1.30 
  -2   1  13   25.95    1.96 
   1  -1 -13    0.97    0.74 
  -1  -1  13    2.20    0.70 
   1  -1 -13    1.54    0.80 
   1  -1 -13    2.57    1.08 
  -1  -1  13    2.20    0.69 
  -1  -1  13    1.20    0.94 
   1  -1 -13    1.58    0.99 
   1   1 -13    1.60    0.79 
   1   1 -13    2.86    1.01 
  -1   1  13    4.16    0.79 
   1   1 -13    1.87    1.00 
  -1   1  13    2.73    0.92 
  -1   1  13    2.53    0.72 
   1   1 -13    2.39    1.15 
  -1   1  13    1.70    1.08 
   0  -1 -13    3.02    0.97 
   0  -1 -13    2.92    1.05 
   0  -1 -13    4.01    0.91 
   0  -1  13    3.43    0.89 
   0  -1  13    5.95    1.29 
   0  -1 -13    4.92    1.25 
   0   1 -13    2.93    0.96 
   0   1  13    4.07    0.91 
   0   1 -13    2.05    1.15 
   0   1  13    3.01    0.87 
   0   1  13    2.17    0.89 
   0   1  13    4.13    1.06 
   0   1 -13    2.15    0.86 
   1  -1  13    5.72    1.12 
   1  -1  13    8.68    1.17 
  -1  -1 -13    8.22    1.56 
  -1  -1 -13    6.39    1.25 
  -1  -1 -13    7.71    1.51 
   1  -1  13    6.32    1.22 
  -1  -1 -13    8.06    1.12 
  -1   1 -13    9.79    1.68 
  -1   1 -13    7.22    1.23 
   1   1  13    7.02    1.14 
   1   1  13    5.92    1.24 
   1   1  13    8.04    1.24 
   1   1  13    6.70    1.15 
  -1   1 -13    7.09    1.35 
   2  -1  13   38.74    2.16 
  -2  -1 -13   35.90    2.34 
  -2  -1 -13   37.10    2.01 
  -2  -1 -13   41.13    2.58 
  -2  -1 -13   36.76    2.48 
   2  -1  13   36.87    2.35 
  -2   1 -13   37.97    2.30 
   2   1  13   32.50    1.91 
   2   1  13   40.33    2.18 
   2   1  13   32.81    2.09 
   2   1  13   35.15    2.35 
  -2   1 -13   39.53    2.33 
  -2   1 -13   36.21    2.52 
   3  -1  13    1.33    0.99 
  -3  -1 -13    0.96    0.84 
  -3  -1 -13    2.38    0.68 
  -3  -1 -13   -0.02    0.78 
   3  -1  13    0.67    0.83 
  -3  -1 -13    2.88    1.07 
  -3   1 -13    0.80    0.78 
  -3   1 -13    1.98    1.03 
   3   1  13    0.75    0.94 
   3   1  13    1.02    0.71 
  -3   1 -13    0.45    0.74 
   3   1  13    0.47    0.82 
  -4  -1 -13    4.80    1.19 
  -4  -1 -13    7.82    1.21 
   4  -1  13    7.75    1.38 
   4  -1  13    6.46    1.30 
  -4  -1 -13    7.79    1.58 
  -4  -1 -13    5.92    1.34 
  -4   1 -13    6.47    1.28 
   4   1  13    5.77    1.02 
   4   1  13    5.57    1.30 
  -4   1 -13    4.55    1.18 
  -4   1 -13    7.55    1.51 
   4   1  13    4.41    1.25 
   5  -1  13    3.17    1.14 
  -5  -1 -13    8.22    1.55 
   5  -1  13    5.80    1.19 
  -5  -1 -13    5.19    1.33 
  -5  -1 -13    4.46    0.99 
  -5  -1 -13    5.65    1.32 
  -5   1 -13    5.32    1.18 
  -5   1 -13    6.06    1.42 
   5   1  13    4.17    1.33 
  -5   1 -13    7.63    1.41 
   5   1  13    3.86    0.96 
  -5   1 -13    5.17    1.28 
   5   1  13    6.09    1.33 
  -6  -1 -13   13.23    1.25 
  -6  -1 -13   14.65    1.72 
   6  -1  13   13.70    1.62 
  -6  -1 -13   14.65    1.67 
   6  -1  13   13.92    1.75 
   6   1  13   10.55    1.29 
   6   1  13   15.20    1.83 
  -6   1 -13   12.67    1.97 
  -6   1 -13   11.53    1.60 
   6   1  13   11.54    1.69 
  -6   1 -13   11.79    1.49 
  -7  -1 -13    2.16    0.73 
  -7  -1 -13    0.76    0.81 
   7  -1  13    2.73    1.11 
   7   1  13    2.18    1.21 
  -7   1 -13    2.03    1.05 
  -6  -2  13    8.55    1.64 
  -6  -2  13    7.89    1.14 
   6  -2 -13    6.93    1.68 
   6  -2 -13    6.79    1.50 
   6  -2 -13    7.21    1.50 
   6   2 -13    7.25    1.45 
  -6   2  13    8.38    1.48 
   6   2 -13    5.57    1.35 
   6   2 -13    9.70    1.09 
  -5  -2  13   20.15    1.49 
   5  -2 -13   22.68    2.14 
  -5  -2  13   21.52    2.00 
   5  -2 -13   19.70    2.07 
   5  -2 -13   20.08    2.07 
   5   2 -13   23.39    1.52 
  -5   2  13   22.54    1.85 
   5   2 -13   21.49    2.03 
   5   2 -13   22.43    2.04 
  -4  -2  13   13.64    1.26 
   4  -2 -13    9.46    1.64 
  -4  -2  13    9.40    0.73 
   4  -2 -13   12.85    1.97 
  -4  -2  13    8.89    1.54 
   4  -2 -13   10.02    1.65 
  -4  -2  13    8.92    0.74 
   4   2 -13    8.86    1.10 
   4   2 -13   11.29    1.57 
   4   2 -13    7.14    1.47 
  -4   2  13   11.71    1.53 
  -3  -2  13    4.01    0.67 
  -3  -2  13    3.17    0.70 
  -3  -2  13    2.11    1.01 
  -3  -2  13    3.05    0.82 
   3  -2 -13    0.26    0.89 
   3  -2 -13    4.32    1.13 
   3   2 -13    3.08    0.86 
  -3   2  13    3.35    0.50 
  -3   2  13    4.07    1.14 
  -3   2  13    3.01    0.52 
   3   2 -13    1.70    0.97 
   3   2 -13    2.74    1.14 
  -2  -2  13    7.61    1.36 
  -2  -2  13    9.77    1.57 
  -2  -2  13   10.88    1.05 
   2  -2 -13   10.75    1.71 
   2  -2 -13    9.02    1.63 
   2  -2 -13    9.86    1.42 
  -2  -2  13   10.38    1.20 
   2  -2 -13   12.31    1.57 
   2   2 -13    9.65    1.14 
  -2   2  13   10.29    1.77 
  -2   2  13   11.31    1.30 
  -2   2  13    8.60    0.85 
   2   2 -13   10.61    1.58 
   2   2 -13    9.17    1.67 
  -2   2  13    9.57    0.89 
  -1  -2  13    7.94    1.21 
  -1  -2  13    5.62    1.33 
   1  -2 -13    9.40    1.36 
  -1  -2  13   10.05    1.74 
   1  -2 -13    7.29    1.46 
  -1  -2  13    8.50    1.08 
   1  -2 -13   11.12    1.78 
   1  -2 -13    6.94    1.40 
  -1   2  13    8.82    0.99 
  -1   2  13    8.50    1.01 
  -1   2  13    8.53    1.37 
   1   2 -13    8.04    1.57 
   1   2 -13    9.49    1.21 
  -1   2  13    8.74    1.15 
   0  -2 -13   18.32    1.95 
   0  -2  13   22.77    1.58 
   0  -2  13   16.28    1.65 
   0  -2 -13   20.05    1.99 
   0  -2 -13   18.85    1.46 
   0  -2 -13   20.43    1.82 
   0   2  13   18.86    1.45 
   0   2  13   23.46    1.53 
   0   2 -13   19.59    1.59 
   0   2  13   21.08    1.89 
   0   2 -13   20.93    2.00 
   0   2  13   16.91    1.46 
   0   2 -13   18.64    1.79 
   1  -2  13    7.17    1.53 
  -1  -2 -13    7.33    1.02 
  -1  -2 -13    6.87    1.42 
   1  -2  13    5.65    1.21 
   1  -2  13    5.94    1.09 
  -1  -2 -13    7.60    1.49 
  -1  -2 -13    7.12    1.36 
  -1   2 -13    7.88    1.41 
   1   2  13    5.01    1.09 
  -1   2 -13    5.45    1.37 
  -1   2 -13    7.48    1.25 
   1   2  13    5.89    1.39 
   1   2  13    4.95    0.99 
   1   2  13    7.95    1.04 
  -2  -2 -13    3.53    1.28 
  -2  -2 -13    4.61    1.24 
  -2  -2 -13    4.33    0.86 
   2  -2  13    5.51    1.18 
  -2  -2 -13    3.86    0.98 
   2  -2  13    5.22    1.15 
  -2   2 -13    4.65    1.14 
   2   2  13    3.17    1.12 
   2   2  13    4.28    1.03 
   2   2  13    5.35    0.95 
  -2   2 -13    5.09    1.14 
  -2   2 -13    3.81    1.02 
  -3  -2 -13    4.17    1.31 
  -3  -2 -13    4.63    0.88 
   3  -2  13    2.94    1.08 
  -3  -2 -13    4.65    1.08 
  -3  -2 -13    5.87    1.41 
   3  -2  13    5.42    1.14 
   3   2  13    4.86    1.20 
   3   2  13    5.94    0.93 
  -3   2 -13    4.45    1.19 
  -3   2 -13    3.92    1.25 
   3   2  13    5.04    1.36 
  -3   2 -13    3.63    1.09 
   4  -2  13   16.15    1.60 
  -4  -2 -13   11.65    1.81 
   4  -2  13   11.33    1.50 
  -4  -2 -13   14.45    1.65 
  -4  -2 -13    9.63    1.47 
  -4  -2 -13    9.80    1.02 
  -4   2 -13   10.79    1.77 
  -4   2 -13   12.24    1.50 
  -4   2 -13   10.84    1.51 
   4   2  13   11.17    1.65 
   4   2  13    9.79    1.57 
   4   2  13   10.46    1.04 
  -5  -2 -13   17.33    1.82 
  -5  -2 -13   13.60    1.65 
   5  -2  13   14.13    1.72 
  -5  -2 -13   17.02    1.19 
  -5   2 -13   15.20    1.66 
   5   2  13   21.13    1.25 
  -5   2 -13   18.88    1.80 
  -5   2 -13   17.37    1.84 
  -6  -2 -13    2.63    0.65 
   6  -2  13    0.74    0.98 
   6  -2  13    1.46    0.98 
  -6  -2 -13    1.81    0.90 
  -6  -2 -13    1.56    0.92 
  -6   2 -13    0.41    0.80 
  -6   2 -13    0.85    0.79 
   6   2  13    1.15    1.03 
  -6   2 -13    2.33    0.98 
   6   2  13    0.63    1.06 
   6  -3 -13    3.77    2.17 
   6  -3 -13    3.06    1.29 
  -6   3  13    2.25    1.08 
   6   3 -13    3.69    0.78 
   5  -3 -13    1.65    0.92 
   5  -3 -13    3.90    1.34 
  -5  -3  13    1.69    0.45 
  -5  -3  13    1.26    0.68 
   5  -3 -13   -0.03    1.01 
  -5  -3  13    0.64    0.97 
   5   3 -13    0.01    0.87 
   5   3 -13    3.73    1.08 
   5   3 -13    0.25    0.56 
  -5   3  13    1.45    0.84 
  -4  -3  13    8.04    0.89 
  -4  -3  13    6.66    1.34 
   4  -3 -13    9.09    1.63 
   4  -3 -13   11.58    1.94 
  -4  -3  13    9.42    1.67 
   4  -3 -13    7.61    1.84 
   4   3 -13    5.00    1.24 
   4   3 -13   10.93    0.99 
  -4   3  13    7.10    1.34 
   4   3 -13    8.52    1.02 
  -3  -3  13    0.01    0.58 
  -3  -3  13    1.27    1.14 
   3  -3 -13    1.36    0.96 
  -3  -3  13    0.52    0.79 
  -3  -3  13    1.53    0.64 
   3  -3 -13    4.77    1.11 
   3  -3 -13    1.29    0.94 
  -3   3  13    1.10    0.44 
   3   3 -13    1.92    0.78 
   3   3 -13    0.77    0.88 
   3   3 -13    1.26    1.04 
  -3   3  13    1.90    0.84 
   3   3 -13    0.59    0.65 
  -3   3  13    2.41    0.51 
  -2  -3  13   13.05    1.62 
  -2  -3  13   17.51    1.34 
  -2  -3  13   20.15    1.39 
   2  -3 -13   16.54    1.48 
  -2  -3  13   13.71    1.91 
   2  -3 -13   18.47    2.08 
   2  -3 -13   13.92    1.94 
   2   3 -13   13.62    1.66 
   2   3 -13   15.25    1.39 
   2   3 -13   13.01    1.26 
   2   3 -13   14.92    1.84 
  -2   3  13   15.18    1.12 
  -2   3  13   13.70    1.63 
  -2   3  13   13.77    1.09 
   1  -3 -13    2.67    0.82 
   1  -3 -13    0.39    1.12 
  -1  -3  13    0.84    0.65 
  -1  -3  13    3.00    1.12 
  -1  -3  13    1.70    0.77 
   1  -3 -13    1.78    1.06 
   1  -3 -13    1.38    0.96 
  -1  -3  13    1.51    0.82 
   1   3 -13    2.11    1.08 
  -1   3  13    2.62    0.74 
   1   3 -13    2.51    0.90 
  -1   3  13    1.51    0.74 
  -1   3  13    1.52    0.86 
   1   3 -13    2.83    1.04 
   1   3 -13    1.91    0.80 
   0  -3  13    1.36    0.94 
   0  -3 -13    2.68    1.18 
   0  -3 -13    3.09    1.25 
   0  -3  13    1.54    0.88 
   0  -3 -13    1.52    1.10 
   0  -3  13    2.86    0.86 
   0  -3  13    2.26    1.18 
   0  -3 -13    2.24    0.70 
   0   3  13    1.48    0.77 
   0   3 -13    1.33    0.82 
   0   3 -13    2.19    1.04 
   0   3 -13    0.41    0.90 
   0   3  13    2.56    0.85 
   0   3  13    2.93    1.07 
  -1  -3 -13    7.75    1.57 
   1  -3  13    5.29    1.47 
  -1  -3 -13    6.56    1.32 
  -1  -3 -13    7.31    0.92 
   1  -3  13    7.06    1.29 
  -1  -3 -13    4.68    1.31 
   1  -3  13    8.42    1.45 
  -1   3 -13    7.92    1.29 
   1   3  13    7.12    1.44 
  -1   3 -13    7.61    1.57 
   1   3  13    6.93    1.20 
   1   3  13    5.87    1.37 
  -1   3 -13    7.71    1.38 
   1   3  13    6.83    1.07 
  -2  -3 -13   24.18    1.30 
  -2  -3 -13   23.26    2.12 
  -2  -3 -13   20.87    2.04 
  -2  -3 -13   22.99    1.98 
   2  -3  13   23.34    1.91 
   2  -3  13   24.70    1.89 
   2   3  13   25.29    1.32 
  -2   3 -13   22.47    1.75 
  -2   3 -13   24.65    2.10 
   2   3  13   22.11    1.83 
   2   3  13   22.21    2.07 
  -2   3 -13   22.33    2.13 
   3  -3  13    0.23    0.82 
   3  -3  13    1.05    0.86 
  -3  -3 -13    1.22    0.85 
  -3  -3 -13    0.33    0.86 
  -3  -3 -13    1.10    0.46 
  -3  -3 -13    1.02    0.80 
   3   3  13    1.85    0.51 
   3   3  13   -0.15    0.92 
  -3   3 -13    0.74    0.87 
  -3   3 -13    0.34    0.82 
  -3   3 -13    1.44    0.85 
   3   3  13    3.23    0.91 
  -4  -3 -13    3.95    1.30 
   4  -3  13    3.54    1.17 
   4  -3  13    5.28    1.26 
  -4  -3 -13    3.42    1.24 
   4   3  13    3.24    1.29 
  -4   3 -13    2.77    0.91 
  -4   3 -13    4.17    1.26 
  -4   3 -13    3.84    1.25 
   4   3  13    5.32    1.26 
  -5  -3 -13    5.89    1.38 
   5  -3  13    6.73    1.33 
   5  -3  13    5.51    1.25 
  -5  -3 -13    3.28    1.50 
  -5   3 -13    3.97    1.34 
  -5   3 -13    5.26    1.39 
  -5   3 -13    4.04    1.10 
   5   3  13    5.56    1.35 
   6  -3  13   11.13    1.41 
  -6   3 -13    9.53    1.70 
   6   3  13   11.72    2.93 
  -6   3 -13    6.93    1.48 
  -6   3 -13   11.15    2.46 
  -4  -4  13    0.20    0.57 
   4  -4 -13    0.65    1.00 
   4  -4 -13    2.06    1.28 
   4   4 -13    1.07    0.95 
  -4   4  13    0.08    0.27 
   4   4 -13    1.45    0.56 
  -4   4  13    0.65    0.83 
   3  -4 -13    1.15    1.14 
  -3  -4  13    3.61    0.85 
   3  -4 -13    3.54    1.26 
  -3  -4  13    2.53    0.64 
  -3  -4  13    1.50    0.90 
   3  -4 -13    2.13    1.05 
  -3  -4  13    2.26    1.19 
   3   4 -13    1.94    1.17 
  -3   4  13    2.57    0.64 
  -3   4  13    1.74    0.59 
   3   4 -13    4.24    0.94 
   3   4 -13    2.12    0.65 
   3   4 -13    1.45    1.05 
  -3   4  13    2.13    1.02 
   2  -4 -13    0.57    0.69 
  -2  -4  13    0.19    0.77 
  -2  -4  13    2.02    0.81 
   2  -4 -13    1.15    0.70 
   2  -4 -13    0.02    0.86 
   2  -4 -13    0.39    0.93 
  -2  -4  13    1.69    0.68 
  -2  -4  13    2.48    1.35 
   2  -4 -13    0.80    0.84 
   2   4 -13    0.92    0.57 
   2   4 -13    2.12    0.98 
  -2   4  13    0.31    0.64 
  -2   4  13    0.11    0.85 
   2   4 -13   -0.03    0.82 
  -1  -4  13    7.64    1.30 
  -1  -4  13    8.11    1.51 
   1  -4 -13    6.68    1.48 
   1  -4 -13    6.84    1.00 
  -1  -4  13    6.79    1.04 
   1  -4 -13    6.54    1.80 
   1  -4 -13    6.43    1.67 
  -1  -4  13    9.23    1.76 
   1  -4 -13    8.31    1.14 
  -1   4  13    5.74    1.37 
  -1   4  13   10.88    1.24 
   1   4 -13    8.76    1.71 
   1   4 -13    8.84    1.01 
   1   4 -13    9.73    1.64 
  -1   4  13    7.68    1.21 
   0  -4 -13    1.00    1.05 
   0  -4  13    1.48    1.28 
   0  -4  13    1.67    0.91 
   0  -4 -13    1.25    0.61 
   0  -4 -13    2.34    0.68 
   0  -4 -13    0.94    0.77 
   0  -4 -13    1.00    0.97 
   0  -4  13    1.40    0.76 
   0  -4  13    1.18    0.88 
   0   4 -13    2.87    0.95 
   0   4 -13    1.86    0.76 
   0   4  13    2.28    1.04 
   0   4  13    1.44    0.89 
   0   4 -13    1.68    0.99 
  -1  -4 -13    5.13    1.29 
  -1  -4 -13    0.91    1.05 
   1  -4  13    3.05    1.11 
  -1  -4 -13    2.44    0.56 
  -1  -4 -13    1.37    0.93 
   1  -4  13    0.80    0.84 
  -1  -4 -13    2.36    0.54 
   1   4  13    2.58    1.10 
  -1   4 -13    1.93    0.78 
   1   4  13    1.06    0.85 
  -1   4 -13    2.10    0.98 
  -1   4 -13    1.89    1.11 
   2  -4  13   -0.22    0.66 
  -2  -4 -13   -0.34    0.70 
   2  -4  13   -0.48    0.79 
  -2  -4 -13    0.92    1.01 
  -2  -4 -13   -0.22    0.83 
  -2   4 -13    0.33    0.94 
   2   4  13    1.19    0.97 
   2   4  13    1.17    1.01 
  -2   4 -13   -0.19    0.61 
  -2   4 -13   -0.93    0.84 
  -3  -4 -13    7.94    1.62 
   3  -4  13    7.56    1.49 
   3  -4  13    6.82    1.32 
  -3  -4 -13    4.39    1.34 
  -3   4 -13    5.70    1.50 
   3   4  13    4.65    1.29 
  -3   4 -13    6.40    1.21 
   3   4  13    7.61    1.71 
  -3   4 -13    7.27    1.42 
   4  -4  13    6.76    1.37 
   4  -4  13    4.36    1.19 
  -4  -4 -13    3.46    1.23 
  -4   4 -13    4.82    1.41 
  -4   4 -13    2.73    1.17 
   4   4  13    1.80    1.11 
  -1  -5  13    0.46    1.14 
  -1  -5  13    0.96    0.76 
   1  -5 -13    1.30    0.60 
   1  -5 -13    0.24    1.08 
  -1   5  13   -0.01    0.75 
  -1   5  13   -0.46    0.87 
   1   5 -13   -0.98    0.79 
   0  -5  13    2.26    1.04 
   0  -5 -13    1.32    1.22 
   0  -5  13    0.71    0.84 
   0   5  13   -0.30    0.80 
   0   5  13    0.04    0.90 
   0   5 -13    0.57    1.00 
   1  -5  13    6.76    1.38 
   1  -5  13    1.88    1.00 
  -1  -5 -13    1.98    1.13 
   1   5  13    2.72    2.19 
   1   5  13    1.98    1.07 
   6   0 -14    1.52    0.90 
   5   0 -14   -0.45    0.89 
   5   0 -14   -0.31    0.84 
  -5   0  14   -0.56    0.64 
   5   0 -14   -0.64    0.70 
  -4   0  14    6.25    1.27 
   4   0 -14    5.57    1.30 
   4   0 -14    4.37    1.30 
   4   0 -14    5.81    1.21 
  -3   0  14    8.57    0.63 
   3   0 -14    9.17    1.45 
  -3   0  14    6.49    1.25 
   3   0 -14   10.75    1.83 
  -3   0  14    8.80    0.66 
  -2   0  14    6.75    0.87 
   2   0 -14    6.91    1.57 
  -2   0  14    6.04    1.27 
   2   0 -14    9.32    1.48 
   2   0 -14    6.27    1.27 
   2   0 -14    7.33    1.40 
  -2   0  14    8.66    0.87 
  -1   0  14   -0.14    0.60 
   1   0 -14    3.29    1.33 
   1   0 -14    0.91    0.69 
   1   0 -14    0.65    0.80 
  -1   0  14    1.07    0.64 
  -1   0  14    0.30    0.77 
   1   0 -14    0.68    0.84 
   0   0 -14   13.59    1.87 
   0   0 -14   18.66    1.65 
   0   0  14   17.72    1.38 
   0   0 -14   20.01    1.96 
   0   0  14   14.90    1.34 
   0   0  14   15.52    1.66 
   0   0 -14   16.85    1.67 
   1   0  14    2.10    0.99 
  -1   0 -14    3.65    1.12 
  -1   0 -14    4.66    1.24 
   1   0  14    3.94    1.01 
   1   0  14    4.99    1.11 
  -1   0 -14    4.15    1.06 
  -1   0 -14    3.69    1.31 
  -2   0 -14    0.85    0.87 
  -2   0 -14    1.51    0.81 
   2   0  14    0.45    0.79 
   2   0  14    1.25    0.96 
  -2   0 -14    1.31    0.88 
  -2   0 -14    0.89    0.78 
  -3   0 -14    2.54    0.94 
   3   0  14    3.78    1.07 
   3   0  14    2.36    1.03 
  -3   0 -14    2.03    1.04 
  -3   0 -14    2.35    1.06 
  -3   0 -14    2.50    1.09 
  -4   0 -14    7.64    1.41 
  -4   0 -14   10.55    1.49 
   4   0  14    8.64    1.53 
   4   0  14    8.76    1.49 
  -4   0 -14    6.26    1.42 
  -5   0 -14    0.52    0.77 
  -5   0 -14    1.21    0.86 
   5   0  14    1.92    1.06 
  -5   0 -14   -1.77    1.27 
  -5   0 -14    0.35    1.01 
   5   0  14    0.71    0.86 
   5  -1 -14    1.01    0.93 
  -5  -1  14   -0.02    1.24 
   5  -1 -14    0.20    0.98 
   5  -1 -14    0.40    0.78 
   5   1 -14    1.66    0.79 
   5   1 -14    0.91    0.78 
   5   1 -14   -1.23    0.74 
  -5   1  14    1.20    0.88 
   4  -1 -14    3.31    1.09 
  -4  -1  14    5.24    1.17 
   4  -1 -14    3.31    1.15 
   4  -1 -14    3.52    1.16 
   4   1 -14    5.82    1.07 
  -4   1  14    4.78    1.15 
   4   1 -14    6.92    1.49 
   4   1 -14    6.13    1.40 
   3  -1 -14   12.78    1.95 
   3  -1 -14   11.04    1.67 
  -3  -1  14    9.05    0.78 
  -3  -1  14    8.22    0.73 
   3  -1 -14    8.48    1.37 
   3   1 -14    7.61    1.46 
  -3   1  14    7.96    0.58 
  -3   1  14   10.60    1.73 
   3   1 -14   10.28    1.46 
   3   1 -14   12.82    1.97 
  -3   1  14    9.73    0.62 
  -2  -1  14    3.04    0.93 
   2  -1 -14    2.22    1.24 
   2  -1 -14    2.22    1.01 
  -2  -1  14    6.79    0.88 
  -2  -1  14    4.10    0.76 
   2  -1 -14    3.19    0.99 
   2  -1 -14    2.61    1.30 
  -2   1  14    3.55    1.15 
  -2   1  14    4.23    0.70 
  -2   1  14    4.53    0.72 
   2   1 -14    3.51    1.30 
   2   1 -14    4.74    1.16 
   2   1 -14    1.91    0.84 
  -1  -1  14    5.07    0.91 
  -1  -1  14    2.88    1.00 
   1  -1 -14    1.79    0.96 
   1  -1 -14    2.27    1.04 
  -1  -1  14    4.58    0.89 
   1  -1 -14    2.72    1.27 
   1  -1 -14    3.55    1.02 
  -1   1  14    2.69    0.76 
   1   1 -14    2.17    0.97 
  -1   1  14    4.56    0.83 
   1   1 -14    5.28    1.39 
   1   1 -14    2.63    1.34 
  -1   1  14    3.92    1.18 
   1   1 -14    3.14    0.93 
   0  -1  14    9.76    1.64 
   0  -1 -14    8.24    1.30 
   0  -1  14    9.69    1.19 
   0  -1 -14    9.20    1.27 
   0  -1  14   12.57    1.25 
   0  -1 -14   12.81    1.97 
   0   1  14   11.01    1.17 
   0   1  14    8.48    1.13 
   0   1  14   10.93    1.72 
   0   1 -14   11.70    1.67 
   0   1 -14   10.18    1.52 
   0   1 -14   11.93    1.41 
   0   1 -14   11.47    1.95 
  -1  -1 -14    6.16    1.40 
  -1  -1 -14   10.19    1.79 
  -1  -1 -14    6.87    1.22 
   1  -1  14    5.45    1.27 
   1  -1  14    6.74    1.21 
  -1  -1 -14    6.56    1.24 
  -1   1 -14    7.65    1.65 
  -1   1 -14    5.96    1.24 
   1   1  14    5.38    1.31 
  -1   1 -14    5.84    1.42 
   1   1  14    9.58    1.23 
   1   1  14    8.10    1.26 
  -2  -1 -14    0.80    0.71 
  -2  -1 -14    1.07    0.76 
  -2  -1 -14    0.44    0.88 
   2  -1  14    1.94    0.86 
   2  -1  14    0.72    0.92 
  -2  -1 -14    4.23    1.39 
  -2   1 -14    1.19    0.92 
  -2   1 -14   -0.33    0.76 
   2   1  14    0.61    0.76 
   2   1  14    1.08    0.74 
   2   1  14    1.75    1.00 
  -2   1 -14    0.87    0.93 
  -3  -1 -14    0.84    0.88 
   3  -1  14    2.62    1.09 
  -3  -1 -14    1.67    1.05 
  -3  -1 -14    3.09    1.10 
  -3  -1 -14    3.03    0.88 
   3  -1  14    2.89    1.06 
   3   1  14    3.44    1.03 
   3   1  14    2.18    1.08 
  -3   1 -14    2.66    0.98 
  -3   1 -14    1.30    1.09 
   3   1  14    3.81    0.90 
  -3   1 -14    3.85    1.35 
  -3   1 -14    2.12    0.93 
  -4  -1 -14    6.96    1.41 
  -4  -1 -14    8.77    1.27 
   4  -1  14    8.70    1.66 
  -4  -1 -14    8.99    1.58 
   4  -1  14   10.61    1.57 
  -4   1 -14    7.35    1.40 
   4   1  14    4.61    1.32 
  -4   1 -14    6.74    1.58 
   4   1  14    8.96    1.49 
  -4   1 -14    9.25    1.57 
   4   1  14    8.09    1.31 
  -5  -1 -14    2.18    1.05 
   5  -1  14    0.52    0.90 
   5  -1  14    1.03    0.92 
  -5  -1 -14    1.03    0.71 
  -5   1 -14    2.40    0.84 
  -5   1 -14    0.73    1.00 
   5   1  14    1.62    0.90 
  -5   1 -14    1.43    0.93 
   5   1  14    0.76    0.97 
   5  -2 -14    6.22    1.44 
   5  -2 -14    3.02    1.25 
   5  -2 -14    2.11    1.10 
  -5   2  14    3.97    1.11 
   5   2 -14    2.63    0.81 
   5   2 -14    4.20    2.10 
   4  -2 -14    3.10    1.31 
   4  -2 -14    1.07    0.96 
  -4  -2  14    1.96    0.52 
  -4  -2  14    1.22    0.39 
  -4   2  14    2.78    1.09 
   4   2 -14    1.23    0.97 
   4   2 -14    1.89    0.79 
   4   2 -14    2.68    1.06 
  -3  -2  14    8.27    1.60 
  -3  -2  14    6.82    0.82 
   3  -2 -14    7.21    1.46 
   3  -2 -14    6.71    1.46 
   3   2 -14    5.37    1.04 
  -3   2  14    5.22    1.21 
  -3   2  14    7.12    0.57 
   3   2 -14    7.71    1.62 
   3   2 -14    7.43    1.46 
  -3   2  14    9.01    0.59 
   2  -2 -14    0.90    0.78 
  -2  -2  14    1.45    0.64 
  -2  -2  14    0.56    0.83 
  -2  -2  14    0.16    0.59 
   2  -2 -14    1.12    1.05 
   2  -2 -14    1.73    0.88 
   2  -2 -14    0.18    1.04 
   2   2 -14    0.90    0.73 
   2   2 -14    0.09    0.78 
  -2   2  14    1.79    0.55 
  -2   2  14   -0.05    0.82 
  -2   2  14    0.85    0.55 
   2   2 -14    2.83    1.12 
  -1  -2  14    1.69    1.18 
   1  -2 -14    3.72    0.96 
  -1  -2  14    2.52    0.81 
   1  -2 -14    1.12    1.06 
   1  -2 -14    2.12    1.15 
  -1  -2  14    2.03    1.00 
   1  -2 -14    4.33    1.09 
  -1  -2  14    1.76    0.75 
  -1   2  14    1.81    1.02 
   1   2 -14    2.33    1.01 
   1   2 -14    2.08    1.08 
  -1   2  14    1.65    0.69 
   1   2 -14    2.00    0.84 
  -1   2  14    1.89    0.67 
   0  -2 -14    7.52    1.48 
   0  -2  14    7.89    1.22 
   0  -2 -14    8.27    1.40 
   0  -2 -14    9.62    1.19 
   0  -2  14   10.06    1.86 
   0  -2 -14    7.86    1.69 
   0  -2  14    9.54    1.64 
   0   2  14    7.45    1.17 
   0   2  14   10.50    1.67 
   0   2 -14    5.75    1.23 
   0   2  14    8.09    1.23 
   0   2  14    7.94    1.18 
   0   2 -14    6.94    1.34 
   0   2 -14    8.26    1.52 
  -1  -2 -14   10.20    1.58 
   1  -2  14    6.02    1.28 
  -1  -2 -14    5.33    1.32 
   1  -2  14    9.73    1.26 
  -1  -2 -14    8.14    1.25 
  -1   2 -14    8.34    1.32 
   1   2  14    8.37    1.28 
  -1   2 -14    7.81    1.51 
  -1   2 -14   10.89    1.87 
   1   2  14    9.82    1.37 
   1   2  14    7.02    1.41 
  -2  -2 -14    1.03    0.86 
   2  -2  14    2.83    0.97 
  -2  -2 -14    1.82    1.19 
  -2  -2 -14    2.39    1.13 
   2  -2  14    2.62    1.02 
  -2  -2 -14    1.51    0.75 
  -2   2 -14    3.46    1.11 
   2   2  14    2.71    0.83 
   2   2  14    0.53    1.08 
  -2   2 -14    2.80    1.25 
  -2   2 -14    4.76    1.08 
   2   2  14    2.38    0.93 
  -3  -2 -14    1.28    0.95 
   3  -2  14    2.24    1.08 
  -3  -2 -14    1.76    0.71 
  -3  -2 -14    2.29    0.97 
   3  -2  14    3.62    1.09 
  -3  -2 -14   -0.66    0.81 
  -3   2 -14    1.82    0.98 
  -3   2 -14    1.66    1.07 
  -3   2 -14    3.55    0.99 
   3   2  14    3.01    0.79 
   3   2  14    2.25    1.07 
  -4  -2 -14    1.51    1.32 
  -4  -2 -14    5.25    1.31 
  -4  -2 -14    7.19    1.03 
   4  -2  14    6.88    1.42 
   4  -2  14    5.60    1.35 
  -4   2 -14    5.10    1.45 
  -4   2 -14    4.35    1.24 
   4   2  14    5.63    1.31 
  -4   2 -14    3.64    1.20 
   5  -2  14    5.13    1.32 
  -5  -2 -14    6.57    0.97 
   5  -2  14    6.12    1.36 
  -5   2 -14    3.51    1.25 
   5   2  14    3.95    1.36 
  -5   2 -14    3.11    1.08 
  -5   2 -14    5.96    1.30 
   4  -3 -14    3.60    1.46 
   4  -3 -14    4.06    1.24 
  -4  -3  14    4.51    0.75 
   4   3 -14    5.12    0.94 
  -4   3  14    4.36    1.30 
   3  -3 -14    6.87    1.27 
   3  -3 -14    6.47    1.91 
   3  -3 -14    6.02    1.62 
  -3  -3  14    8.35    0.99 
  -3  -3  14    6.77    1.11 
   3   3 -14    9.08    1.11 
  -3   3  14   11.48    1.48 
   3   3 -14    6.98    1.52 
   2  -3 -14    1.59    0.81 
  -2  -3  14    1.48    0.97 
  -2  -3  14    2.27    0.73 
  -2  -3  14    1.77    1.16 
   2  -3 -14    3.01    2.16 
   2  -3 -14    2.48    1.06 
   2  -3 -14    2.81    1.23 
  -2   3  14    1.51    0.65 
   2   3 -14    1.90    1.18 
  -2   3  14    2.19    1.10 
   2   3 -14    1.86    1.02 
  -2   3  14    1.59    0.64 
   2   3 -14    2.88    0.80 
  -1  -3  14    1.05    0.95 
   1  -3 -14    2.61    0.91 
   1  -3 -14    2.85    1.25 
  -1  -3  14    1.85    1.23 
  -1  -3  14    2.92    0.81 
   1  -3 -14    1.58    1.16 
   1  -3 -14    3.17    1.10 
   1   3 -14    0.65    0.92 
  -1   3  14    4.44    0.81 
   1   3 -14    0.66    0.85 
   1   3 -14    1.38    0.72 
  -1   3  14    2.27    1.03 
  -1   3  14    1.62    0.77 
   0  -3 -14    7.76    1.51 
   0  -3 -14    3.52    1.38 
   0  -3  14    5.75    1.23 
   0  -3  14    5.74    1.30 
   0  -3  14    4.32    1.56 
   0  -3 -14    5.35    1.63 
   0  -3 -14    6.33    1.03 
   0   3  14    5.41    1.12 
   0   3 -14    6.86    1.55 
   0   3 -14    6.38    1.47 
   0   3 -14    6.73    1.20 
   0   3  14    7.46    1.40 
   0   3  14    9.59    1.18 
   1  -3  14    5.37    1.25 
  -1  -3 -14    7.37    1.48 
  -1  -3 -14    5.17    0.91 
   1  -3  14    6.32    1.23 
  -1  -3 -14    8.15    1.60 
  -1  -3 -14    4.26    1.26 
  -1   3 -14    9.56    1.88 
   1   3  14    5.10    1.16 
  -1   3 -14    9.92    1.28 
   1   3  14    7.30    1.61 
  -1   3 -14    8.27    1.64 
  -2  -3 -14    0.80    0.92 
   2  -3  14    1.75    0.99 
  -2  -3 -14    1.89    0.62 
  -2  -3 -14    1.96    1.35 
  -2  -3 -14   -1.68    0.88 
   2  -3  14    0.58    0.80 
   2   3  14    1.19    0.98 
  -2   3 -14    0.90    1.06 
   2   3  14    0.23    0.79 
  -2   3 -14    0.88    0.84 
  -2   3 -14    0.78    0.83 
   3  -3  14    2.01    1.03 
   3  -3  14    1.31    0.92 
  -3  -3 -14    2.25    1.08 
   3   3  14    1.51    1.03 
  -3   3 -14    0.97    0.92 
  -3   3 -14    1.02    0.89 
  -3   3 -14    0.60    1.05 
  -4  -3 -14    3.81    1.26 
   4  -3  14    5.07    1.21 
   4  -3  14    4.68    1.36 
   4   3  14    5.50    1.47 
  -4   3 -14    5.01    1.42 
   1  -4 -14    0.77    1.05 
   1  -4 -14    0.25    0.66 
  -1  -4  14    1.14    0.72 
  -1   4  14    1.52    0.94 
   1   4 -14    0.07    0.62 
  -1   4  14    1.04    0.74 
   0  -4  14   10.67    1.53 
   0  -4 -14    9.77    0.98 
   0  -4 -14   11.82    2.07 
   0   4 -14   11.67    1.24 
   0   4  14    9.77    1.44 
   0   4 -14   11.70    2.02 
   1  -4  14    1.89    0.95 
  -1  -4 -14    1.88    1.33 
   1  -4  14    3.07    1.12 
  -1  -4 -14    2.48    0.57 
  -1   4 -14    2.54    1.28 
  -1   4 -14    2.16    0.93 
   1   4  14    5.71    1.18 
   3   0 -15    0.29    0.74 
   3   0 -15    2.13    0.92 
  -3   0  15   -0.45    0.23 
   3   0 -15    0.14    0.83 
   2   0 -15   12.59    1.45 
  -2   0  15   13.98    0.99 
   2   0 -15   11.96    1.54 
  -2   0  15   13.29    1.17 
  -1   0  15    2.17    0.71 
   1   0 -15    0.85    1.00 
  -1   0  15    2.24    0.74 
  -1   0  15    3.92    1.18 
   1   0 -15    1.89    0.99 
   1   0 -15    1.66    1.26 
   1   0 -15    2.29    0.93 
   0   0  15    0.83    0.72 
   0   0  15    1.66    0.84 
   0   0 -15    1.12    0.82 
   0   0 -15    1.00    1.01 
   0   0 -15    0.81    1.04 
   0   0  15    1.53    0.86 
   0   0 -15    2.10    0.83 
  -1   0 -15    0.50    0.75 
   1   0  15    0.38    0.93 
  -1   0 -15    0.77    0.92 
  -1   0 -15    0.54    0.75 
   1   0  15    0.01    0.72 
  -1   0 -15    0.69    1.04 
  -2   0 -15   13.40    1.77 
  -2   0 -15   11.04    1.51 
  -2   0 -15   13.90    2.26 
   2   0  15   13.17    1.44 
  -2   0 -15   12.58    1.50 
  -3   0 -15    3.24    1.66 
  -3   0 -15    0.77    0.81 
  -3   0 -15    1.61    0.97 
   3   0  15    0.84    1.00 
   3  -1 -15    8.03    1.46 
   3  -1 -15    6.23    1.72 
   3  -1 -15   11.52    1.50 
   3   1 -15    4.58    1.46 
   3   1 -15    6.73    1.19 
   3   1 -15    7.51    1.47 
  -2  -1  15   -0.01    0.50 
   2  -1 -15    0.63    0.72 
  -2  -1  15   -0.37    0.63 
   2  -1 -15    1.53    0.99 
   2  -1 -15    0.96    0.81 
   2   1 -15    0.59    0.88 
  -2   1  15   -0.08    0.46 
   2   1 -15    0.28    0.85 
   2   1 -15   -0.48    0.68 
  -1  -1  15   18.55    1.36 
   1  -1 -15   17.64    1.75 
   1  -1 -15   17.42    2.04 
   1  -1 -15   17.72    1.67 
   1  -1 -15   25.49    2.38 
  -1  -1  15   24.08    1.47 
   1   1 -15   24.14    2.21 
   1   1 -15   19.14    1.65 
  -1   1  15   18.33    1.30 
   1   1 -15   16.77    1.81 
  -1   1  15   18.20    1.34 
  -1   1  15   21.68    2.45 
   0  -1 -15    3.24    1.20 
   0  -1 -15    5.05    1.13 
   0  -1 -15    2.29    1.23 
   0  -1 -15    4.16    1.10 
   0  -1  15    3.97    0.96 
   0  -1  15    5.25    2.02 
   0   1 -15    3.62    1.05 
   0   1 -15    5.67    1.41 
   0   1  15    3.52    0.93 
   0   1  15    2.33    1.69 
   0   1 -15    6.81    1.62 
   0   1  15    3.89    0.91 
   1  -1  15   11.91    2.33 
  -1  -1 -15    8.77    1.49 
  -1  -1 -15   10.24    1.70 
  -1  -1 -15    9.68    1.92 
   1  -1  15   11.98    1.38 
  -1   1 -15   10.94    1.46 
  -1   1 -15    9.05    1.65 
  -1   1 -15   11.02    1.52 
  -1   1 -15   15.30    2.31 
   1   1  15   12.91    1.38 
  -2  -1 -15    1.19    0.86 
  -2  -1 -15    0.06    0.65 
  -2  -1 -15    2.64    1.32 
   2  -1  15   -0.94    0.69 
   2   1  15   -0.31    0.70 
  -2   1 -15    3.28    1.10 
  -2   1 -15   -0.84    0.77 
  -2   1 -15   -0.09    0.77 
   3  -1  15    1.56    0.90 
  -3  -1 -15    1.20    0.86 
  -3   1 -15    1.12    0.87 
  -3   1 -15    1.71    0.87 
   3   1  15    1.83    0.98 
  -3   1 -15   -0.08    0.92 
  -2  -2  15   17.47    1.30 
   2  -2 -15   22.03    2.18 
   2  -2 -15   15.51    1.59 
  -2   2  15   17.20    1.08 
   2   2 -15   16.28    2.03 
   2   2 -15   16.12    1.52 
   2   2 -15   14.76    1.98 
  -1  -2  15    5.91    1.13 
   1  -2 -15    2.05    0.91 
  -1  -2  15    3.81    0.92 
   1  -2 -15    0.20    1.04 
   1   2 -15    0.83    1.03 
   1   2 -15    1.43    0.97 
   0  -2 -15    4.27    1.59 
   0  -2 -15    1.65    1.20 
   0  -2 -15    6.47    1.15 
   0  -2  15    1.68    0.85 
   0   2 -15    1.16    1.14 
   0   2 -15    4.06    1.06 
   0   2 -15    3.54    1.21 
   0   2  15    1.87    0.89 
   0   2  15    3.65    0.89 
  -1  -2 -15    0.81    1.11 
   1  -2  15    0.88    0.82 
  -1  -2 -15    2.73    0.86 
  -1   2 -15    1.59    0.95 
  -1   2 -15    1.02    0.78 
  -1   2 -15    6.04    1.55 
   1   2  15    2.25    0.86 
  -2  -2 -15   15.71    1.36 
   2  -2  15   14.35    1.58 
  -2  -2 -15   13.37    1.87 
   2   2  15   12.59    1.53 
  -2   2 -15   15.11    2.25 
  -2   2 -15   16.18    1.63 
  -2   2 -15   15.45    1.77 
   0   0   0    0.00    0.00 
;
_shelx_hkl_checksum              67512
loop_
_space_group_symop_operation_xyz
'x, y, z'
'-x, y+1/2, -z'
loop_
_atom_site_label
_atom_site_type_symbol
_atom_site_fract_x
_atom_site_fract_y
_atom_site_fract_z
_atom_site_U_iso_or_equiv
_atom_site_adp_type
_atom_site_occupancy
_atom_site_site_symmetry_order
_atom_site_calc_flag
_atom_site_refinement_flags_posn
_atom_site_refinement_flags_adp
_atom_site_refinement_flags_occupancy
_atom_site_disorder_assembly
_atom_site_disorder_group
Pr1 Pr 0.61303(4) 0.7389(3) 0.34985(4) 0.02628(11) Uani 1 1 d . . . . .
Rb2 Rb 0.09994(8) 0.2293(4) 0.15224(7) 0.0294(2) Uani 1 1 d . . . . .
Rb3 Rb 0.66185(10) 0.2377(5) 0.06428(9) 0.0443(2) Uani 1 1 d . . . . .
Rb4 Rb 0.86115(10) 0.2403(5) 0.58638(9) 0.0460(3) Uani 1 1 d . . . . .
S1 S 0.4112(8) -0.0153(8) 0.2298(6) 0.0382(15) Uani 1 1 d . . . . .
S2 S 0.23612(19) 0.2378(12) 0.43211(16) 0.0271(4) Uani 1 1 d . . . . .
S3 S 0.4197(9) 0.4736(7) 0.2364(6) 0.0401(16) Uani 1 1 d . . . . .
S4A S 0.5677(8) 0.1707(11) 0.4498(7) 0.0254(6) Uani 0.673(15) 1 d . . P . .
S4B S 0.5663(17) 0.295(2) 0.4524(14) 0.0254(6) Uani 0.327(15) 1 d . . P . .
S5 S 0.7041(2) 0.7341(12) 0.08530(18) 0.0308(5) Uani 1 1 d . . . . .
S6 S 0.8488(8) 0.4941(7) 0.2950(6) 0.0287(13) Uani 1 1 d . . . . .
S7 S 0.8530(8) 0.9807(6) 0.2941(7) 0.0310(14) Uani 1 1 d . . . . .
S8 S 1.0549(2) 0.7362(12) 0.10991(18) 0.0306(5) Uani 1 1 d . . . . .
P1 P 0.4089(2) 0.2289(11) 0.33550(18) 0.0249(5) Uani 1 1 d . . . . .
P2 P 0.8736(2) 0.7345(10) 0.18906(17) 0.0227(4) Uani 1 1 d . . . . .
loop_
_atom_site_aniso_label
_atom_site_aniso_U_11
_atom_site_aniso_U_22
_atom_site_aniso_U_33
_atom_site_aniso_U_23
_atom_site_aniso_U_13
_atom_site_aniso_U_12
Pr1 0.02025(19) 0.0376(3) 0.02103(19) -0.0018(7) 0.00113(17) -0.0003(7)
Rb2 0.0319(4) 0.0275(5) 0.0286(4) 0.0010(10) 0.0012(3) -0.0055(10)
Rb3 0.0489(5) 0.0304(5) 0.0539(5) 0.0003(15) 0.0156(4) -0.0110(14)
Rb4 0.0420(5) 0.0370(5) 0.0588(6) -0.0075(16) -0.0202(4) 0.0016(15)
S1 0.046(3) 0.036(2) 0.033(3) -0.002(2) -0.001(2) 0.017(2)
S2 0.0209(8) 0.0356(10) 0.0248(9) -0.003(3) 0.0009(7) 0.001(3)
S3 0.068(4) 0.0229(19) 0.029(3) 0.0011(18) 0.003(3) -0.021(2)
S4A 0.0210(11) 0.0285(14) 0.0269(13) -0.013(2) -0.0030(10) 0.008(2)
S4B 0.0210(11) 0.0285(14) 0.0269(13) -0.013(2) -0.0030(10) 0.008(2)
S5 0.0271(9) 0.0343(12) 0.0309(10) -0.010(3) -0.0016(8) -0.005(3)
S6 0.031(3) 0.029(2) 0.026(3) -0.0019(19) 0.003(3) 0.003(2)
S7 0.036(4) 0.0151(19) 0.042(3) -0.013(2) 0.012(3) -0.004(2)
S8 0.0238(9) 0.0343(12) 0.0337(11) -0.010(3) 0.0078(8) -0.003(3)
P1 0.0210(9) 0.0322(13) 0.0215(9) 0.002(3) 0.0005(7) -0.001(3)
P2 0.0229(9) 0.0200(10) 0.0254(9) -0.008(3) 0.0054(7) 0.002(3)
loop_
_atom_type_symbol
_atom_type_description
_atom_type_scat_dispersion_real
_atom_type_scat_dispersion_imag
_atom_type_scat_source
P P 0.1023 0.0942 'International Tables Vol C Tables 4.2.6.8 and 6.1.1.4'
S S 0.1246 0.1234 'International Tables Vol C Tables 4.2.6.8 and 6.1.1.4'
Rb Rb -0.9393 2.9676 'International Tables Vol C Tables 4.2.6.8 and 6.1.1.4'
Pr Pr -0.2180 2.8214 'International Tables Vol C Tables 4.2.6.8 and 6.1.1.4'
loop_
_geom_angle_atom_site_label_1
_geom_angle_atom_site_label_2
_geom_angle_atom_site_label_3
_geom_angle
_geom_angle_site_symmetry_1
_geom_angle_site_symmetry_3
_geom_angle_publ_flag
S2 Pr1 S4B 68.9(3) 2_656 2_656 ?
S2 Pr1 S3 135.41(19) 2_656 . ?
S4B Pr1 S3 91.7(4) 2_656 . ?
S2 Pr1 S6 77.26(17) 2_656 . ?
S4B Pr1 S6 136.8(4) 2_656 . ?
S3 Pr1 S6 94.1(2) . . ?
S2 Pr1 S1 138.5(2) 2_656 1_565 ?
S4B Pr1 S1 82.9(4) 2_656 1_565 ?
S3 Pr1 S1 72.67(10) . 1_565 ?
S6 Pr1 S1 139.39(19) . 1_565 ?
S2 Pr1 S4A 68.78(17) 2_656 2_656 ?
S4B Pr1 S4A 16.59(19) 2_656 2_656 ?
S3 Pr1 S4A 81.6(2) . 2_656 ?
S6 Pr1 S4A 124.2(2) . 2_656 ?
S1 Pr1 S4A 92.5(2) 1_565 2_656 ?
S2 Pr1 S7 77.28(18) 2_656 . ?
S4B Pr1 S7 126.0(3) 2_656 . ?
S3 Pr1 S7 140.1(2) . . ?
S6 Pr1 S7 68.31(6) . . ?
S1 Pr1 S7 97.2(2) 1_565 . ?
S4A Pr1 S7 138.0(2) 2_656 . ?
S2 Pr1 S5 132.68(6) 2_656 . ?
S4B Pr1 S5 157.6(3) 2_656 . ?
S3 Pr1 S5 75.82(17) . . ?
S6 Pr1 S5 63.85(17) . . ?
S1 Pr1 S5 75.63(18) 1_565 . ?
S4A Pr1 S5 156.78(18) 2_656 . ?
S7 Pr1 S5 64.34(17) . . ?
S2 Pr1 P2 95.01(5) 2_656 . ?
S4B Pr1 P2 162.3(3) 2_656 . ?
S3 Pr1 P2 105.32(18) . . ?
S6 Pr1 P2 39.02(17) . . ?
S1 Pr1 P2 106.40(17) 1_565 . ?
S4A Pr1 P2 161.03(17) 2_656 . ?
S7 Pr1 P2 39.31(16) . . ?
S5 Pr1 P2 37.67(5) . . ?
S2 Pr1 S4A 76.4(2) 2_656 1_565 ?
S4B Pr1 S4A 60.7(3) 2_656 1_565 ?
S3 Pr1 S4A 129.5(2) . 1_565 ?
S6 Pr1 S4A 135.5(2) . 1_565 ?
S1 Pr1 S4A 63.2(2) 1_565 1_565 ?
S4A Pr1 S4A 77.14(13) 2_656 1_565 ?
S7 Pr1 S4A 71.35(19) . 1_565 ?
S5 Pr1 S4A 113.3(2) . 1_565 ?
P2 Pr1 S4A 109.52(18) . 1_565 ?
S2 Pr1 S4B 76.1(3) 2_656 . ?
S4B Pr1 S4B 75.7(3) 2_656 . ?
S3 Pr1 S4B 60.0(3) . . ?
S6 Pr1 S4B 70.6(3) . . ?
S1 Pr1 S4B 126.6(4) 1_565 . ?
S4A Pr1 S4B 59.2(2) 2_656 . ?
S7 Pr1 S4B 134.8(3) . . ?
S5 Pr1 S4B 112.1(3) . . ?
P2 Pr1 S4B 108.5(3) . . ?
S4A Pr1 S4B 134.39(15) 1_565 . ?
S2 Pr1 Rb3 122.94(14) 2_656 1_565 ?
S4B Pr1 Rb3 120.6(3) 2_656 1_565 ?
S3 Pr1 Rb3 101.59(13) . 1_565 ?
S6 Pr1 Rb3 99.98(13) . 1_565 ?
S1 Pr1 Rb3 48.74(16) 1_565 1_565 ?
S4A Pr1 Rb3 135.58(16) 2_656 1_565 ?
S7 Pr1 Rb3 50.85(16) . 1_565 ?
S5 Pr1 Rb3 46.77(15) . 1_565 ?
P2 Pr1 Rb3 61.25(11) . 1_565 ?
S4A Pr1 Rb3 66.75(16) 1_565 1_565 ?
S4B Pr1 Rb3 157.4(3) . 1_565 ?
S5 Rb2 S8 62.25(5) 2_645 2_645 ?
S5 Rb2 S7 144.61(17) 2_645 1_445 ?
S8 Rb2 S7 96.43(16) 2_645 1_445 ?
S5 Rb2 S8 88.23(15) 2_645 1_445 ?
S8 Rb2 S8 80.11(12) 2_645 1_445 ?
S7 Rb2 S8 59.05(10) 1_445 1_445 ?
S5 Rb2 S2 121.96(6) 2_645 . ?
S8 Rb2 S2 175.42(10) 2_645 . ?
S7 Rb2 S2 80.79(16) 1_445 . ?
S8 Rb2 S2 101.38(15) 1_445 . ?
S5 Rb2 S6 142.55(17) 2_645 1_455 ?
S8 Rb2 S6 95.30(15) 2_645 1_455 ?
S7 Rb2 S6 61.01(5) 1_445 1_455 ?
S8 Rb2 S6 118.78(11) 1_445 1_455 ?
S2 Rb2 S6 80.18(14) . 1_455 ?
S5 Rb2 S8 87.20(15) 2_645 1_455 ?
S8 Rb2 S8 78.81(13) 2_645 1_455 ?
S7 Rb2 S8 117.71(11) 1_445 1_455 ?
S8 Rb2 S8 158.09(7) 1_445 1_455 ?
S2 Rb2 S8 99.21(15) . 1_455 ?
S6 Rb2 S8 57.81(11) 1_455 1_455 ?
S5 Rb2 S1 73.14(14) 2_645 . ?
S8 Rb2 S1 127.58(15) 2_645 . ?
S7 Rb2 S1 105.44(19) 1_445 . ?
S8 Rb2 S1 72.11(13) 1_445 . ?
S2 Rb2 S1 56.89(13) . . ?
S6 Rb2 S1 136.99(16) 1_455 . ?
S8 Rb2 S1 126.52(14) 1_455 . ?
S5 Rb2 S3 73.25(14) 2_645 . ?
S8 Rb2 S3 127.67(15) 2_645 . ?
S7 Rb2 S3 135.62(17) 1_445 . ?
S8 Rb2 S3 126.10(13) 1_445 . ?
S2 Rb2 S3 54.87(13) . . ?
S6 Rb2 S3 104.77(17) 1_455 . ?
S8 Rb2 S3 72.69(13) 1_455 . ?
S1 Rb2 S3 54.20(7) . . ?
S5 Rb2 P1 89.12(5) 2_645 . ?
S8 Rb2 P1 151.36(5) 2_645 . ?
S7 Rb2 P1 108.65(16) 1_445 . ?
S8 Rb2 P1 100.77(14) 1_445 . ?
S2 Rb2 P1 32.87(4) . . ?
S6 Rb2 P1 108.69(14) 1_455 . ?
S8 Rb2 P1 100.57(13) 1_455 . ?
S1 Rb2 P1 32.68(15) . . ?
S3 Rb2 P1 31.70(15) . . ?
S5 Rb2 P2 31.44(5) 2_645 2_645 ?
S8 Rb2 P2 30.81(4) 2_645 2_645 ?
S7 Rb2 P2 122.37(15) 1_445 2_645 ?
S8 Rb2 P2 82.89(11) 1_445 2_645 ?
S2 Rb2 P2 153.38(5) . 2_645 ?
S6 Rb2 P2 121.09(14) 1_455 2_645 ?
S8 Rb2 P2 82.07(11) 1_455 2_645 ?
S1 Rb2 P2 100.92(13) . 2_645 ?
S3 Rb2 P2 101.28(12) . 2_645 ?
P1 Rb2 P2 120.56(5) . 2_645 ?
S5 Rb2 P2 114.40(15) 2_645 1_445 ?
S8 Rb2 P2 81.77(13) 2_645 1_445 ?
S7 Rb2 P2 30.65(10) 1_445 1_445 ?
S8 Rb2 P2 29.65(6) 1_445 1_445 ?
S2 Rb2 P2 97.35(12) . 1_445 ?
S6 Rb2 P2 89.14(12) 1_455 1_445 ?
S8 Rb2 P2 139.30(7) 1_455 1_445 ?
S1 Rb2 P2 93.54(14) . 1_445 ?
S3 Rb2 P2 144.65(13) . 1_445 ?
P1 Rb2 P2 113.16(13) . 1_445 ?
P2 Rb2 P2 98.67(10) 2_645 1_445 ?
S5 Rb3 S8 86.82(14) . 2_745 ?
S5 Rb3 S5 163.89(8) . 1_545 ?
S8 Rb3 S5 86.54(14) 2_745 1_545 ?
S5 Rb3 S3 65.80(11) . . ?
S8 Rb3 S3 152.62(18) 2_745 . ?
S5 Rb3 S3 119.80(11) 1_545 . ?
S5 Rb3 S1 121.60(11) . . ?
S8 Rb3 S1 150.99(18) 2_745 . ?
S5 Rb3 S1 64.52(11) 1_545 . ?
S3 Rb3 S1 56.09(6) . . ?
S5 Rb3 S6 54.31(11) . . ?
S8 Rb3 S6 90.76(14) 2_745 . ?
S5 Rb3 S6 111.12(11) 1_545 . ?
S3 Rb3 S6 73.56(16) . . ?
S1 Rb3 S6 101.10(17) . . ?
S5 Rb3 S7 110.92(10) . 1_545 ?
S8 Rb3 S7 89.98(14) 2_745 1_545 ?
S5 Rb3 S7 54.43(10) 1_545 1_545 ?
S3 Rb3 S7 99.34(17) . 1_545 ?
S1 Rb3 S7 75.18(16) . 1_545 ?
S6 Rb3 S7 56.76(5) . 1_545 ?
S5 Rb3 S1 69.60(11) . 2_655 ?
S8 Rb3 S1 68.92(14) 2_745 2_655 ?
S5 Rb3 S1 121.14(11) 1_545 2_655 ?
S3 Rb3 S1 99.81(19) . 2_655 ?
S1 Rb3 S1 123.47(10) . 2_655 ?
S6 Rb3 S1 121.35(16) . 2_655 ?
S7 Rb3 S1 158.89(16) 1_545 2_655 ?
S5 Rb3 S3 122.23(11) . 2_645 ?
S8 Rb3 S3 69.87(15) 2_745 2_645 ?
S5 Rb3 S3 68.71(10) 1_545 2_645 ?
S3 Rb3 S3 124.20(9) . 2_645 ?
S1 Rb3 S3 96.15(18) . 2_645 ?
S6 Rb3 S3 160.63(16) . 2_645 ?
S7 Rb3 S3 120.69(14) 1_545 2_645 ?
S1 Rb3 S3 52.85(5) 2_655 2_645 ?
S5 Rb3 S5 98.44(16) . 2_645 ?
S8 Rb3 S5 119.07(5) 2_745 2_645 ?
S5 Rb3 S5 97.62(14) 1_545 2_645 ?
S3 Rb3 S5 68.03(15) . 2_645 ?
S1 Rb3 S5 66.26(14) . 2_645 ?
S6 Rb3 S5 139.97(16) . 2_645 ?
S7 Rb3 S5 139.98(15) 1_545 2_645 ?
S1 Rb3 S5 57.21(13) 2_655 2_645 ?
S3 Rb3 S5 56.23(15) 2_645 2_645 ?
S5 Rb3 P1 92.08(12) . . ?
S8 Rb3 P1 164.34(6) 2_745 . ?
S5 Rb3 P1 90.38(12) 1_545 . ?
S3 Rb3 P1 30.27(14) . . ?
S1 Rb3 P1 30.83(15) . . ?
S6 Rb3 P1 76.04(14) . . ?
S7 Rb3 P1 75.82(14) 1_545 . ?
S1 Rb3 P1 125.16(15) 2_655 . ?
S3 Rb3 P1 123.03(15) 2_645 . ?
S5 Rb3 P1 76.54(4) 2_645 . ?
S5 Rb3 Rb2 82.97(6) . 1_655 ?
S8 Rb3 Rb2 48.61(4) 2_745 1_655 ?
S5 Rb3 Rb2 81.62(6) 1_545 1_655 ?
S3 Rb3 Rb2 123.07(14) . 1_655 ?
S1 Rb3 Rb2 123.41(13) . 1_655 ?
S6 Rb3 Rb2 49.77(12) . 1_655 ?
S7 Rb3 Rb2 48.27(12) 1_545 1_655 ?
S1 Rb3 Rb2 112.62(12) 2_655 1_655 ?
S3 Rb3 Rb2 112.66(13) 2_645 1_655 ?
S5 Rb3 Rb2 167.64(4) 2_645 1_655 ?
P1 Rb3 Rb2 115.75(4) . 1_655 ?
S4B Rb4 S4A 14.69(17) . . ?
S4B Rb4 S2 67.9(3) . 2_656 ?
S4A Rb4 S2 82.60(14) . 2_656 ?
S4B Rb4 S7 145.9(3) . 2_746 ?
S4A Rb4 S7 160.50(19) . 2_746 ?
S2 Rb4 S7 78.26(12) 2_656 2_746 ?
S4B Rb4 S2 81.0(3) . 2_646 ?
S4A Rb4 S2 66.42(14) . 2_646 ?
S2 Rb4 S2 147.73(6) 2_656 2_646 ?
S7 Rb4 S2 133.07(12) 2_746 2_646 ?
S4B Rb4 S8 130.7(3) . 2_746 ?
S4A Rb4 S8 130.98(15) . 2_746 ?
S2 Rb4 S8 97.35(14) 2_656 2_746 ?
S7 Rb4 S8 56.27(14) 2_746 2_746 ?
S2 Rb4 S8 96.43(14) 2_646 2_746 ?
S4B Rb4 S6 158.5(3) . 2_746 ?
S4A Rb4 S6 143.83(19) . 2_746 ?
S2 Rb4 S6 133.57(13) 2_656 2_746 ?
S7 Rb4 S6 55.41(5) 2_746 2_746 ?
S2 Rb4 S6 77.83(13) 2_646 2_746 ?
S8 Rb4 S6 56.29(14) 2_746 2_746 ?
S4B Rb4 P2 162.3(3) . 2_746 ?
S4A Rb4 P2 161.61(17) . 2_746 ?
S2 Rb4 P2 104.27(13) 2_656 2_746 ?
S7 Rb4 P2 33.40(13) 2_746 2_746 ?
S2 Rb4 P2 102.93(13) 2_646 2_746 ?
S8 Rb4 P2 32.22(4) 2_746 2_746 ?
S6 Rb4 P2 32.88(14) 2_746 2_746 ?
S4B Rb4 S6 60.7(3) . . ?
S4A Rb4 S6 67.77(19) . . ?
S2 Rb4 S6 59.94(11) 2_656 . ?
S7 Rb4 S6 98.93(16) 2_746 . ?
S2 Rb4 S6 112.31(11) 2_646 . ?
S8 Rb4 S6 151.07(18) 2_746 . ?
S6 Rb4 S6 125.04(9) 2_746 . ?
P2 Rb4 S6 130.49(15) 2_746 . ?
S4B Rb4 S7 68.1(3) . 1_545 ?
S4A Rb4 S7 60.11(18) . 1_545 ?
S2 Rb4 S7 112.89(12) 2_656 1_545 ?
S7 Rb4 S7 124.89(11) 2_746 1_545 ?
S2 Rb4 S7 59.70(11) 2_646 1_545 ?
S8 Rb4 S7 149.55(19) 2_746 1_545 ?
S6 Rb4 S7 97.60(17) 2_746 1_545 ?
P2 Rb4 S7 128.98(16) 2_746 1_545 ?
S6 Rb4 S7 55.00(5) . 1_545 ?
S4B Rb4 S1 65.5(3) . 2_656 ?
S4A Rb4 S1 72.95(17) . 2_656 ?
S2 Rb4 S1 54.65(10) 2_656 2_656 ?
S7 Rb4 S1 98.53(16) 2_746 2_656 ?
S2 Rb4 S1 105.11(10) 2_646 2_656 ?
S8 Rb4 S1 67.94(13) 2_746 2_656 ?
S6 Rb4 S1 123.99(17) 2_746 2_656 ?
P2 Rb4 S1 96.85(13) 2_746 2_656 ?
S6 Rb4 S1 105.84(18) . 2_656 ?
S7 Rb4 S1 132.97(15) 1_545 2_656 ?
S4B Rb4 S3 70.6(3) . 2_646 ?
S4A Rb4 S3 63.80(19) . 2_646 ?
S2 Rb4 S3 106.46(10) 2_656 2_646 ?
S7 Rb4 S3 125.59(17) 2_746 2_646 ?
S2 Rb4 S3 52.50(10) 2_646 2_646 ?
S8 Rb4 S3 69.49(14) 2_746 2_646 ?
S6 Rb4 S3 98.88(16) 2_746 2_646 ?
P2 Rb4 S3 97.81(13) 2_746 2_646 ?
S6 Rb4 S3 131.10(15) . 2_646 ?
S7 Rb4 S3 103.53(17) 1_545 2_646 ?
S1 Rb4 S3 53.61(5) 2_656 2_646 ?
P1 S1 Pr1 101.0(3) . 1_545 ?
P1 S1 Rb3 86.3(3) . . ?
Pr1 S1 Rb3 93.0(2) 1_545 . ?
P1 S1 Rb2 76.2(2) . . ?
Pr1 S1 Rb2 162.6(3) 1_545 . ?
Rb3 S1 Rb2 103.86(17) . . ?
P1 S1 Rb4 90.9(3) . 2_646 ?
Pr1 S1 Rb4 88.36(17) 1_545 2_646 ?
Rb3 S1 Rb4 177.0(2) . 2_646 ?
Rb2 S1 Rb4 74.57(16) . 2_646 ?
P1 S1 Rb3 150.5(3) . 2_645 ?
Pr1 S1 Rb3 106.74(17) 1_545 2_645 ?
Rb3 S1 Rb3 82.53(15) . 2_645 ?
Rb2 S1 Rb3 80.10(16) . 2_645 ?
Rb4 S1 Rb3 99.59(19) 2_646 2_645 ?
P1 S2 Pr1 92.40(9) . 2_646 ?
P1 S2 Rb2 79.50(8) . . ?
Pr1 S2 Rb2 171.88(7) 2_646 . ?
P1 S2 Rb4 99.6(3) . 2_646 ?
Pr1 S2 Rb4 101.12(18) 2_646 2_646 ?
Rb2 S2 Rb4 79.88(12) . 2_646 ?
P1 S2 Rb4 102.9(3) . 2_656 ?
Pr1 S2 Rb4 100.73(18) 2_646 2_656 ?
Rb2 S2 Rb4 81.81(12) . 2_656 ?
Rb4 S2 Rb4 147.73(6) 2_646 2_656 ?
P1 S3 Pr1 107.0(3) . . ?
P1 S3 Rb3 88.8(3) . . ?
Pr1 S3 Rb3 95.0(2) . . ?
P1 S3 Rb2 74.3(2) . . ?
Pr1 S3 Rb2 161.5(3) . . ?
Rb3 S3 Rb2 103.44(16) . . ?
P1 S3 Rb4 92.8(3) . 2_656 ?
Pr1 S3 Rb4 86.88(17) . 2_656 ?
Rb3 S3 Rb4 177.1(2) . 2_656 ?
Rb2 S3 Rb4 74.66(17) . 2_656 ?
P1 S3 Rb3 148.4(3) . 2_655 ?
Pr1 S3 Rb3 103.75(16) . 2_655 ?
Rb3 S3 Rb3 81.51(15) . 2_655 ?
Rb2 S3 Rb3 78.83(16) . 2_655 ?
Rb4 S3 Rb3 95.86(18) 2_656 2_655 ?
S4B S4A P1 79.7(17) . . ?
S4B S4A Pr1 78.8(15) . 2_646 ?
P1 S4A Pr1 90.3(3) . 2_646 ?
S4B S4A Pr1 159.4(17) . 1_545 ?
P1 S4A Pr1 93.2(3) . 1_545 ?
Pr1 S4A Pr1 120.8(3) 2_646 1_545 ?
S4B S4A Rb4 81.6(17) . . ?
P1 S4A Rb4 157.6(4) . . ?
Pr1 S4A Rb4 98.0(2) 2_646 . ?
Pr1 S4A Rb4 100.2(2) 1_545 . ?
S4A S4B P1 76.9(17) . . ?
S4A S4B Pr1 84.6(16) . 2_646 ?
P1 S4B Pr1 91.1(6) . 2_646 ?
S4A S4B Pr1 154.9(18) . . ?
P1 S4B Pr1 94.2(6) . . ?
Pr1 S4B Pr1 119.3(5) 2_646 . ?
S4A S4B Rb4 83.7(17) . . ?
P1 S4B Rb4 157.1(7) . . ?
Pr1 S4B Rb4 99.2(5) 2_646 . ?
Pr1 S4B Rb4 98.4(4) . . ?
P2 S5 Pr1 71.23(8) . . ?
P2 S5 Rb2 89.98(9) . 2_655 ?
Pr1 S5 Rb2 161.21(8) . 2_655 ?
P2 S5 Rb3 98.2(3) . . ?
Pr1 S5 Rb3 92.45(16) . . ?
Rb2 S5 Rb3 90.22(15) 2_655 . ?
P2 S5 Rb3 97.9(3) . 1_565 ?
Pr1 S5 Rb3 91.26(15) . 1_565 ?
Rb2 S5 Rb3 91.30(16) 2_655 1_565 ?
Rb3 S5 Rb3 163.89(8) . 1_565 ?
P2 S5 Rb3 169.92(10) . 2_655 ?
Pr1 S5 Rb3 98.69(5) . 2_655 ?
Rb2 S5 Rb3 100.09(5) 2_655 2_655 ?
Rb3 S5 Rb3 82.26(10) . 2_655 ?
Rb3 S5 Rb3 81.68(12) 1_565 2_655 ?
P2 S6 Pr1 76.9(2) . . ?
P2 S6 Rb2 92.6(3) . 1_655 ?
Pr1 S6 Rb2 164.3(3) . 1_655 ?
P2 S6 Rb4 75.9(2) . 2_756 ?
Pr1 S6 Rb4 106.73(18) . 2_756 ?
Rb2 S6 Rb4 81.38(17) 1_655 2_756 ?
P2 S6 Rb3 90.6(2) . . ?
Pr1 S6 Rb3 91.6(2) . . ?
Rb2 S6 Rb3 76.78(13) 1_655 . ?
Rb4 S6 Rb3 153.7(2) 2_756 . ?
P2 S6 Rb4 152.6(3) . . ?
Pr1 S6 Rb4 95.23(19) . . ?
Rb2 S6 Rb4 99.32(16) 1_655 . ?
Rb4 S6 Rb4 81.61(15) 2_756 . ?
Rb3 S6 Rb4 116.01(17) . . ?
P2 S7 Pr1 76.0(2) . . ?
P2 S7 Rb2 92.9(3) . 1_665 ?
Pr1 S7 Rb2 163.8(3) . 1_665 ?
P2 S7 Rb4 76.8(2) . 2_756 ?
Pr1 S7 Rb4 107.39(19) . 2_756 ?
Rb2 S7 Rb4 80.90(18) 1_665 2_756 ?
P2 S7 Rb3 91.0(3) . 1_565 ?
Pr1 S7 Rb3 90.6(2) . 1_565 ?
Rb2 S7 Rb3 77.67(15) 1_665 1_565 ?
Rb4 S7 Rb3 154.8(2) 2_756 1_565 ?
P2 S7 Rb4 152.7(3) . 1_565 ?
Pr1 S7 Rb4 94.6(2) . 1_565 ?
Rb2 S7 Rb4 100.45(16) 1_665 1_565 ?
Rb4 S7 Rb4 81.86(17) 2_756 1_565 ?
Rb3 S7 Rb4 114.99(16) 1_565 1_565 ?
P2 S8 Rb2 90.15(9) . 2_655 ?
P2 S8 Rb2 93.3(3) . 1_665 ?
Rb2 S8 Rb2 101.47(19) 2_655 1_665 ?
P2 S8 Rb3 171.39(11) . 2_755 ?
Rb2 S8 Rb3 81.24(5) 2_655 2_755 ?
Rb2 S8 Rb3 88.52(14) 1_665 2_755 ?
P2 S8 Rb2 92.6(3) . 1_655 ?
Rb2 S8 Rb2 99.61(17) 2_655 1_655 ?
Rb2 S8 Rb2 158.09(7) 1_665 1_655 ?
Rb3 S8 Rb2 88.88(13) 2_755 1_655 ?
P2 S8 Rb4 76.25(8) . 2_756 ?
Rb2 S8 Rb4 166.40(7) 2_655 2_756 ?
Rb2 S8 Rb4 79.88(11) 1_665 2_756 ?
Rb3 S8 Rb4 112.35(6) 2_755 2_756 ?
Rb2 S8 Rb4 81.03(13) 1_655 2_756 ?
S3 P1 S2 109.2(4) . . ?
S3 P1 S1 109.35(13) . . ?
S2 P1 S1 110.9(4) . . ?
S3 P1 S4A 118.1(4) . . ?
S2 P1 S4A 107.0(3) . . ?
S1 P1 S4A 102.0(4) . . ?
S3 P1 S4B 98.2(6) . . ?
S2 P1 S4B 105.4(5) . . ?
S1 P1 S4B 122.7(5) . . ?
S4A P1 S4B 23.4(3) . . ?
S3 P1 Rb2 74.0(3) . . ?
S2 P1 Rb2 67.63(8) . . ?
S1 P1 Rb2 71.1(2) . . ?
S4A P1 Rb2 167.8(4) . . ?
S4B P1 Rb2 166.1(5) . . ?
S3 P1 Rb3 60.9(2) . . ?
S2 P1 Rb3 161.68(11) . . ?
S1 P1 Rb3 62.9(2) . . ?
S4A P1 Rb3 91.3(2) . . ?
S4B P1 Rb3 91.8(4) . . ?
Rb2 P1 Rb3 94.24(5) . . ?
S8 P2 S5 117.61(13) . . ?
S8 P2 S6 112.4(4) . . ?
S5 P2 S6 104.1(3) . . ?
S8 P2 S7 110.4(4) . . ?
S5 P2 S7 104.9(4) . . ?
S6 P2 S7 106.58(12) . . ?
S8 P2 Pr1 171.25(11) . . ?
S5 P2 Pr1 71.10(8) . . ?
S6 P2 Pr1 64.1(2) . . ?
S7 P2 Pr1 64.7(2) . . ?
S8 P2 Rb4 71.53(8) . 2_756 ?
S5 P2 Rb4 170.84(10) . 2_756 ?
S6 P2 Rb4 71.2(2) . 2_756 ?
S7 P2 Rb4 69.7(2) . 2_756 ?
Pr1 P2 Rb4 99.75(5) . 2_756 ?
S8 P2 Rb2 59.04(8) . 2_655 ?
S5 P2 Rb2 58.58(8) . 2_655 ?
S6 P2 Rb2 126.4(3) . 2_655 ?
S7 P2 Rb2 126.5(3) . 2_655 ?
Pr1 P2 Rb2 129.68(6) . 2_655 ?
Rb4 P2 Rb2 130.57(6) 2_756 2_655 ?
S8 P2 Rb2 57.1(3) . 1_665 ?
S5 P2 Rb2 112.9(3) . 1_665 ?
S6 P2 Rb2 142.0(2) . 1_665 ?
S7 P2 Rb2 56.5(2) . 1_665 ?
Pr1 P2 Rb2 120.07(16) . 1_665 ?
Rb4 P2 Rb2 70.89(9) 2_756 1_665 ?
Rb2 P2 Rb2 82.18(9) 2_655 1_665 ?
loop_
_geom_bond_atom_site_label_1
_geom_bond_atom_site_label_2
_geom_bond_distance
_geom_bond_site_symmetry_2
_geom_bond_publ_flag
Pr1 S2 2.8916(19) 2_656 ?
Pr1 S4B 2.897(16) 2_656 ?
Pr1 S3 2.912(7) . ?
Pr1 S6 2.918(7) . ?
Pr1 S1 2.924(7) 1_565 ?
Pr1 S4A 2.940(8) 2_656 ?
Pr1 S7 2.942(7) . ?
Pr1 S5 3.156(2) . ?
Pr1 P2 3.1587(19) . ?
Pr1 S4A 3.167(7) 1_565 ?
Pr1 S4B 3.253(16) . ?
Pr1 Rb3 4.718(3) 1_565 ?
Rb2 S5 3.336(2) 2_645 ?
Rb2 S8 3.352(2) 2_645 ?
Rb2 S7 3.373(7) 1_445 ?
Rb2 S8 3.398(8) 1_445 ?
Rb2 S2 3.460(2) . ?
Rb2 S6 3.463(7) 1_455 ?
Rb2 S8 3.489(9) 1_455 ?
Rb2 S1 3.584(7) . ?
Rb2 S3 3.673(8) . ?
Rb2 P1 3.679(2) . ?
Rb2 P2 3.909(2) 2_645 ?
Rb2 P2 4.041(6) 1_445 ?
Rb3 S5 3.390(9) . ?
Rb3 S8 3.430(2) 2_745 ?
Rb3 S5 3.438(9) 1_545 ?
Rb3 S3 3.481(8) . ?
Rb3 S1 3.551(8) . ?
Rb3 S6 3.644(7) . ?
Rb3 S7 3.659(8) 1_545 ?
Rb3 S1 3.816(7) 2_655 ?
Rb3 S3 3.949(7) 2_645 ?
Rb3 S5 3.973(2) 2_645 ?
Rb3 P1 3.983(2) . ?
Rb4 S4B 3.290(17) . ?
Rb4 S4A 3.306(9) . ?
Rb4 S2 3.503(8) 2_656 ?
Rb4 S7 3.515(8) 2_746 ?
Rb4 S2 3.535(8) 2_646 ?
Rb4 S8 3.562(2) 2_746 ?
Rb4 S6 3.562(8) 2_746 ?
Rb4 P2 3.648(2) 2_746 ?
Rb4 S6 3.746(7) . ?
Rb4 S7 3.772(7) 1_545 ?
Rb4 S1 3.790(8) 2_656 ?
Rb4 S3 3.876(9) 2_646 ?
S1 P1 2.045(9) . ?
S2 P1 2.031(3) . ?
S3 P1 2.008(9) . ?
S4A S4B 0.843(10) . ?
S4A P1 2.067(9) . ?
S4B P1 2.088(17) . ?
S5 P2 2.039(3) . ?
S6 P2 2.042(9) . ?
S7 P2 2.062(8) . ?
S8 P2 2.002(3) . ?
