#------------------------------------------------------------------------------
#$Date: 2022-02-04 21:18:56 +0200 (Fri, 04 Feb 2022) $
#$Revision: 272606 $
#$URL: file:///home/coder/svn-repositories/cod/cif/7/24/39/7243904.cif $
#------------------------------------------------------------------------------
#
# This file is available in the Crystallography Open Database (COD),
# http://www.crystallography.net/
#
# All data on this site have been placed in the public domain by the
# contributors.
#
data_7243904
loop_
_publ_author_name
'Wang, Dandan'
'Jiang, Xiaoqing'
'Gong, Pifu'
'Zhang, Xinyuan'
'Lin, Zheshuai'
'Hu, Zhanggui'
'Wu, Yicheng'
_publ_section_title
;
 A new I3O93&#x2212; group constructed from IO3&#x2212; and IO55&#x2212;
 anion units in Cs3[Ga2O(I3O9)(IO3)4(HIO3)]
;
_journal_issue                   1
_journal_name_full               CrystEngComm
_journal_page_first              77
_journal_page_last               82
_journal_paper_doi               10.1039/D1CE01234G
_journal_volume                  24
_journal_year                    2022
_chemical_formula_moiety         '0.5(Cs6 Ga4 H2 I16 O50)'
_chemical_formula_sum            'Cs3 Ga2 H I8 O25'
_chemical_formula_weight         1954.38
_space_group_crystal_system      monoclinic
_space_group_IT_number           11
_space_group_name_Hall           '-P 2yb'
_space_group_name_H-M_alt        'P 1 21/m 1'
_atom_sites_solution_hydrogens   difmap
_atom_sites_solution_primary     dual
_audit_creation_date             2019-04-23
_audit_creation_method
;
Olex2 1.2
(compiled 2017.08.10 svn.r3458 for OlexSys, GUI svn.r5381)
;
_audit_update_record
;
2021-09-06 deposited with the CCDC.	2021-11-11 downloaded from the CCDC.
;
_cell_angle_alpha                90
_cell_angle_beta                 111.691(5)
_cell_angle_gamma                90
_cell_formula_units_Z            2
_cell_length_a                   7.9191(4)
_cell_length_b                   21.1203(7)
_cell_length_c                   8.6696(4)
_cell_measurement_reflns_used    13042
_cell_measurement_temperature    299.44(18)
_cell_measurement_theta_max      29.4890
_cell_measurement_theta_min      2.7630
_cell_volume                     1347.35(11)
_computing_molecular_graphics    'Olex2 (Dolomanov et al., 2009)'
_computing_publication_material  'Olex2 (Dolomanov et al., 2009)'
_computing_structure_refinement  'ShelXL (Sheldrick, 2015)'
_computing_structure_solution    'ShelXT (Sheldrick, 2015)'
_diffrn_ambient_temperature      299.44(18)
_diffrn_measured_fraction_theta_full 0.998
_diffrn_measured_fraction_theta_max 0.925
_diffrn_measurement_device_type  'multiwire proportional'
_diffrn_measurement_method       'phi and omega scans'
_diffrn_radiation_monochromator  graphite
_diffrn_radiation_type           MoK\a
_diffrn_radiation_wavelength     0.71073
_diffrn_reflns_av_R_equivalents  0.0869
_diffrn_reflns_av_unetI/netI     0.0442
_diffrn_reflns_Laue_measured_fraction_full 0.998
_diffrn_reflns_Laue_measured_fraction_max 0.925
_diffrn_reflns_limit_h_max       11
_diffrn_reflns_limit_h_min       -10
_diffrn_reflns_limit_k_max       28
_diffrn_reflns_limit_k_min       -27
_diffrn_reflns_limit_l_max       12
_diffrn_reflns_limit_l_min       -11
_diffrn_reflns_number            24656
_diffrn_reflns_point_group_measured_fraction_full 0.998
_diffrn_reflns_point_group_measured_fraction_max 0.925
_diffrn_reflns_theta_full        25.242
_diffrn_reflns_theta_max         29.769
_diffrn_reflns_theta_min         2.706
_exptl_absorpt_coefficient_mu    15.259
_exptl_absorpt_correction_type   none
_exptl_crystal_density_diffrn    4.817
_exptl_crystal_description       prism
_exptl_crystal_F_000             1704
_refine_diff_density_max         2.151
_refine_diff_density_min         -2.386
_refine_diff_density_rms         0.397
_refine_ls_extinction_coef       0.0120(2)
_refine_ls_extinction_expression Fc^*^=kFc[1+0.001xFc^2^\l^3^/sin(2\q)]^-1/4^
_refine_ls_extinction_method     'SHELXL-2016/4 (Sheldrick 2016)'
_refine_ls_goodness_of_fit_ref   1.234
_refine_ls_hydrogen_treatment    refall
_refine_ls_matrix_type           full
_refine_ls_number_parameters     188
_refine_ls_number_reflns         3641
_refine_ls_number_restraints     7
_refine_ls_restrained_S_all      1.233
_refine_ls_R_factor_all          0.0369
_refine_ls_R_factor_gt           0.0343
_refine_ls_shift/su_max          0.000
_refine_ls_shift/su_mean         0.000
_refine_ls_structure_factor_coef Fsqd
_refine_ls_weighting_details
'w=1/[\s^2^(Fo^2^)+(0.0268P)^2^+5.1798P] where P=(Fo^2^+2Fc^2^)/3'
_refine_ls_weighting_scheme      calc
_refine_ls_wR_factor_gt          0.0765
_refine_ls_wR_factor_ref         0.0775
_reflns_Friedel_coverage         0.000
_reflns_number_gt                3466
_reflns_number_total             3641
_reflns_threshold_expression     'I > 2\s(I)'
_cod_data_source_file            d1ce01234g2.cif
_cod_data_source_block           Cs3HGa2I8O25
_cod_depositor_comments          'Adding full bibliography for 7243904.cif.'
_cod_original_formula_sum        'Cs3 H Ga2 I8 O25'
_cod_database_code               7243904
_shelx_shelxl_version_number     2016/4
_shelx_space_group_comment
;
The symmetry employed for this shelxl refinement is uniquely defined
by the following loop, which should always be used as a source of
symmetry information in preference to the above space-group names.
They are only intended as comments.
;
_olex2_refinement_description
;
1. Restrained distances
 O13-H13
 0.9 with sigma of 0.02
2. Uiso/Uaniso restraints and constraints
Uanis(O14) \\sim Ueq: with sigma of 0.001 and sigma for terminal atoms of 0.002
Uanis(O14) = Uanis(O15)
3. Others
 Sof(O15)=0.5*(1-FVAR(2))
 Sof(O14)=0.5*FVAR(2)
;
_shelx_res_file
;
TITL a_a.res in P2(1)/m
 a.res created by SHELXL-2016/4 at 17:42:18 on 23-Apr-2019
REM Old TITL a_a.res in P2(1)/m
REM SHELXT solution in P2(1)/m
REM R1 0.085, Rweak 0.009, Alpha 0.031, Orientation as input
REM Formula found by SHELXT: Ga2 I11 O25
CELL 0.71073 7.9191 21.1203 8.6696 90 111.691 90
ZERR 2 0.0004 0.0007 0.0004 0 0.005 0
LATT 1
SYMM -X,0.5+Y,-Z
SFAC Cs Ga H I O
UNIT 6 4 2 16 50
DFIX 0.9 O13 H13
ISOR 0.001 0.002 O14
EADP O14 O15

L.S. 10
PLAN  50
BOND $H
list 4
fmap 2
acta
OMIT 1 0 1
OMIT -1 0 1
OMIT 2 28 0
REM <olex2.extras>
REM <HklSrc "%.\\a.hkl">
REM </olex2.extras>

WGHT    0.026800    5.179800
EXTI    0.012039
FVAR       0.23056   0.94308
I1    4    0.510381    0.250000    0.310619    10.50000    0.00840    0.00421 =
         0.00533    0.00000    0.00033    0.00000
I5    4    1.025942    0.250000    0.601122    10.50000    0.00726    0.00602 =
         0.00828    0.00000    0.00311    0.00000
I4    4    0.802575    0.451867    0.907250    11.00000    0.00895    0.00436 =
         0.00572   -0.00127    0.00225   -0.00019
I2    4    0.248582    0.386197    0.368970    11.00000    0.00733    0.00577 =
         0.00926    0.00258    0.00288    0.00165
I3    4    0.741816    0.448385    0.377479    11.00000    0.01248    0.00560 =
         0.00789    0.00192    0.00616    0.00215
CS2   1    0.335679    0.381148   -0.097633    11.00000    0.01699    0.01388 =
         0.01675   -0.00149    0.00796   -0.00184
CS1   1    0.906135    0.250000    0.070979    10.50000    0.02098    0.01877 =
         0.01706    0.00000   -0.00101    0.00000
GA1   2    0.696438    0.337835    0.632274    11.00000    0.00896    0.00300 =
         0.00569   -0.00052    0.00217   -0.00017
O3    5    0.679476    0.313975    0.406445    11.00000    0.01097    0.00910 =
         0.00892   -0.00547    0.00346   -0.00500
O7    5    0.762393    0.424927    0.588271    11.00000    0.02797    0.00760 =
         0.00949   -0.00108    0.01122   -0.00336
O10   5    1.036509    0.434202    1.031118    11.00000    0.01145    0.01340 =
         0.02615    0.00094   -0.00254    0.00107
PART 1
O14   5    0.628269    0.250000    0.676764    20.50000    0.00473    0.00422 =
         0.00505    0.00000    0.00196    0.00000
PART 0
O12   5    0.955658    0.313218    0.710164    11.00000    0.01026    0.00723 =
         0.01470   -0.00433    0.00327   -0.00100
O5    5    0.431204    0.357154    0.555848    11.00000    0.00920    0.01950 =
         0.00934    0.00631    0.00158    0.00434
O6    5    0.500872    0.454888    0.286279    11.00000    0.01634    0.03317 =
         0.02298    0.01200    0.00634    0.00202
O2    5    0.274251    0.332822    0.216382    11.00000    0.02065    0.01263 =
         0.01745    0.00010    0.00652    0.00972
O13   5    1.262594    0.250000    0.722091    10.50000    0.00984    0.01388 =
         0.02439    0.00000    0.00683    0.00000
O4    5    0.061529    0.348689    0.401375    11.00000    0.01537    0.02077 =
         0.02315    0.00366    0.00937   -0.00570
O9    5    0.723989    0.369797    0.851438    11.00000    0.01566    0.00304 =
         0.00684   -0.00287    0.00554   -0.00344
O1    5    0.523366    0.250000    0.111797    10.50000    0.02712    0.01924 =
         0.00777    0.00000    0.00455    0.00000
O8    5    0.806744    0.529455    0.419441    11.00000    0.04253    0.00686 =
         0.02307    0.00092    0.01772   -0.00295
O11   5    0.708362    0.463322    1.062576    11.00000    0.03322    0.01933 =
         0.01784   -0.00665    0.01861   -0.00142
H13   3    1.379206    0.250000    0.730102    10.50000    0.34609
PART 2
O15   5    0.549923    0.250000    0.686443   -20.50000    0.00473    0.00422 =
         0.00505    0.00000    0.00196    0.00000
HKLF 4




REM  a_a.res in P2(1)/m
REM R1 =  0.0343 for    3466 Fo > 4sig(Fo)  and  0.0369 for all    3641 data
REM    188 parameters refined using      7 restraints

END

WGHT      0.0268      5.1798

REM Highest difference peak  2.151,  deepest hole -2.386,  1-sigma level  0.397
Q1    1   0.9713  0.2500  0.0216  10.50000  0.05    2.15
Q2    1   0.8719  0.4508  0.8606  11.00000  0.05    2.06
Q3    1   0.5761  0.2500  0.2360  10.50000  0.05    2.05
Q4    1   0.9587  0.2500  0.6446  10.50000  0.05    1.99
Q5    1   0.5193  0.3228  0.5982  11.00000  0.05    1.99
Q6    1   0.8352  0.2500  0.1340  10.50000  0.05    1.86
Q7    1   0.8046  0.4476  0.3218  11.00000  0.05    1.84
Q8    1   0.4066  0.3793 -0.1605  11.00000  0.05    1.79
Q9    1   0.2700  0.3807 -0.0743  11.00000  0.05    1.72
Q10   1   0.7345  0.4527  0.9729  11.00000  0.05    1.70
Q11   1   0.3139  0.3867  0.3200  11.00000  0.05    1.64
Q12   1   1.0958  0.2500  0.5302  10.50000  0.05    1.61
Q13   1   0.8408  0.2500  0.2546  10.50000  0.05    1.57
Q14   1   0.7409  0.4129  0.4835  11.00000  0.05    1.52
Q15   1   0.6509  0.4503  0.8273  11.00000  0.05    1.50
Q16   1   0.8026  0.4136  0.8051  11.00000  0.05    1.46
Q17   1   0.7838  0.2500  0.0546  10.50000  0.05    1.43
Q18   1   0.6650  0.2500  0.2040  10.50000  0.05    1.41
Q19   1   0.2591  0.4274  0.2740  11.00000  0.05    1.41
Q20   1   0.3632  0.4204 -0.1876  11.00000  0.05    1.40
Q21   1   0.7161  0.3235  0.3584  11.00000  0.05    1.37
Q22   1   0.4545  0.3074  0.3956  11.00000  0.05    1.37
Q23   1   0.1850  0.3163  0.1972  11.00000  0.05    1.36
Q24   1   0.2522  0.3323  0.2830  11.00000  0.05    1.35
Q25   1   0.3370  0.3467 -0.1960  11.00000  0.05    1.35
Q26   1   0.8390  0.4920  0.8142  11.00000  0.05    1.33
Q27   1   0.1242  0.3855 -0.1633  11.00000  0.05    1.32
Q28   1   0.4437  0.2500  0.3731  10.50000  0.05    1.29
Q29   1   0.7106  0.3373  0.4625  11.00000  0.05    1.28
Q30   1   0.7888  0.4794  1.0050  11.00000  0.05    1.26
Q31   1   0.5806  0.4170  0.9362  11.00000  0.05    1.25
Q32   1  -0.0549  0.4095  0.3296  11.00000  0.05    1.24
Q33   1   0.7334  0.2500  0.4261  10.50000  0.05    1.23
Q34   1   0.9157  0.2756  0.1597  11.00000  0.05    1.22
Q35   1   0.4155  0.3187  0.0712  11.00000  0.05    1.21
Q36   1   0.8031  0.2889  0.6302  11.00000  0.05    1.18
Q37   1   0.3443  0.2500  0.2722  10.50000  0.05    1.18
Q38   1   0.6598  0.4484  0.4191  11.00000  0.05    1.17
Q39   1   1.0341  0.3101  0.6830  11.00000  0.05    1.17
Q40   1   0.7907  0.4803  0.6108  11.00000  0.05    1.16
Q41   1   0.8023  0.4083  1.0124  11.00000  0.05    1.14
Q42   1   0.7146  0.3658  0.7218  11.00000  0.05    1.13
Q43   1   0.8199  0.2500  0.5577  10.50000  0.05    1.13
Q44   1   0.4880  0.4212  0.3951  11.00000  0.05    1.13
Q45   1   0.0398  0.3104  0.4902  11.00000  0.05    1.12
Q46   1   0.4417  0.2500  0.1550  10.50000  0.05    1.12
Q47   1   0.5744  0.4643  0.6077  11.00000  0.05    1.10
Q48   1   0.4129  0.3823  0.4219  11.00000  0.05    1.10
Q49   1   0.8361  0.3233  0.5566  11.00000  0.05    1.10
Q50   1   0.9038  0.2887 -0.0348  11.00000  0.05    1.08
;
_shelx_res_checksum              45741
_shelx_hkl_file
;
   0   0   2  853.61   51.20
   0   0   3 4397.52  233.29
   0   0   3 3804.50  225.10
   0   0  -3 4042.82  231.69
   0   0   4 7920.73  487.18
   0   0   4 9106.12  498.56
   0   0  -4 9433.47  491.17
   0   0  -4 9383.32  497.91
   0   0   5  135.88   13.32
   0   0  -5  129.79   14.82
   0   0  -6 2693.10  168.67
   0   0   6 2894.70  166.52
   0   0   7 3010.57  181.59
   0   0  -7 2677.93  184.03
   0   0  -8  911.49   74.70
   0   0   8 1026.61   71.86
   0   0  -9  360.14   41.97
   0   0   9  395.76   46.86
   0   0  -9  266.37   32.78
   0   0   9  272.31   29.29
   0   0 -10 1501.07  108.04
   0   0  10 1740.10  118.61
   0   1  -1   13.32    2.20
   0   1   1   19.76    2.59
   0   1  -2  793.52   47.01
   0  -1  -2  799.31   47.81
   0  -1   2  756.20   47.01
   0   1   2  770.77   50.80
   0   1   3  563.03   41.27
   0  -1  -3  580.40   41.37
   0  -1  -3  493.22   36.18
   0  -1   3  527.75   35.58
   0   1   3  535.09   35.78
   0   1   4  322.36   30.24
   0   1  -4  309.79   29.74
   0   1   4  281.44   23.55
   0  -1   4  349.61   31.84
   0  -1  -4  262.03   24.15
   0  -1   4  262.93   23.00
   0   1  -5   54.54   11.83
   0   1  -5   14.77    6.04
   0  -1   5   14.57    4.74
   0  -1   5   -0.90    3.39
   0  -1  -5   50.90    9.28
   0   1   5   28.54    6.79
   0   1   5   -0.85    2.89
   0  -1   6  403.75   32.49
   0   1   6  410.19   32.64
   0   1  -6  433.99   42.12
   0   1  -6  342.17   33.33
   0  -1  -6  338.93   32.88
   0   1  -7  652.95   55.74
   0   1   7  966.78   71.66
   0  -1  -7  664.63   55.79
   0   1   7  704.65   53.29
   0  -1   7  702.61   53.34
   0  -1   7 1018.53   74.40
   0   1  -8   24.70   11.63
   0   1   8   30.14   14.67
   0   1   8   44.16   10.53
   0  -1   8   29.19    8.83
   0   1  -8   20.91    9.53
   0  -1   8   38.87   15.77
   0  -1  -8   30.39   10.78
   0  -1   9   64.07   20.36
   0   1  -9   39.62   14.97
   0   1  -9   38.97   12.67
   0  -1   9   47.95   11.58
   0   1   9   52.20   11.63
   0   1   9   61.73   20.01
   0  -1  -9   61.08   15.02
   0  -1 -10   15.27   12.72
   0   1 -10   17.37   10.63
   0   1  10   10.23   11.98
   0  -1 -10    5.44    8.28
   0   1 -10   10.28   11.98
   0   2   1  551.36   14.12
   0   2  -1  502.55   14.67
   0  -2   1  502.20   15.52
   0  -2  -2  718.57   42.42
   0  -2   2  641.68   41.82
   0   2   2  634.94   44.41
   0   2   2  723.26   41.77
   0   2  -2  653.85   41.32
   0  -2   3  196.31   17.27
   0   2  -3  229.69   17.42
   0  -2  -3  200.15   18.06
   0   2   3  220.26   21.26
   0   2   4  569.47   41.32
   0  -2  -4  557.89   42.12
   0  -2   4  586.29   41.22
   0  -2   4  667.57   50.65
   0   2   4  620.92   47.95
   0   2  -4  617.57   40.77
   0  -2  -5    3.19    3.74
   0   2   5   -0.80    3.14
   0   2   5    8.53    4.34
   0  -2   5   14.37    5.09
   0   2  -5   18.96    7.83
   0  -2  -6  206.84   23.40
   0   2  -6  193.92   23.50
   0  -2   6  215.27   22.26
   0   2   6  220.61   22.46
   0   2   7  434.34   43.81
   0  -2   7  340.87   31.54
   0   2   7  335.43   30.89
   0   2  -7  426.35   43.06
   0  -2   7  437.48   45.96
   0   2  -7  289.72   32.64
   0  -2  -7  293.97   31.84
   0   2  -8  743.12   62.78
   0  -2  -8  600.36   53.59
   0   2   8  863.54   69.56
   0   2  -8  565.93   53.39
   0  -2   8  665.78   51.95
   0   2   8  604.65   50.00
   0  -2   8  996.47   76.30
   0  -2  -9   21.41   10.63
   0   2   9   34.93   16.82
   0  -2   9   55.69   20.36
   0  -2   9   32.14    9.98
   0   2  -9   37.33   12.72
   0   2  -9   44.01   15.97
   0   2 -10   10.18   10.23
   0   2  10   13.52   13.17
   0  -2  10   48.15   19.41
   0  -2 -10    7.58    8.43
   0  -2 -10   10.88   11.53
   0   2 -10    1.15    7.68
   0   3   0   13.37    2.10
   0  -3   0    0.85    0.85
   0  -3   1    9.18    3.14
   0  -3   1   -0.20    0.80
   0   3  -1    8.58    2.50
   0   3   1    7.73    2.40
   0  -3  -1   -0.20    0.80
   0   3  -1    5.89    2.35
   0  -3   2 5686.91  380.34
   0   3  -2 7573.56  383.64
   0  -3  -2 6946.81  380.94
   0   3   2 8037.34  380.44
   0   3  -2 6405.18  379.75
   0  -3  -3  566.63   39.07
   0   3  -3  572.86   37.43
   0   3  -3  567.22   41.97
   0   3   3  599.56   37.92
   0   3   3  542.62   41.72
   0  -3   3  541.62   38.47
   0   3  -4 2557.17  139.17
   0  -3  -4 2320.14  140.82
   0   3   4 2419.20  146.86
   0  -3   4 2219.94  139.82
   0   3  -5 1789.90   67.37
   0  -3   5 1679.77   49.75
   0  -3  -5 1613.50   51.00
   0   3  -6 4379.11  238.43
   0   3   6 3629.25  226.55
   0   3  -6 4454.91  242.72
   0  -3   6 3978.60  228.45
   0  -3  -6 3595.41  228.90
   0  -3  -7  112.38   17.76
   0   3  -7  159.43   25.20
   0   3   7  138.38   24.25
   0  -3   7  166.02   27.40
   0   3  -7  121.36   20.96
   0   3   7  108.88   15.82
   0  -3   7  127.55   17.27
   0   3  -7   98.75   17.27
   0   3   8 1827.07  118.07
   0   3  -8 1893.79  119.71
   0   3  -8 1246.58  100.70
   0   3   8 1370.68   96.86
   0  -3   8 2095.49  127.70
   0  -3   8 1505.46   99.00
   0  -3  -8 1257.80   99.90
   0   3  -8 1621.83  110.88
   0   3  -9 2944.95  180.74
   0   3  -9 2201.83  167.47
   0   3   9 3258.28  189.52
   0  -3   9 2826.24  166.57
   0  -3  -9 2234.31  167.22
   0  -3   9 3602.20  198.61
   0   3 -10  424.36   48.50
   0  -3  10  511.68   57.64
   0   3 -10  327.90   40.37
   0  -3 -10  329.75   39.22
   0   3  10  444.37   52.35
   0   4   0  114.37   10.33
   0  -4   0  224.25   13.17
   0   4  -1   55.04    6.99
   0  -4   1   47.11    5.59
   0  -4   1   54.89    7.88
   0   4   1   62.88    6.44
   0   4  -2   30.74    6.09
   0  -4  -2   38.12    6.19
   0   4  -2   23.00    4.79
   0  -4   2   15.52    4.69
   0   4   2   17.32    4.19
   0   4  -3  203.30   20.56
   0  -4  -3  201.50   18.86
   0   4  -3  225.55   18.21
   0   4   3  215.77   17.86
   0  -4   3  205.94   19.36
   0   4   4 1172.12   83.58
   0  -4  -4 1191.98   79.84
   0  -4   4 1183.70   79.49
   0   4   4 1392.24   78.39
   0   4  -4 1277.56   83.83
   0   4  -4 1295.98   77.95
   0   4  -5  216.72   22.16
   0  -4  -5  193.42   18.46
   0  -4   5  200.15   17.96
   0   4  -5  251.55   17.86
   0   4  -6  135.68   22.16
   0   4   6   83.43   13.97
   0  -4  -6  104.89   16.32
   0  -4   6  113.52   15.87
   0   4  -6  137.88   20.21
   0  -4   7  639.63   58.48
   0   4   7  447.61   39.77
   0   4  -7  589.83   53.19
   0  -4   7  480.95   41.37
   0   4  -7  496.36   47.21
   0   4   7  550.71   51.80
   0  -4  -7  426.20   41.82
   0  -4   8 1487.10   96.66
   0   4  -8 1571.53  106.24
   0   4   8 1686.60  112.33
   0  -4  -8 1211.25   95.71
   0   4   8 1264.04   92.52
   0  -4   8 2051.08  124.20
   0   4  -8 1110.40   95.81
   0   4  -8 1802.22  115.22
   0   4  -9  176.25   29.59
   0  -4   9  225.25   36.98
   0   4  -9  136.03   23.50
   0  -4   9  188.48   23.40
   0   4   9  191.97   32.29
   0  -4  -9  129.39   22.26
   0  -4  10  386.68   50.35
   0   4  10  328.55   43.46
   0   4 -10  201.25   30.69
   0   4 -10  304.65   40.07
   0  -4 -10  201.05   30.24
   0   5   0    2.74    1.80
   0  -5   0   -0.30    2.05
   0  -5  -1 1255.91   77.30
   0  -5   1 1164.99   75.15
   0   5  -1 1341.29   78.99
   0   5   1 1349.87   76.90
   0  -5   1 1364.99   81.44
   0  -5  -2  271.51   22.66
   0   5  -2  298.26   23.40
   0   5  -2  300.45   23.20
   0   5   2  278.15   21.71
   0  -5   2  267.62   23.20
   0  -5   2  295.01   25.00
   0   5   3   69.01    8.93
   0   5  -3   54.64    9.78
   0  -5   3   57.04   10.03
   0   5  -3   70.01    9.23
   0  -5  -3   71.56   10.18
   0   5  -4 1482.41   87.83
   0  -5   4 1384.05   90.62
   0   5  -4 1425.22   92.77
   0  -5  -4 1319.43   89.52
   0   5   4 1554.41   87.78
   0   5   4 1318.13   92.82
   0  -5  -5  322.16   24.35
   0  -5   5  367.87   25.90
   0   5  -5  422.66   23.25
   0   5  -5  340.22   27.55
   0   5  -6  192.67   19.26
   0   5  -6  172.11   23.50
   0  -5   6  164.77   20.66
   0   5  -6  174.95   25.70
   0  -5  -6  135.43   19.51
   0   5   7  298.31   35.98
   0  -5   7  284.19   29.64
   0   5  -7  301.30   34.28
   0  -5  -7  247.46   29.09
   0   5   7  239.18   27.00
   0   5  -7  301.70   37.23
   0  -5   8   10.33    6.64
   0   5   8    3.84    9.53
   0  -5  -8   21.86    9.43
   0   5  -8    6.79    9.43
   0   5  -8    1.40    9.18
   0   5  -8    4.84    7.58
   0  -5   9  411.98   51.15
   0   5   9  352.00   44.11
   0   5  -9  264.33   34.98
   0   5  -9  368.97   46.31
   0  -5   9  347.61   34.98
   0   5  -9  356.39   41.97
   0  -5  -9  318.12   36.78
   0   5 -10  211.53   34.38
   0   5  10  223.66   36.48
   0   5 -10  154.44   27.05
   0   6   0 3742.57  201.45
   0  -6   0 3681.09  206.84
   0  -6   0 3358.33  203.20
   0  -6   1  252.70   20.36
   0  -6  -1  261.38   22.70
   0   6   1  280.44   22.26
   0   6  -1  279.25   23.85
   0   6   1  264.72   21.91
   0  -6   1  303.75   26.65
   0  -6   1  281.09   18.91
   0   6  -2  185.58   20.71
   0  -6  -2  207.54   19.71
   0  -6   2  200.75   19.46
   0   6  -2  197.21   21.21
   0   6  -2  222.16   19.46
   0  -6   2  220.81   22.21
   0   6   2  226.65   18.96
   0   6   3 1044.63   62.68
   0   6  -3 1047.27   64.12
   0  -6  -3  898.52   63.92
   0   6  -3  961.89   65.47
   0  -6   3  951.86   66.67
   0  -6  -4  920.62   65.92
   0   6  -4  993.88   63.87
   0  -6   4  931.00   67.12
   0   6   4 1011.09   63.27
   0   6  -4 1033.50   68.76
   0  -6   5  473.71   30.74
   0   6  -5  493.37   25.95
   0   6   5  457.44   24.80
   0  -6  -5  411.98   28.54
   0   6  -5  479.70   32.78
   0  -6   6  501.95   43.46
   0  -6  -6  439.73   41.77
   0   6  -6  553.40   40.22
   0   6  -6  534.54   46.76
   0  -6  -7   59.73   13.32
   0   6  -7   65.02   17.02
   0   6  -7   91.47   18.16
   0  -6   7  108.48   22.75
   0   6   7   56.84   15.62
   0  -6   7  105.29   16.72
   0   6   7   28.99    9.03
   0   6  -8   92.37   21.76
   0   6   8   74.10   19.81
   0   6  -8   79.34   19.11
   0  -6   8  107.04   17.66
   0  -6  -8   84.63   17.27
   0  -6   8  110.58   25.95
   0   6  -9   95.81   22.01
   0   6  -9   77.75   18.06
   0   6   9  101.75   23.05
   0  -6  -9   74.20   17.32
   0  -6   9   90.22   17.07
   0   6  -9  121.61   25.90
   0  -6   9  170.21   33.28
   0   6 -10  361.08   42.07
   0   7   0    5.34    2.45
   0   7   0   10.18    4.69
   0  -7   0    4.99    3.69
   0  -7   0    8.98    3.69
   0   7   1  379.15   27.60
   0   7   1  312.03   25.60
   0  -7   1  377.05   32.24
   0   7  -1  319.52   27.74
   0  -7  -1  324.66   27.40
   0  -7   1  314.13   22.31
   0  -7   2   46.81    8.38
   0   7   2   53.34    8.43
   0   7  -2   41.52    8.08
   0  -7  -2   44.06    8.38
   0   7  -2   40.32    8.98
   0   7   3   19.76    5.49
   0  -7  -3   22.06    6.34
   0  -7   3   24.25    7.83
   0   7  -3   19.16    6.29
   0   7  -3   15.72    5.19
   0   7   4 2323.29  131.09
   0  -7  -4 2012.26  133.63
   0  -7   4 1990.80  135.78
   0   7  -4 2305.97  132.24
   0   7  -4 2280.52  136.08
   0   7  -5  160.53   19.66
   0  -7  -5  110.03   15.67
   0  -7   5  121.31   16.47
   0   7  -5  159.63   15.67
   0   7   5  138.82   14.67
   0  -7   6    9.43    6.44
   0  -7  -6   10.93    6.24
   0   7  -6   11.23    8.33
   0   7  -6    7.24    5.64
   0  -7  -7  339.18   37.28
   0  -7   7  395.71   38.77
   0   7  -7  400.31   41.42
   0   7  -7  428.70   34.68
   0   7   7  342.17   40.52
   0   7  -8  817.98   68.41
   0  -7  -8  668.82   62.28
   0   7   8  713.78   68.21
   0  -7   8  818.43   64.07
   0   7  -8  860.64   75.05
   0   7   9    2.50    5.24
   0  -7   9    2.79    7.29
   0   7  -9   -2.54   10.78
   0  -7  -9    4.34    7.63
   0   7   9    4.29    9.68
   0   7  -9  -13.07   12.72
   0   7  -9    7.98    8.23
   0   7 -10  161.53   29.29
   0   7 -10  135.93   25.25
   0  -8   0 2025.98  122.81
   0   8   0 2089.20  122.01
   0   8   0 1944.54  114.87
   0   8   1  100.80   12.43
   0  -8   1   78.84   14.47
   0  -8  -1   88.17   12.72
   0  -8   1   66.77    7.88
   0   8  -1   82.69   12.67
   0   8   1   77.65   10.33
   0  -8   2    6.59    6.94
   0   8   2    3.24    3.09
   0   8  -2    5.89    4.04
   0  -8   2    3.49    3.54
   0   8   3   86.58   11.58
   0  -8  -3   65.52   11.68
   0  -8   3   68.41   13.42
   0   8  -3   82.79   14.17
   0   8  -3   83.28   12.48
   0   8  -3   63.77   12.97
   0   8  -4  470.67   36.28
   0   8   4  443.32   34.33
   0   8  -4  477.90   38.87
   0  -8   4  444.47   40.77
   0  -8  -4  400.11   36.63
   0  -8   5  634.44   52.94
   0   8  -5  652.01   51.55
   0  -8  -5  556.15   49.00
   0   8   5  641.53   45.76
   0   8  -5  668.82   47.56
   0   8  -6    5.49    5.29
   0   8  -6   11.28    9.08
   0  -8  -6    4.09    5.24
   0  -8   6    7.88    7.58
   0   8   6    7.14    6.09
   0  -8  -7   10.23    6.89
   0   8  -7    4.94    8.93
   0   8   7    3.34    8.28
   0   8  -7    9.98    6.09
   0  -8   7   24.25   10.78
   0  -8  -8  173.31   26.40
   0  -8   8  266.67   30.74
   0   8  -8  193.72   28.94
   0   8   8  189.67   30.54
   0   8  -8  212.23   33.43
   0   8  -9   21.66   14.77
   0   8  -9   18.96   13.32
   0   8   9   12.13    8.38
   0  -8   9   24.95   11.93
   0   8   9   25.55   13.72
   0  -8  -9   25.85   11.53
   0   8 -10   11.53    9.53
   0   8 -10   24.10   15.27
   0   8  10    6.29   11.33
   0   9   0   16.27    5.99
   0   9   0    3.29    2.64
   0  -9   0    7.68    5.44
   0   9  -1    4.04    4.29
   0   9   1   19.01    4.99
   0  -9   1    3.24    5.39
   0  -9   1    6.74    2.99
   0  -9  -1   14.37    5.69
   0   9   1    8.88    4.59
   0  -9   2  175.80   18.81
   0   9  -2  178.60   20.31
   0   9   2  204.00   19.91
   0  -9  -2  198.26   21.66
   0   9   2  179.14   20.36
   0  -9  -3  927.71   41.72
   0  -9   3  905.35   40.67
   0   9  -3  825.41   42.67
   0  -9   3  990.63   49.85
   0   9   3  977.01   36.78
   0   9  -3 1031.05   41.12
   0  -9  -4  731.75   39.17
   0   9  -4  810.34   39.37
   0   9   4  851.71   35.28
   0   9  -4  875.26   38.72
   0  -9   4  870.17   47.95
   0   9  -4  752.66   44.11
   0  -9  -5    3.74    4.59
   0   9  -5   10.68    5.84
   0   9  -5    8.18    7.54
   0  -9   5   12.72    7.73
   0   9   5    6.44    5.39
   0   9   6    4.84    7.93
   0  -9   6   19.31   10.53
   0   9  -6    8.68    7.98
   0  -9  -6    5.99    6.04
   0   9  -6   21.21    7.58
   0   9   6   11.73    6.94
   0   9  -7 1045.32   67.27
   0  -9  -7  845.97   71.06
   0  -9   7  959.10   74.80
   0   9   7  878.81   74.75
   0   9  -7  879.01   72.46
   0  -9  -8   19.16    9.68
   0   9  -8   24.65    9.33
   0   9  -8   25.85   12.72
   0   9   8   31.54   14.47
   0   9   8   31.99   11.08
   0  -9   8   14.72    9.73
   0  -9  -9    1.15    7.83
   0   9  -9   22.01   14.97
   0   9   9    4.54    6.19
   0   9  -9   -1.25    8.88
   0   9   9    8.48   10.48
   0   9 -10   -1.35   10.83
   0   9 -10    5.24    8.88
   0   9 -10    2.84   12.03
   0   9  10   12.48   12.97
   0  10   0 8530.67  471.86
   0 -10   0 8153.56  473.26
   0  10   1   46.26    9.58
   0 -10  -1   39.32    9.58
   0 -10   1   34.63    6.24
   0 -10   1   51.15   13.47
   0  10  -1   39.67    9.83
   0  10   1   43.41    7.93
   0  10   2  249.01   23.30
   0 -10   2  220.41   22.01
   0 -10   2  223.06   18.31
   0 -10  -2  222.61   24.60
   0  10  -2  216.02   23.80
   0 -10   2  244.51   29.99
   0  10   2  232.39   23.45
   0  10   3 1460.15   47.01
   0 -10   3 1254.76   48.65
   0 -10   3 1418.53   64.47
   0 -10  -3 1318.18   52.94
   0  10  -3 1126.66   50.90
   0  10  -3 1450.27   52.00
   0  10  -4 2228.33  135.03
   0 -10   4 2160.71  142.52
   0 -10  -4 1981.97  135.93
   0  10  -4 2249.43  134.73
   0  10  -4 1903.52  138.43
   0  10   4 2415.41  133.14
   0  10  -5  109.93   15.42
   0 -10  -5   78.99   15.52
   0 -10   5   98.01   18.76
   0  10  -5   84.63   15.82
   0  10   5  102.65   14.67
   0  10  -5   79.44   16.97
   0  10  -6 1005.05   73.90
   0 -10   6 1088.69   79.64
   0  10  -6  755.45   72.56
   0 -10  -6  907.00   72.71
   0  10   6  797.37   72.11
   0  10  -6 1145.53   70.81
   0  10   6 1083.95   68.21
   0  10  -7  436.08   44.86
   0  10  -7  525.41   40.97
   0 -10   7  480.15   47.46
   0  10   7  422.16   45.96
   0 -10  -7  420.37   43.81
   0  10   8   17.71   11.83
   0 -10  -8    7.63    7.73
   0  10  -8   13.52   10.53
   0  10  -8   25.00    9.08
   0  10  -8   24.55   11.63
   0  10  -9  151.70   27.70
   0  10  -9  247.36   33.23
   0  10   9  201.95   31.99
   0 -10  -9  177.10   27.84
   0  10  -9  264.92   39.97
   0  10   9  146.66   24.05
   0  10 -10  432.24   48.60
   0  10 -10  424.86   47.85
   0  11   0    8.13    3.74
   0  11   0    3.29    4.99
   0 -11   0   10.38    6.54
   0 -11   1   10.98    6.79
   0  11  -1    9.53    5.84
   0  11   1    6.99    4.14
   0 -11   1    7.04    3.79
   0 -11  -1   12.08    6.54
   0  11   1   10.98    5.49
   0 -11   2 4026.91  257.44
   0 -11   2 5271.93  277.35
   0  11  -2 5022.93  264.47
   0 -11   2 4182.20  251.90
   0  11   2 5181.11  261.83
   0  11   2 4692.23  260.48
   0  11   2 3917.72  262.08
   0 -11  -2 4727.02  265.57
   0  11  -3   50.95   10.78
   0 -11   3   50.65   15.07
   0 -11   3   33.38    9.48
   0 -11  -3   65.57   13.17
   0  11   3   44.06   10.73
   0  11   3   49.70   10.18
   0  11  -3   34.23    9.98
   0  11  -4 1110.15   89.07
   0  11  -4 1350.02   86.53
   0 -11   4 1381.76   97.11
   0 -11  -4 1157.30   87.68
   0  11   4 1378.46   84.28
   0  11  -5 1194.83   76.10
   0 -11   5 1119.88   84.73
   0  11  -5  892.23   79.34
   0 -11  -5  984.20   77.90
   0  11   5 1101.91   72.51
   0  11  -5 1103.11   77.15
   0 -11   6 2225.53  134.18
   0 -11  -6 1744.69  124.10
   0  11   6 2001.48  117.52
   0  11  -6 2008.06  124.60
   0  11  -6 1571.73  126.60
   0  11   6 1515.49  122.01
   0  11  -6 2279.67  122.51
   0  11  -6 1544.48  124.80
   0  11   7  209.23   30.99
   0  11  -7  151.25   27.30
   0  11   7  263.58   26.05
   0  11  -7  238.33   30.34
   0 -11  -7  224.11   30.04
   0 -11   7  201.65   30.49
   0  11   7  217.07   30.24
   0  11  -7  301.35   28.39
   0  11  -8  132.99   24.50
   0  11   8  143.52   25.90
   0  11  -8  178.15   21.66
   0 -11  -8  135.13   24.00
   0  11  -8  106.64   23.00
   0 -11  -9 1051.21   80.64
   0  11  -9  762.69   75.95
   0  11   9  826.16   70.86
   0  11  -9 1105.95   82.39
   0  11   9  989.24   82.59
   0  11 -10  186.03   31.59
   0  12   0 1132.95   71.86
   0  12   0 1234.20   82.04
   0 -12   0 1185.25   83.58
   0 -12  -1 1394.78   90.92
   0  12  -1 1353.66   89.27
   0  12   1 1269.78   81.09
   0  12   1 1405.86   88.08
   0 -12   1 1163.64   79.84
   0 -12   2  434.89   35.68
   0  12   2  396.26   38.67
   0  12   2  514.38   38.92
   0 -12  -2  471.96   41.47
   0  12  -2  454.70   39.22
   0 -12   2  330.44   42.02
   0  12   2  426.70   36.03
   0 -12   2  416.67   30.29
   0  12  -3  290.02   33.08
   0 -12   3  358.09   40.97
   0  12   3  356.64   33.58
   0 -12   3  308.84   31.34
   0 -12  -3  336.38   34.53
   0  12   3  357.64   31.49
   0  12  -3  380.74   33.93
   0  12  -4 2060.36  121.51
   0  12   4 2093.99  127.70
   0  12   4 1937.70  117.77
   0  12  -4 1566.94  122.56
   0 -12  -4 1862.00  124.00
   0 -12   4 1723.58  129.99
   0  12  -5  677.31   45.56
   0  12  -5  500.81   48.15
   0  12   5  631.70   42.12
   0 -12  -5  558.29   47.26
   0  12  -5  534.99   49.40
   0  12  -6  707.50   45.36
   0  12   6  594.17   44.96
   0  12   6  562.28   45.71
   0  12  -6  632.69   50.60
   0  12  -6  847.87   45.06
   0  12   6  731.20   39.87
   0  12  -6  535.84   46.31
   0 -12  -6  638.28   46.26
   0  12   7  629.90   60.38
   0  12   7  721.22   51.90
   0  12   7  562.98   56.89
   0 -12  -7  660.54   59.58
   0  12  -7  691.83   58.38
   0  12  -7  513.48   56.94
   0  12  -7  752.71   54.34
   0  12   8  726.41   69.61
   0  12  -8  950.91   64.12
   0  12  -8  841.33   70.06
   0  12  -8  594.67   66.47
   0 -12  -8  783.20   70.11
   0  12   9  148.26   24.45
   0  12   9  172.31   29.99
   0  12  -9  161.08   28.69
   0  12 -10   79.14   21.36
   0  13   0    1.55    3.94
   0 -13   0    5.34    6.59
   0  13  -1   20.41    8.58
   0 -13  -1   20.86    9.03
   0  13   1   37.78   10.33
   0  13   1   42.37    8.33
   0 -13  -2 5035.60  116.27
   0  13   2 5243.49   95.26
   0  13  -2 5393.09  111.43
   0  13   2 5421.84  104.19
   0  13   2 4392.58  104.89
   0 -13   2 4035.84   62.88
   0 -13   2 4432.25   87.33
   0 -13  -3    6.29    6.34
   0 -13   3    1.30    5.44
   0 -13   3   12.23    4.19
   0 -13   3   23.00    8.13
   0  13   3   27.35    9.53
   0  13  -3    7.09    5.69
   0  13  -3   25.30    8.88
   0  13   3   27.70    9.73
   0  13   3    9.53    6.84
   0  13  -4 1401.57   64.72
   0  13   4 1921.93   73.35
   0  13  -4 1511.90   69.86
   0  13   4 1827.47   58.58
   0  13  -4 1718.49   61.48
   0 -13  -4 1741.89   70.66
   0 -13  -5  762.39   65.62
   0  13  -5  733.89   68.01
   0  13   5  965.43   72.71
   0  13  -5  843.58   62.43
   0  13  -5  715.48   66.62
   0  13   5  872.92   60.38
   0  13  -6 1518.09  124.85
   0 -13  -6 1707.91  124.45
   0  13  -6 1638.20  127.05
   0  13   6 2295.64  139.37
   0  13   6 1530.86  123.45
   0  13   6 2033.51  118.17
   0  13  -6 2119.29  121.61
   0  13   7  279.15   36.83
   0  13  -7  272.11   38.47
   0  13  -7  222.11   34.43
   0  13  -7  341.82   32.88
   0  13   7  310.63   30.29
   0  13   7  260.13   34.38
   0 -13  -7  260.43   34.93
   0  13   8  769.07   73.45
   0  13  -8  937.39   74.70
   0 -13  -8  867.43   75.60
   0  13  -8  643.02   70.81
   0  13   8 1246.77   97.31
   0  13   8  882.30   78.44
   0  13  -8 1059.25   69.46
   0  13  -9  932.95   83.43
   0  13   9 1048.47   86.23
   0 -14   0 8533.91  396.61
   0  14   0 7260.94  387.98
   0  14   0 8377.07  376.00
   0  14   1   11.78    7.34
   0  14   1   17.91    5.94
   0  14  -1   15.82    8.78
   0 -14  -1   14.17    8.68
   0  14   2    4.49    6.49
   0 -14   2   12.97    4.79
   0  14  -2    1.60    6.59
   0  14   2   22.26    9.73
   0  14   2   14.57    6.74
   0 -14   2   10.28    6.39
   0 -14  -2   23.75   10.08
   0  14   3 1654.81   96.16
   0  14   3 1144.48   95.26
   0 -14   3 1419.88   94.16
   0  14  -3 1194.88   95.61
   0 -14   3 1272.87   83.98
   0  14  -3 1555.96   97.46
   0  14   3 1584.30   96.31
   0 -14  -3 1596.58  102.20
   0  14   4 3109.48  182.39
   0  14  -4 2997.90  177.40
   0  14   4 3116.91  175.75
   0 -14  -4 2989.67  183.74
   0  14  -4 2636.17  183.29
   0  14  -5  364.73   34.93
   0  14   5  397.81   41.62
   0  14   5  368.62   33.33
   0  14  -5  314.97   39.17
   0  14  -5  307.74   37.92
   0 -14  -5  333.74   37.78
   0  14   5  277.05   36.18
   0  14  -6  820.57   59.58
   0  14  -6  666.28   64.67
   0  14   6  748.96   56.04
   0 -14  -6  713.18   63.42
   0  14   6  607.04   61.08
   0  14  -6  580.80   61.68
   0  14   6  913.94   73.05
   0  14   7  637.68   64.57
   0  14   7  636.19   62.48
   0  14  -7  659.84   67.62
   0 -14  -7  713.38   65.82
   0  14  -7  593.97   64.22
   0  14  -7  889.43   62.23
   0  14   7  834.64   58.33
   0  14   8   66.32   24.15
   0  14  -8   32.54   14.42
   0 -14  -8   24.85   12.77
   0 -14  -8   42.37   18.86
   0  14  -8   42.37   17.02
   0  14  -8   66.52   14.47
   0  14   8   44.31   15.87
   0 -14   8   52.50   19.76
   0  14   8   36.28   15.77
   0  14  -9   50.05   18.91
   0  14   9   78.29   21.81
   0  14   9   73.40   22.51
   0  15   0    2.64    7.24
   0  15   0   31.34    7.34
   0 -15   0   12.53   10.38
   0  15   0    6.14    8.58
   0 -15  -1  626.21   56.04
   0  15   1  626.76   45.81
   0  15  -1  601.76   53.19
   0  15   1  681.20   54.34
   0 -15  -2 7138.43  372.36
   0 -15   2 5427.43  356.59
   0  15   2 7391.98  365.97
   0  15   2 6095.20  365.97
   0 -15   2 5250.88  350.70
   0  15   2 7391.73  359.94
   0  15  -2 7215.13  367.57
   0  15   3  117.82   17.86
   0  15  -3   73.05   16.27
   0  15   3  118.37   17.66
   0  15   3   85.23   17.62
   0 -15   3   78.39   14.97
   0 -15  -3  128.64   21.31
   0  15  -3   97.21   17.52
   0 -15   3   85.58   10.73
   0  15   4   29.14   11.53
   0  15   4   19.81    9.28
   0  15   4   18.36   11.28
   0  15  -4   33.18   10.68
   0  15   4   50.15   14.82
   0 -15  -4   43.81   14.52
   0  15  -4   11.83    8.13
   0 -15   4   58.03    8.58
   0  15  -4   22.41   11.98
   0  15   5 1474.42   90.32
   0  15   5 1135.05   94.81
   0  15   5 1108.50   94.06
   0  15   5 1596.73  101.85
   0  15  -5 1176.61   97.51
   0 -15  -5 1302.46   97.26
   0  15  -5 1101.71   95.01
   0  15  -5 1425.92   92.42
   0  15   6 2318.30  172.51
   0  15   6 3315.57  186.28
   0 -15  -6 2478.83  173.80
   0  15  -6 2162.01  172.66
   0  15  -6 2894.45  169.06
   0  15   6 2865.91  165.62
   0 -15   6 3531.89  196.11
   0  15  -6 2295.34  174.10
   0 -15  -7  417.37   48.00
   0  15   7  435.09   49.35
   0 -15  -7  457.34   53.34
   0  15   7  598.66   59.78
   0  15  -7  345.46   46.11
   0  15  -7  438.23   51.35
   0  15   7  458.89   40.82
   0  15  -7  522.21   44.91
   0 -15   7  613.63   61.53
   0  15   7  401.20   45.96
   0 -15  -8  287.68   39.07
   0  15  -8  347.16   35.18
   0  15   8  339.33   42.96
   0  15   8  228.95   35.33
   0  15   8  338.13   33.08
   0  15  -8  200.10   35.58
   0  15  -8  310.78   44.16
   0  15   8  315.47   42.72
   0 -15   8  443.37   51.85
   0  15   8  489.18   56.29
   0 -15  -8  358.89   48.15
   0  15  -9 1161.34  102.95
   0  15   9 1305.26  104.54
   0  16   0 5860.12  331.94
   0  16   0 5809.42  317.82
   0  16   0 4926.57  327.90
   0 -16   0 5793.65  336.78
   0  16  -1  137.78   21.41
   0  16   1  126.10   20.61
   0 -16  -1  125.85   22.21
   0  16  -1   73.80   16.62
   0  16   1  118.32   14.92
   0  16   2   38.72   10.23
   0  16  -2   46.81   13.62
   0  16   2   59.33   14.87
   0  16   2   63.32   14.77
   0 -16   2   60.98   12.77
   0 -16  -2   49.90   14.62
   0 -16  -3  535.24   50.55
   0  16   3  579.65   46.11
   0 -16   3  506.15   43.56
   0  16  -3  385.73   43.41
   0  16  -3  524.36   46.06
   0  16   3  511.09   43.01
   0  16   3  460.54   46.71
   0 -16   3  440.03   33.88
   0  16   3  497.66   49.40
   0  16   4 1125.02   89.37
   0  16  -4 1042.03   87.43
   0  16   4 1503.37   90.87
   0 -16  -4 1321.38   93.96
   0  16  -4 1220.43   93.26
   0 -16   4  991.13   71.96
   0  16   4 1411.85   86.03
   0  16  -4 1263.44   86.03
   0  16   4 1194.48   91.07
   0  16  -5  412.38   48.40
   0  16  -5  503.95   45.31
   0  16   5  401.00   46.66
   0  16   5  539.73   49.85
   0  16   5  442.27   47.71
   0 -16   5  632.89   63.12
   0  16  -5  357.64   44.91
   0  16   5  529.85   44.01
   0 -16  -5  503.15   50.50
   0 -16   6  603.30   63.17
   0  16   6  568.72   54.69
   0  16   6  418.17   49.50
   0  16   6  552.00   44.36
   0 -16  -6  454.70   49.90
   0  16  -6  390.03   47.85
   0  16  -6  398.61   48.70
   0  16  -6  510.69   45.86
   0  16   6  417.07   47.85
   0 -16  -7   73.75   20.01
   0  16  -7   86.83   22.66
   0  16   7   84.33   21.16
   0  16   7   87.48   23.75
   0 -16  -7   82.14   22.85
   0  16   7  153.05   20.46
   0 -16   7  139.37   30.24
   0  16   7  103.05   24.20
   0  16   7   83.88   20.21
   0  16  -7  103.44   18.81
   0  16  -7   92.37   22.66
   0  16   8   12.72   13.57
   0  16  -8   12.67   10.03
   0  16   8    9.33   10.43
   0  16   8   48.60   18.11
   0  16  -8   10.08   12.48
   0  16  -8   19.51   13.97
   0 -16  -8   -1.85   12.03
   0  16   8   17.96   18.06
   0 -16  -8   18.51   11.63
   0 -16   8   24.05   18.01
   0  16   8   17.66   10.48
   0  16   9   50.35   20.96
   0  16   9   43.51   16.57
   0 -17   0    4.84    7.98
   0  17   0   13.92    9.48
   0  17   0   12.67    6.39
   0  17  -1    5.29    7.24
   0  17  -1   13.67    8.53
   0  17   1   15.77    6.14
   0  17   1   24.95   10.83
   0 -17  -1   14.42    9.63
   0  17   2 2101.53  128.79
   0 -17   2 1771.33  120.71
   0 -17  -2 2103.92  136.18
   0  17  -2 2043.89  129.29
   0  17   2 2020.79  121.11
   0  17   3   45.76   13.92
   0  17   3   28.54    9.63
   0  17   3   31.54   11.53
   0  17   3   40.47   13.97
   0 -17  -3   27.79   12.13
   0 -17   3   27.50    6.19
   0  17  -3   73.55   15.67
   0  17  -3   24.30   10.48
   0 -17   3   34.98   10.58
   0 -17   4 1534.90  101.55
   0  17  -4 1443.78  117.47
   0  17   4 2045.94  119.96
   0 -17  -4 1970.74  127.30
   0  17   4 1633.36  121.31
   0  17  -4 1656.91  123.16
   0  17   4 1608.61  120.66
   0  17  -4 2000.98  119.41
   0  17   4 2011.31  116.92
   0  17   5  122.71   23.65
   0  17   5  142.77   21.31
   0  17   5  120.21   24.70
   0 -17  -5  229.74   31.79
   0 -17   5  205.84   36.58
   0  17  -5  132.19   24.75
   0  17   5  173.11   26.40
   0 -17   5  111.48   14.07
   0  17  -5  125.35   25.20
   0  17  -5  140.42   22.06
   0  17   6  654.05   51.65
   0  17   6  495.32   56.84
   0  17   6  737.79   63.52
   0  17   6  584.29   58.73
   0  17  -6  548.46   59.18
   0 -17   6  826.81   75.20
   0  17  -6  631.70   53.84
   0  17  -6  489.43   56.14
   0 -17  -6  595.52   61.48
   0 -17  -6  550.46   58.63
   0 -17   7  303.25   43.81
   0 -17  -7  217.42   36.08
   0  17  -7  171.91   31.69
   0  17   7  172.76   28.69
   0 -17  -7  195.66   33.28
   0  17   7  251.20   27.94
   0  17   7  169.76   30.49
   0  17   7  199.15   34.18
   0  17  -7  264.08   30.79
   0  17  -7  164.82   30.79
   0  17   7  256.04   37.53
   0  17   8  852.11   81.49
   0  17   8  783.89   74.65
   0  17  -8  787.69   77.95
   0  18   0 2323.19  139.07
   0  18   0 1801.62  137.23
   0 -18   0 2190.25  143.71
   0  18   0 1810.56  132.39
   0  18   1   30.59   12.38
   0  18  -1   21.46   10.28
   0  18  -1   15.57   10.13
   0 -18  -1   39.77   14.22
   0  18  -1   35.43   13.87
   0  18   1   20.81   10.13
   0  18   1   55.59   10.33
   0  18  -2   44.46   13.37
   0  18   2   30.54    9.23
   0  18   2   52.05   14.97
   0 -18  -2   40.92   15.02
   0  18   2   32.34   12.97
   0  18  -2   31.24   13.77
   0  18  -2   33.28   13.82
   0  18   2   25.40   11.43
   0 -18   2   36.13   10.83
   0  18   3  317.57   38.57
   0  18   3  352.00   35.68
   0  18  -3  224.40   32.04
   0 -18  -3  311.33   39.22
   0  18   3  315.97   31.69
   0 -18   3  278.80   31.54
   0  18  -3  276.50   33.08
   0  18   3  314.43   37.18
   0  18   4 3213.52  188.92
   0  18   4 2810.97  194.36
   0  18  -4 2397.49  187.88
   0  18  -4 3168.01  189.52
   0 -18  -4 3369.76  200.90
   0  18   4 2690.86  192.37
   0  18   4 3526.05  189.72
   0  18  -4 2908.98  196.26
   0  18   5  182.74   26.35
   0  18   5  106.94   23.25
   0 -18  -5  154.24   27.30
   0  18   5  163.18   22.75
   0  18   5  130.24   25.00
   0 -18  -5  154.49   27.84
   0  18  -5  107.09   24.65
   0  18  -5  136.68   22.26
   0  18  -5   96.51   21.76
   0  18  -6   44.71   13.92
   0  18  -6   23.95   14.77
   0 -18  -6   27.74   14.42
   0  18   6   40.22   15.62
   0 -18  -6   38.82   17.07
   0  18  -6   20.21   11.98
   0 -18   6   48.70    9.58
   0  18   6   49.10   13.67
   0  18   6   23.50   15.32
   0  18  -7 2028.67  160.83
   0  18   7 2972.70  173.26
   0 -18  -7 2643.10  173.80
   0  18   7 2183.22  161.23
   0  18  -7 2043.29  160.78
   0 -18  -7 2304.33  163.82
   0  18   7 2241.00  165.02
   0  18   7 2718.85  152.35
   0  18  -7 2658.32  155.94
   0  18   7 1837.25  152.65
   0  18   8 2089.35  154.34
   0  18   8 2510.02  167.92
   0  19   0    8.53    9.28
   0  19   0    6.59   11.48
   0  19   0    8.88    9.48
   0  19  -1   34.58   14.37
   0  19   1   35.63    9.18
   0  19  -1   14.92    8.63
   0  19   1   22.06   12.38
   0  19   1   26.85   12.72
   0 -19  -1   31.54   14.62
   0  19  -1   55.89   15.77
   0  19   2  749.86   71.21
   0  19  -2  877.46   78.54
   0  19  -2 1002.81   78.99
   0 -19   2  851.61   66.52
   0  19  -2  903.26   72.91
   0  19   2  856.55   77.10
   0  19   2 1020.27   75.20
   0  19   2  964.83   66.22
   0 -19  -2 1076.71   83.73
   0  19  -3    7.09    9.93
   0  19   3   16.42   10.78
   0 -19   3    1.75    5.74
   0  19  -3    1.15    7.54
   0  19  -3    2.05    7.19
   0  19   3    9.28    6.99
   0  19   3    5.34    8.53
   0 -19  -3   15.27   12.28
   0  19   3   11.03    8.83
   0 -19  -4  831.90   71.66
   0 -19  -4  781.60   71.91
   0  19  -4  738.63   70.16
   0  19   4  853.26   64.42
   0  19   4  945.67   66.37
   0  19   4  737.54   69.36
   0  19  -4  605.75   63.77
   0  19  -4  757.65   71.91
   0  19  -4  742.33   63.77
   0  19   4  720.22   68.11
   0  19   5  125.00   22.16
   0  19  -5   88.42   20.81
   0 -19  -5   94.71   23.10
   0  19   5  102.85   18.96
   0 -19  -5   78.99   20.66
   0  19   5  111.53   22.95
   0  19   5   89.07   22.26
   0  19  -5   87.73   18.71
   0  19  -5   84.68   22.66
   0  19  -5  107.94   24.65
   0  19   6  484.54   53.99
   0  19  -6  429.75   53.04
   0  19  -6  407.44   51.65
   0 -19  -6  530.95   57.74
   0  19  -6  526.85   49.00
   0  19   6  578.70   55.14
   0  19   6  580.10   48.15
   0  19   6  449.36   53.59
   0 -19  -6  488.48   55.69
   0 -19  -7  113.37   26.90
   0  19   7  122.26   27.94
   0 -19  -7  153.84   31.89
   0  19   7  131.94   27.94
   0  19  -7  113.52   26.10
   0  19   7  145.31   22.70
   0  19   7  175.50   31.19
   0  19  -7   82.04   22.90
   0  19  -7  118.22   22.21
   0  19   8   39.22   15.97
   0  19   8   46.11   19.91
   0  20   0 3775.21  214.42
   0  20   0 2996.35  212.73
   0  20   0 3008.28  207.14
   0 -20   0 3691.82  222.06
   0  20   1  203.80   31.64
   0  20  -1  191.22   30.99
   0  20  -1  195.16   29.64
   0 -20  -1  210.28   33.33
   0  20   1  178.94   20.71
   0  20  -1  169.01   26.70
   0  20   1  213.38   29.99
   0  20   2   11.13   10.13
   0 -20   2   22.75    9.23
   0  20  -2   31.29   13.17
   0  20   2   38.02   13.47
   0  20   2   18.81   11.23
   0 -20  -2   26.55   13.32
   0  20   2   24.55    9.33
   0  20  -2   18.31   10.13
   0  20  -2   28.99   14.02
   0  20  -3  831.70   67.62
   0 -20   3  760.69   62.68
   0  20   3  693.57   67.27
   0  20  -3  583.99   63.22
   0  20   3  959.20   69.91
   0 -20  -3  813.58   71.71
   0  20   3  848.27   62.38
   0 -20  -3  952.06   78.39
   0  20  -3  777.81   73.30
   0  20   3  832.30   73.80
   0  20  -4  817.23   76.45
   0 -20  -4  930.10   78.49
   0  20   4  911.59   69.21
   0  20   4 1026.96   72.56
   0 -20  -4  958.75   81.49
   0  20  -4  912.24   71.76
   0  20   4  833.05   76.75
   0  20  -4  639.78   68.56
   0  20   4  830.50   75.05
   0  20  -4  803.36   77.15
   0 -20  -5   10.88   12.13
   0  20   5   10.28   11.78
   0 -20  -5   15.07   11.48
   0  20  -5    9.48   10.33
   0  20  -5   15.57   12.97
   0  20   5    5.49    9.13
   0  20   5   18.86   11.28
   0  20  -5   18.21   11.18
   0  20  -5   41.92   18.01
   0  20   5    4.39    8.98
   0  20   6  444.92   46.46
   0  20  -6  361.38   39.42
   0  20  -6  286.78   43.21
   0 -20  -6  323.91   44.66
   0 -20  -6  398.21   48.50
   0  20   6  382.04   38.12
   0  20   6  294.71   41.32
   0  20  -6  330.29   44.71
   0  20  -6  235.23   38.37
   0  20   6  304.89   43.21
   0  20   7  150.70   32.78
   0  20   7  235.43   37.33
   0  20   7  249.90   29.79
   0 -20  -7  212.38   36.48
   0  20  -7  243.92   31.99
   0  20   8    5.69   10.58
   0  21   0   21.01   12.92
   0  21   0   33.53   15.12
   0  21   0   11.03   13.07
   0  21  -1  481.34   50.30
   0  21   1  467.42   52.45
   0  21  -1  428.55   46.81
   0  21   1  563.48   51.95
   0 -21  -1  441.47   49.70
   0  21  -1  399.06   49.95
   0  21   1  490.63   39.17
   0 -21  -1  479.40   54.64
   0 -21  -2  118.91   23.25
   0  21  -2  109.48   24.70
   0  21   2   77.90   19.51
   0  21  -2  117.02   24.15
   0  21  -2   86.43   19.66
   0  21   2  112.08   21.91
   0  21   2  120.51   24.80
   0  21   2  104.74   16.77
   0 -21  -2  150.80   28.74
   0  21  -3   38.17   14.37
   0  21   3   55.34   16.27
   0  21  -3   45.76   15.27
   0  21   3   68.01   14.52
   0 -21  -3   66.47   20.01
   0  21  -3   71.76   20.26
   0  21   3   71.51   20.66
   0  21   3   39.42   14.97
   0 -21   3   67.97   15.77
   0 -21  -3   67.37   18.06
   0  21   4  317.62   42.12
   0  21  -4  223.31   36.03
   0  21   4  401.15   40.62
   0  21   4  371.76   38.02
   0 -21  -4  381.74   47.95
   0  21  -4  359.79   39.72
   0 -21  -4  414.93   47.46
   0  21  -4  337.33   44.51
   0  21   4  375.85   46.36
   0  21  -4  332.24   44.66
   0  21   5   94.56   19.96
   0 -21  -5   89.27   23.25
   0  21   5   84.43   22.51
   0  21  -5   91.82   23.90
   0  21   5  101.95   23.90
   0 -21  -5   90.97   24.35
   0  21  -5   69.01   20.11
   0  21  -5   84.63   22.90
   0  21  -5   92.17   19.36
   0  21   5   83.53   19.66
   0  21   6   17.42   12.43
   0  21  -6   12.38   12.48
   0  21  -6   66.47   16.57
   0  21  -6   32.69   15.27
   0  21   6   25.60   14.02
   0  21   6   36.88   13.77
   0  21  -6   26.80   15.17
   0  21   6   36.08   18.96
   0 -21  -6   28.79   15.62
   0 -21  -6   17.02   14.22
   0  21   7   54.84   19.81
   0  21  -7   34.43   13.57
   0  21   7   35.23   17.86
   0  22   0 2078.17  135.78
   0  22   0 1816.09  136.58
   0  22   0 1733.76  129.44
   0  22   1  547.41   42.17
   0 -22  -1  579.10   61.33
   0 -22   1  420.81   42.17
   0 -22  -1  537.03   55.24
   0  22  -1  472.51   50.10
   0  22   1  631.80   56.39
   0  22  -1  482.54   55.64
   0  22   1  498.46   55.79
   0  22  -1  537.48   54.94
   0  22  -2   42.37   16.17
   0 -22   2   21.01    9.68
   0  22   2   21.51    9.53
   0  22   2   40.82   15.57
   0  22   2   25.30   13.52
   0  22  -2   20.76   15.22
   0  22  -2   17.47   11.63
   0 -22  -2   36.83   14.72
   0  22   2   27.79   13.22
   0 -22  -2   31.64   17.27
   0  22  -3  998.47   79.29
   0  22   3  960.69   85.73
   0 -22  -3 1199.07   94.51
   0 -22   3  915.83   73.40
   0  22   3 1229.56   83.88
   0  22   3 1053.46   73.20
   0  22  -3  988.44   87.78
   0 -22  -3 1133.65   88.03
   0  22  -3  688.53   73.65
   0  22   3  774.91   77.15
   0  22   4  511.24   46.36
   0  22  -4  457.24   54.89
   0  22  -4  344.07   45.86
   0 -22  -4  500.36   54.84
   0  22   4  396.51   51.05
   0  22  -4  498.46   49.10
   0 -22  -4  584.49   60.98
   0  22   4  565.58   50.90
   0  22   4  433.29   51.05
   0 -22  -5  115.52   26.00
   0  22  -5  102.80   25.20
   0 -22  -5   98.11   25.05
   0  22   5   92.62   20.61
   0  22  -5  100.70   21.21
   0  22   5   83.33   23.20
   0  22  -5  103.34   25.50
   0  22  -5   56.14   18.61
   0  22   5   61.03   20.31
   0  22   5  135.28   22.70
   0 -22  -6   55.49   20.31
   0  22  -6   64.47   17.96
   0  22   6   69.41   22.41
   0  22   6   76.55   18.31
   0  23   0   28.24   14.32
   0  23   0   30.39   14.52
   0  23   0   17.57   14.42
   0 -23  -1   88.22   25.15
   0  23  -1   75.40   19.66
   0  23   1   94.86   25.00
   0  23  -1   84.18   23.20
   0 -23  -1   84.53   21.01
   0 -23   1   66.67   14.82
   0  23   1   95.06   15.22
   0  23   1   96.61   22.85
   0  23  -1   61.73   17.96
   0 -23   2  609.19   54.79
   0  23  -2  666.58   69.01
   0 -23  -2  789.48   70.51
   0  23  -2  624.26   61.18
   0  23  -2  795.47   70.31
   0  23   2  786.59   66.07
   0  23   2  552.65   60.53
   0  23   2  664.23   68.46
   0  23   2  696.67   53.54
   0 -23  -2  750.21   73.75
   0 -23   3  540.13   50.90
   0  23  -3  556.05   62.28
   0  23   3  597.26   63.42
   0  23  -3  419.67   51.80
   0  23   3  520.82   56.84
   0  23   3  600.56   49.95
   0 -23  -3  672.42   64.27
   0  23  -3  564.98   55.99
   0 -23  -3  624.36   66.92
   0  23  -4  433.69   54.39
   0  23   4  688.38   56.44
   0  23   4  576.56   61.68
   0  23  -4  638.58   59.08
   0  23   4  601.86   64.97
   0  23   4  729.15   60.73
   0 -23  -4  633.04   64.77
   0 -23  -4  715.88   72.16
   0  23  -4  610.94   66.22
   0 -23  -5  234.83   39.02
   0  23  -5  226.30   31.84
   0  23   5  209.88   30.19
   0  23   5  272.16   32.88
   0  23   5  169.86   32.54
   0  23   5  178.25   33.53
   0  23  -5  159.58   32.64
   0  23  -5  188.43   34.53
   0  23  -5  174.45   32.34
   0  23  -6  441.02   47.26
   0  23   6  458.89   49.40
   0 -23  -6  373.91   52.89
   0  24   0 3038.42  210.83
   0  24   0 2874.84  201.15
   0  24   0 3574.15  210.63
   0  24  -1  130.99   26.45
   0  24   1  143.66   26.75
   0  24  -1   74.95   19.81
   0  24   1  126.40   26.95
   0  24  -1  120.61   27.05
   0 -24  -1  141.77   27.30
   0 -24   1   97.76   17.81
   0  24   2   21.96   12.82
   0  24  -2   25.95   13.52
   0  24  -2   10.38   12.53
   0  24  -2   16.27   11.33
   0 -24   2    7.19    7.39
   0 -24  -2   16.87   14.97
   0  24   2   41.22   11.23
   0  24   2   22.01   13.87
   0 -24  -2   15.77   12.33
   0  24   2   37.33   16.57
   0  24  -3  141.12   27.10
   0  24  -3  184.28   29.64
   0  24   3  223.46   32.54
   0  24   3  177.00   24.35
   0 -24   3  180.89   26.65
   0  24   3  169.36   30.19
   0 -24  -3  244.17   40.42
   0  24   3  163.77   32.49
   0  24  -3  204.44   35.53
   0  24  -3  199.00   34.38
   0 -24  -3  192.42   33.18
   0  24  -4  800.06   81.04
   0  24  -4  655.55   71.41
   0 -24  -4  954.26   83.23
   0  24   4  818.03   77.20
   0  24  -4  798.32   72.16
   0  24   4  950.26   70.66
   0 -24  -4 1017.98   90.62
   0  24   4  776.86   79.79
   0  24   4 1044.98   77.70
   0 -24  -5  446.21   57.64
   0  24  -5  386.08   45.36
   0  24   5  443.07   46.01
   0  24   5  477.40   48.15
   0  24   6  321.51   40.27
   0  24  -6  317.32   40.07
   0  25   0    5.84   13.87
   0  25   0    6.99   12.23
   0  25   0    4.09   10.03
   0  25  -1    7.14   13.27
   0 -25   1   12.77    8.23
   0  25  -1   10.48    9.73
   0  25  -1   18.16   13.67
   0 -25  -1   29.64   15.47
   0  25   1   13.92   14.02
   0  25   1    8.83   11.68
   0 -25   2   49.75   13.62
   0 -25  -2   54.09   19.61
   0  25   2   69.76   14.32
   0  25   2   68.71   19.71
   0  25  -2   42.86   15.82
   0  25   2   68.86   21.71
   0 -25  -2   39.67   19.96
   0  25  -2   78.00   22.90
   0  25  -3  574.36   62.38
   0  25  -3  425.90   53.39
   0 -25  -3  531.54   58.03
   0  25   3  503.40   44.16
   0  25   3  390.33   49.15
   0 -25  -3  533.64   63.32
   0  25  -3  466.37   50.15
   0  25   3  460.09   56.59
   0  25   3  607.69   56.24
   0  25  -3  297.06   43.76
   0  25  -4   17.91   11.98
   0  25   4   20.06   13.37
   0  25  -4   25.15   14.27
   0  25   4   15.47   10.43
   0 -25  -4   16.22   15.47
   0  25   5   19.01   12.53
   0  25  -5   33.43   14.37
   0  25   5   21.76   12.87
   0 -25  -5   12.38   14.07
   0  26   0   10.93   13.82
   0  26   0    6.99    9.23
   0  26   0   10.63   14.37
   0  26   1   30.19   15.02
   0  26  -1   44.66   15.72
   0 -26  -1   39.12   15.82
   0  26   1   46.31   17.52
   0  26  -1   33.33   17.12
   0  26  -1   39.52   17.57
   0  26   2   54.99   20.86
   0  26  -2   37.92   18.61
   0  26  -2   23.10   16.02
   0  26  -2   29.54   14.77
   0  26   2   56.94   22.16
   0  26  -3   55.54   17.27
   0 -26  -3   65.32   23.90
   0  26   3   79.84   22.36
   0  26  -3   28.59   13.57
   0 -26  -4  136.38   33.33
   0  26  -4  130.89   25.55
   0  26   4  111.18   25.80
   0  26   5   11.38   12.18
   0 -26  -5    6.49   13.22
   0  27   0    4.69   11.93
   0  27   1  251.10   37.78
   0  27   2 2788.56  188.18
   0  27   3  252.60   37.68
   0 -27  -3  240.27   44.41
   0 -27  -4 1717.14  143.27
   0  27   4 1730.36  126.45
   1   0 -11   30.39   13.02
   1   0 -10   54.14   17.66
  -1   0  10   38.27   19.51
   1   0 -10   35.23   12.87
  -1   0   9   34.53   16.57
  -1   0   9   14.12    5.89
   1   0  -9   14.42    8.63
   1   0  -9   18.36   10.98
   1   0  -8  217.42   28.89
  -1   0   8  249.95   23.90
  -1   0   7   33.08   13.57
  -1   0   7   26.80    6.59
   1   0  -7   34.88   11.38
   1   0  -7   19.11    8.13
   1   0  -7   32.64   11.08
  -1   0   6  172.21   16.97
   1   0  -6  208.29   25.20
   1   0  -6  205.64   23.35
   1   0  -6  223.86   25.60
  -1   0   5    8.53    3.09
   1   0  -5    3.44    4.04
  -1   0   5    0.85    5.14
   1   0  -5   15.52    6.19
   1   0  -5    9.63    5.34
  -1   0   4   11.33    2.89
  -1   0   4    9.38    5.99
   1   0  -4   14.77    5.64
   1   0  -4   13.47    5.54
   1   0  -3  222.36   19.91
  -1   0   3  228.05   15.27
  -1   0   3  268.77   23.40
   1   0  -3  239.87   20.51
   1   0  -2  235.78   12.43
  -1   0   2  255.59   14.72
  -1   0   1    0.20    0.30
  -1   0  -1    0.25    1.20
   1   0   2 1833.61  113.18
  -1   0  -2 2032.17  115.72
  -1   0  -3   35.18    8.08
   1   0   3   30.44    6.59
  -1   0  -4   25.75    8.58
   1   0   4   37.82    7.93
  -1   0  -4   30.94    6.44
  -1   0  -5 1962.70  127.90
   1   0   5 2222.44  131.74
  -1   0  -5 2342.40  140.42
   1   0   6 1152.71   78.24
  -1   0  -6 1318.28   89.12
  -1   0  -6 1043.83   75.40
  -1   0  -7   50.00   11.38
  -1   0  -7   77.05   17.76
   1   0   7   58.23   16.07
  -1   0  -8  301.30   32.83
  -1   0  -8  342.37   42.67
  -1   0  -8  347.56   43.06
   1   0   8  425.90   46.41
  -1   0  -9 1000.56   82.24
   1   0   9  767.88   63.42
  -1   0  -9 1034.85   83.93
   1   0   9 1035.74   83.09
  -1   0  -9  675.36   62.53
   1   1 -11  197.96   31.14
   1  -1 -11  199.55   31.24
   1  -1 -10  265.77   38.17
  -1  -1  10  352.45   47.90
   1   1 -10  196.81   30.04
  -1   1  10  325.05   45.41
   1   1 -10  284.24   38.77
   1  -1 -10  191.17   29.69
  -1  -1   9   16.87   14.07
   1  -1  -9    2.64    7.78
   1   1  -9    4.19    6.44
   1   1  -9    3.94    8.63
   1  -1  -9    3.04    6.44
  -1   1   9    1.60   11.93
  -1  -1   9   11.68    5.59
  -1   1   9    2.59    3.34
   1   1  -8  504.65   50.95
  -1  -1   8  607.59   45.76
   1  -1  -8  568.37   52.55
   1   1  -8  710.99   60.58
   1  -1  -8  722.82   61.08
  -1  -1   8  893.63   72.76
  -1   1   8  797.02   68.36
   1   1  -8  723.66   60.23
  -1   1   8  593.22   45.26
   1  -1  -7   34.53   10.78
  -1   1   7   46.36    8.43
   1  -1  -7   67.62   15.27
   1   1  -7   63.37   13.17
  -1  -1   7   51.15    8.93
   1   1  -7   49.10   13.27
   1   1  -7   55.39   14.12
   1   1  -6  125.05   16.72
   1  -1  -6  161.58   20.31
   1  -1  -6  127.25   16.82
   1  -1  -6  163.33   20.11
  -1  -1   6  162.43   13.27
   1   1  -6  158.83   20.46
  -1   1   6  120.16   11.53
   1   1  -6  152.35   19.96
   1  -1  -5  228.80   24.30
   1   1  -5  274.46   27.55
   1   1  -5  245.01   26.20
  -1  -1   5  250.75   19.71
  -1   1   5  331.09   32.14
   1  -1  -5  270.61   26.75
   1  -1  -5  270.46   27.45
  -1  -1   5  283.79   31.14
   1   1  -5  205.19   23.60
  -1   1   5  236.88   19.61
   1  -1  -4   24.90    6.84
   1   1  -4    3.54    4.29
   1   1  -4    3.34    3.39
  -1   1   4   48.70   10.38
   1  -1  -4    7.88    4.64
  -1  -1   4   22.95    7.88
  -1  -1   4   27.00    4.04
  -1   1   4   23.45    4.09
   1  -1  -4    5.09    3.64
   1  -1  -3 1276.22   78.89
   1  -1  -3 1179.56   77.45
   1   1  -3 1203.11   78.05
  -1   1   3 1367.44   81.14
  -1  -1   3 1311.30   81.84
   1  -1  -3 1295.03   78.19
  -1   1   2 2042.50   59.63
  -1  -1   2 1808.41   65.57
   1  -1  -2 1842.64   62.18
  -1   1   2 2036.66   64.37
   1  -1  -2 1896.58   61.03
   1   1  -2 1705.21   62.13
  -1   1   1  368.32   10.43
   1   1  -1  377.95   12.48
   1  -1  -1  378.30   11.63
   1  -1  -1  373.26   10.18
   1  -1   0   65.42    4.59
  -1  -1   0   48.05    4.39
   1  -1   0   57.84    4.44
  -1   1   0   68.86    5.24
   1   1   0   59.43    4.64
   1   1   0   62.53    4.09
   1   1   1  205.59   11.38
   1  -1   1  249.11   13.57
  -1  -1  -1  211.38   14.12
  -1   1  -1    0.30    1.10
  -1  -1  -1   -0.25    1.00
  -1   1  -1  204.14   10.53
   1   1   2 1109.70   70.41
   1  -1   2 1040.04   70.11
  -1  -1  -2 1121.52   65.92
  -1   1  -2 1217.98   71.16
  -1  -1  -2 1266.84   73.35
  -1  -1  -3  168.17   14.82
   1   1   3  159.13   17.22
   1  -1   3  173.85   17.86
  -1   1  -3  194.61   18.31
  -1  -1  -3  182.29   20.21
  -1  -1  -4  172.96   21.21
   1  -1   4  158.68   17.71
  -1  -1  -4  136.88   14.72
  -1   1  -4  142.97   19.61
   1   1   4  139.22   16.87
   1   1   5   67.17   12.43
   1  -1   5   80.89   13.07
  -1  -1  -5  116.72   13.77
  -1   1  -5   73.85   15.52
  -1  -1  -5  108.98   18.51
  -1  -1  -6   79.64   17.27
   1  -1   6   66.37   12.77
  -1   1  -6   50.60   11.08
   1   1   6   94.16   14.57
  -1  -1  -6   72.51   12.58
   1   1   6   91.82   17.86
  -1   1  -6   86.18   17.47
  -1   1  -7   12.03    6.34
  -1  -1  -7   12.97    6.39
  -1   1  -7   10.78    7.88
  -1  -1  -7   10.98    9.03
   1   1   7    3.49    8.18
   1   1   7    0.70    2.74
   1  -1   7   12.28    6.14
  -1   1  -7    4.89    7.49
  -1   1  -8  260.68   34.98
   1   1   8  201.85   31.14
   1  -1   8  217.67   33.03
  -1   1  -8  232.54   33.63
  -1  -1  -8  215.47   32.78
  -1   1  -8  154.19   22.46
  -1  -1  -8  176.60   23.55
   1  -1   9  501.65   53.49
   1   1   9  371.91   36.93
  -1   1  -9  463.38   51.35
  -1  -1  -9  481.79   52.65
   1  -1   9  288.08   33.93
  -1   1  -9  316.32   36.43
  -1   1  -9  486.23   52.55
  -1  -1  -9  338.13   36.78
   1  -2 -11   52.75   16.72
   1   2 -11   84.23   19.56
  -1   2  10   84.58   24.70
   1   2 -10   61.73   18.91
   1  -2 -10   89.02   22.56
   1  -2 -10   60.03   16.82
   1   2 -10   92.82   21.71
   1   2 -10   59.48   16.57
   1   2  -9   56.99   15.17
  -1   2   9   75.10   12.23
   1   2  -9   66.82   17.91
   1  -2  -9   82.14   19.76
  -1  -2   9   78.59   23.55
  -1   2   9   80.99   23.05
   1  -2  -9   48.85   14.02
  -1  -2   9   74.10   12.33
  -1  -2   8  494.42   38.47
  -1   2   8  673.66   59.88
  -1  -2   8  718.47   64.17
   1   2  -8  651.16   53.89
   1  -2  -8  551.65   51.85
   1   2  -8  374.16   42.12
  -1   2   8  427.20   36.63
   1   2  -8  522.61   50.30
   1  -2  -8  412.38   42.82
   1  -2  -7   51.70   11.73
  -1  -2   7   14.27    5.24
   1  -2  -7   31.89   11.03
  -1   2   7   21.26    5.89
   1   2  -7   20.66    8.53
   1   2  -7   27.94   10.43
   1   2  -7   22.61    9.93
  -1  -2   7   14.82   11.53
   1  -2  -6   44.61   11.48
   1   2  -6   45.96   12.08
  -1   2   6   42.17    7.39
  -1  -2   6   45.61    7.54
   1  -2  -6   35.78    9.73
   1   2  -6   30.64    9.18
  -1   2   5   29.14    9.63
   1  -2  -5   33.73    9.03
   1  -2  -5   35.38    8.48
   1   2  -5   34.78    9.23
  -1   2   5   46.81    6.89
  -1  -2   5    4.64    5.19
  -1  -2   5   30.74    5.49
   1  -2  -4  789.13   55.99
   1  -2  -4  857.05   58.63
  -1   2   4  886.24   60.68
  -1  -2   4  748.46   49.90
  -1  -2   4  976.71   64.37
   1  -2  -4  924.76   58.23
   1   2  -4  795.72   57.49
   1  -2  -3  354.90   26.20
   1   2  -3  314.87   26.50
  -1   2   3  333.84   25.45
  -1   2   3  317.97   26.75
  -1  -2   3  315.12   21.41
   1  -2  -3  363.23   27.10
  -1   2   3  337.03   27.70
  -1  -2   3  387.28   30.34
   1   2  -3  318.92   20.06
   1  -2  -3  286.83   25.05
   1  -2  -2 1610.10   84.78
   1   2  -2 1384.15   84.63
  -1   2   2 1613.75   85.03
  -1  -2   2 1512.25   86.18
  -1   2   2 1742.19   85.23
  -1   2   2 1718.89   85.13
  -1  -2   1   -0.25    0.70
   1  -2  -1   22.41    3.64
  -1   2   1   -0.20    0.75
   1   2  -1   29.94    3.19
   1  -2  -1   30.84    3.59
  -1   2   1   24.50    3.34
   1   2   0   45.86    3.74
  -1   2   0   15.87    3.29
  -1  -2   0    0.15    0.50
   1  -2   0   24.00    2.94
   1   2   0   15.37    2.69
  -1  -2   0   29.04    3.29
  -1   2   0    0.15    0.70
   1   2   1   76.70    7.29
  -1   2  -1    0.65    1.65
   1  -2   1   70.66    7.63
  -1   2  -1   80.54    7.83
  -1  -2  -1    1.30    1.95
   1  -2   1   92.42    7.44
   1  -2   1   85.38    8.48
  -1   2  -2 3622.56  204.09
  -1  -2  -2 3741.27  206.64
  -1   2  -2 3421.21  208.19
  -1  -2  -2 3755.20  199.25
   1  -2   2 3112.87  203.15
   1   2   2 3660.33  204.74
  -1  -2  -3   74.10   12.38
  -1  -2  -3   74.50    8.83
   1  -2   3  103.49   12.67
   1   2   3   74.85   11.03
  -1   2  -3   93.46   11.73
  -1  -2  -4  238.38   16.17
  -1  -2  -4  268.27   24.55
   1   2   4  251.75   20.26
   1  -2   4  266.02   20.61
   1   2   5 1849.03  119.31
  -1  -2  -5 2005.37  128.40
   1  -2   5 1978.17  120.51
  -1   2  -5 2097.29  128.40
  -1  -2  -5 1812.95  116.37
   1  -2   6 1914.95  123.26
  -1   2  -6 2055.77  133.14
  -1  -2  -6 2127.08  135.03
  -1  -2  -6 1701.77  119.76
   1   2   6 1819.49  122.36
  -1   2  -6 2230.12  135.98
   1   2   6 2270.49  134.68
  -1   2  -7   91.57   20.11
  -1  -2  -7   41.37   10.13
   1   2   7   70.51   17.37
   1  -2   7   43.11   11.03
   1  -2   7   71.06   18.71
  -1   2  -7   55.64   12.23
  -1  -2  -7   42.47   14.37
  -1   2  -7   62.43   15.82
  -1   2  -8   67.77   18.61
   1   2   8   75.25   20.21
   1  -2   8   73.50   20.06
  -1  -2  -8   53.14   16.87
  -1   2  -8   38.37   11.53
  -1  -2  -8   56.04   12.92
  -1   2  -8   78.29   19.36
   1   2   9 1621.98   91.67
  -1   2  -9 1497.18   92.77
   1  -2   9 2334.37  123.90
  -1  -2  -9 2084.41  120.61
  -1   2  -9 2198.78  120.31
  -1   2  -9 2113.30  120.01
  -1  -2  -9 1556.21   92.42
   1   2   9 2181.97  119.01
  -1  -3  11  486.93   69.01
   1   3 -11  208.49   32.98
   1  -3 -10  632.59   63.82
  -1   3  10 1012.64   97.21
  -1   3  10  685.44   68.51
   1   3 -10  623.11   59.13
   1  -3 -10  425.61   50.70
   1   3 -10  674.56   64.57
  -1  -3  10  859.29   79.09
   1   3 -10  486.28   53.64
   1   3  -9  283.04   35.88
   1  -3  -9  257.04   33.43
   1   3  -9  272.91   37.63
   1   3  -9  357.44   41.67
  -1  -3   9  335.08   29.54
  -1  -3   9  436.53   52.00
   1  -3  -9  389.73   43.96
  -1   3   9  261.13   26.95
  -1   3   9  422.41   48.60
  -1  -3   8  309.19   27.65
  -1   3   8  394.97   44.21
  -1  -3   8  410.14   48.00
   1   3  -8  342.07   38.12
  -1   3   8  259.53   25.65
   1   3  -8  281.39   35.58
   1  -3  -8  239.47   30.54
   1   3  -8  228.90   30.59
   1  -3  -8  336.28   38.72
  -1  -3   7   10.98    5.14
   1  -3  -7   27.30    9.48
   1   3  -7    3.39    5.39
   1   3  -7   13.87    8.58
   1  -3  -7    7.19    6.29
   1   3  -7   26.85   11.13
  -1   3   7    5.54    4.04
  -1  -3   7   21.91   12.97
   1  -3  -6  351.05   30.49
  -1   3   6  307.94   19.51
   1   3  -6  375.70   31.14
   1  -3  -6  291.52   25.05
  -1  -3   6  300.45   20.06
   1  -3  -5   15.57    6.29
   1   3  -5    6.24    5.79
   1  -3  -5   16.47    6.44
  -1  -3   5    0.95    3.64
  -1   3   5   11.03    6.74
  -1  -3   5   15.07    4.44
   1   3  -4   99.05    8.88
  -1   3   4  110.83   13.17
   1  -3  -4   84.23   12.48
  -1  -3   4   87.83   10.13
   1  -3  -4   99.30   14.27
   1   3  -4   84.43   13.52
  -1   3   4   90.67   14.37
  -1   3   3   13.77    4.89
   1  -3  -3   16.77    4.84
   1  -3  -3   19.36    5.24
  -1   3   3   14.17    4.84
  -1   3   3   10.68    3.79
  -1  -3   3   19.11    4.09
   1   3  -3   11.93    4.64
   1   3  -3   23.40    3.24
  -1   3   2  976.36   63.17
  -1   3   2  905.20   63.57
   1  -3  -2 1042.23   63.27
  -1  -3   2 1025.36   63.17
   1  -3  -2  993.78   63.42
   1   3  -2 1121.67   60.03
  -1   3   2 1042.33   62.03
   1   3  -1  416.02   16.72
   1  -3  -1  430.35   17.91
   1  -3  -1  416.92   14.92
  -1   3   1  400.46   15.32
  -1   3   0    0.85    0.95
  -1  -3   0   -0.20    0.70
  -1   3   0    5.74    2.89
   1   3   0    6.84    2.25
   1  -3   1  914.58   61.88
  -1  -3  -1 1058.55   58.43
  -1   3  -1  909.20   62.83
   1   3   1  972.42   61.33
  -1   3  -1  988.14   62.88
   1   3   1 1072.07   57.29
   1  -3   1 1114.09   61.98
   1  -3   1 1082.95   62.78
  -1  -3  -1  792.33   60.98
  -1   3  -2  984.30   60.58
   1  -3   2  856.30   61.18
   1   3   2  992.28   54.49
   1  -3   2  840.28   59.68
  -1  -3  -2  971.47   62.63
  -1   3  -2  961.24   64.17
   1   3   2  918.43   60.13
  -1   3  -2  856.15   60.68
  -1  -3  -2  956.75   55.89
   1  -3   2  953.36   62.63
   1  -3   3  148.06   16.62
  -1  -3  -3  148.60   18.71
  -1   3  -3  149.40   19.16
  -1   3  -3  138.82   19.21
  -1  -3  -3  153.60   13.92
  -1   3  -3  162.38   16.67
   1   3   3  149.65   17.22
  -1   3  -4   11.38    5.29
  -1   3  -4    0.80    1.90
   1   3   4   27.30    6.94
   1   3   4   -0.70    1.65
  -1  -3  -4   13.12    6.29
   1  -3   4    9.13    4.74
  -1  -3  -4   25.10    5.64
  -1  -3  -5  530.00   38.97
   1   3   5  410.73   27.74
  -1  -3  -5  421.71   25.05
  -1   3  -5  586.79   31.84
   1  -3   5  464.28   29.59
   1   3   6   28.69   11.28
   1  -3   6    4.84    4.89
  -1  -3  -6    8.88    7.54
  -1  -3  -6   17.86    6.74
  -1   3  -6   22.56   10.83
  -1   3  -6    4.19    6.19
   1   3   6   -1.35    4.99
   1   3   7   76.00   17.76
  -1   3  -7   87.88   19.26
  -1  -3  -7   65.47   17.62
   1  -3   7   29.94    9.78
  -1   3  -7   80.44   18.31
   1  -3   7   80.44   18.81
  -1   3  -7   47.06   11.98
  -1  -3  -7   60.03   12.33
   1  -3   8   67.37   19.56
  -1   3  -8   65.87   17.91
  -1   3  -8   41.12   12.28
  -1   3  -8   69.81   19.16
  -1  -3  -8   90.87   21.66
  -1  -3  -8   41.32   12.23
   1   3   8   58.78   17.47
  -1  -3  -9    7.29    7.44
   1  -3   9    0.85    3.89
   1   3   9    1.45   10.88
  -1   3  -9    9.78    8.48
   1   3   9    2.54    6.74
  -1   3  -9   14.37   10.88
  -1  -3  -9   18.26   12.28
   1  -3   9    6.39   12.48
  -1   3  -9    4.59   11.28
   1   4 -11   87.83   21.61
  -1  -4  11  206.34   47.01
  -1  -4  10 1176.21   96.76
  -1   4  10  906.10   82.94
   1   4 -10  659.44   67.67
   1   4 -10  817.53   76.65
   1   4 -10 1011.49   82.24
   1  -4 -10  665.03   66.77
   1   4 -10  861.49   73.55
   1  -4 -10  891.88   80.34
  -1   4  10 1421.68  117.72
   1   4  -9 1989.80  131.54
   1   4  -9 1858.81  124.70
  -1   4   9 2158.56  138.57
   1  -4  -9 2010.16  133.09
  -1   4   9 1445.38  108.58
  -1  -4   9 1863.85  113.62
   1   4  -9 1878.02  129.74
  -1  -4   9 2629.18  154.24
   1  -4  -9 1382.36  116.82
   1  -4  -8   76.40   16.27
  -1   4   8   63.82   11.63
  -1  -4   8   95.36   14.22
   1   4  -8   87.08   18.91
   1   4  -8   86.03   19.01
  -1  -4   8  104.84   26.10
   1  -4  -8   93.81   20.16
  -1   4   8  132.89   24.65
   1   4  -8   65.72   15.57
   1   4  -8   97.16   19.01
  -1   4   7  364.98   32.09
   1  -4  -7  428.25   43.06
   1   4  -7  442.22   43.41
   1  -4  -7  355.34   36.98
  -1  -4   7  388.33   33.28
  -1  -4   6 6551.39   97.26
   1   4  -6 6682.93  132.09
   1  -4  -5 1526.22   53.64
  -1   4   5 1842.74   52.60
   1  -4  -5 1794.14   63.07
   1   4  -5 1544.38   58.58
  -1  -4   5 1646.93   45.46
   1   4  -5 1725.97   35.63
  -1   4   5 1708.01   63.17
   1   4  -4  330.99   22.01
  -1   4   4  306.79   26.25
   1   4  -4  316.32   29.69
  -1  -4   4  322.36   25.65
   1  -4  -4  314.38   29.19
  -1   4   4  273.36   27.89
  -1   4   4  295.51   28.89
   1  -4  -4  299.51   27.55
   1   4  -3  761.79   56.09
   1   4  -3  847.42   50.15
  -1   4   3  898.62   55.19
   1  -4  -3  857.80   56.34
  -1  -4   3  876.31   54.69
   1  -4  -3  782.15   55.09
  -1   4   3  810.44   55.19
  -1   4   3  780.85   55.59
   1   4  -2 6673.80  342.52
   1  -4  -2 6369.41  346.11
   1  -4  -2 6619.71  345.61
  -1  -4   2 5222.18  342.07
  -1   4   2 6611.62  346.11
  -1   4   2 6822.21  349.06
  -1   4   2 5548.29  344.82
   1   4  -1  366.17   19.06
   1  -4  -1  355.44   16.97
   1  -4  -1  324.71   18.51
   1  -4  -1  374.21   20.06
  -1   4   1  307.64   16.42
  -1   4   0 1508.80   35.23
   1   4   0 1482.81   28.84
   1   4   0 1312.79   31.79
  -1   4   0 1381.61   30.04
   1   4   1 2506.12  150.35
   1   4   1 2716.51  146.21
   1  -4   1 2915.86  151.70
  -1   4  -1 2560.52  152.45
  -1  -4  -1 2619.65  148.06
  -1   4  -1 2492.00  152.00
   1  -4   1 2799.14  151.10
  -1   4  -1 2454.48  151.85
   1  -4   1 2522.24  151.65
   1  -4   1 2427.63  150.85
  -1  -4  -1 2599.84  151.65
  -1   4  -2 2026.78  125.65
  -1   4  -2 2112.21  122.71
  -1   4  -2 1921.49  123.65
  -1  -4  -2 2030.52  117.87
   1  -4   2 2244.00  125.15
   1  -4   2 1866.89  121.71
   1  -4   2 1908.46  122.91
  -1   4  -2 2108.36  125.05
   1   4   2 2214.65  116.07
   1   4   2 1945.84  121.76
  -1  -4  -2 2022.68  124.10
   1   4   3   22.21    4.19
  -1   4  -3   31.94    8.73
   1   4   3   19.36    6.14
  -1  -4  -3   23.05    7.14
   1  -4   3   20.66    6.29
  -1   4  -3   22.80    5.94
  -1  -4  -3   27.40    5.29
  -1   4  -3   38.82    9.78
  -1  -4  -4 1605.81   44.01
  -1   4  -4 1895.69   53.69
   1  -4   4 1590.89   52.55
  -1  -4  -4 1828.92   66.37
   1  -4   5  562.73   44.61
  -1   4  -5  642.42   44.76
  -1  -4  -5  571.72   50.35
   1   4   5  460.34   41.92
  -1  -4  -5  517.32   40.92
   1  -4   6  245.46   23.70
  -1   4  -6  299.80   31.39
  -1  -4  -6  220.61   20.66
  -1  -4  -6  288.58   32.04
   1   4   6  238.18   27.10
   1   4   7  302.40   34.93
  -1   4  -7  331.89   37.03
  -1  -4  -7  282.64   27.55
  -1   4  -7  346.61   38.17
  -1  -4  -7  336.28   38.57
   1   4   8  740.53   64.57
  -1   4  -8  501.60   51.15
  -1   4  -8  837.99   68.71
  -1  -4  -8  784.24   69.01
   1   4   8  543.27   50.75
  -1  -4  -8  556.84   51.45
  -1   4  -8  760.09   67.22
   1  -4   8  893.73   72.31
   1   4   9  582.94   52.20
   1  -4   9  784.89   63.72
  -1  -4  -9  460.09   37.82
  -1   4  -9  558.74   53.69
  -1   4  -9  419.17   37.82
   1   4   9  505.60   38.22
  -1  -4  -9  658.84   59.43
  -1  -4  -9  634.34   58.13
  -1   4  -9  603.65   54.04
   1   5 -11  103.39   23.40
  -1  -5  11  199.40   45.81
   1  -5 -10  410.83   46.96
   1  -5 -10  569.07   59.48
   1   5 -10  567.42   58.78
   1   5 -10  503.10   55.44
  -1   5  10  599.36   62.43
   1   5 -10  363.98   46.21
   1   5 -10  486.38   51.20
  -1   5   9  251.65   27.15
   1   5  -9  335.33   41.27
   1   5  -9  321.56   40.12
   1   5  -9  294.57   35.68
  -1  -5   9  336.88   31.29
   1  -5  -9  350.60   42.37
   1  -5  -9  231.89   32.34
  -1   5   9  353.15   43.76
   1   5  -9  250.10   33.88
  -1  -5   8  174.55   20.06
   1  -5  -8   87.03   18.21
   1   5  -8   89.12   18.26
  -1   5   8  152.80   26.65
   1  -5  -8  114.02   22.80
  -1  -5   8  172.61   32.14
   1   5  -8  117.77   20.86
   1   5  -8  116.42   22.70
  -1   5   8   91.82   14.42
   1   5  -7  552.25   51.00
  -1   5   7  430.60   39.12
   1   5  -7  517.67   46.41
   1  -5  -7  612.23   53.79
  -1  -5   7  565.38   43.76
   1  -5  -7  498.81   46.06
   1  -5  -6  971.07   47.21
  -1  -5   6 1060.10   42.82
   1   5  -6 1211.45   33.58
   1  -5  -6 1194.23   57.64
   1   5  -6 1080.70   54.94
  -1   5   5  139.22   18.16
   1   5  -5  149.80   18.86
  -1  -5   5  155.19   15.97
  -1   5   5  147.51   15.77
   1  -5  -5  156.49   19.31
   1  -5  -5  144.91   16.92
   1   5  -5  156.99   11.23
   1   5  -4 2727.93  182.24
   1   5  -4 3115.86  173.66
  -1   5   4 3515.37  180.54
   1  -5  -4 3296.06  184.33
  -1   5   4 3044.91  182.54
   1  -5  -4 2963.12  181.04
  -1   5   4 2932.53  182.19
  -1  -5   4 2882.13  178.84
  -1   5   3  267.27   24.60
  -1   5   3  284.88   23.65
  -1  -5   3  292.32   25.20
   1  -5  -3  274.31   24.70
   1   5  -3  268.27   20.36
   1  -5  -3  243.62   23.35
  -1   5   2 3273.55  169.66
  -1  -5   2 2595.85  163.08
   1   5  -2 2995.00  165.82
   1   5  -2 3076.44  164.12
   1  -5  -2 2889.61  168.86
  -1   5   2 2724.34  168.22
  -1   5   2 3001.99  171.96
   1  -5  -2 3033.43  168.72
   1   5  -1  322.41   25.30
  -1   5   1  341.07   27.65
   1  -5  -1  333.64   26.65
   1  -5  -1  317.87   23.85
   1  -5  -1  292.82   24.55
  -1   5   1  292.42   23.70
  -1   5   1  307.74   24.60
   1   5   0 4254.50  280.09
   1   5   0 5410.06  279.59
  -1   5   0 5124.98  282.19
   1  -5   0 5731.02  282.39
  -1  -5   0 4518.98  280.69
   1  -5   0 5134.96  281.09
  -1   5  -1 3847.26  229.69
  -1  -5  -1 3951.95  229.29
  -1   5  -1 4171.52  231.64
  -1  -5  -1 4069.77  226.75
   1   5   1 3795.22  228.25
  -1   5  -1 4244.07  231.09
   1  -5   1 4538.34  230.14
   1  -5   1 3695.56  228.15
   1   5   1 4081.25  224.30
   1  -5   1 3876.45  230.04
   1  -5   2   72.06   10.88
  -1   5  -2   53.69   10.18
   1  -5   2   54.49    9.33
   1  -5   2   50.35    9.33
   1   5   2   53.89    6.34
  -1   5  -2   76.90   11.33
   1   5   2   44.31    8.38
  -1   5  -2   45.51    9.58
  -1  -5  -2   49.50    9.28
  -1   5  -2   43.61    8.43
  -1  -5  -2   47.01    7.09
  -1   5  -3 1297.17   94.66
  -1   5  -3 1554.71   97.61
   1  -5   3 1607.26   97.81
   1   5   3 1356.76   92.57
   1  -5   3 1387.15   92.72
  -1  -5  -3 1552.92   97.16
  -1   5  -3 1443.04   97.66
  -1  -5  -3 1429.46   88.72
  -1   5  -3 1582.91   93.21
   1   5   3 1507.01   85.83
  -1  -5  -4 2363.96   55.59
  -1   5  -4 2411.61   75.80
  -1   5  -4 2398.99   80.29
  -1   5  -4 2567.95   64.92
  -1  -5  -4 2622.04   81.19
   1  -5   4 2263.96   64.47
  -1   5  -5 1533.41  102.10
  -1  -5  -5 1365.59   91.62
  -1   5  -5 1528.96   94.26
  -1  -5  -5 1492.14  103.69
   1  -5   5 1345.23   94.61
  -1  -5  -6 2120.24   65.87
   1   5   6 2378.68   84.63
  -1   5  -6 2786.72   74.75
  -1  -5  -6 2474.24   94.06
  -1   5  -6 2556.33   90.82
   1  -5   6 2336.11   73.60
  -1  -5  -7 3062.52  123.26
  -1   5  -7 3043.81  116.07
   1   5   7 2752.14  109.28
  -1  -5  -8   79.94   16.02
  -1   5  -8  114.32   23.35
  -1   5  -8  104.64   22.90
   1   5   8   73.40   15.52
  -1  -5  -8  125.95   26.10
   1   5   8   99.65   21.76
  -1   5  -8   63.12   15.27
   1  -5   8  127.00   25.60
  -1  -5  -9  218.12   36.23
  -1   5  -9  207.59   32.83
   1   5   9  148.46   21.86
  -1  -5  -9  195.56   34.03
  -1   5  -9  143.12   23.25
  -1  -5  -9  147.71   22.36
   1  -5   9  252.50   36.98
  -1   5  -9  207.04   33.98
   1   5   9  181.14   29.99
   1   6 -11   -6.84   10.13
  -1  -6  11   17.12   24.30
  -1   6  10   90.47   33.03
  -1   6  10   31.54   16.67
   1   6 -10   54.84   18.51
   1   6 -10   42.62   14.67
   1   6 -10   50.05   17.81
   1  -6 -10   74.70   21.31
   1   6 -10   65.02   21.56
   1  -6 -10   30.94   12.87
  -1  -6   9  627.15   48.15
  -1   6   9  591.28   59.28
   1   6  -9  574.81   53.34
   1   6  -9  404.05   48.25
   1   6  -9  761.89   64.57
  -1   6   9  451.65   42.07
   1  -6  -9  447.16   49.00
   1   6  -9  566.18   57.34
   1  -6  -9  625.86   60.68
   1  -6  -8  168.12   25.30
   1   6  -8  193.57   26.65
  -1  -6   8  233.64   25.95
   1  -6  -8  242.97   33.18
  -1   6   8  167.07   21.11
  -1   6   8  262.78   34.48
   1   6  -8  179.89   29.09
   1   6  -7   95.46   17.52
   1  -6  -7   90.57   18.91
  -1  -6   7  108.98   16.77
   1   6  -7   78.39   17.57
   1  -6  -7   90.27   16.87
  -1   6   6 1861.30   57.14
   1  -6  -6 1778.52   71.71
   1   6  -6 1617.24   67.82
   1   6  -6 1775.58   41.97
   1  -6  -6 1435.40   58.53
  -1  -6   6 1734.81   58.93
   1   6  -6 1526.62   56.64
   1   6  -5 1336.35   74.60
   1  -6  -5 1372.18   71.56
   1   6  -5 1559.55   60.83
   1   6  -5 1384.60   68.56
  -1  -6   5 1513.69   71.51
  -1   6   5 1432.96   74.80
  -1   6   5 1654.12   70.16
   1  -6  -5 1588.40   77.90
   1  -6  -4  672.12   51.65
   1   6  -4  787.09   46.71
   1   6  -4  685.14   49.20
  -1   6   4  683.09   51.90
   1   6  -4  588.58   51.90
  -1   6   4  713.23   50.45
  -1  -6   4  759.79   53.64
   1  -6  -4  751.96   54.39
  -1   6   4  681.80   52.65
  -1   6   3  108.09   15.17
   1   6  -3  129.29   13.32
  -1   6   3  138.08   15.27
   1  -6  -3  133.73   15.72
   1  -6  -3  122.11   15.42
   1   6  -3  133.34   12.92
  -1   6   3  109.68   14.97
  -1  -6   3  126.05   16.47
   1   6  -2 1488.35   89.82
  -1   6   2 1443.68   95.16
   1  -6  -2 1450.27   92.27
  -1   6   2 1360.30   91.67
  -1   6   2 1442.64   94.36
  -1   6   2 1633.66   93.07
   1  -6  -2 1489.84   91.87
   1   6  -2 1582.26   87.18
   1  -6  -1  355.94   29.69
   1  -6  -1  408.49   29.59
  -1   6   1  356.09   29.19
  -1  -6   1  438.98   31.84
  -1  -6   1  371.76   23.95
   1   6  -1  404.85   30.89
  -1   6   1  432.89   33.98
  -1   6   1  414.18   30.04
   1   6   0  277.00   24.85
   1  -6   0  346.56   26.15
   1   6   0  325.85   24.10
   1  -6   0  322.16   24.95
  -1   6   0  318.67   26.25
  -1  -6   0  305.94   25.55
  -1  -6  -1  784.94   51.50
   1  -6   1  823.47   53.29
  -1   6  -1  803.36   54.44
  -1  -6  -1  840.48   53.69
   1   6   1  723.51   51.65
   1   6   1  804.35   48.75
   1  -6   1  725.61   53.54
  -1   6  -1  692.38   52.10
  -1   6  -1  770.82   54.54
   1  -6   1  782.55   52.05
  -1   6  -2  990.18   63.77
  -1   6  -2  845.77   64.27
   1  -6   2  849.56   62.88
  -1  -6  -2  961.64   64.52
   1   6   2  837.74   61.43
  -1   6  -2  849.46   64.02
   1  -6   2  904.01   62.73
   1  -6   2 1108.40   65.37
   1   6   2  981.65   56.99
  -1  -6  -2  958.40   59.93
   1   6   3   26.85    4.94
   1  -6   3   20.36    7.04
  -1   6  -3   27.84    7.34
  -1  -6  -3   22.66    7.73
   1   6   3   11.83    5.29
  -1   6  -3   24.30    7.88
  -1  -6  -3   19.06    5.39
   1  -6   3   28.34    8.03
  -1   6  -3   19.16    7.24
  -1   6  -3   20.36    7.88
  -1   6  -4   46.66   12.03
  -1  -6  -4   64.22   13.52
   1   6   4   55.54    7.88
  -1   6  -4   68.41   14.57
  -1  -6  -4   50.10    9.38
  -1   6  -4   68.16   11.83
  -1   6  -4   47.90   12.08
   1  -6   4   54.54   11.83
  -1  -6  -5  436.78   43.51
  -1   6  -5  371.26   41.77
  -1   6  -5  422.56   41.22
  -1   6  -5  431.69   36.03
   1  -6   5  425.36   38.12
  -1  -6  -5  372.96   33.93
  -1   6  -6  103.25   20.16
  -1  -6  -6   91.52   15.17
   1   6   6   81.49   17.81
  -1   6  -6  100.00   16.02
  -1  -6  -6  126.05   23.20
   1  -6   6   90.32   16.47
  -1  -6  -7  578.85   56.59
  -1   6  -7  560.94   53.09
  -1  -6  -7  457.09   43.21
   1   6   7  463.93   48.90
  -1  -6  -8   51.65   13.12
   1   6   8   27.10   13.12
  -1   6  -8   41.67   16.27
   1   6   8   34.88   11.38
  -1   6  -8   34.23   14.92
  -1  -6  -8   35.23   15.77
  -1   6  -9   96.56   23.80
  -1  -6  -9   80.59   23.80
  -1  -6  -9   50.80   14.77
   1   6   9   51.55   18.21
  -1   6  -9   56.49   15.37
  -1   6  -9   70.46   21.21
  -1   6  -9   48.55   15.67
   1   6   9   57.74   14.17
   1  -6   9   63.87   15.92
   1  -6   9   89.52   23.90
  -1  -7  11 5589.95  266.17
   1   7 -11 2216.60  178.99
   1   7 -10 1052.91   89.57
   1  -7 -10  850.91   78.29
   1   7 -10 1097.52   84.38
   1  -7 -10 1132.45   93.76
   1   7 -10 1076.51   91.32
  -1   7  10 1028.76   89.92
   1   7  -9   13.92    9.08
  -1  -7   9   22.06   10.83
   1   7  -9   20.71   11.78
   1   7  -9   27.50   13.72
  -1   7   9   14.52   13.12
   1  -7  -9   11.23    8.58
   1  -7  -9   22.70   12.62
  -1   7   9   45.36   22.61
  -1  -7   8 5630.82  279.05
  -1   7   8 4712.40  285.98
   1  -7  -8 5207.41  290.87
   1   7  -8 4657.65  277.50
   1  -7  -8 3848.21  274.80
  -1   7   8 3774.86  267.07
   1   7  -8 4807.76  286.93
  -1   7   7 1522.73  113.42
   1   7  -7 1608.71  114.67
  -1  -7   7 1793.89  110.28
   1  -7  -7 1769.29  117.87
   1  -7  -7 1336.65  106.99
   1   7  -7 1740.00   98.95
   1   7  -7 1501.97  107.09
  -1   7   6  475.56   39.52
   1  -7  -6  396.11   40.87
   1   7  -6  473.01   45.46
   1  -7  -6  511.83   46.91
   1   7  -6  453.80   40.47
   1   7  -6  513.98   35.13
  -1  -7   6  496.02   42.72
   1  -7  -5  521.32   45.31
   1   7  -5  582.04   38.97
   1   7  -5  498.31   46.76
   1  -7  -5  598.11   49.05
  -1  -7   5  590.58   47.36
  -1   7   5  579.75   43.36
   1   7  -5  533.79   42.96
  -1   7   5  522.56   45.91
  -1  -7   4 7666.43  254.10
   1  -7  -4 7816.78  248.96
   1   7  -4 8339.59  241.97
  -1   7   4 9784.23  248.46
   1   7  -4 8916.05  237.63
   1  -7  -4 8888.50  254.64
   1   7  -3  742.03   46.81
   1  -7  -3  721.92   51.25
  -1   7   3  702.80   54.14
  -1   7   3  603.25   50.70
   1   7  -3  697.66   46.56
  -1   7   3  634.24   50.30
   1  -7  -3  660.19   50.10
  -1   7   3  740.63   50.10
  -1  -7   3  753.65   54.64
   1  -7  -2 1667.84  103.05
   1  -7  -2 1645.08  101.90
   1   7  -2 1676.22  100.30
  -1   7   2 1810.71  103.44
  -1   7   2 1523.92  101.90
   1   7  -2 1650.02  103.84
  -1   7   2 1653.67  105.94
  -1   7   2 1655.46  103.89
  -1  -7   1  325.25   22.26
  -1   7   1  358.64   31.79
   1   7  -1  374.36   28.54
  -1  -7   1  439.58   31.69
   1  -7  -1  327.50   28.39
   1  -7  -1  340.02   27.84
   1   7  -1  341.87   29.19
  -1   7   1  349.46   28.69
  -1   7   1  337.98   27.45
  -1  -7   0 7354.55  381.89
  -1   7   0 6574.20  379.80
   1   7   0 5662.26  377.65
   1  -7   0 6471.95  377.00
   1   7   0 7320.72  377.35
  -1  -7   0 6181.23  378.65
   1  -7   0 8042.68  381.09
  -1   7  -1  154.24   19.11
  -1  -7  -1  190.22   19.41
  -1   7  -1  133.58   16.87
   1  -7   1  176.80   19.96
   1   7   1  178.45   15.77
   1  -7   1  189.62   19.21
  -1  -7  -1  191.72   18.66
  -1   7  -1  180.09   19.76
  -1   7  -1  165.57   18.91
   1   7   1  166.62   17.96
   1   7   2 4346.17  223.36
  -1   7  -2 3653.75  231.79
  -1  -7  -2 3957.04  231.54
  -1  -7  -2 3932.04  227.10
  -1   7  -2 4479.11  232.04
   1  -7   2 3912.93  231.39
   1   7   2 3643.72  228.65
  -1   7  -2 3665.02  231.14
   1  -7   2 3699.91  228.55
  -1   7  -3 3105.58   85.93
  -1   7  -3 3640.22   84.78
   1  -7   3 3127.69   78.64
   1  -7   3 3976.26   91.77
  -1  -7  -3 3196.10   67.22
   1  -7   3 3171.75   80.84
  -1  -7  -3 3412.87   85.68
   1   7   3 3689.48   55.69
  -1   7  -3 3619.46   79.19
  -1   7  -3 3089.17   85.58
  -1   7  -4 4848.33  251.25
   1   7   4 4598.27  241.67
  -1  -7  -4 4484.25  257.94
  -1  -7  -4 3916.33  245.91
  -1   7  -4 4038.53  256.49
  -1   7  -4 3643.47  252.80
   1  -7   4 3925.51  251.05
  -1   7  -4 4512.94  255.09
  -1  -7  -5  386.08   27.00
  -1   7  -5  430.30   38.12
  -1   7  -5  447.16   35.88
  -1   7  -5  461.43   30.14
  -1  -7  -5  468.92   39.22
   1  -7   5  421.21   32.19
  -1  -7  -6 1139.24   84.98
   1   7   6  938.64   75.85
  -1   7  -6  980.30   82.19
  -1   7  -6 1163.64   72.86
   1  -7   6  758.19   69.76
  -1   7  -6 1127.96   80.39
  -1  -7  -6  900.31   69.76
  -1   7  -7 3460.68  175.80
  -1  -7  -7 2732.08  173.31
  -1  -7  -7 3259.13  193.67
   1   7   7 2386.91  170.96
  -1   7  -7 2162.66  174.75
  -1   7  -7 3139.07  185.58
   1   7   7 2870.80  181.89
   1   7   8  442.92   44.46
  -1  -7  -8  500.26   46.96
  -1  -7  -8  688.03   64.97
  -1   7  -8  391.97   47.36
  -1   7  -8  674.66   59.68
   1   7   8  555.70   54.39
   1   7   9  112.98   24.90
  -1   7  -9   79.34   18.81
   1   7   9   82.69   18.31
  -1   7  -9  114.92   26.50
  -1  -7  -9  153.55   31.64
  -1   7  -9  128.84   26.85
  -1   7  -9   76.55   20.06
   1  -7   9  113.87   20.81
   1  -8 -10  444.62   52.35
   1   8 -10  677.16   59.88
   1  -8 -10  735.49   70.21
   1   8 -10  420.81   52.20
   1   8 -10  716.48   68.06
   1  -8  -9  615.93   62.88
  -1   8   9  536.09   57.98
   1  -8  -9  448.81   51.05
   1   8  -9  547.26   58.93
   1   8  -9  521.66   52.50
  -1  -8   8 2012.31  115.77
   1   8  -8 1560.45  109.18
  -1   8   8 2086.81  142.87
   1  -8  -8 1658.51  119.56
  -1   8   8 1511.40  114.87
   1   8  -8 1509.85  115.32
   1  -8  -8 1204.61  106.39
   1   8  -7    4.94    4.69
   1   8  -7   10.28    7.78
   1  -8  -7    5.79    6.79
   1  -8  -7    3.59    6.09
  -1  -8   7   10.28    9.28
   1   8  -7    0.80    6.99
   1  -8  -6 1609.01  107.69
  -1   8   6 1337.64  102.70
   1   8  -6 1600.57   92.37
  -1  -8   6 1636.35  105.74
   1   8  -6 1453.86   98.40
   1  -8  -6 1314.69  100.20
  -1   8   6 1577.57   98.16
   1   8  -6 1353.26  103.54
  -1   8   5   20.26    7.93
   1   8  -5   27.55    6.24
   1   8  -5   15.02    7.44
   1  -8  -5   20.31    8.38
   1  -8  -5    7.49    6.29
  -1   8   5   27.74    8.73
  -1   8   4 1735.50   53.14
  -1   8   4 1762.25   69.26
   1  -8  -4 1650.37   58.53
  -1  -8   4 1540.79   63.62
   1   8  -4 1772.33   45.76
   1  -8  -4 1512.40   54.84
   1   8  -4 1726.62   49.10
  -1   8   3  407.14   39.12
   1  -8  -3  498.36   39.57
  -1   8   3  460.89   39.27
  -1   8   3  479.30   38.07
   1   8  -3  503.05   35.93
   1   8  -3  526.36   35.03
  -1   8   3  483.34   41.67
   1  -8  -3  442.02   38.27
  -1   8   2 5392.79  279.74
   1   8  -2 4281.05  278.65
  -1   8   2 5292.09  280.34
  -1   8   2 4941.74  282.84
   1  -8  -2 4762.70  278.60
   1  -8  -2 4916.39  278.35
   1   8  -2 5015.59  276.40
  -1   8   2 4334.10  277.35
   1  -8  -1  596.96   41.97
   1   8  -1  571.81   41.57
   1   8  -1  559.99   42.86
   1  -8  -1  572.86   42.52
  -1   8   1  527.55   42.12
  -1   8   1  611.69   46.46
  -1   8   1  588.28   40.87
   1   8  -1  532.19   40.72
   1  -8  -1  494.77   41.37
  -1  -8   1  607.99   44.21
  -1  -8   0  400.85   32.29
  -1   8   0  365.67   31.69
   1  -8   0  356.84   29.04
   1  -8   0  401.45   31.94
   1   8   0  349.81   31.24
  -1  -8   0  362.93   32.49
   1   8   0  385.78   29.79
   1  -8   1  573.41   43.96
  -1   8  -1  625.41   45.81
  -1   8  -1  576.56   45.86
   1   8   1  607.19   40.22
  -1   8  -1  630.60   46.61
  -1  -8  -1  586.14   44.11
   1  -8   1  562.88   46.01
   1   8   1  508.99   42.12
  -1   8  -1  484.34   41.87
  -1  -8  -1  600.41   43.91
  -1   8  -2 8226.57  401.40
   1  -8   2 6541.16  396.41
  -1  -8  -2 7158.44  399.91
  -1  -8  -2 7187.78  396.71
  -1   8  -2 6555.54  399.51
   1   8   2 6172.60  396.56
   1  -8   2 6948.76  401.20
   1   8   2 7457.55  391.32
  -1   8  -2 6807.09  402.15
  -1   8  -3  377.60   27.05
  -1  -8  -3  324.11   27.35
   1  -8   3  335.58   27.40
   1  -8   3  336.83   26.10
  -1  -8  -3  351.25   23.80
  -1   8  -3  309.29   28.39
  -1   8  -3  343.77   29.34
   1   8   3  380.54   19.21
   1  -8   4  891.63   46.71
  -1  -8  -4  873.32   39.82
  -1   8  -4 1005.65   44.31
  -1   8  -4  880.65   50.75
  -1   8  -4  970.47   48.35
   1   8   4  967.93   31.29
  -1  -8  -4  963.39   51.65
  -1   8  -4    9.38    7.34
  -1  -8  -5 5553.53  359.09
  -1  -8  -5 6395.70  372.96
  -1   8  -5 6733.23  362.73
  -1   8  -5 6353.09  368.07
   1  -8   5 6071.85  365.08
   1  -8   5 6236.67  371.41
   1   8   5 6751.95  353.60
  -1   8  -5 5901.09  371.76
  -1  -8  -6 2827.14   92.02
   1   8   6 2784.27  102.95
  -1   8  -6 3274.10  111.98
   1  -8   6 3893.62  129.94
   1   8   6 2889.81  103.10
  -1  -8  -6 3457.39  124.40
  -1   8  -6 3445.76   97.46
  -1   8  -6 3229.14  121.76
  -1   8  -7  190.17   29.34
  -1   8  -7  229.84   25.85
  -1  -8  -7  208.64   33.48
   1   8   7  204.34   29.54
  -1   8  -7  163.18   26.90
   1   8   7  156.34   23.80
  -1  -8  -7  181.34   24.60
  -1   8  -8  222.91   33.33
   1   8   8  260.48   31.39
  -1   8  -8  326.95   39.87
   1   8   8  250.90   35.23
  -1  -8  -8  270.46   32.24
  -1  -8  -8  350.10   45.71
   1   8   9 3781.29  246.11
  -1   8  -9 4352.56  251.80
   1  -8   9 4222.57  240.47
  -1   8  -9 4234.69  257.89
  -1  -8  -9 4577.56  266.27
   1   9 -10  116.27   23.85
   1  -9 -10  137.33   25.65
  -1   9  10  167.27   31.24
   1   9 -10  153.60   27.25
   1  -9  -9   19.26   10.73
  -1   9   9   22.95   13.82
   1   9  -9   25.80   14.17
  -1   9   9   51.35   25.45
   1  -9  -9   22.26   13.02
   1   9  -9   27.30   13.57
  -1   9   9   22.85   13.77
  -1  -9   8  331.69   36.83
   1   9  -8  230.54   29.84
   1   9  -8  227.30   33.43
   1  -9  -8  189.07   29.09
  -1   9   8  220.36   32.69
   1  -9  -8  267.07   36.43
   1  -9  -7  243.92   31.19
   1   9  -7  282.44   24.60
   1   9  -7  276.55   30.84
   1  -9  -7  254.20   34.53
  -1   9   7  276.50   28.59
  -1  -9   7  304.99   36.18
  -1   9   7  260.78   33.28
   1   9  -7  242.62   33.28
  -1   9   7  270.21   34.38
   1  -9  -6   39.32   11.48
  -1   9   6  100.65   15.32
  -1  -9   6   87.28   18.31
  -1   9   6   65.82   15.52
   1  -9  -6   24.55   11.03
   1   9  -6   40.87   12.67
   1   9  -6   33.73   10.93
   1   9  -6   43.16    8.88
  -1   9   5    7.88    6.34
  -1  -9   5    9.13    8.63
   1   9  -5   32.98    7.24
  -1   9   5   32.69    9.53
   1   9  -5   12.28    7.19
   1  -9  -5    3.44    5.29
  -1   9   5    2.30    6.44
   1  -9  -5    3.14    4.84
   1   9  -4   32.74    7.93
  -1   9   4   30.44    8.53
   1   9  -4   18.71    6.04
   1  -9  -4   24.75    8.13
   1  -9  -4   13.82    6.19
  -1   9   4   18.46    8.33
  -1  -9   4   18.46    9.33
  -1   9   4   17.17    9.08
  -1   9   4   -0.75    3.34
  -1   9   3  171.56   22.51
   1  -9  -3  197.61   22.31
  -1   9   3  158.24   20.76
   1   9  -3  195.86   17.62
   1  -9  -3  196.01   21.81
   1   9  -3  183.69   18.91
  -1   9   3  187.43   20.61
  -1   9   3  198.51   23.20
   1  -9  -2  891.58   64.57
  -1  -9   2  902.81   58.78
  -1   9   2  888.19   65.02
  -1   9   2  889.73   67.67
   1  -9  -2  986.29   65.22
   1   9  -2  940.48   67.32
  -1   9   2  980.50   65.22
  -1   9   2 1013.89   65.87
   1   9  -2  919.97   62.33
   1  -9  -1  165.57   19.91
   1   9  -1  185.63   20.01
   1   9  -1  190.67   21.51
  -1   9   1  196.16   19.36
   1  -9  -1  197.16   21.26
  -1   9   1  218.27   22.31
   1   9  -1  196.91   20.51
  -1   9   1  185.18   22.95
   1  -9  -1  230.19   21.91
  -1  -9   1  204.09   22.41
  -1  -9   0   82.84   14.02
  -1   9   0   65.52   11.98
  -1  -9   0   81.09   12.77
   1   9   0   78.05   11.48
   1   9   0   84.63   13.07
   1  -9   0   90.57   13.07
   1  -9   0   68.31   10.58
   1   9   1 1098.67   81.74
  -1  -9  -1 1278.56   83.93
  -1  -9  -1 1254.66   83.43
   1  -9   1 1236.35   78.69
  -1   9  -1 1265.79   85.53
   1   9   1 1335.10   79.24
  -1   9  -1 1331.41   86.38
  -1   9  -1 1212.09   85.43
   1  -9   1 1269.48   86.63
  -1   9  -2  726.11   46.16
  -1  -9  -2  678.55   45.56
   1   9   2  690.83   37.82
  -1   9  -2  601.01   44.31
   1  -9   2  657.79   42.96
  -1  -9  -2  697.76   44.11
   1  -9   2  742.73   49.25
  -1   9  -2  614.13   46.81
  -1   9  -3    0.90    5.19
  -1   9  -3   23.20    7.98
   1   9   3   30.39    6.84
   1  -9   3   18.66    7.24
  -1  -9  -3   29.74    9.63
  -1  -9  -3   23.75    7.63
   1  -9   3   48.80   12.03
  -1   9  -3   59.03   12.82
  -1  -9  -4   55.59   11.23
  -1  -9  -4   63.22   14.32
  -1   9  -4   97.91   16.17
  -1   9  -4   64.32   12.23
  -1   9  -4   54.34   13.52
   1  -9   4   68.36   14.82
   1   9   4   57.14    8.78
  -1   9  -5  545.82   39.32
  -1   9  -5  449.76   43.76
  -1   9  -5  549.96   43.06
   1   9   5  437.58   29.19
  -1  -9  -5  474.51   44.36
  -1  -9  -5  420.71   35.53
   1   9   6   23.65   11.28
  -1   9  -6   25.65   12.43
  -1   9  -6   21.01   11.78
   1   9   6   16.47    9.03
  -1   9  -6   21.91    9.73
  -1  -9  -6   32.93   10.18
  -1  -9  -6   18.66   10.93
  -1   9  -6   29.09   11.58
  -1   9  -7  119.41   23.85
  -1   9  -7  191.17   23.75
  -1   9  -7  167.47   30.24
  -1   9  -7  160.48   26.50
  -1  -9  -7  140.67   28.29
   1   9   7  144.26   22.41
  -1  -9  -7  155.34   23.25
   1   9   7  198.06   28.54
  -1   9  -8   64.67   18.41
   1   9   8   80.54   17.62
  -1  -9  -8  106.69   19.66
  -1   9  -8  128.40   24.90
   1  -9   8  142.02   23.20
  -1  -9  -8  122.31   27.45
   1   9   8  107.09   22.51
  -1   9  -9  109.63   24.25
  -1   9  -9  206.39   35.48
  -1  -9  -9  167.02   34.08
   1   9   9  102.45   20.66
  -1   9  -9  196.51   33.13
   1   9   9  161.23   29.09
   1 -10 -10  567.62   57.19
  -1  10  10  631.05   63.87
   1  10 -10  712.93   61.03
   1 -10  -9 1104.26   96.96
  -1  10   9 1279.86  103.99
   1 -10  -9 1469.33  111.53
   1  10  -9 1355.06   98.70
  -1  10   9 1416.29  106.74
   1  10  -9 1403.31  108.53
  -1  10   9 1109.00   89.92
  -1 -10   8  582.49   52.99
  -1  10   8  388.28   46.91
   1 -10  -8  368.22   43.61
   1  10  -8  414.98   48.50
  -1  10   8  431.99   47.76
   1 -10  -8  511.68   53.14
   1  10  -8  413.43   43.06
   1  10  -8  501.95   36.53
   1  10  -7  287.88   32.44
  -1  10   7  248.96   33.98
  -1  10   7  307.04   37.58
  -1  10   7  352.15   32.98
   1  10  -7  341.82   28.39
   1  10  -7  276.90   36.13
  -1 -10   7  375.16   41.27
   1 -10  -7  331.19   39.42
   1 -10  -7  280.64   34.63
  -1  10   6 6986.58  356.79
   1  10  -6 5869.35  326.50
   1  10  -6 5424.98  330.89
   1 -10  -6 5826.03  341.12
   1 -10  -6 5017.44  334.29
  -1  10   6 5169.64  336.93
  -1 -10   6 5928.48  344.87
  -1  10   6 6256.63  332.14
  -1  10   5 1065.58   81.39
  -1 -10   5 1049.67   81.49
   1  10  -5 1053.21   69.71
   1 -10  -5  891.73   72.06
  -1  10   5  758.49   71.41
   1  10  -5 1085.25   67.87
   1 -10  -5 1046.77   76.25
  -1  10   5 1049.72   70.36
  -1  10   4   43.51   11.83
   1  10  -4   60.98   10.48
   1 -10  -4   41.12   10.93
  -1  10   4   49.40   11.08
   1  10  -4   55.84   10.13
  -1  10   4   27.60    9.33
  -1 -10   4   41.47   13.72
  -1  10   4   46.81   12.97
   1 -10  -4   55.04   12.43
  -1  10   3  209.78   21.91
   1 -10  -3  214.82   21.46
  -1  10   3  222.71   20.36
   1  10  -3  202.70   18.11
  -1  10   3  172.46   21.46
   1  10  -2 7346.87  373.21
  -1 -10   2 6222.80  366.57
   1 -10  -2 7455.15  376.00
   1 -10  -2 6897.61  375.80
  -1  10   2 7713.94  375.70
  -1  10   2 7812.54  377.35
  -1  10   2 6300.69  375.06
  -1  10   2 7236.18  381.19
   1 -10  -1  236.13   25.10
   1  10  -1  241.52   26.10
  -1  10   1  209.23   26.35
  -1  10   1  249.31   23.05
   1  10  -1  223.81   23.90
  -1  10   1  269.51   27.10
  -1  10   1  237.08   25.80
  -1 -10   1  266.82   27.20
   1 -10  -1  254.25   26.05
   1  10  -1  208.89   23.25
   1 -10  -1  261.88   25.40
   1  10  -1  267.72   16.57
  -1 -10   0  322.96   29.79
  -1 -10   0  322.41   31.59
   1  10   0  304.75   26.95
  -1  10   0  298.26   29.59
   1  10   0  273.86   28.24
   1  10   0  307.69   22.21
   1 -10   0  231.54   24.30
   1 -10   0  315.92   29.19
  -1 -10  -1 1212.49   77.85
  -1 -10  -1 1132.05   76.25
  -1  10  -1 1092.68   77.25
   1  10   1  882.20   72.21
   1 -10   1 1004.66   69.46
  -1  10  -1 1228.36   79.29
   1 -10   1 1111.64   79.64
   1  10   1 1159.50   71.36
   1  10   2 1113.79   37.03
  -1  10  -2   11.78    7.49
  -1  10  -2   -0.85    4.79
  -1 -10  -2 1081.85   49.35
  -1  10  -2  950.11   46.06
  -1  10  -2 1259.15   52.05
  -1 -10  -2 1134.65   48.85
   1 -10   2 1100.27   53.34
   1 -10   2 1025.41   44.06
  -1 -10  -3  219.12   21.66
   1 -10   3  219.56   22.21
  -1  10  -3  261.43   24.00
  -1  10  -3  196.96   23.35
  -1 -10  -3  201.35   22.75
   1 -10   3  214.67   24.80
   1  10   3  231.49   16.77
  -1 -10  -4 1273.22   72.96
  -1  10  -4 1248.92   80.09
  -1  10  -4 1562.15   77.15
  -1 -10  -4 1432.01   82.54
   1  10   4 1463.59   65.22
   1  10   5   56.94    9.23
  -1 -10  -5   57.84   15.52
  -1  10  -5   61.38   12.87
  -1 -10  -5   52.50   12.43
  -1  10  -5   77.45   16.02
   1  10   5   43.56   12.13
  -1  10  -5  127.45   22.51
   1 -10   5    1.00    3.94
   1  10   6   26.45   11.43
   1  10   6   15.62   10.08
  -1  10  -6    9.83    8.93
  -1 -10  -6   25.70    9.88
  -1  10  -6   32.64   10.83
  -1  10  -6   27.30   12.43
  -1 -10  -6   47.31   15.47
  -1  10  -6   27.50   12.67
  -1 -10  -7  171.81   30.54
  -1  10  -7  145.36   29.44
   1  10   7  105.34   22.31
  -1  10  -7  150.90   26.45
  -1 -10  -7  145.41   23.10
  -1  10  -7  151.15   25.60
  -1  10  -7  182.59   23.70
   1  10   8  676.11   66.12
   1 -10   8 1055.40   77.15
  -1  10  -8 1090.19   71.11
  -1  10  -8 1028.71   88.03
  -1  10  -8  930.95   77.70
  -1 -10  -8  835.64   70.01
  -1  10  -8  664.43   70.96
   1  10   8  764.13   73.05
  -1 -10  -8 1096.92   90.32
   1  10   9  310.78   40.52
   1  10   9  252.85   32.49
  -1  10  -9  313.13   40.92
  -1  10  -9  223.51   35.33
  -1  11  10   45.56   16.42
  -1  11   9  111.98   24.50
   1 -11  -9   97.01   21.56
  -1  11   9  113.97   25.70
   1  11  -9  158.68   25.25
   1  11  -9  127.70   27.30
   1 -11  -9  125.00   27.20
  -1  11   8 1320.33  105.64
   1  11  -8 1035.54   69.06
  -1  11   8  926.51   81.94
   1 -11  -8 1141.83   90.57
   1  11  -8 1031.20   78.94
  -1 -11   8 1387.25   93.36
  -1  11   8  968.38   85.03
   1  11  -8  997.72   86.03
   1 -11  -8  820.22   77.80
  -1 -11   7 1732.16  111.43
  -1  11   7 1189.74   98.35
   1 -11  -7 1150.02   95.61
   1  11  -7 1476.27   88.17
  -1  11   7 1161.94   99.20
  -1  11   7 1833.36  121.51
   1  11  -7 1327.86   93.66
  -1  11   7 1478.42   93.51
   1 -11  -7 1447.88  104.84
  -1  11   7 1180.86   96.86
   1  11  -7 1170.43   98.70
   1 -11  -6   15.22   10.18
  -1  11   6   20.81   13.77
  -1  11   6   10.18    9.23
   1 -11  -6   25.10   10.28
   1  11  -6    9.23    6.44
   1  11  -6   12.13    9.03
  -1  11   6    5.59    7.63
  -1 -11   6    5.24    9.93
  -1  11   6    5.19    7.93
   1 -11  -5  152.30   22.16
   1  11  -5  112.93   16.42
   1 -11  -5  105.64   18.56
  -1  11   5  139.57   23.50
   1  11  -5  125.10   16.17
  -1 -11   5  123.95   23.70
  -1  11   5  136.23   18.51
  -1  11   5   97.81   19.51
   1 -11  -4 5127.62  313.63
   1  11  -4 5409.81  308.04
   1 -11  -4 5557.07  315.17
  -1  11   4 5992.60  312.43
  -1  11   4 4520.13  314.13
  -1  11   4 5646.19  318.32
  -1  11   3 1208.05   94.91
   1 -11  -3 1430.96   94.51
   1  11  -3 1338.54   90.22
  -1  11   3 1455.86   94.96
  -1  11   3 1561.45   94.01
   1 -11  -3 1399.82   94.56
  -1 -11   2  452.25   29.84
  -1  11   2  556.35   39.02
   1  11  -2  466.62   34.63
  -1  11   2  463.63   39.72
   1 -11  -2  574.66   39.07
  -1  11   2  523.21   36.43
   1 -11  -2  550.66   39.47
   1  11  -1 1379.76   48.10
   1 -11  -1 1254.71   66.02
   1 -11  -1 1135.70   63.87
  -1  11   1  980.20   62.83
  -1  11   1 1167.88   65.82
   1 -11  -1 1362.05   66.07
  -1  11   1 1317.53   60.63
  -1 -11   1 1326.97   68.46
   1  11  -1 1274.27   63.82
   1  11  -1 1332.85   64.87
   1  11   0 6625.60  192.82
   1 -11   0 5217.89  200.50
  -1 -11   0 5618.60  209.48
   1 -11   0 6747.21  213.08
  -1  11   0 5656.97  211.43
  -1 -11   0 6835.58  222.26
   1  11   0 6228.73  206.34
  -1 -11  -1   27.45    8.48
   1 -11   1    7.49    5.59
  -1  11  -1   22.41    8.78
  -1  11  -1   11.08    6.39
   1 -11   1   28.24    6.84
  -1 -11  -1   25.50    8.63
   1  11   1   29.89    8.48
   1 -11   2   52.94   10.73
  -1 -11  -2   76.25   13.67
  -1 -11  -2   60.93   12.72
  -1  11  -2   37.33   10.33
  -1  11  -2   29.34    8.93
   1 -11   2    3.74    6.19
   1  11   2   52.99    9.28
  -1  11  -2    0.95    3.54
  -1  11  -2    0.85    2.94
  -1  11  -3 2064.60   69.86
   1  11   3 1922.88   52.15
  -1 -11  -3 1889.75   68.41
  -1  11  -3 1638.90   68.61
  -1 -11  -3 1951.78   73.20
   1 -11   3 1779.02   64.42
  -1 -11  -4 4156.30  102.05
  -1 -11  -4 4381.85  117.32
   1  11   4 4766.14   80.44
  -1  11  -4 3971.82  112.68
  -1  11  -4 4721.73  105.44
  -1  11  -5  134.58   19.51
  -1 -11  -5  108.98   21.61
   1  11   5  122.36   14.97
  -1  11  -5  116.57   22.51
  -1  11  -5   90.97   20.36
  -1 -11  -5  113.33   18.81
   1  11   5   82.09   17.17
   1  11   6  737.14   67.17
  -1  11  -6  701.06   69.71
   1  11   6  751.76   67.77
  -1 -11  -6  969.28   78.89
  -1  11  -6 1024.17   68.86
  -1  11  -6  889.43   70.36
  -1 -11  -6  817.13   66.67
  -1  11  -6  810.09   74.55
   1  11   6  886.09   57.93
  -1 -11  -7 2493.05  172.16
   1  11   7 2237.66  172.96
  -1 -11  -7 3058.38  191.77
  -1  11  -7 2244.09  176.10
   1  11   7 2541.85  176.85
   1 -11   7 3225.90  183.39
  -1  11  -7 2879.93  179.24
  -1  11  -7 3201.20  174.55
  -1  11  -7 2975.59  190.27
  -1  11  -8 1004.91   83.83
  -1 -11  -8 1155.81   96.91
  -1 -11  -8  952.66   78.99
   1 -11   8 1173.92   85.98
  -1  11  -8 1110.60   95.21
   1  11   8  928.81   82.04
   1  11   8  893.73   76.05
  -1  11  -8  776.56   79.49
  -1  11  -8 1216.78   79.14
   1  11   9  448.76   50.70
   1  11   9  356.69   41.82
   1  12 -10    5.49    9.63
   1  12 -10   11.03   12.18
  -1  12  10    4.69   10.98
   1  12  -9    6.34   11.13
  -1  12   9   14.17   12.28
   1 -12  -9   -1.70   11.53
   1 -12  -9    9.18    9.98
   1  12  -9   14.22   11.63
  -1  12   9    4.74   11.68
  -1  12   9   17.76   17.32
  -1  12   8  131.89   27.40
   1  12  -8  149.00   27.89
  -1  12   8  161.63   22.80
   1 -12  -8  188.68   31.54
   1  12  -8  177.60   19.76
  -1  12   8  213.33   39.82
  -1  12   8  128.30   24.95
  -1 -12   8  236.43   34.58
  -1  12   8  127.35   26.40
   1 -12  -8  128.25   24.40
   1  12  -8  152.35   23.95
  -1  12   7  189.57   29.44
   1  12  -7  251.10   24.40
   1 -12  -7  207.44   31.64
   1 -12  -7  199.10   29.04
  -1  12   7  302.75   41.67
   1  12  -7  203.45   26.45
  -1  12   7  200.05   28.99
  -1  12   7  203.65   25.55
  -1 -12   7  295.11   39.07
  -1  12   7  186.38   31.14
  -1  12   6  260.88   35.23
   1  12  -6  197.46   24.25
   1 -12  -6  174.50   26.10
  -1 -12   6  220.21   34.23
  -1  12   6  182.94   27.65
   1 -12  -6  213.83   29.99
  -1  12   6  205.04   29.89
  -1  12   6  204.00   24.85
   1  12  -6  216.72   23.05
  -1  12   5   33.28    9.98
  -1  12   5    8.83    8.33
   1  12  -5   25.45    8.53
   1 -12  -5    6.79    7.19
   1  12  -5   10.88    7.73
   1 -12  -5   11.28    7.83
  -1  12   5   12.23    9.28
  -1  12   5    9.73    8.83
   1  12  -5   13.97    6.54
   1 -12  -4  698.76   55.09
   1 -12  -4  652.01   54.49
  -1  12   4  694.32   56.49
   1  12  -4  674.51   49.65
  -1  12   4  677.06   51.65
  -1  12   4  498.11   52.75
  -1  12   3   58.28   12.43
  -1  12   3   12.58    7.58
   1  12  -3   51.35   10.48
  -1  12   3   24.65   10.08
   1 -12  -3   35.58   10.38
   1 -12  -3   23.20    8.93
  -1  12   3   23.60    8.48
  -1  12   2   17.96    8.68
  -1  12   2   -0.80    3.69
   1 -12  -2   29.79    9.23
  -1 -12   2   30.29    6.64
   1 -12  -2   25.35    8.78
  -1  12   2   41.77   10.78
   1  12  -2   22.11    7.34
  -1  12   2   21.21    7.73
  -1  12   1    2.40    4.34
  -1  12   1    0.80    3.14
   1  12  -1  535.19   15.92
  -1 -12   1  452.05   33.53
   1 -12  -1  436.48   31.39
   1  12  -1  432.04   29.14
  -1  12   1  476.65   27.00
   1 -12  -1  452.10   32.54
   1  12  -1  439.83   29.54
   1 -12  -1  498.91   32.44
  -1 -12   0  245.91   26.65
   1  12   0  229.39   21.16
   1  12   0   -0.80    1.40
  -1  12   0    0.80    3.14
  -1 -12   0  223.11   22.85
   1 -12   0  195.91   18.76
   1  12   0  227.70   14.02
   1  12   0  185.08   19.56
   1 -12   0  250.20   23.45
  -1  12  -1   13.72    6.99
  -1 -12  -1    8.88    6.44
   1  12   1    2.54    3.04
   1  12   1    5.59    5.54
   1 -12   1    1.05    3.04
   1 -12   1   10.23    4.64
  -1  12  -1    0.85    3.54
  -1  12  -2 2786.12   84.08
  -1  12  -2 2061.31   71.76
  -1 -12  -2 2371.69   80.24
  -1  12  -2  687.83   44.61
   1 -12   2 2230.22   67.02
   1 -12   2 2236.41   57.54
  -1 -12  -2 2491.05   80.09
   1  12   2 2562.06   62.58
  -1 -12  -3  226.90   25.75
  -1 -12  -3  220.06   24.85
  -1  12  -3  196.36   24.35
   1 -12   3  201.20   22.06
  -1  12  -3  236.88   24.45
   1  12   3  218.62   18.51
   1  12   4   10.58    6.29
  -1 -12  -4   30.74   10.68
  -1  12  -4   13.07    8.13
  -1 -12  -4   19.06   10.08
  -1  12  -4   15.42    9.38
  -1  12  -5  719.17   54.49
  -1 -12  -5  579.90   52.70
   1  12   5  658.94   45.86
  -1  12  -5  499.31   55.44
  -1  12  -5  554.95   56.74
  -1 -12  -5  605.40   58.43
   1  12   6 1653.12   97.71
  -1 -12  -6 1722.83  121.06
   1  12   6 1341.34  107.84
   1  12   6 1309.90  106.59
  -1  12  -6 1931.57  110.58
  -1  12  -6 1291.64  111.13
  -1 -12  -6 1499.42  107.94
  -1  12  -6 1619.24  118.51
   1 -12   7   12.72   10.18
  -1 -12  -7    9.93   12.28
  -1  12  -7   22.46   12.67
  -1  12  -7   28.99   15.27
  -1 -12  -7   13.02    9.63
   1  12   7   10.78   10.03
  -1  12  -7   26.35   11.58
   1  12   7   17.62   11.98
  -1  12  -8    1.85    7.39
  -1  12  -8    8.68    8.88
  -1 -12  -8    7.49   12.72
   1  12   8   -1.35    9.28
  -1 -12  -8    6.89    8.28
   1 -12   8    5.19   10.58
  -1  12  -8   11.68   11.23
   1  12   8   10.78    9.18
  -1  12  -8    3.64    9.78
  -1  12  -9  329.25   45.21
   1  12   9  427.15   48.85
   1  12   9  373.11   42.37
   1  13 -10  724.06   63.87
  -1  13  10  602.70   64.87
  -1  13   9  358.04   45.96
   1 -13  -9  352.55   46.76
   1  13  -9  304.30   36.23
   1  13  -9  215.57   34.08
  -1  13   9  435.29   57.39
   1  13  -9  283.59   41.27
  -1  13   9  306.94   40.07
   1 -13  -9  227.50   35.38
   1 -13  -8 1311.75  100.65
   1  13  -8  802.51   84.28
   1  13  -8 1299.12   79.74
  -1  13   8 1335.90   85.88
  -1  13   8 1145.28   94.21
   1 -13  -8  973.27   88.42
  -1  13   8 1155.96   97.11
  -1  13   8 1566.49  114.47
  -1  13   8 1075.91   90.02
   1  13  -8 1185.35   86.43
  -1  13   7   29.99   11.43
   1  13  -7   15.57    9.48
   1  13  -7   51.00   11.53
  -1  13   7   19.56   13.32
  -1  13   7   34.53   13.47
   1 -13  -7   29.69   12.87
  -1  13   7   37.48   14.67
   1 -13  -7   17.66   11.28
  -1  13   7   40.42   17.47
   1  13  -7   37.87   12.72
  -1  13   6  543.82   44.36
  -1  13   6  457.09   47.56
   1 -13  -6  512.13   49.90
  -1  13   6  531.05   53.99
   1  13  -6  501.90   40.92
   1  13  -6  488.73   42.02
   1 -13  -6  464.18   47.16
   1  13  -6  381.34   45.06
  -1  13   6  447.11   49.25
   1 -13  -5   26.75   11.23
  -1  13   5   18.36   10.93
   1 -13  -5   22.01   10.28
  -1  13   5   21.06   10.73
  -1  13   5   16.47    9.63
   1  13  -5   26.85    8.23
   1  13  -5   22.80   10.93
  -1  13   5   25.95    9.93
   1  13  -4  985.29   77.65
   1  13  -4 1188.64   74.25
   1 -13  -4 1240.49   81.39
  -1 -13   4  861.69   63.47
   1 -13  -4 1130.76   79.79
  -1  13   4 1277.56   78.00
  -1  13   4  995.27   80.39
  -1  13   4 1184.80   80.79
   1 -13  -3   20.51    8.28
   1  13  -3    6.54    5.44
  -1  13   3    9.78    7.14
  -1  13   3   15.92    8.28
  -1  13   3    3.04    6.44
   1 -13  -3    6.04    6.59
  -1  13   2  259.73   26.55
   1  13  -2  876.51   42.27
  -1  13   2  945.12   42.12
  -1  13   2  999.37   48.90
   1 -13  -2  951.06   49.15
  -1  13   2  808.79   48.05
   1 -13  -2  959.60   47.41
  -1 -13   2  781.75   32.19
  -1  13   1   46.81    9.03
   1 -13  -1   35.98    9.78
   1 -13  -1   42.72   11.38
   1  13  -1   46.81   11.13
  -1  13   1   -0.85    1.50
  -1  13   1    0.85    3.94
  -1 -13   1   81.84   15.32
   1  13  -1   37.53    9.73
   1  13   0  957.70   29.04
   1 -13   0 1051.76   49.55
   1  13   0  843.33   42.57
  -1 -13   0 1158.55   59.78
   1 -13   0  946.47   48.10
   1  13   0 1048.92   46.11
   1 -13   0  837.74   39.57
  -1 -13   0  954.55   49.30
  -1  13  -1   51.50   20.61
  -1 -13  -1  683.54   47.85
   1  13   1  617.47   32.88
  -1  13  -1  655.15   45.41
  -1 -13  -1  694.22   45.06
   1 -13   1  549.41   33.68
   1  13   1  668.17   39.02
   1 -13   1  184.58   30.29
  -1  13  -2  948.92   60.68
  -1 -13  -2  926.41   61.48
   1 -13   2  797.97   52.40
  -1  13  -2  618.47   51.85
   1  13   2  866.13   50.55
   1 -13   2  709.49   46.36
  -1 -13  -2  854.25   58.63
  -1  13  -3   47.16   12.23
  -1 -13  -3   43.66   12.58
  -1 -13  -3   58.08   14.47
   1 -13   3   48.15   11.83
   1  13   3   43.96    9.93
  -1  13  -3   29.74   10.53
  -1 -13  -4  308.34   35.93
   1  13   4  270.51   26.05
  -1 -13  -4  278.75   33.03
  -1  13  -4  277.65   31.44
  -1  13  -4  258.19   35.08
   1 -13   4  330.74   34.33
  -1  13  -4  253.75   33.43
  -1  13  -5  319.67   40.27
  -1  13  -5  255.74   36.13
  -1 -13  -5  324.36   39.37
  -1 -13  -5  287.18   34.58
  -1  13  -5  317.17   33.73
   1  13   5  320.96   28.19
  -1  13  -6   32.09   13.62
  -1  13  -6   11.18   11.93
  -1 -13  -6   26.10   11.73
   1 -13   6   11.73   12.38
   1  13   6    8.78    7.54
  -1  13  -6   20.51   10.43
  -1 -13  -6   17.81   11.58
  -1 -13  -7  107.99   21.21
  -1  13  -7  131.09   27.84
  -1 -13  -7  140.52   29.94
  -1  13  -7  165.67   23.80
   1  13   7   71.06   20.01
  -1  13  -7  104.69   24.25
   1 -13   7  150.50   27.15
   1  13   7   88.52   20.71
  -1 -13  -8    7.68   13.52
   1  13   8   14.67   11.78
  -1  13  -8    9.18   12.13
  -1  13  -8    6.74    8.18
   1 -13   8    6.79   10.08
  -1  13  -8    7.49   10.23
  -1  13  -9    4.59   10.13
  -1  14  10  121.91   26.50
   1  14  -9   12.38   12.13
  -1  14   9    8.58   13.32
   1 -14  -9    2.84    9.03
  -1  14   9   14.17   12.03
   1  14  -9    7.63   10.83
   1  14  -8   53.49   18.16
  -1  14   8   80.19   16.92
   1  14  -8   86.03   15.27
  -1  14   8   51.30   16.52
  -1  14   8   81.39   22.06
  -1  14   8  110.43   29.09
   1 -14  -8   54.84   17.32
   1  14  -8   82.04   17.81
   1 -14  -8   78.74   21.31
  -1  14   8   75.55   22.90
   1  14  -7   64.32   17.47
   1 -14  -7   82.99   19.16
  -1  14   7  127.35   27.50
  -1  14   7  120.36   19.21
   1  14  -7  113.33   16.92
  -1  14   7   78.94   19.01
  -1  14   7   88.13   22.70
  -1  14   7  102.70   21.96
   1 -14  -6  190.27   27.15
   1  14  -6   97.66   20.61
   1  14  -6   98.85   16.37
   1 -14  -6  103.20   20.46
  -1  14   6  120.81   19.11
  -1  14   6   97.46   22.36
  -1  14   6   98.01   20.91
  -1  14   6   94.41   22.26
  -1  14   5    8.48    9.03
   1  14  -5    6.79    6.99
   1 -14  -5   10.43    8.13
  -1  14   5    8.63    9.38
  -1  14   5   34.38   11.03
   1  14  -5    7.34    6.14
   1  14  -5    6.49    7.34
   1  14  -5    5.39    6.69
  -1  14   5   15.52   10.18
   1 -14  -4   51.85   13.22
  -1  14   4   61.08   15.32
   1 -14  -4   45.71   12.77
  -1  14   4   60.58   15.72
   1  14  -4   52.05   11.63
  -1  14   4   41.12   11.73
   1  14  -4   40.17   11.73
  -1  14   4   43.71   12.48
   1 -14  -3  253.10   29.09
  -1  14   3  264.62   29.29
  -1  14   3  224.20   30.04
   1  14  -3  220.51   25.40
   1 -14  -3  228.50   28.54
  -1  14   3  235.68   26.90
  -1  14   2    3.19    4.44
  -1  14   2   13.62    7.93
   1  14  -2    4.24    5.79
  -1 -14   2    2.35    3.74
   1 -14  -2    0.80    4.64
   1  14  -2   -0.85    1.40
  -1  14   2    5.94    7.14
   1 -14  -2    1.80    5.94
   1  14  -1   20.06    8.78
   1 -14  -1   39.12   10.58
   1  14  -1   22.95    9.03
  -1 -14   1   35.58   11.18
  -1  14   1   23.35    6.94
  -1  14   1    0.95    1.60
   1 -14  -1   37.28   11.23
   1  14   0   10.73    8.08
  -1 -14   0   27.05    9.73
   1 -14   0   23.65    8.83
   1  14   0    4.54    6.34
   1 -14   0    9.38    6.04
   1  14   0    6.69    3.84
   1 -14   0    9.08    7.19
  -1  14  -1   81.89   16.42
   1  14   1   76.50   13.97
  -1 -14  -1   65.92   14.97
   1 -14   1   48.55   10.33
  -1 -14  -1   89.37   18.41
   1  14   1   83.53   11.63
   1 -14   2 1287.94   91.22
  -1 -14  -2 1488.05  103.54
   1  14   2 1582.81   96.21
  -1  14  -2 1683.56  105.74
   1 -14   2 1400.67   96.46
  -1  14  -2 1258.00   98.65
   1  14   2 1517.34   94.81
  -1 -14  -2 1644.73  107.64
  -1  14  -3   32.69   12.77
  -1  14  -3   10.93   10.23
   1  14   3   29.04    9.38
  -1 -14  -3   35.93   11.73
  -1  14  -3   18.46    8.48
   1 -14   3   20.01    8.93
  -1  14  -3   21.36    9.43
  -1 -14  -3   35.03   11.93
  -1 -14  -4  123.06   22.06
  -1  14  -4  101.25   18.56
   1 -14   4   99.65   18.96
  -1  14  -4   96.61   21.96
  -1  14  -4   98.90   20.96
  -1  14  -4   92.37   19.91
  -1 -14  -4  130.04   22.80
   1  14   4  110.33   15.77
   1  14   5 1450.87   91.47
  -1 -14  -5 1401.72  107.09
  -1 -14  -5 1323.52  102.35
  -1  14  -5 1368.18  108.19
  -1  14  -5 1516.14  101.05
   1 -14   5 1546.98  110.23
  -1  14  -5 1244.98  104.29
  -1 -14  -6  999.62   84.13
  -1  14  -6  875.81   86.23
  -1  14  -6 1274.17   85.18
  -1 -14  -6 1199.12   94.81
  -1  14  -6  967.23   88.87
   1  14   6 1113.09   73.25
   1 -14   6 1208.75   93.17
  -1  14  -7   28.69   14.42
  -1 -14  -7   27.05   12.62
   1 -14   7   39.57   16.22
   1  14   7   29.84    9.28
  -1 -14  -7   26.10   14.87
   1  14   7   27.05   12.48
  -1  14  -7   24.90   14.47
   1  14   7   30.49   13.62
  -1  14  -7   43.81   13.67
  -1  14  -8  345.11   37.18
  -1  14  -8  281.04   44.71
   1 -14   8  392.42   45.66
   1  14   8  242.37   36.63
  -1 -14  -8  353.10   50.35
   1  14   9  512.13   52.30
  -1  14  -9  525.16   58.33
   1  15  -9   12.72   12.77
  -1  15   9   17.76   14.47
  -1  15   9   19.91   13.02
   1 -15  -9    4.39    9.93
  -1  15   8  768.97   60.13
  -1  15   8  620.62   62.68
   1  15  -8  848.42   57.19
   1 -15  -8  779.95   72.81
   1 -15  -8  683.64   66.32
  -1  15   8  922.47   82.19
   1  15  -8  518.22   60.68
  -1  15   8  610.14   65.27
  -1  15   8  687.98   71.01
   1 -15  -7    6.44    8.48
  -1  15   7    1.60   10.43
  -1  15   7    3.94    9.23
   1  15  -7   14.12   11.78
  -1  15   7    7.68   11.68
  -1  15   7    1.75    8.93
  -1  15   7    1.15    8.23
   1 -15  -7    8.38    9.53
   1  15  -7    2.94    6.94
   1  15  -6  159.53   27.74
   1  15  -6  153.94   27.05
   1 -15  -6  179.64   28.19
  -1  15   6  181.64   31.39
  -1  15   6  197.66   25.35
  -1  15   6  243.27   34.18
  -1 -15   6  238.98   26.35
  -1  15   6  181.79   28.64
   1 -15  -6  210.28   30.59
   1  15  -6  224.11   25.30
  -1  15   5    7.39    7.54
   1  15  -5    5.74    6.59
   1 -15  -5   13.27    7.78
  -1  15   5   19.11   12.28
   1  15  -5    8.33    7.88
  -1  15   5   13.62    9.48
  -1 -15   5   16.02    4.79
  -1 -15   5    9.13    2.89
   1  15  -5   10.08    7.39
  -1  15   5   13.22    9.58
   1  15  -5    6.79    7.73
   1 -15  -5   13.22    9.38
   1 -15  -4   33.28   11.73
  -1  15   4   27.45   10.83
   1  15  -4   44.71   14.57
   1 -15  -4   42.22   12.48
  -1  15   4   38.82   14.12
  -1  15   4   27.05   10.88
  -1  15   4   48.80   12.77
   1  15  -4   30.69   10.73
   1  15  -4   31.04    9.53
   1 -15  -3   23.20    8.93
  -1  15   3   13.12    8.98
  -1 -15   3   13.12    6.54
  -1  15   3   22.70   10.13
   1  15  -3   13.42    7.34
  -1  15   3    6.94    6.19
  -1  15   3    7.68    7.73
   1  15  -2 2362.96  115.97
   1 -15  -2 2541.55  121.46
  -1 -15   2 2218.25  106.44
  -1  15   2 2782.18  125.20
  -1  15   2 2264.26  123.01
  -1  15   2 2610.22  114.27
   1 -15  -2 2600.69  124.80
   1 -15  -1  130.29   19.86
   1 -15  -1  139.82   19.86
  -1  15   1  167.52   17.02
   1  15  -1  155.79   20.21
   1  15  -1  101.95   16.17
  -1 -15   1  126.55   20.16
   1 -15   0   81.49   16.57
   1 -15   0  108.33   18.26
   1  15   0   98.70   16.57
   1  15   0   70.41   14.87
  -1 -15   0   89.12   17.76
   1 -15   0   71.81   14.32
   1  15   0   91.67   10.83
   1  15   1 1239.59   76.75
   1 -15   1  978.61   77.20
  -1  15  -1 1163.69   88.17
   1  15   1 1348.92   84.78
  -1 -15  -1 1228.51   88.32
  -1 -15  -1 1362.74   95.21
   1  15   2  874.06   60.83
   1 -15   2  701.66   55.44
  -1  15  -2  879.20   68.01
  -1 -15  -2  958.60   73.05
  -1 -15  -2  836.09   67.62
  -1  15  -2  712.59   63.07
   1  15   2  871.87   59.33
   1 -15   2  757.70   60.23
  -1 -15  -3   53.34   14.62
   1  15   3   52.15   12.23
   1  15   3   55.59   11.93
  -1  15  -3   42.17   15.57
  -1  15  -3   44.06   14.62
  -1 -15  -3   45.36   14.47
  -1  15  -3   38.22   12.77
  -1  15  -3   49.75   13.22
   1 -15   3   53.64   10.18
   1 -15   3   37.82   11.53
  -1  15  -4    7.54   10.03
   1  15   4   21.86    8.38
  -1 -15  -4    6.14    6.94
   1 -15   4    8.83    7.09
  -1  15  -4    6.64    8.08
  -1  15  -4    8.43    7.68
   1 -15   4   24.30   14.17
  -1 -15  -4   21.36   11.63
  -1  15  -4    9.63   11.48
  -1  15  -5  277.40   37.73
  -1  15  -5  276.20   33.23
   1  15   5  305.09   29.09
  -1 -15  -5  316.67   40.42
  -1  15  -5  284.04   39.67
  -1 -15  -5  325.00   38.87
   1 -15   5  301.65   41.07
  -1 -15  -6  408.34   45.91
  -1  15  -6  485.09   44.86
  -1  15  -6  345.76   47.11
   1 -15   6  523.21   54.49
   1  15   6  430.50   36.33
  -1  15  -6  381.44   48.00
  -1 -15  -6  389.33   48.85
  -1  15  -7   11.83   11.83
  -1  15  -7    8.33    9.38
  -1 -15  -7   11.78   10.23
  -1 -15  -7   17.71   14.12
   1  15   7    3.74    8.28
   1 -15   7    6.14   11.93
  -1  15  -8    2.10    9.08
   1  15   8   14.97   12.28
  -1  15  -8    3.19   10.93
   1  15   9  146.66   26.45
  -1  16   9  183.24   31.69
  -1  16   9  261.88   41.97
   1  16  -8  185.63   32.09
  -1  16   8  247.66   37.33
   1  16  -8  248.21   28.39
   1 -16  -8  290.22   41.22
  -1  16   8  306.44   43.81
   1 -16  -8  223.71   35.08
  -1  16   8  229.10   34.08
  -1  16   8  331.14   34.08
  -1  16   8  282.04   43.91
  -1  16   7  102.70   25.60
  -1  16   7  132.14   23.65
   1 -16  -7   98.06   22.80
  -1  16   7  115.87   24.05
  -1  16   7  164.37   23.65
  -1  16   7  135.98   28.39
   1  16  -7   93.31   22.75
   1  16  -7  140.97   20.31
  -1 -16   7  205.04   25.65
   1 -16  -7  139.62   26.45
  -1  16   6  505.05   45.01
   1 -16  -6  426.80   47.81
  -1  16   6  566.33   54.24
  -1  16   6  448.81   49.45
   1 -16  -6  518.12   51.75
  -1 -16   6  471.31   37.53
  -1  16   6  506.34   54.34
   1  16  -6  379.40   46.36
   1  16  -6  400.75   46.86
   1  16  -6  502.40   43.11
   1  16  -6  439.28   49.45
   1 -16  -5  693.87   63.92
  -1  16   5  865.48   67.12
   1  16  -5  651.06   63.12
  -1  16   5  833.05   62.23
   1  16  -5  817.23   59.18
   1 -16  -5  808.59   66.82
   1  16  -5  622.66   61.83
   1  16  -5  711.44   66.02
  -1  16   5  703.70   64.72
  -1  16   5  658.34   65.77
   1  16  -4  220.76   31.74
  -1  16   4  226.65   28.29
   1  16  -4  183.79   27.40
  -1  16   4  209.63   31.09
   1  16  -4  220.86   26.20
  -1  16   4  191.17   29.49
   1 -16  -4  240.82   31.24
  -1  16   4  255.34   29.14
   1 -16  -4  225.95   29.64
   1  16  -3  533.49   50.85
   1 -16  -3  609.29   52.45
   1 -16  -3  594.92   53.84
  -1  16   3  581.20   48.15
  -1  16   3  469.67   50.55
   1  16  -3  556.10   47.61
  -1 -16   3  551.75   45.56
  -1  16   3  534.14   52.50
   1  16  -3  529.20   53.09
  -1  16   3  679.85   53.79
  -1  16   2  279.79   32.29
   1 -16  -2  282.74   32.93
   1  16  -2  211.53   26.85
   1 -16  -2  264.43   30.54
  -1  16   2  240.92   31.94
  -1 -16   2  236.88   23.95
   1  16  -2  236.93   29.54
  -1  16   2  258.89   26.65
  -1  16   2  230.39   31.34
  -1 -16   1  626.36   56.24
   1 -16  -1  654.25   55.19
   1  16  -1  533.64   50.15
  -1  16   1  722.96   59.03
  -1  16   1  655.80   48.00
   1  16  -1  610.49   53.09
   1 -16  -1  646.42   56.09
   1 -16   0   17.32    9.88
   1 -16   0   31.69   10.43
  -1 -16   0   19.81    9.48
   1  16   0   14.67    9.18
   1 -16   0   32.83   10.68
   1  16   0   27.94    6.29
   1  16   0   18.86    8.83
   1 -16   1  276.10   29.04
  -1 -16  -1  323.36   36.13
  -1  16  -1  304.84   35.98
   1  16   1  374.51   34.93
   1  16   1  307.34   27.30
  -1 -16  -1  375.70   42.22
   1 -16   2  242.57   27.55
  -1  16  -2  273.66   32.98
   1 -16   2  203.50   23.20
   1  16   2  261.78   25.90
   1  16   2  265.72   28.09
   1  16   2  205.69   28.14
  -1 -16  -2  315.87   37.92
  -1  16  -2  204.04   28.54
  -1 -16  -2  255.69   32.14
  -1  16  -2  282.04   34.88
   1 -16   3  950.21   77.60
  -1  16  -3  613.93   60.78
  -1  16  -3  764.18   62.83
   1  16   3  887.74   59.13
  -1 -16  -3  821.62   69.01
  -1  16  -3  729.85   67.97
  -1  16  -3  724.76   67.27
  -1 -16  -3  796.97   66.47
   1 -16   3  626.46   51.75
   1 -16   3  701.06   59.43
   1  16   3  782.00   58.68
  -1  16  -4   39.92   15.47
  -1  16  -4   43.41   17.66
  -1  16  -4   34.73   13.37
  -1 -16  -4   78.74   18.76
   1  16   4   72.71   13.62
   1  16   4   67.07   15.42
   1 -16   4  106.34   24.20
  -1  16  -4   58.48   15.12
   1 -16   4   53.34   13.92
  -1 -16  -4   49.75   16.22
  -1  16  -5  359.84   45.61
  -1 -16  -5  395.42   47.31
  -1 -16  -5  420.07   47.31
  -1  16  -5  475.51   44.76
   1  16   5  477.50   38.82
  -1  16  -5  382.74   48.65
  -1  16  -5  357.24   45.91
  -1 -16  -6   17.62   10.88
  -1 -16  -6    6.39   10.88
   1 -16   6   42.12   18.31
  -1  16  -6   23.10   12.62
  -1  16  -6   18.76   10.73
  -1  16  -6   42.42   16.52
   1  16   6   21.56    9.28
  -1  16  -7  860.09   66.22
  -1  16  -7  620.22   68.01
  -1 -16  -7  658.99   66.02
   1 -16   7  860.09   76.80
  -1 -16  -7  741.58   74.95
  -1  16  -7  629.75   69.46
   1  16   7  546.91   60.63
   1  16   7  880.20   75.20
   1  16   7  754.00   54.29
   1  16   8   -1.40    9.68
  -1  16  -8    4.94   11.58
  -1  16  -8    1.10    8.88
  -1  17   9    1.45    8.48
  -1  17   8  945.37   85.73
  -1  17   8 1040.43   91.47
   1  17  -8  810.29   84.83
  -1  17   8 1492.94  108.68
  -1  17   8 1236.25  101.45
   1 -17  -8 1007.90   90.47
  -1  17   8 1313.59   85.88
   1 -17  -8 1248.97  100.00
   1  17  -7  340.52   44.56
  -1  17   7  383.74   46.31
   1  17  -7  460.44   40.77
   1 -17  -7  368.12   46.01
   1 -17  -7  428.80   49.35
   1  17  -7  354.15   45.01
  -1  17   7  443.47   53.04
  -1  17   7  346.96   42.17
   1  17  -7  367.62   46.71
  -1  17   7  447.96   42.57
  -1  17   7  551.21   55.64
   1  17  -6  254.99   29.09
   1  17  -6  190.27   31.54
   1  17  -6  221.81   33.93
   1 -17  -6  268.72   35.88
   1 -17  -6  257.14   35.48
   1  17  -6  221.61   33.08
  -1  17   6  272.76   30.99
  -1  17   6  242.62   34.78
  -1  17   6  290.22   37.13
  -1  17   6  209.53   34.63
   1  17  -5  441.42   51.45
   1  17  -5  441.22   49.75
   1 -17  -5  547.91   52.89
  -1  17   5  474.71   53.14
   1 -17  -5  512.23   52.15
   1  17  -5  452.15   49.30
  -1  17   5  501.06   52.05
  -1  17   5  596.02   49.60
   1  17  -5  557.39   46.66
  -1  17   5  575.76   52.10
  -1  17   4 1467.44  112.98
  -1  17   4 1681.26  109.58
   1 -17  -4 1631.51  114.37
  -1  17   4 1409.90  112.43
   1  17  -4 1557.16  105.64
   1  17  -4 1291.89  108.04
   1 -17  -4 1749.23  114.57
  -1  17   4 1863.40  111.88
   1  17  -4 1466.79  114.17
  -1  17   3    9.93   10.03
  -1  17   3   18.26    8.48
   1  17  -3   14.87    9.93
   1 -17  -3   31.14   11.08
   1  17  -3   28.34    9.63
  -1  17   3   18.86   10.83
   1 -17  -3   18.16   10.08
   1  17  -3   12.77    8.33
  -1 -17   3   11.33    6.99
  -1  17   3   14.17    9.68
  -1  17   2 1077.96   73.85
   1  17  -2 1034.30   79.89
  -1  17   2 1051.76   83.88
   1 -17  -2 1134.55   83.73
   1 -17  -2 1166.38   81.99
  -1  17   2  937.39   80.44
  -1 -17   2  943.63   69.56
   1  17  -2  996.82   76.05
  -1  17   2 1202.76   83.68
   1  17  -1  251.45   30.34
  -1  17   1  271.96   26.35
   1 -17  -1  273.36   32.44
   1 -17  -1  279.69   33.73
   1  17  -1  228.15   28.44
  -1  17   1  288.03   34.63
  -1  17   1  222.81   31.94
  -1  17   0 1393.83   98.01
  -1 -17   0 1259.95   94.71
   1  17   0 1322.62   90.97
  -1  17   0 1233.95   96.01
   1 -17   0 1374.97   94.46
   1  17   0 1294.23   78.54
  -1  17   0 1098.27   92.57
   1  17   0 1104.36   88.27
   1 -17   0 1349.97   96.01
  -1 -17  -1  148.60   23.75
  -1 -17  -1  180.79   29.24
  -1  17  -1  157.59   24.95
  -1  17  -1  146.91   25.15
   1 -17   1  134.38   19.01
   1  17   1  160.58   22.56
   1  17   1  129.59   16.37
  -1  17  -2 1750.82  135.73
  -1 -17  -2 2585.52  154.34
   1  17   2 2397.74  136.48
   1 -17   2 2002.67  133.49
  -1  17  -2 2080.42  145.76
   1  17   2 1798.18  135.68
   1 -17   2 1758.21  126.95
  -1  17  -2 2265.55  143.52
   1 -17   2 2722.74  160.93
  -1  17  -2 2081.92  144.81
   1  17   2 2308.77  131.29
  -1 -17  -2 2286.91  144.81
  -1 -17  -3  384.79   43.01
  -1 -17  -3  402.40   45.66
   1  17   3  373.81   35.53
  -1  17  -3  306.94   38.57
   1 -17   3  455.50   51.95
  -1  17  -3  402.85   46.51
   1 -17   3  297.01   29.69
  -1  17  -3  352.20   38.82
  -1  17  -3  355.69   43.51
   1 -17   3  330.34   36.23
   1  17   3  411.08   36.28
  -1  17  -4  515.18   48.85
  -1  17  -4  428.75   48.95
  -1  17  -4  479.15   54.74
   1 -17   4  437.18   46.16
  -1  17  -4  462.93   53.04
   1  17   4  565.03   44.31
   1  17   4  572.31   48.85
   1 -17   4  415.18   38.27
   1 -17   4  708.79   65.87
  -1 -17  -4  530.00   54.69
  -1 -17  -4  580.95   56.09
   1 -17   5  120.01   28.34
  -1 -17  -5  103.00   23.05
   1  17   5   89.37   16.07
   1  17   5  117.72   21.71
  -1  17  -5   71.36   21.71
  -1  17  -5   82.04   22.06
  -1 -17  -5  115.32   24.40
  -1  17  -5   94.66   22.16
  -1  17  -5  105.29   20.46
  -1  17  -6  264.67   38.82
   1 -17   6  311.63   43.86
   1  17   6  301.10   38.12
  -1  17  -6  212.58   36.08
   1  17   6  276.75   28.34
  -1  17  -6  197.66   35.68
  -1 -17  -6  248.26   37.13
  -1 -17  -6  268.22   39.82
  -1  17  -6  309.09   35.38
  -1  17  -7  343.02   48.75
  -1  17  -7  504.50   48.05
   1  17   7  427.00   37.63
   1 -17   7  622.11   62.83
  -1 -17  -7  395.76   48.60
   1  17   7  524.86   55.74
  -1 -17  -7  443.27   55.84
   1  17   7  322.66   43.26
  -1  17  -7  406.49   52.40
  -1  17  -8    1.70   11.93
   1  17   8    7.04    9.53
  -1  18   9  163.72   29.59
  -1  18   8  957.05   81.59
   1 -18  -8  607.19   65.67
  -1  18   8  825.76   62.58
   1  18  -8  481.79   60.03
  -1  18   8  750.36   76.35
   1  18  -7   39.87   16.47
   1  18  -7   64.67   19.96
   1  18  -7   55.59   14.57
  -1  18   7   58.43   21.26
   1 -18  -7   48.70   17.62
  -1  18   7   49.00   15.27
   1 -18  -7   62.13   18.51
   1  18  -7   27.99   14.02
  -1  18   7   51.10   17.62
  -1  18   7   51.65   18.66
  -1  18   7   68.11   17.52
   1 -18  -6 1339.79   99.40
  -1  18   6 1200.32   96.01
   1  18  -6 1098.42   95.51
   1  18  -6  958.50   90.07
  -1  18   6 1341.59   97.01
   1 -18  -6 1124.67   94.71
   1  18  -6 1280.41   87.23
   1  18  -6 1020.03   91.72
  -1  18   6 1399.42   90.77
  -1  18   6 1132.30   97.71
  -1  18   5  361.68   42.91
  -1  18   5  398.56   41.92
   1  18  -5  322.21   42.42
  -1  18   5  301.65   41.37
   1 -18  -5  421.06   44.56
  -1  18   5  399.11   39.62
   1  18  -5  358.99   36.68
   1  18  -5  337.68   41.27
   1 -18  -5  352.40   42.96
   1  18  -5  289.72   38.37
  -1  18   4  876.76   67.52
   1 -18  -4  899.61   72.31
   1  18  -4  799.66   73.20
  -1  18   4  716.63   70.51
  -1  18   4  828.46   73.01
  -1  18   4  980.15   70.51
   1  18  -4  637.88   65.47
   1  18  -4  865.18   65.92
   1 -18  -4  863.19   73.25
   1 -18  -3  424.16   42.12
  -1  18   3  337.88   34.63
   1 -18  -3  390.82   42.47
   1  18  -3  328.75   40.62
  -1 -18   3  317.42   32.88
  -1  18   3  337.83   41.22
   1  18  -3  320.21   38.47
   1  18  -3  331.59   35.43
  -1  18   3  392.87   40.92
  -1  18   3  306.29   39.42
   1 -18  -2  599.51   56.84
   1  18  -2  576.61   51.30
   1  18  -2  622.56   55.19
  -1  18   2  644.57   56.94
  -1 -18   2  543.27   45.16
  -1  18   2  514.53   54.04
  -1  18   2  554.80   56.74
  -1  18   2  669.32   49.75
   1 -18  -2  679.60   56.79
   1  18  -1  411.18   41.62
   1 -18  -1  405.99   43.86
  -1  18   1  352.50   42.77
   1 -18  -1  444.47   43.81
   1  18  -1  340.67   37.73
  -1  18   1  495.82   47.90
  -1  18   1  420.81   35.73
   1 -18   0  251.40   32.49
   1  18   0  214.12   27.74
  -1  18   0  197.61   30.84
  -1  18   0  272.01   34.83
   1  18   0  179.84   26.45
   1  18   0  215.82   19.91
  -1  18   0  221.16   31.59
  -1 -18   0  229.64   31.39
  -1  18  -1  361.88   41.07
   1 -18   1  314.78   33.18
  -1 -18  -1  461.78   50.35
  -1  18  -1  314.03   40.62
   1  18   1  354.50   30.29
  -1 -18  -1  390.67   42.67
   1  18   1  398.11   38.37
   1  18   2   24.55    9.13
  -1 -18  -2   38.82   13.87
   1 -18   2   40.22    9.88
   1  18   2   27.99   10.93
  -1  18  -2   27.55   12.82
  -1 -18  -2   88.97   22.11
   1 -18   2   42.96   19.16
   1 -18   2   44.06   12.18
  -1  18  -2   27.79   12.77
  -1  18  -2   46.66   15.67
   1 -18   3  235.88   28.94
  -1  18  -3  170.36   27.74
  -1  18  -3  221.66   34.23
   1 -18   3  287.98   41.12
   1  18   3  222.91   30.34
   1  18   3  248.16   27.50
  -1  18  -3  178.60   31.19
  -1  18  -3  254.79   31.74
  -1 -18  -3  272.81   37.63
   1 -18   3  169.36   20.86
  -1 -18  -3  230.94   33.03
   1  18   3  226.25   26.00
   1  18   4   27.10   10.93
  -1 -18  -4    5.99    9.53
   1 -18   4   23.05    7.58
   1  18   4   15.12    8.93
  -1  18  -4   12.58   13.12
  -1  18  -4    2.64    7.09
   1 -18   4   17.42   18.26
   1 -18   4   33.78   12.18
  -1  18  -4    7.54   10.28
  -1  18  -4   10.73    9.68
  -1 -18  -4   12.53    8.88
  -1  18  -5  218.77   35.88
  -1 -18  -5  243.92   36.73
  -1  18  -5  192.27   32.69
   1 -18   5  366.52   47.66
   1  18   5  276.60   29.19
   1 -18   5  203.95   24.10
  -1  18  -5  242.32   38.57
   1  18   5  292.17   34.68
  -1 -18  -5  259.29   38.32
  -1  18  -5  244.61   32.04
   1  18   6   26.35   14.12
  -1 -18  -6   41.47   17.71
  -1  18  -6   35.08   13.72
  -1 -18  -6   13.77   11.48
   1 -18   6   43.46   20.76
   1  18   6   40.47   12.08
  -1  18  -6   31.94   15.67
  -1  18  -6   25.95   15.42
  -1  18  -6   37.63   18.01
  -1  18  -7  172.46   33.28
  -1  18  -7  155.14   32.09
   1  18   7  142.12   27.40
   1 -18   7  260.23   41.22
  -1  18  -7  198.66   29.44
   1  18   7  208.19   34.48
  -1  18  -7  137.53   30.44
   1  18   8   13.02   12.08
   1 -19  -8   48.60   18.61
  -1  19   8   48.75   15.52
  -1  19   8   24.40   13.22
  -1  19   8   56.69   21.91
   1  19  -7  234.93   37.33
  -1  19   7  227.65   39.72
   1  19  -7  232.19   37.33
   1 -19  -7  306.89   42.12
   1 -19  -7  242.47   37.78
  -1  19   7  236.23   36.38
  -1  19   7  334.29   35.88
  -1  19   7  221.11   32.64
  -1  19   7  311.63   41.22
   1  19  -7  270.41   31.49
   1  19  -7  201.00   33.73
   1  19  -6  157.94   29.94
   1  19  -6  135.93   27.20
  -1  19   6  188.18   30.49
   1  19  -6  164.17   29.84
  -1  19   6  145.36   30.54
   1 -19  -6  213.43   33.73
   1  19  -6  187.08   25.35
  -1  19   6  156.34   29.39
  -1  19   6  182.09   26.75
   1 -19  -6  189.82   32.04
  -1  19   5  218.87   28.84
   1  19  -5  149.75   28.84
  -1  19   5  187.03   31.69
   1 -19  -5  177.25   30.39
   1 -19  -5  184.73   29.59
  -1  19   5  163.23   29.34
   1  19  -5  200.65   26.10
  -1  19   5  209.18   29.04
   1  19  -5  160.38   27.50
  -1  19   4 1973.33  126.50
  -1  19   4 1883.51  134.78
   1 -19  -4 2067.60  136.83
   1 -19  -4 2026.08  133.49
  -1  19   4 1682.71  130.79
   1  19  -4 1912.45  124.80
   1  19  -4 1710.35  132.69
  -1  19   4 2194.79  131.29
   1  19  -4 1440.09  124.90
  -1  19   3   64.97   17.91
   1  19  -3   31.14   11.18
  -1  19   3   30.89   14.22
  -1 -19   3   40.62   12.03
   1  19  -3   35.48   13.67
  -1  19   3   69.26   17.76
   1 -19  -3   45.91   15.82
   1 -19  -3   47.36   14.37
  -1  19   3   48.25   12.33
   1 -19  -2  547.76   53.19
   1  19  -2  460.19   48.00
   1 -19  -2  557.24   51.40
  -1  19   2  556.50   52.75
  -1  19   2  530.80   43.71
  -1  19   2  499.71   53.19
   1  19  -2  477.50   46.16
  -1  19   2  443.22   49.30
  -1 -19   2  455.35   40.22
   1 -19  -1    8.68    9.23
   1  19  -1    7.54    7.58
   1  19  -1   12.43    9.38
   1 -19  -1   13.42    8.13
  -1  19   1   28.29   13.42
  -1  19   1   27.79    8.68
   1  19   0 2859.87  173.95
   1  19   0 2872.70  158.39
  -1 -19   0 2576.63  177.15
  -1  19   0 2457.87  178.55
  -1  19   0 2529.73  176.40
  -1  19   0 3094.81  183.44
   1 -19   0 2882.78  180.39
   1  19   0 2300.68  169.26
   1 -19   1 1970.64  142.77
   1  19   1 2358.67  138.72
  -1 -19  -1 2754.33  170.46
  -1 -19  -1 2173.29  154.59
   1  19   1 2630.33  152.35
  -1  19  -1 2252.88  154.34
  -1  19  -1 2224.48  157.74
   1 -19   2    1.30    5.39
  -1  19  -2    3.34    6.54
   1  19   2    2.50    5.39
  -1  19  -2    5.64   10.73
   1  19   2    6.59    9.48
  -1 -19  -2   12.72   12.13
   1  19   2   17.52    9.88
   1 -19   2   15.52    7.88
  -1 -19  -2   12.77    8.98
  -1  19  -2    9.58    9.53
   1  19   3  308.09   38.62
   1 -19   3  315.67   30.44
  -1 -19  -3  386.28   48.15
   1  19   3  408.09   36.68
  -1 -19  -3  353.25   43.11
   1 -19   3  348.81   37.73
  -1  19  -3  446.06   50.05
  -1  19  -3  373.96   41.07
   1  19   3  388.98   37.92
  -1  19  -3  352.25   44.26
  -1  19  -3  256.94   36.98
   1 -19   3  483.94   55.69
  -1 -19  -4  457.34   52.70
   1 -19   4  390.28   36.68
  -1 -19  -4  538.73   57.98
  -1  19  -4  528.65   49.85
  -1  19  -4  526.21   57.64
   1 -19   4  489.28   47.95
   1  19   4  535.99   44.61
  -1  19  -4  385.14   47.76
   1  19   4  517.02   46.46
   1  19   4  421.16   48.20
  -1  19  -4  505.35   55.79
   1 -19   4  590.13   63.72
   1  19   5 1008.25   75.10
  -1  19  -5  824.06   80.64
   1 -19   5 1171.77   94.41
   1  19   5  946.17   67.42
  -1 -19  -5  923.22   82.54
  -1  19  -5  799.31   76.45
  -1  19  -5  789.88   79.04
  -1 -19  -5  952.56   82.64
   1 -19   5  754.85   59.88
  -1  19  -5  977.81   75.15
   1  19   5  703.45   71.71
  -1  19  -6  635.39   70.11
  -1 -19  -6  696.67   71.56
   1  19   6  781.45   58.73
  -1  19  -6  605.95   68.36
   1 -19   6  966.48   85.13
   1  19   6  859.04   70.96
  -1  19  -6  819.67   67.47
  -1 -19  -6  763.88   76.25
   1  19   6  633.69   66.77
  -1  19  -6  665.18   72.46
   1  19   7 1037.04   99.40
   1  19   7 1464.94  107.84
  -1  19  -7 1392.19  100.10
  -1  19  -7 1072.72  104.04
   1 -19   7 1644.34  120.06
  -1  20   8  285.28   45.71
  -1  20   8  319.17   37.18
   1  20  -7  341.02   46.11
  -1  20   7  425.65   54.39
  -1  20   7  447.61   51.50
  -1  20   7  460.34   45.36
   1 -20  -7  467.17   54.09
   1  20  -7  461.13   43.86
  -1  20   7  351.50   47.01
   1 -20  -7  394.87   50.10
  -1  20   6 3299.60  231.29
   1  20  -6 2874.89  221.36
   1 -20  -6 3715.82  230.64
  -1  20   6 3264.62  226.50
   1 -20  -6 3540.62  230.14
  -1  20   6 4153.50  222.66
  -1  20   6 4235.59  229.89
   1  20  -6 3786.88  217.87
   1  20  -6 3066.91  223.26
   1  20  -6 3120.16  227.80
  -1  20   5  559.04   51.00
   1 -20  -5  533.59   54.29
   1 -20  -5  503.85   54.79
  -1  20   5  477.00   53.49
   1  20  -5  439.13   52.55
   1  20  -5  360.73   46.51
   1  20  -5  490.38   46.16
  -1  20   5  539.98   50.05
  -1  20   5  428.55   51.50
  -1  20   4   10.63    8.23
   1 -20  -4   26.95   11.58
   1  20  -4    4.44   10.98
   1  20  -4    8.78   10.03
  -1  20   4   11.63   12.58
   1  20  -4    4.79    8.33
   1 -20  -4   18.31   11.53
  -1  20   4    9.93   10.78
  -1  20   3   33.03   14.17
   1  20  -3    7.63    7.98
   1  20  -3   11.13    8.68
   1 -20  -3    9.48   10.03
  -1  20   3   -0.85    6.14
   1 -20  -3   26.65   10.93
  -1 -20   3    3.19    6.34
  -1  20   3   15.42   11.68
  -1  20   3    4.04    8.53
  -1  20   2 5085.21  283.69
  -1  20   2 4790.14  300.00
   1  20  -2 5224.88  295.91
  -1  20   2 5684.81  300.55
   1 -20  -2 5178.87  300.20
   1 -20  -2 5223.93  297.11
  -1  20   2 4604.31  295.21
  -1 -20   2 4057.74  278.15
   1  20  -2 4663.64  288.78
   1 -20  -1  128.69   24.70
  -1  20   1  127.75   23.95
  -1  20   1  122.76   24.65
   1  20  -1  107.74   21.06
   1 -20  -1  126.40   22.80
   1  20  -1   97.16   19.36
  -1 -20   0  341.62   42.07
   1  20   0  301.30   37.18
  -1  20   0  425.61   46.46
   1 -20   0  396.56   44.91
   1  20   0  386.68   40.87
   1  20   0  393.72   29.74
  -1  20   0  333.54   41.72
  -1  20   0  375.50   45.26
  -1  20  -1  481.05   52.99
  -1  20  -1  465.08   49.75
   1  20   1  460.74   37.28
   1  20   1  485.84   46.66
  -1 -20  -1  489.88   51.55
  -1 -20  -2  885.24   75.30
  -1 -20  -2 1042.73   86.48
   1 -20   2  785.94   60.83
   1  20   2  978.61   69.56
  -1  20  -2  616.23   64.87
   1  20   2  912.14   61.78
  -1  20  -2  858.25   72.86
  -1  20  -2  885.49   77.70
   1 -20   2  731.80   63.57
   1  20   3  363.88   35.13
   1 -20   3  321.11   30.64
  -1  20  -3  351.65   41.02
  -1 -20  -3  432.84   51.70
  -1 -20  -3  390.57   45.96
   1  20   3  421.71   39.47
  -1  20  -3  371.96   47.11
   1  20   3  341.87   40.87
  -1  20  -3  381.09   46.46
  -1  20  -3  259.58   37.23
   1 -20   3  317.37   36.98
  -1  20  -4 1364.94  111.68
   1 -20   4 1860.76  128.89
   1  20   4 1560.85  100.95
  -1  20  -4 1510.60  116.67
  -1  20  -4 1402.82  103.59
   1  20   4 1513.45   98.60
   1 -20   4 1315.59  100.65
   1  20   4 1202.31  102.70
  -1  20  -4  995.27  100.40
  -1 -20  -4 1340.69  109.23
  -1 -20  -4 1658.46  120.21
   1  20   5  192.77   25.00
  -1  20  -5  167.12   27.20
   1  20   5  181.99   27.20
  -1 -20  -5  157.99   30.89
   1  20   5  125.10   26.10
   1 -20   5  237.98   40.77
  -1  20  -5  120.21   26.65
  -1 -20  -5  155.19   31.09
   1 -20   5  138.33   18.31
  -1  20  -5  177.00   33.13
  -1  20  -5  173.61   33.68
   1 -20   6   19.91   18.86
   1  20   6    3.04   10.63
   1  20   6   12.92   10.78
  -1  20  -6   12.53   12.18
   1  20   6    3.14    8.08
  -1 -20  -6    8.68   11.83
  -1 -20  -6    5.49   11.63
  -1  20  -6   14.57   15.82
  -1  20  -6   18.21   11.13
  -1  20  -6    4.99   11.28
   1  20   7   32.49   16.52
  -1  20  -7   51.55   17.52
   1 -20   7   47.56   22.46
   1  21  -7   75.30   17.86
  -1  21   7   71.06   18.71
   1 -21  -7   47.46   17.86
  -1  21   7   61.43   20.66
  -1  21   7   58.38   22.21
   1  21  -6    8.98   10.53
   1  21  -6   12.18    9.33
  -1  21   6   10.13   13.47
  -1  21   6   29.94   15.62
   1  21  -6   19.31   12.92
  -1  21   6   28.84   14.02
   1  21  -6   11.63   12.33
   1 -21  -6   19.41   15.37
   1 -21  -6   20.21   14.02
  -1  21   6   19.46   13.77
  -1  21   5   30.39   13.02
   1  21  -5   19.16   11.23
  -1  21   5   27.94   13.62
  -1  21   5   15.57   13.02
   1 -21  -5   34.13   15.87
  -1  21   5   35.48   15.32
   1 -21  -5   27.25   14.07
   1  21  -5   15.87   12.13
   1  21  -5   13.12    9.13
   1 -21  -4   32.39   14.37
  -1  21   4    7.78    9.23
  -1  21   4   10.68   11.63
   1  21  -4    8.03    8.18
   1  21  -4    3.09    9.13
   1  21  -4    3.89    7.93
   1  21  -4   19.21   12.77
  -1  21   4    1.45   10.58
  -1  21   4   10.48    9.73
   1 -21  -4    8.08    8.88
   1 -21  -3   72.96   17.86
  -1  21   3   48.80   17.27
   1 -21  -3   77.65   20.31
   1  21  -3   58.33   17.42
  -1  21   3   65.12   19.81
   1  21  -3   55.89   15.32
  -1  21   3   73.10   19.96
  -1  21   3   68.51   14.92
  -1  21   2  492.37   41.12
   1 -21  -2  464.03   51.00
   1  21  -2  432.39   47.26
   1 -21  -2  490.73   50.20
  -1  21   2  509.34   51.90
  -1  21   2  490.43   54.24
   1  21  -2  380.49   42.62
  -1  21   2  414.63   48.25
  -1 -21   2  394.17   38.02
  -1 -21   1   67.57   12.28
   1  21  -1   89.92   19.71
  -1  21   1   66.92   19.36
   1 -21  -1   71.56   20.86
  -1  21   1   68.71   18.86
   1  21  -1   53.94   14.92
   1 -21  -1   73.30   18.01
   1  21   0   32.78   13.07
   1  21   0   26.85    7.24
  -1  21   0   32.78   13.97
   1 -21   0   18.16   11.28
   1  21   0   27.10   13.62
  -1 -21   0   28.14   11.98
  -1  21   0   36.53   14.82
   1  21   1  174.25   26.00
  -1 -21  -1  158.34   28.24
  -1  21  -1  170.51   28.64
  -1  21  -1  150.00   28.94
   1  21   1  161.83   18.71
  -1  21  -1  186.88   30.84
  -1 -21  -2  302.15   44.41
  -1  21  -2  236.53   37.03
   1  21   2  266.52   27.10
   1  21   2  292.07   33.13
  -1  21  -2  179.94   30.19
   1 -21   2  227.10   29.24
  -1 -21  -2  298.16   39.17
  -1  21  -2  267.07   36.18
   1  21   3   10.08    8.33
   1  21   3    5.09   10.18
  -1 -21  -3    8.93   10.13
  -1  21  -3   22.46   14.17
   1 -21   3    5.99    5.89
   1 -21   3    6.09    9.18
  -1  21  -3   11.13   10.53
   1  21   3   16.32   11.68
  -1  21  -3    1.65   11.88
  -1 -21  -3    3.69   10.83
  -1  21  -3   13.02    8.58
   1  21   4   20.41   13.37
  -1  21  -4   15.02   13.67
  -1  21  -4   55.99   17.02
   1 -21   4   30.04    8.43
  -1 -21  -4   27.10   14.17
   1 -21   4   18.06   10.98
  -1 -21  -4   27.84   15.82
   1  21   4   28.94   11.98
  -1  21  -4   35.03   18.16
  -1  21  -4   25.80   12.77
   1  21   4   36.48   13.32
   1 -21   5  178.84   36.93
  -1  21  -5  119.36   28.14
  -1  21  -5  131.69   30.54
   1  21   5  127.10   21.01
  -1  21  -5  112.08   23.40
  -1 -21  -5  113.82   27.05
  -1  21  -5   99.60   24.85
  -1 -21  -5  139.42   30.69
   1  21   5  156.39   25.40
   1  21   5   80.09   22.31
   1 -21   6  130.64   33.88
  -1  21  -6   88.08   21.31
  -1  21  -6   73.35   23.85
   1  21   6   57.89   20.46
  -1  21  -6   50.60   19.41
  -1  21  -7   75.00   19.86
  -1  22   7    5.64   10.18
  -1  22   7    3.74   13.47
   1 -22  -7   -1.75   10.83
  -1  22   6 1407.61  115.37
   1 -22  -6 1533.16  117.32
  -1  22   6 1670.88  110.68
  -1  22   6 1379.36  116.87
  -1  22   6 1697.43  113.97
   1  22  -6 1517.54  105.49
   1 -22  -6 1465.59  117.87
   1 -22  -5   54.99   20.31
   1  22  -5   52.15   17.17
  -1  22   5   72.96   18.76
  -1  22   5  100.05   23.40
  -1  22   5   67.02   18.06
   1 -22  -5   68.56   19.76
  -1  22   5   51.85   20.71
   1  22  -5   54.29   17.81
   1  22  -5   70.71   17.22
   1  22  -4  253.95   37.18
  -1  22   4  343.02   45.76
   1 -22  -4  349.76   42.96
  -1  22   4  311.83   42.91
  -1  22   4  350.70   37.28
  -1  22   4  387.18   42.57
   1 -22  -4  349.81   45.66
   1  22  -4  338.38   42.82
   1  22  -4  294.42   36.18
   1  22  -3   65.72   15.97
  -1  22   3  101.30   21.31
   1  22  -3   54.19   16.42
   1 -22  -3   39.52   16.67
   1 -22  -3   52.60   16.82
  -1  22   3   44.96   17.17
  -1  22   3   70.01   21.21
  -1  22   3   52.60   14.12
  -1  22   2 3964.38  227.10
  -1  22   2 3431.44  239.08
  -1 -22   2 3304.09  222.86
   1  22  -2 4174.91  242.07
  -1  22   2 4557.05  247.26
   1  22  -2 3588.58  233.09
  -1  22   2 3749.96  245.46
   1 -22  -2 3966.38  242.42
   1 -22  -2 4057.69  247.16
  -1 -22   1   18.26    7.14
   1 -22  -1   44.91   14.67
   1 -22  -1   22.26   13.67
   1  22  -1   15.17   10.18
  -1  22   1   16.82   12.28
   1  22  -1   32.19   14.52
  -1  22   0   91.27   21.86
   1  22   0   87.38   20.01
  -1  22   0   88.52   22.21
  -1  22   0  113.23   24.50
  -1 -22   0   91.52   21.46
   1  22   0   66.12   17.81
   1 -22   0  148.65   27.70
  -1 -22  -1  379.60   47.16
  -1  22  -1  429.00   49.60
   1  22   1  508.04   46.26
  -1  22  -1  415.67   46.46
  -1  22  -1  389.18   48.75
   1  22   1  427.10   33.93
   1  22   1  272.76   38.62
   1 -22   1  338.08   36.83
  -1  22  -2 7031.24  380.39
   1 -22   2 5418.69  363.08
  -1  22  -2 4714.04  366.12
  -1  22  -2 6147.75  383.29
  -1 -22  -2 6290.41  380.84
   1  22   2 7381.90  373.41
   1  22   2 7192.32  361.03
   1  22   3   28.49   13.07
   1  22   3    3.14    7.19
  -1  22  -3    3.39   12.92
  -1  22  -3   10.23   10.88
  -1 -22  -3    9.78   14.52
   1 -22   3   20.11    7.93
   1 -22   3   -2.10    8.13
  -1  22  -3    8.03    9.13
  -1  22  -3   15.12   12.48
   1  22   3    6.64   10.13
  -1 -22  -3   31.09   14.47
  -1 -22  -4  522.56   58.23
   1  22   4  579.05   49.20
  -1  22  -4  548.56   61.53
   1  22   4  506.44   46.61
  -1  22  -4  528.70   52.00
   1  22   4  409.69   50.05
  -1  22  -4  375.60   48.75
   1 -22   4  460.84   48.30
  -1 -22  -4  570.77   64.72
  -1  22  -4  378.40   52.00
  -1  22  -5 3768.32  226.70
  -1  22  -5 2691.96  224.25
  -1 -22  -5 3511.38  236.08
  -1  22  -5 3130.44  232.34
  -1 -22  -5 4016.93  246.76
  -1  22  -5 3560.78  239.32
   1  22   5 3091.96  226.60
   1  22   5 3882.69  223.46
   1  22   5 4092.58  220.06
  -1  22  -6 3004.14  200.90
   1  22   6 3205.04  202.85
   1 -23  -7   58.68   20.61
  -1  23   7   90.12   20.61
   1  23  -6  495.07   50.15
   1 -23  -6  521.61   61.03
  -1  23   6  485.29   59.93
  -1  23   6  562.18   56.19
  -1  23   6  571.12   55.24
   1  23  -5   95.71   25.15
  -1  23   5   82.19   19.16
   1  23  -5   71.36   17.96
   1  23  -5   46.46   16.87
  -1  23   5  100.00   22.31
  -1  23   5   82.69   22.06
   1 -23  -5   76.55   23.50
   1 -23  -5   75.95   21.81
  -1  23   5   63.72   21.71
   1  23  -4 2400.83  156.44
  -1  23   4 2517.70  154.99
   1 -23  -4 2429.88  169.81
  -1  23   4 2372.69  169.06
   1 -23  -4 2550.44  166.67
  -1  23   4 2170.94  163.87
  -1  23   4 2817.71  166.02
   1  23  -4 2488.56  166.17
  -1  23   3   50.30   18.41
  -1  23   3   52.75   18.51
   1 -23  -3   59.53   19.71
   1 -23  -3   66.87   18.61
   1  23  -3   38.12   13.62
  -1  23   3   42.52   17.57
   1  23  -3   43.66   16.32
  -1  23   3   56.69   14.57
   1 -23  -2  527.05   56.69
   1 -23  -2  474.26   51.85
   1  23  -2  428.70   48.70
   1  23  -2  386.48   44.46
  -1  23   2  427.70   50.45
  -1  23   2  433.04   53.44
  -1  23   2  502.90   42.72
  -1  23   2  553.10   55.59
  -1 -23   2  418.97   39.87
   1  23  -1   43.56   15.72
  -1  23   1   25.75   14.72
   1 -23  -1    7.83   10.33
  -1  23   1   52.55   17.91
   1  23  -1    6.79   10.23
  -1 -23   1    5.29    5.29
   1 -23  -1   29.59   14.12
  -1  23   0 1982.76  146.21
  -1 -23   0 2003.87  148.51
   1  23   0 2284.81  146.11
  -1  23   0 2402.83  155.59
   1 -23   0 2455.87  157.29
   1  23   0 1772.98  138.97
  -1  23   0 2073.13  152.40
   1  23   1   28.69   13.82
  -1  23  -1   30.14   14.27
  -1  23  -1   14.92   12.28
   1  23   1   15.67    7.63
   1  23   1    1.20    8.63
  -1 -23  -1    6.19    9.88
  -1  23  -1    9.63   10.78
   1 -23   1    1.85    7.63
   1 -23   2  867.73   75.55
  -1  23  -2 1069.58   93.46
  -1  23  -2  798.27   79.19
   1  23   2 1227.51   85.28
   1  23   2 1117.63   73.35
  -1  23  -2 1144.88   88.97
  -1  23  -3  288.48   41.62
  -1  23  -3  410.54   46.51
  -1  23  -3  439.23   53.44
   1 -23   3  395.66   41.97
  -1 -23  -3  533.94   62.73
   1  23   3  410.78   38.62
  -1  23  -3  385.24   50.75
   1  23   3  501.80   46.46
   1  23   3  320.36   42.91
   1  23   4  570.97   51.05
  -1  23  -4  606.25   58.08
   1 -23   4  525.56   53.14
  -1  23  -4  628.85   67.02
  -1 -23  -4  645.52   71.56
   1  23   4  674.56   55.09
  -1  23  -4  499.06   60.78
   1  23   4  455.65   54.89
  -1  23  -4  438.33   54.39
   1  23   5    3.29   10.88
  -1  23  -5    4.89   11.08
   1  23   5    4.89   10.38
  -1 -23  -5    6.24   13.67
  -1  23  -6  231.79   34.83
   1  23   6  258.04   35.78
   1 -24  -6  238.18   40.42
   1  24  -6  216.97   31.19
  -1  24   6  259.68   35.83
  -1  24   6  231.49   34.93
  -1  24   5   39.82   18.76
   1  24  -5   96.91   20.61
  -1  24   5   54.94   16.82
  -1  24   5   82.69   20.86
   1 -24  -5   96.66   24.85
  -1  24   4   87.63   19.01
   1 -24  -4   90.22   24.10
  -1  24   4  106.39   24.95
   1 -24  -4  105.89   27.40
  -1  24   4   55.44   20.46
   1  24  -4   82.84   19.86
   1  24  -4   95.76   23.90
  -1  24   4   92.82   25.65
   1  24  -4   51.20   17.47
  -1  24   3  101.05   23.35
  -1  24   3   83.28   17.02
  -1  24   3   56.29   19.46
   1  24  -3   73.40   20.61
   1  24  -3   76.10   18.61
   1 -24  -3   87.03   21.46
   1 -24  -3   81.89   23.60
  -1  24   3   92.17   23.10
   1  24  -2  120.96   22.95
  -1  24   2  119.61   19.36
  -1 -24   2   94.26   17.32
   1 -24  -2   99.10   23.40
  -1  24   2  119.16   25.25
  -1  24   2  126.05   27.84
  -1  24   2  155.09   29.24
   1 -24  -2  135.68   29.29
   1  24  -2   90.97   22.61
   1 -24  -1   38.12   15.42
  -1  24   1   36.33   17.32
  -1  24   1   16.87   14.07
   1  24  -1   13.02   10.73
  -1 -24   1   19.91    8.33
   1  24  -1   41.72   16.67
   1 -24  -1   16.57   13.57
  -1 -24   0   74.40   21.46
  -1  24   0   25.35   17.32
  -1  24   0   33.83   19.76
  -1  24   0   40.02   18.06
   1  24   0    8.43   10.33
   1  24   0   32.49   15.97
   1  24   1   24.70   12.82
   1  24   1   22.26    8.33
   1  24   1   28.84   13.77
  -1  24  -1   56.04   19.66
  -1  24  -1   22.75   13.27
   1 -24   1   10.38    8.58
  -1  24  -1   15.67   14.87
  -1  24  -2  398.61   47.56
   1 -24   2  331.34   38.72
   1  24   2  428.10   36.43
  -1  24  -2  393.52   51.35
  -1  24  -2  296.21   40.87
   1  24   2  492.97   47.21
  -1 -24  -3  104.24   29.49
   1  24   3   92.22   16.97
  -1  24  -3   65.32   22.21
  -1  24  -3   55.64   18.11
  -1  24  -3   96.66   25.70
   1  24   3   92.57   20.26
  -1  24  -3   80.44   20.21
   1 -24   3   57.49   16.77
   1  24   3   58.33   19.01
  -1 -24  -4   15.47   15.97
   1  24   4   17.17   11.98
   1  24   4   19.76   11.13
  -1  24  -4   13.57   12.03
  -1  24  -4   13.92   11.78
  -1  24  -5  524.86   55.69
   1  24   5  560.09   53.09
  -1  25   6   82.44   21.41
  -1  25   6   74.35   22.95
   1 -25  -5   18.76   15.97
  -1  25   5   22.95   14.37
  -1  25   5   16.07   11.23
   1  25  -5   17.81   11.48
   1  25  -4 2445.59  166.12
   1 -25  -4 2734.72  183.79
  -1  25   4 2684.92  164.27
   1  25  -3  222.26   34.63
   1  25  -3  188.03   29.49
  -1  25   3  214.27   27.30
   1 -25  -3  204.84   34.83
  -1  25   3  166.77   32.34
  -1  25   3  205.04   36.53
   1 -25  -3  214.17   38.07
   1 -25  -2  467.52   56.59
   1  25  -2  452.10   48.05
  -1  25   2  390.47   50.30
  -1  25   2  453.90   56.44
   1  25  -2  494.07   52.89
   1 -25  -2  473.36   53.34
   1 -25  -1  432.64   53.74
  -1  25   1  440.87   54.09
  -1  25   1  455.30   53.19
   1  25  -1  351.55   43.21
   1  25  -1  431.49   48.65
  -1  25   0 3214.57  218.02
   1  25   0 3784.34  219.71
  -1  25   0 3222.60  224.70
  -1  25   0 4111.44  231.64
   1  25   0 2818.75  209.78
   1  25   1  130.59   25.05
  -1  25  -1  138.28   29.54
   1 -25   1  103.15   19.76
  -1  25  -1  112.73   24.80
   1  25   1  104.19   23.00
  -1  25  -1  128.49   28.64
   1  25   2    8.48   12.87
   1 -25   2   20.71   10.88
  -1  25  -2    2.89   10.83
  -1  25  -2    5.49   12.08
  -1  25  -2   10.83   11.03
   1  25   3  835.19   61.93
   1  25   3  915.13   71.46
  -1  25  -3  811.69   80.44
   1 -25   3  760.64   66.37
  -1  25  -3  574.01   66.07
  -1  25  -3  780.90   71.91
   1  25   4 2149.03  136.43
  -1  25  -4 2046.59  141.47
   1  25   4 1987.25  130.54
  -1 -25  -4 2360.56  167.42
   1  26  -5  670.67   62.88
  -1  26   5  720.97   63.57
  -1  26   4  127.25   27.15
   1  26  -4  125.30   24.15
   1 -26  -4  106.44   28.99
  -1  26   4  103.49   20.86
  -1  26   3  375.11   37.58
   1 -26  -3  356.69   50.50
   1  26  -3  285.68   38.52
   1 -26  -2 3373.70  218.12
  -1  26   2 3013.02  213.13
   1 -26  -2 3015.71  207.49
   1  26  -2 2603.08  196.06
   1  26  -2 3324.75  208.49
  -1  26   2 3701.30  215.07
   1 -26  -1   83.04   25.30
   1  26  -1   99.30   24.05
   1  26  -1   60.13   17.57
  -1  26   1  112.88   26.70
   1  26   0   96.01   23.85
  -1  26   0   96.66   26.20
  -1  26   0  101.45   24.25
   1  26   0   63.92   19.21
  -1  26   0  112.03   27.20
  -1  26  -1  551.60   64.37
   1  26   1  501.16   54.94
  -1  26  -1  615.78   61.58
   1  26   1  730.35   62.38
   1 -26   1  502.25   49.75
  -1  26  -2  588.38   60.63
   1  26   2  664.78   59.23
   1  26   3   55.89   17.42
  -1  26  -3   24.00   13.87
   1  26   4  153.35   26.65
   1  27  -1   20.76   14.72
   1  27   0  215.57   34.03
  -1  27  -1  320.56   42.86
   1  27   1  529.10   52.55
   1  27   2  494.17   50.70
  -1  27  -2  302.20   42.22
   1  27   3    7.73   13.02
  -1  28  -1   23.75   13.32
  -2   0  11 4015.83  236.13
  -2   0  11 3020.60  182.69
   2   0 -10   23.75   11.38
  -2   0  10   33.18   26.50
   2   0 -10   35.93   14.77
  -2   0  10   45.31   22.01
  -2   0   9  388.83   62.83
   2   0  -9  155.74   26.10
  -2   0   9  333.84   44.21
   2   0  -9  233.14   31.69
  -2   0   8 8160.75  387.18
   2   0  -8 4918.59  319.42
   2   0  -8 6004.18  326.35
  -2   0   8 4745.08  302.75
  -2   0   8 8372.08  355.64
   2   0  -8 6309.87  324.61
   2   0  -7 1655.06  113.47
   2   0  -7 2008.31  115.52
  -2   0   7 2185.16  148.65
   2   0  -7 1929.17  117.12
  -2   0   7 1525.62   99.35
  -2   0   6  118.91   25.10
   2   0  -6   99.00   15.02
   2   0  -6   87.78   15.42
   2   0  -6   90.87   15.37
   2   0  -5  205.09   23.05
   2   0  -5  225.55   23.65
  -2   0   5  228.60   27.79
   2   0  -5  230.84   22.70
  -2   0   5  232.54   31.59
   2   0  -4 7147.11  389.88
   2   0  -4 6629.39  387.23
  -2   0   4 6648.35  399.46
   2   0  -4 6419.16  389.93
  -2   0   3  253.45   25.45
   2   0  -3  243.52   19.61
   2   0  -3  247.41   22.26
   2   0  -3  247.96   20.41
   2   0  -2  765.73   51.10
  -2   0   2  816.28   47.61
   2   0  -2  769.17   46.56
  -2   0   2  804.40   52.89
   2   0  -1 1007.85   59.18
  -2   0   1  959.15   60.38
   2   0  -1  957.55   59.43
  -2   0   1 1023.57   60.13
  -2   0   0 5359.11  272.06
   2   0   0 4557.60  270.71
  -2   0   0 5054.96  271.06
   2   0   0 4647.87  274.21
   2   0   1  121.51    8.83
   2   0   1  106.99   12.82
  -2   0  -1  112.63   14.27
  -2   0  -1  113.67    9.53
  -2   0  -1  114.27   12.33
   2   0   2 2320.79  154.84
   2   0   2 2713.46  156.19
  -2   0  -2 2831.53  157.44
  -2   0  -2 2891.81  162.68
  -2   0  -2 2493.25  150.35
  -2   0  -2 2840.86  158.09
  -2   0  -3 1812.75   69.21
   2   0   3 1956.42   76.90
   2   0   4 3592.97  222.46
  -2   0  -4 4032.74  229.15
  -2   0  -5  720.02   47.06
  -2   0  -5  543.62   26.50
  -2   0  -6 2025.28  123.01
  -2   0  -6 1496.93  101.35
  -2   0  -7 3903.55  248.01
   2   0   7 4271.82  254.89
  -2   0  -8  785.19   65.52
   2   0   8  896.72   71.21
   2   0   8 1218.08   86.58
  -2   0  -8 1153.16   89.37
   2   0   9  577.30   58.93
   2   0   9  417.67   43.86
  -2   0  -9  523.61   59.68
  -2  -1  11   24.60   20.51
  -2   1  11   58.68   32.19
   2   1 -11   25.20   13.02
  -2  -1  11   66.57   34.28
   2  -1 -11   12.03   10.98
  -2   1  11   25.55   19.21
   2  -1 -10  417.92   47.41
   2  -1 -10  305.94   39.77
  -2   1  10  740.68   89.82
   2   1 -10  376.10   44.96
  -2  -1  10  667.08   86.88
  -2   1  10  461.83   56.49
  -2  -1  10  553.15   62.83
   2   1 -10  260.08   37.78
  -2  -1   9  163.23   42.86
  -2   1   9  144.46   29.54
   2   1  -9  103.15   21.21
   2  -1  -9   83.88   18.76
   2   1  -9  102.00   20.11
   2  -1  -9  145.46   24.55
  -2  -1   9  227.35   37.82
  -2   1   9  124.40   14.32
   2   1  -9  105.79   20.61
  -2   1   9  161.93   41.47
   2  -1  -8  796.12   71.86
  -2   1   8 1536.40  120.36
  -2   1   8 1313.09   94.66
   2  -1  -8 1035.24   78.59
  -2   1   8  884.05   59.68
   2   1  -8 1123.27   78.05
  -2  -1   8 1397.08  117.32
  -2   1   8  932.85   65.62
   2   1  -8 1045.72   78.69
  -2  -1   8 1432.56   99.15
   2   1  -8  869.82   73.80
  -2   1   7   33.28    8.08
   2   1  -7   35.48   10.98
  -2   1   7   37.82    5.69
   2   1  -7   47.31   12.53
   2  -1  -7   43.11   10.93
  -2   1   7   40.42   18.31
   2   1  -7   44.96   12.03
   2  -1  -7   45.06   12.48
  -2  -1   7   50.00   19.86
   2  -1  -7   62.73   13.62
  -2  -1   6 4045.97  139.82
  -2   1   6 3921.96  113.08
  -2   1   6 3962.38  136.53
  -2   1   6 3224.55   60.18
   2  -1  -6 3920.37   87.63
   2  -1  -6 3380.44   87.13
  -2   1   6 3204.19   42.12
   2  -1  -6 3888.08   93.46
   2   1  -6 3636.78   86.63
   2   1  -6 3302.79   86.63
   2   1  -6 3939.88   94.21
  -2   1   5  971.37   60.88
   2  -1  -5 1074.12   70.51
   2  -1  -5 1132.85   73.20
   2   1  -5 1088.59   71.51
  -2  -1   5 1233.15   87.73
  -2   1   5 1255.01   80.99
   2  -1  -5 1052.76   72.96
  -2   1   5 1045.08   64.12
  -2  -1   5 1356.31   84.18
   2   1  -5  991.48   71.91
  -2   1   5 1195.33   86.88
  -2  -1   4 1925.78  117.52
  -2   1   4 2035.46  112.98
   2  -1  -4 1713.45  107.84
   2   1  -4 1687.95  107.59
  -2   1   4 1547.78   98.90
   2  -1  -4 1823.28  106.94
   2  -1  -4 1833.06  104.89
  -2   1   4 1901.13  118.37
   2   1  -4 1775.77  105.64
  -2   1   3  725.66   52.15
   2   1  -3  650.11   45.51
   2  -1  -3  638.13   42.27
   2  -1  -3  676.16   43.96
   2   1  -3  620.52   43.76
   2  -1  -3  730.50   40.07
  -2   1   3  639.48   40.52
   2  -1  -3  663.38   47.31
  -2   1   3  670.97   45.96
  -2  -1   3  641.28   49.20
  -2  -1   2 2804.63  175.55
   2   1  -2 2932.78  174.50
   2  -1  -2 2882.58  175.95
  -2   1   2 2856.93  177.60
   2  -1  -2 3143.31  170.36
   2  -1  -2 3062.97  171.01
  -2   1   2 3170.71  172.66
   2  -1  -2 3067.61  171.51
   2   1  -2 3204.04  170.66
   2   1  -1 2842.46  150.05
   2   1  -1 2665.46  150.60
  -2   1   1 2706.78  151.40
   2  -1  -1 2626.59  150.35
  -2   1   1 2634.62  151.70
   2  -1  -1 2416.15  150.05
   2  -1   0  467.52   28.84
   2   1   0  463.58   30.44
   2   1   0  439.08   27.60
   2   1   0  442.12   27.25
  -2  -1   0  449.61   27.84
  -2  -1   0  436.88   28.49
  -2   1   0  446.91   30.04
   2  -1   1 2193.05  115.52
  -2   1  -1 2006.17  117.47
  -2  -1  -1 1917.09  122.86
  -2  -1  -1 1989.40  119.51
  -2   1  -1 1901.92  122.76
   2  -1   1 1982.91  119.71
   2   1   1 2060.56  120.21
  -2  -1  -2  887.39   55.54
  -2   1  -2  966.63   64.12
   2  -1   2  918.23   63.27
  -2  -1  -2 1032.55   64.72
  -2  -1  -2 1022.02   69.11
   2   1   2  893.78   62.43
  -2   1  -2  918.48   60.08
   2   1   2  954.26   63.22
   2  -1   2 1034.90   64.07
  -2   1  -3  210.58   21.66
   2  -1   3  105.84   16.82
  -2   1  -3  184.43   21.81
   2   1   3  165.72   19.36
  -2  -1  -3  176.25   21.36
  -2  -1  -3  170.96   13.62
  -2  -1  -3  181.39   24.25
  -2   1  -3  174.95   18.71
   2  -1   3  165.02   19.51
   2  -1   4 1334.75   86.53
  -2  -1  -4 1214.39   76.60
   2   1   4 1277.36   85.78
  -2   1  -4 1405.61   91.17
  -2  -1  -4 1472.08   92.77
  -2   1  -4 1126.21   83.23
  -2  -1  -5 1577.37   43.91
  -2  -1  -5 1969.19   78.24
  -2   1  -5 1855.27   74.80
  -2   1  -6   82.14   13.17
  -2   1  -6  118.41   21.31
  -2  -1  -6   81.99   12.53
  -2  -1  -6  108.93   20.96
  -2  -1  -6  125.90   24.75
   2   1   7  751.76   62.18
  -2   1  -7  555.75   47.90
   2  -1   7  637.78   53.69
  -2  -1  -7  572.96   47.66
  -2  -1  -7  778.16   67.12
  -2  -1  -7  730.10   68.16
  -2   1  -7  704.25   64.52
   2   1   7  628.30   53.09
  -2  -1  -8   22.21   11.78
  -2   1  -8   24.80   12.62
   2  -1   8    9.23    7.68
  -2   1  -8    9.08    6.04
   2   1   8    4.54    6.24
   2  -1   8    4.09    9.58
   2   1   8   15.97   11.98
  -2  -1  -8   11.63    7.24
  -2   1  -9  784.89   74.80
   2  -1   9  608.14   56.29
  -2  -1  -9  763.58   74.30
   2  -1   9  796.87   71.01
   2   1   9  571.02   55.29
   2   1   9  705.90   67.82
   2   2 -11   29.39   13.42
  -2   2  11   35.03   20.21
  -2  -2  11   87.68   37.78
   2  -2 -11   40.02   15.67
  -2   2  11   40.97   30.24
   2   2 -10 1472.68  135.48
  -2   2  10 3537.28  217.92
  -2  -2  10 3768.92  226.20
   2   2 -10 2065.95  145.91
   2  -2 -10 2275.88  150.35
   2  -2 -10 1582.36  136.33
  -2   2  10 2701.89  168.27
  -2  -2  10 2945.00  177.95
  -2   2   9   29.04   22.11
  -2   2   9   13.67    6.84
  -2  -2   9   12.23   20.76
  -2   2   9    8.43   12.53
   2  -2  -9   11.08    8.38
   2   2  -9    4.39    7.04
   2   2  -9   22.85   10.63
   2  -2  -9    4.29    6.84
   2   2  -9   14.52    9.33
  -2  -2   9   15.07   16.37
   2   2  -8  517.42   44.96
  -2   2   8  591.92   70.66
  -2   2   8  352.65   28.69
   2   2  -8  359.39   39.77
  -2  -2   8  574.26   59.13
   2  -2  -8  332.49   38.32
   2   2  -8  442.82   44.01
  -2   2   8  595.17   56.79
  -2   2   8  386.83   36.18
   2  -2  -8  422.61   43.51
  -2  -2   8  646.97   75.70
  -2   2   7    2.00   10.13
   2  -2  -7   12.48    7.09
   2   2  -7   -0.85    5.29
   2  -2  -7   12.53    6.99
   2   2  -7    9.13    6.79
  -2  -2   7   -2.10   10.73
  -2   2   7   15.47    6.44
  -2   2   7    4.74    2.69
   2   2  -7    8.93    7.14
  -2   2   6 1530.76   48.40
  -2   2   6 1933.26   95.46
  -2   2   6 1518.64   32.44
   2   2  -6 1676.77   59.28
  -2  -2   6 1881.07   95.36
  -2   2   6 2036.46   79.49
   2  -2  -6 1827.42   59.13
   2  -2  -6 1768.84   63.57
   2   2  -6 1445.38   57.39
   2  -2  -6 1553.67   58.83
  -2  -2   5  217.27   27.60
  -2   2   5  204.09   28.84
  -2   2   5  220.21   25.65
   2  -2  -5  173.41   21.11
   2  -2  -5  198.41   21.76
   2  -2  -5  212.28   20.86
  -2   2   5  191.27   18.46
  -2  -2   5  184.43   28.04
   2   2  -5  168.52   20.86
   2   2  -5  173.61   20.21
   2   2  -4 4393.68  282.89
  -2  -2   4 4851.72  291.47
   2  -2  -4 4654.61  283.24
  -2   2   4 4707.50  278.65
   2  -2  -4 5032.26  282.69
  -2   2   4 4832.71  293.72
   2   2  -4 4740.09  282.29
  -2   2   4 5911.02  286.23
  -2   2   4 5770.24  288.43
   2  -2  -4 5133.31  280.54
   2   2  -3  133.19   13.92
   2  -2  -3  139.67   13.52
   2  -2  -3  126.55   11.93
  -2  -2   3  146.46   17.07
   2   2  -3  122.01   13.77
  -2   2   3  130.29   12.92
  -2   2   3  153.79   19.01
  -2   2   3  158.83   15.12
   2  -2  -3  126.00   15.82
   2  -2  -3  136.18   11.53
  -2   2   2  116.72   11.93
   2  -2  -2  105.89    8.38
   2  -2  -2  113.28   10.13
   2  -2  -2  126.45   11.33
  -2   2   2  115.37   10.63
   2   2  -2  121.71    9.98
   2   2  -2  133.24   12.33
  -2  -2   2  142.07   13.52
   2   2  -1 1618.79   87.98
  -2   2   1 1425.97   84.73
   2   2  -1 1515.04   88.52
   2  -2  -1 1458.06   88.72
   2  -2  -1 1396.83   88.47
   2  -2  -1 1669.49   84.93
   2   2  -1 1438.59   85.73
  -2   2   1 1479.01   90.22
  -2   2   1 1505.16   90.27
   2  -2   0 4623.42  274.36
   2   2   0 5674.49  272.31
  -2  -2   0 4262.64  274.01
   2   2   0 4671.38  273.26
  -2   2   0 4776.27  276.80
   2  -2   0 5070.68  274.75
   2   2   0 5108.61  275.20
   2  -2   1  131.14   10.98
  -2  -2  -1  124.95   14.92
  -2   2  -1  102.60   11.88
   2   2   1   97.91   10.88
   2  -2   1  116.62   12.72
  -2  -2  -1  103.20   12.18
  -2  -2  -2 1446.13   96.61
  -2   2  -2 1498.62   92.37
  -2   2  -2 1572.88   98.11
   2  -2   2 1363.84   90.87
   2   2   2 1547.68   89.97
  -2   2  -2 1321.28   89.52
  -2  -2  -2 1490.79   92.67
   2  -2   2 1579.61   92.42
   2   2   2 1315.49   90.52
  -2   2  -3 3256.93  205.29
  -2   2  -3 3788.98  208.09
  -2  -2  -3 3474.65  195.71
  -2  -2  -3 3852.55  216.92
   2  -2   3 3892.62  209.33
  -2  -2  -3 3782.64  210.78
   2  -2   3 3252.59  205.29
   2   2   3 3169.46  204.94
   2  -2   4  645.77   48.75
  -2   2  -4  584.74   48.15
  -2   2  -4  682.00   52.99
  -2  -2  -4  695.32   54.44
  -2   2  -4  784.04   51.65
  -2  -2  -4  618.32   40.12
  -2  -2  -4  478.50   51.90
   2   2   4  441.17   44.11
   2   2   5    0.70    2.74
  -2   2  -5   18.51    7.39
  -2   2  -5    7.98    8.13
   2  -2   5    2.20    3.74
  -2  -2  -5   11.58    8.43
  -2  -2  -6  282.49   36.53
  -2   2  -6  132.39   21.86
  -2  -2  -6  171.81   19.11
  -2  -2  -6  240.32   31.84
  -2   2  -6  209.23   29.24
  -2   2  -6  170.91   20.31
  -2  -2  -7  615.33   48.95
   2  -2   7  680.75   55.29
  -2   2  -7  750.61   65.97
   2   2   7  630.10   53.64
   2   2   7  789.23   63.62
  -2  -2  -7  784.94   70.46
  -2   2  -7  539.28   48.55
  -2  -2  -7  831.15   69.31
  -2   2  -7  524.96   52.80
   2  -2   8  132.39   21.46
  -2  -2  -8  182.24   31.69
  -2   2  -8  166.07   31.19
  -2  -2  -8  178.60   32.88
  -2   2  -8  174.85   30.24
  -2   2  -8  100.95   17.76
   2   2   8  167.72   28.24
   2   2   8  129.99   21.16
  -2  -2  -8  137.68   19.36
  -2  -2  -9  396.76   52.70
   2   2   9  391.52   46.66
   2  -2   9  309.44   36.33
   2   2   9  296.51   35.98
  -2  -2  -9  393.12   51.05
  -2   2  -9  435.09   52.10
   2  -2   9  445.02   50.35
   2  -3 -11    1.35    8.13
   2   3 -11    3.84    9.78
  -2  -3  11   21.06   24.60
  -2   3  11    2.00   11.88
   2   3 -11    8.23    9.03
  -2   3  10 3469.41  209.33
   2  -3 -10 1516.29  128.30
   2   3 -10 2008.41  137.43
   2   3 -10 1456.31  128.20
  -2  -3  10 3492.67  215.57
   2   3 -10 1923.88  137.63
   2  -3 -10 2038.85  140.42
  -2   3  10 2409.42  156.29
  -2   3   9  345.51   57.04
   2  -3  -9  158.04   25.95
   2  -3  -9  201.15   30.44
  -2   3   9  287.93   40.12
   2   3  -9  237.23   31.34
   2   3  -9  205.14   29.99
  -2   3   9  218.17   26.30
   2   3  -9  160.73   26.30
  -2   3   8   21.16    9.53
  -2   3   8   33.13   15.17
   2   3  -8   24.80   10.38
  -2   3   8   25.60    5.94
  -2  -3   8   26.30   21.01
  -2  -3   8   23.90   16.47
   2  -3  -8   12.67    8.08
  -2   3   8   41.07   21.01
   2  -3  -8   24.85   11.28
   2   3  -8   47.06   14.22
   2   3  -8   42.32   12.77
  -2   3   7  296.86   23.50
  -2  -3   7  376.80   51.80
  -2   3   7  286.78   30.44
   2  -3  -7  300.00   32.49
   2   3  -7  270.11   31.74
  -2   3   7  423.51   53.09
   2  -3  -7  316.42   34.38
   2   3  -7  301.95   32.69
   2   3  -6 2373.24  166.27
   2   3  -6 2737.67  167.82
  -2   3   6 3046.00  190.02
  -2  -3   6 3183.73  193.42
   2  -3  -6 2418.60  166.52
  -2   3   6 3333.93  179.24
  -2   3   6 2570.20  164.32
   2  -3  -6 3014.91  170.91
  -2  -3   5  209.73   29.54
   2  -3  -5  211.83   23.45
  -2   3   5  241.07   32.09
  -2   3   5  230.64   23.65
   2   3  -5  210.13   22.90
  -2   3   5  227.45   26.30
  -2   3   5  225.50   22.80
   2  -3  -5  209.08   23.65
   2  -3  -4 1572.48  103.84
  -2   3   4 1646.93  112.83
  -2  -3   4 1662.45  110.18
   2   3  -4 1562.65  102.90
   2  -3  -4 1649.43  102.85
  -2   3   4 1711.45  102.90
  -2   3   4 1744.14  105.69
  -2   3   4 1778.22  104.79
  -2  -3   3   15.02    5.39
   2  -3  -3   19.16    4.79
   2   3  -3   19.36    2.89
   2   3  -3    9.28    4.04
  -2   3   3   11.78    4.49
  -2   3   3   18.41    5.14
  -2   3   3   12.33    4.14
   2  -3  -2 3658.34  195.61
  -2  -3   2 3022.80  196.76
  -2   3   2 3383.93  196.01
   2   3  -2 3203.09  195.46
   2  -3  -2 4148.51  198.51
  -2   3   2 3694.17  200.05
   2  -3  -1  128.74   13.47
  -2   3   1  141.22   11.43
   2   3  -1  134.23   12.03
   2  -3  -1  162.98   14.42
  -2   3   1  138.53   14.67
  -2  -3   1  156.89   13.07
  -2   3   1  132.44   14.72
   2  -3  -1  144.71   11.33
   2   3   0  878.11   51.55
   2  -3   0  844.47   52.85
  -2  -3   0  835.99   52.65
  -2   3   0  865.68   55.54
   2   3   0  831.15   51.60
   2  -3   0  856.05   51.65
  -2   3   0  882.90   54.24
  -2  -3   0  804.80   52.75
  -2   3  -1 1267.98   80.49
   2  -3   1 1302.26   74.30
   2  -3   1 1264.04   76.50
  -2   3  -1 1165.39   77.50
   2   3   1 1161.00   74.40
  -2  -3  -1 1258.40   77.25
  -2  -3  -1 1218.38   79.49
  -2  -3  -2 3391.87  206.94
   2   3   2 3138.62  200.15
   2  -3   2 2967.31  199.65
  -2   3  -2 3616.07  202.55
   2   3   2 3676.55  199.45
  -2  -3  -2 3660.73  203.35
  -2   3  -2 3698.76  208.34
   2  -3   2 3835.74  202.65
  -2   3  -2 3265.27  201.30
  -2   3  -3  564.98   48.10
   2   3   3  541.03   46.56
   2  -3   3  605.10   47.71
  -2  -3  -3  659.49   55.54
  -2   3  -3  753.25   57.14
  -2   3  -3  706.15   49.80
  -2  -3  -3  661.04   51.35
  -2  -3  -3  625.01   39.12
   2  -3   3  692.18   50.35
  -2  -3  -4   95.76    9.73
  -2   3  -4  125.20   21.06
   2  -3   4   92.52   14.47
  -2  -3  -4  117.97   18.81
  -2   3  -4  101.95   16.17
  -2   3  -4  129.49   16.92
  -2   3  -5 2805.23   92.62
  -2  -3  -5 2907.88   98.06
  -2   3  -6  230.89   32.83
  -2  -3  -6  191.77   20.76
  -2   3  -6  232.94   31.09
  -2  -3  -6  229.44   32.09
  -2   3  -6  148.46   23.95
   2   3   6  200.35   27.70
  -2  -3  -6  261.43   36.23
   2  -3   7  235.33   28.84
   2   3   7  221.01   27.74
  -2   3  -7  292.17   37.63
  -2   3  -7  204.49   28.69
   2   3   7  340.32   37.58
  -2  -3  -7  212.68   24.25
  -2  -3  -7  288.13   38.72
  -2  -3  -7  269.12   38.92
  -2   3  -7  326.35   41.07
  -2   3  -7  182.24   24.00
   2   3   8   52.70   17.12
  -2  -3  -8  110.93   26.70
   2  -3   8   52.60   14.07
  -2   3  -8   45.61   17.52
  -2  -3  -8   37.68   10.83
  -2  -3  -8   69.21   21.71
  -2   3  -8   52.94   12.72
   2   3   8   50.80   13.47
  -2   3  -8   55.89   17.52
   2   3   9 1318.48  111.13
   2  -3   9 1538.90  113.92
  -2  -3  -9 2047.68  142.47
  -2  -3  -9 2002.08  139.77
   2   3   9 1736.60  126.95
  -2   3  -9 1942.24  136.78
  -2   3  -9 2021.64  138.82
  -2  -4  11   27.84   31.34
   2  -4 -11   15.92   11.08
   2   4 -11    6.99    8.28
   2   4 -11   26.60   13.97
  -2   4  11   28.09   17.07
  -2   4  10  175.80   46.76
   2   4 -10   86.18   20.81
  -2  -4  10  185.13   48.30
   2   4 -10  120.91   25.10
   2   4 -10  114.52   23.90
  -2   4  10  152.35   31.64
   2  -4 -10  148.65   27.30
   2  -4 -10  100.80   21.91
   2   4 -10  103.20   21.86
   2   4  -9   85.78   18.91
  -2   4   9  157.49   40.52
  -2   4   9   86.78   12.13
   2   4  -9  114.82   22.01
  -2   4   9   98.85   24.95
   2   4  -9  105.94   20.96
   2  -4  -9  119.71   22.95
  -2  -4   9  159.43   42.07
  -2   4   9  115.77   21.01
   2  -4  -8  549.06   51.70
  -2   4   8  873.77   86.33
   2  -4  -8  639.13   56.14
  -2   4   8  565.83   51.65
  -2   4   8  518.02   40.17
  -2  -4   8  857.55   89.02
   2   4  -8  624.66   55.39
   2   4  -8  601.21   54.09
   2   4  -8  497.01   50.60
  -2   4   8  717.53   64.12
  -2   4   7    9.53    6.79
   2  -4  -7    6.19    6.24
  -2  -4   7   16.92   13.92
   2   4  -7    6.29    6.14
  -2   4   7   44.86    7.39
   2  -4  -7   21.61    8.63
  -2   4   7   15.27   12.97
   2   4  -7    7.09    6.94
  -2   4   6  177.10   30.19
  -2  -4   6  170.61   30.69
   2  -4  -6  196.31   24.00
   2   4  -6  167.22   22.21
  -2   4   6  151.95   23.65
   2  -4  -6  178.75   22.90
  -2   4   6  179.79   22.70
  -2   4   5  278.65   34.43
   2  -4  -5  257.69   27.25
  -2   4   5  247.56   26.35
  -2   4   5  271.16   26.40
   2  -4  -5  268.22   27.05
  -2  -4   5  303.20   35.03
  -2   4   5  264.28   28.49
   2   4  -5  262.83   27.00
   2  -4  -4 3742.12  201.75
  -2   4   4 3274.40  209.98
   2   4  -4 3341.57  190.42
  -2  -4   4 3252.69  206.04
   2  -4  -4 3343.26  202.35
  -2   4   4 3899.51  203.25
  -2   4   4 3564.92  203.55
  -2   4   4 3477.50  202.50
  -2   4   4 3834.89  203.65
   2   4  -4 3147.55  201.40
  -2   4   3   28.44    6.59
   2  -4  -3   17.52    5.59
  -2   4   3   27.70    5.59
   2  -4  -3   29.79    6.04
  -2   4   3   27.10    6.94
   2   4  -3   21.96    3.79
  -2  -4   3   26.45    6.24
   2   4  -2 1487.30   91.87
   2  -4  -2 1710.75   96.16
  -2   4   2 1536.40   94.26
   2  -4  -2 1664.50   93.71
  -2   4   2 1671.98   99.80
   2   4  -1 1737.60   93.86
   2   4  -1 1569.78   97.86
   2  -4  -1 1820.89   97.56
   2  -4  -1 1733.21  100.95
   2  -4  -1 1469.58   99.10
  -2   4   1 1563.55   97.26
  -2  -4   1 1669.19   99.35
  -2   4   1 1713.20  103.59
  -2   4   1 1742.89  102.55
  -2  -4   0 3946.67  240.87
  -2   4   0 4450.91  242.42
   2  -4   0 4771.18  240.57
   2   4   0 4089.08  241.12
  -2   4   0 4450.86  246.51
  -2  -4   0 3959.24  242.17
   2  -4   0 4330.95  242.37
  -2   4   0 4445.82  243.32
   2  -4   1   26.75    5.44
  -2   4  -1   23.60    7.19
  -2  -4  -1   23.25    5.79
   2   4   1   17.66    4.84
   2  -4   1   42.47    7.24
  -2   4  -1   14.42    5.64
  -2  -4  -1   23.30    6.64
  -2   4  -2  178.45   21.06
  -2  -4  -2  195.96   23.90
  -2   4  -2  212.68   21.66
   2  -4   2  172.61   19.96
  -2   4  -2  246.61   25.80
  -2  -4  -2  207.14   21.86
   2  -4   2  212.18   21.06
   2   4   2  163.92   18.06
  -2   4  -3 4685.70  257.54
  -2   4  -3 3752.10  248.21
   2   4   3 3835.98  245.41
   2   4   3 4503.31  246.31
  -2  -4  -3 3997.71  235.98
   2  -4   3 3961.54  246.41
  -2   4  -3 4608.40  248.31
  -2  -4  -3 4633.85  252.35
   2  -4   3 5134.26  251.95
  -2   4  -4  746.37   65.77
  -2   4  -4 1039.54   67.42
   2  -4   4  804.35   64.07
  -2  -4  -4 1003.16   72.41
  -2  -4  -4  873.42   56.59
  -2   4  -4 1051.41   77.00
  -2   4  -5  468.52   43.16
  -2  -4  -5  454.50   39.37
  -2   4  -5  447.61   32.29
   2  -4   5  440.08   36.08
  -2  -4  -5  383.34   22.51
  -2   4  -5  325.25   31.14
  -2   4  -6    4.14    5.59
   2  -4   6   13.47    8.98
  -2  -4  -6    8.78    5.29
  -2  -4  -6    2.89   10.48
   2   4   6    5.14    7.44
  -2   4  -6   10.78    9.13
  -2  -4  -6   16.97   10.63
  -2   4  -6    5.34    9.63
   2  -4   7  646.42   55.49
   2   4   7  670.62   60.53
  -2  -4  -7  571.37   49.25
   2   4   7  604.25   54.14
  -2  -4  -7  720.12   69.51
  -2   4  -7  735.59   66.22
  -2  -4  -7  738.13   68.11
  -2   4  -7  750.66   68.21
   2  -4   8    5.79    7.39
  -2  -4  -8   14.42    7.34
  -2   4  -8    8.63    6.79
  -2  -4  -8   18.66   13.57
  -2   4  -8   42.57   16.77
   2   4   8   22.85    9.98
   2   4   8   17.17   12.13
  -2   4  -8   17.81   13.22
  -2  -4  -8   28.09   17.66
  -2   4  -9  623.26   64.17
  -2  -4  -9  672.86   69.11
   2   4   9  398.81   44.26
  -2  -4  -9  555.05   63.17
  -2   4  -9  515.43   60.13
   2  -4   9  449.76   46.21
   2   4   9  507.59   55.19
   2  -5 -11    5.34    8.83
   2   5 -11    6.99    9.83
  -2  -5  11    3.44   21.06
   2   5 -11    1.25    9.98
   2  -5 -10  244.36   36.23
  -2  -5  10  406.39   68.81
   2  -5 -10  142.52   26.95
   2   5 -10  215.42   30.64
  -2   5  10  439.58   66.72
  -2   5  10  251.35   40.07
   2   5 -10  196.41   30.94
   2   5 -10  235.83   34.98
   2   5 -10  253.15   35.98
  -2   5   9 2297.84  157.59
  -2  -5   9 2257.67  163.72
   2   5  -9 1583.56  108.73
  -2   5   9 1682.51  118.86
  -2   5   9 1195.68   87.48
  -2   5   9 1592.29  107.04
   2   5  -9 1436.35  107.34
   2  -5  -9 1617.59  111.58
   2   5  -9 1138.24   99.95
  -2   5   8  624.21   55.49
   2   5  -8  502.05   51.05
   2  -5  -8  663.08   57.44
  -2   5   8  909.34   85.78
   2   5  -8  631.10   55.54
  -2  -5   8  774.96   85.03
  -2   5   8  520.92   41.47
   2  -5  -8  496.61   50.35
  -2   5   8  696.57   62.63
   2  -5  -7   67.57   15.12
  -2   5   7   90.57   24.40
  -2  -5   7  104.44   27.70
   2   5  -7   80.24   16.22
  -2   5   7   77.95   16.72
   2  -5  -7  136.08   21.16
  -2   5   6 3706.34  193.57
  -2   5   6 3346.41  211.43
  -2  -5   6 3397.80  214.03
   2  -5  -6 3287.22  195.06
   2   5  -6 3054.29  193.02
   2  -5  -6 2909.12  192.17
  -2   5   6 3277.49  198.36
  -2   5   6 2706.83  191.72
  -2   5   5  654.80   57.44
  -2  -5   5  709.29   57.39
   2  -5  -5  717.08   49.65
  -2   5   5  749.71   52.05
   2   5  -5  664.98   49.25
  -2   5   5  640.88   49.65
  -2   5   5  740.93   48.80
   2   5  -5  649.46   35.58
   2  -5  -5  633.59   48.55
   2   5  -4  830.00   61.28
  -2   5   4  853.81   61.43
  -2   5   4  820.52   63.02
  -2   5   4  964.93   62.48
   2  -5  -4  904.11   60.98
   2   5  -4  903.26   52.45
  -2  -5   4  857.90   63.47
  -2   5   4  925.96   61.28
   2  -5  -4  788.09   60.68
   2  -5  -3  497.36   38.77
  -2   5   3  490.38   34.98
   2  -5  -3  494.97   36.38
  -2   5   3  476.80   37.28
  -2  -5   3  483.59   35.43
   2   5  -3  522.01   32.88
  -2   5   3  556.30   42.47
   2  -5  -2 3117.56  160.68
   2   5  -2 2640.01  153.35
   2  -5  -2 2835.32  157.04
   2   5  -2 2475.59  158.04
  -2   5   2 3009.68  165.62
  -2   5   2 2621.05  157.84
   2  -5  -1  664.68   46.51
   2  -5  -1  604.35   44.56
  -2   5   1  640.03   42.52
   2  -5  -1  652.80   41.92
   2   5  -1  656.30   43.11
  -2   5   1  688.18   48.20
  -2   5   1  651.91   46.61
  -2  -5   1  668.07   44.41
  -2   5   1  605.80   39.02
   2  -5   0  212.88   18.61
  -2   5   0  198.16   18.66
  -2  -5   0  188.97   18.36
   2   5   0  193.17   17.71
  -2   5   0  210.63   21.46
  -2  -5   0  200.60   16.77
  -2   5   0  243.07   19.51
   2  -5   0  203.95   16.47
  -2   5  -1   92.12   13.57
  -2   5  -1   74.75   13.12
   2  -5   1  104.09   12.13
  -2  -5  -1  107.29   14.52
   2   5   1   82.74   11.33
   2   5   1   96.61    8.18
  -2  -5  -1   95.56   13.07
   2  -5   1   87.48   12.77
   2   5   2 1549.92   84.73
  -2   5  -2 1455.36   99.05
  -2  -5  -2 1579.31   98.21
  -2   5  -2 1629.32   98.75
   2  -5   2 1487.80   97.01
   2  -5   2 1725.08   97.46
   2  -5   2 1424.07   96.01
   2   5   2 1494.33   93.91
  -2   5  -2 1551.77  101.70
  -2  -5  -2 1345.58   87.68
  -2   5  -3  928.21   68.01
   2  -5   3  757.70   59.08
  -2  -5  -3  783.20   50.80
  -2   5  -3  824.56   59.83
   2  -5   3  825.46   60.68
  -2   5  -3  736.54   61.43
   2  -5   3  943.78   62.78
   2   5   3  788.43   57.54
  -2  -5  -3  880.70   63.77
   2  -5   4  708.64   40.32
  -2   5  -4 2514.66   73.65
   2   5   4 2379.13   70.56
  -2   5  -4 2659.52   95.71
  -2  -5  -4 2566.21   87.48
  -2   5  -4 1927.12   75.00
  -2  -5  -4 2196.89   47.71
  -2  -5  -5 1313.64   68.26
  -2   5  -5 1324.87   72.56
  -2   5  -5 1420.23   57.98
  -2   5  -5 1328.46   68.36
  -2  -5  -5 1162.19   40.02
   2  -5   5 1517.59   67.52
  -2  -5  -6 1140.79   87.28
  -2   5  -6 1212.04   77.30
  -2  -5  -6 1029.81   86.68
  -2   5  -6 1088.74   85.03
   2  -5   6 1200.47   84.33
  -2   5  -6 1260.00   93.02
   2   5   6  984.75   77.70
  -2  -5  -6  953.56   67.52
  -2  -5  -7 2057.12  137.18
   2   5   7 1502.22  115.37
  -2  -5  -7 2023.53  138.33
   2  -5   7 1696.98  118.07
  -2   5  -7 1829.17  130.19
  -2  -5  -7 1593.94  111.53
   2   5   7 1741.74  123.75
   2  -5   7 1955.82  130.29
  -2   5  -7 1985.56  133.88
  -2   5  -8  264.57   32.44
  -2   5  -8  257.39   36.43
  -2  -5  -8  317.97   32.88
   2   5   8  344.97   41.82
   2   5   8  286.88   34.33
   2  -5   8  343.32   36.88
  -2  -5  -8  420.32   51.80
  -2   5  -8  433.84   49.80
  -2  -5  -8  403.95   50.50
  -2   5  -8  407.99   48.30
   2  -6 -11  144.06   26.90
   2   6 -11  151.55   28.19
   2   6 -11  179.99   29.24
  -2   6  11  160.88   33.53
   2   6 -10   43.06   17.07
   2   6 -10   51.15   15.77
   2   6 -10   25.70   12.38
   2  -6 -10   70.01   21.01
   2   6 -10   28.34   15.22
  -2   6  10  112.93   36.53
  -2  -6  10   55.34   30.39
   2  -6 -10   42.57   14.77
  -2   6  10   43.96   18.81
  -2   6   9   61.43   11.08
   2   6  -9   51.60   15.87
  -2   6   9  142.27   38.17
  -2  -6   9  101.85   36.93
   2  -6  -9   51.40   15.02
   2   6  -9   96.26   18.51
   2  -6  -9   99.25   21.36
   2   6  -9   66.12   17.81
  -2   6   9   74.60   21.46
   2   6  -9   60.63   17.86
  -2   6   9   73.80   19.71
   2   6  -8  715.68   61.68
   2   6  -8  542.82   56.44
  -2   6   8  979.46   90.27
  -2  -6   8 1118.03  100.50
  -2   6   8  630.10   48.75
   2  -6  -8  648.26   59.03
  -2   6   8  822.12   69.16
  -2   6   8  671.72   62.48
   2  -6  -8  780.70   64.72
  -2   6   7   18.26    9.33
   2   6  -7    2.89    6.09
  -2   6   7    7.24   12.28
  -2  -6   7   30.64   16.67
   2  -6  -7    9.28    7.09
   2  -6  -7    8.93    6.99
   2   6  -6   42.67    5.44
  -2   6   6   44.16   11.93
  -2   6   6   35.98   15.02
  -2  -6   6   48.15   16.52
  -2   6   6   49.70   13.37
   2  -6  -6   29.59    9.63
  -2   6   6   30.24   11.48
   2  -6  -6   41.62   11.33
   2   6  -6   34.93   10.88
  -2  -6   5  379.00   34.23
   2  -6  -5  396.61   28.74
  -2   6   5  407.34   28.04
   2   6  -5  330.94   27.15
   2  -6  -5  303.70   26.00
   2   6  -5  370.61   14.62
  -2   6   5  357.34   28.09
  -2   6   5  325.80   28.89
  -2  -6   4   57.14   11.08
  -2   6   4   44.41   10.98
   2   6  -4   59.48    7.14
  -2   6   4   59.73   10.93
   2  -6  -4   48.05    9.83
  -2   6   4   39.27    9.28
   2  -6  -4   47.21   10.08
  -2   6   4   41.22    8.93
  -2  -6   3  104.44   11.08
  -2   6   3   99.35   14.12
  -2   6   3   97.81   13.32
   2  -6  -3  111.08   13.37
  -2   6   3  127.70   17.96
   2  -6  -3   79.84   13.07
  -2   6   3  108.83   11.68
   2   6  -2  100.70    8.53
  -2   6   2  118.27   16.72
   2   6  -2  100.20    7.54
  -2   6   2   90.62   11.93
   2  -6  -2  110.38   12.23
   2   6  -2  108.09   13.47
   2  -6  -2   84.73   13.32
   2  -6  -2   97.61   13.52
   2  -6  -1   20.46    6.34
   2   6  -1   19.91    5.39
  -2  -6   1   27.45    6.44
   2  -6  -1   16.87    5.64
  -2   6   1   19.21    5.24
  -2   6   1   15.37    6.34
   2  -6  -1   22.31    5.09
  -2   6   0  458.94   35.08
   2   6   0  510.74   32.74
  -2  -6   0  506.89   36.78
  -2  -6   0  451.00   32.59
  -2   6   0  502.80   36.93
   2  -6   0  486.78   35.78
  -2   6   0  487.28   39.57
   2   6   0  474.01   35.13
  -2  -6  -1   56.89   10.33
   2   6   1   50.85    9.08
   2  -6   1   69.91   10.28
  -2   6  -1   56.99   11.68
   2  -6   1   58.23    9.33
   2  -6   1   47.11    9.73
   2  -6   1   55.74   10.43
  -2   6  -1   55.69   10.83
   2  -6   2   12.72    6.19
   2   6   2   21.56    3.39
  -2  -6  -2   25.30    5.44
  -2   6  -2   43.06    9.83
   2  -6   2   13.77    6.14
  -2  -6  -2   15.27    6.69
  -2   6  -2   15.37    7.49
   2   6   2   20.21    6.49
  -2   6  -2   18.46    8.23
   2  -6   2   24.45    7.44
   2  -6   3  283.89   24.70
  -2   6  -3  320.71   30.89
  -2   6  -3  233.29   25.80
   2  -6   3  279.64   24.40
   2   6   3  279.30   10.83
  -2  -6  -3  292.82   17.37
   2   6   3  285.53   22.75
  -2   6  -3  306.29   25.50
   2  -6   3  317.42   26.00
  -2  -6  -3  343.02   29.14
  -2   6  -4   33.68   12.33
  -2   6  -4   -1.00    1.70
   2  -6   4    0.75    3.44
  -2  -6  -4   41.17   12.33
  -2   6  -4   15.07    8.18
   2  -6   4   18.81    8.23
  -2  -6  -4   16.67    5.19
  -2   6  -4   21.26    8.28
   2   6   4   29.89    8.98
  -2   6  -5  341.17   33.08
  -2   6  -5  300.85   38.57
  -2   6  -5  304.50   36.58
   2   6   5  370.76   35.88
  -2   6  -5  213.53   31.59
   2  -6   5  321.66   35.98
  -2  -6  -5  256.29   25.40
  -2  -6  -5  335.08   38.87
  -2   6  -6   47.21   11.83
   2   6   6   33.88   11.28
   2  -6   6   37.63   14.57
  -2   6  -6   41.87   15.12
  -2  -6  -6   32.88    8.78
  -2  -6  -6   50.55   15.82
   2   6   6   76.95   17.17
  -2   6  -6   46.21   17.32
  -2   6  -7  181.49   31.04
   2   6   7  156.14   23.95
  -2  -6  -7  206.74   35.63
  -2  -6  -7  136.08   20.01
  -2  -6  -7  195.86   32.93
  -2   6  -7  184.63   34.28
   2  -6   7  153.30   23.85
   2   6   7  168.02   27.40
   2  -6   7  234.78   32.83
  -2   6  -7  197.71   31.74
   2  -6   8   59.18   19.41
  -2   6  -8   29.84   12.82
  -2  -6  -8   27.45    9.98
  -2   6  -8   30.19   15.12
   2   6   8   20.86   10.13
   2  -6   8   35.33   12.23
  -2   6  -8   34.43   16.32
  -2  -6  -8   33.18   18.61
   2   6   8   34.38   14.67
  -2  -6  -8   59.43   20.61
   2  -6   9   96.51   19.71
   2   6   9   78.24   17.76
   2   7 -11   45.16   16.42
   2  -7 -11   81.04   20.21
   2   7 -11   79.99   20.21
  -2   7  11   93.56   26.70
   2  -7 -10   94.11   21.66
   2   7 -10   98.21   22.46
   2   7 -10  119.31   25.10
  -2   7  10  145.66   41.37
   2  -7 -10  131.34   27.40
  -2   7  10  136.58   29.39
  -2  -7  10  236.43   52.10
   2   7 -10  128.20   25.95
   2   7 -10  118.46   22.46
   2   7  -9  286.73   33.43
  -2   7   9  537.03   67.62
  -2  -7   9  493.47   69.76
  -2   7   9  253.65   26.35
  -2   7   9  336.53   41.67
   2  -7  -9  309.44   39.57
   2   7  -9  321.41   39.37
  -2   7   9  371.16   44.81
   2  -7  -9  272.61   35.28
   2   7  -9  218.47   32.64
  -2   7   8  142.22   25.80
   2   7  -8  119.11   22.16
   2  -7  -8  111.73   20.76
  -2   7   8  138.97   34.18
  -2  -7   8  209.13   43.11
   2   7  -8  119.26   19.21
  -2   7   8  140.52   25.80
   2  -7  -8  150.80   25.20
  -2   7   7   68.96   17.86
  -2   7   7  120.56   18.21
   2  -7  -7   80.54   16.97
  -2   7   7  122.16   27.45
  -2  -7   7  112.48   27.94
   2   7  -7   88.42   15.27
   2  -7  -7  117.92   20.41
   2   7  -7   93.02   18.11
  -2   7   6 1592.79  111.28
   2  -7  -6 1463.89  108.78
   2   7  -6 1691.14   95.41
   2  -7  -6 1758.31  112.48
  -2   7   6 1860.76  109.58
  -2  -7   6 1722.93  124.95
  -2   7   6 1415.29  111.38
   2   7  -6 1544.03  110.08
  -2  -7   5   80.44   15.62
   2  -7  -5  103.34   15.47
  -2   7   5   84.68   14.07
  -2   7   5  104.49   14.92
   2   7  -5  111.53    9.38
   2  -7  -5   95.86   15.07
   2   7  -5   78.89   14.12
  -2   7   5   94.06   16.72
   2  -7  -4   26.85    8.43
  -2   7   4   28.69    9.73
  -2   7   4   28.99    7.54
  -2  -7   4   16.92    6.19
   2  -7  -4   18.01    6.69
  -2   7   4   27.74    7.93
  -2   7   4   24.00    7.63
   2   7  -4   12.62    6.34
   2   7  -3  757.25   45.71
  -2   7   3  779.65   54.74
  -2   7   3  852.01   61.18
  -2   7   3  770.07   58.28
   2  -7  -3  765.18   51.75
   2  -7  -3  685.04   53.14
  -2   7   3  702.95   52.65
  -2  -7   3  710.09   45.66
   2   7  -3  755.35   48.40
   2  -7  -3  657.49   55.44
   2   7  -2 1813.15  107.04
   2  -7  -2 1764.10  118.66
   2  -7  -2 2261.01  120.91
  -2   7   2 2134.41  121.31
   2   7  -2 1947.68  118.12
  -2   7   2 1855.72  116.02
  -2   7   2 2133.22  125.75
   2  -7  -2 2052.97  115.62
  -2   7   1  237.83   25.95
   2  -7  -1  212.68   22.31
   2   7  -1  200.15   20.51
   2  -7  -1  248.36   20.86
   2  -7  -1  221.86   22.85
  -2   7   1  204.14   20.86
  -2  -7   1  254.94   23.30
   2   7   0 1042.83   63.17
  -2   7   0 1049.07   71.96
   2  -7   0 1010.49   66.67
  -2   7   0 1010.99   67.77
   2   7   0 1005.25   66.12
   2  -7   0 1059.70   68.61
  -2  -7   0 1022.87   67.67
  -2   7   0  946.92   65.57
  -2  -7  -1  317.57   27.35
   2   7   1  253.75   24.00
   2  -7   1  296.46   25.15
   2  -7   1  255.54   25.35
  -2   7  -1  259.14   27.25
   2   7   1  271.26   19.91
   2  -7   1  231.19   25.45
  -2   7  -1  265.27   28.59
  -2   7  -1  236.03   25.50
  -2   7  -2   54.89   12.53
  -2  -7  -2   72.11   13.27
  -2   7  -2   66.22   14.32
   2   7   2   62.08   10.93
   2  -7   2   59.83   11.93
   2  -7   2   59.58   11.73
   2   7   2   68.56    7.19
  -2   7  -2   69.36   13.27
   2  -7   2   58.63   11.13
  -2  -7  -2   55.84    9.43
  -2   7  -3 1007.95   81.94
  -2  -7  -3 1202.06   72.91
   2   7   3 1231.70   66.17
  -2   7  -3 1176.41   85.28
  -2  -7  -3 1272.62   83.38
   2   7   3 1140.64   76.85
   2  -7   3 1146.62   79.14
  -2   7  -3 1321.28   81.54
   2  -7   3 1342.98   81.39
  -2  -7  -4  937.14   54.24
  -2   7  -4  713.93   48.50
  -2   7  -4  958.80   47.56
  -2  -7  -4  788.19   33.23
  -2   7  -4  727.81   46.51
  -2   7  -4  858.75   55.89
   2   7   4  797.92   42.07
   2  -7   4  997.42   51.50
  -2  -7  -5  313.93   34.58
  -2   7  -5  308.74   36.33
   2   7   5  263.13   27.79
  -2   7  -5  325.40   28.94
  -2   7  -5  325.00   33.98
  -2  -7  -5  294.52   22.36
   2   7   5  313.98   29.24
   2  -7   5  295.71   31.29
  -2   7  -6  196.86   30.04
   2   7   6  142.77   22.41
  -2   7  -6  213.83   26.10
  -2  -7  -6  162.98   20.46
   2   7   6  171.41   25.90
  -2   7  -6  227.70   34.58
  -2  -7  -6  207.79   32.59
   2  -7   6  192.97   29.04
   2   7   7 1219.58   97.76
  -2   7  -7 1436.80  106.29
   2   7   7 1161.19   92.12
   2  -7   7 1781.36  110.88
  -2   7  -7 1835.76  122.21
  -2  -7  -7 1636.00  115.37
  -2  -7  -7 1247.17   88.32
   2  -7   7 1263.09   95.06
  -2   7  -7  967.73   94.56
  -2  -7  -8   28.39   17.42
  -2   7  -8   21.66   12.28
   2   7   8   33.13   14.52
   2   7   8   24.35   10.78
  -2  -7  -8   26.10   15.62
   2  -7   8   44.51   13.67
  -2   7  -8   31.84   16.22
  -2   7  -8   43.71   17.52
   2  -7   8   41.97   16.97
   2   7   9   63.77   15.62
   2   8 -11   15.02   12.77
  -2   8  11   15.12   16.07
   2  -8 -11    8.43   10.68
   2   8 -10  906.75   88.13
  -2   8  10 2047.59  148.70
  -2  -8  10 1903.02  147.16
   2   8 -10 1130.06   88.87
   2   8 -10 1168.53   97.81
   2  -8 -10 1373.52  103.54
   2   8 -10 1184.50   96.91
   2  -8 -10  967.53   89.12
  -2   8  10 1276.22  103.00
   2   8  -9   17.96   11.08
   2  -8  -9   26.55   12.18
  -2   8   9   15.07   17.62
  -2  -8   9   47.41   24.65
   2   8  -9   10.88    8.53
  -2   8   9   17.66    6.79
  -2   8   9   28.09   14.67
   2   8  -9   35.68   14.57
   2  -8  -9   21.21   11.83
  -2   8   9   20.96   13.97
  -2   8   8  527.75   62.93
  -2  -8   8  445.67   61.73
   2   8  -8  346.06   41.12
   2   8  -8  350.75   36.18
  -2   8   8  408.94   45.91
   2  -8  -8  310.58   38.52
   2  -8  -8  446.01   45.86
  -2   8   8  376.45   45.61
  -2   8   7   63.97   17.02
   2  -8  -7   46.76   12.72
  -2   8   7   40.02   11.68
   2   8  -7   52.35    6.99
   2  -8  -7   50.55   14.12
   2   8  -7   36.58   10.93
  -2  -8   7   64.02   20.91
   2   8  -7   38.97   12.62
  -2   8   6 1510.70   93.66
   2   8  -6 1476.77   81.29
  -2   8   6 1118.63   96.11
   2   8  -6 1277.26   94.71
   2   8  -6 1214.59   86.43
  -2  -8   6 1472.43  106.04
   2  -8  -6 1443.68   96.31
  -2   8   6 1331.01   95.06
   2  -8  -6 1203.21   93.17
  -2  -8   5   18.41    8.33
   2  -8  -5   20.86    8.33
   2   8  -5   26.85    5.44
   2   8  -5   26.30    9.23
   2   8  -5    9.68    5.39
   2  -8  -5   24.45    9.03
  -2   8   5   -0.80    3.64
  -2   8   5   11.23    6.14
  -2   8   5   11.93    7.58
  -2  -8   4  876.76   59.63
  -2   8   4 1038.89   66.97
   2   8  -4  956.05   58.43
   2   8  -4  846.92   65.37
  -2   8   4  877.21   61.98
  -2   8   4  927.86   66.02
   2   8  -4  886.39   57.84
   2  -8  -4  995.37   65.67
  -2   8   4  863.84   69.51
  -2   8   4  954.65   71.61
   2  -8  -4  835.39   65.07
  -2   8   3   70.46   13.67
   2  -8  -3   67.42   13.82
  -2   8   3   68.31   12.28
   2   8  -3   68.01    9.83
  -2   8   3   69.26   14.52
  -2   8   3   57.98   11.38
   2  -8  -3   68.11   11.18
   2  -8  -3   53.69   10.83
   2   8  -3   85.43    8.38
  -2   8   2  301.35   28.74
   2   8  -2  317.77   28.44
   2  -8  -2  232.94   27.00
   2  -8  -2  319.67   29.19
   2  -8  -2  319.07   26.25
  -2   8   2  283.74   26.80
  -2   8   2  308.44   32.44
   2  -8  -1  777.81   57.59
  -2   8   1  843.82   62.83
  -2  -8   1  819.27   57.24
   2   8  -1  752.46   55.09
  -2   8   1  865.78   57.59
  -2   8   1  729.15   55.09
   2  -8  -1  881.50   55.24
   2  -8  -1  707.15   55.64
   2   8  -1  797.27   53.64
  -2   8   0 1914.75  117.77
   2  -8   0 1859.31  117.27
   2  -8   0 1999.03  116.92
   2   8   0 1985.16  112.48
   2   8   0 1811.60  115.72
  -2   8   0 1758.76  115.02
  -2  -8   0 1911.95  117.77
  -2   8   0 1934.36  123.16
   2  -8   1  297.56   26.60
  -2   8  -1  328.75   31.39
  -2  -8  -1  305.49   28.59
  -2   8  -1  255.39   26.95
  -2   8  -1  260.98   29.74
   2   8   1  267.02   25.70
   2  -8   1  264.87   27.74
   2   8   1  296.06   22.11
  -2   8  -1  251.90   27.10
   2  -8   2   20.56    7.19
  -2  -8  -2   14.82    5.99
  -2  -8  -2   32.74    8.83
   2  -8   2   20.11    7.73
   2   8   2   19.91    7.04
  -2   8  -2   12.33    6.69
   2   8   2   38.67    5.74
  -2   8  -2   20.81    8.08
  -2   8  -3  545.37   42.17
  -2  -8  -3  643.12   32.54
   2   8   3  666.98   20.66
  -2   8  -3  653.60   44.96
   2  -8   3  732.00   40.57
  -2   8  -3  747.12   41.77
   2   8   3  601.46   34.98
   2  -8   3  595.37   37.43
  -2  -8  -3  700.46   43.16
  -2   8  -4  335.93   35.38
   2   8   4  285.78   26.10
  -2  -8  -4  410.88   36.28
   2  -8   4    1.75    3.44
  -2   8  -4  362.48   30.29
  -2  -8  -4  301.20   22.75
  -2   8  -4   61.13   16.02
   2   8   4  299.75   14.32
   2  -8   4  324.36   29.69
  -2   8  -5  201.25   29.24
  -2   8  -5  265.37   35.93
  -2   8  -5  242.82   28.19
  -2  -8  -5  208.64   30.99
   2  -8   5  238.73   30.89
   2   8   5  227.70   27.74
  -2  -8  -5  204.94   22.85
   2   8   5  174.35   25.75
   2   8   6   46.01   13.07
  -2   8  -6   69.66   15.37
  -2   8  -6   92.82   20.56
  -2  -8  -6   64.32   12.87
   2   8   6   43.21   14.52
  -2   8  -6   81.44   21.16
  -2  -8  -6   82.04   21.36
   2  -8   6   82.79   18.86
  -2   8  -7    8.23    9.88
  -2   8  -7    2.84   10.43
   2  -8   7    8.68    8.03
   2   8   7   -1.00    7.34
   2   8   7   -1.20    8.78
  -2  -8  -7    3.44   11.28
  -2  -8  -7   22.31    8.48
  -2   8  -7   14.52    7.88
  -2   8  -7    1.80   11.43
   2  -8   7   -1.40   10.78
  -2  -8  -8    5.74   11.78
  -2   8  -8    9.88    9.58
   2   8   8    3.99    9.33
  -2   8  -8    4.64   12.33
  -2  -8  -8   -1.95   15.17
   2  -8   8   15.72   10.78
   2   8   8    9.38    8.13
  -2   8  -8    3.44   10.53
  -2   8  -8    3.99   11.78
   2  -8   8    4.69   10.28
   2   8   9  143.47   24.55
  -2   9  11  132.09   31.19
  -2   9  10  123.80   37.97
  -2  -9  10  133.93   39.07
   2   9 -10  111.33   23.30
   2  -9 -10   81.94   20.36
   2  -9 -10   74.50   22.06
   2   9 -10   73.60   21.41
   2   9 -10   92.12   20.31
  -2   9  10   75.35   22.41
   2  -9  -9  117.37   23.40
  -2   9   9  167.37   38.57
  -2  -9   9  195.91   42.96
   2   9  -9  132.54   22.36
   2  -9  -9  126.65   26.00
  -2   9   9  120.96   26.10
   2   9  -9  123.36   24.80
  -2   9   9  147.36   29.49
  -2   9   8  621.62   58.88
   2   9  -8  605.90   57.19
   2   9  -8  559.44   49.35
   2  -9  -8  663.88   59.58
   2  -9  -8  491.72   52.60
  -2   9   8  556.20   59.98
  -2   9   7   12.03    9.43
   2   9  -7   24.25    5.49
  -2   9   7   27.50   10.43
  -2  -9   7    6.94    9.38
   2  -9  -7   25.65   11.28
  -2   9   7   19.06   10.18
   2   9  -7   17.12    8.68
   2  -9  -7   41.42   12.97
   2   9  -7   15.92    8.53
  -2   9   6 2936.57  169.16
   2  -9  -6 2502.33  169.86
  -2  -9   6 2638.86  177.25
   2  -9  -6 2865.81  172.16
   2   9  -6 2980.08  157.54
   2   9  -6 2618.75  162.23
  -2   9   6 2640.66  170.06
  -2   9   6 2396.79  174.10
   2   9  -6 2449.04  170.36
   2   9  -5  569.87   42.57
  -2  -9   5  556.45   47.21
   2   9  -5  524.76   48.60
  -2   9   5  666.98   49.60
   2  -9  -5  679.80   50.85
   2   9  -5  635.64   41.17
   2  -9  -5  544.62   48.65
  -2   9   5  535.04   46.51
  -2   9   5  576.21   54.84
  -2   9   5  520.97   51.95
  -2   9   4 1071.27   67.77
  -2   9   4 1126.56   62.58
   2   9  -4  997.52   52.05
   2  -9  -4  910.69   59.53
   2  -9  -4 1034.60   59.73
  -2   9   4  954.75   66.27
   2   9  -4 1046.97   51.15
  -2  -9   4  872.57   48.80
  -2   9   3  451.10   38.97
   2   9  -3  461.98   26.90
   2  -9  -3  429.00   34.08
   2   9  -3  421.01   31.19
   2  -9  -3  295.26   34.33
  -2   9   3  434.69   41.72
   2  -9  -3  400.75   35.03
  -2   9   3  379.15   34.48
   2   9  -3  448.26   36.93
  -2   9   2 2361.01  137.78
   2  -9  -2 1933.36  135.73
   2   9  -2 1996.09  134.93
   2  -9  -2 2279.18  133.39
  -2   9   2 2074.93  134.48
   2  -9  -2 2532.97  139.92
  -2   9   2 2413.21  146.06
   2  -9  -1 2720.85  177.95
   2   9  -1 3151.84  175.90
  -2  -9   1 2744.05  178.84
  -2   9   1 2860.42  178.35
   2  -9  -1 3267.41  178.10
   2   9  -1 2561.02  176.75
  -2   9   1 3413.37  189.57
   2  -9  -1 3147.10  181.99
  -2   9   1 3386.03  180.39
   2  -9   0  345.11   30.99
   2   9   0  329.75   30.59
   2   9   0  357.74   27.74
  -2  -9   0  360.18   32.24
   2  -9   0  369.37   31.24
  -2   9   0  352.25   32.09
  -2   9   0  315.12   29.29
  -2   9   0  370.51   35.88
   2  -9   1  266.52   23.15
  -2  -9  -1  212.73   22.85
  -2   9  -1  224.60   23.50
   2   9   1  205.79   20.76
  -2   9  -1  196.46   24.80
   2   9   1  200.50   16.62
  -2   9  -1  194.31   23.70
  -2   9  -1  171.31   20.76
  -2   9  -2   72.91   15.82
  -2  -9  -2   84.08   14.77
  -2   9  -2  103.49   16.07
   2   9   2  106.19    9.68
  -2  -9  -2  125.95   16.22
   2   9   2  128.79   15.82
   2  -9   2   89.22   13.87
  -2   9  -2   80.44   14.67
   2  -9   3    2.35    5.69
  -2  -9  -3    7.78    5.29
   2   9   3    6.89    3.19
   2  -9   3    0.85    4.54
  -2  -9  -3   12.92    7.04
  -2   9  -3    5.69    4.99
  -2   9  -3    3.34    6.84
  -2   9  -3    6.24    5.89
   2   9   3   11.98    6.59
  -2  -9  -4 1604.02   56.24
   2  -9   4 1956.62   73.60
  -2   9  -4 1566.79   76.15
  -2  -9  -4 1663.35   74.15
   2   9   4 1592.54   34.28
   2   9   4 1488.84   60.13
  -2   9  -4 1884.51   69.66
   2   9   5  599.21   54.14
  -2  -9  -5  598.66   50.00
  -2   9  -5  719.07   56.69
  -2   9  -5  636.79   63.47
  -2  -9  -5  668.02   62.23
   2  -9   5  737.74   61.18
  -2   9  -6  101.30   18.46
  -2   9  -6   65.37   18.66
   2   9   6   58.03   14.67
  -2  -9  -6   92.27   22.26
  -2   9  -6   82.54   19.56
  -2  -9  -6   79.54   15.17
   2  -9   6   97.11   19.11
   2  -9   6   92.62   21.46
  -2   9  -6   79.64   21.66
   2   9   6   69.21   17.47
  -2  -9  -7  549.46   48.20
  -2   9  -7  505.85   56.69
  -2   9  -7  608.84   60.33
  -2   9  -7  743.97   57.14
  -2   9  -7  673.61   68.91
   2   9   7  534.84   54.89
  -2  -9  -7  690.53   68.16
   2  -9   7  521.36   52.75
   2   9   7  436.58   48.70
   2  -9   7  815.78   67.52
   2  -9   8   64.72   16.87
  -2  -9  -8   43.01   19.26
   2   9   8   32.19   12.62
  -2   9  -8   62.73   21.91
  -2  -9  -8   50.25   21.21
  -2   9  -8   50.70   19.51
   2   9   8   40.12   15.47
  -2   9  -8   33.78   15.17
   2  -9   8   64.07   20.51
  -2  10  10   28.04   16.17
  -2 -10  10   55.69   28.19
   2  10 -10   20.46   12.77
   2 -10 -10   21.86   12.58
   2  10 -10   16.37   11.38
   2 -10 -10   24.45   14.72
   2  10 -10   35.88   16.62
   2 -10  -9   14.07   10.23
  -2 -10   9   21.76   20.16
   2  10  -9   12.43   10.93
   2 -10  -9   15.97   11.08
  -2  10   9   21.36   13.42
   2  10  -9   15.27   11.83
  -2  10   9   14.57   11.13
  -2  10   8  866.38   63.97
  -2 -10   8  828.31   83.48
   2  10  -8  809.89   49.45
   2 -10  -8  619.87   62.93
   2  10  -8  709.19   59.38
   2 -10  -8  792.23   69.06
  -2  10   8  787.39   73.90
  -2  10   8  686.84   66.47
   2  10  -8  708.44   66.22
  -2 -10   7  717.03   69.61
   2 -10  -7  620.67   58.43
   2  10  -7  725.41   46.36
   2 -10  -7  743.57   62.33
  -2  10   7  599.71   63.12
   2  10  -7  691.73   53.49
  -2  10   7  712.54   56.74
  -2  10   7  620.72   59.53
   2  10  -7  659.89   60.18
  -2  10   6    6.29    7.73
   2  10  -6    8.13    4.74
  -2 -10   6    4.24    8.23
   2  10  -6    3.44    6.84
   2 -10  -6   13.97    8.53
  -2  10   6   17.81    9.08
  -2  10   6   13.77   12.18
  -2  10   6    8.93    7.63
   2  10  -6    2.94    5.59
   2 -10  -6    4.79    6.09
  -2  10   6    1.25    7.98
   2  10  -5   18.06    7.04
   2 -10  -5    5.59    6.69
  -2 -10   5   19.76    6.89
  -2  10   5    1.15    7.19
   2 -10  -5    8.48    6.79
  -2  10   5    7.04    5.79
   2  10  -5   21.91    6.19
   2  10  -5    7.78    6.44
  -2  10   5    8.98    7.68
  -2  10   4  239.57   26.60
   2 -10  -4  225.60   21.86
  -2  10   4  292.17   25.60
   2  10  -4  235.43   15.87
   2 -10  -4  215.87   22.66
   2  10  -4  223.56   17.32
  -2 -10   4  210.88   11.23
  -2  10   4  214.27   26.60
   2 -10  -3   24.10    7.34
  -2  10   3   32.54    9.33
   2  10  -3   31.49    9.03
  -2  10   3   -0.75    2.15
  -2  10   3   11.38    7.63
   2  10  -3   17.91    5.89
  -2  10   3   16.07    6.94
   2 -10  -3   18.21    7.14
   2 -10  -2    5.19    6.84
   2 -10  -2    8.18    5.34
  -2  10   2    5.24    5.59
   2  10  -2    4.74    5.19
   2 -10  -2    3.69    5.74
   2 -10  -2    5.14    5.04
  -2  10   2    9.13    5.89
  -2  10   2    5.09    6.89
   2 -10  -1  620.92   46.56
  -2 -10   1  734.24   50.05
   2  10  -1  703.05   44.76
  -2  10   1  764.93   56.19
   2  10  -1  669.57   47.46
  -2  10   1  713.73   48.95
   2 -10  -1  803.85   48.30
  -2  10   1  811.89   48.90
   2  10   0    3.09    4.04
   2 -10   0    8.38    5.19
  -2  10   0    2.05    4.69
  -2  10   0   12.67    5.74
  -2  10   0    4.39    5.84
   2  10   0    4.69    4.59
  -2 -10   0    2.00    3.44
   2 -10   0    7.29    5.59
   2 -10   1   99.35   14.12
  -2  10  -1   90.37   15.22
   2  10   1  125.80   12.53
  -2  10  -1   96.66   16.07
   2 -10   1   -0.80    3.94
   2  10   1   79.99   12.67
  -2  10  -1   12.43    7.58
  -2  10  -1   64.22   12.53
  -2 -10  -1  104.89   15.57
   2 -10   2  240.42   23.20
  -2 -10  -2  232.04   24.15
  -2  10  -2  244.07   25.50
  -2  10  -2   -1.05    6.59
  -2 -10  -2  236.03   23.95
  -2  10  -2  253.20   26.15
   2  10   2  254.25   15.87
   2 -10   2    0.85    3.24
   2  10   2  219.71   21.56
   2  10   3  305.24   16.87
  -2 -10  -3  291.67   26.35
  -2  10  -3   -1.20    5.54
   2 -10   3  309.04   28.04
  -2 -10  -3  310.48   30.49
   2  10   3  275.85   25.25
  -2  10  -3  353.25   30.74
   2 -10   3    0.90    3.99
  -2  10  -3  278.95   30.24
  -2 -10  -4  339.43   34.23
  -2  10  -4  396.71   38.02
   2 -10   4  324.36   36.08
   2  10   4  355.64   26.10
   2  10   4  329.85   34.78
  -2  10  -4  349.26   41.67
  -2 -10  -4  357.34   40.47
  -2 -10  -5    2.35    5.69
  -2  10  -5   -0.95    5.74
  -2 -10  -5   17.27   10.58
  -2  10  -5    1.45    7.78
   2  10   5    1.90    5.79
  -2  10  -6  645.52   52.94
  -2  10  -6  464.83   54.39
  -2 -10  -6  504.05   45.81
   2 -10   6  498.71   50.60
   2  10   6  494.17   49.85
  -2 -10  -6  610.99   61.23
  -2  10  -6  608.84   62.58
   2  10   6  447.51   49.05
   2 -10   6  652.01   58.78
   2  10   7  363.13   41.22
  -2  10  -7  576.90   48.60
  -2 -10  -7  398.56   39.47
   2 -10   7  472.96   47.11
  -2  10  -7  459.59   50.20
  -2 -10  -7  474.21   55.79
  -2  10  -7  286.78   43.56
  -2  10  -7  509.69   58.68
   2  10   7  381.44   44.36
  -2 -10  -8  233.84   39.97
  -2  10  -8  204.89   27.84
  -2  10  -8  114.72   26.80
   2  10   8  112.03   22.01
   2 -10   8  163.23   26.95
  -2  10  -8  202.25   33.23
  -2  10  -8  196.96   38.27
   2  10   8  159.38   27.89
   2  10   9    9.23   10.18
   2  11 -10  608.49   55.64
   2 -11 -10  533.64   57.93
  -2  11  10  611.64   64.12
  -2  11   9   49.55   19.81
   2 -11  -9   38.67   16.17
  -2 -11   9   59.23   24.55
   2  11  -9   33.58   13.32
   2  11  -9   45.46   15.62
   2 -11  -9   37.82   14.22
  -2  11   9   41.87   16.07
  -2  11   8  963.34   69.61
  -2 -11   8  994.53   87.63
   2  11  -8  823.61   73.15
   2  11  -8  882.55   55.49
  -2  11   8  720.67   70.71
  -2  11   8  774.61   78.05
   2 -11  -8  867.48   74.95
   2  11  -8  804.70   64.87
  -2  11   7  410.68   50.15
  -2 -11   7  333.09   43.06
   2 -11  -7  346.91   39.92
  -2  11   7  381.54   37.68
  -2  11   7  359.19   41.07
   2 -11  -7  317.27   38.52
  -2  11   7  337.63   44.16
   2  11  -7  407.79   29.84
   2  11  -7  320.71   38.97
   2  11  -7  364.53   34.68
  -2  11   6  375.40   34.58
   2  11  -6  312.33   25.75
  -2  11   6  295.26   38.57
   2  11  -6  252.00   32.24
   2 -11  -6  270.51   32.54
  -2  11   6  234.68   29.69
  -2  11   6  263.83   32.74
  -2 -11   6  290.37   32.19
   2 -11  -6  246.01   31.34
  -2  11   6  222.76   33.73
   2  11  -6  294.17   27.65
  -2  11   5  304.35   35.98
   2  11  -5  311.73   26.60
  -2  11   5  290.37   30.79
   2 -11  -5  278.70   31.69
  -2 -11   5  280.29   24.70
  -2  11   5  258.64   34.33
   2  11  -5  307.79   26.20
   2 -11  -5  274.36   30.99
   2  11  -5  255.39   30.94
  -2  11   4 3775.31   93.36
  -2  11   4 3524.20  100.45
   2 -11  -4 3401.25   86.03
   2 -11  -4 3089.67   87.58
   2  11  -4 3076.44   88.77
   2  11  -4 3257.78   68.96
  -2  11   4 3015.11  100.85
  -2  11   3   55.59   12.67
   2 -11  -3   61.43   12.67
   2  11  -3   63.62   13.22
   2 -11  -3   70.26   12.28
  -2  11   3   61.13   14.97
   2  11  -3   55.34    9.98
  -2  11   2 1083.45   70.41
   2  11  -2  982.80   67.77
  -2  11   2  912.54   69.01
   2 -11  -2  995.02   67.77
   2 -11  -2  939.24   68.76
   2 -11  -2  850.86   69.11
   2 -11  -2 1137.54   74.75
  -2  11   2 1003.46   78.05
   2  11  -2  857.50   64.27
   2  11  -2  992.68   70.61
   2 -11  -1 1038.94   82.64
   2  11  -1 1278.31   82.24
  -2  11   1 1189.69   85.73
  -2 -11   1 1348.47   88.08
   2 -11  -1 1436.60   85.78
  -2  11   1 1343.93   93.91
   2  11  -1 1220.33   85.23
   2 -11   0  637.73   35.48
   2  11   0  758.89   33.48
  -2  11   0  724.26   41.12
   2 -11   0  677.01   36.13
   2  11   0  726.06   38.82
  -2 -11   0  744.92   40.87
  -2  11   0  609.69   34.03
   2 -11   1  476.70   30.04
   2  11   1  513.23   32.88
  -2  11  -1  582.39   40.47
  -2  11  -1  403.90   32.34
  -2  11  -1    1.05    4.49
   2  11   1  556.35   26.95
   2 -11   1  569.22   34.33
  -2  11  -1  478.00   33.78
   2 -11   1    0.90    4.19
  -2 -11  -1  570.67   37.18
   2 -11   2 1303.81   54.64
  -2  11  -2 1466.49   63.62
  -2 -11  -2 1441.94   62.38
  -2  11  -2 1222.92   59.03
   2 -11   2  202.05   24.20
   2  11   2 1324.97   38.32
  -2  11  -2   -1.15    6.09
   2  11   2 1214.09   52.40
  -2 -11  -2 1380.86   61.78
  -2 -11  -3   82.99   16.47
   2 -11   3   73.60   15.37
  -2 -11  -3   92.72   17.76
   2  11   3   76.65   15.07
   2  11   3   84.83   11.03
  -2  11  -3   92.72   17.37
  -2  11  -3   62.68   16.02
  -2  11  -4   81.74   16.27
   2 -11   4   69.91   15.32
  -2 -11  -4   45.86   12.92
  -2 -11  -4   52.60   15.57
   2  11   4   58.68    8.83
   2  11   4   46.41   12.03
  -2  11  -4   52.65   15.42
  -2 -11  -5  518.07   53.94
  -2 -11  -5  524.66   46.56
   2  11   5  471.56   46.21
  -2  11  -5  494.12   54.29
   2 -11   5  509.59   49.45
   2  11   5  462.13   34.23
  -2  11  -5  563.68   49.25
  -2  11  -5  487.98   54.09
  -2 -11  -6  140.77   22.06
  -2 -11  -6  196.21   32.54
   2  11   6  131.69   23.20
  -2  11  -6  153.79   30.24
   2 -11   6  163.77   26.50
  -2  11  -6  194.31   26.85
  -2  11  -6  108.33   25.10
   2  11   6  125.55   23.60
  -2 -11  -7  177.25   33.78
  -2  11  -7  101.60   25.70
  -2  11  -7  180.14   26.00
   2  11   7  108.24   20.86
  -2 -11  -7  110.88   20.16
   2 -11   7  135.48   24.65
   2  11   7  130.99   24.50
  -2  11  -7  182.29   34.28
  -2 -11  -8   63.37   23.45
  -2  11  -8   25.35   15.17
  -2  11  -8   43.56   20.11
   2 -11   8   36.68   14.77
  -2  11  -8   67.87   17.42
   2  11   8   45.11   16.27
   2  11   8   36.58   13.67
   2  11   9  195.31   29.59
   2  12 -10 2140.35  133.14
   2 -12 -10 1639.79  132.54
   2  12  -9   69.31   16.62
  -2 -12   9   62.93   22.66
   2 -12  -9   93.02   23.25
   2 -12  -9   43.81   15.67
   2  12  -9   49.45   17.27
  -2  12   9   54.64   20.81
   2  12  -8 1671.63  100.10
   2  12  -8 1636.50  110.63
   2 -12  -8 1680.36  122.31
  -2  12   8 1976.73  140.97
  -2  12   8 1452.17  116.67
  -2 -12   8 1851.62  130.59
   2  12  -8 1460.45  117.42
  -2  12   8 1545.83  120.01
  -2  12   8 1555.01  126.45
  -2  12   8 1806.46  114.97
  -2  12   7   88.42   17.62
  -2  12   7   84.98   22.70
  -2 -12   7  106.54   20.81
   2  12  -7   64.17   14.12
   2 -12  -7   94.81   19.91
   2 -12  -7   61.78   16.82
   2  12  -7   91.82   12.67
  -2  12   7   96.51   20.06
   2  12  -7   97.76   20.26
  -2  12   7   64.17   20.16
   2  12  -6 1050.81   60.68
   2 -12  -6  876.61   67.47
  -2  12   6  957.45   70.21
  -2  12   6 1102.36   79.69
  -2 -12   6  920.42   61.38
   2  12  -6  942.03   69.61
  -2  12   6 1143.63   69.06
  -2  12   6  868.78   73.85
   2 -12  -6 1084.30   71.66
   2  12  -6 1147.77   59.73
   2  12  -5  410.68   31.69
  -2 -12   5  336.98   26.15
  -2  12   5  429.70   43.56
  -2  12   5  436.63   39.17
  -2  12   5  336.33   40.82
   2 -12  -5  345.81   37.43
   2 -12  -5  422.51   39.12
   2  12  -5  308.99   36.38
   2  12  -5  398.41   32.14
   2  12  -4 6841.27  398.16
  -2  12   4 8356.31  409.94
  -2  12   4 7716.23  412.03
  -2  12   4 6559.98  413.58
   2  12  -4 6379.54  406.24
   2 -12  -4 7344.12  406.19
   2 -12  -4 6495.70  405.99
  -2  12   3  912.74   56.09
   2  12  -3 1017.58   52.05
   2 -12  -3  889.04   46.16
  -2  12   3 1017.48   50.00
  -2  12   3   -0.80    3.69
   2 -12  -3  944.67   44.76
   2  12  -3  872.22   38.32
  -2  12   2  217.17   22.75
   2  12  -2  230.39   22.95
   2 -12  -2  213.78   24.75
  -2  12   2  246.46   30.04
  -2  12   2   42.22   13.12
   2  12  -2  193.77   23.15
   2 -12  -2  204.74   23.10
   2 -12  -2  220.56   22.36
   2  12  -2  205.14   20.51
   2 -12  -2   55.14   14.97
  -2  12   1 1140.79   86.98
   2  12  -1 1349.12   84.18
   2  12  -1 1225.47   73.01
   2 -12  -1 1485.20   88.08
  -2  12   1 1388.44   96.26
   2 -12  -1 1075.76   84.18
   2  12  -1 1245.33   87.33
  -2 -12   1 1430.56   91.07
  -2 -12   0 5786.31  285.03
   2 -12   0 5511.36  280.44
   2  12   0 5755.57  283.44
   2 -12   1 1581.66   59.48
   2  12   1 1437.20   57.89
  -2 -12  -1 1613.35   64.72
   2 -12   1 1355.76   51.60
  -2  12  -1 1668.14   70.76
  -2  12  -1 1267.58   56.09
  -2  12  -1 1126.86   61.68
   2  12   1 1546.58   48.25
   2  12   2 1813.00  108.58
   2 -12   2 1682.01  116.07
   2  12   2 1703.37  116.82
  -2 -12  -2 1997.48  125.55
  -2 -12  -2 1897.53  122.31
  -2  12  -2 1927.17  123.21
  -2  12  -2 1592.14  119.36
  -2 -12  -3 5504.87  323.26
  -2  12  -3 4932.91  323.11
  -2  12  -3 6135.62  324.41
  -2 -12  -3 5413.80  323.46
   2  12   3 5026.72  316.82
   2  12   3 5897.19  307.14
   2 -12   3 4761.95  316.32
  -2 -12  -4  665.13   58.33
   2  12   4  699.56   46.11
  -2  12  -4  644.17   64.87
  -2 -12  -4  685.94   62.13
  -2  12  -4  722.52   59.13
   2  12   4  615.33   55.54
  -2  12  -4  651.66   62.97
   2 -12   4  679.00   58.03
   2 -12   5   86.68   20.31
  -2  12  -5   69.16   21.01
  -2 -12  -5   93.07   18.76
   2  12   5   84.28   11.03
  -2  12  -5  115.57   20.86
  -2 -12  -5  114.52   23.70
   2  12   5   95.41   18.36
  -2  12  -5   89.97   22.36
  -2  12  -6  293.42   42.32
  -2 -12  -6  328.50   37.43
  -2  12  -6  390.42   40.82
  -2 -12  -6  370.81   47.06
   2  12   6  283.79   37.03
   2 -12   6  324.76   40.02
  -2  12  -6  396.51   49.05
   2  12   6  317.52   38.12
  -2 -12  -7 2373.14  156.74
  -2  12  -7 2411.11  138.82
  -2  12  -7 1489.04  135.98
   2 -12   7 2049.58  138.97
  -2  12  -7 2168.69  153.84
   2  12   7 1703.42  132.94
  -2 -12  -7 1795.19  128.84
  -2  12  -8  316.92   36.48
   2  12   8  207.89   31.29
  -2  12  -8  199.80   35.98
  -2 -12  -8  336.08   49.75
   2  12   8  232.34   35.18
  -2  12  -8  300.50   47.81
   2 -12   8  273.21   36.98
   2  12   9  276.95   36.23
   2  13 -10  413.33   43.41
   2 -13 -10  333.69   44.36
  -2  13  10  405.25   50.25
  -2  13   9   90.47   27.99
   2  13  -9   55.09   18.46
   2  13  -9   88.77   18.56
  -2  13   9   74.75   24.30
   2 -13  -9   71.71   20.26
   2 -13  -9   51.80   18.51
  -2  13   9   71.81   20.06
  -2  13   8   29.84   12.43
  -2  13   8   42.32   21.76
  -2 -13   8   24.50   15.22
   2 -13  -8   29.09   14.02
  -2  13   8   20.56   13.02
   2  13  -8   24.95    7.73
   2  13  -8   24.05   13.12
   2  13  -8   19.81   10.68
   2 -13  -8   17.96   12.43
  -2  13   8   16.42   11.23
  -2  13   8   27.79   16.22
  -2 -13   7  271.81   32.29
  -2  13   7  370.07   45.91
   2 -13  -7  265.47   35.28
   2  13  -7  293.67   29.99
   2  13  -7  310.08   26.90
   2  13  -7  249.60   34.53
  -2  13   7  304.99   33.48
   2 -13  -7  221.16   32.49
  -2  13   7  288.53   36.98
  -2  13   7  250.40   38.72
  -2  13   6  559.74   54.84
  -2 -13   6  436.58   37.68
  -2  13   6  453.10   44.46
  -2  13   6  496.91   49.05
   2  13  -6  534.24   41.02
   2 -13  -6  411.48   45.76
  -2  13   6  448.16   51.50
   2  13  -6  441.37   47.16
   2 -13  -6  494.42   47.95
  -2  13   5  247.31   31.09
  -2  13   5  272.41   34.38
  -2  13   5  247.76   34.38
   2  13  -5  252.20   31.94
   2 -13  -5  269.22   30.84
   2 -13  -5  209.63   29.24
   2  13  -5  266.92   25.60
  -2  13   5  313.43   32.39
  -2  13   4 1115.19   75.75
  -2  13   4 1018.33   76.25
   2 -13  -4  975.06   72.81
   2  13  -4  935.24   75.30
   2  13  -4  988.24   67.42
  -2  13   4  872.77   77.85
   2 -13  -4  917.03   73.15
   2 -13  -3  130.04   18.81
   2  13  -3  129.24   19.66
   2 -13  -3  153.55   19.06
   2  13  -3  114.97   14.67
  -2  13   3  124.35   18.71
  -2  13   3  126.15   18.11
  -2  13   3  104.64   20.26
  -2  13   2 2191.40   67.82
  -2  13   2 2093.09   86.33
   2  13  -2 1888.35   63.72
   2 -13  -2 1712.20   68.36
   2 -13  -2 1972.38   69.41
   2 -13  -2 2037.85   66.12
   2  13  -2 1975.93   72.11
   2  13  -2 1773.88   57.74
   2 -13  -1  357.19   29.09
   2  13  -1  398.51   14.92
  -2  13   1  381.79   36.63
   2  13  -1  429.75   29.09
   2 -13  -1  451.20   31.84
   2  13  -1  413.13   33.08
  -2 -13   1  439.18   34.93
   2 -13   0  404.20   29.24
  -2 -13   0  432.59   33.88
   2  13   0  486.78   29.34
   2  13   0  429.35   32.59
  -2 -13  -1   52.15   12.97
   2 -13   1   48.30   10.83
   2  13   1   57.98   12.53
   2 -13   1   55.04   12.48
  -2  13  -1   54.34   14.62
   2  13   1   68.71   11.93
  -2  13  -1   71.06   14.17
  -2 -13  -2 1710.45  114.92
   2  13   2 1416.44  104.04
   2 -13   2 1398.17  102.45
   2  13   2 1637.20   96.86
  -2  13  -2 1741.19  111.33
  -2 -13  -2 1603.82  109.23
  -2  13  -2 1345.03  106.04
   2  13   3   90.92   13.22
  -2 -13  -3  103.54   20.76
   2 -13   3   86.73   17.02
  -2  13  -3  103.29   19.56
   2  13   3   86.53   17.42
  -2  13  -3  103.79   21.16
  -2  13  -3   84.08   18.66
  -2 -13  -3   88.47   20.21
  -2  13  -4   50.90   16.07
  -2 -13  -4   34.18   12.72
   2  13   4   38.02   12.18
  -2 -13  -4   41.02   14.02
   2 -13   4   36.08   12.28
   2  13   4   42.91    8.93
  -2  13  -4   59.08   19.06
  -2  13  -4   44.56   13.07
   2 -13   4   30.09   13.27
  -2 -13  -5  688.93   65.57
  -2 -13  -5  644.57   59.33
  -2  13  -5  591.53   64.72
   2  13   5  589.73   56.19
  -2  13  -5  721.67   59.83
   2 -13   5  721.42   63.77
  -2  13  -5  611.59   63.97
   2  13   5  638.63   44.66
  -2 -13  -6   23.55   14.02
  -2  13  -6   19.96   14.42
  -2  13  -6   12.18   10.03
   2  13   6    8.18    8.48
  -2 -13  -6   23.65   11.23
   2 -13   6   35.78   14.47
  -2  13  -6   12.08   10.63
  -2  13  -7  243.67   31.69
  -2 -13  -7  198.16   37.48
   2  13   7  194.96   30.54
  -2  13  -7  239.57   39.97
  -2  13  -7  158.68   32.49
   2  13   7  141.52   26.65
   2 -13   7  191.62   31.34
   2  13   8   27.84   13.07
  -2  13  -8   62.28   17.37
   2 -13   8   62.48   19.46
  -2  13  -8   27.20   14.37
   2  13   8   62.73   18.51
   2  13   9  323.66   40.52
   2 -14 -10   94.51   24.15
   2  14 -10  125.00   23.35
   2  14  -9   66.27   15.82
   2 -14  -9   38.62   15.87
  -2  14   9   73.50   18.46
   2 -14  -9   55.89   19.81
   2  14  -9   56.29   19.41
  -2  14   9   56.39   22.36
  -2  14   9   42.96   16.62
  -2  14   9   84.13   28.34
  -2  14   8 1530.01  121.91
  -2 -14   8 1561.90  108.48
   2  14  -8 1474.87  101.30
  -2  14   8 1287.44  107.34
   2  14  -8 1333.25  110.23
  -2  14   8 1925.23  132.99
   2  14  -8 1554.41   94.46
   2 -14  -8 1608.91  116.02
   2 -14  -8 1258.15  107.99
  -2  14   8 1366.79  111.38
  -2  14   8 1643.44  107.09
   2 -14  -7  380.25   44.06
  -2  14   7  355.79   48.20
  -2  14   7  507.04   54.54
   2 -14  -7  373.06   43.76
   2  14  -7  437.88   35.53
  -2  14   7  353.35   43.16
   2  14  -7  465.03   38.72
  -2 -14   7  386.33   36.53
  -2  14   7  361.83   41.32
   2  14  -7  357.09   43.26
  -2  14   7  467.47   43.21
  -2  14   6   73.55   19.81
  -2 -14   6   55.09    7.98
   2 -14  -6   51.00   14.97
   2  14  -6   66.02   12.92
  -2  14   6   70.76   16.67
  -2  14   6   57.09   15.57
   2 -14  -6   48.85   14.62
  -2  14   6   33.73   16.07
  -2  14   5  243.22   31.94
   2 -14  -5  250.55   30.19
   2  14  -5  252.75   31.59
   2 -14  -5  227.50   29.79
  -2  14   5  180.74   30.34
  -2  14   5  219.07   29.89
   2  14  -5  241.37   24.75
  -2  14   5  265.22   30.24
  -2  14   4 1238.89   88.67
  -2  14   4 1282.85   88.22
   2 -14  -4 1209.55   86.03
   2 -14  -4 1186.79   87.38
  -2  14   4 1074.72   91.27
   2  14  -4 1198.12   89.82
   2  14  -4 1150.62   79.69
  -2  14   3   13.52    7.73
   2 -14  -3    7.19    6.24
  -2  14   3    5.84    7.09
   2  14  -3    6.99    7.58
   2 -14  -3    3.59    6.54
  -2  14   3    1.25    6.74
   2  14  -3   11.83    6.44
   2  14  -3   -1.70    5.14
   2  14  -2   26.70    9.13
  -2  14   2   18.61    8.93
   2  14  -2   13.52    7.83
   2  14  -2   51.80   12.82
   2 -14  -2    1.90    5.44
   2 -14  -2   36.43   10.88
   2 -14  -2   23.55    9.18
  -2  14   2   16.12    9.93
   2  14  -1    5.49    6.54
   2  14  -1    6.74    2.54
   2  14  -1   14.72    7.39
   2  14  -1   11.78    6.54
   2 -14  -1   10.18    6.54
   2 -14  -1   32.54    9.98
  -2 -14   1    9.38    6.79
  -2  14   1    2.40    6.19
   2  14   0  410.14   35.13
   2  14   0  366.52   37.58
  -2 -14   0  445.57   41.32
   2 -14   0  337.83   34.53
   2 -14   1   85.03   14.67
   2  14   1   77.05   15.72
   2  14   1   93.56   14.87
  -2  14  -1   78.14   17.81
  -2 -14  -1   99.30   18.11
   2 -14   1   93.51   16.67
  -2  14  -1   68.26   14.72
   2 -14   2  703.70   57.98
  -2 -14  -2  905.80   74.40
   2  14   2  766.53   64.12
  -2  14  -2  939.29   70.21
   2 -14   2  736.44   61.38
   2  14   2  859.29   57.09
  -2  14  -2  710.79   64.57
  -2 -14  -2  887.39   68.96
  -2  14  -3   29.44   11.58
  -2 -14  -3    7.78    9.38
  -2  14  -3    5.89   10.03
  -2 -14  -3    2.35    6.99
   2  14   3   18.91    7.24
   2  14   3   11.63    7.39
   2 -14   3   14.87    9.08
   2 -14   3    3.64    9.43
  -2  14  -3    6.04    5.84
   2 -14   4  276.80   33.73
  -2 -14  -4  308.14   38.77
  -2 -14  -4  299.71   37.97
   2  14   4  291.62   25.80
   2 -14   4  288.78   37.58
  -2  14  -4  271.16   40.57
   2  14   4  247.31   31.99
  -2  14  -4  280.89   37.82
  -2  14  -4  303.25   35.23
  -2  14  -5   10.88    9.78
  -2 -14  -5   12.58   11.73
  -2  14  -5    3.09   11.58
  -2 -14  -5    5.94    9.78
   2  14   5   19.86   10.28
  -2  14  -5    5.04   11.08
   2 -14   5   13.37   11.83
   2  14   5    5.09    6.09
  -2 -14  -6  398.76   45.46
  -2  14  -6  390.52   51.55
  -2  14  -6  456.39   54.69
  -2  14  -6  512.73   48.70
   2 -14   6  450.85   50.35
  -2 -14  -6  465.97   54.74
   2  14   6  423.71   32.54
   2  14   6  364.23   43.76
  -2  14  -7 1296.33  108.58
   2  14   7 1115.04   93.31
  -2  14  -7 1473.08   97.11
  -2 -14  -7 1389.29  111.63
  -2  14  -7 1002.56   97.41
   2 -14   7 1299.42   98.70
   2  14   7  923.67   88.57
  -2  14  -8  283.44   35.18
   2  14   8  138.62   27.05
  -2  14  -8  173.56   33.88
   2 -14   8  282.79   37.78
  -2  15   9 1124.07   93.51
   2  15  -9 1151.21   84.53
   2 -15  -9 1065.78   93.51
  -2  15   9 1346.93  108.38
   2 -15  -9 1298.42  100.95
  -2  15   9 1370.03   91.02
   2  15  -8  711.39   74.30
   2 -15  -8  845.27   79.29
   2  15  -8 1068.83   67.42
   2 -15  -8 1062.09   85.33
  -2  15   8 1354.01  101.80
  -2  15   8  869.32   80.89
  -2  15   8 1152.16   79.04
  -2  15   8  855.25   77.75
  -2  15   8  955.00   90.72
   2  15  -8  859.49   80.09
   2 -15  -7   21.91   13.02
  -2 -15   7   18.16    6.14
  -2  15   7   20.46   14.42
   2 -15  -7   16.27   11.13
   2  15  -7   22.90   12.18
  -2  15   7   20.66   11.68
   2  15  -7   23.80    8.28
  -2  15   7    9.98    9.48
  -2  15   7   20.16   14.62
   2  15  -7    7.78    9.13
  -2  15   7   13.82    9.68
   2  15  -6 6964.82  477.90
  -2  15   6 9795.30  492.27
  -2  15   6 7912.84  480.85
   2  15  -6 8987.21  469.27
   2  15  -6 6656.83  474.66
   2 -15  -6 7889.74  480.55
  -2  15   6 7557.45  488.08
   2 -15  -6 9031.92  483.34
  -2  15   6 9999.00  480.70
  -2  15   5    2.84    8.83
  -2  15   5    2.25    5.99
   2 -15  -5   27.15   11.83
   2  15  -5   19.66   10.23
  -2  15   5    1.15    7.24
   2  15  -5    7.73    6.24
   2 -15  -5    5.04    5.99
  -2  15   5    4.24    9.88
  -2  15   4  381.69   41.47
  -2  15   4  406.14   41.32
   2  15  -4  376.95   42.57
   2 -15  -4  446.66   41.57
  -2  15   4  373.91   44.86
   2 -15  -4  383.79   40.97
   2  15  -4  390.97   35.63
  -2  15   4  445.77   42.52
   2  15  -4  400.01   40.57
   2 -15  -3  996.57   73.10
  -2  15   3 1022.37   73.30
   2  15  -3  892.83   71.96
   2 -15  -3  942.33   74.30
  -2  15   3 1121.17   79.14
   2  15  -3  976.16   76.80
  -2  15   3  968.13   81.04
   2  15  -3  877.11   67.47
  -2  15   2 9789.62  150.65
   2  15  -2 8253.46  163.58
   2  15  -2 9192.40  152.70
   2 -15  -2 9666.21  159.48
  -2  15   2 9614.86  196.66
   2 -15  -2 8550.18  160.13
   2  15  -2 8518.09  140.92
   2 -15  -1  709.99   62.93
  -2 -15   1  885.59   69.26
   2  15  -1  832.55   67.47
   2  15  -1  843.48   63.12
  -2  15   1  817.08   72.06
   2 -15  -1  969.48   67.22
   2  15  -1  867.73   50.45
   2  15  -1  743.52   61.18
   2 -15   0 1441.09  106.99
   2  15   0 1671.58   99.10
  -2 -15   0 1769.79  116.12
   2  15   0 1817.64  108.73
   2  15   0 1601.97  112.88
   2 -15   1 2922.45  197.61
   2  15   1 3583.84  198.61
   2  15   1 3224.95  205.29
  -2 -15  -1 3314.57  207.49
  -2  15  -1 3895.22  216.42
   2 -15   1 3789.63  216.37
  -2  15  -1 2748.04  200.95
   2 -15   1 3621.81  206.34
  -2  15  -2 4631.71  290.32
  -2  15  -2 5541.40  293.57
  -2  15  -2 5131.61  298.96
   2  15   2 4700.92  285.98
   2  15   2 5157.61  276.60
  -2 -15  -2 5719.05  304.65
   2 -15   2 4097.22  276.15
   2 -15   2 4205.55  280.54
   2 -15   2 5492.25  297.01
  -2  15  -2 4260.79  285.73
  -2 -15  -2 4850.92  290.12
  -2  15  -3  224.25   33.03
  -2 -15  -3  280.29   37.63
  -2  15  -3  254.39   32.39
  -2 -15  -3  294.86   36.03
   2 -15   3  203.40   27.89
   2 -15   3  246.81   35.08
   2  15   3  256.29   24.70
  -2  15  -3  219.81   32.04
  -2  15  -3  249.60   37.63
   2  15   3  188.53   27.79
   2  15   4 3977.60  206.34
  -2  15  -4 2906.63  219.81
  -2 -15  -4 3826.70  230.24
   2  15   4 3132.18  216.27
   2 -15   4 3062.67  215.17
  -2  15  -4 3419.71  231.59
  -2  15  -4 3117.91  222.91
  -2  15  -4 3929.10  222.46
  -2 -15  -4 3638.88  227.30
   2 -15   4 3951.80  229.20
  -2 -15  -5 4973.38  306.94
  -2  15  -5 4508.20  311.63
  -2  15  -5 4545.78  308.89
  -2  15  -5 5469.69  303.50
   2  15   5 5350.08  284.78
  -2 -15  -5 5005.66  310.93
   2  15   5 4262.44  297.31
   2 -15   5 5220.69  309.44
  -2 -15  -6 1302.86  103.39
  -2  15  -6 1596.93  105.29
   2  15   6 1186.99   99.05
  -2 -15  -6 1380.21  112.43
  -2  15  -6 1356.96  112.63
  -2  15  -6 1139.64  107.99
   2 -15   6 1396.43  107.49
   2  15   6 1367.88   84.43
  -2  15  -7 1670.18  141.42
  -2  15  -7 2272.49  138.28
  -2 -15  -7 2045.74  151.60
   2  15   7 1788.10  134.48
   2  15   7 1533.06  129.84
  -2  15  -7 2058.16  151.85
   2 -15   7 2127.33  142.27
  -2  15  -8  395.42   55.29
  -2  15  -8  558.09   53.64
  -2  16   9   19.61   13.12
   2 -16  -9   15.27   12.23
  -2  16   9   12.92   11.48
  -2  16   9   22.11   16.42
   2 -16  -8  912.79   84.08
   2  16  -8  736.94   77.55
  -2  16   8 1252.91  100.35
   2  16  -8 1178.46   72.11
  -2  16   8  957.05   85.53
   2  16  -8  960.44   85.48
   2 -16  -8 1097.72   88.72
  -2  16   8 1129.81   81.34
  -2  16   8 1114.79   97.81
  -2  16   8  872.92   80.89
   2  16  -7    8.68    9.43
   2  16  -7    6.14    6.64
   2  16  -7   12.18   10.03
   2 -16  -7   -1.30    9.13
   2 -16  -7   -1.35    8.18
  -2  16   7    6.69    9.93
  -2  16   7    1.55   11.33
  -2  16   7   -1.15    7.19
  -2  16   7   -1.00    9.68
  -2  16   7    1.75   11.08
  -2  16   6   23.40   11.88
   2  16  -6   18.96   12.03
  -2  16   6    6.34   10.83
   2  16  -6   22.56   10.13
   2 -16  -6   14.02    9.38
  -2  16   6   22.61   14.12
   2 -16  -6   34.48   13.27
  -2  16   6    6.24   10.43
   2  16  -6   23.20   11.23
   2 -16  -5  156.74   24.60
  -2  16   5  168.81   26.40
  -2  16   5  184.48   25.85
   2  16  -5  149.25   26.05
   2 -16  -5  147.46   25.05
   2  16  -5  146.26   19.76
  -2  16   5  117.72   23.00
  -2  16   5  121.46   25.65
  -2  16   4  429.85   42.82
   2 -16  -4  426.75   42.62
  -2  16   4  381.59   46.66
   2  16  -4  409.34   42.27
  -2  16   4  409.29   44.76
   2  16  -4  440.33   38.62
   2 -16  -4  421.46   43.71
   2  16  -4  428.40   45.61
  -2  16   4  462.68   44.66
  -2  16   3  526.21   47.46
   2 -16  -3  591.43   50.20
   2  16  -3  504.90   48.30
   2 -16  -3  548.91   51.20
  -2  16   3  526.75   51.70
   2  16  -3  541.23   52.65
  -2  16   3  533.29   55.49
   2  16  -3  531.20   45.26
  -2  16   3  634.39   54.99
  -2  16   2   25.30    9.28
   2  16  -2   48.85   12.82
   2 -16  -2   24.60   10.98
   2 -16  -2   48.25   12.77
   2  16  -2   15.87    8.98
  -2  16   2   15.97   12.72
   2  16  -2   33.53   13.12
   2  16  -1   50.55   12.62
   2  16  -1   63.72    6.89
   2 -16  -1   73.55   15.37
   2 -16  -1   52.89   13.67
   2  16  -1   56.64   13.67
   2 -16  -1   40.57   12.43
   2  16  -1  103.20   18.96
  -2 -16   1   75.20   16.82
  -2  16   1   41.67   14.87
   2  16   0   56.79    8.68
   2 -16   0   61.78   13.67
   2  16   0   44.81   13.57
   2  16   0   61.18   13.12
  -2 -16   0   60.48   15.67
   2 -16   1  394.37   38.52
   2 -16   1  454.10   44.01
   2  16   1  444.87   35.18
  -2  16  -1  473.71   50.75
   2  16   1  430.35   44.06
  -2  16  -1  331.39   39.47
  -2  16  -1  469.22   48.95
   2 -16   1  532.69   52.99
  -2  16  -1  421.91   45.96
   2  16   1  486.28   39.77
  -2 -16  -1  492.42   47.11
  -2 -16  -2   52.70   18.76
  -2  16  -2   42.22   14.37
   2 -16   2   37.82   10.28
  -2 -16  -2   47.56   15.32
  -2  16  -2   35.33   16.42
   2 -16   2   50.65   13.32
   2 -16   2   47.81   18.01
   2  16   2   42.67   11.28
   2  16   2   49.85   14.27
  -2  16  -2   67.67   17.12
  -2  16  -2   33.73   12.62
   2  16   3   48.85   10.83
   2 -16   3   18.26    7.73
  -2 -16  -3    9.48   11.43
  -2  16  -3    4.84   12.53
  -2  16  -3   16.32   12.03
   2  16   3   37.23   12.53
   2 -16   3    4.89    7.34
  -2 -16  -3   30.89   12.97
  -2  16  -3    5.79    7.88
   2 -16   3    6.89   11.73
  -2  16  -3    8.93    9.53
  -2 -16  -4   70.66   20.01
   2 -16   4   66.62   19.71
   2 -16   4   41.87   13.92
  -2 -16  -4   64.17   20.36
  -2  16  -4   65.67   19.56
   2  16   4   54.69   11.98
   2  16   4   52.25   15.77
  -2  16  -4   37.78   18.01
  -2  16  -4   43.01   15.92
  -2  16  -5   68.51   20.76
  -2 -16  -5   71.86   20.51
  -2  16  -5   68.96   18.06
   2  16   5   56.49   16.67
  -2 -16  -5   73.50   21.06
   2  16   5   81.04   12.97
  -2  16  -5   63.27   23.10
  -2  16  -5   66.32   20.21
   2 -16   5   73.85   22.21
  -2 -16  -6   90.77   22.66
  -2  16  -6   68.01   18.76
  -2 -16  -6   68.26   21.76
   2 -16   6   73.01   22.31
   2  16   6   93.02   20.66
  -2  16  -6   59.33   20.71
  -2  16  -7  669.52   60.68
   2  16   7  527.85   57.49
   2  16   7  452.45   53.79
  -2 -16  -7  712.19   74.15
  -2  16  -7  545.62   66.02
   2 -16   7  623.41   62.88
  -2  16  -8   30.09   16.72
  -2  17   9    1.45    8.13
   2 -17  -9   12.53   10.98
  -2  17   9    8.98    9.93
  -2  17   8  102.45   28.34
   2 -17  -8  103.69   24.40
   2  17  -8   86.93   21.01
  -2  17   8  129.99   23.25
  -2  17   8  125.60   30.84
   2  17  -8  110.03   26.05
  -2  17   8  100.25   24.20
  -2  17   8   72.86   19.91
   2 -17  -8  132.94   27.35
   2  17  -8   80.44   22.16
   2 -17  -7   67.72   18.36
   2  17  -7   47.51   16.62
  -2  17   7   83.83   22.75
  -2  17   7   59.43   17.81
   2  17  -7   56.29   17.81
   2 -17  -7   48.50   16.62
  -2  17   7   55.99   20.11
   2  17  -7   50.45   12.48
  -2  17   7   70.56   17.91
  -2  17   7   42.32   13.82
  -2  17   6  167.12   28.44
   2 -17  -6  174.80   27.79
  -2  17   6  169.31   28.59
   2  17  -6  165.17   28.39
  -2  17   6  226.10   28.84
   2 -17  -6  177.80   28.64
   2  17  -6  159.78   21.61
  -2  17   6  135.13   28.84
   2 -17  -5   50.35   14.12
  -2  17   5   22.36   12.43
   2  17  -5   32.93   13.52
   2 -17  -5   16.82   10.33
  -2  17   5   12.18   10.73
  -2  17   5   20.81   12.08
   2  17  -5   32.54   10.68
  -2  17   5   28.74   12.13
   2 -17  -4   47.90   14.07
  -2  17   4   38.72   13.27
   2  17  -4   45.81   15.22
  -2  17   4   64.97   18.01
   2  17  -4   32.78   12.13
  -2  17   4   40.07   14.77
   2 -17  -4   42.22   14.42
   2  17  -4   37.58   11.53
  -2  17   4   40.22   16.87
   2 -17  -3   15.22    8.03
   2 -17  -3   17.47    9.73
   2  17  -3   18.46    9.58
   2  17  -3   21.51   10.63
  -2  17   3   23.45    9.63
  -2  17   3    6.99    8.68
   2  17  -3   12.13    8.03
  -2  17   2  412.68   36.98
  -2  17   2  330.64   39.87
  -2  17   2  382.34   44.71
   2  17  -2  408.54   38.87
   2  17  -2  308.54   38.57
   2 -17  -2  333.99   38.17
   2 -17  -2  370.17   38.42
   2  17  -2  312.63   34.23
  -2  17   2  409.99   44.01
   2  17  -1   39.42    5.19
   2  17  -1   35.53   11.23
   2 -17  -1   32.19   11.68
   2  17  -1   19.21   10.53
   2 -17  -1   30.29   12.08
   2 -17  -1   65.67   14.22
  -2  17   1   44.66   14.27
  -2  17   1   36.28   14.72
   2  17  -1   34.73   12.18
  -2 -17   1   71.71   17.17
  -2 -17   1   28.49    5.99
   2  17   0   12.03    9.03
   2  17   0    8.73    9.13
   2 -17   0   14.42    8.53
   2  17   0    6.14    8.68
  -2 -17   0   26.75   13.12
   2  17   0   11.48    4.99
  -2  17   0   19.01   11.43
  -2  17  -1  219.71   33.28
   2 -17   1  163.03   22.61
  -2 -17  -1  220.36   30.89
   2  17   1  224.85   25.30
  -2  17  -1  209.63   31.59
   2 -17   1  213.78   28.59
  -2  17  -1  193.62   29.99
   2  17   1  194.51   20.61
  -2  17  -1  155.69   24.80
   2  17   1  216.07   29.39
   2 -17   1  257.54   36.13
   2 -17   2  346.56   35.53
  -2  17  -2  359.94   44.21
  -2 -17  -2  468.47   47.76
   2 -17   2  378.40   39.32
   2  17   2  436.53   37.53
  -2  17  -2  428.30   50.05
   2 -17   2  459.69   50.95
  -2  17  -2  462.88   47.21
  -2  17  -2  372.46   42.86
   2  17   2  407.79   43.36
   2 -17   3  427.90   41.02
  -2 -17  -3  564.08   62.18
  -2  17  -3  491.47   53.84
  -2  17  -3  474.71   56.69
   2 -17   3  442.17   45.96
  -2 -17  -3  588.48   56.69
  -2  17  -3  531.40   52.15
   2  17   3  536.78   42.42
   2  17   3  509.14   50.35
  -2  17  -3  449.41   50.55
   2 -17   3  545.37   57.34
  -2  17  -4   35.58   13.52
  -2 -17  -4   55.19   17.71
   2  17   4   53.94   11.88
  -2  17  -4   24.95   17.76
  -2  17  -4   30.89   13.87
   2  17   4   34.68   13.37
  -2 -17  -4   52.80   19.31
  -2  17  -4   55.14   18.41
   2 -17   4   41.27   17.96
   2 -17   4   23.00   11.98
  -2 -17  -5  314.38   43.81
  -2 -17  -5  309.14   43.66
   2  17   5  312.23   28.69
  -2  17  -5  272.61   40.82
  -2  17  -5  351.20   40.27
  -2  17  -5  309.64   43.76
   2  17   5  324.81   39.37
  -2  17  -5  244.91   41.97
   2 -17   5  348.81   45.26
  -2 -17  -6   35.43   17.37
  -2  17  -6    9.93   11.28
  -2  17  -6   43.81   18.41
  -2 -17  -6    4.79   10.88
   2  17   6   16.22    8.13
  -2  17  -6   17.27   14.27
  -2  17  -6   22.85   12.43
   2  17   6   21.51   11.88
   2 -17   6    1.60   11.93
  -2  17  -7  555.25   66.02
   2 -17   7  652.70   65.42
  -2  17  -7  754.70   63.57
   2 -18  -9   19.36   12.87
  -2  18   8 2261.81  142.42
   2  18  -8 1255.56  115.37
   2 -18  -8 1546.73  123.26
   2 -18  -8 1801.27  128.79
  -2  18   8 1862.05  139.37
  -2  18   8 2082.72  122.61
  -2  18   8 1445.23  117.12
  -2  18   8 1593.74  124.15
   2  18  -8 1423.97  121.96
  -2  18   7  625.86   61.28
   2  18  -7  385.43   48.65
  -2  18   7  642.92   54.49
  -2  18   7  475.81   53.94
   2  18  -7  490.73   54.74
   2  18  -7  606.95   47.46
   2 -18  -7  510.54   55.84
  -2  18   7  436.28   48.65
  -2  18   7  492.57   60.33
   2 -18  -7  557.69   56.39
  -2  18   6   30.49   14.62
  -2  18   6   59.28   16.27
   2 -18  -6   48.50   16.02
  -2  18   6   28.99   15.22
  -2  18   6   39.42   15.67
   2 -18  -6   50.45   15.62
   2  18  -6   35.88   11.63
   2  18  -6   48.45   16.77
   2 -18  -5    3.79    7.78
   2 -18  -5    6.94    7.34
  -2  18   5    3.44    8.33
   2  18  -5   12.23   10.08
  -2  18   5   -1.10    8.53
   2  18  -5    3.94    6.69
   2  18  -5    1.25    6.29
  -2  18   5    3.14   10.03
  -2  18   4 7006.39  373.41
   2 -18  -4 6615.82  374.11
   2  18  -4 5648.99  370.66
   2 -18  -4 6281.78  375.90
  -2  18   4 5964.31  376.35
   2  18  -4 5804.48  375.90
   2  18  -4 6132.63  365.18
  -2  18   4 5980.68  381.24
  -2  18   4 7643.58  380.59
   2 -18  -3  303.05   37.43
   2  18  -3  305.34   38.47
   2  18  -3  301.85   35.88
   2 -18  -3  365.13   38.07
  -2  18   3  320.11   34.23
  -2  18   3  286.83   38.02
  -2  18   3  424.26   43.76
  -2  18   3  323.71   42.32
   2  18  -3  290.97   32.09
  -2  18   2  976.36   70.21
   2 -18  -2  907.95   74.95
  -2  18   2 1134.30   83.88
   2  18  -2  907.35   77.35
  -2  18   2  920.07   78.39
   2 -18  -2 1016.48   75.90
   2  18  -2  934.35   72.71
  -2  18   2  901.36   80.69
   2  18  -2  813.93   68.26
   2 -18  -1 1872.58  107.44
   2  18  -1 1834.96  110.03
   2  18  -1 1924.23  102.95
  -2 -18   1 1438.94   83.83
  -2  18   1 2175.78  120.11
   2  18  -1 1573.28   98.21
  -2 -18   1 1851.97  110.13
   2 -18  -1 1931.96  106.19
  -2  18   1 1838.80  111.73
   2  18  -1 2074.83   80.69
   2  18   0 7927.56  414.18
   2 -18   0 6370.50  425.21
  -2 -18   0 7581.35  437.68
   2  18   0 8164.49  428.00
   2  18   0 7204.25  434.19
   2  18   0 6467.11  425.56
   2 -18   0 8355.41  447.26
  -2  18   0 7109.59  436.58
   2  18   1  372.76   34.43
   2 -18   1  279.94   35.13
   2 -18   1  247.26   29.99
   2  18   1  334.24   28.29
  -2  18  -1  362.08   42.02
  -2 -18  -1  361.98   41.02
  -2  18  -1  352.25   43.86
   2 -18   1  348.51   44.41
   2  18   1  296.11   36.98
  -2  18  -1  343.07   41.77
  -2  18  -1  235.03   32.78
   2 -18   2  684.89   59.63
   2  18   2  894.12   61.03
   2 -18   2  745.67   64.32
  -2  18  -2  831.10   78.00
  -2 -18  -2  980.05   76.90
   2  18   2  747.92   68.91
  -2  18  -2  895.62   74.25
   2  18   2  906.90   63.47
   2 -18   2 1015.83   82.64
  -2  18  -2  810.44   73.45
  -2  18  -2  709.19   67.82
   2 -18   3 3903.20  277.35
  -2  18  -3 5490.35  310.93
  -2 -18  -3 5910.42  318.62
   2  18   3 4730.81  292.72
  -2 -18  -3 5201.87  300.75
   2 -18   3 4224.11  285.03
   2  18   3 5300.78  281.59
  -2  18  -3 5409.36  297.41
  -2  18  -3 4648.72  297.71
   2 -18   3 5885.47  310.53
  -2  18  -3 4138.19  291.82
   2  18   4 2506.42  138.08
   2 -18   4 1767.29  135.08
  -2 -18  -4 2451.23  166.92
  -2  18  -4 2123.09  155.84
  -2 -18  -4 2281.62  157.89
   2  18   4 2026.03  148.01
  -2  18  -4 2315.85  164.47
  -2  18  -4 2345.99  151.90
  -2  18  -4 1938.05  151.50
   2 -18   4 2599.14  165.42
  -2  18  -5  383.09   43.41
   2  18   5  382.24   33.28
  -2  18  -5  366.22   51.20
   2  18   5  332.59   41.77
  -2 -18  -5  413.38   51.95
  -2  18  -5  331.89   46.21
  -2  18  -5  278.75   42.91
   2 -18   5  422.26   51.95
  -2 -18  -5  428.45   51.90
  -2 -18  -6  268.92   43.16
  -2  18  -6  272.61   36.23
  -2  18  -6  229.84   40.92
  -2  18  -6  211.98   37.33
   2  18   6  230.59   34.88
   2 -18   6  271.01   41.37
  -2  18  -6  227.90   39.07
  -2  18  -7 2731.93  173.06
   2 -18   7 2754.58  182.94
   2 -19  -9   49.70   18.66
   2 -19  -8  286.13   41.47
  -2  19   8  329.70   38.87
  -2  19   8  258.59   37.38
  -2  19   8  318.27   49.60
  -2  19   7   16.32   11.68
  -2  19   7   27.55   16.12
   2  19  -7   24.75   13.12
  -2  19   7   14.57   11.03
  -2  19   7   25.00   12.87
   2  19  -7   32.54   11.93
   2 -19  -7   24.00   14.72
   2  19  -7   26.50   14.57
  -2  19   7   15.37   13.92
   2  19  -6    6.64    7.49
   2 -19  -6    8.48   10.48
  -2  19   6    9.33    9.88
   2  19  -6   13.47   11.68
  -2  19   6    2.25   10.38
   2 -19  -6   10.43   10.88
  -2  19   6    1.75   11.98
  -2  19   6    4.24    9.98
   2  19  -6    5.44    8.03
   2 -19  -5   34.78   15.07
   2  19  -5   43.66   15.67
  -2  19   5   52.15   15.32
  -2  19   5   33.28   14.52
   2 -19  -5   47.01   14.22
   2  19  -5   28.04   12.48
  -2  19   5   60.48   19.61
  -2  19   5   56.64   16.77
   2  19  -5   40.82   11.93
   2  19  -5   41.02   14.32
   2 -19  -4  860.39   71.06
   2  19  -4  740.83   68.76
   2 -19  -4  872.07   74.20
   2  19  -4  803.45   64.82
  -2  19   4  792.73   76.95
  -2  19   4  894.52   69.86
  -2  19   4  799.36   73.95
  -2  19   4 1057.10   77.60
   2  19  -4  824.56   75.05
  -2  19   3   23.35   13.12
  -2  19   3   49.15   15.67
  -2  19   3   13.32    8.63
   2  19  -3   15.97    9.98
   2 -19  -3   20.76   11.78
   2 -19  -3   29.94   11.13
  -2  19   3   19.46   12.28
   2  19  -3   22.70   10.93
   2  19  -3   17.76    9.18
   2  19  -2   19.31   10.83
   2 -19  -2   33.33   12.08
   2  19  -2   30.99   12.23
  -2  19   2   21.86    9.78
   2 -19  -2   39.67   14.12
  -2  19   2   35.83   15.07
  -2  19   2   70.66   18.86
  -2  19   2   32.04   14.12
   2  19  -2   19.81    9.83
   2 -19  -1  261.28   33.68
   2  19  -1  312.88   33.93
  -2 -19   1  223.61   21.41
  -2 -19   1  283.94   36.33
   2  19  -1  282.29   36.23
  -2  19   1  243.52   34.88
   2 -19  -1  296.46   34.08
  -2  19   1  332.69   41.27
   2  19  -1  243.27   30.14
   2  19   0   32.09   14.17
   2 -19   0   13.17    8.43
  -2 -19   0   54.54   16.72
  -2  19   0   24.15   13.17
   2  19   0   30.19   12.87
   2  19   0   25.85   11.48
   2  19   0   26.15    7.14
   2 -19   1  236.18   29.04
  -2  19  -1  296.36   38.87
  -2 -19  -1  328.20   39.77
   2  19   1  280.89   25.70
  -2  19  -1  316.02   41.92
  -2  19  -1  291.22   38.57
   2  19   1  315.47   32.44
   2  19   1  318.72   38.32
  -2  19  -1  195.76   29.74
   2 -19   1  335.98   44.01
   2  19   1  222.06   30.19
  -2  19  -2  147.36   25.90
   2 -19   2  159.78   30.94
   2  19   2  120.06   22.90
   2  19   2  147.81   18.81
  -2  19  -2   83.53   22.26
   2 -19   2   93.36   16.92
   2 -19   2  107.19   19.96
  -2  19  -2  128.30   27.89
   2  19   2  148.95   20.96
  -2  19  -2   78.39   19.96
  -2 -19  -2  105.29   22.61
   2  19   3  227.65   26.25
  -2 -19  -3  234.04   40.82
   2 -19   3  201.95   36.53
  -2 -19  -3  231.49   34.53
  -2  19  -3  198.56   30.99
   2  19   3  205.14   31.49
   2 -19   3  166.12   26.05
   2 -19   3  150.55   22.01
   2  19   3  206.94   25.05
  -2  19  -3  174.75   29.89
  -2  19  -3  177.95   31.94
  -2  19  -3  201.60   35.88
   2 -19   4  201.60   26.40
  -2 -19  -4  281.69   45.36
   2  19   4  267.02   36.33
   2  19   4  311.98   34.03
  -2  19  -4  304.10   45.36
   2 -19   4  237.88   32.83
  -2  19  -4  249.55   39.77
  -2  19  -4  207.84   35.93
  -2 -19  -4  282.64   40.42
  -2  19  -4  277.80   36.63
   2  19   4  322.56   30.59
   2 -19   4  353.00   46.76
  -2 -19  -5  197.56   36.13
   2  19   5  178.10   30.79
  -2 -19  -5  186.93   36.68
   2  19   5  219.91   24.05
  -2  19  -5  159.08   35.88
  -2  19  -5  213.18   31.64
   2  19   5  241.57   31.79
  -2  19  -5  214.92   36.78
   2 -19   5  252.55   40.57
  -2  19  -5  160.23   31.84
   2 -19   6   25.55   18.41
   2  19   6   38.22   16.27
   2  19   6   24.65   13.42
  -2  19  -6   46.21   19.46
  -2  19  -6   32.59   19.66
  -2  19  -6   38.77   16.02
  -2  19  -6   30.09   16.72
  -2  19  -7  381.54   46.06
   2 -19   7  377.75   51.70
  -2  20   8  538.23   53.04
   2 -20  -8  452.20   56.19
  -2  20   8  541.87   67.22
  -2  20   7  451.85   52.50
   2  20  -7  359.99   46.46
  -2  20   7  525.76   55.94
   2 -20  -7  417.32   51.70
  -2  20   7  516.13   49.65
   2  20  -7  431.09   52.80
   2 -20  -7  512.88   54.29
   2  20  -7  496.07   44.21
  -2  20   7  351.65   43.81
  -2  20   7  479.15   59.78
  -2  20   6   25.45   14.07
   2  20  -6   17.52    8.98
   2  20  -6    1.55    8.63
   2 -20  -6   17.76   11.43
   2  20  -6   23.95   12.72
   2 -20  -6   10.43   11.88
  -2  20   6    8.33   12.48
  -2  20   6   26.70   14.72
  -2  20   6    9.08   13.17
   2 -20  -5   70.51   17.91
   2  20  -5   49.80   16.57
  -2  20   5   53.64   15.62
   2  20  -5   63.47   17.37
  -2  20   5   56.54   16.52
   2 -20  -5   63.27   18.26
   2  20  -5   50.25   13.37
  -2  20   5   42.12   15.67
  -2  20   5   42.37   18.91
   2  20  -5   46.51   16.07
  -2  20   4   72.41   19.76
   2  20  -4   91.62   17.22
  -2  20   4   64.72   16.57
   2 -20  -4   73.01   17.02
   2  20  -4   51.40   16.02
  -2  20   4   49.00   16.07
   2  20  -4   81.74   20.41
  -2  20   4   51.30   18.41
   2 -20  -4   50.70   16.87
  -2  20   3   62.88   19.56
   2  20  -3   43.56   15.62
  -2  20   3   35.08   12.58
   2  20  -3   40.37   14.02
   2 -20  -3   21.86   12.53
  -2  20   3   32.44   14.77
   2  20  -3   25.90   10.58
  -2  20   3   40.72   15.22
   2 -20  -3   63.52   15.82
   2 -20  -2  251.00   31.69
   2  20  -2  167.02   24.55
   2 -20  -2  211.03   30.99
   2  20  -2  180.54   27.25
  -2  20   2  242.57   34.78
   2  20  -2  198.61   31.44
  -2  20   2  198.01   32.34
  -2  20   2  221.61   26.55
  -2  20   2  186.38   32.09
  -2  20   1  128.59   25.20
  -2 -20   1   97.21   12.62
   2 -20  -1  130.24   23.60
   2  20  -1  118.66   23.05
  -2  20   1  117.07   24.70
   2 -20  -1  132.54   22.80
   2  20  -1  132.29   22.06
   2  20  -1  112.58   20.06
   2  20   0   33.18   12.53
  -2  20   0   35.43   14.52
   2 -20   0   10.98    8.63
  -2 -20   0   24.60   12.18
   2  20   0   49.05    8.33
   2  20   0   61.53   16.72
   2  20   0    9.13    9.03
  -2  20   0   16.27   12.43
   2  20   1   33.68   12.92
   2  20   1   54.74   14.67
   2  20   1   26.70    8.13
   2 -20   1   38.62   11.23
   2  20   1   34.38   12.87
  -2  20  -1   18.91   12.72
  -2  20  -1   40.87   15.62
  -2 -20  -1   43.36   14.77
   2 -20   1   37.08   19.51
  -2  20  -1   24.10   11.03
   2  20   2   19.76   10.88
   2 -20   2   16.72    8.38
   2  20   2   18.56    8.68
  -2  20  -2    8.98    9.08
  -2  20  -2   24.20   14.12
   2 -20   2   18.11    9.88
   2 -20   2   12.13   14.77
  -2  20  -2   13.82   15.57
   2  20   2   14.72    9.43
  -2  20  -2   30.29   14.47
  -2 -20  -2   15.97   11.08
   2 -20   3  117.67   28.54
   2 -20   3   70.41   14.77
  -2  20  -3  110.93   25.05
  -2 -20  -3  110.63   24.90
   2  20   3   93.56   16.72
   2  20   3  102.75   21.91
  -2  20  -3   87.38   21.06
  -2  20  -3  101.40   26.70
   2 -20   3   91.12   18.91
  -2  20  -3   73.25   20.61
   2  20   4  315.57   31.39
   2 -20   4  241.12   28.39
   2  20   4  311.68   34.58
  -2  20  -4  260.33   40.37
   2  20   4  256.09   37.23
  -2  20  -4  340.12   48.55
  -2  20  -4  310.78   39.32
  -2 -20  -4  302.80   42.96
  -2 -20  -4  333.74   50.15
   2 -20   4  363.53   48.90
   2 -20   4  232.44   32.98
  -2  20  -4  244.31   38.37
   2 -20   5    5.64   16.32
  -2 -20  -5    2.05   12.67
   2  20   5    1.15    9.48
  -2  20  -5    3.59   11.43
  -2  20  -5    5.34   10.18
  -2  20  -5    2.05   14.77
  -2 -20  -5    5.49   12.08
   2  20   5    4.79    7.73
   2  20   5   37.53   15.92
  -2  20  -5   32.98   15.92
   2 -20   6  185.33   38.32
   2  20   6  179.34   29.64
  -2  20  -6  108.78   28.89
  -2  20  -6  133.83   33.38
  -2  20  -6  149.70   27.84
   2 -20   7  376.70   53.09
  -2  20  -7  400.70   47.66
   2 -21  -8  180.89   34.68
  -2  21   8  260.48   46.11
  -2  21   7  534.89   56.89
   2 -21  -7  400.85   52.15
  -2  21   7  486.73   49.75
  -2  21   7  411.18   47.11
  -2  21   7  488.83   61.33
  -2  21   6 1162.54   89.27
  -2  21   6 1234.15   89.12
   2 -21  -6  980.15   88.77
   2  21  -6  948.02   87.78
  -2  21   6 1003.61   89.17
   2 -21  -6 1159.85   90.42
   2  21  -6 1034.20   78.05
  -2  21   6 1045.52   95.81
   2  21  -6  822.37   82.79
   2 -21  -5   40.67   15.37
   2 -21  -5   26.55   14.92
   2  21  -5   47.46   15.27
  -2  21   5   26.55   13.52
   2  21  -5   22.85   12.82
  -2  21   5   53.84   16.62
   2  21  -5   31.69   11.78
  -2  21   5   21.36   15.22
  -2  21   5   19.31   14.72
   2  21  -5   30.29   13.97
  -2  21   4  902.71   69.26
   2 -21  -4  844.32   74.45
   2  21  -4  736.49   63.62
  -2  21   4  758.89   74.05
  -2  21   4  768.08   75.95
   2  21  -4  772.57   69.51
   2  21  -4  785.84   74.45
   2 -21  -4  789.53   70.31
  -2  21   4  992.68   77.45
   2 -21  -3  809.59   73.55
  -2  21   3  935.49   68.31
   2  21  -3  830.95   71.16
  -2  21   3 1096.12   82.69
  -2  21   3  768.97   74.85
   2  21  -3  835.29   76.15
   2  21  -3  706.55   64.22
   2 -21  -3  824.26   71.21
  -2  21   3  834.49   78.24
   2 -21  -2 1125.82   83.83
   2 -21  -2  952.01   82.19
   2  21  -2 1064.59   80.94
   2  21  -2  945.27   84.68
  -2  21   2  966.53   86.53
  -2  21   2 1242.68   92.52
  -2  21   2  992.68   86.43
   2  21  -2  852.96   73.60
  -2 -21   1   98.55   12.87
   2 -21  -1  125.90   24.00
   2 -21  -1  103.84   20.41
   2  21  -1  109.38   22.95
   2  21  -1  134.88   22.51
  -2  21   1   95.46   23.20
  -2  21   1  101.70   22.66
   2  21  -1   77.70   17.81
   2  21   0    5.29    7.19
  -2  21   0   10.63   10.98
  -2 -21   0    5.69    8.03
   2  21   0    9.78    4.94
   2 -21   0   15.37   11.33
   2 -21   0   13.47    8.28
  -2  21   0   11.98   11.13
   2  21   0   -0.95    9.88
   2  21   0   23.55   11.53
   2  21   1  494.27   36.83
  -2  21  -1  483.14   53.49
   2 -21   1  389.03   41.02
  -2 -21  -1  576.95   56.64
  -2  21  -1  498.56   54.24
   2  21   1  439.93   49.75
   2  21   1  551.26   47.16
  -2  21  -1  332.84   42.82
   2 -21   1  424.46   43.11
   2  21   1  377.25   43.51
   2 -21   2  255.44   33.28
   2  21   2  299.31   29.69
  -2  21  -2  338.98   46.81
  -2  21  -2  324.56   41.57
  -2 -21  -2  296.56   41.12
   2 -21   2  259.34   30.49
   2  21   2  298.66   39.52
   2  21   2  324.41   34.48
  -2  21  -2  300.60   42.07
   2 -21   2  374.91   49.75
   2 -21   3  239.03   39.62
   2 -21   3  142.42   21.26
   2  21   3  187.38   24.25
   2  21   3  247.81   28.19
  -2  21  -3  244.07   40.42
  -2  21  -3  139.97   28.19
  -2 -21  -3  231.09   36.08
  -2  21  -3  207.14   32.29
   2  21   3  206.29   32.29
   2 -21   3  163.08   26.40
  -2  21  -3  163.28   31.79
   2  21   3  153.05   27.20
   2  21   4  245.81   35.48
   2 -21   4  242.42   27.94
   2  21   4  294.96   33.23
   2  21   4  229.64   35.98
  -2  21  -4  311.18   47.46
  -2  21  -4  208.14   37.33
  -2  21  -4  266.07   37.18
   2 -21   4  264.18   34.78
  -2 -21  -4  325.80   44.66
   2 -21   4  354.85   49.35
  -2  21  -4  202.95   35.83
   2  21   4  335.93   32.59
   2  21   5  522.01   51.00
  -2  21  -5  413.73   55.84
  -2  21  -5  521.36   64.42
  -2  21  -5  522.66   54.29
   2  21   5  439.13   52.65
  -2  21  -5  450.61   56.79
  -2 -21  -5  527.15   62.53
   2 -21   5  565.03   65.32
  -2  21  -6  323.66   43.06
   2  21   6  372.76   44.56
   2 -21   6  368.87   53.34
   2 -22  -7  276.95   42.77
  -2  22   7  319.17   39.52
  -2  22   7  277.35   46.86
  -2  22   6  966.58   76.90
  -2  22   6  920.52   75.05
  -2  22   6  768.42   75.75
   2 -22  -6  849.96   75.75
   2 -22  -6  811.29   77.80
   2  22  -6  810.14   65.77
   2  22  -6  759.94   75.90
  -2  22   6  828.51   82.69
   2  22  -6  610.14   69.01
  -2  22   5  289.48   37.33
  -2  22   5  255.34   33.43
   2  22  -5  271.11   36.28
   2 -22  -5  248.56   37.53
   2 -22  -5  262.53   35.93
   2  22  -5  202.30   34.83
   2  22  -5  212.28   28.64
  -2  22   5  220.56   38.57
   2  22  -5  150.75   29.84
  -2  22   4   54.39   16.12
   2  22  -4   37.73   16.47
   2 -22  -4   58.83   18.56
   2  22  -4   62.63   17.96
  -2  22   4   46.21   19.71
   2 -22  -4   44.01   15.62
   2  22  -4   41.62   13.42
  -2  22   4   75.40   21.26
  -2  22   4   47.71   18.96
  -2  22   3  393.27   39.37
   2 -22  -3  414.78   45.16
   2  22  -3  336.18   38.22
   2  22  -3  382.74   43.61
  -2  22   3  371.91   47.31
   2 -22  -3  381.59   46.01
   2  22  -3  405.20   48.80
  -2  22   3  443.87   50.25
  -2  22   3  309.19   45.01
   2 -22  -2  244.31   32.78
   2 -22  -2  196.96   31.94
   2  22  -2  189.57   29.14
   2  22  -2  201.00   27.74
   2  22  -2  197.06   32.74
  -2  22   2  184.13   32.74
  -2  22   2  231.29   36.18
  -2  22   2  254.44   37.82
  -2  22   1    3.04    9.68
   2 -22  -1   17.91   11.93
   2  22  -1    7.34    8.68
   2  22  -1    1.10    9.88
  -2  22   1    3.19   10.53
  -2 -22   1    8.78    4.89
   2  22  -1   20.56   10.03
   2  22   0  300.80   23.15
   2 -22   0  315.47   38.87
  -2 -22   0  271.46   38.27
   2  22   0  248.71   36.83
  -2  22   0  244.22   37.48
  -2  22   0  229.39   37.08
   2  22   0  209.63   30.79
   2  22   0  271.61   33.43
   2  22   1  574.66   41.67
   2 -22   1  473.41   47.46
   2  22   1  646.52   52.99
  -2  22  -1  484.04   56.69
  -2 -22  -1  603.60   61.58
   2  22   1  505.45   51.15
   2 -22   1  531.00   49.55
  -2  22  -1  393.52   48.05
  -2  22  -1  584.79   60.23
   2  22   1  580.85   58.78
   2  22   2   15.77   11.03
  -2  22  -2    1.45    9.03
   2 -22   2    1.70    5.59
   2 -22   2    8.53    7.88
  -2 -22  -2   -1.60    9.48
   2  22   2    8.93    9.48
  -2  22  -2    5.54   13.37
  -2  22  -2   11.63   13.22
   2  22   2    4.49    6.84
  -2  22  -2   10.93    9.58
   2 -22   3  234.28   40.87
   2  22   3  196.26   24.95
  -2  22  -3  176.75   30.64
   2  22   3  209.23   33.28
  -2  22  -3  217.12   36.38
   2  22   3  178.55   29.29
  -2  22  -3  258.34   41.37
  -2 -22  -3  196.51   34.13
   2 -22   3  134.33   21.16
   2 -22   3  200.90   28.94
   2  22   3  258.54   29.54
  -2  22  -3  126.80   27.10
  -2  22  -4   24.75   17.91
   2 -22   4   58.13   23.90
   2  22   4   22.11   12.92
   2  22   4   43.61   13.37
   2  22   4   39.92   15.92
   2  22   4   21.21   10.58
  -2 -22  -4   29.04   17.27
   2 -22   4   17.02   11.43
  -2  22  -4   18.46   11.93
  -2  22  -4   32.88   15.62
  -2  22  -4    5.39   12.23
   2 -22   5  185.43   37.68
  -2  22  -5  127.05   26.65
   2  22   5  128.45   24.00
  -2  22  -5  100.60   27.05
   2  22   6   18.11   13.07
  -2  22  -6   21.81   13.12
   2 -22   6   34.93   21.56
   2 -23  -7    3.54   11.28
  -2  23   7    1.30   11.58
  -2  23   6  147.86   27.74
   2 -23  -6   94.76   25.50
   2  23  -6  144.56   23.25
  -2  23   6  159.33   28.74
  -2  23   6  131.94   31.09
   2  23  -5  438.03   44.01
   2  23  -5  370.02   46.41
   2 -23  -5  428.55   52.15
   2  23  -5  427.05   52.15
  -2  23   5  484.29   48.40
  -2  23   5  411.03   54.44
  -2  23   5  562.13   54.49
   2 -23  -5  436.48   49.30
  -2  23   5  399.16   51.35
   2  23  -5  304.50   43.71
  -2  23   4  153.69   24.65
  -2  23   4  155.94   29.44
   2 -23  -4  127.35   27.15
   2  23  -4  143.07   28.84
  -2  23   4   93.41   24.60
   2  23  -4  119.91   25.20
   2  23  -4  131.84   22.75
  -2  23   4  113.82   27.40
   2 -23  -4  141.57   26.65
  -2  23   3   74.80   21.21
  -2  23   3   50.40   14.27
   2  23  -3   31.14   12.43
   2 -23  -3   58.23   19.01
   2  23  -3   78.79   21.51
  -2  23   3   43.81   17.86
   2 -23  -3   44.56   16.62
  -2  23   3   53.54   19.26
   2 -23  -2   98.45   21.86
   2 -23  -2  102.65   23.90
   2  23  -2   77.50   19.96
   2  23  -2   95.96   23.05
  -2  23   2   93.46   23.45
  -2  23   2   84.13   23.50
   2  23  -2   87.43   19.01
   2 -23  -1 1322.47  100.60
   2  23  -1 1195.98   99.70
  -2  23   1 1530.81  109.78
  -2 -23   1 1136.19   76.65
   2  23  -1 1324.62   94.31
   2  23  -1 1093.88   88.77
  -2  23   1 1181.60  100.20
  -2 -23   0   17.07   12.38
   2  23   0   13.47    5.49
   2 -23   0   15.77   12.43
  -2  23   0    4.89    9.23
   2  23   0    1.55    6.44
   2  23   0    6.44    8.78
  -2  23   0   20.91   15.12
  -2  23   0    1.60    9.88
   2  23   0   13.67   10.98
   2  23   1   36.03   15.47
   2 -23   1    8.28    8.33
   2  23   1   16.87    7.09
  -2 -23  -1   11.58   11.98
  -2  23  -1    3.34   10.98
  -2  23  -1   27.05   15.32
   2  23   1   29.04   12.53
   2  23   1   21.61   12.62
  -2  23  -1   13.92   11.18
   2 -23   2  410.19   45.56
  -2  23  -2  508.34   55.39
   2  23   2  506.39   41.02
   2 -23   2  478.45   43.96
  -2  23  -2  567.27   63.32
   2  23   2  548.86   48.65
  -2  23  -2  480.35   56.99
  -2  23  -2  324.31   45.96
   2  23   2  466.82   54.09
  -2 -23  -2  543.92   58.93
   2  23   3   67.12   18.76
   2  23   3  103.69   19.86
   2  23   3   67.92   15.27
   2  23   3   89.02   22.85
   2 -23   3   60.33   17.07
  -2 -23  -3  102.25   25.65
  -2  23  -3   81.59   21.41
  -2  23  -3   80.64   24.55
  -2  23  -3   99.45   27.74
  -2  23  -3   75.75   21.61
   2 -23   4  139.62   35.33
  -2  23  -4   70.46   21.31
   2  23   4  106.54   20.21
  -2  23  -4  102.80   24.30
  -2  23  -4  105.94   29.54
   2 -23   4   97.91   21.56
  -2  23  -4  116.52   28.49
   2 -23   5    2.10   17.62
   2  23   5    7.78   10.88
  -2  23  -5    2.94   10.93
  -2  24   6   86.68   22.46
  -2  24   6   45.96   18.06
   2  24  -6   54.29   15.72
   2 -24  -6   42.27   17.96
  -2  24   5   65.12   18.76
  -2  24   5   55.34   20.01
   2 -24  -5   90.12   24.70
  -2  24   5   73.20   22.31
   2  24  -5   58.38   16.57
  -2  24   5   78.34   24.40
   2 -24  -5  103.74   23.40
  -2  24   4  143.66   24.15
   2  24  -4  135.18   29.24
  -2  24   4  179.49   33.03
  -2  24   4  142.87   30.34
   2 -24  -4  137.38   28.94
   2 -24  -4  158.49   28.34
  -2  24   4  169.01   32.59
   2  24  -4  106.09   21.76
   2  24  -4  151.55   28.09
  -2  24   3  159.13   31.89
   2 -24  -3  130.84   26.10
   2 -24  -3  158.64   30.24
   2  24  -3  153.10   28.09
  -2  24   3  147.06   30.39
   2  24  -3  137.68   23.65
  -2  24   3  138.33   29.69
  -2  24   3  157.94   23.95
  -2  24   2  170.51   32.24
   2 -24  -2  178.40   31.54
   2  24  -2  165.42   31.54
   2 -24  -2  178.84   29.14
   2  24  -2  154.49   25.45
  -2  24   2  152.65   30.14
  -2  24   2  165.72   32.59
   2  24  -2  167.87   28.19
  -2  24   1  407.84   50.70
  -2  24   1  332.84   45.86
   2  24  -1  378.15   42.12
   2 -24  -1  362.93   45.76
   2  24  -1  309.19   43.76
   2  24  -1  287.78   36.83
  -2  24   0   16.52   14.62
   2 -24   0   37.87   16.52
   2  24   0   12.87   10.38
  -2 -24   0   43.91   16.82
   2  24   0    3.39   10.43
  -2  24   0   23.40   15.92
  -2  24   0   10.18   11.93
   2  24   0    9.73   10.33
   2  24   1  168.17   28.74
   2  24   1  216.57   21.96
   2 -24   1  195.91   28.49
   2  24   1  215.27   35.28
  -2 -24  -1  253.70   38.82
   2  24   1  230.64   31.24
  -2  24  -1  255.39   38.77
  -2  24  -1  162.78   28.74
  -2  24  -1  247.41   39.07
  -2 -24  -2  665.63   68.46
   2  24   2  586.04   46.51
  -2  24  -2  691.68   72.06
   2  24   2  617.12   54.54
   2  24   2  570.52   62.68
  -2  24  -2  557.74   60.78
  -2  24  -2  627.65   67.22
  -2  24  -2  451.15   54.69
   2 -24   2  543.82   53.59
  -2  24  -3   87.48   24.85
  -2  24  -3  100.30   27.60
  -2  24  -3   65.72   19.71
   2  24   3   80.19   16.12
   2 -24   3   66.02   17.66
   2  24   3   88.13   23.70
  -2 -24  -3   84.83   25.25
  -2  24  -3   74.30   21.26
   2  24   4    0.95    9.88
  -2  24  -4    5.14    9.63
  -2  24  -4    1.50   11.23
   2 -24   4    6.29    9.58
  -2  25   6 1001.26   85.08
  -2  25   5  221.41   36.18
  -2  25   5  184.18   29.39
   2  25  -5  184.43   28.44
  -2  25   4 1072.82   88.08
   2 -25  -4  913.49   85.88
   2 -25  -4  985.84   84.38
  -2  25   4  855.30   85.63
  -2  25   4  883.55   74.30
   2 -25  -3   40.97   15.02
   2  25  -3   29.39   16.02
   2 -25  -3   23.15   14.67
  -2  25   3   45.41   19.26
  -2  25   3   15.87   13.47
  -2  25   3   24.45   14.92
   2  25  -3   30.49   14.07
   2 -25  -2  781.00   74.05
   2  25  -2  727.90   73.35
   2  25  -2  766.13   68.61
  -2  25   2  884.74   79.49
  -2  25   2  701.66   72.91
  -2  25   2  687.09   72.71
   2  25  -2  580.30   59.88
   2 -25  -2  804.80   70.71
   2 -25  -1 1157.70   92.97
  -2  25   1 1000.31   91.22
  -2  25   1 1218.03   97.66
   2  25  -1 1102.06   84.43
   2  25  -1  939.88   88.22
   2  25  -1  788.04   76.10
   2 -25   0   59.03   20.26
  -2  25   0   75.80   22.31
   2  25   0   86.58   22.80
  -2 -25   0   78.39   22.36
   2  25   0   84.63   20.46
  -2  25   0   67.82   22.06
  -2  25   0   65.12   21.96
   2  25   0   41.92   15.37
  -2  25   0   52.89   15.97
  -2 -25  -1   33.83   16.32
   2  25   1    6.79   10.78
  -2  25  -1   13.37   11.73
   2 -25   1   10.98    9.33
  -2  25  -1   14.57   13.17
   2  25   1   21.66   12.87
   2  25   1   10.28   10.03
  -2  25  -1    6.69    8.23
  -2  25  -2   47.81   17.32
   2  25   2   44.56   19.01
  -2  25  -2   55.89   20.41
   2 -25   2   44.66   14.47
   2  25   2   46.01   16.62
  -2  25  -2   23.65   13.92
   2  25   3   25.60   14.67
   2 -25   3   26.45   12.97
  -2  25  -3   17.76   13.52
  -2  26   5   55.24   16.92
   2  26  -5   46.06   15.27
  -2  26   4  852.51   68.61
   2  26  -4  729.65   66.77
  -2  26   3    1.75   13.57
   2  26  -3    8.18   10.53
   2 -26  -2  150.25   28.19
  -2  26   2  165.02   33.23
   2  26  -2  151.60   28.64
   2  26  -2  151.30   26.30
  -2  26   2  206.34   36.78
   2 -26  -2  155.19   32.54
   2 -26  -1  416.47   51.25
   2  26  -1  428.70   46.81
   2  26  -1  289.18   39.32
  -2  26   1  383.09   51.70
  -2  26   1  473.91   56.39
   2  26  -1  389.93   51.10
   2  26   0 1263.29  100.75
  -2  26   0 1033.80   95.16
   2  26   0  955.30   82.99
  -2  26   0  835.19   80.94
   2  26   0 1357.95   91.57
  -2  26  -1    1.90   11.68
   2  26   1    4.79   10.33
  -2  26  -1   -1.40    7.04
   2 -26   1    1.15    8.33
   2 -26   2  199.40   29.94
  -2  26  -2  157.09   30.09
  -2  26  -3  856.45   80.44
   2  27  -1  162.78   28.99
   2  27   0  305.89   38.92
  -2  27   0  209.48   33.48
  -2  27  -1  248.11   37.38
   2  27   1  381.99   42.27
   2  27   2  542.67   50.90
  -2  27  -2  348.16   48.35
  -2  28   0 1229.76   98.06
   2  28   1   33.38   15.92
  -2  28  -1    1.45    9.53
  -3   0  11  290.47   66.32
   3   0 -11  230.59   34.63
   3   0 -11  159.58   29.04
   3   0 -10   53.39   16.02
   3   0 -10   83.93   19.41
  -3   0   9   52.75   27.05
   3   0  -9   74.90   16.62
   3   0  -9   51.55   15.32
   3   0  -9   46.06   13.72
   3   0  -8 2836.97  206.29
  -3   0   8 3711.53  248.51
   3   0  -8 3408.73  209.18
   3   0  -8 3341.02  204.89
  -3   0   7   13.47   13.87
   3   0  -7    9.98    6.54
   3   0  -7   11.83    7.14
   3   0  -7   22.36    9.53
  -3   0   6  413.28   47.46
   3   0  -6  345.41   34.73
   3   0  -6  375.95   33.88
   3   0  -6  342.97   30.84
  -3   0   5 1749.28  113.28
   3   0  -5 1614.49   96.61
   3   0  -5 1525.72   93.71
  -3   0   4 2506.67  165.32
   3   0  -4 2498.89  157.84
   3   0  -4 2557.42  152.70
   3   0  -4 2590.66  153.84
   3   0  -4 2750.79  147.51
  -3   0   3 1216.58   84.73
  -3   0   3 1312.29   82.74
   3   0  -3 1278.21   82.04
   3   0  -3 1208.00   80.59
   3   0  -3 1266.34   75.15
  -3   0   3 1291.34   76.85
   3   0  -3 1302.41   75.90
   3   0  -3 1317.43   76.60
   3   0  -2   28.09    6.74
  -3   0   2   12.97    4.59
  -3   0   2   11.03    3.99
   3   0  -2   14.32    4.19
   3   0  -2   22.46    5.19
   3   0  -2   15.47    2.25
   3   0  -1 1963.00  115.32
  -3   0   1 1968.29  120.26
   3   0  -1 1943.14  117.92
  -3   0   1 2092.10  117.77
  -3   0   0 1027.11   70.86
   3   0   0 1103.96   68.26
  -3   0   0 1090.44   64.67
  -3   0   0 1029.16   63.42
   3   0   0 1061.79   62.97
  -3   0  -1  454.00   30.49
   3   0   1  469.22   36.23
   3   0   1  478.15   28.99
  -3   0  -1  445.91   34.78
  -3   0  -2  782.90   55.04
   3   0   2  807.85   47.95
  -3   0  -2  727.16   37.87
   3   0   2  754.05   46.31
  -3   0  -2  769.97   48.30
  -3   0  -3   19.56   10.78
   3   0   3   -0.70    3.04
  -3   0  -3 1654.67   44.31
   3   0   3  112.58   15.82
  -3   0  -3 1760.70   65.02
  -3   0  -4   99.50   14.67
  -3   0  -4   95.01   17.96
  -3   0  -4   89.67    8.93
  -3   0  -5  714.63   52.45
  -3   0  -5 1026.16   75.10
  -3   0  -5  779.60   63.72
   3   0   5  990.88   69.21
  -3   0  -5 1054.01   84.23
   3   0   6    3.64    6.64
  -3   0  -6    6.99    6.39
   3   0   6    4.24    7.88
  -3   0  -6    4.94    3.84
  -3   0  -6   20.26   11.73
  -3   0  -6    6.94   11.43
  -3   0  -7  243.67   32.59
  -3   0  -7  255.19   25.50
  -3   0  -7  360.68   44.46
   3   0   7  285.93   33.43
  -3   0  -8   14.07   14.57
   3   0   8   34.38   12.62
  -3   0  -8   24.85   15.17
   3   0   9  247.76   32.29
   3   1 -11   86.83   21.56
  -3   1  11  183.69   55.04
  -3  -1  11  158.04   50.00
   3  -1 -11  116.17   25.10
   3  -1 -11   76.75   21.81
   3   1 -11  107.24   24.40
   3   1 -10   41.37   14.77
  -3  -1  10   62.73   34.43
  -3   1  10   56.29   23.35
   3  -1 -10   41.17   14.32
   3   1 -10   44.36   15.07
   3   1 -10   35.73   13.97
   3  -1 -10   26.15   12.53
  -3   1  10   64.97   34.23
   3  -1  -9  148.70   23.70
  -3   1   9  143.66   40.92
  -3  -1   9  153.40   41.87
   3  -1  -9  116.12   21.91
   3   1  -9  171.41   25.35
   3   1  -9   92.87   20.46
  -3   1   9  174.30   34.33
   3   1  -9  139.02   22.01
   3  -1  -8   86.98   17.17
  -3   1   8  129.89   34.13
  -3  -1   8  122.46   33.43
   3   1  -8   44.81   13.72
   3   1  -8   89.42   17.37
   3  -1  -8   82.49   15.82
   3   1  -8   80.09   15.92
   3  -1  -8   77.00   16.67
   3   1  -7   18.61    8.13
  -3   1   7    1.90   10.78
   3  -1  -7    8.73    6.49
   3   1  -7    4.74    6.04
   3  -1  -7    5.29    5.79
   3  -1  -7    5.19    5.74
   3   1  -7    9.63    6.29
  -3   1   7   -1.35    4.04
  -3  -1   7    3.84    9.23
   3  -1  -6  129.34   16.52
  -3  -1   6  148.06   27.94
  -3   1   6  172.66   29.79
   3  -1  -6  107.59   17.86
   3  -1  -6  152.75   19.41
   3   1  -6  146.81   17.96
   3   1  -6  158.98   20.11
  -3   1   6  206.99   27.89
   3   1  -6  140.12   19.81
  -3  -1   5   13.37    8.48
   3  -1  -5   15.02    5.44
   3   1  -5   14.42    5.24
   3  -1  -5    7.19    5.14
   3  -1  -5    5.94    4.04
   3   1  -5    7.34    4.14
  -3  -1   4  292.87   30.89
  -3   1   4  293.17   32.44
   3  -1  -4  271.11   26.75
   3   1  -4  267.87   25.65
   3  -1  -4  262.48   22.90
   3  -1  -4  255.94   21.21
  -3   1   4  290.02   20.26
   3   1  -4  267.57   17.37
   3   1  -4  256.99   22.80
   3  -1  -4  307.04   19.41
  -3  -1   3  154.19   18.56
  -3   1   3  163.03   19.96
   3  -1  -3  145.01   17.22
   3   1  -3  150.65   16.52
  -3   1   3  149.15   17.32
   3  -1  -3  120.81   15.27
  -3   1   3  137.83   13.92
   3   1  -3  150.10   12.28
   3   1  -3  139.72   15.82
   3  -1  -3  142.97   12.23
   3  -1  -3  157.14   12.92
   3  -1  -3  147.16   13.12
  -3   1   2   21.91    5.79
  -3   1   2   22.66    5.69
   3   1  -2   27.79    6.69
   3   1  -2   24.15    4.94
   3  -1  -2   25.85    2.94
   3  -1  -2   24.00    5.24
   3  -1  -2   25.80    5.69
   3  -1  -2   27.99    7.19
   3   1  -2   20.51    4.99
  -3   1   1  956.20   58.63
  -3  -1   1  960.29   57.39
   3   1  -1  906.05   55.14
  -3   1   1  913.64   60.43
   3   1  -1  862.69   57.89
   3  -1  -1  851.36   57.69
  -3  -1   1  888.39   59.93
   3  -1  -1  844.37   55.84
  -3   1   0   38.87    6.64
  -3  -1   0   39.07    5.59
   3  -1   0   47.11    6.19
  -3   1   0   41.32    8.68
   3   1   0   32.74    4.79
   3   1   0   35.23    7.49
   3   1   0   36.98    7.14
  -3   1   0   41.47    5.79
  -3  -1   0   37.23    5.84
   3  -1   0   39.17    7.73
   3   1   1 3195.76  172.81
   3  -1   1 3319.81  175.50
   3   1   1 3117.26  182.09
  -3  -1  -1 3049.70  181.49
  -3  -1  -1 2955.53  186.88
  -3   1  -1 3075.25  181.49
  -3  -1  -1 3023.55  173.41
  -3   1  -1 3118.96  178.70
   3  -1   1 3142.96  183.69
   3  -1   1 2969.55  180.79
   3  -1   2  732.50   40.47
   3  -1   2  181.79   27.84
  -3  -1  -2  774.16   51.05
  -3   1  -2  762.24   45.01
   3   1   2   75.85   24.35
   3   1   2  719.17   40.37
   3  -1   2  729.60   41.37
  -3  -1  -2  776.66   43.41
  -3   1  -2  815.88   43.81
  -3   1  -2  441.52   40.07
  -3   1  -2  745.97   35.78
  -3  -1  -3  802.96   23.30
  -3   1  -3  986.29   48.25
  -3   1  -3  896.07   38.52
  -3  -1  -3 1020.12   50.10
  -3   1  -3 1031.50   49.45
  -3  -1  -3  730.15   16.47
   3  -1   3  937.09   43.46
  -3  -1  -3   -1.20    5.44
  -3   1  -4  887.04   46.51
  -3  -1  -4  946.32   38.37
  -3  -1  -4 1046.32   56.34
  -3   1  -4 1026.61   54.69
  -3  -1  -4  831.05   23.70
   3  -1   4  850.06   45.11
  -3  -1  -5  898.52   76.80
  -3  -1  -5  654.00   54.79
  -3   1  -5  668.27   59.38
  -3  -1  -5  670.32   46.36
  -3   1  -5  806.40   65.77
  -3   1  -5  924.12   76.35
   3   1   5  801.31   61.43
   3  -1   5  909.64   64.07
  -3  -1  -5  795.17   66.57
  -3   1  -5  621.77   47.61
  -3   1  -6    3.34    3.89
  -3   1  -6    5.09   10.83
  -3  -1  -6   15.07    7.39
  -3   1  -6    6.64    6.79
   3   1   6    0.95    6.14
   3  -1   6   13.87    8.33
  -3  -1  -6    8.38    4.24
  -3  -1  -6    8.28    9.98
  -3   1  -6    7.98    7.83
  -3  -1  -6   22.75   15.72
   3  -1   6    4.29    7.73
  -3  -1  -7  295.91   27.35
  -3   1  -7  269.22   35.43
   3  -1   7  305.49   34.78
  -3  -1  -7  368.02   46.26
  -3   1  -7  421.66   47.51
  -3   1  -7  240.12   26.35
   3  -1   7  359.24   40.27
   3   1   7  310.83   34.93
  -3  -1  -7  447.66   54.04
  -3   1  -7  390.52   51.25
   3   1   8   80.14   17.71
   3  -1   8   71.31   16.92
  -3   1  -8   96.31   25.00
  -3  -1  -8   87.73   27.10
  -3  -1  -8  158.04   31.04
   3  -1   9   59.08   15.87
   3   1   9   53.54   15.87
  -3  -2  11   60.58   37.08
  -3   2  11   66.82   36.08
   3  -2 -11   47.46   17.27
   3  -2 -11   40.47   15.92
   3   2 -11   47.61   17.66
   3   2 -11   30.44   13.52
  -3   2  10 1063.29  117.42
  -3  -2  10 1078.21  119.21
   3  -2 -10  645.47   66.32
   3   2 -10  653.50   67.07
   3   2 -10  788.88   70.66
   3  -2 -10  862.04   72.86
   3   2 -10  855.80   70.21
  -3   2  10 1108.50   95.11
  -3   2   9  266.82   52.50
  -3  -2   9  238.13   50.70
   3  -2  -9  166.72   27.05
   3   2  -9  197.41   28.34
   3  -2  -9  236.28   30.69
   3   2  -9  176.60   27.84
   3   2  -9  217.97   28.39
  -3   2   9  308.34   44.21
   3   2  -8   34.53   11.98
   3   2  -8   26.40   10.18
  -3   2   8   21.71   17.47
  -3  -2   8   34.93   21.71
   3  -2  -8   24.95   10.63
   3  -2  -8   37.33   12.08
   3   2  -8   44.61   12.53
   3   2  -7    6.24    6.04
   3   2  -7    4.84    6.29
  -3  -2   7    1.90    7.93
   3  -2  -7   17.66    7.78
   3  -2  -7   20.06    8.18
  -3   2   7   -1.90    9.63
   3  -2  -7    1.25    4.34
   3   2  -7    3.59    5.44
  -3   2   7    2.59    4.99
  -3  -2   6 3792.72  241.02
  -3   2   6 3961.54  243.77
   3  -2  -6 3382.19  222.36
   3  -2  -6 3922.81  222.26
  -3   2   6 4153.35  233.64
   3   2  -6 3354.69  222.36
   3  -2  -6 3968.17  218.32
   3   2  -6 3655.84  219.76
  -3  -2   5  408.99   42.52
   3  -2  -5  362.38   34.33
   3  -2  -5  405.99   30.54
  -3   2   5  439.03   45.16
  -3   2   5  354.55   26.45
   3  -2  -5  417.47   33.13
   3   2  -5  377.10   32.19
  -3   2   5  437.43   38.52
  -3  -2   4  817.28   60.98
  -3   2   4  886.69   65.77
   3  -2  -4  757.25   56.84
   3   2  -4  773.17   54.04
  -3   2   4  757.10   49.90
   3  -2  -4  755.65   49.00
   3  -2  -4  840.93   52.45
   3   2  -4  746.32   44.86
   3   2  -4  741.53   52.60
   3  -2  -4  882.05   48.80
  -3   2   3 1329.71   88.17
   3   2  -3 1249.47   80.89
   3  -2  -3 1244.58   83.78
  -3   2   3 1251.22   79.64
   3   2  -3 1374.62   76.05
   3  -2  -3 1301.47   77.70
   3  -2  -3 1272.02   74.30
   3  -2  -3 1303.31   76.60
  -3   2   3 1323.97   83.98
   3   2  -3 1299.02   81.74
  -3  -2   3 1217.88   83.98
   3   2  -2 1610.95   94.66
   3  -2  -2 1483.26   93.21
  -3   2   2 1523.77   95.61
   3   2  -2 1631.86   91.87
   3   2  -2 1538.80   92.52
   3   2  -2 1586.35   88.47
  -3   2   2 1518.54   94.66
   3  -2  -2 1487.80   86.38
   3  -2  -2 1475.52   91.62
  -3   2   1 1049.82   65.17
   3   2  -1 1031.20   60.68
   3   2  -1  997.62   63.92
  -3   2   1  964.64   66.12
   3   2  -1  962.04   57.29
   3  -2  -1  937.74   63.27
  -3  -2   1 1028.91   58.98
   3  -2  -1  992.13   62.33
   3   2   0  785.74   57.74
  -3   2   0  832.60   60.28
   3  -2   0  876.56   54.04
   3   2   0  836.44   52.15
  -3  -2   0  883.80   54.39
   3   2   0  890.13   51.35
   3  -2   0  884.74   54.84
   3   2   0  922.97   56.34
  -3   2   0  857.85   57.34
   3  -2   1  206.04   19.91
   3  -2   1  210.93   21.91
  -3  -2  -1  216.82   20.56
  -3  -2  -1  198.86   23.45
  -3   2  -1  205.49   19.76
   3   2   1  215.82   18.31
   3   2   1  200.85   19.71
  -3  -2  -2  214.27   25.20
   3  -2   2  203.40   18.46
   3   2   2    1.85    2.74
   3  -2   2   28.19    7.58
  -3   2  -2  214.12   21.51
  -3   2  -2    0.90    4.54
  -3   2  -2  219.81   18.46
  -3  -2  -2  184.28   19.01
   3  -2   2  182.09   18.51
  -3   2  -3  367.77   29.79
  -3   2  -3  400.90   30.79
  -3   2  -3  356.09   27.55
   3   2   3   -0.70    2.94
  -3  -2  -3   -2.40    6.49
   3  -2   3    1.45    3.19
  -3  -2  -3  400.41   31.89
   3  -2   3  356.99   27.15
  -3   2  -4  494.52   45.86
  -3  -2  -4  457.34   30.44
  -3  -2  -4  591.92   50.65
  -3   2  -4  485.89   45.96
   3  -2   4  528.20   44.66
  -3  -2  -5   33.08    8.78
  -3   2  -5   32.14   12.08
  -3  -2  -5   32.39    5.99
  -3  -2  -5   44.11   14.87
  -3   2  -5   22.70   10.93
   3  -2   5   46.11   12.82
  -3   2  -6    2.64    3.84
  -3  -2  -6    7.63    5.24
  -3  -2  -6    9.28    4.49
  -3   2  -6    6.04    7.39
   3  -2   6   17.81    8.73
  -3  -2  -6   10.73   15.17
  -3  -2  -6   11.38   11.58
   3   2   6    5.59    6.74
   3  -2   6    5.39    6.89
  -3   2  -6   11.88    8.68
  -3   2  -7  115.02   23.15
   3   2   7  146.56   23.00
  -3  -2  -7  155.54   30.34
  -3  -2  -7  196.16   36.23
  -3   2  -7  129.54   17.57
  -3   2  -7  181.29   30.34
   3  -2   7  164.52   26.90
  -3  -2  -7  135.33   16.72
   3  -2   7  157.19   23.65
   3   2   8  373.81   42.57
   3  -2   8  383.74   42.72
  -3  -2  -8  605.30   63.32
  -3   2  -8  522.36   58.63
  -3  -2  -8  559.34   64.27
   3   2   9   23.00   11.68
   3  -2   9   14.42   10.68
  -3  -3  11  -11.98   31.09
  -3   3  11   15.42   26.25
   3  -3 -11   13.52   12.53
   3   3 -11    1.45   10.68
   3  -3 -11    9.73   10.28
   3   3 -11    9.88   10.23
   3   3 -11    1.35    9.13
  -3   3  11    4.59   14.62
   3  -3 -10  104.44   22.46
  -3   3  10  131.59   44.46
  -3  -3  10  113.33   42.12
   3   3 -10  121.91   23.45
   3  -3 -10  116.87   23.65
   3   3 -10  109.08   22.21
  -3   3  10  130.79   31.64
   3   3 -10   86.83   21.51
   3   3  -9  251.35   32.29
   3  -3  -9  201.70   30.24
  -3   3   9  257.94   51.30
  -3  -3   9  316.77   58.38
   3   3  -9  204.14   30.34
   3  -3  -9  314.48   35.58
   3   3  -9  216.22   29.49
  -3   3   9  306.89   44.16
  -3   3   8  649.76   74.10
  -3  -3   8  614.08   73.65
   3  -3  -8  509.14   48.90
   3  -3  -8  568.02   49.65
   3   3  -8  391.97   44.71
   3   3  -8  539.53   48.90
   3   3  -8  512.88   46.61
   3  -3  -7  162.78   22.06
  -3  -3   7  198.41   34.93
  -3   3   7  168.17   32.64
   3  -3  -7  142.82   21.66
  -3   3   7  143.32   11.78
  -3   3   7  141.52   13.52
   3   3  -7  169.51   21.46
   3   3  -7  160.63   22.95
  -3   3   7  139.02   25.20
  -3  -3   6  993.33   80.49
  -3   3   6 1019.53   82.69
   3  -3  -6  809.84   64.82
  -3   3   6  793.82   55.54
   3   3  -6  878.26   63.12
   3  -3  -6  974.57   65.07
   3  -3  -6  880.80   60.48
   3   3  -6  799.11   64.72
  -3   3   6  979.66   72.56
  -3  -3   5  736.49   63.77
  -3   3   5  777.51   67.67
   3   3  -5  762.34   54.89
  -3   3   5  698.76   50.30
   3  -3  -5  733.49   57.04
   3  -3  -5  798.56   54.99
  -3   3   5  803.36   59.23
   3  -3  -5  819.77   51.70
  -3  -3   4  510.39   42.02
   3   3  -4  451.85   28.39
   3  -3  -4  448.01   39.32
   3   3  -4  437.83   35.18
   3  -3  -4  469.72   31.79
  -3   3   4  453.00   35.08
   3  -3  -4  529.00   35.63
  -3   3   4  490.08   45.66
   3   3  -4  469.17   36.58
   3  -3  -4  506.39   32.69
   3   3  -3  222.56   22.01
  -3   3   3  251.65   27.35
   3   3  -3  261.53   22.11
   3   3  -3  267.32   19.06
  -3   3   3  269.42   23.50
   3  -3  -3  249.95   20.56
  -3   3   3  239.03   20.61
   3  -3  -3  236.53   16.22
  -3  -3   3  229.15   23.55
   3   3  -2 1891.25  112.33
   3  -3  -2 1808.61  111.23
  -3   3   2 1791.49  114.47
   3   3  -2 1962.40  110.98
   3  -3  -2 1965.30  106.44
  -3   3   2 1909.26  115.52
   3   3  -2 1843.64  108.29
  -3   3   2 1783.06  106.99
   3  -3  -2 1838.30  112.68
   3   3  -2 1939.25  111.83
  -3   3   1   38.22    8.63
  -3   3   1   52.30    5.74
  -3   3   1   49.15    9.18
   3   3  -1   58.78    8.93
   3  -3  -1   54.44    8.88
   3   3  -1   50.70    6.14
  -3  -3   1   47.36    6.64
   3  -3  -1   46.66    7.73
   3  -3  -1   51.55    5.69
   3   3  -1   58.13    7.34
  -3   3   0 1721.33  119.56
   3   3   0 1831.11  117.82
   3  -3   0 1954.77  113.77
  -3  -3   0 1893.69  114.12
   3   3   0 2023.68  114.72
   3   3   0 1936.66  112.03
   3  -3   0 1997.33  113.72
  -3   3   0 1950.03  118.66
   3   3   0 2006.62  110.03
   3  -3   1 2882.68  157.09
  -3  -3  -1 2518.35  165.77
   3  -3   1 2878.93  161.23
  -3  -3  -1 2775.49  162.23
  -3   3  -1 2466.50  161.83
   3   3   1 2758.97  158.19
   3  -3   2    2.54    3.29
  -3   3  -2  142.47   17.91
   3   3   2   -0.65    2.45
  -3   3  -2  140.37   16.62
   3   3   2  128.49   13.67
   3  -3   2  136.23   15.42
  -3  -3  -2  156.34   21.96
  -3  -3  -2  140.17   16.82
  -3   3  -3  248.01   24.70
  -3  -3  -3    1.25    5.99
  -3   3  -3  231.09   24.10
   3   3   3   -0.70    3.44
   3  -3   3    1.45    3.29
  -3  -3  -3  217.07   24.35
   3  -3   3  212.88   21.21
   3   3   3    0.70    1.20
  -3   3  -4   30.94   10.73
  -3   3  -4   43.41   13.02
  -3   3  -4   37.87   10.93
  -3  -3  -4   46.71   13.32
   3  -3   4   36.73   10.58
  -3   3  -5  377.30   44.41
  -3   3  -5  465.73   46.56
   3   3   5  405.40   40.07
  -3  -3  -5  390.87   28.94
  -3  -3  -5  479.30   49.00
  -3  -3  -5  514.88   56.49
   3  -3   5  520.67   45.41
  -3   3  -6  230.69   33.33
   3  -3   6  280.34   33.98
  -3   3  -6  261.63   35.88
   3   3   6  223.06   28.89
   3  -3   6  261.23   31.09
  -3  -3  -6  251.55   21.96
  -3  -3  -6  275.70   42.67
  -3  -3  -6  287.48   38.87
  -3  -3  -7   39.77    8.78
  -3   3  -7   40.27   10.18
  -3  -3  -7   42.96   11.18
  -3   3  -7   28.04   11.78
   3   3   7   50.20   13.62
  -3  -3  -7   47.06   21.71
   3  -3   7   40.57   11.78
  -3  -3  -7   46.56   18.01
  -3   3  -7   65.47   18.61
   3  -3   7   35.03   13.47
   3  -3   8   33.28   12.53
   3   3   8   24.25   11.18
  -3  -3  -8   52.60   20.01
  -3  -3  -8   21.01   16.47
  -3   3  -8   34.83   16.82
   3   3   8   26.90   12.87
   3  -3   8   42.02   15.72
   3   3   9  248.56   32.54
   3  -3   9  235.28   31.59
  -3  -4  11  163.92   49.90
  -3   4  11  117.07   41.87
   3   4 -11   82.24   21.36
   3  -4 -11   74.95   20.16
   3  -4 -11   93.41   23.20
   3   4 -11   79.09   20.41
  -3   4  11   91.47   28.29
   3  -4 -10  885.09   85.58
  -3   4  10 1792.89  150.30
  -3  -4  10 1759.71  152.45
   3   4 -10  887.04   85.88
   3   4 -10 1142.03   91.02
   3  -4 -10 1294.53   95.66
   3   4 -10 1191.63   90.57
  -3   4  10 1485.10  113.62
   3  -4  -9  158.68   26.35
   3   4  -9  137.93   24.95
  -3   4   9  194.16   44.26
  -3  -4   9  173.21   43.71
   3   4  -9  196.61   28.34
   3  -4  -9  220.11   30.09
   3   4  -9  180.04   26.40
  -3   4   9  240.92   38.17
   3   4  -8   10.48    9.28
  -3   4   8   23.10   19.66
  -3  -4   8   12.03   17.86
  -3   4   8    7.19    3.09
   3   4  -8   10.78    8.83
   3  -4  -8    4.19    6.69
   3  -4  -8   28.74   10.93
  -3   4   8   19.41    6.19
   3   4  -8   15.52    9.18
  -3  -4   7   41.82   17.66
  -3   4   7   29.44   15.52
   3   4  -7   61.23   13.67
  -3   4   7   45.16    9.43
   3  -4  -7   40.77   11.88
   3  -4  -7   40.97   12.08
  -3   4   7   31.09   12.53
   3   4  -7   45.91   11.48
   3   4  -6 1545.43  103.29
  -3   4   6 1797.33  107.99
  -3  -4   6 1647.18  118.71
  -3   4   6 1722.78  123.01
   3  -4  -6 1498.08  105.59
  -3   4   6 1447.18   99.65
   3  -4  -6 1763.25  105.34
  -3   4   6 1774.28  112.88
   3   4  -6 1343.63  103.54
  -3  -4   5  411.78   41.22
  -3   4   5  465.88   46.86
   3  -4  -5  395.91   36.48
  -3   4   5  385.58   33.98
   3  -4  -5  442.17   35.03
   3   4  -5  375.06   34.23
  -3   4   5  413.28   37.23
  -3  -4   4  275.60   24.50
  -3   4   4  266.32   29.19
   3   4  -4  248.71   18.81
   3   4  -4  276.00   13.47
  -3   4   4  258.74   21.81
   3  -4  -4  273.16   19.76
  -3   4   4  277.30   22.21
   3  -4  -4  282.29   18.16
  -3   4   4  263.83   19.81
   3   4  -4  238.03   20.71
   3   4  -3   28.29    6.44
   3  -4  -3   16.77    4.24
  -3   4   3   22.46    5.19
   3  -4  -3   13.92    5.09
   3   4  -2 2266.70  133.53
  -3   4   2 2486.36  139.72
   3  -4  -2 2358.97  135.13
   3   4  -2 2151.68  131.24
   3  -4  -2 2461.91  129.79
  -3   4   2 2191.65  138.67
   3  -4  -2 2223.84  135.58
  -3   4   2 2120.14  130.24
  -3  -4   1  189.12   16.57
   3   4  -1  188.92   14.57
  -3   4   1  158.78   19.51
  -3   4   1  172.86   14.62
   3   4  -1  179.59   14.87
   3  -4  -1  170.41   12.77
   3  -4  -1  162.63   17.42
  -3   4   1  177.20   19.76
   3  -4  -1  186.33   17.66
  -3  -4   0 2863.07  181.64
   3  -4   0 2905.78  180.94
  -3   4   0 3115.27  187.58
   3   4   0 3121.10  179.94
   3  -4   0 3207.08  180.24
   3   4   0 3349.90  177.20
   3   4   0 3399.50  180.74
   3  -4   1 3321.86  181.59
  -3  -4  -1 2804.03  186.13
   3  -4   1 3180.69  178.45
  -3  -4  -1 3114.47  183.04
  -3   4  -1 3052.19  185.98
   3   4   1 3073.45  178.80
  -3   4  -2 2448.99   74.25
  -3   4  -2 2306.62   72.66
   3   4   2 2286.36   56.89
  -3  -4  -2 2398.09   85.13
  -3  -4  -2 2491.10   72.56
   3  -4   2 2421.29   64.37
  -3  -4  -3   83.48   15.72
  -3  -4  -3   -2.59    6.94
   3   4   3   40.42   10.18
  -3   4  -3   85.78   15.12
  -3   4  -3   64.17   14.12
   3  -4   3    0.75    2.89
   3  -4   3   76.25   13.22
  -3   4  -4 1053.76   92.27
  -3   4  -4 1392.93   92.02
   3  -4   4 1320.83   90.17
  -3  -4  -4 1301.67   95.26
  -3  -4  -5 5611.01  334.89
  -3   4  -5 4386.64  317.42
  -3   4  -5 6233.72  317.97
   3   4   5 4539.74  308.74
  -3  -4  -5 5655.52  325.45
  -3   4  -5 5180.92  318.42
   3  -4   5 5990.26  317.57
   3  -4   6  237.38   30.34
  -3   4  -6  161.83   28.24
  -3  -4  -6  221.91   37.68
   3  -4   6  181.39   25.40
   3   4   6  144.51   23.25
  -3  -4  -6  166.97   16.22
  -3  -4  -6  256.09   36.28
  -3   4  -6  190.67   29.99
  -3   4  -7  258.29   30.24
  -3   4  -7  386.83   46.46
  -3   4  -7  313.93   40.97
  -3  -4  -7  513.38   58.88
   3  -4   7  324.36   36.88
  -3  -4  -7  457.99   52.65
   3  -4   7  420.71   44.41
  -3  -4  -7  316.12   26.80
   3   4   7  283.54   35.23
  -3   4  -8   61.33   21.31
   3   4   8   68.01   17.12
  -3   4  -8   98.80   26.40
   3  -4   8   90.77   19.31
  -3  -4  -8   96.46   27.65
   3  -4   8   97.91   22.31
  -3  -4  -8   88.72   25.15
   3   4   8   67.62   18.91
   3   4   9 1512.15  109.08
   3   5 -11  302.10   37.43
   3   5 -11  255.19   38.22
   3   5 -11  360.88   43.46
  -3   5  11  453.75   57.84
  -3  -5  11  550.31   83.58
   3  -5 -11  258.19   38.12
   3  -5 -10 1333.25  111.98
  -3  -5  10 2270.59  177.20
  -3   5  10 2284.22  173.76
   3   5 -10 1189.54  109.73
   3  -5 -10 1743.39  121.31
   3   5 -10 1557.71  115.97
   3   5 -10 1684.76  116.87
  -3   5  10 1921.24  137.33
   3  -5  -9  240.72   34.08
  -3   5   9  461.53   65.32
  -3  -5   9  343.27   60.38
  -3   5   9  293.57   27.84
   3   5  -9  346.96   38.97
   3   5  -9  262.53   35.23
   3   5  -9  326.90   37.53
  -3   5   9  402.30   49.65
   3  -5  -9  351.60   39.87
  -3   5   8 4133.49  251.60
   3  -5  -8 4085.64  259.09
  -3  -5   8 5233.96  301.30
  -3   5   8 5366.85  301.10
   3   5  -8 3826.70  258.14
  -3   5   8 3962.43  240.72
   3  -5  -8 5223.03  265.02
   3   5  -8 4671.88  259.83
   3  -5  -7  165.17   24.30
  -3  -5   7  175.95   32.98
  -3   5   7  193.32   34.78
   3  -5  -7  181.59   24.10
  -3   5   7  163.23   21.96
   3   5  -7  165.52   22.90
  -3   5   7  189.77   28.54
   3   5  -7  161.18   23.70
  -3   5   6  456.59   38.92
  -3  -5   6  392.47   44.06
  -3   5   6  408.74   47.56
  -3   5   6  357.39   35.38
   3   5  -6  342.92   34.53
   3  -5  -6  397.76   35.78
  -3   5   6  346.36   38.12
   3  -5  -6  343.02   35.98
  -3   5   5  956.85   44.66
   3  -5  -5  855.35   43.41
  -3  -5   5  919.32   49.55
  -3   5   5 1000.11   60.23
  -3   5   5  902.46   44.66
  -3   5   5  954.95   45.11
   3  -5  -5 1013.59   41.52
   3   5  -5  913.74   42.22
  -3  -5   4 2817.86  190.22
   3  -5  -4 3460.13  188.83
  -3   5   4 3073.10  187.23
  -3   5   4 3065.51  190.22
  -3   5   4 3124.90  194.41
   3   5  -3  949.17   61.93
   3  -5  -3 1028.71   62.63
  -3   5   3  973.02   64.07
  -3   5   3 1003.96   70.16
   3  -5  -3 1034.70   65.02
  -3   5   2 2176.13  125.90
   3  -5  -2 1999.48  121.51
  -3   5   2 1889.50  116.87
  -3   5   2 2044.84  126.95
   3   5  -2 2085.76  118.32
   3  -5  -2 2144.74  121.61
   3   5  -2 1853.82  117.37
   3  -5  -1  989.19   69.91
   3   5  -1 1054.16   63.82
   3  -5  -1 1041.78   66.72
  -3  -5   1  986.14   65.52
  -3   5   1 1026.56   72.26
  -3   5   1  974.27   63.47
   3  -5  -1  944.92   67.37
  -3   5   1 1081.25   71.91
   3   5  -1 1038.39   60.73
   3  -5  -1 1073.62   59.98
   3   5   0 1329.31   81.44
  -3   5   0 1354.21   85.83
  -3   5   0 1312.94   82.69
   3  -5   0 1368.43   82.84
  -3  -5   0 1302.86   83.63
  -3   5   0 1335.45   89.27
   3  -5   0 1368.48   80.49
   3  -5   1  140.87   14.32
   3   5   1  117.17   13.77
   3   5   1  115.52    8.28
  -3   5  -1  130.69   18.91
  -3  -5  -1  140.47   16.92
  -3   5  -1  136.98   19.11
   3  -5   1  132.19   14.82
   3   5   1  114.82    8.13
  -3  -5  -1  111.63   17.07
  -3   5  -2 1907.11   70.36
  -3   5  -2 2102.28   70.16
   3   5   2 1925.08   52.50
  -3  -5  -2 1972.68   78.94
  -3   5  -2 2166.60   80.49
  -3  -5  -2 2068.84   67.02
   3  -5   2 2245.14   62.53
  -3   5  -3 2945.60   97.86
  -3   5  -3 3620.01   96.06
  -3  -5  -3 3525.45   99.60
   3  -5   3   70.81   13.82
   3   5   3 3240.12   76.80
  -3   5  -3 3788.13  117.27
   3  -5   3 3810.69   91.22
  -3   5  -4  251.00   36.38
  -3   5  -4  365.62   36.08
   3  -5   4  316.07   33.58
  -3  -5  -4  332.74   38.12
  -3   5  -5  321.51   42.52
  -3  -5  -5  425.75   52.20
  -3   5  -5  471.26   42.91
   3   5   5  272.76   34.33
   3  -5   5  379.05   38.92
  -3  -5  -5  427.30   47.01
   3  -5   5  440.43   42.47
   3  -5   6   11.48    9.83
  -3  -5  -6   18.61   15.87
  -3   5  -6    9.53   10.53
  -3   5  -6   22.11   11.28
   3  -5   6   39.17   12.13
   3   5   6   14.42    9.33
  -3  -5  -6   20.36   11.63
  -3   5  -6   19.16   11.18
  -3  -5  -7 1735.55  129.84
  -3   5  -7 1884.61  127.20
   3   5   7 1354.46  102.65
   3  -5   7 1459.15  104.54
  -3  -5  -7 1865.75  128.00
  -3   5  -7 1671.53  119.11
   3   5   7 1453.66  108.04
  -3  -5  -7 1243.13   86.53
   3  -5   7 1865.40  116.92
   3  -5   8   10.88    9.33
  -3   5  -8   15.02   14.67
  -3  -5  -8   23.85   17.32
   3   5   8   16.37   10.03
  -3  -5  -8   33.73   19.11
  -3   5  -8   19.46   14.47
   3   5   8   16.32   11.13
   3  -5   8   21.56   12.23
   3   5   9   14.72   10.93
   3   6 -11    1.45    8.48
  -3  -6  11   17.96   31.14
   3  -6 -11   -1.40    9.63
   3   6 -11    1.45   10.13
  -3   6  11   12.67   17.62
   3   6 -10   14.42   11.48
  -3  -6  10   32.93   28.59
  -3   6  10   28.79   26.10
   3  -6 -10   23.50   13.97
  -3   6  10   53.94   21.06
   3  -6 -10   97.51   21.11
   3   6 -10   25.00   12.97
   3   6 -10   23.10   12.43
  -3   6   9  203.30   25.90
  -3   6   9  195.01   18.71
  -3  -6   9  340.47   56.74
  -3   6   9  297.76   52.35
   3  -6  -9  282.84   34.68
   3   6  -9  237.28   31.54
   3   6  -9  144.61   26.60
  -3   6   9  275.10   39.77
   3  -6  -9  199.40   29.49
  -3  -6   8   26.45   18.41
  -3   6   8   26.50   18.86
   3   6  -8   19.51   11.18
   3  -6  -8   60.53   15.22
   3  -6  -8   41.72   13.12
  -3   6   8   25.15   11.48
   3   6  -8   22.80   11.33
   3  -6  -7  216.97   29.34
  -3   6   7  284.78   31.34
  -3  -6   7  267.67   39.62
   3  -6  -7  257.59   30.09
  -3   6   7  269.76   41.42
  -3   6   7  279.84   32.83
   3   6  -7  248.31   29.79
  -3   6   7  303.15   36.08
  -3  -6   6  173.61   27.35
  -3   6   6  232.94   34.43
  -3   6   6  221.11   27.79
   3  -6  -6  195.91   23.85
  -3   6   6  205.29   25.05
  -3   6   6  197.31   26.05
   3   6  -6  173.90   23.25
   3  -6  -6  175.65   24.30
  -3  -6   5   35.68   10.13
   3  -6  -5   42.12   11.03
   3  -6  -5   51.65   10.23
   3   6  -5   45.21    5.29
  -3   6   5   50.70   11.33
  -3   6   5   46.36   12.18
  -3   6   5   37.97    9.63
   3   6  -5   38.17    9.88
  -3   6   4   99.45   12.62
  -3  -6   4  110.18   14.47
  -3   6   4  146.91   20.46
  -3   6   4  100.25   14.82
   3  -6  -4  108.73   13.77
   3  -6  -4   90.57   15.12
   3   6  -4   97.01   10.28
   3  -6  -4  115.17   14.07
   3   6  -3 1932.01  114.17
   3   6  -3 1850.53  118.56
  -3   6   3 2014.10  127.20
  -3   6   3 1886.31  118.17
   3  -6  -3 2170.39  120.41
   3  -6  -3 1989.95  116.47
   3  -6  -2  127.80   18.26
   3  -6  -2  140.72   16.87
   3  -6  -2  143.32   13.87
  -3   6   2  141.77   18.96
  -3   6   2  134.13   19.41
   3   6  -2  149.30   15.67
  -3   6   2  140.52   14.82
   3  -6  -2  148.41   17.17
   3   6  -2  163.53   14.77
  -3   6   1   41.67   10.43
  -3   6   1   26.20    9.03
   3  -6  -1   32.88    8.58
  -3  -6   1   35.83    7.63
   3   6  -1   41.32    7.34
  -3   6   1   52.50    7.14
   3  -6  -1   32.69    7.34
  -3   6   1   28.79    6.39
   3  -6  -1   32.19    8.23
   3  -6   0  579.90   42.07
  -3  -6   0  597.41   43.46
  -3   6   0  601.36   48.70
  -3   6   0  600.21   42.96
   3   6   0  563.03   40.67
  -3   6   0  635.24   45.46
   3  -6   0  615.33   39.42
  -3  -6   0  527.30   40.87
   3  -6   1  177.85   18.06
  -3  -6  -1  189.17   21.26
   3   6   1  179.34   12.72
  -3   6  -1  175.80   23.80
   3   6   1  156.64   17.47
  -3   6  -1  197.11   23.70
  -3  -6  -1  185.78   22.46
   3  -6   1  176.05   18.21
   3  -6   2  733.09   31.49
   3  -6   2  734.69   35.93
  -3   6  -2  665.63   44.41
  -3   6  -2  722.67   42.57
   3   6   2  655.75   31.94
  -3  -6  -2  693.27   40.02
  -3   6  -2  705.75   46.91
  -3  -6  -2  631.35   45.61
  -3  -6  -3   -2.69    5.69
  -3   6  -3   74.55   14.77
  -3  -6  -3   25.55   10.33
   3   6   3   22.75    8.18
  -3   6  -3   17.57   10.38
  -3   6  -3   30.89   14.57
   3  -6   3   53.19   12.48
   3  -6   3   15.82    8.08
  -3   6  -4  260.73   37.08
  -3   6  -4  275.40   32.19
  -3   6  -4  315.62   40.92
  -3  -6  -4  279.64   35.23
   3   6   4  270.46   29.29
   3  -6   4  310.28   32.93
   3  -6   5  736.89   64.27
  -3  -6  -5  814.68   78.89
  -3   6  -5  709.19   72.51
  -3   6  -5  983.85   70.76
   3   6   5  631.35   61.28
  -3  -6  -5  972.52   78.05
  -3   6  -5  966.08   82.89
   3  -6   5  889.93   69.41
  -3   6  -5  903.96   76.65
   3  -6   6  170.41   25.00
  -3   6  -6  191.42   27.25
  -3  -6  -6  146.86   32.14
   3  -6   6  237.48   30.59
   3   6   6  111.18   21.06
  -3  -6  -6  195.76   32.98
  -3   6  -6  138.48   26.60
   3   6   6  181.64   26.70
  -3   6  -6  169.76   30.49
  -3  -6  -7   28.64   19.06
   3   6   7    9.43    8.58
  -3   6  -7   20.56   15.72
  -3  -6  -7   38.57   17.96
   3  -6   7   11.73    8.93
  -3   6  -7   31.99   14.17
   3   6   7   22.21   12.43
   3  -6   7   15.77   12.08
   3   6   8   57.34   15.67
  -3  -6  -8   68.46   24.85
  -3   6  -8   66.77   22.16
  -3   6  -8   57.39   21.11
   3   6   8   53.29   16.92
  -3  -6  -8   77.90   25.80
   3  -6   8   54.84   15.67
   3  -6   8   57.14   18.76
   3   6   9  255.19   34.18
   3  -7 -11  346.81   46.51
   3   7 -11  452.65   46.71
  -3   7  11  543.62   64.67
   3   7 -10   22.70   13.37
   3  -7 -10   17.17   11.83
  -3  -7  10   65.07   31.69
  -3   7  10   31.14   25.45
   3  -7 -10   56.99   17.22
   3   7 -10   38.77   16.02
   3   7 -10   34.13   13.72
   3   7 -10   48.95   17.42
  -3   7  10   48.95   20.81
  -3   7   9  770.32   85.48
  -3   7   9  700.21   67.87
  -3   7   9  523.71   41.57
   3   7  -9  485.04   53.19
   3   7  -9  655.50   58.18
  -3   7   9  642.72   57.14
   3  -7  -9  694.77   60.38
  -3  -7   9  738.28   83.38
   3  -7  -9  522.86   54.49
   3   7  -8 1789.00  140.42
  -3  -7   8 2357.72  168.52
  -3   7   8 2581.62  174.65
   3  -7  -8 2585.22  148.80
  -3   7   8 2147.39  148.06
   3   7  -8 2177.43  143.57
   3  -7  -8 1931.77  142.27
  -3  -7   7  507.54   55.69
  -3   7   7  522.66   59.18
   3  -7  -7  520.47   46.26
  -3   7   7  473.26   49.60
   3   7  -7  415.08   43.31
  -3   7   7  513.38   49.95
   3  -7  -7  443.37   45.21
  -3   7   7  520.47   46.11
  -3  -7   6  122.81   22.21
   3   7  -6  118.96    9.08
  -3   7   6  111.03   24.20
   3  -7  -6  145.81   20.01
  -3   7   6  107.04   21.46
  -3   7   6  134.88   20.96
   3   7  -6  136.38   20.36
   3  -7  -6  116.12   19.36
  -3   7   6  151.95   21.41
   3  -7  -5   53.09   11.68
  -3  -7   5   53.59   11.23
  -3   7   5   83.09   14.02
   3   7  -5   50.65    5.84
  -3   7   5   60.43   14.42
   3  -7  -5   52.65   10.33
  -3   7   5   70.41   12.28
   3   7  -5   43.61   10.28
   3  -7  -4 6488.32  345.56
  -3   7   4 5645.74  346.21
  -3   7   4 6302.74  357.89
   3  -7  -4 5877.98  348.91
  -3   7   4 6150.39  342.12
   3   7  -4 6194.30  338.68
   3  -7  -4 7547.82  347.46
  -3  -7   4 4958.01  341.12
  -3   7   3  237.23   19.46
   3   7  -3  249.16   21.01
   3  -7  -3  237.78   20.66
  -3   7   3  233.74   11.73
   3   7  -3  242.82   13.82
  -3   7   3  262.08   27.65
   3  -7  -3  251.00   18.11
   3  -7  -2  428.50   38.72
   3  -7  -2  455.80   32.98
   3  -7  -2  413.68   35.78
  -3   7   2  455.80   40.02
  -3   7   2  407.04   33.68
   3  -7  -2  433.69   36.93
  -3   7   2  459.54   42.22
   3   7  -2  442.22   34.68
   3   7  -2  488.68   31.89
  -3   7   2  486.04   40.82
   3  -7  -1 3157.33  183.69
   3  -7  -1 2993.86  178.65
  -3   7   1 3314.47  189.47
  -3   7   1 2859.07  176.75
   3   7  -1 2925.99  176.05
  -3   7   1 3291.07  187.33
   3  -7  -1 3270.41  181.69
  -3  -7   1 2876.89  178.75
  -3   7   1 3005.58  174.45
   3   7   0 5580.07  281.34
   3   7   0 5038.70  284.98
  -3   7   0 4899.12  295.61
  -3  -7   0 4527.76  283.34
   3  -7   0 5071.03  286.48
  -3   7   0 5196.48  288.28
  -3  -7   0 4642.33  287.18
  -3   7   0 4919.48  288.83
   3   7   1 1274.02   85.43
   3   7   1 1410.20   78.39
  -3   7  -1 1287.94   96.16
   3  -7   1 1387.20   85.93
  -3  -7  -1 1400.12   90.57
  -3  -7  -1 1199.02   90.77
  -3   7  -1 1372.72   94.06
   3  -7   1 1208.40   89.02
   3  -7   1 1440.84   85.58
   3  -7   2 1771.93   52.30
  -3   7  -2 1507.31   70.26
  -3  -7  -2 1729.67   64.82
   3   7   2 1527.57   50.40
  -3  -7  -2 1590.04   73.35
  -3   7  -2 1839.75   69.36
  -3   7  -2 1795.74   75.35
   3  -7   2 1799.23   56.74
   3  -7   2 1615.54   60.33
   3   7   3 6801.00  120.41
  -3   7  -3 6390.76  161.33
  -3   7  -3 7790.23  150.45
   3  -7   3 6527.74  132.24
  -3  -7  -3 7386.44  151.50
  -3   7  -3 7564.23  172.96
   3  -7   3 7883.05  137.83
  -3   7  -4  802.96   69.41
   3   7   4  516.87   50.80
  -3   7  -4  548.16   60.68
  -3   7  -4  665.13   56.04
  -3  -7  -4  730.10   61.83
   3   7   4  580.60   50.30
   3  -7   4  722.57   56.29
  -3   7  -5  115.67   23.90
  -3   7  -5  159.33   23.50
   3   7   5   77.65   17.37
  -3  -7  -5  153.25   27.20
  -3   7  -5   71.41   20.76
   3  -7   5  125.70   21.36
  -3   7  -5  153.79   29.29
  -3  -7  -5  109.73   28.29
   3  -7   5  131.94   22.41
   3   7   6  550.71   55.64
  -3   7  -6  733.74   60.53
   3   7   6  491.77   52.40
  -3   7  -6  723.76   67.92
  -3  -7  -6  717.92   73.90
   3  -7   6  618.17   56.44
  -3  -7  -6  717.63   69.86
   3  -7   6  774.26   63.52
  -3   7  -7 3793.57  237.88
  -3   7  -7 2704.38  226.45
  -3  -7  -7 4298.62  249.50
   3   7   7 2940.46  217.27
  -3   7  -7 4258.00  243.92
  -3  -7  -7 4063.93  252.45
   3   7   7 3341.57  224.35
   3  -7   7 4559.15  237.93
  -3  -7  -8   48.45   21.26
  -3  -7  -8   54.29   22.16
   3   7   8   28.19   11.98
  -3   7  -8   16.52   13.37
   3  -7   8   30.54   13.82
  -3   7  -8   38.57   17.76
   3  -7   8   42.72   16.32
   3   7   9 1515.09  110.98
   3   8 -11   45.76   15.97
   3  -8 -11   43.86   16.32
   3   8 -10 2646.45  170.91
  -3  -8  10 3674.80  231.24
  -3   8  10 4050.11  241.72
   3   8 -10 2742.01  180.49
   3  -8 -10 3158.83  187.68
   3  -8 -10 2150.63  174.20
   3   8 -10 2114.30  173.85
  -3   8  10 3141.11  198.01
   3  -8  -9   99.85   21.56
  -3  -8   9  120.66   33.18
  -3   8   9  159.28   38.87
   3   8  -9   82.79   19.86
   3  -8  -9  128.49   23.90
   3   8  -9  117.17   19.06
  -3   8   9  167.07   28.44
   3   8  -9  122.46   22.90
  -3   8   9  139.52   28.59
  -3  -8   8   13.22   14.02
  -3   8   8   27.45   19.36
   3  -8  -8    8.73    9.13
   3   8  -8   13.42    8.78
   3  -8  -8    5.69    7.54
  -3   8   8   20.71   13.07
   3   8  -8   17.07   10.43
   3  -8  -7   23.95   10.08
   3  -8  -7   31.89   11.78
  -3  -8   7   19.41   11.48
  -3   8   7   43.66   13.72
  -3   8   7   38.07   17.27
  -3   8   7   32.59   13.97
  -3   8   7   48.35   13.92
   3   8  -6 6885.18  359.09
  -3  -8   6 5185.96  374.16
   3  -8  -6 7075.15  375.90
  -3   8   6 7619.97  379.95
  -3   8   6 5661.26  384.19
  -3   8   6 6340.51  377.25
   3  -8  -6 6198.89  377.35
   3   8  -6 5767.75  374.21
   3  -8  -5   13.92    7.68
  -3   8   5    5.34    4.79
  -3  -8   5   18.06    6.84
   3  -8  -5   21.46    7.49
  -3   8   5   27.10   11.53
   3   8  -5   16.17    4.34
  -3   8   5   32.98    8.83
   3   8  -5   19.21    8.08
  -3   8   4 1574.62  105.24
  -3   8   4 1766.54  118.17
   3  -8  -4 1581.51  106.94
  -3   8   4 1670.58  100.25
   3  -8  -4 1758.56  103.69
   3   8  -4 1576.67   97.66
  -3   8   3 4520.28  108.53
   3   8  -3 3805.79   83.09
   3   8  -3 4130.20   37.08
   3  -8  -3 4293.98   76.50
   3   8  -3 3993.17   48.30
  -3   8   3 3801.90   79.89
  -3   8   3 4376.76  118.27
  -3   8   3 3642.37   49.50
   3  -8  -3 4862.00   94.01
   3  -8  -2 4830.81  152.35
   3  -8  -2 4217.43  163.18
   3   8  -2 3873.41  152.10
   3  -8  -2 5048.63  163.38
  -3   8   2 3908.64  152.45
  -3   8   2 4734.15  176.70
  -3   8   2 3864.73  141.37
  -3   8   2 4727.91  167.27
  -3  -8   1   85.38   13.17
   3   8  -1   34.48    8.38
   3  -8  -1   35.83    9.88
  -3   8   1   39.87    8.88
  -3   8   1   52.05    8.43
  -3   8   1   47.76   12.43
   3  -8  -1   46.91   10.28
   3  -8  -1   36.68    8.68
  -3   8   1   57.19   13.12
   3   8   0  876.16   52.25
  -3  -8   0  746.62   53.24
   3  -8   0  835.19   56.94
  -3   8   0  774.26   57.59
  -3   8   0  843.97   65.72
  -3  -8   0  833.94   58.88
  -3   8   0  774.86   58.23
   3   8   0  785.69   55.54
   3  -8   1 4662.49  272.01
   3   8   1 4820.38  264.33
  -3   8  -1 4659.95  280.54
  -3   8  -1 4722.87  285.53
  -3  -8  -1 4738.04  277.20
   3  -8   1 4370.77  276.10
   3   8   1 4652.76  272.16
   3  -8   1 5299.43  272.61
  -3  -8  -1 4427.66  278.20
  -3   8  -2  617.22   52.30
   3  -8   2  628.45   45.56
  -3   8  -2  531.94   54.24
   3  -8   2  455.94   46.31
   3  -8   2  649.46   47.06
  -3  -8  -2  639.03   51.70
   3   8   2  524.31   44.56
  -3   8  -2  624.46   55.64
   3  -8   2  554.70   48.55
   3   8   2  610.54   35.78
  -3  -8  -2  619.37   56.79
  -3  -8  -3  202.35   25.90
  -3   8  -3  178.75   28.99
  -3   8  -3  202.70   25.25
   3  -8   3  167.92   21.86
   3   8   3  151.30   18.61
  -3   8  -3  182.14   28.09
   3  -8   3  222.86   23.75
  -3  -8  -4  582.54   52.85
  -3   8  -4  576.41   49.10
   3   8   4  487.33   42.96
  -3   8  -4  590.53   57.93
   3  -8   4  636.39   49.35
   3  -8   5 1248.57  100.45
   3   8   5 1200.72   98.50
  -3   8  -5 1685.70  107.69
  -3  -8  -5 1733.26  117.27
  -3  -8  -5 1482.56  119.46
   3   8   5 1199.92   99.75
  -3   8  -5 1803.37  124.20
   3  -8   5 1722.28  108.43
  -3   8  -6   18.11   10.88
   3   8   6    4.14    7.09
  -3  -8  -6   -1.70   10.03
   3  -8   6    3.29    6.54
  -3   8  -6    7.73   10.43
   3   8   6   29.79   12.18
  -3  -8  -6   27.55   17.37
   3  -8   6    7.29    9.68
  -3   8  -7  423.81   54.59
  -3   8  -7  637.19   55.34
   3   8   7  369.57   44.61
  -3  -8  -7  547.91   65.97
  -3  -8  -7  548.41   63.77
   3  -8   7  496.46   49.70
   3   8   7  423.91   49.00
  -3   8  -7  550.86   59.68
  -3   8  -7  564.53   60.13
   3  -8   8  223.71   33.43
  -3  -8  -8  376.00   52.55
   3   8   8  194.51   30.34
  -3  -8  -8  346.36   52.94
  -3   8  -8  302.20   44.06
  -3   8  -8  310.23   46.06
   3  -9 -11  147.31   28.89
   3   9 -11  187.38   28.49
  -3   9  11  214.22   39.32
   3  -9 -10  161.58   28.29
  -3   9  10  200.85   47.21
   3   9 -10   85.13   22.56
   3  -9 -10  152.40   29.04
   3   9 -10  148.70   24.05
   3   9 -10  146.51   27.40
   3  -9  -9  157.34   27.40
  -3  -9   9  220.06   40.82
  -3   9   9  212.53   42.86
   3   9  -9  104.24   23.10
   3  -9  -9  200.15   30.19
   3   9  -9  154.99   26.80
   3   9  -9  179.59   23.85
  -3   9   9  175.30   32.24
  -3   9   9  197.61   33.08
  -3   9   8  506.89   46.51
  -3  -9   8  471.66   55.74
  -3   9   8  461.03   59.63
   3   9  -8  459.84   39.92
   3  -9  -8  535.89   49.10
  -3   9   8  404.70   51.95
   3  -9  -8  357.49   43.91
   3   9  -8  426.10   45.36
   3  -9  -7   23.55   11.23
  -3   9   7   12.03    8.78
  -3  -9   7    9.83    9.13
   3   9  -7   13.52    2.89
  -3   9   7   24.40   11.33
   3  -9  -7    6.54    6.99
   3   9  -7    7.49    6.59
  -3   9   7   10.93   10.33
  -3   9   7    4.44    6.79
   3   9  -7    5.99    7.04
  -3   9   6   49.25   13.22
   3   9  -6   32.93    6.14
   3  -9  -6   31.64   11.58
  -3  -9   6   28.79   10.78
  -3   9   6   37.18   15.07
   3   9  -6   26.45    7.93
   3  -9  -6   30.14   10.08
  -3   9   6   38.42   11.43
   3   9  -6   28.59   11.83
  -3  -9   5    4.44    4.09
  -3   9   5    7.78    7.34
   3  -9  -5    9.98    5.79
   3   9  -5   15.92    5.29
  -3   9   5    7.39    6.74
   3   9  -5   17.81    4.89
  -3   9   5    3.19    4.24
   3   9  -5    1.65    5.24
   3  -9  -5    7.63    7.24
  -3   9   4    8.33    8.33
   3   9  -4   18.11    8.73
   3  -9  -4   11.93    6.74
   3  -9  -4   11.08    5.84
  -3   9   4    6.19    4.59
   3   9  -4    9.98    4.74
  -3   9   4   16.92   10.08
  -3   9   4   17.91    5.59
   3   9  -4   10.43    3.64
   3  -9  -3   55.54   12.03
   3   9  -3   44.71    4.99
  -3   9   3   43.76   11.63
   3  -9  -3   40.57    8.93
  -3   9   3   63.32   11.73
  -3   9   3   58.83   15.37
  -3   9   2  446.46   36.48
  -3   9   2  532.19   48.35
   3   9  -2  472.46   37.53
  -3   9   2  428.80   30.89
   3  -9  -2  476.95   35.03
   3  -9  -2  461.98   38.97
  -3   9   2  529.80   42.32
   3  -9  -1  287.03   25.85
   3  -9  -1  337.68   24.75
   3   9  -1  320.31   23.45
  -3   9   1  333.89   24.80
  -3   9   1  374.16   34.18
  -3   9   1  310.18   21.01
   3  -9  -1  349.76   22.56
  -3  -9   1  356.59   27.35
   3  -9  -1    7.73    6.14
  -3   9   1   18.31    9.33
   3  -9   0   24.70    8.23
  -3  -9   0   39.12    9.73
   3   9   0   37.68    7.19
  -3   9   0   44.06    9.83
   3  -9   0   24.20    7.54
   3   9   0   31.14    8.33
  -3   9   0   31.04   11.33
  -3  -9   0   33.38    7.09
  -3   9   0   42.02    9.88
  -3  -9  -1 1539.89  107.94
   3  -9   1 1699.78  102.95
  -3   9  -1 1590.09  114.67
  -3  -9  -1 1718.44  107.99
   3   9   1 1656.81   95.01
   3   9   1 1556.71  102.35
  -3   9  -1 1546.38  105.54
  -3   9  -1 1560.65  109.18
   3  -9   1 1571.23  106.09
   3  -9   2  490.83   37.82
  -3   9  -2  447.01   43.01
  -3  -9  -2  424.26   46.16
   3   9   2  366.07   35.43
  -3  -9  -2  428.70   41.17
  -3   9  -2  382.99   42.82
   3   9   2  444.87   28.09
   3  -9   2  469.67   37.78
  -3   9  -2  316.57   42.07
   3  -9   2  390.77   38.87
  -3   9  -3  324.81   37.33
   3   9   3  297.56   12.48
  -3   9  -3  350.35   33.78
   3   9   3  300.55   26.75
  -3   9  -3    4.34   11.68
  -3  -9  -3  305.79   32.74
   3  -9   3  297.96   29.29
  -3  -9  -3   12.18   12.13
   3  -9   3  342.87   29.64
   3   9   4  381.44   39.42
   3  -9   4  447.01   43.96
  -3   9  -4  481.19   46.36
  -3  -9  -4  499.91   49.95
   3  -9   4  432.29   44.21
   3  -9   4  482.79   44.16
  -3   9  -4  457.89   52.65
   3   9   5  267.77   34.43
   3  -9   5  316.32   37.82
  -3   9  -5  399.21   41.52
  -3  -9  -5  344.67   49.00
   3   9   5  284.39   35.88
  -3  -9  -5  416.52   47.31
   3   9   5  329.00   35.93
  -3   9  -5  440.38   52.70
   3  -9   5  378.05   40.27
  -3  -9  -6   10.13   14.62
  -3   9  -6   10.78   11.03
   3   9   6    3.19    7.24
  -3   9  -6   10.53   10.13
  -3  -9  -6   10.33   11.73
   3  -9   6   16.17    9.43
  -3   9  -6    7.83   12.08
   3   9   6    4.69    8.23
   3  -9   6   22.26   12.28
  -3   9  -7   69.61   18.36
   3   9   7   35.88   14.27
  -3   9  -7   79.29   23.05
  -3  -9  -7   58.78   23.70
   3  -9   7   53.24   18.21
  -3  -9  -7  174.20   34.13
   3  -9   7  171.71   26.30
   3   9   7   65.87   18.61
  -3  -9  -8   23.60   17.96
   3   9   8    9.38    9.18
  -3   9  -8    3.84   12.23
   3   9   9   66.07   18.61
   3  10 -11   39.97   14.52
   3 -10 -11   39.12   16.72
   3  10 -10 1353.86  103.69
   3 -10 -10 1415.74  106.64
   3  10 -10 1350.37   94.46
   3 -10 -10 1173.27  100.05
   3 -10  -9   59.38   18.06
   3  10  -9   85.58   16.97
   3 -10  -9  105.34   22.56
  -3 -10   9  101.95   28.29
  -3  10   9  107.59   32.29
  -3  10   9  103.84   25.95
   3  10  -9   95.86   21.06
  -3  10   9   90.77   23.55
  -3 -10   8 1290.19  104.24
   3  10  -8 1260.05   87.63
  -3  10   8 1155.91  106.39
   3  10  -8 1273.82   97.26
   3 -10  -8 1435.90   99.50
   3 -10  -8 1136.39   95.66
  -3  10   8 1526.27   98.35
   3  10  -7  146.71   12.67
  -3 -10   7  120.56   22.36
   3 -10  -7  138.48   22.11
   3  10  -7  146.51   18.31
  -3  10   7  137.68   23.15
  -3  10   7  159.73   23.65
  -3  10   7  144.56   24.25
   3 -10  -7  144.16   24.15
   3  10  -7  138.43   23.30
  -3  10   7  131.54   27.84
  -3 -10   6 2303.53  155.64
   3 -10  -6 2627.18  161.83
  -3  10   6 2974.15  166.72
   3  10  -6 2509.62  151.70
   3  10  -6 2817.76  149.10
   3 -10  -6 2383.22  163.03
  -3  10   6 2458.67  175.90
  -3  10   6 2459.72  161.18
   3  10  -6 2355.82  162.13
  -3  10   5  992.23   78.64
  -3  10   5  967.03   71.06
   3  10  -5  948.92   58.93
   3  10  -5  945.72   59.63
   3 -10  -5  891.93   69.81
  -3  10   5  882.05   65.22
  -3  10   5  968.03   80.94
   3 -10  -5  938.04   66.92
   3  10  -5  790.38   67.82
  -3 -10   5  885.79   59.33
  -3  10   4  439.18   42.17
  -3  10   4  306.59   33.08
   3 -10  -4  313.63   33.53
  -3  10   4  445.81   46.21
  -3  10   4  345.81   29.09
   3  10  -4  340.02   34.53
   3  10  -4  346.01   28.94
   3 -10  -4  392.27   33.33
   3  10  -4  380.25   25.10
   3 -10  -3   90.47   15.52
  -3  10   3   79.94   15.27
   3 -10  -3   95.01   13.07
   3  10  -3   73.65   13.67
  -3  10   3   62.48   11.88
  -3  10   3   95.01   19.36
   3  10  -2 2817.36   89.82
  -3  10   2 2630.73   88.87
  -3  10   2 3601.00  124.95
   3 -10  -2 3277.79   99.85
   3 -10  -2 2963.52   86.33
  -3  10   2 3263.42  102.15
   3 -10  -1 1260.10   54.59
   3  10  -1 1318.88   42.82
   3 -10  -1 1331.46   50.40
   3  10  -1 1289.79   48.40
  -3 -10   1 1338.64   54.49
  -3  10   1 1428.16   69.01
   3 -10  -1 1367.29   46.46
  -3  10   1 1187.94   42.96
  -3  10   1 1235.15   50.40
   3 -10   0  603.35   37.03
   3  10   0  720.32   28.69
   3 -10   0  722.86   36.68
  -3  10   0  717.48   39.57
   3  10   0  695.12   35.98
  -3 -10   0  663.63   28.84
  -3 -10   0  736.39   40.57
  -3  10   0  726.51   39.47
   3  10   1 2175.63   64.67
   3 -10   1 2322.79   65.32
  -3 -10  -1 2337.06   75.80
  -3 -10  -1 2242.50   78.14
   3  10   1 2331.02   46.11
  -3  10  -1 2212.51   73.45
   3 -10   1 2160.41   71.31
  -3  10  -1 2139.25   77.50
   3 -10   2 2697.79   83.48
  -3  10  -2 3306.69  100.85
   3 -10   2 3184.23   78.84
  -3 -10  -2 2846.55  106.84
  -3 -10  -2 2904.88   91.17
   3  10   2 2731.03   74.95
   3  10   2 3025.24   46.71
  -3  10  -2 2739.41   96.61
  -3  10  -3  209.43   26.75
   3  10   3  149.60   10.43
  -3 -10  -3  173.80   25.10
  -3  10  -3  162.68   27.00
   3 -10   3  168.17   21.61
   3 -10   3  157.49   22.01
   3  10   3  144.11   19.76
   3 -10   4  287.28   34.13
  -3  10  -4  348.61   37.87
   3 -10   4  261.78   33.43
   3  10   4  265.92   30.94
  -3 -10  -4  334.39   40.07
   3 -10   4  319.96   34.88
  -3  10  -4  293.07   41.37
  -3 -10  -5 6928.60  410.58
  -3  10  -5 7685.89  403.35
  -3 -10  -5 6413.32  417.17
   3 -10   5 6169.85  396.91
   3  10   5 6083.42  392.47
  -3  10  -5 6752.10  416.02
   3 -10   5 7823.17  403.95
  -3  10  -6  181.34   35.73
   3  10   6  174.60   27.50
  -3  10  -6  241.92   32.88
  -3 -10  -6  283.84   41.97
   3 -10   6  242.42   32.88
   3  10   6  166.82   28.14
  -3  10  -6  264.77   42.91
  -3 -10  -6  247.86   43.06
   3 -10   6  292.77   36.68
  -3 -10  -7   68.56   23.80
  -3  10  -7   57.44   22.21
  -3  10  -7  123.36   23.05
   3  10   7   40.37   14.72
   3 -10   7   72.96   18.56
   3  10   7   61.48   17.62
  -3  10  -7   54.19   19.66
  -3 -10  -7  103.44   30.79
   3 -10   7   77.95   21.01
  -3 -10  -8  124.20   33.38
   3 -10   8   67.02   18.56
   3  10   8   68.56   18.06
   3 -11 -11  407.84   50.75
   3  11 -11  510.04   48.90
   3  11 -10    5.64    8.63
   3  11 -10   -2.89    9.88
   3 -11 -10    3.04   10.68
   3  11 -10    8.73   11.08
   3 -11 -10    4.29    9.13
  -3 -11   9  179.84   33.58
  -3  11   9  151.55   28.89
   3 -11  -9  146.91   27.35
  -3  11   9  159.33   34.03
   3  11  -9  148.46   26.70
   3 -11  -9  135.73   26.15
  -3 -11   8 4003.65  253.15
   3  11  -8 4051.91  224.30
   3 -11  -8 3569.16  248.31
  -3  11   8 3608.44  263.33
   3  11  -8 3943.92  238.23
   3  11  -8 3872.91  249.35
   3 -11  -8 4453.21  252.60
  -3  11   8 4665.19  250.90
   3 -11  -7   37.18   11.68
  -3  11   7   22.31   11.38
  -3 -11   7   28.89   11.13
  -3  11   7   25.05   13.67
   3  11  -7   23.05    5.59
   3  11  -7   26.15    8.48
  -3  11   7   11.53    9.48
  -3  11   7   16.27    8.93
   3 -11  -7   39.37   13.17
   3  11  -7   18.36    9.83
  -3 -11   6  473.56   38.62
   3  11  -6  504.80   37.87
  -3  11   6  471.51   52.75
   3 -11  -6  517.82   45.71
   3  11  -6  533.54   36.63
  -3  11   6  470.87   55.69
   3 -11  -6  449.71   45.96
  -3  11   6  475.76   46.81
  -3  11   6  562.83   48.70
  -3  11   6  458.64   43.86
   3  11  -6  453.85   45.91
  -3  11   5  966.78   76.60
  -3  11   5  908.80   79.69
  -3  11   5  883.05   68.66
   3  11  -5  806.75   66.32
   3 -11  -5  864.43   64.82
   3 -11  -5  811.29   66.82
   3  11  -5  905.80   58.53
  -3  11   5  791.88   61.78
   3  11  -5  925.26   56.69
   3  11  -4 2931.18   85.98
  -3  11   4 3320.81  102.80
   3 -11  -4 3281.88   80.89
   3 -11  -4 2861.22   84.98
  -3  11   4 3258.13  116.92
   3  11  -4 2751.14   62.93
   3 -11  -3  685.74   35.38
  -3  11   3  725.51   45.06
  -3  11   3  586.64   36.58
   3  11  -3  639.18   38.87
  -3  11   3  698.01   53.89
   3 -11  -3  710.64   41.92
   3  11  -2 3010.82   79.79
   3 -11  -2 3440.27   76.55
  -3  11   2 2834.52   78.74
  -3  11   2 3461.73  116.57
   3 -11  -2 3495.91   93.66
  -3  11   2 3472.66   91.92
   3  11  -2 3197.05   41.22
   3 -11  -1 1290.64  105.74
   3  11  -1 1689.60  102.80
  -3  11   1 1586.00  107.59
   3 -11  -1 1691.29  106.99
   3  11  -1 1637.30  106.34
   3 -11  -1 1836.65  105.79
  -3  11   1 1988.50  123.21
  -3  11   1 1537.50  103.49
  -3 -11   1 1744.69  110.73
   3 -11   0 1712.15   63.57
   3  11   0 1865.15   61.88
   3  11   0 1821.18   48.15
   3 -11   0 1906.61   61.48
  -3 -11   0 1769.44   65.67
  -3  11   0 1764.65   65.12
  -3 -11   0 1669.39   48.05
  -3  11   0 1788.80   64.57
   3 -11   1 3830.20   87.38
  -3 -11  -1 3628.95  104.14
   3  11   1 3742.57   63.07
   3  11   1 3523.65   86.58
  -3  11  -1 4084.09  116.32
  -3  11  -1 3436.73   99.90
  -3 -11  -1 3768.32  100.20
   3 -11   2 3146.65  182.14
   3 -11   2 2693.25  183.54
  -3  11  -2 3370.71  193.67
  -3 -11  -2 3065.11  189.42
  -3  11  -2 2770.25  190.67
   3  11   2 2732.58  180.54
   3  11   2 3096.00  170.96
  -3  11  -3 1862.30  120.06
   3  11   3 1722.08   97.31
  -3 -11  -3 1762.75  119.61
   3  11   3 1513.10  109.43
   3 -11   3 1544.18  112.73
   3 -11   3 1597.38  114.97
  -3  11  -3 1636.60  123.16
  -3  11  -4 1852.82  112.78
  -3 -11  -4 1726.57  115.62
   3 -11   4 1440.14  104.19
   3 -11   4 1382.85  104.74
   3  11   4 1343.63   99.60
  -3  11  -4 1772.48  122.36
   3  11   4 1404.06   84.13
  -3  11  -5 2064.05  169.91
  -3 -11  -5 2389.86  177.10
  -3  11  -5 2848.59  164.27
  -3 -11  -5 2696.80  172.36
   3 -11   5 2190.40  157.14
   3  11   5 2130.97  152.40
  -3  11  -5 2617.05  176.50
  -3  11  -6   69.56   18.46
  -3  11  -6   60.23   21.66
  -3  11  -6  105.34   27.74
   3  11   6   68.71   16.62
   3  11   6   65.97   17.47
  -3 -11  -6   49.15   20.11
   3  11   6   40.27   14.92
  -3 -11  -6   85.18   27.00
   3 -11   6   59.23   16.97
   3  11   7  608.79   63.37
   3 -11   7  691.13   65.27
  -3  11  -7  680.15   74.50
  -3  11  -7  985.64   73.90
   3  11   7  544.52   59.73
  -3  11  -7  791.53   84.28
  -3 -11  -7  920.27   86.33
  -3 -11  -7 1081.75   96.71
  -3  11  -8  352.55   41.07
   3 -11   8  282.49   36.98
   3 -12 -10   20.26   13.57
   3  12 -10   31.89   12.92
   3 -12 -10   19.01   13.02
  -3  12  10   37.97   17.17
  -3 -12   9  109.18   25.50
  -3  12   9  147.31   24.55
   3 -12  -9  122.16   25.60
   3  12  -9  121.61   19.81
  -3  12   9  103.39   28.39
   3 -12  -9  102.80   23.10
   3  12  -9  118.76   24.05
  -3  12   9  104.09   24.50
  -3  12   8   20.01   11.88
  -3 -12   8    3.29    8.58
   3 -12  -8   12.03    9.63
   3  12  -8    8.78    4.14
  -3  12   8    5.34   10.43
   3  12  -8   12.67    9.23
  -3  12   8   12.18   15.07
   3 -12  -8    2.54    8.88
   3  12  -8   15.97   10.88
  -3  12   7   25.05   12.08
  -3  12   7   44.61   16.72
   3  12  -7   31.79    9.93
   3  12  -7   41.02    7.58
  -3 -12   7   23.85    8.88
   3 -12  -7   37.03   12.38
  -3  12   7   34.13   13.37
  -3  12   7   31.84   16.37
   3 -12  -7   20.71   11.03
  -3  12   7   38.82   12.97
   3  12  -7   41.72   14.72
  -3 -12   6 1007.20   68.66
   3  12  -6 1179.36   72.06
   3  12  -6 1239.34   72.11
  -3  12   6 1251.67   85.13
  -3  12   6 1173.57   92.77
   3 -12  -6 1142.63   81.44
   3 -12  -6  986.19   81.79
  -3  12   6 1006.40   82.24
  -3  12   6 1062.79   95.01
  -3  12   6 1014.24   78.84
   3  12  -6  976.06   81.09
  -3  12   5  776.21   68.41
   3  12  -5  748.02   62.48
  -3  12   5  859.59   65.37
   3  12  -5  759.44   53.74
   3  12  -5  835.24   50.90
   3 -12  -5  711.54   62.03
   3 -12  -5  789.73   60.48
  -3  12   5  808.79   74.90
  -3  12   5  680.30   55.94
  -3  12   4  106.89   19.96
  -3  12   4   55.79   13.77
   3  12  -4   86.38   16.97
   3 -12  -4   74.30   13.77
   3 -12  -4   70.81   14.87
  -3  12   4   83.43   20.46
   3  12  -4   68.16   11.88
   3 -12  -3   46.11   12.82
   3  12  -3   39.07    9.08
  -3  12   3   57.34   13.67
   3 -12  -3   58.33   11.38
   3  12  -3   49.90   12.67
   3 -12  -3   34.63   10.48
  -3  12   3   17.47    8.18
  -3  12   3   60.78   17.12
   3  12  -2  886.59   20.21
   3  12  -2  845.02   40.12
  -3  12   2  940.43   62.83
   3  12  -2  851.61   44.31
   3 -12  -2  933.95   41.92
  -3  12   2  781.05   43.26
   3 -12  -2  911.19   50.25
  -3  12   2  957.00   49.05
   3  12  -1 1032.05   58.63
  -3 -12   1 1073.27   67.77
   3 -12  -1 1052.56   63.77
   3 -12  -1 1137.69   62.48
  -3  12   1  963.94   64.52
   3  12  -1 1047.77   63.87
  -3  12   1 1159.90   79.34
  -3  12   1  899.71   59.13
   3 -12   0   69.21   14.42
  -3 -12   0   67.37   10.53
   3 -12   0   70.96   13.37
  -3 -12   0   52.85   13.07
   3  12   0   57.29   12.97
   3  12   0   54.09   10.78
  -3  12   0   71.11   14.62
  -3  12   0   52.00   12.48
   3 -12   1  147.71   18.41
   3  12   1  160.08   14.47
  -3 -12  -1  186.78   25.55
  -3 -12  -1  163.82   21.96
  -3  12  -1  155.64   24.05
  -3  12  -1  122.26   19.76
   3  12   1  128.40   17.96
   3 -12   1  115.02   17.07
   3 -12   2  172.06   22.31
   3 -12   2  174.10   24.45
  -3 -12  -2  193.02   27.20
  -3  12  -2  167.42   26.50
   3  12   2  150.25   22.21
  -3  12  -2  171.61   27.45
   3  12   2  188.78   17.12
   3  12   3  290.52   21.51
  -3  12  -3  246.01   35.93
   3  12   3  225.30   28.54
   3 -12   3  280.44   34.23
   3 -12   3  248.16   30.94
  -3 -12  -3  289.23   35.78
  -3  12  -3  275.00   34.58
  -3  12  -4  338.93   44.71
  -3  12  -4  306.14   45.66
  -3  12  -4  371.01   40.32
  -3 -12  -4  325.90   40.57
   3  12   4  267.07   32.24
   3  12   4  295.06   21.61
   3 -12   4  298.21   37.13
   3 -12   4  321.21   36.48
  -3 -12  -5 1037.74   87.88
  -3  12  -5  914.43   91.02
  -3  12  -5 1024.67   92.02
   3  12   5  850.31   73.45
  -3  12  -5 1103.96   82.19
   3 -12   5  859.99   76.75
   3  12   6   37.13   13.07
   3  12   6   48.30   15.27
  -3 -12  -6   64.07   22.61
  -3  12  -6   80.19   25.65
  -3 -12  -6   59.03   23.00
   3 -12   6   53.74   16.67
  -3  12  -6   73.30   19.01
   3  12   6   34.98   13.22
  -3  12  -6   59.63   22.56
   3  12   7   92.47   21.41
  -3  12  -7  151.85   27.15
  -3 -12  -7  128.79   34.43
  -3 -12  -7  138.87   33.73
   3 -12   7  128.25   24.70
  -3  12  -7  113.67   29.34
  -3  12  -7  160.13   36.98
   3  12   7  102.50   22.85
  -3  12  -8  933.30   71.51
   3  12   8  499.81   56.49
   3 -13 -10  116.82   26.20
   3  13  -9   25.85   11.18
  -3  13   9   37.53   14.92
   3 -13  -9   42.17   16.82
   3 -13  -9   25.00   13.02
  -3  13   9   39.07   19.61
   3  13  -9   16.72   11.93
  -3  13   9   26.80   14.42
  -3  13   8   89.27   19.41
  -3 -13   8   58.13   14.87
  -3  13   8  120.41   29.94
   3  13  -8   64.67   14.17
   3  13  -8   72.06    9.48
   3 -13  -8   57.34   16.87
  -3  13   8   52.94   22.46
  -3  13   8   55.79   18.26
   3 -13  -8   58.03   17.37
   3  13  -8   45.91   16.32
  -3 -13   7  131.29   16.67
   3  13  -7  138.43   18.16
  -3  13   7  153.99   30.44
  -3  13   7  174.70   25.85
   3 -13  -7  133.98   22.90
   3  13  -7  147.31   16.22
  -3  13   7  166.52   26.50
  -3  13   7  124.70   29.34
   3 -13  -7  138.08   24.50
   3  13  -7  148.46   25.05
  -3  13   7  112.83   21.26
  -3  13   6  386.63   50.80
   3  13  -6  455.15   34.53
  -3  13   6  464.78   50.35
   3  13  -6  420.42   33.03
  -3  13   6  498.96   44.96
   3  13  -6  349.21   40.82
   3 -13  -6  403.85   43.41
  -3  13   6  437.43   44.41
   3 -13  -6  403.90   40.82
  -3  13   6  350.75   38.02
   3  13  -6  371.81   41.27
  -3  13   5   12.23   10.63
   3 -13  -5   24.75    9.33
   3  13  -5   15.82    9.98
   3 -13  -5    5.99    7.24
   3  13  -5    7.73    5.79
  -3  13   5   24.20   10.58
  -3  13   5    6.09    5.29
  -3  13   4 2282.02  134.38
  -3  13   4 2072.34  133.19
   3 -13  -4 2016.70  124.85
   3  13  -4 1954.57  128.99
   3 -13  -4 1810.06  126.95
  -3  13   4 1940.50  141.37
   3  13  -4 1724.73  117.82
  -3  13   3  130.94   19.71
   3  13  -3  135.18   18.01
   3 -13  -3  100.25   16.82
   3 -13  -3  137.48   17.22
   3  13  -3  124.90   19.16
  -3  13   3  150.75   26.50
   3  13  -3  120.66   14.87
   3 -13  -3  162.88   22.51
   3  13  -2  839.78   41.17
   3 -13  -2   -0.95    3.94
   3 -13  -2  923.52   43.46
  -3  13   2 1026.66   66.97
  -3  13   2    4.29    5.74
   3 -13  -2 1009.15   54.49
   3  13  -2  850.41   46.21
   3  13  -1  656.70   33.98
   3 -13  -1  691.38   37.82
   3 -13  -1    0.85    5.29
   3 -13  -1  648.51   39.17
   3  13  -1  669.32   40.32
  -3 -13   1  730.05   45.96
  -3  13   1  780.75   57.44
  -3  13   1   41.97   12.48
  -3  13   1  558.44   34.23
   3 -13   0 2528.73   75.25
   3  13   0 2655.23   63.97
  -3 -13   0 2235.51   58.23
   3  13   0 2451.63   76.85
  -3 -13   0 2510.22   83.93
  -3  13   0 2280.47   78.59
   3 -13   1 1721.33   88.08
   3  13   1 1579.76   87.28
  -3 -13  -1 1659.66   94.01
   3  13   1 1691.99   78.19
  -3  13  -1 1907.26  104.39
  -3  13  -1 1454.66   91.52
   3 -13   2  206.54   24.80
   3 -13   2  168.91   24.60
  -3  13  -2  170.56   27.79
  -3  13  -2  203.10   29.39
   3  13   2  160.43   23.05
   3  13   2  185.63   18.46
   3 -13   2  215.32   29.14
  -3 -13  -2  236.23   30.24
  -3 -13  -3 1252.66   94.31
  -3  13  -3 1178.21  101.65
  -3  13  -3 1063.49   88.87
  -3  13  -3 1274.82   93.51
   3  13   3 1034.45   83.23
   3 -13   3 1128.91   89.72
   3 -13   3 1012.64   84.88
  -3  13  -3 1202.56   96.56
   3  13   3 1295.78   73.25
  -3  13  -4   15.62   11.03
   3  13   4   17.37    8.98
  -3  13  -4    5.74   11.73
  -3 -13  -4    7.09    9.63
   3 -13   4   20.71   12.77
   3 -13   4   18.41    9.78
  -3  13  -4    1.65    8.43
   3  13   4   11.08    4.49
  -3  13  -5  246.71   42.62
  -3  13  -5  260.03   34.53
  -3 -13  -5  264.62   38.87
   3  13   5  212.88   29.79
   3 -13   5  235.98   33.68
  -3  13  -5  192.22   36.63
   3 -13   6   76.50   21.06
  -3 -13  -6   52.20   23.65
  -3 -13  -6  114.32   27.30
   3  13   6   83.93   19.51
  -3  13  -6  130.54   24.30
  -3  13  -6   70.21   25.25
   3  13   6   87.08   20.36
  -3  13  -6   75.00   24.45
   3  13   7  407.74   49.60
  -3  13  -7  463.58   62.33
  -3  13  -7  784.94   64.57
  -3 -13  -7  674.51   78.64
  -3 -13  -7  730.75   76.30
   3 -13   7  549.86   57.09
  -3  13  -7  679.25   75.85
   3  13   7  429.00   52.10
  -3  13  -8    1.40   10.13
   3 -13   8    1.40    9.33
   3 -14 -10  225.35   36.23
   3 -14  -9   85.58   22.31
  -3  14   9   92.77   30.24
  -3  14   9  101.40   21.71
   3 -14  -9   86.73   21.76
   3  14  -9   98.90   18.16
  -3  14   9  115.22   30.94
  -3  14   9   92.87   22.61
   3  14  -9   98.50   22.46
  -3 -14   8  692.67   54.49
  -3  14   8  849.01   81.39
  -3  14   8  776.21   64.67
   3 -14  -8  774.96   67.37
   3 -14  -8  641.68   65.02
   3  14  -8  763.18   56.44
   3  14  -8  789.38   49.65
  -3  14   8  630.35   65.12
   3  14  -8  685.34   66.42
  -3  14   8  701.11   79.89
  -3  14   8  652.60   64.17
  -3  14   7  143.22   29.39
   3  14  -7  136.43   17.76
   3  14  -7  161.03   17.57
   3 -14  -7  133.53   23.55
  -3  14   7  121.16   23.85
   3 -14  -7  132.94   24.30
  -3  14   7  120.71   29.29
  -3  14   7  123.70   22.66
   3  14  -7   91.87   20.76
  -3  14   6 1542.79  106.89
   3  14  -6 1197.42   93.76
  -3  14   6 1454.46   96.91
   3 -14  -6 1374.22   94.06
   3  14  -6 1348.67   84.03
  -3  14   6 1180.16   94.41
  -3  14   6 1249.42  108.33
  -3  14   6 1090.24   87.98
   3  14  -6 1208.75   94.06
   3 -14  -6 1224.17   95.11
  -3  14   5  996.72   78.14
  -3  14   5 1050.66   75.65
   3  14  -5  876.96   72.26
  -3  14   5  812.79   70.36
   3  14  -5  889.83   62.68
   3 -14  -5  960.29   70.21
  -3  14   5  800.56   80.54
   3 -14  -5  819.07   70.66
  -3  14   4 1072.52   79.19
   3  14  -4  939.53   74.90
  -3  14   4 1058.10   78.79
   3 -14  -4  857.40   72.21
  -3  14   4  941.23   85.18
   3 -14  -4 1048.82   72.41
   3  14  -4  892.48   65.57
  -3  14   3 1323.82   91.52
   3  14  -3 1227.36   87.08
   3 -14  -3 1363.59   87.63
   3 -14  -3 1177.81   88.47
   3  14  -3 1285.40   91.32
  -3  14   3 1387.40  105.94
   3  14  -3 1139.29   82.54
   3  14  -2  313.38   32.19
  -3  14   2  336.13   43.61
   3 -14  -2  341.57   33.43
   3  14  -2  331.74   35.38
   3 -14  -2  402.85   40.52
   3  14  -1  968.03   42.82
   3 -14  -1  858.50   46.26
  -3 -14   1 1059.35   56.54
   3  14  -1  976.81   50.40
  -3  14   1 1224.07   73.25
  -3  14   1  856.65   44.36
   3  14   0    1.10    5.84
   3 -14   0   -0.85    2.94
   3 -14   0    5.54    6.59
   3  14   0    5.09    7.39
  -3 -14   0    4.44    4.19
  -3 -14   0    5.94    5.84
  -3  14   0    8.18    6.39
   3 -14   1  308.74   27.94
   3  14   1  311.03   22.11
  -3  14  -1  272.91   36.43
  -3  14  -1  287.48   34.33
  -3 -14  -1  312.78   31.89
  -3  14  -1  264.47   29.99
   3  14   1  249.21   26.00
   3 -14   2   18.26    9.18
  -3 -14  -2   19.86   10.18
   3 -14   2   20.11    8.98
  -3  14  -2   37.28   14.37
   3  14   2   22.61    9.68
  -3  14  -2   23.15   14.37
   3  14   2   19.71    7.09
   3 -14   2   11.63   10.53
  -3  14  -2   24.15   11.88
  -3 -14  -3  441.07   47.76
   3  14   3  369.57   39.42
  -3  14  -3  392.67   44.76
  -3  14  -3  367.17   50.50
  -3  14  -3  388.83   47.66
   3 -14   3  379.40   41.17
   3 -14   3  378.55   43.76
   3  14   3  423.81   31.24
  -3  14  -3  440.13   46.71
   3  14   4   32.34   11.78
  -3  14  -4   53.24   21.01
  -3  14  -4   19.81   11.48
  -3 -14  -4   44.26   16.57
   3  14   4   32.19    6.74
   3 -14   4   41.52   15.52
   3 -14   4   32.14   13.07
  -3  14  -4   43.71   17.02
   3  14   5  166.62   14.77
   3 -14   5  201.55   31.64
  -3  14  -5  181.44   37.58
  -3  14  -5  186.28   29.44
   3  14   5  161.18   25.70
  -3 -14  -5  230.29   36.73
  -3  14  -5  158.68   34.03
  -3 -14  -6   85.28   25.15
  -3  14  -6   53.09   23.40
  -3 -14  -6   62.13   25.65
   3  14   6   63.27   18.06
   3 -14   6   65.22   19.51
  -3  14  -6   80.39   24.95
  -3  14  -6   71.06   20.06
  -3  14  -7  187.18   31.79
  -3 -14  -7  201.40   45.41
   3 -14   7  168.81   30.29
  -3  14  -7  141.12   33.83
  -3  14  -7  201.35   41.47
   3 -15 -10  793.87   76.00
   3 -15  -9  265.52   38.67
   3 -15  -9  283.24   39.32
  -3  15   9  294.07   49.95
  -3  15   9  259.88   39.57
  -3  15   9  290.97   39.87
   3  15  -9  235.38   36.18
  -3  15   9  323.71   38.32
  -3  15   8  505.80   58.93
   3 -15  -8  419.17   46.66
   3 -15  -8  341.52   44.41
  -3  15   8  440.18   45.06
   3  15  -8  407.54   36.58
  -3  15   8  384.39   46.41
  -3  15   8  379.15   55.64
  -3  15   8  335.58   42.37
   3  15  -8  355.89   44.96
   3  15  -8  427.55   32.39
   3 -15  -7   46.36   14.92
  -3  15   7   34.08   17.02
   3  15  -7   93.76   21.06
   3  15  -7   60.48   11.28
  -3  15   7   52.40   16.77
   3 -15  -7   36.13   14.82
  -3  15   7   41.42   18.51
  -3  15   7   59.78   16.42
   3  15  -7   47.66   15.62
  -3  15   6  990.58   83.13
   3  15  -6  880.20   76.00
  -3  15   6 1126.51   79.89
   3 -15  -6 1074.32   77.25
   3 -15  -6  861.14   76.00
   3  15  -6 1007.70   66.87
  -3  15   6  889.08   87.93
  -3  15   6  849.11   70.31
   3  15  -6  859.34   75.50
  -3  15   6  954.41   78.05
  -3  15   5   19.81   10.78
  -3  15   5   20.81   11.08
   3 -15  -5   25.25    9.78
   3  15  -5   26.25   12.48
   3 -15  -5   15.22    9.33
  -3  15   5   16.52   10.48
  -3  15   5   13.87   11.08
   3  15  -5   21.26    8.08
   3  15  -4    9.98    7.88
  -3  15   4    5.39    7.58
  -3  15   4    8.48    7.63
  -3  15   4   12.58    9.33
   3  15  -4   12.67    8.43
   3 -15  -4    9.13    6.34
   3 -15  -4    5.04    7.09
  -3  15   4    9.78    9.98
   3  15  -4   20.21    7.88
  -3  15   3  140.07   21.96
   3  15  -3  121.11   19.41
   3  15  -3  122.36   17.86
   3 -15  -3  126.80   20.86
   3 -15  -3  132.69   19.51
   3  15  -3  128.64   21.86
  -3  15   3  156.99   29.19
  -3  15   3  148.41   25.35
   3 -15  -2    3.29    8.43
   3  15  -2    8.23    6.74
   3  15  -2    6.64    7.63
   3 -15  -2    9.43    6.54
   3  15  -2   14.17    8.33
  -3  15   2    6.24    7.98
  -3 -15   1  687.88   57.84
   3  15  -1  652.80   49.55
   3  15  -1  595.77   53.14
  -3  15   1  762.99   68.11
  -3  15   1  500.41   49.00
   3 -15   0   -0.90    3.39
   3  15   0   14.87    7.29
   3 -15   0   19.41    8.98
  -3  15   0   26.65   14.22
  -3 -15   0   13.77    8.23
  -3 -15   0   19.41    6.94
   3  15   0   13.77    7.93
  -3  15   0    9.63    6.34
   3 -15   1  217.52   24.20
   3  15   1  218.02   19.66
  -3 -15  -1  240.37   29.04
  -3  15  -1  243.52   35.58
  -3  15  -1  198.71   29.39
   3  15   1  227.05   25.95
   3 -15   1  213.98   28.24
  -3  15  -1  241.12   29.09
   3 -15   2  227.10   28.94
  -3  15  -2  212.08   30.94
  -3  15  -2  227.75   32.98
  -3 -15  -2  262.03   33.63
   3  15   2  224.90   22.06
   3  15   2  200.85   27.79
  -3  15  -2  203.70   35.53
   3 -15   2  225.30   32.24
  -3  15  -2  185.08   29.99
  -3 -15  -3  163.97   28.39
  -3  15  -3  149.20   26.25
  -3  15  -3  161.33   32.83
   3 -15   3  126.25   22.11
  -3  15  -3  124.10   24.50
   3  15   3  134.93   22.21
   3  15   3  153.20   16.67
   3 -15   3  130.59   25.50
  -3  15  -3  140.57   27.79
  -3 -15  -4  270.41   38.42
   3  15   4  233.89   20.91
   3 -15   4  285.18   37.58
  -3  15  -4  260.23   36.53
  -3  15  -4  304.30   37.63
   3  15   4  194.16   29.19
   3 -15   4  206.19   30.39
  -3  15  -4  229.29   42.22
  -3  15  -4  285.08   41.42
   3  15   5   16.22    5.14
  -3 -15  -5   19.11   12.92
  -3  15  -5    8.58   14.12
   3  15   5   19.41   10.88
  -3  15  -5   18.76   12.72
   3 -15   5   17.17   12.43
  -3  15  -5   30.94   16.47
  -3  15  -6   -2.20   15.72
  -3 -15  -6    7.88   14.27
  -3 -15  -6   -2.59   12.58
   3  15   6   11.28   10.68
  -3  15  -6    2.79   10.38
  -3  15  -6   15.02   15.52
   3 -15   6    1.50   10.98
   3  15   7   17.27   11.78
  -3  15  -7   10.78   14.22
  -3  15  -7    4.39   11.38
  -3 -15  -7    2.79   17.66
   3 -15   7    4.54   12.33
  -3  16   9  127.20   25.35
   3 -16  -9  165.02   29.44
   3 -16  -9  138.97   28.24
  -3  16   9  118.02   27.30
  -3  16   8  120.96   23.70
  -3  16   8  103.29   28.34
   3  16  -8   71.01   21.01
   3 -16  -8   92.57   22.75
   3 -16  -8  129.54   24.75
  -3  16   8  102.60   23.50
  -3  16   8   92.67   28.04
  -3  16   8  100.60   22.16
   3  16  -8   66.22   19.56
   3 -16  -7   59.03   16.37
  -3  16   7   51.90   19.06
   3  16  -7   64.52   12.18
   3  16  -7   34.73   14.72
   3 -16  -7   30.74   13.47
  -3  16   7   29.04   13.52
  -3  16   7   51.05   21.26
  -3  16   7   46.56   15.42
   3  16  -7   49.40   16.12
   3  16  -6  480.15   51.75
  -3  16   6  701.01   64.07
  -3  16   6  668.47   58.23
   3 -16  -6  540.48   55.69
   3  16  -6  601.71   57.93
   3 -16  -6  673.81   57.04
   3  16  -6  661.69   48.55
  -3  16   6  542.87   55.94
  -3  16   6  685.34   71.66
  -3  16   6  554.95   51.10
   3  16  -6  598.56   57.24
   3  16  -5   12.33    8.03
  -3  16   5    7.34    9.83
  -3  16   5   13.97    9.93
  -3  16   5   19.56   10.93
   3 -16  -5   21.96    9.93
   3  16  -5   24.90   11.78
   3 -16  -5    6.79    8.23
  -3  16   5   26.75   14.57
   3  16  -5   28.69    9.03
  -3  16   4  461.18   45.46
   3  16  -4  412.73   41.27
   3  16  -4  451.00   45.56
   3  16  -4  363.38   35.68
  -3  16   4  413.58   52.00
  -3  16   4  404.25   44.01
   3 -16  -4  379.05   42.12
   3 -16  -4  460.59   42.02
  -3  16   4  504.85   49.00
  -3  16   3 1138.84   83.23
   3  16  -3 1026.51   79.84
   3 -16  -3 1063.64   82.94
  -3  16   3  996.72   83.38
   3  16  -3 1166.68   86.08
  -3  16   3 1146.62   96.16
   3 -16  -3 1212.79   81.89
  -3  16   3 1294.38   93.17
   3  16  -3 1043.88   76.70
   3 -16  -2   44.91   15.02
   3  16  -2   24.15    9.33
   3  16  -2   31.79   10.83
   3 -16  -2   46.76   11.93
  -3  16   2   37.13   16.12
   3  16  -2   43.61   14.02
   3 -16  -1   20.71   12.67
   3  16  -1   19.76    4.54
   3  16  -1   19.61    9.93
   3  16  -1   20.31    9.13
  -3 -16   1   11.03    7.34
  -3  16   1   34.78   14.77
  -3  16   1   15.52    7.93
   3 -16   0   94.41   17.57
   3  16   0  109.03   16.37
  -3 -16   0  114.62   21.36
  -3  16   0   82.89   17.22
   3  16   0  101.35   18.96
  -3 -16   0   82.44   14.37
  -3  16   0  105.59   24.50
   3 -16   1  256.79   30.29
  -3 -16  -1  237.28   32.59
  -3  16  -1  246.01   38.72
  -3  16  -1  277.00   37.58
  -3  16  -1  249.80   33.53
   3 -16   1  315.32   37.58
  -3  16  -1  187.03   29.84
   3  16   1  213.68   29.29
   3  16   1  258.64   25.90
  -3 -16  -2  794.57   68.86
   3 -16   2  680.75   60.58
  -3  16  -2  748.86   75.45
  -3  16  -2  799.41   70.16
   3  16   2  752.36   52.99
   3 -16   2  707.00   66.52
  -3  16  -2  703.10   66.92
  -3  16  -2  680.60   65.37
   3  16   2  711.04   61.78
   3 -16   3    8.68    9.03
  -3  16  -3    5.69   10.53
   3  16   3    3.34    5.59
  -3 -16  -3    4.29    8.43
  -3  16  -3   -1.35    8.73
  -3  16  -3   -3.89   13.62
   3  16   3    3.19    8.08
   3 -16   3   33.88   15.97
  -3  16  -3    7.73    9.48
  -3  16  -4   15.87   11.48
  -3 -16  -4   27.55   15.37
  -3  16  -4   36.93   15.92
   3  16   4   23.60    7.04
  -3  16  -4   22.75   15.17
  -3  16  -4    8.33   15.07
   3  16   4   11.18    9.53
   3 -16   4    2.84   12.82
   3 -16   4    5.79    7.93
  -3  16  -5  143.76   29.64
   3  16   5  160.63   26.80
   3  16   5  160.43   15.82
  -3 -16  -5  224.01   37.23
   3 -16   5  170.86   30.64
  -3  16  -5  142.62   35.63
  -3  16  -5  207.74   38.07
  -3  16  -5  211.18   31.89
  -3  16  -6  484.74   64.17
  -3  16  -6  539.13   55.79
  -3 -16  -6  497.01   62.33
   3  16   6  416.62   48.50
   3 -16   6  456.84   53.79
  -3  16  -6  495.17   64.12
  -3  16  -7   19.46   14.42
   3 -16   7   18.66   15.22
   3 -17  -9  595.77   66.12
  -3  17   9  781.10   66.37
  -3  17   8   95.06   21.21
   3 -17  -8   93.41   22.80
   3  17  -8   52.40   16.62
  -3  17   8  119.36   29.14
   3  17  -8   82.19   22.21
   3 -17  -8   80.14   21.21
  -3  17   8   83.09   23.50
  -3  17   8   97.01   30.49
  -3  17   8   80.39   19.91
  -3  17   7  150.10   29.69
   3  17  -7  140.32   18.71
   3  17  -7  107.39   23.70
   3 -17  -7  145.61   25.10
   3 -17  -7  110.23   23.75
  -3  17   7  125.85   25.15
  -3  17   7  153.00   26.00
  -3  17   7  198.16   38.27
   3  17  -7  125.40   24.40
   3 -17  -6   48.35   16.27
   3  17  -6   29.69   11.78
  -3  17   6   22.41   13.57
  -3  17   6   19.31   11.93
   3  17  -6   48.70   17.12
   3 -17  -6   36.13   13.42
   3  17  -6   27.35   10.13
  -3  17   6   44.01   12.23
  -3  17   6   35.13   14.32
   3  17  -6   21.26   11.38
   3  17  -5  633.89   59.53
  -3  17   5  697.42   61.73
   3  17  -5  608.89   50.00
   3  17  -5  592.07   55.69
  -3  17   5  718.52   61.93
   3 -17  -5  648.41   56.24
  -3  17   5  560.29   57.54
  -3  17   5  652.01   69.21
   3 -17  -5  627.80   58.68
  -3  17   4 1525.02  104.89
   3  17  -4 1372.03  100.40
   3 -17  -4 1340.54  102.30
   3  17  -4 1447.28  105.39
   3 -17  -4 1452.77  100.15
  -3  17   4 1343.68  104.44
  -3  17   4 1469.13  116.82
   3  17  -4 1320.03   93.66
  -3  17   4 1616.44  110.58
   3  17  -3   34.28   10.83
   3  17  -3   39.72   13.82
  -3  17   3   54.59   16.57
  -3  17   3   61.68   15.27
   3  17  -3   39.82   12.97
   3 -17  -3   43.41   12.18
   3 -17  -3   27.65   11.93
  -3  17   3   75.45   21.26
  -3  17   3   31.74   13.32
   3  17  -2  125.35   19.86
   3  17  -2  105.89   17.91
   3 -17  -2  138.28   20.76
  -3  17   2  115.02   22.16
   3  17  -2  143.22   23.50
  -3  17   2  137.78   28.09
   3 -17  -2  160.23   26.50
   3 -17  -1  135.73   26.55
   3  17  -1  159.18   13.42
   3  17  -1  141.42   23.50
   3  17  -1  141.32   20.71
  -3  17   1  133.49   24.45
  -3  17   1  148.46   22.16
  -3  17   1  189.97   33.08
   3 -17   0  848.52   70.36
   3  17   0  984.94   67.57
  -3  17   0  912.64   76.45
   3  17   0  917.53   73.65
  -3  17   0 1089.84   88.72
  -3 -17   0  996.87   78.39
  -3  17   0  744.12   70.06
   3 -17   1 1284.75   92.72
  -3  17  -1 1367.93  109.68
  -3  17  -1 1414.79  105.44
  -3  17  -1 1240.44   98.06
   3  17   1 1297.47   85.88
   3  17   1 1126.01   91.92
  -3  17  -1 1151.46   95.76
  -3 -17  -1 1379.46  100.50
   3 -17   1 1287.54  100.30
   3 -17   2  390.18   47.16
   3 -17   2  402.05   42.72
  -3  17  -2  452.40   50.20
  -3  17  -2  434.44   55.59
  -3 -17  -2  457.99   49.80
   3  17   2  394.27   42.96
   3  17   2  464.78   37.08
  -3  17  -2  416.37   47.51
  -3  17  -2  363.23   46.11
  -3  17  -3 1063.69   85.53
  -3  17  -3 1108.30   98.25
  -3  17  -3  914.04   83.38
  -3 -17  -3 1087.59   87.98
   3  17   3  901.61   76.90
   3 -17   3  843.08   75.05
   3 -17   3 1009.25   84.58
  -3  17  -3  875.16   83.93
   3  17   3 1033.35   67.02
  -3  17  -4   31.44   14.72
   3  17   4   24.55    7.93
  -3 -17  -4   23.30   14.52
  -3  17  -4   25.75   17.91
   3  17   4   36.38   13.92
  -3  17  -4   24.60   13.02
   3 -17   4   35.73   17.07
  -3  17  -4   30.34   15.27
   3 -17   4   22.46   11.83
  -3  17  -5  118.51   24.80
  -3  17  -5   70.41   22.16
  -3  17  -5   98.70   31.04
  -3 -17  -5  109.28   28.14
   3  17   5  117.17   13.07
   3  17   5   91.72   20.81
  -3  17  -5  105.39   28.44
   3 -17   5   97.51   25.45
  -3  17  -6  536.14   64.47
  -3  17  -6  617.92   75.15
  -3  17  -6  736.84   67.62
  -3 -17  -6  735.04   77.20
   3  17   6  580.50   60.13
  -3  17  -6  711.49   77.90
   3 -17   6  639.33   66.17
  -3  17  -7  775.31   71.06
  -3  17  -7  586.79   75.15
  -3 -17  -7  788.73   95.06
   3 -17   7  657.30   68.71
  -3  18   9    3.84   10.43
   3 -18  -9   12.92   11.98
  -3  18   8  380.30   49.80
   3  18  -8  203.70   33.33
  -3  18   8  346.36   40.07
   3 -18  -8  281.69   38.82
  -3  18   8  242.27   37.87
   3 -18  -8  239.57   37.73
   3  18  -8  281.84   40.57
  -3  18   8  296.61   50.90
   3  18  -7    8.63   10.43
  -3  18   7   27.30   15.22
   3 -18  -7   12.67   10.38
   3  18  -7   19.46    8.88
  -3  18   7   32.64   13.67
  -3  18   7   22.85   12.28
   3 -18  -7   15.67   11.68
  -3  18   7   11.13   15.17
   3  18  -7    9.78    9.83
  -3  18   6  202.75   32.24
   3  18  -6  188.08   28.74
   3  18  -6  225.75   33.03
  -3  18   6  244.22   33.08
   3 -18  -6  194.61   30.49
   3 -18  -6  195.66   29.49
   3  18  -6  226.75   25.55
  -3  18   6  199.35   31.34
  -3  18   6  233.39   41.02
   3  18  -6  152.65   27.89
  -3  18   5    4.94    9.18
   3  18  -5   12.18    8.63
  -3  18   5   -2.54   10.33
   3 -18  -5    9.48    8.38
   3  18  -5    9.03    9.78
   3 -18  -5    3.69    8.68
  -3  18   5    6.49    8.58
  -3  18   5   13.07   12.28
   3  18  -5   11.18    7.58
  -3  18   4  167.62   26.10
   3  18  -4  144.81   23.70
   3 -18  -4  166.17   26.90
   3  18  -4  166.82   27.55
  -3  18   4  157.74   27.25
   3  18  -4  191.52   23.45
  -3  18   4  190.37   33.98
  -3  18   4  174.10   28.69
   3 -18  -4  180.44   25.65
  -3  18   3  380.30   39.67
   3  18  -3  361.18   38.37
  -3  18   3  316.72   45.76
   3 -18  -3  359.04   40.17
   3 -18  -3  387.33   38.87
   3  18  -3  384.84   42.77
  -3  18   3  343.87   41.22
  -3  18   3  477.30   50.00
   3  18  -3  298.26   33.43
   3  18  -2   57.29   13.92
   3  18  -2   68.76   15.82
   3 -18  -2   88.92   17.07
   3  18  -2   73.10   18.31
  -3  18   2   53.69   16.77
  -3  18   2   85.33   23.20
   3 -18  -2   99.90   19.56
   3  18  -1   53.04   13.77
   3  18  -1   85.18    8.48
   3  18  -1   68.36   15.52
  -3 -18   1   70.36   18.01
  -3  18   1   79.49   18.86
   3  18  -1   74.60   17.81
  -3  18   1   65.92   20.91
  -3  18   1   56.54   14.27
   3  18   0  265.17   34.33
   3 -18   0  305.09   34.63
   3  18   0  269.81   23.50
  -3 -18   0  348.46   40.37
   3  18   0  284.14   29.89
  -3  18   0  319.72   43.96
  -3  18   0  296.21   37.87
  -3  18   0  203.05   30.69
   3 -18   1    5.79   12.28
   3 -18   1    5.04    6.44
   3 -18   1   12.28    9.68
  -3 -18  -1   10.68    9.08
  -3  18  -1   20.01   12.23
   3  18   1   10.08    8.08
   3  18   1    3.44    6.84
  -3  18  -1   25.45   16.67
  -3  18  -1   13.77   12.18
  -3  18  -1    6.34    8.33
   3 -18   2  210.28   27.89
  -3  18  -2  135.68   26.40
  -3 -18  -2  165.87   29.04
  -3  18  -2  170.71   30.04
   3  18   2  127.70   18.41
   3  18   2  125.45   23.00
  -3  18  -2  108.19   28.94
  -3  18  -2  134.48   26.80
   3 -18   2  144.16   28.59
  -3  18  -3   76.85   21.61
   3  18   3   78.09   13.97
  -3 -18  -3   75.75   21.51
  -3  18  -3   72.96   20.31
  -3  18  -3   70.51   24.75
   3 -18   3   67.17   17.22
   3  18   3   66.52   18.06
   3 -18   3   74.85   21.81
   3 -18   4   12.58    8.88
  -3  18  -4    1.65   11.63
  -3  18  -4    7.04    9.28
  -3  18  -4    6.59   14.52
  -3 -18  -4    5.19   10.98
   3  18   4    7.39    9.38
   3  18   4    6.04    6.24
  -3  18  -4    1.80    8.18
   3 -18   4   10.83   12.62
   3 -18   4    3.59    8.68
  -3  18  -5  432.89   49.80
  -3  18  -5  410.09   52.70
  -3  18  -5  481.69   64.32
   3  18   5  368.87   44.86
  -3  18  -5  417.32   56.54
   3 -18   5  474.36   54.74
  -3 -18  -5  420.12   56.04
  -3  18  -6  233.89   36.28
  -3  18  -6  194.36   37.18
  -3  18  -6  213.73   43.71
   3 -18   6  227.15   37.43
  -3  18  -6  241.67   44.41
  -3  18  -7   40.72   18.36
  -3 -18  -7   57.39   28.74
   3 -18   7   26.60   16.57
   3 -19  -8 2426.98  162.93
  -3  19   8 2614.16  161.63
   3 -19  -8 2092.30  160.38
  -3  19   8 2006.92  159.13
  -3  19   8 2484.62  185.78
  -3  19   7  248.81   37.13
   3  19  -7  202.95   33.68
   3 -19  -7  150.30   28.94
   3 -19  -7  244.46   33.28
  -3  19   7  222.51   31.64
   3  19  -7  182.39   23.10
  -3  19   7  167.87   30.49
  -3  19   7  231.04   42.72
  -3  19   7   98.80   21.61
   3  19  -7  154.19   28.44
  -3  19   6    6.99   10.33
   3  19  -6    4.89    7.54
  -3  19   6   39.92   15.67
   3  19  -6   14.02   11.23
   3 -19  -6   19.31   12.62
  -3  19   6    4.14   11.18
  -3  19   6    8.43   10.73
   3  19  -6   12.48    8.93
   3 -19  -6   27.45   11.68
  -3  19   5  322.26   37.78
  -3  19   5  318.07   39.27
   3  19  -5  213.58   31.19
   3 -19  -5  281.19   36.58
   3  19  -5  265.07   36.58
   3 -19  -5  236.18   31.79
  -3  19   5  245.61   35.63
   3  19  -5  244.07   28.44
  -3  19   5  240.07   40.67
  -3  19   4 1087.64   84.48
   3  19  -4  983.20   82.14
   3 -19  -4 1052.16   86.53
   3 -19  -4 1178.81   84.83
   3  19  -4 1125.57   89.27
  -3  19   4 1090.54   97.46
  -3  19   4 1016.63   87.73
   3  19  -4 1043.43   77.75
  -3  19   4 1301.12   95.11
  -3  19   3  474.91   46.26
   3  19  -3  432.94   44.46
   3 -19  -3  454.35   47.81
   3 -19  -3  502.75   46.91
  -3  19   3  426.20   49.15
  -3  19   3  463.38   56.19
  -3  19   3  561.88   56.89
   3  19  -3  388.98   40.57
   3 -19  -2 1148.47   95.31
   3 -19  -2 1230.56   95.21
   3  19  -2 1367.93   93.26
   3  19  -2 1310.90   99.05
  -3  19   2 1317.04  100.55
  -3  19   2 1343.53  110.18
  -3  19   2 1404.16  107.89
   3 -19  -2 1423.87   95.06
   3  19  -2 1121.32   88.37
   3  19  -1  568.87   33.68
  -3 -19   1  603.40   56.59
   3  19  -1  517.27   47.36
  -3  19   1  495.17   53.49
   3  19  -1  506.64   51.45
  -3  19   1  526.75   60.23
  -3  19   1  391.97   44.91
   3  19  -1  457.49   45.46
   3 -19   0  360.73   39.32
   3  19   0  335.23   27.05
   3  19   0  342.12   34.33
   3  19   0  311.38   38.87
  -3  19   0  397.56   50.30
  -3 -19   0  396.61   45.21
  -3  19   0  362.38   43.01
  -3  19   0  265.22   35.78
  -3  19  -1  391.92   51.45
   3 -19   1  349.71   39.02
   3  19   1  335.68   29.94
   3  19   1  366.97   34.63
   3 -19   1  277.20   35.03
  -3 -19  -1  414.03   46.61
  -3  19  -1  300.45   41.02
   3  19   1  349.06   40.62
  -3  19  -1  327.35   44.31
  -3  19  -1  277.60   38.42
   3 -19   1  378.55   47.01
   3 -19   2 1036.14   86.88
   3  19   2 1112.94   90.87
  -3  19  -2 1274.32  100.35
  -3 -19  -2 1376.42  102.75
  -3  19  -2 1053.86   94.26
  -3  19  -2 1370.23  111.43
   3  19   2 1268.78   82.04
  -3  19  -2  983.65   92.12
   3 -19   2 1241.04  100.25
  -3  19  -3  926.31   86.98
  -3  19  -3 1039.24   99.55
  -3 -19  -3 1069.43   91.67
  -3  19  -3 1118.63   89.62
   3  19   3  908.00   80.44
   3 -19   3  863.54   77.90
  -3  19  -3  950.81   88.08
   3  19   3 1108.40   71.76
   3 -19   3 1132.40   92.62
   3 -19   4  152.20   24.00
  -3 -19  -4  186.83   35.33
  -3  19  -4  189.32   34.63
   3  19   4  208.59   21.91
  -3  19  -4  200.35   32.64
   3 -19   4  168.32   27.65
   3 -19   4  218.42   36.68
  -3  19  -4  194.46   40.47
  -3  19  -4  161.03   33.78
  -3  19  -5  321.01   52.94
  -3  19  -5  229.79   40.67
   3  19   5  310.68   39.47
  -3 -19  -5  304.15   46.91
  -3  19  -5  271.71   45.46
   3 -19   5  298.91   44.36
  -3  19  -5  311.63   41.72
   3 -19   5  245.81   32.39
  -3  19  -6   31.04   16.32
  -3  19  -6   23.70   19.36
   3 -19   6   26.00   16.97
   3 -20  -8  435.64   54.14
  -3  20   8  566.53   71.36
  -3  20   7   17.47   14.12
   3  20  -7   23.05   15.27
   3 -20  -7   24.60   13.62
   3 -20  -7   22.95   14.07
   3  20  -7   19.06    9.33
  -3  20   7   32.14   14.77
  -3  20   7   27.20   14.97
  -3  20   7   18.46   17.12
  -3  20   6 1164.34   90.47
   3  20  -6  907.30   82.69
  -3  20   6 1252.91   91.92
   3 -20  -6  992.73   87.83
   3  20  -6  950.91   86.33
   3 -20  -6 1133.50   87.03
  -3  20   6  995.77   88.13
   3  20  -6 1086.34   77.50
  -3  20   6  964.49   97.21
  -3  20   5  817.43   68.56
  -3  20   5  854.70   72.01
   3  20  -5  709.89   64.12
   3 -20  -5  741.53   64.17
   3 -20  -5  704.70   67.12
   3  20  -5  746.57   69.11
  -3  20   5  727.56   76.90
   3  20  -5  671.12   57.04
  -3  20   5  618.57   65.57
  -3  20   4   39.72   14.27
  -3  20   4   98.65   22.95
   3 -20  -4   58.63   15.67
   3  20  -4   61.33   16.32
   3  20  -4   49.65   17.76
  -3  20   4   30.19   14.92
  -3  20   4   48.00   19.26
   3  20  -4   38.72   12.18
   3 -20  -4   63.62   17.47
  -3  20   3    9.48   10.78
  -3  20   3    5.14    8.53
   3  20  -3   11.98   11.58
   3  20  -3    7.24    9.63
   3 -20  -3   11.18    9.68
   3 -20  -3   11.88    8.23
  -3  20   3    3.59   10.18
   3  20  -3    3.39    6.94
   3 -20  -2 1187.24   97.41
   3 -20  -2 1202.76   96.46
   3  20  -2 1327.17   93.96
   3  20  -2 1296.08  100.55
  -3  20   2 1363.64  103.59
  -3  20   2 1485.45  113.97
   3 -20  -2 1388.69   96.46
   3  20  -2 1139.19   90.02
  -3  20   2 1510.30  112.28
   3  20  -1 1052.76   55.84
  -3  20   1  886.04   79.89
   3 -20  -1  828.70   74.00
   3  20  -1  950.56   72.26
  -3 -20   1 1009.50   82.89
   3  20  -1  957.95   79.64
  -3  20   1  963.34   88.52
  -3  20   1  689.13   69.56
   3  20  -1  753.50   69.21
   3 -20   0  898.17   74.80
   3  20   0  939.58   59.08
  -3 -20   0 1081.05   84.93
  -3  20   0  924.46   80.39
   3  20   0  987.19   70.71
   3  20   0  948.32   78.14
  -3  20   0 1154.51   93.51
  -3  20   0  700.96   70.76
   3  20   0  733.09   68.21
   3 -20   1 1779.47  121.41
   3  20   1 1767.14  106.74
  -3 -20  -1 1843.04  130.09
   3  20   1 1859.16  114.47
  -3  20  -1 1561.70  124.90
  -3  20  -1 1988.40  142.47
  -3  20  -1 1797.83  132.79
   3 -20   1 1479.86  115.62
   3  20   1 1655.46  122.01
  -3  20  -1 1350.12  118.86
   3 -20   1 1779.92  131.49
  -3 -20  -2 1141.88   93.46
   3 -20   2  954.75   80.34
   3  20   2 1119.08   75.55
   3  20   2 1047.07   72.96
  -3  20  -2 1089.89   92.07
  -3  20  -2 1138.74  101.85
  -3  20  -2  954.95   87.78
   3  20   2  967.83   83.83
  -3  20  -2  827.71   83.58
   3 -20   2 1219.38   96.76
   3 -20   3   94.31   25.55
   3  20   3   65.22   14.02
   3 -20   3   59.43   17.12
  -3  20  -3   62.58   22.21
  -3 -20  -3  106.09   25.15
  -3  20  -3   61.13   19.31
  -3  20  -3   72.56   26.45
   3  20   3   86.93   20.01
  -3  20  -3   55.49   19.11
   3 -20   4  424.11   43.91
   3  20   4  520.82   40.62
  -3  20  -4  477.65   65.37
  -3  20  -4  427.20   55.49
  -3  20  -4  572.51   57.93
   3  20   4  475.81   51.90
   3 -20   4  418.62   48.35
  -3  20  -4  458.79   58.53
   3 -20   4  567.72   62.43
  -3 -20  -4  576.76   63.62
  -3  20  -5 3491.62  264.47
  -3  20  -5 4535.80  287.33
  -3  20  -5 4379.36  264.97
  -3  20  -5 3844.32  272.66
   3 -20   5 4493.68  273.71
  -3  21   8  216.32   44.96
  -3  21   7   12.72   12.67
  -3  21   7    9.53   11.78
   3 -21  -7   16.97   11.33
   3 -21  -7   -1.60   10.88
  -3  21   7   48.60   17.81
  -3  21   7   14.07   16.92
  -3  21   6    5.69   10.53
   3  21  -6    7.83    9.93
   3  21  -6    3.04   11.48
   3 -21  -6    5.19   10.83
  -3  21   6   11.28   15.12
   3 -21  -6    1.50   11.48
  -3  21   6   10.78   14.12
   3  21  -6   28.99   11.88
  -3  21   6    2.15   13.12
   3 -21  -5   61.28   18.76
  -3  21   5   50.15   16.87
   3  21  -5   39.52   14.62
  -3  21   5   62.38   20.01
   3 -21  -5   73.35   17.17
   3  21  -5   73.85   20.06
   3  21  -5   63.62   14.87
  -3  21   5   63.52   22.66
  -3  21   5   73.01   19.61
  -3  21   4   22.36   11.33
  -3  21   4   33.93   14.42
   3  21  -4   41.77   14.82
   3 -21  -4   27.50   12.43
   3  21  -4   39.07   15.82
  -3  21   4   48.45   17.52
  -3  21   4    7.54   10.23
   3 -21  -4   23.05   12.28
   3  21  -4   23.20   10.63
  -3  21   3   95.91   24.45
   3  21  -3   98.75   20.61
   3 -21  -3   85.73   20.06
   3 -21  -3  102.00   20.66
   3  21  -3   95.11   23.40
  -3  21   3   66.77   19.76
  -3  21   3   73.70   24.30
   3  21  -3   76.40   16.57
   3 -21  -2  434.64   46.91
   3  21  -2  407.24   47.81
   3  21  -2  424.46   43.11
   3 -21  -2  409.79   43.41
  -3  21   2  406.24   48.85
  -3  21   2  513.03   57.24
  -3  21   2  444.72   56.04
   3  21  -2  381.09   40.47
   3  21  -1   49.65   14.22
   3 -21  -1   70.31   18.36
  -3  21   1   61.88   21.41
   3  21  -1   54.84   15.27
   3  21  -1   48.90   15.87
  -3 -21   1   55.09   17.52
  -3  21   1   49.90   17.02
  -3  21   1   57.98   15.42
   3  21   0   40.52   14.07
   3 -21   0   50.90   20.26
  -3  21   0   31.79   15.37
   3  21   0   41.27    8.28
  -3 -21   0   45.71   17.32
   3  21   0   39.02   15.67
   3 -21   0   39.97   15.27
  -3  21   0   69.81   22.80
   3  21   0   36.23   13.02
  -3  21   0   34.28   13.32
  -3  21  -1 1065.24   93.81
   3 -21   1  894.52   74.70
   3  21   1  897.97   61.03
   3 -21   1 1053.06   88.27
  -3 -21  -1 1022.47   84.88
   3  21   1 1009.40   70.31
   3 -21   1  764.33   69.86
  -3  21  -1  981.60   86.18
   3  21   1  847.32   75.55
  -3  21  -1  761.99   74.10
  -3  21  -1  820.47   78.64
   3  21   1  701.11   68.36
   3 -21   2  292.62   38.12
   3  21   2  351.50   33.68
  -3  21  -2  441.22   51.45
  -3 -21  -2  396.31   49.00
  -3  21  -2  312.18   45.16
  -3  21  -2  440.58   58.28
   3  21   2  325.95   42.52
   3 -21   2  431.14   52.45
   3  21   2  419.32   38.02
  -3  21  -2  292.42   42.52
   3  21   3   99.00   17.12
   3  21   3  109.63   18.76
  -3  21  -3   85.43   24.30
  -3 -21  -3   92.82   24.60
   3 -21   3  115.52   22.46
  -3  21  -3   83.53   22.36
  -3  21  -3  108.33   30.64
   3  21   3   76.25   19.36
  -3  21  -3   44.61   17.71
   3 -21   4   50.05   22.41
   3  21   4   71.11   17.22
  -3  21  -4   34.38   18.36
  -3  21  -4   69.66   20.21
  -3 -21  -4   42.67   20.76
  -3  21  -4   66.47   26.90
   3 -21   4   25.40   13.52
  -3  21  -4   32.44   17.96
   3  21   5  269.22   35.98
  -3  21  -5  295.81   41.72
  -3  21  -5  278.90   46.46
   3 -21   5  303.75   46.81
  -3  22   7   21.11   14.42
  -3  22   7   45.01   24.20
   3  22  -6 3723.56  263.08
  -3  22   6 5042.39  276.45
  -3  22   6 4752.81  273.11
   3 -22  -6 4045.17  270.76
   3  22  -6 3865.88  269.12
   3 -22  -6 4627.41  269.96
   3  22  -6 4359.10  257.39
  -3  22   6 3859.94  269.86
  -3  22   6 4476.96  289.33
  -3  22   5  377.85   42.86
  -3  22   5  354.85   44.71
   3  22  -5  351.60   45.26
   3  22  -5  325.65   40.22
   3 -22  -5  295.31   41.27
   3 -22  -5  348.61   40.82
  -3  22   5  303.10   42.62
  -3  22   5  296.16   47.46
   3  22  -5  297.76   34.28
  -3  22   4 1137.14   83.88
  -3  22   4  972.22   94.46
   3  22  -4  924.81   81.39
   3 -22  -4 1090.04   88.52
   3  22  -4 1020.42   88.27
   3 -22  -4 1091.78   84.38
  -3  22   4  969.08   89.07
   3  22  -4  900.86   75.40
  -3  22   4 1269.48   96.66
  -3  22   3  897.47   82.19
   3 -22  -3  870.42   78.29
   3 -22  -3  988.44   78.00
   3  22  -3  906.05   75.40
   3  22  -3 1021.92   84.18
  -3  22   3  965.13   90.87
   3  22  -3  778.01   68.76
  -3  22   3 1167.43   93.02
   3 -22  -2 3818.52  246.26
   3  22  -2 3936.24  241.27
   3 -22  -2 4309.94  245.46
   3  22  -2 3876.06  249.80
  -3  22   2 3790.03  251.55
  -3  22   2 4259.84  263.58
   3  22  -2 3224.30  234.73
   3  22  -1  185.58   30.14
   3 -22  -1  151.40   26.85
   3  22  -1  212.58   28.29
   3  22  -1  141.32   23.60
  -3  22   1  202.60   32.39
  -3  22   1  168.86   33.88
  -3  22   1  107.74   22.06
   3  22   0 1086.09   63.57
   3 -22   0  843.43   75.65
   3  22   0 1103.76   77.90
  -3  22   0  941.68   86.18
  -3 -22   0 1126.66   91.57
  -3  22   0 1163.44   98.70
  -3  22   0  752.16   75.80
   3  22   0 1063.44   86.33
   3  22   0  824.36   74.90
   3 -22   1 1962.20  131.69
   3  22   1 1909.81  112.73
   3 -22   1 1538.70  122.51
  -3  22  -1 1947.38  141.17
  -3  22  -1 1817.24  136.38
  -3  22  -1 2315.05  155.64
   3  22   1 2057.12  123.65
   3  22   1 1753.72  131.04
  -3 -22  -1 2004.17  141.32
  -3  22  -1 1364.84  124.95
   3 -22   1 2121.64  145.46
   3  22   1 1508.85  122.56
  -3  22  -2  795.37   78.99
   3 -22   2  716.83   68.51
  -3  22  -2  795.77   79.09
   3  22   2  893.73   62.53
  -3  22  -2 1002.46   93.91
   3  22   2  753.10   73.55
   3  22   2  940.68   66.97
  -3 -22  -2  896.62   83.38
  -3  22  -2  679.30   73.40
   3 -22   2 1005.90   87.78
   3  22   3  348.06   30.54
   3 -22   3  271.86   33.08
  -3  22  -3  279.50   40.52
  -3  22  -3  315.27   48.45
  -3  22  -3  313.63   40.52
   3  22   3  286.43   37.03
  -3 -22  -3  323.06   44.06
  -3  22  -3  277.30   39.67
   3  22   3  332.24   29.14
   3 -22   3  302.45   44.16
   3  22   4  711.29   59.03
  -3  22  -4  795.07   71.61
   3 -22   4  533.49   58.78
  -3  22  -4  771.27   83.93
  -3  22  -4  585.24   68.71
  -3  22  -4  598.06   69.76
   3 -22   4  750.96   76.50
   3  22   5  676.41   61.78
   3 -23  -6   22.85   15.27
  -3  23   6   37.08   16.32
  -3  23   6   24.55   17.91
   3  23  -6   34.23   13.27
   3 -23  -6   28.09   12.92
  -3  23   6   17.76   16.92
  -3  23   6   13.42   14.07
  -3  23   5  136.88   29.19
  -3  23   5  133.29   25.25
   3  23  -5  111.38   23.65
  -3  23   5  154.99   30.24
   3 -23  -5  158.44   26.70
   3 -23  -5  145.31   29.34
  -3  23   5   91.12   28.79
   3  23  -5   98.21   19.56
   3  23  -5  136.93   27.70
  -3  23   4 2437.01  151.25
   3 -23  -4 2093.74  154.04
   3  23  -4 2095.94  150.00
  -3  23   4 2027.87  156.94
   3 -23  -4 2467.50  154.59
  -3  23   4 2194.14  165.42
   3  23  -4 1964.15  142.27
  -3  23   4 2527.33  164.97
   3  23  -3  559.39   59.23
   3 -23  -3  504.40   55.24
   3  23  -3  501.75   52.35
   3 -23  -3  578.50   55.09
  -3  23   3  522.36   63.62
   3  23  -3  481.34   48.15
  -3  23   3  619.72   64.92
  -3  23   3  546.47   60.08
  -3  23   2   59.63   22.26
   3  23  -2   22.36   14.22
   3 -23  -2   33.18   15.37
   3  23  -2   72.26   20.76
  -3  23   2   45.96   16.87
  -3  23   2   34.33   17.57
   3  23  -2   28.29   12.08
   3  23  -1 1907.61  114.02
  -3  23   1 1727.92  124.30
  -3  23   1 1221.62  106.54
   3  23  -1 1470.48  108.63
   3  23   0 1371.68   76.30
   3 -23   0  986.09   88.72
  -3  23   0 1252.66  103.74
   3  23   0 1360.75   92.22
   3  23   0 1283.05  101.85
  -3  23   0 1267.33  107.64
  -3  23   0  957.50   90.72
   3  23   0 1028.31   89.27
  -3 -23   0 1378.76  106.79
   3  23   1 1131.05   69.36
   3 -23   1  626.41   70.86
   3  23   1 1181.35   91.17
   3 -23   1 1058.05   82.34
  -3  23  -1 1050.61   91.77
  -3  23  -1 1181.65   96.86
  -3  23  -1  868.73   82.79
  -3 -23  -1 1349.82  101.50
  -3  23  -1 1259.85  106.44
   3  23   1  888.59   78.94
   3 -23   1 1317.68  102.50
   3 -23   2    7.63   16.17
   3 -23   2   53.19   16.07
   3 -23   2    0.95    2.35
   3  23   2   14.67    8.18
  -3 -23  -2    3.64   13.52
  -3  23  -2   13.87   13.22
   3  23   2   10.58   11.78
  -3  23  -2   -3.54   12.77
   3  23   2    7.14    9.08
  -3  23  -2   -3.24    9.48
   3  23   3 2700.69  162.78
   3  23   3 2387.71  175.55
  -3 -23  -3 2738.91  189.37
  -3  23  -3 2389.16  182.29
  -3  23  -3 2843.51  200.50
  -3  23  -3 2708.52  183.14
   3 -23   3 2135.11  167.67
  -3  23  -3 2189.35  178.00
   3  23   3 2923.45  165.12
   3 -23   3 3017.16  193.96
   3  23   4    2.94    9.23
   3 -23   4    7.88    9.73
  -3  23  -4    1.95   12.03
  -3  24   6   77.80   21.26
  -3  24   5  330.79   40.07
  -3  24   5  380.49   47.66
   3 -24  -5  298.06   39.37
  -3  24   5  252.60   41.42
   3  24  -5  266.77   33.73
  -3  24   5  285.33   46.61
   3 -24  -4  483.24   55.99
   3  24  -4  493.32   53.79
   3 -24  -4  544.12   55.89
  -3  24   4  500.31   59.53
   3  24  -4  525.71   59.63
  -3  24   4  482.79   62.18
   3  24  -4  490.23   49.35
  -3  24   4  672.27   67.27
  -3  24   4  598.01   54.69
   3 -24  -3  318.72   43.11
  -3  24   3  325.30   45.96
  -3  24   3  407.64   53.74
   3  24  -3  351.45   42.12
   3 -24  -3  363.58   42.52
   3  24  -3  365.42   47.21
   3  24  -3  305.44   36.88
  -3  24   3  411.03   52.50
  -3  24   2   17.37   16.77
   3 -24  -2    8.73   11.08
   3  24  -2   22.31   13.82
   3  24  -2   23.55   12.28
  -3  24   2   27.50   17.07
  -3  24   2    7.78   13.67
   3  24  -2    2.10    8.53
   3 -24  -1  437.48   49.75
   3  24  -1  502.15   47.26
  -3  24   1  391.22   51.10
   3  24  -1  484.84   53.24
   3  24  -1  378.20   43.01
  -3  24   1  352.65   42.91
   3  24   0    9.43   10.83
  -3 -24   0    1.70   10.93
   3 -24   0    5.89    9.38
   3  24   0   12.43   13.22
  -3  24   0   17.22   13.42
  -3  24   0   24.25   17.96
  -3  24   0   12.03    9.38
   3  24   1   38.32   15.12
  -3 -24  -1   61.03   22.21
   3 -24   1   45.91   14.12
   3 -24   1   36.93   13.72
   3  24   1   46.16   17.76
  -3  24  -1   61.63   22.41
   3  24   1   80.34   17.66
  -3  24  -1   38.77   16.47
   3 -24   2  203.75   38.47
   3  24   2  179.49   25.25
  -3 -24  -2  168.67   33.58
  -3  24  -2  138.57   31.04
  -3  24  -2  174.70   37.43
  -3  24  -2  142.47   30.74
   3  24   2  158.49   29.54
  -3  24  -2  101.80   26.25
   3 -24   2  121.06   24.55
   3 -24   3  102.40   22.70
  -3  24  -3  104.39   28.44
   3 -24   4   -2.64    9.08
  -3  24  -4    5.94   10.08
  -3  25   5  180.04   29.64
   3  25  -5  177.70   27.05
   3 -25  -4 2222.49  147.16
  -3  25   4 1993.19  152.15
   3  25  -4 1904.37  135.48
   3 -25  -3  142.47   26.05
  -3  25   3  137.78   31.94
   3 -25  -3  132.39   27.74
   3  25  -3  100.15   23.05
   3  25  -3  149.95   30.59
  -3  25   3  113.18   27.25
  -3  25   3  146.01   32.29
   3  25  -3  115.17   22.41
   3 -25  -2  864.68   78.39
  -3  25   2  801.11   80.49
   3  25  -2  878.96   73.45
  -3  25   2 1054.66   91.82
   3  25  -2  711.74   66.82
  -3  25   2  855.45   85.28
   3 -25  -1  279.69   39.07
  -3  25   1  254.25   39.57
   3  25  -1  228.65   32.59
   3  25  -1  286.53   40.57
  -3  25   1  260.23   43.46
   3  25  -1  202.00   30.29
  -3  25   1  170.81   28.34
   3  25   0 1416.79   94.36
  -3  25   0 1217.53  104.04
  -3  25   0 1368.78  110.68
  -3 -25   0 1400.92  109.43
   3  25   0 1071.12   90.42
   3  25   0 1303.91  103.39
   3 -25   1  659.04   62.97
   3  25   1  744.27   72.06
  -3  25  -1  718.02   74.85
   3  25   1  857.30   65.22
  -3  25  -1  576.41   64.62
  -3  25  -2  718.37   76.65
   3 -25   2  753.70   71.11
   3 -25   3  490.73   52.50
  -3  25  -3  528.95   61.08
  -3  26   5   19.41   13.22
   3  26  -5    9.98   10.18
   3  26  -4   13.47   11.48
   3  26  -3   28.44   13.07
  -3  26   3   40.32   19.06
   3  26  -2  624.36   58.43
   3  26  -2  507.34   52.20
  -3  26   2  539.53   63.27
  -3  26   1   14.62   12.43
   3  26  -1    4.79   10.83
  -3  26   0  177.55   34.68
   3  26   0  207.24   30.14
  -3  26   0  135.18   26.70
   3 -26   1  567.07   54.59
  -3  26  -1  451.65   53.84
  -3  26  -2  666.28   71.56
   3 -26   2  806.10   69.31
  -3  26  -3   65.92   22.11
   3  27  -1    3.79   10.48
   3  27   0  442.42   46.36
   3 -27   0  334.34   41.97
   3 -27   1  260.38   36.83
   3  27   1  332.19   38.07
  -4   0  11   30.04   30.94
   4   0 -11   25.90   12.77
   4   0 -11   17.17   11.73
  -4   0  10  535.59   84.18
   4   0 -10  392.22   47.61
   4   0 -10  519.77   50.65
   4   0 -10  508.69   46.71
   4   0  -9   35.88   12.82
  -4   0   9   61.88   27.10
   4   0  -9   62.33   14.92
   4   0  -9   39.57   11.93
  -4   0   8 4743.73  299.36
   4   0  -8 4619.78  261.58
   4   0  -8 3867.22  261.68
   4   0  -8 4422.52  256.49
   4   0  -7  691.13   61.78
   4   0  -7  809.24   59.93
   4   0  -7  799.76   57.24
  -4   0   6  708.44   67.07
   4   0  -6  679.75   49.20
   4   0  -6  617.12   46.41
  -4   0   5  916.38   72.36
   4   0  -5  731.10   58.53
   4   0  -5  788.19   53.94
   4   0  -5  825.86   47.66
   4   0  -5  758.10   52.45
  -4   0   4 5470.59  340.87
   4   0  -4 5705.87  334.24
  -4   0   4 5447.24  326.20
   4   0  -4 5789.46  332.99
   4   0  -4 5848.14  324.46
   4   0  -4 6292.56  325.75
   4   0  -4 5884.12  325.90
   4   0  -3    1.85    4.69
   4   0  -3    8.08    2.20
  -4   0   3    6.14    4.99
  -4   0   3    5.14    3.84
   4   0  -3    4.64    2.99
   4   0  -3    2.84    3.49
   4   0  -2 5166.99  298.91
   4   0  -2 5163.15  293.57
  -4   0   2 5006.16  297.71
   4   0  -2 4956.56  293.77
  -4   0   2 5785.91  298.71
  -4   0   1 5331.72  317.77
   4   0  -1 5321.79  308.84
  -4   0   1 6232.28  313.78
   4   0  -1 5238.90  313.73
   4   0   0 5675.48  268.32
  -4   0   0 5095.04  272.71
  -4   0   0 5861.02  263.03
   4   0   0 5137.65  258.39
  -4   0   0 5123.18  260.08
   4   0   1 2242.65  126.25
  -4   0  -1 2222.74  128.79
  -4   0  -1 2220.34  135.33
   4   0   1 2335.61  137.43
   4   0   1 2143.99  134.38
  -4   0  -2 1348.97   82.39
   4   0   2 1534.05   94.81
   4   0   2 1436.15   92.47
  -4   0  -2 1490.29   96.41
  -4   0  -3 7988.94  460.29
   4   0   3 7956.65  454.35
   4   0   4  368.17   36.23
  -4   0  -4  388.63   48.55
  -4   0  -4  276.80   19.96
  -4   0  -4  346.41   38.77
   4   0   4  369.52   35.13
  -4   0  -5 2982.98  179.74
   4   0   5 2389.91  147.91
  -4   0  -5 2832.68  163.23
   4   0   5 2638.71  150.25
  -4   0  -6   17.02   14.92
   4   0   6   28.14   10.93
  -4   0  -6   11.38    3.54
  -4   0  -6    4.74    8.13
   4   0   6   11.03    8.43
  -4   0  -7 2201.38  158.64
  -4   0  -7 2078.37  146.66
   4   0   7 1904.42  131.44
   4   0   8   45.41   15.27
  -4   0  -8   44.81   21.51
   4  -1 -11  297.71   40.77
  -4  -1  11  344.87   73.55
  -4   1  11  303.65   71.31
   4   1 -11  237.18   36.53
   4  -1 -11  348.01   41.87
   4   1 -11  335.33   41.02
  -4  -1  10 1173.97  125.95
  -4   1  10 1123.47  123.70
   4  -1 -10  782.00   76.05
   4   1 -10  852.21   77.55
   4  -1 -10  968.83   78.49
   4   1 -10 1059.45   80.24
   4   1 -10  981.25   74.85
  -4  -1   9   67.27   27.84
  -4   1   9   38.27   23.65
   4  -1  -9   57.74   14.62
   4  -1  -9   59.43   16.27
   4   1  -9   78.39   16.67
   4   1  -9   34.23   13.77
   4  -1  -9   44.46   12.82
   4   1  -9   70.66   15.22
  -4  -1   8  289.58   47.81
  -4   1   8  309.29   49.75
   4  -1  -8  205.24   29.19
   4   1  -8  215.92   29.99
   4   1  -8  279.99   30.59
   4  -1  -8  232.54   28.54
   4  -1  -8  247.51   26.65
   4   1  -8  238.18   27.25
  -4  -1   7   61.08   20.36
  -4   1   7   72.21   22.56
   4  -1  -7   74.10   13.47
   4   1  -7   57.19   12.18
   4  -1  -7   36.23   11.58
   4  -1  -7   51.70   10.43
   4   1  -7   47.51   10.48
   4   1  -7   46.41   12.77
  -4  -1   6  534.79   55.14
  -4   1   6  515.48   55.34
   4   1  -6  471.81   37.87
   4  -1  -6  477.30   37.82
   4  -1  -6  411.98   34.18
   4   1  -6  433.24   35.68
  -4  -1   5   82.44   17.96
  -4   1   5   80.94   18.76
   4  -1  -5   70.66   14.47
   4   1  -5   70.16   13.32
  -4   1   5   73.20    8.53
   4   1  -5   72.81   10.68
   4  -1  -5   80.44   11.13
   4   1  -5   73.01   10.93
   4   1  -5   69.76    6.64
   4  -1  -5   66.82    9.28
   4  -1  -5   75.40    7.93
  -4  -1   4  872.72   48.15
  -4   1   4  851.46   49.95
   4   1  -4  776.71   37.58
   4  -1  -4  786.44   39.92
   4   1  -4  788.83   37.58
   4  -1  -4  716.03   35.53
  -4   1   4  762.24   30.09
   4   1  -4  808.35   24.30
   4  -1  -4  782.30   25.70
   4   1  -4  800.06   27.15
   4  -1  -4  757.05   24.00
   4  -1  -4  795.62   26.40
   4   1  -4  795.57   29.74
   4   1  -3  230.89   23.10
   4  -1  -3  220.26   23.65
   4  -1  -3  197.81   18.26
   4   1  -3  182.94   19.81
   4  -1  -3  202.55   20.61
  -4   1   3  214.08   20.91
  -4   1   3  218.42   23.15
   4  -1  -3  181.74   13.82
   4   1  -3  200.70   14.72
   4   1  -3  192.27   17.57
   4  -1  -2  716.28   51.90
   4  -1  -2  667.67   46.86
   4   1  -2  632.94   45.81
  -4   1   2  678.55   51.05
   4   1  -2  699.71   47.66
  -4   1   2  684.04   50.25
   4  -1  -2  653.35   47.31
   4   1  -2  738.33   51.30
   4   1  -1   49.30    7.68
  -4  -1   1   49.90    5.29
   4  -1  -1   69.96   11.08
  -4  -1   1   44.46    8.48
   4   1  -1   63.22   10.53
  -4   1   1   49.90   11.23
   4  -1  -1   66.02    9.13
  -4   1   1   60.58   10.38
   4   1   0   58.43   10.23
  -4  -1   0   57.74    8.18
  -4   1   0   53.24   11.83
   4  -1   0   80.79   12.13
   4   1   0   35.33    8.78
   4  -1   0   10.53    5.79
   4  -1   0   79.49    8.63
  -4   1   0   57.64    7.98
  -4   1   0   47.11    8.58
   4   1   0   51.50    6.59
  -4  -1   0   53.64    7.68
   4   1   1 1843.29  110.03
  -4   1  -1 1768.49  105.14
   4  -1   1 1801.77  101.10
   4   1   1 1762.70   98.70
  -4  -1  -1 1803.07  109.43
  -4   1  -1 1821.18  109.23
   4  -1   1 1730.31  107.99
   4  -1   1 1810.56  111.28
  -4  -1  -1 1599.38   99.70
  -4  -1  -2  338.83   28.34
  -4   1  -2  330.84   30.19
   4   1   2  316.07   24.85
   4  -1   2  332.34   26.50
  -4   1  -2  314.97   27.05
   4  -1   2  346.91   25.65
  -4   1  -2  313.18   18.86
   4   1   3  268.42   28.69
  -4  -1  -3  310.33   34.03
  -4   1  -3  273.31   31.69
  -4   1  -3  231.74   22.80
   4  -1   3  284.09   29.29
   4   1   4  138.13   21.86
   4  -1   4  131.84   21.11
  -4   1  -4  176.50   32.19
  -4   1  -4  139.42   17.17
  -4  -1  -4  153.84   25.40
  -4   1  -4  132.04   23.20
  -4  -1  -4  171.51   33.13
   4   1   4  132.39   20.71
   4  -1   4  130.94   20.36
  -4  -1  -5 1489.84  112.43
  -4   1  -5 1408.30  108.14
   4   1   5 1079.86   82.54
  -4  -1  -5 1364.54   96.91
  -4   1  -5 1297.82   94.46
  -4   1  -5  907.15   66.02
   4  -1   5 1086.99   82.74
   4   1   5 1192.98   84.18
   4  -1   5 1245.28   85.13
  -4   1  -6  136.78   15.32
  -4  -1  -6  221.21   41.47
   4  -1   6  178.89   26.05
  -4  -1  -6  269.96   38.37
  -4   1  -6  199.85   32.69
   4   1   6  156.29   24.85
   4   1   6  192.82   27.55
   4  -1   6  174.40   26.60
  -4   1  -6  199.50   38.52
  -4  -1  -7  160.33   35.98
  -4  -1  -7  161.83   31.99
   4   1   7  117.07   21.91
   4  -1   7  106.84   21.06
  -4   1  -7  165.22   31.69
  -4   1  -7  137.63   33.83
   4   1   7  117.92   23.55
   4  -1   7  104.44   22.21
   4   1   8  128.99   24.15
   4  -1   8  117.92   23.45
  -4  -1  -8  182.14   37.48
   4   2 -11  239.67   34.83
   4  -2 -11  193.22   32.88
   4  -2 -11  262.18   36.73
  -4   2  11  304.75   68.36
   4   2 -11  199.35   33.03
   4   2 -11  252.05   33.33
  -4  -2  10   32.14   27.15
  -4   2  10   17.91   25.15
   4  -2 -10   14.37   11.18
   4   2 -10   19.91   10.93
   4  -2 -10    5.29   10.78
   4   2 -10   -1.30    8.98
   4   2 -10    3.04    7.78
  -4  -2   9  118.12   36.78
  -4   2   9  116.67   36.58
   4  -2  -9  123.01   21.21
   4   2  -9  115.87   20.56
   4  -2  -9   88.92   19.66
   4   2  -9   98.90   18.16
   4   2  -9   96.11   20.21
  -4  -2   8 2277.48  164.37
  -4   2   8 2151.28  162.33
   4  -2  -8 1728.32  129.54
   4  -2  -8 1999.48  123.85
   4   2  -8 1713.00  129.64
   4   2  -8 2094.79  129.24
   4  -2  -8 2062.56  129.09
   4   2  -8 1884.71  124.55
  -4  -2   7  362.03   48.00
  -4   2   7  339.53   47.71
   4  -2  -7  284.49   33.03
   4  -2  -7  326.70   28.64
   4   2  -7  271.81   32.64
   4  -2  -7  325.90   31.74
   4   2  -7  349.01   32.54
   4   2  -7  280.34   29.04
  -4  -2   6   33.68   14.77
  -4   2   6   21.91   13.92
  -4   2   6   21.61    3.99
   4  -2  -6   14.47    8.08
   4  -2  -6   28.09    8.43
   4   2  -6   25.10    8.13
   4  -2  -6   39.02    7.78
   4   2  -6   28.84    7.98
  -4  -2   5  582.24   52.35
  -4   2   5  643.87   57.89
   4  -2  -5  542.47   45.96
   4   2  -5  543.42   43.01
  -4   2   5  500.46   36.73
   4  -2  -5  580.45   39.82
   4  -2  -5  568.22   35.48
   4   2  -5  528.35   32.04
   4  -2  -5  497.31   35.98
   4   2  -5  492.57   39.57
  -4   2   4 2012.90   78.00
   4   2  -4 1898.43   57.19
   4  -2  -4 1959.06   64.47
   4  -2  -4 1842.89   58.08
  -4   2   4 1937.95   51.35
   4   2  -4 2060.41   38.02
   4  -2  -4 1934.91   40.87
   4   2  -4 1869.49   57.04
   4  -2  -4 1979.52   43.66
   4  -2  -4 1932.96   33.83
  -4  -2   4 1871.34   69.66
   4   2  -3   27.35    7.24
  -4   2   3   21.71    7.24
   4   2  -3   17.27    7.09
   4  -2  -3   17.81    7.58
   4  -2  -3   50.40    9.43
   4   2  -3   32.93    5.24
  -4   2   3   26.80    7.19
   4   2  -3   21.96    5.59
   4  -2  -3   21.11    3.69
   4  -2  -3   23.00    6.04
   4  -2  -2   58.23   11.33
   4   2  -2   51.50    8.58
   4  -2  -2   44.56    8.83
  -4   2   2   49.80   10.63
   4  -2  -2   79.54   10.88
   4   2  -2   46.36    4.79
   4   2  -2   52.99    9.38
  -4   2   2   41.27    9.58
  -4  -2   1  166.32   13.47
   4   2  -1  153.64   14.77
  -4   2   1  215.92   20.71
  -4   2   1  176.75   21.51
   4   2  -1  158.14   18.31
   4  -2  -1  161.63   18.46
   4   2  -1  164.47   12.13
   4  -2  -1  186.93   17.17
   4  -2   0  396.21   19.31
  -4   2   0  405.94   25.35
  -4   2   0  411.73   31.29
   4  -2   0  444.02   28.34
  -4  -2   0  402.20   20.96
  -4   2   0  404.50   20.36
   4  -2   0  379.90   21.11
   4   2   0  402.50   16.02
   4   2   0  411.33   24.10
  -4  -2  -1  812.39   53.89
   4   2   1  643.92   41.37
   4  -2   1  794.92   46.36
   4   2   1  771.02   52.30
  -4   2  -1  780.05   52.94
   4  -2   1  796.67   52.25
   4  -2   1  803.80   55.54
  -4   2  -1  723.41   51.05
  -4   2  -2  978.51   47.21
  -4   2  -2 1001.36   52.99
   4  -2   2  873.12   43.31
  -4  -2  -2  945.97   47.61
  -4   2  -2  825.06   36.93
   4  -2   2  872.22   40.12
  -4   2  -3  188.73   22.36
  -4   2  -3  242.22   29.54
  -4  -2  -3  226.60   29.04
  -4   2  -3  234.04   28.79
   4   2   3  183.14   23.70
   4  -2   3  234.23   25.75
   4  -2   4   17.66    8.68
  -4   2  -4   -1.65   10.38
  -4  -2  -4    1.85   13.92
  -4  -2  -4   14.62    9.03
   4   2   4    2.74    6.04
  -4   2  -4   12.33    6.99
  -4   2  -4    5.59    6.64
   4   2   4   10.43    7.24
   4  -2   4   -0.85    6.14
  -4   2  -5    6.24    7.09
  -4  -2  -5    4.14   14.92
   4  -2   5   15.97    8.53
  -4   2  -5    3.69   13.72
   4   2   5   12.87    8.28
  -4  -2  -5   18.71   12.48
  -4   2  -5   17.17   11.48
   4   2   5    3.94    7.88
   4  -2   5   12.67    8.78
  -4  -2  -6  403.80   56.74
  -4   2  -6  272.86   26.05
  -4  -2  -6  455.70   51.55
  -4   2  -6  414.88   54.49
   4   2   6  281.69   35.63
  -4   2  -6  340.57   39.82
   4  -2   6  322.31   37.08
  -4   2  -6  398.41   46.91
   4   2   6  379.70   40.27
   4  -2   6  397.36   41.07
  -4  -2  -7 1123.82  103.84
  -4  -2  -7 1135.25   95.76
  -4   2  -7  993.98   96.56
   4  -2   7  877.46   75.30
   4   2   7  726.71   71.76
   4   2   7  955.80   79.29
   4  -2   7 1034.70   81.29
  -4   2  -7 1084.25   91.97
  -4  -2  -8   36.13   20.51
   4   2   8   19.81   11.68
  -4   2  -8   55.94   23.10
  -4  -3  12  190.07   60.08
   4   3 -11   44.91   16.37
  -4  -3  11   93.56   39.92
  -4   3  11   74.95   38.27
   4  -3 -11   50.55   17.57
   4  -3 -11   79.99   21.11
   4   3 -11   75.40   20.51
   4   3 -11   80.49   19.71
  -4  -3  10 3581.99  258.49
  -4   3  10 3480.09  257.54
   4  -3 -10 2664.11  198.71
   4   3 -10 3288.77  200.90
   4   3 -10 2642.35  198.86
   4  -3 -10 3499.05  203.80
   4   3 -10 3300.10  198.31
   4   3  -9   19.26   10.73
  -4  -3   9   16.82   17.86
  -4   3   9   31.64   22.46
   4  -3  -9    9.63    8.78
   4  -3  -9   49.70   14.27
   4   3  -9   22.46   10.18
   4   3  -9   33.08   11.33
   4   3  -8   14.82    9.63
  -4  -3   8   64.22   24.50
  -4   3   8   50.90   22.01
   4   3  -8   48.80   12.77
   4  -3  -8   42.02   13.52
   4  -3  -8   65.27   14.37
   4   3  -8   58.58   14.27
  -4  -3   7  732.35   72.36
  -4   3   7  758.24   75.75
   4  -3  -7  639.53   56.74
   4  -3  -7  760.69   55.04
   4   3  -7  554.65   54.19
   4   3  -7  738.33   54.99
   4   3  -7  652.31   52.25
  -4  -3   6 5641.15  351.40
  -4   3   6 6247.65  361.13
  -4   3   6 5340.85  325.25
   4  -3  -6 5279.62  337.68
   4  -3  -6 6361.82  334.29
   4  -3  -6 6454.89  329.30
   4   3  -6 5809.37  333.54
  -4  -3   5 1033.15   80.04
  -4   3   5 1214.54   89.92
   4  -3  -5  980.45   75.05
   4   3  -5 1100.17   71.56
  -4   3   5 1006.25   67.72
   4   3  -5 1003.51   60.33
   4  -3  -5 1140.29   68.96
   4   3  -5  962.49   72.91
   4  -3  -5 1046.37   64.42
   4   3  -5 1020.87   69.91
   4  -3  -5 1182.70   65.52
  -4   3   4  322.31   33.88
   4  -3  -4  281.74   25.70
   4   3  -4  316.22   25.70
   4  -3  -4  317.97   21.91
   4   3  -4  319.07   19.21
   4  -3  -4  306.89   20.26
   4   3  -4  275.35   25.25
   4  -3  -4  295.31   16.52
  -4   3   4  281.24   24.10
   4   3  -3 4083.14  206.64
   4   3  -3 4287.49  201.90
   4   3  -3 4022.17  198.31
  -4   3   3 4048.61  208.74
   4   3  -3 4181.25  205.54
   4  -3  -3 4232.45  195.86
  -4   3   3 4466.63  212.88
   4  -3  -3 4070.87  203.20
   4  -3  -3 3521.66  192.52
   4  -3  -3 3994.07  206.34
   4   3  -2 3027.69  167.52
   4   3  -2 3067.36  165.67
  -4   3   2 2908.08  171.86
  -4   3   2 2814.26  172.31
   4  -3  -2 2690.16  166.37
   4   3  -2 2741.11  159.18
   4  -3  -2 2851.49  158.39
   4  -3  -2 2782.83  166.97
  -4   3   1  487.83   38.87
  -4  -3   1  465.53   31.29
   4   3  -1  469.82   37.08
  -4   3   1  469.12   40.47
   4   3  -1  446.31   31.29
  -4   3   1  433.29   28.39
   4  -3  -1  433.79   36.13
   4   3  -1  443.17   28.89
   4  -3  -1  432.84   33.48
   4  -3  -1  467.87   30.79
   4   3  -1  481.34   33.78
  -4   3   0 1044.73   71.21
  -4  -3   0 1022.32   61.33
   4  -3   0 1169.23   68.71
   4  -3   0  987.04   59.73
   4   3   0 1063.64   62.73
   4   3   0 1041.88   57.93
   4  -3   0 1094.63   61.33
  -4   3   0 1035.00   66.92
   4   3   0 1036.19   56.04
   4  -3   1 6066.46  332.59
   4   3   1 6212.72  338.53
  -4  -3  -1 5724.69  339.43
   4  -3   1 6018.90  337.78
  -4   3  -1 5686.46  340.32
   4  -3   1 5833.77  342.12
  -4   3  -2  156.59   21.31
   4  -3   2  167.42   19.96
  -4  -3  -2  185.53   21.76
  -4   3  -2  145.31   19.06
  -4   3  -2  130.89   17.47
   4  -3   2  180.29   18.96
  -4   3  -3 1744.74  111.13
   4  -3   3 1473.42  103.54
  -4   3  -3 1469.53  104.14
  -4  -3  -3 1679.82  111.08
  -4   3  -3 1563.65  107.54
   4   3   3 1426.37  102.15
   4  -3   3 1576.32  103.00
  -4  -3  -4  233.59   39.87
  -4   3  -4  241.47   30.99
   4   3   4  209.68   27.20
  -4   3  -4  223.96   29.74
   4  -3   4  150.45   24.25
  -4  -3  -4  254.74   33.73
  -4   3  -4  207.39   34.63
  -4   3  -4  205.29   29.14
   4   3   4  209.04   26.55
   4  -3   4  233.54   27.50
  -4   3  -5 2795.10  180.84
   4   3   5 1970.19  152.70
  -4   3  -5 2427.98  164.47
  -4   3  -5 2427.68  164.62
  -4  -3  -5 2869.20  174.05
   4   3   5 2312.76  156.29
   4  -3   5 2699.44  159.58
   4  -3   5 2198.74  155.24
  -4  -3  -5 2857.48  188.23
  -4   3  -6  329.00   42.02
  -4   3  -6  267.52   38.47
   4   3   6  249.31   32.39
  -4   3  -6  313.68   46.56
   4  -3   6  262.28   33.18
   4   3   6  297.96   35.58
   4  -3   6  315.42   36.33
  -4  -3  -6  357.19   46.11
  -4  -3  -6  384.49   54.34
  -4   3  -6  211.93   23.25
  -4   3  -7 2437.36  179.59
   4   3   7 1920.64  151.85
  -4  -3  -7 2992.81  184.48
  -4   3  -7 2575.44  173.66
   4   3   7 2263.36  158.49
   4  -3   7 2656.18  163.33
   4  -3   7 2129.32  154.44
  -4  -3  -7 2828.29  192.37
  -4   3  -8   67.52   23.75
   4   3   8   33.88   13.22
   4  -3   8   39.27   14.62
   4   4 -11   81.04   21.51
  -4   4  11  130.49   47.85
   4  -4 -11   89.67   22.11
   4  -4 -11  108.14   25.05
   4   4 -11  119.81   23.00
   4   4 -11   81.29   21.41
   4  -4 -10 1800.48  143.81
  -4  -4  10 2358.82  193.07
  -4   4  10 2516.30  199.90
   4   4 -10 1805.42  144.36
   4  -4 -10 2426.83  150.00
   4   4 -10 2234.81  146.51
   4   4 -10 2253.73  144.26
   4   4  -9   18.06   10.28
  -4  -4   9    5.39   17.17
  -4   4   9    2.84   15.97
   4  -4  -9   20.11   10.53
   4   4  -9    7.58    6.89
   4  -4  -9   18.11   10.28
  -4  -4   8  809.94   81.79
  -4   4   8  719.42   79.99
   4  -4  -8  632.00   58.48
   4  -4  -8  753.85   58.28
   4   4  -8  569.67   56.44
   4   4  -8  705.45   57.39
   4   4  -8  647.41   54.59
   4  -4  -7  789.73   56.84
  -4  -4   7  772.92   72.81
  -4   4   7  832.35   79.29
   4  -4  -7  699.96   59.38
  -4   4   7  649.66   45.56
   4   4  -7  667.13   58.08
   4   4  -7  712.93   55.09
  -4  -4   6 1947.18  130.19
  -4   4   6 2090.80  139.67
   4  -4  -6 1681.76  117.82
   4  -4  -6 2034.21  114.77
  -4   4   6 1575.77  108.48
   4   4  -6 1819.04  114.47
  -4  -4   5  845.57   49.00
  -4   4   5  851.41   58.43
   4   4  -5  778.55   35.13
  -4   4   5  782.85   36.33
   4   4  -5  810.69   18.61
   4   4  -5  735.79   40.12
   4   4  -5  832.85   37.78
   4  -4  -5  873.72   34.63
   4  -4  -5  921.12   30.59
  -4   4   4  166.12   18.01
  -4   4   4  200.80   25.60
   4   4  -4  166.02   16.12
   4   4  -4  195.76   12.87
   4  -4  -4  185.83   13.42
   4  -4  -4  187.28   15.47
   4   4  -4  155.09   17.22
   4   4  -3  572.66   40.32
   4  -4  -3  539.48   33.03
   4   4  -3  532.24   36.93
   4   4  -3  546.76   35.63
  -4   4   3  546.66   43.21
  -4   4   3  542.07   35.18
   4   4  -3  515.43   39.17
   4  -4  -3  479.95   39.62
   4  -4  -3  539.93   38.42
  -4   4   2  473.51   39.37
   4   4  -2  444.97   34.63
  -4   4   2  444.87   39.62
   4   4  -2  435.73   29.29
   4  -4  -2  417.52   34.48
  -4   4   2  426.20   28.39
   4  -4  -2  412.48   34.58
   4   4  -2  435.59   32.74
   4   4  -1   14.67    4.14
   4   4  -1   26.75    5.84
   4   4  -1   19.21    6.34
  -4   4   1   16.17    3.69
  -4  -4   1   19.66    5.14
  -4   4   1   39.27   10.13
   4   4  -1   15.57    4.04
   4  -4  -1   45.41    8.08
  -4   4   1   33.03    9.73
   4  -4  -1   15.82    3.99
   4   4   0  137.98   10.38
  -4   4   0  135.83   19.46
   4  -4   0  146.71   14.22
  -4  -4   0  139.37   14.92
   4   4   0  160.83   15.02
   4   4   0  148.95   12.87
   4  -4   0  140.12   13.82
  -4   4   0  121.51   17.42
   4  -4   1  282.64   29.04
   4  -4   1  284.04   22.95
  -4  -4  -1  279.15   27.74
   4   4   1  270.91   23.55
  -4   4  -1  260.78   29.09
   4  -4   1  297.61   26.20
  -4   4  -2  542.97   44.86
   4  -4   2  500.56   40.37
  -4  -4  -2  602.05   44.31
  -4   4  -2  501.16   42.02
   4  -4   2  613.33   39.92
   4  -4   3   92.22   16.82
  -4   4  -3  121.16   21.06
  -4  -4  -3  120.56   20.61
  -4   4  -3   87.43   18.06
   4  -4   3   79.44   15.07
  -4  -4  -4    7.73   11.38
   4   4   4    3.74    5.99
  -4   4  -4   11.98    7.63
   4  -4   4    7.73    6.99
  -4   4  -4    6.54    8.63
  -4  -4  -4   12.92   10.33
  -4   4  -4    6.79    6.39
   4   4   4    1.80    4.59
   4  -4   4    4.34    7.09
   4   4   5  243.77   32.98
  -4   4  -5  341.32   44.21
   4  -4   5  325.95   36.88
  -4  -4  -5  363.73   44.91
  -4   4  -5  320.21   40.27
   4   4   5  311.48   36.13
   4  -4   5  352.35   37.53
  -4  -4  -5  389.78   54.24
   4  -4   6   64.67   16.32
   4   4   6   60.88   16.07
  -4   4  -6   58.08   19.26
  -4  -4  -6  109.78   26.55
  -4   4  -6   70.31   20.06
  -4  -4  -6   99.25   30.19
   4   4   6   79.64   18.31
   4  -4   6  101.75   20.71
   4  -4   7  291.37   36.68
   4   4   7  258.44   35.23
  -4   4  -7  365.47   47.76
   4  -4   7  325.35   40.17
  -4  -4  -7  335.58   54.64
   4   4   8   31.89   12.67
   4  -4   8   32.14   13.37
  -4  -5  11    3.69   23.45
   4  -5 -11    2.94    8.23
   4  -5 -11    7.24   12.28
   4   5 -11   -2.69   11.08
   4   5 -11    6.34    9.88
   4   5 -10  146.41   27.70
   4   5 -10  189.02   28.79
  -4  -5  10  205.34   49.95
  -4   5  10  239.92   55.14
   4  -5 -10  158.14   28.59
   4  -5 -10  211.23   30.69
   4   5 -10  180.09   28.34
  -4   5  10  233.59   44.51
   4   5  -9  110.13   22.56
  -4  -5   9  186.93   40.57
  -4   5   9  102.65   34.53
   4  -5  -9  158.44   24.55
   4  -5  -9  121.66   23.40
   4   5  -9  153.74   24.25
   4   5  -9  144.76   22.66
   4  -5  -8   32.74   10.83
   4   5  -8    9.83    8.33
  -4  -5   8   28.29   17.52
  -4   5   8   13.57   15.37
  -4   5   8   14.42    4.39
   4  -5  -8   10.98    8.63
  -4   5   8   16.17   12.03
   4   5  -8   16.42    9.68
   4  -5  -7  407.04   42.12
  -4  -5   7  503.40   54.39
  -4   5   7  468.47   57.69
  -4   5   7  477.15   44.81
   4  -5  -7  487.23   41.32
  -4   5   7  385.98   34.23
   4   5  -7  416.12   39.52
  -4   5   7  496.12   49.75
  -4  -5   6   35.08   13.02
  -4   5   6   38.02   16.07
   4  -5  -6   24.20    9.78
  -4   5   6   23.25    8.38
   4  -5  -6   44.91   10.28
   4   5  -6   43.66   11.03
   4   5  -5  541.48   46.11
  -4  -5   5  522.61   47.85
  -4   5   5  601.71   58.13
   4   5  -5  569.22   34.78
  -4   5   5  490.73   44.16
   4  -5  -5  563.83   41.42
   4   5  -5  526.70   43.66
   4  -5  -5  563.63   39.72
  -4   5   4  832.25   70.26
   4   5  -4  824.96   61.13
   4   5  -4  832.90   57.59
  -4   5   4  842.18   58.78
   4   5  -4  921.22   54.99
  -4   5   4  773.02   62.53
   4  -5  -4  859.84   55.49
   4  -5  -4  893.08   58.23
   4   5  -3 1251.32   44.46
   4   5  -3 1357.75   43.86
   4  -5  -3 1245.98   43.21
   4   5  -3 1300.97   39.97
   4   5  -3 1214.59   36.43
  -4   5   3 1191.58   53.04
   4  -5  -3 1296.93   31.39
  -4   5   3 1183.90   35.18
   4  -5  -3 1249.62   47.16
  -4   5   2 1510.20   95.66
  -4   5   2 1385.15   95.16
   4   5  -2 1464.69   88.72
  -4   5   2 1304.21   81.84
   4   5  -2 1362.20   82.69
   4  -5  -2 1315.39   88.32
   4  -5  -2 1398.67   88.57
   4   5  -2 1447.63   86.08
   4  -5  -1  458.49   36.43
  -4   5   1  506.89   44.16
   4   5  -1  483.89   38.72
   4   5  -1  458.69   32.34
  -4  -5   1  485.69   35.63
   4  -5  -1  444.17   37.63
  -4   5   1  452.55   32.83
   4   5  -1  504.20   33.38
   4   5  -1  456.39   32.83
   4  -5  -1  483.04   30.99
  -4   5   1  495.47   42.96
   4   5   0  986.69   32.88
   4  -5   0  982.35   34.83
  -4   5   0 1037.44   52.40
  -4   5   0  940.83   34.53
   4   5   0  951.31   30.69
   4   5   0  987.44   23.45
  -4  -5   0 1004.21   38.92
   4  -5   0 1035.10   32.74
  -4   5   0  960.39   48.80
   4  -5   1   13.22    4.89
  -4  -5  -1    9.23    5.64
  -4  -5  -1    2.64    5.69
   4   5   1   10.88    4.74
   4  -5   1   10.48    5.49
   4  -5   2 1201.56   73.60
  -4   5  -2 1313.04   88.52
  -4  -5  -2 1176.17   83.48
  -4   5  -2 1090.88   85.63
   4  -5   2 1254.11   79.59
   4   5   2 1111.14   75.55
  -4   5  -3  178.45   28.94
   4   5   3  145.51   22.11
  -4   5  -3  202.20   27.55
  -4  -5  -3  197.46   27.70
   4  -5   3  194.11   24.05
  -4   5  -4  301.95   35.73
   4   5   4  235.18   30.59
  -4   5  -4  283.39   39.77
   4  -5   4  260.93   32.29
  -4  -5  -4  356.04   41.22
  -4   5  -4  272.31   34.88
   4   5   4  249.35   30.59
   4  -5   4  300.15   32.54
  -4  -5  -4  297.46   45.76
   4  -5   5  506.05   48.25
  -4   5  -5  649.71   55.59
   4   5   5  431.09   45.51
  -4   5  -5  491.27   58.28
   4  -5   5  436.08   46.21
  -4  -5  -5  539.88   57.74
  -4   5  -5  489.08   52.55
   4   5   5  479.65   47.51
  -4  -5  -5  522.46   65.77
   4   5   6   18.46   10.23
  -4   5  -6   24.65   14.52
   4  -5   6   43.86   13.77
  -4  -5  -6   62.18   21.61
  -4  -5  -6   47.21   23.10
  -4   5  -6   30.89   14.02
   4   5   6   48.85   14.92
   4  -5   6   22.11   11.98
   4   5   7   91.77   20.56
   4  -5   7  124.50   23.05
  -4  -5  -7  187.83   36.98
  -4   5  -7  140.47   29.64
  -4  -5  -7  161.23   38.62
   4  -5   7  148.95   26.65
   4   5   8  198.36   30.14
   4  -5   8  213.38   30.54
  -4  -6  11   55.19   31.84
   4  -6 -11   75.35   20.21
   4  -6 -11   72.16   20.91
   4   6 -11   86.23   21.21
   4   6 -11   71.96   19.71
  -4   6  11   98.21   31.14
  -4  -6  10 1227.11  121.81
  -4   6  10 1394.68  132.49
   4  -6 -10 1212.64   90.97
   4   6 -10  858.70   84.13
   4   6 -10 1183.70   88.87
   4   6 -10 1099.02   86.03
  -4   6  10 1529.96  118.12
   4  -6 -10  872.62   84.83
   4   6  -9   77.70   19.06
  -4  -6   9  159.13   36.63
  -4   6   9  114.07   34.08
   4  -6  -9  104.34   21.51
  -4   6   9   91.12   10.53
   4  -6  -9  149.90   23.90
   4   6  -9  109.58   20.21
  -4  -6   8  518.77   59.98
  -4   6   8  523.96   65.07
  -4   6   8  403.95   36.23
   4  -6  -8  519.92   45.76
   4   6  -8  433.84   42.52
   4   6  -8  371.96   43.26
   4  -6  -8  408.19   44.81
  -4  -6   7 1015.73   86.33
  -4   6   7 1114.34   96.71
   4  -6  -7 1066.18   74.55
   4   6  -7 1018.88   74.75
  -4   6   7 1048.82   83.28
  -4   6   7  837.79   69.81
   4  -6  -7  994.73   78.00
  -4   6   7 1192.18   81.64
  -4  -6   6  283.39   34.03
  -4   6   6  321.81   42.37
  -4   6   6  251.70   29.04
   4  -6  -6  295.96   28.14
  -4   6   6  306.34   32.98
   4   6  -6  260.83   28.49
  -4   6   6  279.55   31.04
   4  -6  -6  248.01   30.39
  -4   6   5  544.02   54.54
   4   6  -5  513.63   33.08
  -4   6   5  451.55   43.81
   4  -6  -5  504.10   38.82
  -4   6   5  516.82   42.77
   4  -6  -5  502.25   37.73
   4   6  -5  484.94   32.34
  -4  -6   5  479.25   43.46
   4   6  -4 1029.46   67.07
   4   6  -4 1114.24   66.37
   4   6  -4  970.07   68.36
  -4   6   4  988.94   76.65
   4  -6  -4 1050.46   66.37
  -4   6   4  989.74   69.31
   4  -6  -4 1141.78   70.41
   4   6  -3  195.61   16.52
   4  -6  -3  177.20   12.87
   4   6  -3  161.63   14.92
  -4   6   3  170.51   21.96
  -4   6   3  169.21   14.67
   4  -6  -3  196.76   18.46
   4  -6  -3  159.13   17.76
   4  -6  -2   33.78    5.69
   4   6  -2   32.14    7.04
  -4   6   2   36.78   11.23
  -4   6   2   55.69   12.48
  -4   6   2   31.29    6.14
   4  -6  -2   31.04    8.58
   4   6  -2   30.09    5.04
   4  -6  -2   23.55    7.09
   4  -6  -1 4040.58   86.08
  -4   6   1 3874.16   66.57
   4   6  -1 4450.27   57.79
   4   6  -1 3919.32   62.73
  -4  -6   1 3863.78   74.90
   4  -6  -1 4004.65   77.15
   4  -6  -1 4456.95   51.55
  -4   6   1 4252.41  104.74
  -4   6   1 4136.29  106.09
   4   6   0 1227.76   72.46
   4   6   0 1147.27   76.10
   4  -6   0 1226.91   78.64
  -4   6   0 1182.45   78.84
  -4   6   0 1319.78   90.82
  -4  -6   0 1242.63   81.04
  -4   6   0 1232.15   89.37
   4  -6   0 1322.28   76.60
   4  -6   1   37.53    8.13
  -4  -6  -1   67.37   12.77
  -4  -6  -1   49.05   12.38
   4   6   1   45.26    9.08
  -4   6  -1   24.95   10.43
   4  -6   1   53.04   10.28
   4  -6   2  343.02   28.44
  -4  -6  -2  313.33   40.37
  -4   6  -2  364.78   38.62
  -4  -6  -2  359.09   36.28
  -4   6  -2  320.31   39.12
   4   6   2  296.16   28.79
   4  -6   2  352.55   32.04
   4   6   3 2879.23  200.20
  -4   6  -3 3843.27  211.73
  -4   6  -3 2986.27  212.53
  -4  -6  -3 3729.05  211.18
   4  -6   3 3023.25  202.15
   4   6   3 3144.66  196.21
   4  -6   3 3777.20  202.90
  -4   6  -4  221.86   30.24
   4   6   4  164.37   24.65
   4  -6   4  183.34   26.25
  -4  -6  -4  224.35   32.49
  -4  -6  -4  218.17   39.97
   4   6   4  171.51   24.95
  -4   6  -4  153.69   31.49
   4  -6   4  200.85   26.25
  -4   6  -5  150.20   25.05
   4   6   5   71.81   17.27
  -4   6  -5  103.25   26.70
  -4  -6  -5   99.85   29.69
  -4  -6  -5  125.35   26.75
   4  -6   5  102.65   20.16
  -4   6  -5  116.57   23.80
   4   6   5   86.98   18.46
   4  -6   5  135.88   22.56
   4   6   6  342.67   40.52
  -4   6  -6  374.36   53.49
   4  -6   6  376.60   42.57
  -4  -6  -6  482.74   57.39
  -4   6  -6  438.88   50.95
  -4  -6  -6  454.05   62.43
   4  -6   6  424.86   45.16
   4   6   7  156.79   26.05
  -4  -6  -7  208.49   39.92
  -4  -6  -7  207.44   42.57
  -4   6  -7  139.27   30.64
   4  -6   7  209.78   31.29
   4  -6   7  162.93   26.85
   4   6   8    7.34    8.58
   4  -6   8    8.53    9.48
   4  -7 -11   28.29   14.32
   4  -7 -11   61.28   20.01
   4   7 -11   50.30   15.97
   4   7 -11   43.16   16.37
   4   7 -10    1.35    7.73
  -4  -7  10    8.23   16.17
  -4   7  10   -3.19   21.16
   4  -7 -10    8.23   10.98
   4  -7 -10   15.67   10.43
   4   7 -10    1.25    9.43
   4   7 -10   10.78   10.98
  -4   7  10   23.95   18.16
   4   7  -9   32.64   12.92
  -4  -7   9   33.43   19.06
  -4   7   9   66.52   28.29
   4  -7  -9   27.84   12.53
  -4   7   9   29.19    8.43
   4   7  -9   50.05   14.27
   4  -7  -9   38.27   13.67
  -4  -7   8 1839.20  140.52
  -4   7   8 2195.14  157.04
  -4   7   8 1625.27  118.71
   4  -7  -8 2192.80  127.95
   4   7  -8 1899.03  124.55
  -4   7   8 2099.93  140.22
   4   7  -8 1580.86  124.25
   4  -7  -8 1732.81  126.80
  -4  -7   7   19.66   10.68
  -4   7   7   -1.85    8.28
   4  -7  -7    5.14    6.79
  -4   7   7   18.31    9.48
   4  -7  -7    3.14    5.19
  -4   7   7    6.69    6.89
   4   7  -7    3.44    5.49
  -4   7   7    1.15    6.89
  -4  -7   6  599.36   54.04
  -4   7   6  671.07   65.82
   4  -7  -6  670.82   49.65
   4   7  -6  639.53   37.13
  -4   7   6  667.72   55.39
  -4   7   6  561.04   53.54
   4   7  -6  556.45   49.50
  -4   7   6  588.08   51.10
   4  -7  -6  576.21   52.50
   4  -7  -5 1672.73  101.40
  -4   7   5 1470.23  110.18
  -4   7   5 1579.31  104.99
   4   7  -5 1586.00   93.96
   4  -7  -5 1662.70  101.00
   4   7  -4 2311.41  136.48
   4   7  -4 2152.28  140.17
  -4   7   4 2268.90  141.02
   4  -7  -4 2419.60  137.98
  -4   7   4 2184.56  151.35
   4  -7  -4 2562.46  142.42
   4  -7  -3  426.20   21.01
   4   7  -3  486.53   24.40
   4   7  -3  386.53   23.30
  -4   7   3  362.03   22.70
  -4   7   3  410.78   35.78
   4  -7  -3  383.29   27.50
   4  -7  -3  404.90   27.25
   4  -7  -2   78.89    8.83
   4   7  -2   64.17    9.78
  -4   7   2   62.97    9.28
   4  -7  -2   86.63   12.67
   4  -7  -2   64.17   11.53
   4   7  -2   65.32    5.84
   4  -7  -1 2311.06   60.63
  -4  -7   1 2349.54   62.88
  -4   7   1 2391.65   84.83
  -4   7   1 2258.67   55.59
   4   7  -1 2246.49   51.40
  -4   7   1 2472.44   84.73
   4  -7   0  529.85   40.42
   4  -7   0  540.63   37.63
  -4   7   0  523.31   41.67
  -4  -7   0  574.21   43.61
   4   7   0  513.23   38.82
  -4   7   0  561.34   51.05
  -4   7   0  520.22   49.50
   4  -7   1  308.54   26.30
  -4  -7  -1  254.39   31.54
   4   7   1  309.24   18.61
   4   7   1  265.12   18.11
  -4   7  -1  285.73   35.58
   4   7   1  284.49   25.85
   4  -7   1  324.21   27.15
  -4  -7  -1  302.05   30.54
   4  -7   2   73.10   11.73
  -4  -7  -2   77.70   19.06
  -4   7  -2  122.56   20.76
  -4  -7  -2   97.31   17.47
   4   7   2   71.91   12.53
  -4   7  -2   72.76   18.66
   4  -7   2   86.73   14.37
   4   7   3  180.44   25.75
  -4   7  -3  266.97   32.69
   4  -7   3  238.23   28.94
  -4  -7  -3  210.33   29.99
   4   7   3  197.16   23.90
   4  -7   3  255.34   27.99
  -4   7  -3  180.04   32.59
   4   7   4   75.35   16.62
  -4   7  -4   88.77   19.36
  -4   7  -4  106.49   26.45
  -4  -7  -4   89.07   20.71
   4  -7   4   84.58   17.66
  -4  -7  -4   98.25   28.99
   4  -7   4   87.08   17.66
  -4  -7  -5   -1.65    9.73
  -4   7  -5    8.78    9.08
   4   7   5    3.19    8.48
  -4   7  -5   14.62   13.32
  -4  -7  -5   -2.35   14.37
   4  -7   5    4.39    7.19
   4  -7   5    5.29    9.38
  -4   7  -6   86.68   20.41
   4   7   6   48.25   14.62
  -4  -7  -6   69.36   27.50
  -4  -7  -6   74.80   23.50
   4  -7   6   43.71   13.92
  -4   7  -6   54.64   17.57
   4  -7   6   66.07   17.71
   4   7   7  110.18   22.75
  -4  -7  -7  170.91   39.97
  -4  -7  -7  182.64   38.52
   4  -7   7  120.21   23.70
  -4   7  -7  190.42   35.38
   4  -7   7  194.96   30.09
   4   7   8   22.26   11.38
   4  -7   8   22.70   12.18
   4   8 -11  358.29   38.57
   4  -8 -11  323.36   43.91
   4  -8 -10   11.23   10.43
   4   8 -10   11.08    9.98
  -4  -8  10   10.03   14.77
  -4   8  10   12.53   25.00
   4  -8 -10   15.82   12.67
   4   8 -10   15.77   10.78
   4   8 -10   23.45   12.77
  -4   8  10   27.35   18.96
   4  -8  -9    9.03    8.83
  -4  -8   9   20.31   14.27
  -4   8   9   28.64   18.81
   4   8  -9   22.85   11.23
   4  -8  -9    6.84    8.68
  -4   8   9   12.03    7.49
   4   8  -9   20.96   10.98
   4  -8  -8   28.29   11.98
  -4  -8   8   25.10   13.72
  -4   8   8   23.80   17.71
   4   8  -8   59.48   16.02
  -4   8   8   28.54   12.77
   4  -8  -8   33.53   11.73
  -4   8   8   25.70   11.83
   4   8  -8   31.69   11.53
  -4   8   8   22.56   13.12
  -4  -8   7  602.10   57.74
  -4   8   7  708.39   71.66
  -4   8   7  586.34   58.48
   4  -8  -7  682.00   53.39
  -4   8   7  711.99   58.43
   4   8  -7  592.42   53.34
   4  -8  -7  586.69   55.84
  -4   8   7  634.89   59.13
  -4  -8   6  486.09   44.06
   4   8  -6  506.54   31.69
   4  -8  -6  509.84   41.72
  -4   8   6  509.54   47.11
   4   8  -6  491.97   31.34
   4  -8  -6  448.61   44.51
  -4   8   6  438.13   42.27
   4   8  -6  418.32   41.67
  -4   8   6  451.20   49.05
   4  -8  -5  146.91   17.27
  -4   8   5  134.93   19.11
  -4   8   5  126.60   22.90
   4  -8  -5  108.43   18.56
  -4   8   5  135.98   15.22
   4   8  -5  131.29   13.17
   4   8  -4   13.92    5.19
   4   8  -4   20.56    8.28
   4  -8  -4   15.72    5.89
  -4   8   4   20.56    9.93
  -4   8   4    9.83    5.89
   4  -8  -4   27.20    9.33
  -4   8   3   32.69   11.88
  -4   8   3   57.98   14.32
   4   8  -3   41.12    7.73
   4   8  -3   40.42    9.18
   4  -8  -3   36.83    7.29
  -4   8   3   42.22    8.88
   4  -8  -3   44.36   10.33
   4  -8  -3   42.57   10.38
   4  -8  -2  779.80   29.09
   4  -8  -2    0.85    3.94
  -4   8   2   -0.95    4.49
   4   8  -2  714.08   31.84
   4  -8  -2  709.74   36.63
  -4   8   2  770.22   50.65
  -4   8   2  667.28   31.14
   4  -8  -2  713.78   37.92
  -4  -8   1 1770.59   58.18
   4  -8  -1 1714.05   53.79
   4   8  -1 1640.04   47.26
  -4   8   1 1634.31   51.15
  -4   8   1 1791.44   76.65
  -4   8   1  109.53   20.86
   4   8   0  117.02   11.18
   4  -8   0  102.45   14.07
  -4  -8   0   89.82   14.77
  -4   8   0   77.75   13.37
  -4   8   0   95.26   18.66
   4   8   0   89.67   13.12
  -4   8   0   96.46   16.52
   4  -8   0   85.38   11.48
  -4   8   0   98.85   20.26
   4  -8   1  849.41   56.74
  -4  -8  -1  700.16   62.53
   4   8   1  811.54   47.66
  -4  -8  -1  863.34   63.22
  -4   8  -1  749.41   69.41
   4   8   1  723.01   55.39
  -4   8  -1  836.09   68.41
   4  -8   1  831.95   55.99
   4  -8   2  328.25   28.79
  -4   8  -2  288.78   40.22
  -4   8  -2  343.17   38.22
  -4  -8  -2  309.19   34.78
   4   8   2  273.96   28.24
  -4   8  -2  347.61   41.97
   4  -8   2  317.52   30.19
  -4  -8  -2  316.97   40.82
   4   8   3  477.95   47.90
  -4   8  -3  627.30   55.99
  -4   8  -3  477.45   58.43
  -4  -8  -3  641.13   56.64
   4  -8   3  508.84   49.50
   4   8   3  485.24   43.81
  -4   8  -3  670.22   64.92
   4  -8   3  613.93   48.65
   4  -8   3  554.00   50.00
  -4  -8  -4   46.76   20.61
   4   8   4   73.05   16.22
  -4   8  -4  101.55   20.51
   4  -8   4   48.25   13.92
  -4   8  -4   30.09   15.57
  -4  -8  -4   49.50   16.77
   4  -8   4   48.60   14.02
   4   8   4   50.10   12.67
   4  -8   4   90.67   17.66
  -4   8  -5  284.04   36.78
   4   8   5  176.55   27.94
  -4  -8  -5  247.51   46.26
  -4  -8  -5  299.11   41.37
   4  -8   5  219.81   30.89
   4  -8   5  270.96   33.03
  -4   8  -6 1150.77   83.09
   4   8   6  607.94   65.32
  -4  -8  -6 1045.87   90.87
   4  -8   6  736.94   69.26
  -4   8  -6  838.39   79.34
  -4  -8  -6 1055.11  101.75
   4  -8   6  935.04   75.60
   4   8   7   62.43   17.66
  -4  -8  -7   87.88   31.44
  -4  -8  -7  129.84   31.94
   4  -8   7  114.12   22.70
  -4   8  -7  100.05   27.00
   4  -8   7   97.26   23.15
   4   8   8   16.32   11.08
   4  -8   8    2.59   10.78
   4   9 -11   30.74   13.17
  -4  -9  10  415.97   58.93
  -4   9  10  553.05   76.40
   4  -9 -10  457.14   48.80
   4   9 -10  422.86   40.32
   4   9 -10  419.17   46.51
   4  -9 -10  341.52   45.56
   4   9 -10  322.91   44.16
  -4   9  10  475.61   60.43
   4  -9  -9   71.86   19.51
  -4  -9   9   85.73   24.30
  -4   9   9   68.71   26.05
   4   9  -9   74.25   19.41
   4  -9  -9   97.46   20.16
  -4   9   9   82.44   19.16
   4   9  -9   97.91   16.92
   4   9  -9  102.50   20.76
   4  -9  -8  142.32   25.05
  -4  -9   8  136.48   26.80
  -4   9   8  144.96   33.68
   4   9  -8  137.03   24.35
   4  -9  -8  165.02   24.20
  -4   9   8  166.82   28.94
   4   9  -8  149.50   24.10
  -4   9   8  182.54   27.15
  -4   9   8  168.72   29.44
   4  -9  -7   44.16   14.22
  -4   9   7   22.16   10.98
  -4  -9   7   61.08   15.02
   4  -9  -7   32.34   11.08
  -4   9   7   40.02   15.72
  -4   9   7   40.97   14.02
   4   9  -7   86.93   17.07
  -4   9   6    7.14    7.39
   4  -9  -6   29.44   11.23
  -4  -9   6   27.45    9.13
  -4   9   6   13.12   10.23
   4  -9  -6   10.38    6.49
   4   9  -6   10.78    4.09
  -4   9   6    9.58    6.29
   4   9  -6   18.86    8.63
   4   9  -5    4.44    4.19
   4   9  -5    5.04    6.79
   4  -9  -5    0.55    4.24
  -4   9   5    1.40    7.04
  -4   9   5    2.35    4.99
  -4   9   5    5.64    3.39
   4  -9  -5   14.77    7.39
   4   9  -4  892.93   57.44
   4   9  -4  991.78   67.52
   4  -9  -4  945.17   62.73
  -4   9   4  887.74   77.40
  -4   9   4  843.73   65.17
   4  -9  -4 1039.59   68.21
   4   9  -3  133.39   13.52
   4  -9  -3  125.70   14.57
   4   9  -3  112.48   15.92
  -4   9   3  109.63   21.91
  -4   9   3  109.58   15.77
   4  -9  -3  115.22   17.37
   4  -9  -3  132.69   18.51
  -4   9   3  156.84   23.30
   4  -9  -2   65.07   15.42
  -4   9   2   26.20   12.18
   4   9  -2  161.33   17.42
   4  -9  -2  174.40   15.92
  -4   9   2  139.37   16.62
   4  -9  -2  175.15   20.06
  -4   9   2  199.20   28.39
   4  -9  -2  171.56   20.86
  -4   9   1    1.15    6.44
   4  -9  -1   -0.85    4.09
   4  -9  -1  186.48   18.56
  -4  -9   1  173.61   19.76
   4   9  -1  155.14   15.87
  -4   9   1  150.40   16.72
  -4   9   1  193.72   26.40
  -4   9   1  161.43   16.47
   4  -9  -1    0.75    1.80
   4   9   0  280.39   16.82
   4  -9   0  260.43   21.96
  -4  -9   0  297.56   26.40
  -4   9   0  245.31   23.25
   4   9   0  247.16   20.51
  -4   9   0  272.66   27.30
   4   9   1  210.68   22.21
   4  -9   1  246.61   23.10
  -4  -9  -1  225.80   27.70
  -4   9  -1  207.49   24.70
   4   9   1  231.39   15.82
   4  -9   1  224.60   27.00
  -4  -9  -1  255.19   28.19
  -4   9  -1  235.13   30.84
   4  -9   1  249.06   22.56
   4  -9   2  381.24   28.09
  -4   9  -2  407.24   39.62
  -4  -9  -2  404.40   36.88
   4   9   2  316.22   27.05
  -4   9  -2  406.79   43.41
   4  -9   2  376.05   34.53
  -4  -9  -2  356.24   41.27
   4  -9   2  385.09   29.44
   4  -9   2  359.89   33.63
  -4   9  -3  183.69   26.90
   4   9   3  133.34   18.01
  -4  -9  -3  224.20   29.44
   4  -9   3  177.10   23.75
   4  -9   3  183.34   25.10
   4  -9   3  220.51   23.95
  -4   9  -3  182.44   31.24
   4   9   4    1.05    6.49
  -4  -9  -4    2.30   14.22
  -4  -9  -4    1.45    8.58
   4  -9   4    2.25    8.23
   4  -9   4    1.10    6.09
   4   9   4   10.78    8.58
  -4   9  -4   17.71   11.18
  -4   9  -4    1.90    9.18
   4  -9   4    3.74    7.34
   4   9   5  371.61   44.36
  -4   9  -5  563.68   54.74
  -4  -9  -5  553.05   60.08
   4  -9   5  441.87   47.81
  -4  -9  -5  477.00   67.42
   4  -9   5  561.04   50.45
  -4   9  -6  566.38   55.54
   4   9   6  345.46   43.11
  -4   9  -6  419.37   60.98
  -4  -9  -6  477.30   68.06
  -4  -9  -6  562.58   63.87
   4  -9   6  389.53   45.96
   4  -9   6  512.53   50.50
   4   9   7  117.77   23.95
  -4  -9  -7  200.50   45.66
  -4  -9  -7  221.21   41.37
   4  -9   7  131.79   26.45
  -4   9  -7  183.54   35.73
   4  -9   7  216.52   33.13
  -4  10  10 1894.89  153.79
   4 -10 -10 1721.98  116.02
   4  10 -10 1423.17  100.20
   4 -10 -10 1192.83  108.24
   4  10 -10 1548.68  112.08
  -4  10  10 1717.34  130.89
   4  10 -10 1258.60  108.53
  -4 -10   9  180.04   32.44
  -4  10   9  217.27   43.41
   4  10  -9  147.96   26.75
   4  10  -9  159.08   21.61
   4 -10  -9  185.23   28.59
  -4  10   9  133.98   27.84
   4 -10  -9  194.71   30.74
   4  10  -9  160.73   26.15
  -4 -10   8  333.94   39.67
  -4  10   8  311.13   48.40
   4  10  -8  310.83   29.74
   4 -10  -8  339.68   36.83
  -4  10   8  305.74   44.36
   4 -10  -8  293.42   37.73
   4  10  -8  319.02   36.98
  -4  10   8  282.19   39.77
  -4  10   8  346.16   39.22
  -4 -10   7  491.27   47.51
   4 -10  -7  671.02   51.80
   4  10  -7  538.53   41.42
  -4  10   7  525.11   52.80
   4  10  -7  561.29   34.58
  -4  10   7  588.98   63.62
  -4  10   7  620.32   54.24
  -4  10   7  598.61   54.54
   4 -10  -7  500.71   51.45
   4  10  -7  512.08   49.65
   4  10  -6  107.89   12.97
  -4  10   6  124.05   21.41
   4 -10  -6  111.83   17.07
   4  10  -6  117.82   12.28
  -4  10   6  114.57   26.10
  -4  10   6  103.64   17.32
   4  10  -6  112.18   19.31
   4 -10  -6   87.58   18.31
   4  10  -5  226.15   25.30
   4  10  -5  196.41   15.22
   4 -10  -5  238.43   23.00
  -4  10   5  278.10   37.73
   4 -10  -5  191.07   24.85
  -4  10   5  195.46   19.06
   4  10  -5  210.63   18.26
  -4  10   4 2018.89  130.54
   4  10  -4 1771.08  105.94
   4  10  -4 1739.20  117.27
   4 -10  -4 1902.82  114.12
  -4  10   4 2014.50  136.83
  -4  10   4 1663.25  116.67
   4 -10  -4 2071.49  120.76
   4  10  -3   60.58    8.48
   4 -10  -3   64.57   10.68
   4  10  -3   62.58   12.38
  -4  10   3   52.35   11.58
  -4  10   3   61.43   17.07
   4 -10  -3   36.58   10.63
   4 -10  -3   91.77   16.02
   4 -10  -2 1323.12   76.95
   4 -10  -2 1166.09   80.94
   4  10  -2 1165.99   78.64
  -4  10   2 1081.85   78.69
  -4  10   2 1247.32   95.41
   4 -10  -2 1207.45   83.18
  -4  10   2 1111.04   71.91
   4 -10  -1  147.81   20.36
  -4  10   1  717.28   52.45
   4  10  -1  568.82   27.70
   4 -10  -1  576.76   33.48
  -4 -10   1  620.02   38.47
  -4  10   1  590.63   35.13
   4  10  -1  616.13   32.44
  -4  10   1  630.50   34.63
   4  10   0 1825.13   43.21
   4 -10   0 1740.25   57.14
  -4  10   0 1664.20   61.48
  -4 -10   0 1871.73   67.22
   4  10   0 1712.80   54.89
  -4  10   0 1835.91   72.11
   4 -10   1   84.58   13.52
  -4 -10  -1  109.23   18.66
   4  10   1  105.19    9.48
  -4 -10  -1  113.28   18.46
   4  10   1   99.00   14.67
  -4  10  -1   97.66   16.87
  -4  10  -1   81.24   18.01
   4 -10   1   95.26   17.07
   4 -10   2  412.33   35.33
  -4  10  -2  443.57   46.11
  -4 -10  -2  415.33   42.47
   4 -10   2  357.84   38.92
   4 -10   2  387.33   40.57
   4  10   2  338.03   34.28
  -4  10  -2  343.92   44.51
  -4 -10  -2  373.81   47.66
   4 -10   2  451.45   37.23
  -4  10  -3 1674.38  110.38
  -4 -10  -3 1534.40  108.14
   4 -10   3 1274.22   98.90
   4 -10   3 1332.80  101.05
   4  10   3 1180.76   92.47
  -4  10  -3 1483.95  116.07
   4 -10   3 1600.02   98.70
  -4 -10  -4   14.52   15.97
   4  10   4   16.32    9.33
  -4  10  -4   26.25   12.08
  -4 -10  -4   24.05   12.58
   4 -10   4   16.22   10.48
   4  10   4   23.95    9.93
   4 -10   4   20.96   11.48
  -4  10  -4   27.15   16.22
   4 -10   4   28.79   11.48
   4  10   5  171.71   28.49
  -4 -10  -5  221.01   45.76
  -4  10  -5  244.76   34.48
  -4 -10  -5  267.52   41.17
   4 -10   5  216.32   31.54
  -4  10  -5  327.95   49.55
  -4  10  -5  218.07   43.61
   4 -10   5  282.29   34.08
  -4  10  -6   57.98   19.36
  -4 -10  -6   43.71   25.55
   4  10   6   39.72   14.47
  -4  10  -6   14.57   16.12
  -4 -10  -6   24.55   17.17
   4 -10   6   32.24   13.87
   4  10   6   39.37   14.97
   4 -10   6   63.62   18.36
   4  10   7   40.02   15.87
  -4  10  -7   93.51   23.60
  -4 -10  -7   64.92   25.20
  -4 -10  -7  125.15   38.57
  -4  10  -7   58.03   22.11
   4 -10   7   63.47   18.61
   4 -10   7   71.51   21.36
   4 -10   8   48.15   16.32
   4  11 -10  271.21   31.59
   4 -11 -10  324.76   40.72
   4 -11 -10  244.81   37.63
   4  11 -10  251.95   36.28
   4  11  -9   22.51    9.93
  -4 -11   9    5.64    9.58
  -4  11   9    7.39   15.62
  -4  11   9   -1.20   10.98
   4  11  -9    3.94    8.08
   4 -11  -9    8.48   10.93
  -4  11   9   14.32   12.23
   4  11  -9   17.17   10.83
   4 -11  -9   -1.40    7.44
  -4 -11   8  464.68   47.01
   4 -11  -8  521.41   48.90
   4 -11  -8  442.17   49.15
   4  11  -8  474.46   39.82
  -4  11   8  509.19   61.53
  -4  11   8  526.85   50.70
   4  11  -8  477.55   48.35
  -4  11   8  458.74   52.20
  -4  11   7   90.97   19.16
   4  11  -7   76.15   12.33
   4  11  -7  101.95   10.13
   4 -11  -7   77.75   16.57
  -4  11   7   85.43   19.81
  -4  11   7   88.97   25.25
  -4  11   7   65.37   16.87
   4 -11  -7   77.10   18.11
   4  11  -7   73.45   16.92
  -4 -11   7  102.30   16.17
  -4  11   6 1034.75   87.73
  -4  11   6 1160.40   82.09
   4  11  -6  864.93   72.61
   4 -11  -6 1012.44   71.76
  -4  11   6 1139.54   95.81
   4 -11  -6  862.39   74.70
   4  11  -6 1012.74   62.93
  -4  11   6  881.70   70.56
   4  11  -6  944.72   75.20
   4  11  -6 1003.11   62.63
  -4  11   5  201.85   31.49
   4 -11  -5  172.36   27.65
  -4  11   5  206.39   28.14
   4  11  -5  211.58   25.90
  -4  11   5  215.52   36.43
   4 -11  -5  182.54   25.15
   4  11  -5  197.26   15.92
   4 -11  -5  216.57   23.60
  -4  11   5  180.19   19.71
   4  11  -5  204.00   20.01
  -4  11   4  663.93   58.28
   4  11  -4  529.75   47.36
   4 -11  -4  588.98   45.26
  -4  11   4  635.49   64.32
  -4  11   4  515.58   47.31
   4 -11  -4  663.73   51.35
   4  11  -3 2154.82  119.36
   4 -11  -3 2133.07  126.60
   4  11  -3 1912.75  128.74
  -4  11   3 1772.88  128.45
  -4  11   3 2281.42  151.40
   4 -11  -3 2138.45  133.83
   4  11  -2  160.63   19.91
  -4  11   2  119.31   18.11
   4 -11  -2  142.42   19.61
  -4  11   2  179.79   29.39
   4 -11  -2  149.80   17.22
   4 -11  -2  148.46   21.31
  -4  11   2  125.05   14.87
   4  11  -1   15.17    6.34
   4  11  -1   15.92    7.39
  -4 -11   1   13.57    7.39
  -4  11   1    7.54    5.74
  -4  11   1   12.28    8.98
   4 -11  -1   -0.85    1.45
  -4  11   1   14.67    6.29
   4 -11  -1   28.79    8.78
   4  11   0  339.08   27.40
   4 -11   0  380.94   33.53
  -4  11   0  337.23   34.58
   4  11   0  324.06   31.24
  -4  11   0  335.28   36.98
  -4 -11   0  372.61   36.53
   4 -11   1 1099.07   72.06
  -4 -11  -1 1118.88   79.89
   4 -11   1  970.77   76.10
   4  11   1 1108.55   63.27
   4  11   1  995.12   71.41
  -4  11  -1 1147.92   85.88
  -4 -11  -1  966.78   77.20
   4  11   2    8.98    3.04
   4 -11   2    4.04    6.39
  -4  11  -2   11.43    8.88
  -4 -11  -2    8.28    8.88
  -4 -11  -2    7.98    7.98
   4  11   2    7.19    6.59
   4 -11   2   18.36    9.68
  -4  11  -2   12.03    9.58
  -4  11  -3 2275.93  141.22
  -4 -11  -3 2085.06  138.82
   4 -11   3 1866.10  129.94
   4 -11   3 1812.95  130.79
   4  11   3 1717.89  123.06
  -4  11  -3 2128.27  148.80
  -4  11  -4  326.80   40.17
   4 -11   4  288.53   35.28
  -4 -11  -4  290.22   40.27
  -4  11  -4  227.55   44.31
  -4 -11  -4  309.29   52.35
   4 -11   4  249.45   33.83
   4  11   4  215.12   29.14
  -4  11  -4  309.44   46.76
   4 -11   4  380.44   37.53
  -4 -11  -5  311.33   54.14
   4  11   5  193.82   30.99
  -4  11  -5  369.92   42.96
  -4 -11  -5  341.32   46.71
  -4  11  -5  262.18   48.75
   4 -11   5  241.12   34.48
   4  11   5  234.88   31.19
  -4  11  -5  322.26   49.90
   4 -11   5  347.11   38.87
   4  11   6  282.09   37.97
  -4  11  -6  464.93   50.65
  -4  11  -6  326.05   54.09
  -4 -11  -6  431.09   56.94
  -4 -11  -6  358.89   61.38
   4 -11   6  316.52   41.02
   4  11   6  276.45   38.47
   4 -11   6  432.19   46.16
  -4  11  -7 2740.86  154.59
   4  11   7 1377.81  128.69
   4 -11   7 1834.11  136.53
  -4 -11  -7 2526.78  171.71
  -4 -11  -7 2442.70  182.39
   4 -11   8   -2.74   10.63
   4  12 -10   37.33   13.12
   4 -12 -10   55.79   19.41
   4 -12 -10   27.20   14.67
   4  12 -10   37.63   14.92
  -4  12   9  178.35   28.14
   4 -12  -9  108.53   24.10
   4 -12  -9  171.26   27.79
   4  12  -9  139.77   20.31
  -4  12   9  145.46   33.18
   4  12  -9  123.16   24.40
  -4 -12   8 3234.23  176.50
   4  12  -8 2396.84  153.20
  -4  12   8 3648.51  195.31
   4 -12  -8 3778.55  187.18
  -4  12   8 3499.40  214.87
   4 -12  -8 3351.45  189.57
  -4  12   8 3397.36  191.37
   4  12  -8 3580.79  170.81
  -4  12   8 4200.11  194.36
   4  12  -8 3144.31  184.78
  -4  12   7    3.44    8.53
  -4  12   7   17.57   13.32
   4  12  -7    9.28    5.94
   4 -12  -7   17.27    9.03
   4  12  -7    7.29    4.24
  -4  12   7    9.43    9.63
  -4  12   7   19.06   14.42
   4 -12  -7    8.23    8.53
  -4  12   7    3.24    6.94
   4  12  -7   17.37   10.63
  -4  12   6   62.88   20.01
   4  12  -6   69.81   16.37
   4 -12  -6   93.07   16.72
   4  12  -6   89.77   12.13
  -4  12   6   90.82   18.81
  -4  12   6  105.69   28.09
  -4  12   6   93.81   19.61
   4 -12  -6   73.85   17.32
   4  12  -6   82.64   11.08
  -4  12   6   81.34   15.37
   4  12  -6   77.60   17.66
  -4  12   5 1181.35   90.02
  -4  12   5 1243.13   85.48
   4  12  -5 1065.98   78.09
   4 -12  -5 1090.34   73.60
   4 -12  -5  947.22   76.95
  -4  12   5 1095.82   96.91
  -4  12   5  937.14   68.21
   4  12  -5  964.44   67.32
  -4  12   4 3178.79  129.94
   4 -12  -4 2425.39  117.17
   4  12  -4 2501.53  108.38
   4 -12  -4 2891.41  104.84
  -4  12   4 3218.51  150.00
   4 -12  -4 3026.94  115.27
   4  12  -4 2391.30   96.06
   4  12  -3  431.14   27.35
   4 -12  -3  425.70   35.13
   4  12  -3  397.21   37.63
  -4  12   3  364.13   36.93
  -4  12   3  500.21   54.44
  -4  12   3  362.33   29.04
   4 -12  -3  421.81   40.97
  -4  12   2  145.76   21.51
   4 -12  -2  171.01   22.56
   4 -12  -2  172.46   20.01
   4  12  -2  209.63   23.90
  -4  12   2  211.83   33.18
   4 -12  -2  192.17   25.40
  -4  12   2  183.84   19.71
   4  12  -1 1450.92   84.08
   4 -12  -1 1423.92   89.32
  -4 -12   1 1589.59   96.31
  -4  12   1 1360.30   90.72
   4  12  -1 1399.07   87.73
  -4  12   1 1739.55  111.63
  -4  12   1 1382.31   89.57
   4  12   0  132.04   15.67
   4 -12   0  130.54   18.61
  -4 -12   0  142.17   22.11
   4  12   0  145.91   19.56
  -4  12   0  131.09   20.71
  -4  12   0  152.80   23.15
   4 -12   1  586.88   35.53
  -4 -12  -1  629.05   45.11
   4  12   1  607.44   25.10
   4 -12   1  567.27   41.22
   4  12   1  527.80   34.58
  -4  12  -1  601.46   48.75
  -4 -12  -1  516.03   40.67
   4 -12   2  653.80   59.53
   4 -12   2  714.58   55.59
   4 -12   2  662.73   60.48
  -4  12  -2  799.56   68.76
  -4 -12  -2  809.14   66.67
   4  12   2  607.39   54.49
  -4 -12  -2  688.83   71.91
   4  12   2  751.26   45.31
  -4  12  -2  725.91   70.46
  -4  12  -3 1707.41  117.42
  -4  12  -3 1531.06  129.64
   4  12   3 1321.78  100.40
   4 -12   3 1434.30  107.09
   4 -12   3 1418.04  107.99
  -4  12  -3 1682.16  125.75
  -4 -12  -3 1754.77  117.97
  -4 -12  -4   55.74   27.79
  -4  12  -4  105.84   23.00
  -4 -12  -4  100.50   23.65
  -4  12  -4  108.29   31.99
   4  12   4   77.15   16.52
   4 -12   4   78.64   19.31
   4 -12   4   54.44   15.97
  -4  12  -4   95.46   26.85
  -4 -12  -5   31.14   22.61
   4  12   5   53.29   15.22
  -4  12  -5   27.50   14.42
  -4 -12  -5   40.62   18.61
  -4  12  -5   45.76   24.50
   4  12   5   19.61   10.68
   4 -12   5   16.87   11.78
  -4  12  -5   36.23   18.91
  -4 -12  -6   41.12   23.95
   4  12   6   17.71   10.63
  -4  12  -6   31.99   15.62
  -4 -12  -6   51.40   20.61
   4  12   6    9.28    9.93
  -4  12  -6   27.94   18.36
   4 -12   6   17.52   11.78
  -4  12  -6   27.45   19.46
  -4  12  -7 2269.99  138.87
  -4 -12  -7 2132.42  169.01
   4 -13 -10  908.80   76.55
   4 -13 -10  684.59   71.06
  -4  13   9   24.10   13.52
   4 -13  -9   21.46   13.07
  -4  13   9   56.89   23.25
   4  13  -9   14.27    9.53
   4 -13  -9   21.36   11.93
   4  13  -9   10.53    9.83
  -4  13   8  137.13   25.10
  -4  13   8  167.97   35.33
   4 -13  -8  165.42   25.55
  -4  13   8  137.18   26.70
  -4  13   8  106.79   30.54
   4  13  -8  134.33   11.88
   4 -13  -8   87.98   22.06
   4  13  -8  156.24   19.11
  -4  13   8  129.59   25.90
   4  13  -8  123.60   23.95
   4  13  -7   57.19   10.93
  -4  13   7   85.43   22.85
   4  13  -7   64.47   16.77
   4 -13  -7   79.29   17.07
   4  13  -7   69.06   10.18
  -4  13   7   65.32   17.62
  -4  13   7   59.03   23.80
   4 -13  -7   54.19   15.87
  -4  13   7   53.94   15.47
   4  13  -7   99.70   19.91
  -4  13   7   94.96   20.61
  -4  13   6 2875.79  181.54
   4  13  -6 2711.97  148.75
  -4  13   6 2879.83  171.81
   4  13  -6 2398.44  163.92
   4 -13  -6 2769.45  163.08
   4 -13  -6 2386.71  166.32
  -4  13   6 2679.18  192.27
  -4  13   6 2309.42  164.47
   4  13  -6 2587.76  152.40
  -4  13   6 2348.64  159.08
   4  13  -6 2335.46  164.87
  -4  13   5  665.83   62.43
  -4  13   5  737.74   60.98
   4  13  -5  609.39   53.79
   4 -13  -5  651.41   50.40
   4 -13  -5  541.92   52.85
  -4  13   5  642.92   71.06
  -4  13   5  548.11   45.21
   4  13  -5  620.47   45.51
   4  13  -4   29.04    8.68
   4 -13  -4   47.06   14.37
  -4  13   4   34.38   13.32
   4 -13  -4   38.57   14.72
   4  13  -4   38.62   13.02
   4 -13  -4   34.88    9.73
  -4  13   4   42.72   17.66
  -4  13   4   29.89    6.59
   4 -13  -3 1240.19   62.43
  -4  13   3 1323.47   92.07
   4  13  -3 1164.89   66.12
   4 -13  -3 1283.55   72.61
  -4  13   2 1134.00   84.68
   4  13  -2 1150.72   80.09
   4 -13  -2 1147.87   83.78
  -4  13   2 1388.89  104.94
   4 -13  -2 1246.38   80.99
   4  13  -2 1212.14   83.68
  -4  13   2 1391.09  100.00
   4 -13  -2 1231.46   87.83
  -4  13   2 1070.23   78.39
   4  13  -1  398.51   36.93
   4  13  -1  387.93   32.74
   4 -13  -1  354.15   35.83
  -4  13   1  334.94   37.13
  -4  13   1  523.71   53.89
  -4  13   1  422.16   49.15
  -4 -13   1  420.02   41.52
   4 -13  -1  366.72   39.12
  -4  13   1  387.53   37.92
   4 -13   0  580.60   36.18
   4  13   0  582.54   28.39
  -4  13   0  581.65   53.89
  -4 -13   0  581.70   42.27
   4  13   0  527.20   34.78
  -4  13   0  533.99   42.42
   4 -13   1 1581.91  100.70
   4  13   1 1592.09   91.77
   4 -13   1 1471.18  105.09
  -4  13  -1 1504.81  121.36
  -4 -13  -1 1667.89  110.88
   4 -13   1 1274.67  104.44
  -4  13  -1 1536.05  112.68
   4  13   1 1365.89   99.55
  -4 -13  -1 1360.45  104.54
   4  13   2   14.72    4.99
   4 -13   2   10.68    7.39
   4 -13   2   11.68    9.78
  -4 -13  -2   16.67   13.37
  -4 -13  -2   17.57    9.08
  -4  13  -2    9.73    9.73
   4  13   2    5.69    6.94
   4 -13   2   11.18   10.23
  -4  13  -2   14.27   10.78
  -4  13  -2   28.34   15.77
  -4  13  -3  862.79   76.60
  -4  13  -3 1086.89   84.53
  -4  13  -3 1001.81   97.41
   4 -13   3  865.03   73.80
   4  13   3  800.16   68.36
   4 -13   3  880.05   75.55
  -4 -13  -3 1094.93   85.18
  -4  13  -3 1007.30   89.97
  -4  13  -4  501.06   51.70
  -4  13  -4  453.50   63.12
   4 -13   4  364.13   42.67
  -4 -13  -4  446.46   52.35
  -4 -13  -4  432.84   66.22
   4  13   4  344.42   39.12
   4 -13   4  381.79   44.66
  -4  13  -4  458.89   58.63
   4  13   5  385.58   46.46
  -4  13  -5  606.90   59.33
  -4  13  -5  434.49   65.27
  -4 -13  -5  560.34   62.83
  -4 -13  -5  595.37   78.59
   4  13   5  430.69   45.76
  -4  13  -5  621.47   71.76
   4 -13   5  447.06   50.45
  -4  13  -6  160.43   38.27
  -4 -13  -6  131.84   39.32
   4  13   6   95.91   22.26
  -4  13  -6  163.97   30.59
  -4 -13  -6  143.71   34.88
   4 -13   6  143.07   26.90
  -4  13  -6  146.81   37.48
  -4  13  -7 2003.77  147.66
  -4 -13  -7 2012.90  178.30
  -4  14   9    7.04   15.42
  -4  14   9    5.19    9.88
   4  14  -9    7.63    7.93
   4 -14  -9   -1.30   11.13
   4 -14  -9   11.73   11.43
   4  14  -9   14.97   11.33
  -4  14   8  703.70   74.40
   4  14  -8  649.91   47.76
   4  14  -8  560.24   57.39
   4  14  -8  625.41   41.57
   4 -14  -8  701.66   59.68
   4 -14  -8  547.76   59.23
  -4  14   8  728.35   62.43
  -4  14   8  667.67   79.89
  -4  14   8  638.68   62.63
  -4  14   8  569.62   59.18
   4  14  -8  577.60   58.58
  -4  14   7  350.80   46.56
   4  14  -7  294.96   25.50
   4  14  -7  291.82   36.13
   4 -14  -7  299.90   34.58
   4 -14  -7  273.86   36.43
   4  14  -7  332.19   26.90
  -4  14   7  323.21   51.35
  -4  14   7  250.35   33.48
   4  14  -7  261.63   35.33
  -4  14   7  349.36   40.42
  -4  14   7  302.60   37.78
  -4  14   6   65.72   19.66
  -4  14   6   56.14   16.47
  -4  14   6   33.23   19.81
   4 -14  -6   55.14   14.17
   4  14  -6   43.11   15.17
  -4  14   6   67.82   17.42
   4 -14  -6   51.75   14.92
   4  14  -6   53.49   10.53
  -4  14   6   52.30   12.67
   4  14  -6   53.84   15.32
  -4  14   5   31.29   13.92
   4  14  -5   35.98   13.32
  -4  14   5   22.31   10.63
   4 -14  -5   30.69   11.98
   4 -14  -5   16.32    8.13
  -4  14   5   20.71   15.02
  -4  14   5   23.40    7.63
   4  14  -5   23.75    7.78
  -4  14   4 1323.72   96.31
   4 -14  -4 1137.49   93.46
   4  14  -4 1238.99   89.22
   4 -14  -4 1031.50   86.43
   4 -14  -4 1344.63   85.68
  -4  14   4 1407.11  113.23
   4  14  -4 1123.22   80.74
   4 -14  -4 1430.66   93.46
   4 -14  -3   97.66   19.81
   4  14  -3   84.68   15.77
   4 -14  -3   67.12   17.66
   4 -14  -3   87.63   14.77
  -4  14   3  104.84   26.15
   4  14  -3   84.38   17.62
  -4  14   3   70.01   11.63
   4  14  -2 1298.87   50.80
   4 -14  -2 1278.96   57.93
   4 -14  -2 1497.98   54.99
   4  14  -2 1362.20   58.43
  -4  14   2 1648.28   92.62
  -4  14   2 1574.77   83.88
  -4  14   2 1222.82   50.10
   4 -14  -2 1439.94   66.97
   4  14  -1 2668.75   67.07
   4 -14  -1 2569.60   79.94
  -4 -14   1 2835.17   95.46
   4  14  -1 2549.64   78.64
  -4  14   1 2832.63  116.82
   4 -14  -1 2876.54   94.26
  -4  14   1 2473.54   81.64
   4 -14   0 1289.24   90.62
   4  14   0 1318.93   84.83
  -4 -14   0 1360.90   97.91
   4  14   0 1286.85   91.27
  -4  14   0 1350.87  110.13
  -4  14   0 1335.75   98.70
   4 -14   1  440.82   40.57
   4  14   1  412.08   40.57
   4 -14   1  420.52   43.76
  -4  14  -1  465.78   52.05
   4  14   1  446.41   34.38
  -4  14  -1  472.01   58.13
   4 -14   1  429.05   45.46
  -4  14  -1  435.98   49.30
  -4 -14  -1  425.01   44.46
  -4 -14  -1  480.85   48.00
  -4  14  -2   50.20   16.27
   4 -14   2   35.73   11.18
   4 -14   2   33.93   12.97
  -4 -14  -2   27.30   15.02
  -4  14  -2   39.02   16.27
   4  14   2   22.61   10.98
   4  14   2   80.34    9.93
  -4  14  -2   16.92   16.62
  -4 -14  -2   42.02   13.77
   4 -14   2   35.68   13.92
  -4  14  -2   38.92   16.02
   4  14   3 3795.71  207.49
  -4 -14  -3 3899.36  241.57
   4  14   3 3277.84  223.01
   4 -14   3 3381.24  229.10
   4 -14   3 3599.60  233.14
  -4  14  -3 4010.29  252.30
  -4  14  -3 3905.85  260.88
  -4  14  -3 3276.65  231.94
  -4  14  -3 4462.64  244.96
  -4 -14  -4  126.60   37.23
  -4  14  -4  176.40   30.34
  -4 -14  -4  166.12   31.14
  -4  14  -4  149.95   37.43
   4  14   4  125.70   21.71
   4 -14   4  136.68   26.45
   4 -14   4  116.02   23.05
  -4  14  -4  152.05   34.73
  -4 -14  -5  599.66   66.47
  -4  14  -5  585.19   60.33
  -4  14  -5  490.58   70.96
  -4 -14  -5  508.84   76.40
   4  14   5  477.45   49.40
   4 -14   5  505.10   55.04
  -4  14  -5  595.12   71.96
  -4 -14  -6   86.48   33.88
   4  14   6   53.29   17.42
  -4  14  -6  174.35   30.74
  -4 -14  -6   92.97   28.74
  -4  14  -6   84.38   29.74
   4  14   6   73.40   19.71
   4 -14   6   92.42   22.95
  -4  14  -6   71.81   28.59
  -4  14  -7  457.94   53.19
   4 -14   7  323.46   44.51
  -4  15   9   -1.30   10.53
   4  15  -9    7.04   11.68
   4 -15  -9    6.59    9.23
   4 -15  -9    6.04    9.28
   4  15  -9    5.64    9.33
   4  15  -8  270.66   36.53
  -4  15   8  321.96   47.71
   4  15  -8  275.90   26.50
   4 -15  -8  280.29   36.18
   4 -15  -8  254.84   37.13
  -4  15   8  366.37   41.17
  -4  15   8  267.92   38.07
  -4  15   8  305.04   53.24
  -4  15   8  271.01   36.93
   4  15  -8  247.96   36.13
  -4  15   7   11.98   13.72
   4  15  -7    9.48   11.08
   4 -15  -7   54.09   14.17
   4  15  -7   23.35    7.63
  -4  15   7    8.93    9.78
   4 -15  -7    9.08    9.13
  -4  15   7   22.46   16.42
  -4  15   7    6.29   11.13
  -4  15   7   19.21   10.48
   4  15  -7   14.67   10.43
  -4  15   6 2645.50  168.02
  -4  15   6 2685.77  160.73
   4  15  -6 2292.70  154.14
  -4  15   6 2035.81  144.56
   4 -15  -6 2222.24  154.74
  -4  15   6 2190.75  153.84
  -4  15   6 2424.99  181.39
   4  15  -6 2352.33  140.87
   4 -15  -6 2435.66  150.20
   4  15  -6 2185.81  153.69
  -4  15   5   97.51   21.91
  -4  15   5   94.61   20.66
   4  15  -5   97.61   19.61
   4 -15  -5   78.84   15.32
   4 -15  -5   65.62   16.47
  -4  15   5   69.06   16.82
  -4  15   5   94.41   27.65
  -4  15   5   66.37   12.33
   4  15  -5   79.49   13.42
  -4  15   4 2337.06  142.87
   4 -15  -4 1865.65  137.83
   4 -15  -4 2118.54  129.49
   4  15  -4 2007.71  133.44
  -4  15   4 2111.21  157.84
   4 -15  -4 1830.77  132.24
   4  15  -4 1899.18  124.45
   4  15  -3  716.73   54.39
   4 -15  -3  590.68   58.48
   4  15  -3  650.26   55.89
  -4  15   3  788.78   76.75
   4 -15  -3  714.38   53.44
  -4  15   3  549.21   47.31
   4 -15  -3  706.95   60.28
   4 -15  -2 2662.22  191.07
   4  15  -2 3123.40  184.63
   4 -15  -2 2890.96  188.48
  -4  15   2 3520.51  216.17
   4 -15  -2 3232.33  185.83
   4  15  -2 3004.39  189.02
  -4  15   2 3446.21  209.13
  -4  15   2 2720.25  183.79
   4 -15  -2 3421.86  197.51
   4  15  -1  366.47   32.49
   4  15  -1  312.53   35.18
   4 -15  -1  341.47   35.73
  -4 -15   1  366.67   40.57
  -4  15   1  405.74   49.80
  -4  15   1  391.47   49.25
   4 -15  -1  338.53   38.82
  -4  15   1  300.30   35.43
   4 -15   0 1483.85  103.44
   4  15   0 1630.21   97.86
  -4 -15   0 1619.88  112.03
   4  15   0 1462.55  103.69
  -4  15   0 1594.48  124.80
  -4  15   0 1341.59  108.24
   4 -15   1 3230.29  199.65
  -4  15  -1 3769.87  222.46
   4  15   1 3510.23  191.47
   4 -15   1 3037.72  203.60
  -4  15  -1 3491.77  228.75
   4  15   1 3120.41  200.60
  -4 -15  -1 3549.20  212.23
  -4  15  -1 2903.94  204.94
   4 -15   1 3308.93  208.39
  -4  15  -1 3175.50  213.08
  -4 -15  -1 2980.93  203.70
   4 -15   2 1051.56   78.29
   4 -15   2  960.24   81.14
  -4  15  -2 1014.39   86.13
  -4 -15  -2 1223.57   92.42
  -4  15  -2 1148.02  105.04
   4  15   2  949.02   77.65
  -4 -15  -2 1114.59  101.70
   4  15   2 1146.32   68.66
   4 -15   2  963.29   84.33
  -4  15  -2 1048.07   93.12
  -4  15  -2 1268.88   95.91
   4 -15   2  976.01   79.79
   4  15   3   76.30    9.73
  -4  15  -3   88.97   22.80
   4 -15   3   61.38   18.11
  -4  15  -3   69.51   20.16
  -4 -15  -3  109.08   25.05
  -4  15  -3   81.94   30.14
   4  15   3   77.10   17.37
   4 -15   3   70.46   20.16
  -4  15  -3   91.97   26.20
  -4 -15  -4  207.24   49.10
  -4  15  -4  193.17   32.44
  -4 -15  -4  203.95   35.68
  -4  15  -4  166.37   40.17
  -4  15  -4  167.17   30.69
   4  15   4  165.57   25.85
   4 -15   4  169.36   29.49
  -4  15  -4  185.43   37.13
   4 -15   4  149.25   26.25
  -4  15  -5 3566.67  257.94
  -4  15  -5 4104.35  238.43
  -4 -15  -5 3947.66  247.81
  -4 -15  -5 3687.33  272.16
   4  15   5 2992.41  218.42
   4 -15   5 3437.53  229.64
  -4  15  -5 3905.25  256.19
  -4 -15  -6   40.32   28.59
   4  15   6   24.70   13.62
  -4  15  -6   26.15   16.27
  -4 -15  -6   31.69   20.06
  -4  15  -6   24.15   18.26
   4  15   6   10.08   10.33
   4 -15   6   18.16   12.92
  -4  15  -6   25.95   20.71
  -4  16   9   68.56   19.76
   4  16  -9   60.73   18.61
   4 -16  -9   55.94   18.81
  -4  16   9   40.32   17.37
   4 -16  -9   51.30   18.16
  -4  16   8  567.57   65.77
   4  16  -8  508.84   54.39
   4 -16  -8  598.91   55.84
   4 -16  -8  500.06   55.74
  -4  16   8  623.86   58.33
  -4  16   8  534.09   74.45
  -4  16   8  506.44   56.24
   4  16  -8  511.58   55.29
  -4  16   7 1388.29  105.04
  -4  16   7 1285.25   94.11
  -4  16   7 1010.94   88.77
   4 -16  -7 1184.20   87.43
   4  16  -7 1040.63   88.67
   4 -16  -7 1049.97   90.42
   4  16  -7 1263.94   77.15
  -4  16   7 1060.20  109.88
  -4  16   7 1010.84   83.98
   4  16  -7 1022.72   88.13
  -4  16   6   18.31   13.52
   4  16  -6   13.02   11.28
   4 -16  -6   17.22   11.18
  -4  16   6   38.12   14.82
  -4  16   6   21.91   12.82
  -4  16   6   14.22   16.62
   4  16  -6   25.30    9.03
  -4  16   6   13.52    8.68
   4 -16  -6   13.57   11.38
   4  16  -6   18.36   11.83
  -4  16   5  628.35   58.58
  -4  16   5  656.95   58.88
   4 -16  -5  588.18   48.55
   4  16  -5  529.90   50.95
   4 -16  -5  500.36   50.20
  -4  16   5  469.07   49.65
  -4  16   5  611.34   70.16
  -4  16   5  412.58   39.87
   4  16  -5  514.23   42.37
  -4  16   4  504.40   52.65
  -4  16   4  514.33   50.10
   4  16  -4  479.00   43.61
   4 -16  -4  382.94   46.46
   4  16  -4  442.72   45.21
   4 -16  -4  355.29   41.57
   4 -16  -4  508.94   42.86
  -4  16   4  521.27   63.37
   4  16  -4  390.23   37.53
  -4  16   4  441.42   46.06
   4  16  -3  306.69   31.94
   4 -16  -3  227.15   33.53
   4 -16  -3  353.00   33.28
   4  16  -3  289.92   33.63
  -4  16   3  353.55   49.50
  -4  16   3  226.70   26.50
   4 -16  -3  352.60   38.92
   4  16  -3  249.60   28.09
   4 -16  -2   99.10   20.76
  -4  16   2  106.84   25.55
   4 -16  -2   70.56   18.06
   4  16  -2   83.98   15.67
   4 -16  -2   76.70   14.87
   4 -16  -2   78.49   16.62
   4  16  -2   79.34   17.32
  -4  16   2   69.76   23.10
  -4  16   2   78.49   15.42
   4 -16  -1 2861.42  202.30
   4  16  -1 3312.82  195.21
   4 -16  -1 3129.29  200.60
  -4 -16   1 3484.88  209.53
   4  16  -1 3213.17  201.05
  -4  16   1 4062.88  231.04
  -4  16   1 3493.86  223.46
  -4  16   1 2862.42  201.05
   4 -16  -1 3629.49  210.43
  -4  16   0  560.19   55.39
   4 -16   0  529.00   52.55
   4 -16   0  552.10   50.75
   4  16   0  679.20   47.85
  -4 -16   0  704.15   61.03
   4  16   0  595.47   52.89
  -4  16   0  645.72   69.11
  -4  16   0  567.07   56.79
   4 -16   1  131.09   20.56
   4 -16   1  111.73   20.21
  -4  16  -1  131.44   31.94
  -4  16  -1  104.09   22.16
  -4 -16  -1  129.99   24.55
   4  16   1  132.34   16.97
  -4  16  -1  146.81   29.04
  -4 -16  -1  119.71   22.11
   4  16   1  102.55   19.76
   4 -16   1  116.82   21.96
   4 -16   1  124.90   24.40
  -4  16  -1  113.03   24.30
   4 -16   2  266.22   33.73
   4 -16   2  272.96   35.38
  -4 -16  -2  343.07   43.01
  -4  16  -2  294.57   39.37
  -4  16  -2  322.81   43.56
  -4  16  -2  329.15   52.25
  -4 -16  -2  320.76   49.30
   4  16   2  339.08   27.65
   4 -16   2  342.97   41.67
  -4  16  -2  308.24   43.86
   4  16   2  296.11   34.68
   4  16   3 3801.60  203.65
  -4  16  -3 4115.98  238.18
  -4 -16  -3 3880.90  238.23
  -4  16  -3 3940.23  259.19
   4 -16   3 3573.16  229.69
  -4  16  -3 3188.42  228.70
   4  16   3 3154.59  218.02
   4 -16   3 2918.66  220.11
  -4  16  -3 3691.27  244.46
  -4 -16  -4   84.78   32.54
  -4  16  -4   92.12   22.70
  -4 -16  -4   55.04   21.31
  -4  16  -4   63.67   28.04
   4  16   4   81.74   18.06
   4 -16   4   81.84   22.26
  -4  16  -4   70.86   21.61
  -4  16  -4   59.38   22.75
   4 -16   4   55.29   16.97
  -4 -16  -5  177.15   48.45
  -4  16  -5  193.07   33.88
  -4 -16  -5  195.06   38.67
  -4  16  -5  194.86   45.41
   4  16   5  191.22   29.09
   4 -16   5  178.45   31.69
  -4  16  -5  179.34   33.78
  -4  16  -5  171.46   38.77
  -4 -16  -6  765.33   98.70
  -4  16  -6  540.83   77.10
  -4  16  -6  732.05   71.56
   4 -16   6  633.59   66.17
  -4  16  -6  746.22   86.48
   4 -17  -9   14.12   11.28
  -4  17   9    6.54   13.37
  -4  17   8  991.63   90.42
   4 -17  -8  809.34   77.00
   4 -17  -8  948.77   77.00
  -4  17   8 1043.03   80.89
  -4  17   8  930.80  102.00
  -4  17   8  698.16   73.80
   4  17  -8  807.80   76.25
  -4  17   7  634.64   65.07
   4  17  -7  513.03   54.54
  -4  17   7  631.65   58.78
   4 -17  -7  528.65   55.59
   4 -17  -7  547.61   52.40
   4  17  -7  589.13   44.36
  -4  17   7  522.36   71.81
  -4  17   7  509.54   55.24
  -4  17   7  479.50   49.30
   4  17  -7  468.12   52.65
  -4  17   6 2873.45  179.49
   4  17  -6 2218.55  162.23
  -4  17   6 3163.37  178.05
   4  17  -6 2533.62  169.01
  -4  17   6 2373.54  167.87
   4 -17  -6 2951.89  166.92
  -4  17   6 2725.29  197.71
   4  17  -6 2641.21  155.54
   4 -17  -6 2422.14  168.07
  -4  17   6 2148.34  156.84
   4  17  -6 2332.42  167.17
  -4  17   5  681.20   61.43
   4  17  -5  514.18   51.20
  -4  17   5  652.40   61.73
   4 -17  -5  569.92   55.39
   4  17  -5  586.19   55.59
   4 -17  -5  592.52   51.55
  -4  17   5  530.30   55.09
  -4  17   5  700.96   76.75
   4  17  -5  561.14   46.56
  -4  17   4  579.35   54.74
   4  17  -4  530.65   48.40
   4 -17  -4  439.53   51.40
   4 -17  -4  491.77   49.55
   4 -17  -4  552.45   47.56
   4  17  -4  547.61   51.60
  -4  17   4  546.47   66.37
  -4  17   4  473.06   50.65
   4  17  -4  486.78   43.76
  -4  17   4  632.69   60.58
   4  17  -3 1898.13  125.30
   4 -17  -3 1727.47  131.64
   4  17  -3 2032.37  131.24
   4 -17  -3 2265.15  128.30
  -4  17   3 1858.61  131.69
  -4  17   3 2408.62  160.08
  -4  17   3 1575.57  118.96
   4  17  -3 1703.12  120.76
   4 -17  -3 2392.50  139.87
   4 -17  -2  981.80   83.23
   4  17  -2 1053.51   60.93
   4  17  -2 1137.04   77.85
   4 -17  -2  983.15   80.29
   4  17  -2 1148.57   83.48
  -4  17   2 1066.08   85.03
  -4  17   2 1361.50  106.99
  -4  17   2 1268.43  100.15
  -4  17   2  974.27   77.45
   4 -17  -2 1272.67   90.72
   4 -17  -1  391.97   43.96
   4 -17  -1  437.63   43.41
   4  17  -1  456.64   39.72
  -4 -17   1  460.59   48.45
  -4  17   1  420.52   46.91
   4  17  -1  436.83   44.06
  -4  17   1  529.00   60.08
  -4  17   1  504.25   58.78
  -4  17   1  402.75   43.66
   4 -17  -1  498.51   50.35
   4 -17   0   34.33   11.48
   4 -17   0   42.12   11.98
  -4 -17   0   22.26   11.23
   4  17   0   23.15    9.73
  -4  17   0   18.76   11.33
   4  17   0   15.82   10.03
  -4  17   0   17.47   15.87
  -4  17   0   12.77    9.03
   4 -17   1 1833.41  133.04
  -4  17  -1 1843.34  138.67
   4 -17   1 2052.68  133.09
  -4 -17  -1 2149.53  144.41
   4  17   1 2177.68  124.90
  -4  17  -1 2360.46  154.69
   4 -17   1 1824.63  134.13
  -4  17  -1 2218.40  161.63
   4  17   1 1946.34  133.63
  -4 -17  -1 1819.59  133.68
   4 -17   1 2035.41  141.02
  -4  17  -1 1916.89  143.47
   4 -17   2  148.60   25.95
   4 -17   2  127.80   23.20
  -4 -17  -2  152.05   35.13
  -4 -17  -2  202.10   32.83
  -4  17  -2  165.72   29.69
  -4  17  -2  190.37   32.69
   4  17   2  161.58   25.50
   4  17   2  188.13   19.61
  -4  17  -2  173.21   38.22
   4 -17   2  164.17   29.09
  -4  17  -2  167.02   32.04
   4 -17   3   65.62   16.97
  -4 -17  -3   96.71   24.30
   4  17   3   58.28    9.93
   4 -17   3   32.14   13.72
  -4  17  -3   53.49   19.51
  -4  17  -3   65.02   20.71
  -4  17  -3   91.62   30.74
   4  17   3   49.65   15.17
   4 -17   3   24.45   14.57
  -4  17  -3   41.57   20.11
  -4 -17  -4  154.74   45.26
  -4  17  -4  213.38   34.33
  -4  17  -4  179.39   32.88
  -4 -17  -4  151.20   31.69
  -4  17  -4  151.40   39.02
   4  17   4  130.89   23.65
   4 -17   4  125.60   27.60
  -4  17  -4  161.13   35.78
   4 -17   4  125.30   24.85
  -4  17  -5 1010.24   85.73
  -4  17  -5  691.03   77.60
  -4 -17  -5  944.52   91.97
  -4 -17  -5 1143.33  122.31
   4  17   5  737.19   70.56
   4 -17   5  904.85   81.39
  -4  17  -5  957.20   97.91
  -4  17  -5  910.24  100.65
  -4  17  -6   90.97   31.79
   4 -17   6   85.43   23.75
  -4  18   8 2815.46  184.93
   4  18  -8 2194.94  166.47
   4 -18  -8 2222.39  167.72
   4 -18  -8 2522.69  166.32
  -4  18   8 2859.37  173.21
  -4  18   8 2482.57  198.91
  -4  18   8 2265.95  168.52
  -4  18   7  934.69   85.78
   4  18  -7  763.68   72.26
  -4  18   7 1041.13   81.69
   4  18  -7  848.17   76.80
   4 -18  -7  972.77   76.10
   4 -18  -7  879.70   78.54
   4  18  -7  965.28   65.67
  -4  18   7  892.73   98.55
   4  18  -7  738.98   74.20
  -4  18   6  846.22   74.95
   4  18  -6  695.12   64.02
  -4  18   6  965.03   76.05
   4 -18  -6  726.31   67.82
   4  18  -6  799.76   69.51
  -4  18   6  747.72   69.06
  -4  18   6  872.52   91.27
   4  18  -6  787.54   57.74
  -4  18   6  635.94   58.03
   4 -18  -6  789.38   64.87
   4  18  -6  622.51   64.92
  -4  18   5  521.27   53.89
   4  18  -5  489.03   48.30
  -4  18   5  560.49   56.99
   4 -18  -5  472.56   50.05
   4 -18  -5  561.68   48.85
   4  18  -5  513.63   51.65
  -4  18   5  428.30   49.85
  -4  18   5  555.65   68.56
   4  18  -5  461.58   42.02
  -4  18   4 2185.66  136.18
   4  18  -4 1717.84  124.60
   4 -18  -4 1829.27  129.59
   4 -18  -4 1938.40  125.65
   4  18  -4 1842.74  130.14
  -4  18   4 1830.52  132.39
  -4  18   4 2065.95  154.99
   4  18  -4 1662.00  119.76
  -4  18   4 2210.36  144.06
   4 -18  -3  191.22   29.74
   4  18  -3  123.80   21.81
   4 -18  -3  118.96   24.25
   4  18  -3  170.16   25.75
   4 -18  -3  164.12   23.25
  -4  18   3  129.79   24.15
  -4  18   3  193.32   37.78
  -4  18   3  107.04   18.11
   4  18  -3  125.95   19.66
   4 -18  -2  383.84   46.01
   4  18  -2  461.48   42.72
  -4  18   2  465.03   49.75
   4  18  -2  525.66   48.80
  -4  18   2  530.45   63.07
  -4  18   2  556.25   61.23
  -4  18   2  418.02   43.01
   4 -18  -2  513.18   52.25
   4 -18  -1  394.52   45.71
   4 -18  -1  485.19   46.86
   4  18  -1  512.93   43.31
  -4  18   1  471.01   50.75
   4  18  -1  477.00   47.41
  -4  18   1  579.70   63.87
  -4  18   1  602.45   64.87
  -4 -18   1  543.02   53.34
  -4  18   1  383.94   44.91
   4 -18  -1  541.03   54.19
  -4  18   0  697.32   73.40
   4 -18   0  508.79   53.14
   4 -18   0  574.81   53.29
   4  18   0  651.41   49.30
  -4 -18   0  642.23   61.73
   4  18   0  623.46   55.94
  -4  18   0  585.19   58.48
  -4  18   0  590.53   59.08
  -4 -18  -1   98.01   22.90
   4 -18   1   77.10   18.66
   4 -18   1   74.60   17.47
  -4  18  -1   56.79   18.31
   4 -18   1   68.36   16.57
  -4  18  -1   83.09   24.95
   4  18   1   93.17   19.81
  -4 -18  -1   67.02   16.97
   4  18   1   87.43   14.62
  -4  18  -1  103.49   29.79
  -4  18  -1   83.58   22.11
   4 -18   1   80.49   21.81
   4 -18   2  805.00   73.45
   4 -18   2  850.06   76.90
  -4  18  -2  889.18   82.19
  -4 -18  -2 1142.08   90.72
  -4  18  -2 1167.33  106.14
  -4 -18  -2 1076.61  100.70
  -4  18  -2 1121.47   92.77
   4  18   2  856.30   75.40
   4  18   2 1060.44   67.12
  -4  18  -2  960.14   89.32
   4 -18   2  951.51   83.38
   4 -18   3  545.57   56.79
  -4  18  -3  711.89   70.81
  -4  18  -3  622.86   67.37
  -4  18  -3  865.28   91.07
  -4 -18  -3  772.07   74.85
   4  18   3  675.36   61.23
   4 -18   3  592.42   60.88
  -4  18  -3  678.45   74.60
   4 -18   3  694.17   67.97
   4  18   3  781.10   49.20
  -4 -18  -4  252.30   58.38
   4 -18   4  175.60   30.54
  -4  18  -4  219.36   36.28
  -4  18  -4  214.17   37.82
  -4 -18  -4  253.25   42.42
  -4  18  -4  256.64   49.95
   4  18   4  229.79   32.09
  -4  18  -4  262.68   45.46
   4 -18   4  211.53   35.43
   4 -18   4  194.51   29.84
  -4  18  -5  801.86   74.05
  -4  18  -5  804.20   91.92
  -4 -18  -5  700.21   79.39
   4  18   5  571.42   59.93
  -4  18  -5  744.22   84.28
   4 -18   5  618.72   67.42
  -4  18  -6  501.80   72.86
   4  19  -8   12.18   14.17
   4 -19  -8   19.96   13.97
  -4  19   8    6.29   10.73
  -4  19   8   20.56   18.71
  -4  19   8   14.42   13.67
  -4  19   7  748.31   71.76
   4  19  -7  567.22   58.53
  -4  19   7  745.42   67.22
   4  19  -7  634.49   63.57
   4 -19  -7  714.63   62.48
  -4  19   7  615.23   81.29
   4  19  -7  689.73   52.55
  -4  19   7  603.35   62.88
   4 -19  -7  581.65   62.23
   4  19  -7  606.90   62.48
  -4  19   6  875.61   75.70
   4  19  -6  694.42   65.22
  -4  19   6  961.69   77.65
   4 -19  -6  729.45   68.96
   4 -19  -6  854.35   67.42
   4  19  -6  703.70   67.77
  -4  19   6  712.54   69.51
  -4  19   6  826.11   89.82
   4  19  -6  775.21   58.63
  -4  19   6  673.61   59.13
   4  19  -6  662.48   67.27
  -4  19   5  141.02   26.30
   4  19  -5  128.54   23.20
   4 -19  -5  131.34   21.71
   4 -19  -5  111.63   23.45
   4  19  -5  110.38   23.60
  -4  19   5  107.79   23.65
  -4  19   5  158.64   29.59
  -4  19   5  110.18   32.59
   4  19  -5  128.05   19.36
  -4  19   4  109.03   22.66
   4  19  -4   64.12   17.37
   4  19  -4   50.95   15.52
  -4  19   4   85.18   23.25
   4 -19  -4   61.13   15.27
   4 -19  -4   62.13   17.17
  -4  19   4   68.61   19.01
  -4  19   4  101.10   28.79
   4  19  -4   45.91   12.97
   4 -19  -3 1600.02  125.65
   4  19  -3 1781.81  119.96
   4  19  -3 1945.24  127.95
   4 -19  -3 2166.90  123.90
  -4  19   3 1822.43  128.94
  -4  19   3 2150.08  152.35
  -4  19   3 1413.69  113.23
   4  19  -3 1716.34  116.57
   4 -19  -2   17.96   13.57
   4  19  -2   13.02    8.43
   4 -19  -2    8.78    9.88
   4  19  -2   36.43   12.03
   4  19  -2   44.21   14.62
  -4  19   2   23.00   13.47
  -4  19   2   29.04   17.66
  -4  19   2   51.30   13.97
   4 -19  -1   36.78   15.32
   4 -19  -1   40.87   14.67
   4  19  -1   32.04    6.14
   4 -19  -1   20.26   10.53
  -4 -19   1   42.82   16.17
   4  19  -1   31.34   10.88
  -4  19   1   24.55   13.22
   4  19  -1   30.19   13.12
  -4  19   1   17.86   13.57
  -4  19   1   37.63   18.81
  -4  19   1   21.06   10.08
   4 -19   0    6.74    8.28
   4 -19   0   18.91    9.98
  -4 -19   0    7.44    8.78
  -4  19   0    8.38   10.08
   4  19   0   -0.70    8.08
   4  19   0   12.33   10.23
  -4  19   0    6.24   15.07
  -4  19   0    2.74    6.99
   4 -19   1  976.31   84.48
   4 -19   1 1186.99   87.73
   4 -19   1 1076.56   88.22
  -4 -19  -1 1253.76   98.90
  -4  19  -1 1133.70   94.81
   4  19   1 1341.64   81.59
  -4  19  -1 1318.28  106.19
  -4  19  -1 1315.39  114.42
   4  19   1 1121.42   88.47
  -4  19  -1 1019.38   94.01
  -4 -19  -1 1029.46   83.58
   4 -19   1 1211.45   96.66
   4  19   2  101.40   21.81
   4 -19   2   88.67   19.16
   4 -19   2   82.74   19.96
  -4 -19  -2  118.91   31.54
  -4  19  -2  114.77   26.45
  -4 -19  -2  107.34   25.50
  -4  19  -2  104.89   26.90
   4  19   2  124.15   17.32
  -4  19  -2  118.41   32.98
  -4  19  -2  114.12   27.10
   4 -19   2   95.86   24.15
   4 -19   3  414.88   45.91
  -4  19  -3  450.46   55.49
  -4 -19  -3  553.60   62.78
  -4  19  -3  607.49   62.33
  -4  19  -3  589.33   75.80
   4  19   3  464.18   49.30
   4 -19   3  462.83   50.40
  -4  19  -3  520.47   63.22
   4 -19   3  502.30   56.14
  -4 -19  -4   82.39   33.93
   4 -19   4   49.80   15.72
  -4  19  -4   75.85   23.55
  -4  19  -4  149.55   29.79
  -4 -19  -4  111.83   29.19
  -4  19  -4  115.02   35.63
  -4  19  -4   61.78   25.25
   4 -19   4   62.18   18.71
   4 -19   4   69.71   22.61
  -4  19  -5  143.47   32.04
  -4  19  -5  155.64   37.82
   4 -19   5  140.97   30.54
  -4  20   8  271.01   41.17
  -4  20   8  297.11   56.29
  -4  20   7  138.87   30.04
   4  20  -7   93.02   23.60
   4 -20  -7  129.44   24.70
   4 -20  -7  105.69   24.35
  -4  20   7  112.28   25.45
  -4  20   7  116.97   25.65
  -4  20   7  119.06   34.83
  -4  20   6  352.65   44.51
   4  20  -6  296.01   37.28
  -4  20   6  390.97   47.41
   4 -20  -6  287.38   39.72
   4  20  -6  300.30   40.77
   4 -20  -6  329.40   38.47
  -4  20   6  306.79   41.42
  -4  20   6  336.58   56.24
   4  20  -6  310.98   32.49
   4  20  -6  255.54   38.67
  -4  20   5   25.65   13.47
   4  20  -5   20.56   11.93
  -4  20   5   37.03   16.52
   4 -20  -5   18.11   10.53
   4  20  -5   79.39   20.11
  -4  20   5   29.14   15.37
  -4  20   5   23.75   18.16
   4  20  -5   22.70    9.78
   4 -20  -5   57.69   17.62
   4  20  -4 1033.65   83.73
   4  20  -4 1150.92   91.27
   4 -20  -4 1074.57   88.87
   4 -20  -4 1234.55   87.18
  -4  20   4 1065.43   92.02
  -4  20   4 1222.37  110.28
   4  20  -4 1039.34   79.44
  -4  20   4 1372.33  104.24
   4  20  -3    9.68    9.03
   4 -20  -3   19.41   14.77
   4  20  -3   30.14   11.83
   4 -20  -3   20.56    9.88
   4 -20  -3   12.08   10.13
   4  20  -3   25.15   12.48
  -4  20   3   12.87   13.37
  -4  20   3   26.45   17.62
  -4  20   3    8.83    6.94
   4  20  -2  111.08   19.66
   4 -20  -2  133.68   27.10
  -4  20   2  133.14   26.00
   4 -20  -2   89.82   21.71
   4  20  -2  119.66   22.90
   4  20  -2  123.60   20.71
  -4  20   2   99.45   28.54
  -4  20   2   98.11   19.41
   4 -20  -1  550.81   58.93
   4  20  -1  703.20   44.21
   4 -20  -1  713.43   62.43
   4  20  -1  761.74   58.08
  -4 -20   1  748.91   69.01
  -4  20   1  829.70   81.09
  -4  20   1  694.82   66.92
  -4  20   1  929.40   85.08
   4  20  -1  695.37   63.17
  -4  20   1  558.99   59.23
   4 -20  -1  724.66   68.96
   4 -20   0 1072.32   95.91
   4 -20   0 1394.53  101.15
   4  20   0 1391.29   85.33
   4  20   0 1453.41   94.16
  -4 -20   0 1655.66  115.52
  -4  20   0 1307.01  106.39
   4  20   0 1330.11  101.25
  -4  20   0 1548.38  124.85
  -4  20   0 1236.45  103.39
   4 -20   1   22.06   12.08
   4 -20   1   21.01   10.93
  -4 -20  -1   49.00   18.06
  -4  20  -1   32.19   15.27
  -4  20  -1   26.50   16.82
   4  20   1   25.40   13.42
   4 -20   1   18.06   10.93
   4  20   1   35.68   11.28
  -4  20  -1   30.39   20.31
  -4  20  -1   43.46   17.62
   4 -20   1   37.58   18.11
   4 -20   2   22.66   12.92
   4 -20   2   24.90   11.73
  -4 -20  -2   28.19   16.97
  -4 -20  -2   31.49   16.07
  -4  20  -2   45.21   18.76
   4  20   2   29.49   13.12
  -4  20  -2   35.33   21.96
  -4  20  -2   34.08   16.62
  -4  20  -2   14.77   12.97
   4  20   2   25.00   10.08
   4 -20   2   11.23   13.42
   4 -20   3 1080.16   90.37
   4  20   3 1155.16   94.66
  -4  20  -3 1188.54  104.39
  -4 -20  -3 1444.18  114.22
   4 -20   3 1135.50   95.71
  -4  20  -3 1546.83  131.84
  -4  20  -3 1365.84  108.48
  -4  20  -3 1297.27  112.88
   4 -20   3 1413.49  107.69
   4 -20   4  215.77   31.04
  -4  20  -4  288.38   42.12
  -4 -20  -4  340.87   50.40
   4 -20   4  225.90   34.08
  -4  20  -4  215.67   39.22
   4  20   4  228.95   33.88
  -4  20  -4  345.61   58.03
   4 -20   4  254.94   40.52
  -4  20  -4  269.32   46.96
  -4  20  -5   38.02   20.76
  -4  21   8    2.99   15.32
   4 -21  -7  123.70   24.30
  -4  21   7   99.20   25.60
  -4  21   7  137.28   36.23
  -4  21   6   82.19   22.41
   4  21  -6   89.47   20.76
   4 -21  -6   81.29   18.96
   4  21  -6   61.13   20.06
   4 -21  -6   66.47   20.06
  -4  21   6  112.88   26.75
  -4  21   6   74.45   21.66
  -4  21   6   72.21   27.70
   4  21  -6   73.70   15.62
   4  21  -6   73.85   20.21
  -4  21   5  577.80   57.34
  -4  21   5  615.13   63.47
   4  21  -5  507.19   51.70
   4 -21  -5  476.50   54.04
   4 -21  -5  599.66   54.04
   4  21  -5  572.86   58.63
  -4  21   5  449.56   55.04
  -4  21   5  567.47   71.61
   4  21  -5  508.79   47.11
   4 -21  -4   39.62   13.52
   4 -21  -4   35.78   15.02
  -4  21   4   73.35   22.51
   4  21  -4   68.96   17.27
   4  21  -4   43.51   16.22
  -4  21   4  101.55   30.79
   4  21  -4   43.06   13.12
   4  21  -3    9.23    9.03
   4 -21  -3   19.61   10.88
  -4  21   3    5.74   11.28
   4  21  -3   13.27   10.63
  -4  21   3   33.23   14.57
   4 -21  -3   20.31   11.43
  -4  21   3   17.91   15.72
  -4  21   3    9.28    7.44
   4 -21  -2  517.37   53.89
   4  21  -2  559.09   49.05
  -4  21   2  541.87   57.29
   4  21  -2  531.10   53.74
  -4  21   2  628.75   70.21
  -4  21   2  421.96   46.36
   4  21  -2  457.59   45.71
   4  21  -1  462.58   28.84
   4 -21  -1  360.14   44.21
   4 -21  -1  427.85   46.36
   4  21  -1  452.45   42.47
  -4 -21   1  431.94   51.05
  -4  21   1  383.59   48.40
   4  21  -1  435.98   47.56
  -4  21   1  480.15   60.23
  -4  21   1  574.91   65.82
  -4  21   1  345.96   43.46
   4 -21  -1  454.40   52.50
   4  21  -1  342.87   40.17
   4 -21   0    6.99    8.43
   4 -21   0   11.73   10.18
   4  21   0   19.36    6.74
  -4  21   0   21.76   14.02
   4  21   0   17.81   10.33
   4  21   0   52.55   16.92
  -4  21   0    4.44   13.67
  -4 -21   0   29.49   13.67
  -4  21   0   14.37   11.28
   4 -21   1  268.62   33.88
   4 -21   1  220.61   30.94
  -4  21  -1  263.68   42.82
   4 -21   1  189.82   30.99
  -4 -21  -1  290.22   42.02
  -4  21  -1  202.95   35.98
   4  21   1  272.26   28.94
   4  21   1  241.27   34.33
  -4  21  -1  254.10   47.76
  -4  21  -1  206.49   35.13
   4 -21   1  256.49   40.12
   4 -21   2  478.25   50.30
  -4 -21  -2  632.89   66.97
  -4  21  -2  495.37   59.73
  -4  21  -2  701.51   70.51
  -4  21  -2  766.33   83.38
   4  21   2  553.00   55.94
   4  21   2  608.24   47.16
  -4  21  -2  498.86   61.48
   4 -21   2  568.02   62.68
   4 -21   2  486.23   53.54
   4 -21   3   23.00   11.53
   4 -21   3   15.92   11.78
  -4  21  -3   26.85   18.26
  -4 -21  -3   35.83   18.56
  -4  21  -3   44.61   19.21
   4  21   3    9.23   10.83
  -4  21  -3   22.16   22.16
  -4  21  -3   12.53   14.72
   4 -21   3   47.11   19.71
  -4  21  -4   56.79   21.71
  -4  21  -4   55.59   22.61
   4 -21   4   76.45   20.86
  -4  22   7    4.99   13.27
  -4  22   7    5.69   15.97
  -4  22   6  459.49   52.40
  -4  22   6  510.59   57.29
   4  22  -6  432.84   51.90
   4 -22  -6  455.35   48.90
  -4  22   6  451.65   54.09
  -4  22   6  449.31   65.87
   4  22  -6  433.14   42.22
  -4  22   5   56.49   19.01
   4  22  -5   49.85   15.82
   4 -22  -5   52.25   18.06
   4 -22  -5   72.26   18.41
   4  22  -5   50.25   19.26
  -4  22   5   85.68   24.00
  -4  22   5   66.07   20.96
  -4  22   5   44.11   22.31
   4  22  -5   60.83   14.82
  -4  22   4    9.33   12.28
   4  22  -4   18.21   12.28
   4 -22  -4   15.17   11.03
   4 -22  -4   18.41    9.83
   4  22  -4   14.22   13.07
  -4  22   4   12.92   12.87
  -4  22   4   18.71   16.42
   4  22  -4   16.42   10.08
   4  22  -3  720.77   66.07
   4 -22  -3  669.27   62.88
   4  22  -3  659.64   58.33
  -4  22   3  666.58   66.92
  -4  22   3  792.73   82.04
   4 -22  -3  736.49   60.53
  -4  22   3  846.47   79.54
   4  22  -3  567.47   53.99
  -4  22   3  484.34   51.50
   4 -22  -2  276.95   37.73
  -4  22   2  302.35   41.72
   4  22  -2  260.78   36.33
  -4  22   2  362.73   51.75
  -4  22   2  223.16   31.14
   4  22  -2  221.21   29.99
   4 -22  -1  299.26   39.72
   4 -22  -1  338.63   41.27
   4  22  -1  418.72   40.02
  -4  22   1  370.86   47.06
   4  22  -1  405.25   45.41
  -4  22   1  383.09   54.19
  -4  22   1  429.55   57.44
  -4  22   1  295.46   39.57
   4  22  -1  305.54   37.18
   4 -22  -1  394.77   48.90
   4  22   0   89.17   19.91
   4  22   0  112.43   13.72
   4 -22   0  108.09   22.01
  -4 -22   0  131.24   27.84
  -4  22   0  119.31   26.90
   4  22   0  119.91   24.05
   4  22   0  105.69   19.26
  -4  22   0  114.62   32.24
  -4  22   0   99.70   23.35
   4 -22   1 1178.16   95.26
   4 -22   1 1006.05   90.42
   4  22   1 1342.78   83.83
  -4  22  -1 1124.77  101.95
   4 -22   1 1149.67   95.41
  -4 -22  -1 1465.89  113.37
   4  22   1 1433.90   90.62
   4  22   1 1268.33   99.55
  -4  22  -1 1571.18  128.74
  -4  22  -1 1487.00  117.07
  -4  22  -1 1035.99   99.45
   4 -22   1 1349.02  108.14
   4 -22   2   51.65   20.26
   4 -22   2   43.11   15.62
   4 -22   2   35.23   13.57
   4  22   2   51.60   13.07
  -4 -22  -2   49.80   20.51
  -4  22  -2   44.06   18.86
  -4  22  -2   37.08   17.42
   4  22   2   44.96   17.22
  -4  22  -2   81.79   30.54
  -4  22  -2   58.48   20.46
   4  22   2   39.17   13.37
   4 -22   3  152.45   27.70
  -4 -22  -3  224.70   40.82
  -4  22  -3  154.29   33.53
   4  22   3  178.30   30.09
  -4  22  -3  211.23   46.71
  -4  22  -3  199.85   39.42
  -4  22  -4  192.82   40.12
  -4  23   6  392.12   49.25
   4 -23  -6  416.37   46.36
  -4  23   6  372.91   49.90
  -4  23   6  399.36   62.18
  -4  23   5   16.72   13.87
   4  23  -5   22.70   13.42
   4 -23  -5   32.64   13.72
   4  23  -5   15.47   12.97
  -4  23   5   20.26   14.42
  -4  23   5   14.87   15.22
   4  23  -5   23.85   10.93
   4  23  -4  327.70   40.22
   4 -23  -4  319.67   42.62
   4 -23  -4  414.18   44.11
   4  23  -4  369.07   46.31
  -4  23   4  319.57   46.01
  -4  23   4  401.30   58.13
   4  23  -4  328.70   37.03
  -4  23   4  508.69   58.38
  -4  23   3   53.19   21.01
   4 -23  -3   26.00   13.57
   4 -23  -3   68.46   17.17
   4  23  -3   41.52   15.57
   4  23  -3   46.66   18.21
  -4  23   3   48.25   22.90
  -4  23   3   26.55   15.37
   4  23  -3   57.64   15.92
  -4  23   2  392.67   55.64
   4  23  -2  337.48   42.52
  -4  23   2  402.25   49.35
  -4  23   2  270.86   35.88
   4  23  -2  302.25   36.28
   4  23  -1   94.61   20.41
   4 -23  -1  170.71   28.04
   4 -23  -1  103.00   22.95
   4  23  -1  137.58   22.70
  -4  23   1  147.86   29.09
   4  23  -1  138.13   26.75
  -4  23   1  148.21   34.88
  -4  23   1   80.14   20.56
  -4  23   1  158.14   34.98
   4  23   0    6.89    9.33
   4 -23   0   15.47   10.73
   4 -23   0    8.43    9.43
  -4 -23   0   12.38   12.38
  -4  23   0    1.70   10.88
   4  23   0    8.33   10.58
   4  23   0    4.54    8.33
  -4  23   0   11.83   17.02
  -4  23   0    1.50    8.03
   4 -23   1    5.39   12.92
   4 -23   1    5.19    9.08
  -4 -23  -1    3.84   12.72
   4 -23   1    9.08    9.88
  -4  23  -1    3.49   12.92
  -4  23  -1   -4.09   11.58
   4  23   1   -2.84   11.28
   4  23   1   23.95   10.88
  -4  23  -1    7.54   14.12
  -4  23  -1    6.74    8.58
  -4 -23  -2  118.41   29.69
  -4  23  -2   75.25   24.20
   4  23   2   85.83   22.46
   4 -23   2   64.02   18.56
  -4  23  -2   91.17   25.40
   4 -23   3  162.78   28.74
  -4  23  -3  154.04   33.38
  -4  23  -3  202.75   38.27
  -4  23  -4  409.74   60.28
   4 -24  -5  121.06   24.70
  -4  24   5  109.38   26.95
   4  24  -5  121.81   21.46
   4  24  -4  209.18   31.44
   4 -24  -4  209.98   31.39
   4  24  -4  194.06   34.13
  -4  24   4  187.23   35.23
  -4  24   4  212.38   43.11
   4  24  -4  175.15   26.75
   4  24  -3  173.76   29.04
   4  24  -3  190.52   32.74
  -4  24   3  200.95   35.78
  -4  24   3  192.07   40.72
   4  24  -3  178.65   26.60
  -4  24   3  266.02   43.16
   4  24  -2  982.75   75.25
   4  24  -2  916.63   80.74
  -4  24   2  903.46   85.18
  -4  24   2 1106.80   99.90
   4  24  -2  741.03   69.46
   4 -24  -1  457.69   51.20
   4 -24  -1  423.61   49.35
   4  24  -1  529.70   48.50
  -4  24   1  477.15   56.74
  -4  24   1  642.42   72.71
  -4  24   1  592.52   67.97
   4  24  -1  388.58   45.71
   4  24   0  115.07   23.25
   4 -24   0  116.12   23.35
  -4 -24   0  136.48   30.24
   4  24   0  168.27   24.60
  -4  24   0  141.27   31.39
   4  24   0  153.15   29.49
  -4  24   0  179.59   39.67
  -4  24   0  137.48   27.65
  -4 -24  -1   76.30   24.60
  -4  24  -1   52.85   19.86
   4  24   1   61.08   19.86
   4  24   1   77.50   17.52
   4 -24   1   59.58   17.42
  -4  24  -1   35.63   16.12
  -4  24  -2   95.46   26.90
   4 -24   2   84.33   20.86
  -4  24  -2  122.01   27.99
   4  25  -5   61.58   16.32
   4 -25  -4   47.61   16.12
  -4  25   4   51.55   21.36
   4  25  -4   38.02   14.12
   4  25  -3  149.65   27.74
  -4  25   3  156.49   33.43
   4  25  -3  156.34   25.15
   4  25  -2  196.21   29.19
   4  25  -2  169.36   31.49
  -4  25   2  204.00   36.68
   4  25  -2  145.11   25.70
   4 -25  -1   22.85   13.37
  -4  25   1   12.53   15.87
   4  25  -1   23.55   13.27
   4  25  -1   15.57   13.77
  -4  25   0  170.26   33.43
   4  25   0  211.93   28.54
   4 -25   0  124.25   25.45
  -4  25  -1  110.28   27.30
   4 -25   1   20.31   12.58
   4 -25   2   34.53   14.62
   4  26  -4   28.79   13.52
   4  26  -2  121.76   24.00
  -4  26   2   99.70   27.05
   4  26  -1   -2.25   11.28
  -4  26   1   -5.59   15.87
   4  26   0   80.04   19.16
   4 -26   0   75.45   20.36
   4 -26   1    4.14    9.43
   4  27  -1  442.67   47.11
  -5   0  11   13.07   24.55
   5   0 -11    8.83   10.08
  -5   0  10  329.85   64.42
   5   0 -10  249.60   36.23
   5   0 -10  314.58   36.63
   5   0 -10  295.56   32.24
  -5   0   9  197.96   45.71
   5   0  -9  193.82   25.20
   5   0  -9  121.81   23.90
   5   0  -9  170.06   21.96
  -5   0   8  785.84   83.83
   5   0  -8  588.13   56.59
   5   0  -8  695.17   53.94
   5   0  -8  649.61   50.15
  -5   0   7   33.48   17.47
   5   0  -7   17.71    7.14
   5   0  -7   26.05    7.49
  -5   0   6 1124.12   93.91
   5   0  -6 1073.87   78.49
   5   0  -6  994.58   77.15
   5   0  -6 1087.19   71.01
   5   0  -6 1048.02   69.16
   5   0  -6 1108.95   63.57
  -5   0   5    6.49    8.83
   5   0  -5   13.32    9.03
   5   0  -5    2.15    5.69
   5   0  -5   12.67    4.74
   5   0  -5    6.09    4.34
   5   0  -5    5.19    3.64
   5   0  -4  545.17   44.66
   5   0  -4  454.85   39.42
   5   0  -4  489.58   35.93
   5   0  -4  487.28   31.24
   5   0  -3  387.78   34.48
  -5   0   3  361.33   33.78
   5   0  -3  319.86   28.79
  -5   0   3  300.00   30.99
   5   0  -3  307.79   27.89
  -5   0   2 2139.75  135.43
   5   0  -2 2075.78  129.04
  -5   0   2 2187.46  132.59
   5   0  -2 2064.40  126.10
  -5   0   1  401.20   39.87
   5   0  -1  402.70   35.88
   5   0  -1  421.06   31.04
  -5   0   1  411.18   34.48
   5   0   0  796.52   39.42
  -5   0   0  833.20   49.10
  -5   0   0  784.64   29.94
  -5   0   0  775.71   31.89
   5   0   0  820.22   26.20
  -5   0  -1    7.58    3.54
   5   0   1    6.84    5.49
   5   0   1   13.27    3.54
  -5   0  -1   16.62    6.89
   5   0   1    8.58    6.39
  -5   0  -2   90.27   16.67
   5   0   2   85.43   15.42
  -5   0  -2   77.65    7.73
   5   0   2   85.38   14.57
   5   0   3  923.42   76.25
  -5   0  -3 1143.08   83.83
   5   0   3 1016.18   74.20
   5   0   4   44.76   13.82
  -5   0  -4   50.10   16.07
   5   0   4   42.47   12.72
  -5   0  -5   19.06   18.16
   5   0   5   24.30   11.48
  -5   0  -5   45.76   16.92
   5   0   5   15.37    9.13
   5   0   6  124.10   23.75
  -5   0  -6  147.51   37.82
  -5   0  -6  170.71   33.38
   5   0   6  136.08   24.00
   5   0   7   99.55   22.01
  -5   0  -7  153.10   34.88
  -5  -1  11    4.24   19.21
  -5   1  11    8.78   21.16
   5  -1 -11    3.79    9.88
   5   1 -11   -1.25   10.03
   5   1 -11    7.14    8.13
  -5  -1  10   59.88   31.14
  -5   1  10   18.11   21.36
   5  -1 -10    9.58   10.98
   5  -1 -10   28.39   11.93
   5   1 -10   18.76   11.48
   5   1 -10   20.56    9.78
   5   1 -10   18.61   10.08
  -5   1   9 1971.99  165.72
   5  -1  -9 1566.59  124.85
   5   1  -9 1610.20  125.25
   5  -1  -9 1971.99  123.90
   5   1  -9 1937.55  123.60
   5  -1  -9 1939.15  118.22
   5   1  -9 1789.80  118.27
  -5  -1   8  402.15   58.48
  -5   1   8  464.23   62.48
   5  -1  -8  340.92   39.67
   5   1  -8  396.51   41.82
   5  -1  -8  394.32   37.18
   5   1  -8  389.88   37.13
   5  -1  -8  398.46   34.08
   5   1  -8  357.09   33.93
  -5  -1   7    7.63   11.73
  -5   1   7    4.04   11.88
   5  -1  -7    5.54    5.34
   5   1  -7    4.34    4.69
   5  -1  -7    8.93    5.14
   5   1  -7    5.39    5.04
   5  -1  -6   15.67    4.19
  -5  -1   6   10.63   10.33
  -5   1   6   19.71   12.82
   5  -1  -6    4.34    8.08
   5   1  -6   16.37    9.08
   5  -1  -6   25.65    6.94
   5   1  -6   12.82    5.09
   5   1  -6    4.99    6.19
   5  -1  -6   15.77    5.19
   5   1  -6   16.57    5.99
   5   1  -6   11.18    2.89
  -5   1   5 3047.00  193.57
   5   1  -5 2878.09  177.90
   5  -1  -5 2906.68  179.89
   5  -1  -5 2855.08  177.35
  -5   1   5 2745.40  169.96
   5   1  -5 2799.64  176.60
   5   1  -5 2968.66  166.27
   5  -1  -5 3134.63  168.02
   5  -1  -5 2917.51  167.42
   5   1  -5 3121.60  168.47
   5  -1  -5 2677.43  165.87
   5   1  -5 2908.83  169.31
   5   1  -4  122.86   17.57
   5  -1  -4  136.78   19.01
   5  -1  -4  100.30   14.57
  -5   1   4   80.24   12.97
   5   1  -4   88.27   13.27
   5   1  -4   97.36   11.43
   5  -1  -4   96.91   11.53
   5  -1  -4   96.46    7.98
   5   1  -4   94.51    8.38
   5  -1  -4   96.91    9.33
   5   1  -3  807.05   58.18
   5  -1  -3  808.10   59.33
   5  -1  -3  729.35   53.14
   5   1  -3  791.63   53.44
  -5   1   3  727.61   57.14
   5   1  -3  694.72   51.50
   5  -1  -3  735.79   52.10
  -5   1   3  698.96   57.29
   5  -1  -2    0.75    2.79
  -5   1   2    6.04    5.24
   5  -1  -2    4.49    3.84
  -5   1   2   14.87    7.44
   5   1  -2   10.78    4.44
   5   1  -2   15.02    6.69
   5  -1  -2   20.46    7.09
  -5   1   1  241.37   29.19
   5   1  -1  254.89   26.05
  -5  -1   1  240.57   16.57
   5  -1  -1  223.11   24.70
   5   1  -1  265.37   24.85
  -5   1   1  234.43   24.35
   5  -1  -1  231.14   21.01
   5   1  -1  228.40   20.11
   5   1   0   -0.75    1.80
  -5   1   0   20.46    8.78
  -5  -1   0   17.02    5.29
   5  -1   0   22.61    8.08
  -5   1   0   27.15    5.79
   5  -1   0   23.20    5.29
   5   1   0   25.95    5.19
   5   1   0   27.35    7.78
   5  -1   0   13.62    6.09
  -5   1   0   29.94    7.58
   5   1   1 2227.63  125.75
   5  -1   1 2276.18  128.15
  -5   1  -1 2077.93  132.34
   5   1   1 2342.85  139.37
  -5  -1  -1 2233.82  138.77
  -5   1  -1 2301.93  138.62
   5  -1   1 2315.10  141.07
   5  -1   1 2154.27  135.83
  -5   1  -2   28.44    9.58
  -5  -1  -2   10.03    7.78
  -5   1  -2   16.72    4.54
   5  -1   2    3.84    6.04
   5   1   2    9.68    6.59
   5  -1   2    8.68    6.29
   5  -1   3    2.89    7.19
   5   1   3    2.94    4.74
  -5   1  -3   19.81    4.14
  -5  -1  -3    4.69    8.43
  -5   1  -3   10.18    7.73
   5   1   3    1.60    6.74
   5  -1   3   21.06    9.28
   5   1   4  330.74   38.87
   5  -1   4  324.86   38.77
  -5  -1  -4  465.38   49.50
  -5   1  -4  427.60   47.26
  -5  -1  -4  465.78   59.83
   5   1   4  361.03   38.37
   5  -1   4  418.52   40.02
  -5  -1  -5  240.47   45.56
  -5  -1  -5  249.11   38.07
   5   1   5  172.21   27.15
   5  -1   5  172.91   26.75
  -5   1  -5  185.93   32.69
   5   1   5  196.21   27.74
   5  -1   5  190.22   27.05
  -5   1  -6  136.53   36.63
   5   1   6   86.18   19.86
   5  -1   6   83.58   19.66
  -5  -1  -6  115.62   30.19
  -5   1  -6  149.20   30.69
  -5  -1  -6  121.56   34.33
   5   1   6   90.67   19.91
   5  -1   6   92.02   20.41
   5   1   7   22.11   11.58
   5  -1   7   33.28   14.62
  -5  -1  -7   54.59   22.66
  -5   1  -7   39.67   21.06
  -5  -2  11   49.65   32.34
  -5   2  11   21.96   25.95
   5  -2 -11   32.04   14.27
   5   2 -11   47.51   15.62
   5   2 -11   39.87   13.87
  -5  -2  10  781.65   97.91
  -5   2  10  849.06  104.14
   5  -2 -10  543.12   60.18
   5   2 -10  578.45   60.93
   5  -2 -10  751.96   61.78
   5   2 -10  701.41   60.18
   5   2 -10  655.20   56.14
  -5  -2   9   11.08   14.92
  -5   2   9   20.61   19.36
   5  -2  -9   11.18    9.68
   5  -2  -9   14.87    8.38
   5   2  -9   16.62    8.88
   5   2  -9    2.45    7.24
   5   2  -9    6.34    6.74
  -5  -2   8  214.77   40.72
  -5   2   8  234.73   43.81
   5  -2  -8  185.23   27.45
   5   2  -8  146.86   25.25
   5  -2  -8  194.56   24.25
   5   2  -8  194.01   24.30
   5  -2  -8  205.54   21.76
   5   2  -8  186.13   22.66
  -5  -2   7  115.42   27.00
  -5   2   7   83.68   24.70
   5   2  -7   92.32   14.47
   5  -2  -7   75.75   13.27
   5  -2  -7   88.62   12.23
   5   2  -7   66.17   12.38
  -5  -2   6  792.58   70.56
  -5   2   6  831.30   75.65
   5  -2  -6  743.92   59.58
   5   2  -6  708.29   55.79
   5   2  -6  704.40   57.59
  -5   2   6  656.95   46.66
   5  -2  -6  772.12   51.35
   5   2  -6  799.41   52.05
   5   2  -6  652.06   41.32
   5  -2  -6  749.56   47.51
   5   2  -6  694.47   50.75
   5  -2  -6  783.39   45.76
  -5   2   5 1076.06   84.93
   5  -2  -5  938.24   71.51
   5   2  -5  873.62   67.52
   5  -2  -5  923.97   69.06
  -5   2   5  927.31   64.32
   5   2  -5  891.28   68.11
   5   2  -5  958.90   58.83
   5  -2  -5  995.17   60.53
   5  -2  -5  984.35   61.13
   5   2  -5 1004.56   61.63
   5  -2  -5  921.27   57.74
   5   2  -5  905.90   62.68
   5   2  -4  117.72   17.96
   5  -2  -4  128.89   17.62
   5  -2  -4  149.90   21.16
  -5   2   4  139.07   18.11
   5   2  -4  134.33   12.28
   5   2  -4  118.51   16.52
   5   2  -4  125.85   13.97
   5  -2  -4  131.34   10.93
   5  -2  -4  118.17   14.42
   5   2  -4  134.58   11.78
   5  -2  -4  124.70   10.78
  -5   2   3    8.53    5.74
   5   2  -3   57.64   11.93
   5  -2  -3    3.99    4.69
   5  -2  -3   50.90    9.93
   5   2  -3   82.69   11.68
   5   2  -3   66.72   11.13
   5   2  -3   43.31    4.29
   5  -2  -3   40.32    8.83
  -5   2   3   46.81   11.18
   5   2  -3   47.46    4.29
   5   2  -2  141.02   13.42
  -5   2   2  166.32   21.21
   5   2  -2  172.06   17.52
   5  -2  -2  145.06   16.12
  -5   2   2  149.25   18.51
   5  -2  -2  168.91   15.87
  -5   2   1  796.82   65.47
   5   2  -1  824.76   60.33
   5   2  -1  914.43   58.98
   5  -2  -1  809.49   60.13
  -5  -2   1  813.14   50.60
   5  -2  -1  808.35   54.79
   5  -2  -1  821.32   53.44
  -5   2   1  819.37   60.58
   5   2  -1  829.30   53.09
  -5   2   0 1729.82   72.36
   5  -2   0 1755.12   61.13
  -5   2   0 1513.05   52.45
  -5  -2   0 1615.34   45.41
   5  -2   0 1571.53   39.77
   5   2   0 1620.73   33.38
  -5   2   0 1554.96   42.37
   5  -2   0 1516.89   45.66
   5   2   0 1751.72   54.34
   5   2   1  719.32   54.09
   5   2   1  699.11   42.37
   5  -2   1  735.34   46.96
  -5   2  -1  725.06   53.04
  -5  -2  -1  845.12   57.49
  -5   2  -1  765.68   55.59
   5  -2   1  732.15   53.04
   5  -2   1  815.43   58.53
   5  -2   2    0.80    5.44
  -5   2  -2    6.69    4.79
  -5  -2  -2    6.54    6.94
  -5   2  -2    7.09    5.64
   5   2   2   13.57    7.19
   5  -2   2    3.29    5.39
  -5   2  -3   54.89    9.83
   5   2   3   57.44   14.77
   5  -2   3   46.26   13.87
  -5  -2  -3   70.71   17.12
  -5   2  -3   62.43   15.52
   5   2   3   75.40   15.02
   5  -2   3   56.69   13.32
  -5  -2  -4  184.73   39.12
   5   2   4  174.35   26.35
   5  -2   4  179.14   26.45
  -5  -2  -4  245.76   34.83
  -5   2  -4  235.93   33.03
   5   2   4  172.36   25.15
   5  -2   4  199.55   26.30
   5  -2   5 1379.51   94.26
  -5  -2  -5 1740.35  114.77
  -5   2  -5  972.37   69.11
  -5   2  -5 1696.48  110.58
   5   2   5 1360.80   91.97
   5  -2   5 1553.07   94.96
   5   2   5 1259.55   91.87
  -5  -2  -5 1750.43  132.59
  -5  -2  -6    5.39   17.17
   5   2   6   -1.15    7.44
  -5  -2  -6    5.94   15.07
   5  -2   6   13.07   10.28
  -5   2  -6   10.88   12.72
   5   2   6   11.73    9.78
   5  -2   6    2.30    7.58
   5   2   7  274.46   37.63
   5  -2   7  292.17   38.47
  -5  -2  -7  449.21   59.93
  -5   2  -7  428.90   56.39
  -5  -3  11    3.99   21.36
  -5   3  11    4.34   19.56
   5  -3 -11   -3.89   10.58
   5   3 -11    1.25    8.78
   5   3 -11    3.24    7.78
  -5  -3  10 1260.40  126.75
  -5   3  10 1122.57  124.55
   5  -3 -10  911.89   83.23
   5   3 -10  839.98   81.59
   5  -3 -10 1187.69   84.78
   5   3 -10 1091.23   82.44
   5   3 -10 1051.11   78.89
  -5  -3   9  165.52   39.62
  -5   3   9  166.92   41.82
   5  -3  -9  119.46   23.95
   5  -3  -9  179.44   24.70
   5   3  -9  172.96   24.25
   5   3  -9  143.47   20.96
   5   3  -9  114.67   23.05
  -5  -3   8  621.72   71.81
  -5   3   8  637.04   75.50
   5  -3  -8  505.00   52.35
   5  -3  -8  622.16   50.30
   5   3  -8  591.33   49.50
   5   3  -8  579.65   47.90
  -5  -3   7  264.87   40.17
  -5   3   7  327.20   48.05
  -5   3   7  212.53   18.21
   5  -3  -7  319.72   28.44
   5   3  -7  307.34   28.49
   5  -3  -7  257.84   23.15
   5   3  -7  274.51   26.95
  -5  -3   6  917.33   76.25
  -5   3   6  933.40   83.13
   5  -3  -6  780.05   65.37
   5   3  -6  759.34   60.28
  -5   3   6  774.46   55.24
   5   3  -6  789.73   63.62
   5  -3  -6  888.84   57.74
   5  -3  -6  848.42   52.99
   5   3  -6  772.77   57.84
   5  -3  -6  854.65   53.09
   5  -3  -5    0.75    5.84
   5   3  -5    7.24    5.09
  -5   3   5   11.38   11.83
   5  -3  -5    7.19    7.68
   5   3  -5    4.64    7.44
  -5   3   5    4.84    4.99
   5   3  -5    3.49    3.64
   5  -3  -5    3.34    3.74
   5  -3  -5   14.62    5.94
   5  -3  -5    5.69    2.84
   5   3  -5   10.58    5.69
   5   3  -4  248.41   24.70
   5   3  -4  220.56   17.02
  -5   3   4  204.89   23.60
   5  -3  -4  213.78   14.77
   5   3  -4  203.30   22.01
   5  -3  -4  229.10   20.81
   5  -3  -4  157.14   11.93
   5   3  -4  226.45   19.06
   5  -3  -4  236.98   24.00
   5   3  -3  128.84   16.82
  -5   3   3  117.97   17.96
   5   3  -3  117.42   14.27
   5   3  -3  114.97   13.97
   5   3  -3  124.75    8.58
   5  -3  -3  119.51   14.17
   5  -3  -3  112.18   14.57
   5  -3  -2    9.53    5.19
   5   3  -2   17.86    6.84
  -5   3   2   20.66    8.38
   5  -3  -2   19.66    6.94
   5   3  -2   11.58    2.40
   5   3  -2   26.00    6.09
  -5   3   2   17.71    8.13
   5  -3  -2   13.42    3.64
   5   3  -1  271.71   21.11
   5   3  -1  287.73   25.05
  -5   3   1  268.42   28.34
  -5   3   1  282.44   32.19
   5   3  -1  283.49   27.70
  -5  -3   1  270.91   20.86
  -5   3   1  224.70   16.92
   5  -3  -1  226.90   25.65
   5  -3  -1  259.73   23.30
  -5   3   1  241.32   17.07
   5   3  -1  265.17   18.21
   5  -3  -1  252.85   21.01
  -5   3   0  369.72   35.18
   5  -3   0  345.66   28.24
  -5   3   0  397.71   41.02
  -5  -3   0  371.56   30.54
   5   3   0  389.63   32.24
  -5   3   0  392.22   30.24
   5  -3   0  401.60   36.48
   5   3   0  372.01   25.65
   5  -3   0  360.09   30.09
  -5   3  -1  127.35   17.96
   5  -3   1  116.07   12.77
   5   3   1  134.83   17.47
  -5  -3  -1  130.39   18.31
  -5   3  -1  114.22   16.87
   5  -3   1  110.83   15.67
   5  -3   1  127.80   19.06
  -5   3  -2  467.42   47.76
   5  -3   2  437.68   41.82
  -5  -3  -2  507.39   46.06
  -5   3  -2  421.56   42.12
   5  -3   2  486.58   40.12
  -5   3  -2  448.11   39.72
  -5   3  -3   88.08   15.52
  -5  -3  -3  134.08   29.79
  -5   3  -3  117.77   22.46
   5   3   3  118.66   20.71
   5  -3   3   93.07   18.56
  -5  -3  -3  118.37   22.66
   5  -3   3  106.19   18.86
  -5   3  -3  111.83   20.86
   5   3   3   80.59   16.52
   5  -3   3  101.25   17.42
  -5  -3  -4  637.98   72.71
   5   3   4  477.60   48.35
   5  -3   4  467.82   48.25
  -5  -3  -4  555.10   57.64
  -5   3  -4  650.81   58.53
  -5   3  -4  462.48   43.01
   5   3   4  459.69   46.06
   5  -3   4  569.52   48.65
  -5  -3  -5   23.30   20.66
   5   3   5   20.31   10.73
   5  -3   5   22.85   10.53
  -5   3  -5   38.82   15.22
   5   3   5   10.63    8.58
   5  -3   5   18.46   10.68
  -5   3  -5   25.40    8.88
  -5  -3  -6  424.06   64.27
   5  -3   6  345.91   40.92
  -5  -3  -6  429.65   55.99
  -5   3  -6  419.82   52.25
   5   3   6  266.82   37.33
   5   3   6  348.91   41.02
   5  -3   6  403.40   42.57
   5  -3   7   45.01   15.07
  -5  -3  -7   94.11   30.14
  -5   3  -7   83.73   25.25
   5   3   7   52.85   16.87
  -5  -4  11   41.22   27.79
  -5   4  11   21.46   25.30
   5  -4 -11   35.48   15.22
   5   4 -11   37.68   14.92
   5   4 -11   24.50   12.13
   5  -4 -10  890.13   81.39
  -5  -4  10 1038.19  114.02
  -5   4  10 1210.30  126.95
   5   4 -10  832.15   80.44
   5  -4 -10 1051.31   81.54
   5   4 -10 1038.99   79.79
   5   4 -10 1067.63   78.14
   5   4  -9   27.50   12.23
  -5  -4   9   25.45   17.47
  -5   4   9   37.73   21.66
   5  -4  -9   91.22   19.36
   5  -4  -9   43.11   12.82
   5   4  -9   40.82   12.53
   5   4  -9   55.19   13.57
  -5  -4   8 1562.90  130.09
  -5   4   8 1659.31  138.87
   5  -4  -8 1348.07  108.24
   5  -4  -8 1676.17  105.94
   5   4  -8 1634.70  105.84
   5   4  -8 1490.14  102.90
  -5  -4   7 1114.54   93.26
  -5   4   7 1260.65  105.54
  -5   4   7  947.87   65.47
   5  -4  -7 1219.98   74.95
   5   4  -7 1003.06   72.91
  -5  -4   6 1564.00  114.47
  -5   4   6 1687.60  125.85
   5  -4  -6 1465.64  106.69
  -5   4   6 1380.51   96.31
   5  -4  -6 1600.12   96.71
   5   4  -6 1429.01  102.90
   5   4  -6 1466.79   98.30
   5  -4  -6 1663.35   93.36
  -5   4   5 1697.48  117.67
   5  -4  -5 1428.76  102.55
   5   4  -5 1415.24   95.76
  -5   4   5 1383.55   96.91
   5   4  -5 1470.63   87.78
   5  -4  -5 1519.68   89.87
   5   4  -5 1396.38   97.86
   5  -4  -5 1556.51   92.12
   5  -4  -5 1456.51   99.30
   5   4  -4 2471.64   68.81
   5  -4  -4 2540.56   41.77
   5   4  -4 2524.79   55.24
  -5   4   4 2178.38   74.30
   5   4  -4 2473.74   49.85
   5   4  -4 2340.25   65.87
   5  -4  -4 2304.38   58.58
   5  -4  -4 2283.02   68.21
   5   4  -3 3647.51   82.04
   5   4  -3 3960.04   77.65
  -5   4   3 3528.94   97.91
   5  -4  -3 3721.46   77.95
   5   4  -3 3559.38   48.65
   5   4  -3 3815.33   77.10
   5  -4  -3 3787.73   82.49
   5   4  -2  949.12   63.37
  -5   4   2  949.81   68.41
  -5   4   2  864.23   69.41
   5  -4  -2  866.38   62.38
   5   4  -2  863.19   52.75
   5  -4  -2  901.76   61.18
   5  -4  -2  882.55   52.60
   5   4  -2  858.25   58.28
  -5   4   1 2914.71  177.05
   5   4  -1 2879.93  163.48
   5   4  -1 3052.79  174.10
  -5   4   1 2883.73  181.69
  -5  -4   1 2777.74  165.02
  -5   4   1 2486.86  160.43
   5  -4  -1 2895.00  173.21
   5  -4  -1 2891.01  167.77
   5   4  -1 2911.07  161.18
   5  -4  -1 3035.32  163.72
   5   4  -1 3115.07  168.12
  -5   4   0  141.52   21.16
  -5  -4   0  165.67   18.26
  -5   4   0  179.84   25.85
   5  -4   0  143.96   15.87
   5  -4   0  160.73   21.51
   5   4   0  146.16   17.07
   5   4   0  161.58   15.02
   5  -4   0  155.79   16.72
   5   4   0  148.41   12.82
   5  -4   1 2220.79  129.74
  -5  -4  -1 2269.99  139.87
  -5   4  -1 2250.28  138.18
   5  -4   1 2246.99  134.48
  -5   4  -1 1962.40  139.22
   5  -4   1 2227.13  141.22
   5  -4   2  103.44   17.91
  -5   4  -2  136.13   23.85
  -5  -4  -2  122.86   20.31
  -5   4  -2  103.44   18.16
   5  -4   2  108.98   16.62
  -5   4  -2  108.53   18.81
  -5   4  -3 1329.06   92.92
   5   4   3  949.07   80.14
   5  -4   3 1053.26   80.84
   5  -4   3  993.18   81.49
  -5  -4  -3 1180.56  102.60
  -5  -4  -3 1262.59   91.47
  -5   4  -3 1146.92   86.18
  -5   4  -3 1047.12   81.64
   5   4   3 1048.72   79.54
   5  -4   3 1147.87   79.34
  -5   4  -4   66.37   17.86
  -5  -4  -4   30.74   20.31
   5   4   4   40.52   13.02
   5  -4   4   50.35   14.37
  -5  -4  -4   63.32   20.21
  -5   4  -4   86.18   19.36
   5   4   4   64.12   15.27
  -5   4  -4   48.95   14.07
   5  -4   4   52.60   13.77
  -5  -4  -5   93.51   31.24
   5   4   5   31.59   13.22
   5  -4   5   40.47   13.97
  -5   4  -5  103.64   22.90
   5   4   5   31.59   12.38
   5  -4   5   38.32   13.12
   5   4   6   19.16   12.92
   5  -4   6   20.66   10.78
  -5  -4  -6   14.72   15.62
  -5   4  -6   21.36   13.22
   5   4   6   20.41   11.43
   5  -4   6   23.50   12.53
  -5  -4  -6    5.69   18.11
   5   4   7  598.71   63.02
   5  -4   7  720.57   66.77
  -5  -5  11    3.49   18.81
   5  -5 -11    2.64   10.13
   5   5 -11    1.25    9.33
   5   5 -11    3.44    8.08
   5   5 -10   79.69   20.81
  -5  -5  10   97.06   33.83
  -5   5  10  114.77   38.42
   5  -5 -10  107.09   24.10
   5  -5 -10  175.15   26.60
   5   5 -10  145.56   24.15
   5   5 -10  137.48   22.70
   5   5  -9   43.71   14.92
  -5  -5   9   31.34   18.91
  -5   5   9   14.32   18.36
   5  -5  -9   36.68   14.47
   5  -5  -9   56.74   14.87
   5   5  -9   34.93   12.58
   5   5  -9   71.36   15.37
   5  -5  -8 1554.71  111.73
  -5  -5   8 1752.92  132.19
  -5   5   8 2058.81  148.36
  -5   5   8 1378.51   90.62
   5  -5  -8 1930.52  109.18
   5   5  -8 1662.80  106.04
  -5  -5   7  130.09   26.55
  -5   5   7  161.33   33.43
  -5   5   7  110.83   14.92
   5  -5  -7   96.26   18.96
   5  -5  -7  127.90   17.71
   5   5  -7  126.90   18.36
   5  -5  -6   65.57   10.68
   5   5  -6   39.02   11.58
  -5   5   6   73.90   22.41
   5  -5  -6   39.47   13.92
  -5   5   6   49.40   11.33
   5  -5  -6   80.19   11.93
   5   5  -6   50.60    5.94
  -5   5   5 1792.89  122.76
   5  -5  -5 1143.68  102.40
   5   5  -5 1511.40   99.00
   5   5  -5 1631.76   92.87
  -5   5   5 1379.21  102.65
   5  -5  -5 1678.02   94.91
   5   5  -5 1563.65  103.44
   5  -5  -5 1648.08   97.36
   5  -5  -5 1468.43  103.20
   5   5  -4 3964.48  239.82
   5   5  -4 4412.84  236.78
   5   5  -4 3924.26  234.19
  -5   5   4 3697.41  245.86
   5  -5  -4 4241.03  231.79
   5  -5  -4 4274.66  239.03
   5   5  -4 4161.09  241.62
   5  -5  -4 4036.19  242.77
   5   5  -3 1262.49   48.25
   5   5  -3 1275.92   46.11
   5  -5  -3 1214.39   26.15
  -5   5   3 1124.77   58.43
   5   5  -3 1152.31   32.59
   5  -5  -3 1180.06   46.46
  -5   5   3 1196.67   32.44
   5   5  -3 1154.16   43.91
   5  -5  -3 1208.10   48.85
   5   5  -2   84.13   10.98
   5   5  -2  103.94   14.97
  -5   5   2   88.37   17.81
   5   5  -2   70.21    8.58
   5   5  -2   63.47   10.43
  -5   5   2   77.45    7.83
   5  -5  -2   78.54   12.58
   5  -5  -2   72.81   12.82
   5  -5  -2   83.83    7.14
  -5   5   1 6642.96  389.38
   5   5  -1 6987.93  384.84
  -5   5   1 6463.87  392.42
   5   5  -1 7146.21  373.81
  -5  -5   1 6031.43  376.20
  -5   5   1 5733.02  372.01
   5  -5  -1 6519.11  378.20
   5  -5  -1 6395.50  382.99
   5   5  -1 6949.70  372.41
   5   5  -1 7223.81  376.75
   5  -5  -1 7463.78  373.36
   5   5   0  533.74   26.70
  -5   5   0  494.37   32.93
   5  -5   0  521.02   32.88
  -5   5   0  614.73   49.75
   5   5   0  518.52   33.53
  -5  -5   0  547.26   36.73
   5  -5   0  601.76   43.16
   5   5   0  480.05   29.69
   5  -5   0  556.35   33.03
  -5   5   0  520.42   43.51
   5  -5   1  542.17   46.36
  -5  -5  -1  496.66   43.86
   5  -5   1  473.71   36.38
   5   5   1  498.21   37.18
   5  -5   1  518.72   39.72
  -5   5  -1  447.76   46.16
  -5   5  -2   32.14   13.12
   5  -5   2   29.04    7.04
   5  -5   2   26.30   10.53
  -5   5  -2   10.93   10.23
  -5  -5  -2   28.29   11.38
   5  -5   2   34.23   11.18
   5  -5   2   30.54    9.63
  -5   5  -3 5562.21  301.20
   5   5   3 4266.18  286.53
  -5  -5  -3 4892.79  313.98
  -5  -5  -3 5239.65  298.66
  -5   5  -3 4388.89  292.62
  -5   5  -3 4773.87  291.97
   5  -5   3 4458.95  288.23
   5  -5   3 5276.72  285.58
   5  -5   3 4850.52  288.23
  -5   5  -4  587.03   55.99
  -5  -5  -4  569.22   70.91
   5   5   4  398.81   44.91
   5  -5   4  452.50   47.31
  -5  -5  -4  548.16   58.18
  -5   5  -4  411.58   49.25
  -5   5  -4  537.13   53.99
   5   5   4  434.89   44.81
   5  -5   4  510.09   46.01
   5   5   5  161.13   27.35
   5  -5   5  219.56   31.34
  -5  -5  -5  261.58   41.47
  -5   5  -5  207.14   33.63
  -5   5  -5  234.63   35.63
   5   5   5  222.71   30.49
  -5  -5  -5  273.26   51.25
   5  -5   5  220.66   29.99
   5   5   6  137.43   25.60
   5  -5   6  171.11   28.14
  -5  -5  -6  250.40   43.21
  -5   5  -6  247.46   39.12
  -5  -5  -6  219.81   48.60
   5   5   6  180.59   28.39
   5  -5   6  192.82   29.44
  -5  -5  -7 1582.61  127.70
  -5   5  -7 1357.41  112.98
   5  -6 -11   17.57   12.82
   5   6 -11   22.90   12.28
   5   6 -11    7.19   10.18
   5   6 -10    5.59   10.38
  -5  -6  10   63.07   26.80
  -5   6  10   47.76   27.79
   5  -6 -10    5.64    9.88
   5  -6 -10    5.84    8.43
   5   6 -10    9.03   10.18
   5   6 -10    9.48    9.18
   5   6  -9    8.78    8.83
  -5  -6   9   29.19   17.91
  -5   6   9   36.68   22.51
   5  -6  -9   15.47   10.78
   5  -6  -9   16.87    8.98
   5   6  -9   12.87    9.53
   5   6  -9   16.97    9.13
  -5  -6   8  158.64   31.59
  -5   6   8  136.03   16.22
  -5   6   8  168.37   37.43
   5  -6  -8  189.62   23.75
   5   6  -8  141.72   21.91
   5  -6  -8  159.13   25.50
  -5  -6   7   36.43   14.37
  -5   6   7   61.78   21.66
   5   6  -7   27.30   10.98
  -5   6   7   39.67   13.62
   5  -6  -7   35.33   12.72
  -5   6   7   22.36    8.08
   5  -6  -7   36.98    9.98
   5   6  -7   26.85    9.73
  -5   6   6   79.34   21.91
   5   6  -6   61.53   14.22
   5  -6  -6   68.06   16.67
   5  -6  -6   65.52   11.43
   5   6  -6   63.22    6.99
  -5   6   6   42.42   11.58
   5   6  -6   65.67    7.29
   5  -6  -6   78.05   12.08
   5   6  -6   50.40   11.83
  -5   6   5 1150.17   89.52
   5  -6  -5 1006.75   63.72
   5  -6  -5  742.68   71.76
   5   6  -5  944.82   66.57
   5   6  -5 1055.60   62.83
  -5   6   5  980.85   75.05
   5   6  -5  951.26   66.12
   5  -6  -5 1060.59   67.22
   5  -6  -5  912.34   71.46
   5   6  -5 1002.81   72.36
   5   6  -4  424.96   33.88
   5   6  -4  376.55   30.69
   5   6  -4  372.11   29.94
  -5   6   4  387.58   39.82
   5  -6  -4  367.32   27.35
  -5   6   4  364.93   30.74
   5  -6  -4  374.56   32.78
   5  -6  -4  337.78   34.28
   5   6  -4  349.16   33.43
   5   6  -3    7.19    6.74
   5   6  -3    9.73    5.64
   5   6  -3    6.09    5.44
   5  -6  -3   21.76    4.24
  -5   6   3   11.53    7.78
   5   6  -3    1.65    3.59
  -5   6   3   45.21    7.04
   5  -6  -3   30.84    9.33
   5  -6  -3   15.47    7.24
   5   6  -2  370.66   19.36
   5   6  -2  365.27   27.15
   5   6  -2  347.91   18.31
  -5   6   2  333.44   17.37
   5  -6  -2  348.86   25.35
   5  -6  -2  356.74   27.15
   5   6  -2  342.62   21.96
  -5   6   2  381.09   35.98
  -5   6   1  956.95   75.10
   5   6  -1  962.59   69.66
  -5   6   1 1039.64   79.59
  -5  -6   1  980.55   65.72
   5  -6  -1  960.84   65.07
  -5   6   1  923.12   61.38
   5   6  -1  905.50   59.93
   5   6  -1  937.14   60.13
   5   6  -1 1012.39   61.63
   5  -6  -1  891.58   67.92
   5  -6  -1  991.33   59.18
  -5   6   0   28.79   11.43
   5   6   0    9.63    6.84
  -5   6   0   23.30   10.93
   5  -6   0   20.71    6.54
  -5  -6   0   21.41    7.54
   5   6   0   23.75    4.34
   5  -6   0   26.75    9.73
   5   6   0   31.94    6.99
  -5   6   0   45.21    9.03
   5  -6   0   36.43    7.63
  -5   6  -1   70.41   17.66
   5  -6   1   68.81   10.93
   5  -6   1   62.43   14.47
  -5  -6  -1   69.06   14.32
   5   6   1   64.52   10.78
   5  -6   1   72.86   12.87
   5  -6   2   73.15   11.23
  -5   6  -2   45.31   15.37
   5  -6   2   62.97   15.17
   5  -6   2   53.64   14.22
   5   6   2   58.08   11.98
   5  -6   2   70.26   13.47
  -5   6  -2   38.02   14.87
  -5  -6  -3    4.19   16.27
  -5   6  -3   13.27    7.54
   5   6   3   10.28    8.23
  -5  -6  -3    2.59   10.18
   5  -6   3   15.97    9.08
  -5   6  -3   11.93   10.78
   5  -6   3   21.76   11.18
   5  -6   3    3.24    8.48
  -5  -6  -4  424.61   62.03
  -5   6  -4  405.79   45.66
   5   6   4  320.51   37.97
   5  -6   4  312.28   38.12
  -5  -6  -4  382.14   47.36
  -5   6  -4  296.31   43.96
  -5   6  -4  348.11   42.62
   5   6   4  295.11   35.58
   5  -6   4  387.18   38.82
  -5  -6  -5  837.44   95.01
  -5   6  -5  952.31   76.85
   5   6   5  571.02   60.18
   5  -6   5  661.04   63.12
  -5  -6  -5  884.24   81.59
  -5   6  -5  755.05   76.75
  -5   6  -5  794.32   73.05
   5   6   5  649.01   61.88
   5  -6   5  778.26   64.42
  -5  -6  -6   17.57   16.27
   5   6   6   12.18   10.38
  -5  -6  -6   15.17   21.91
   5  -6   6   13.67   10.38
  -5   6  -6   12.53   12.92
   5   6   6    7.49    9.78
   5  -6   6   20.56   12.53
   5  -6   7   68.81   18.26
   5   6   7   56.39   17.47
  -5  -6  -7  110.98   31.89
  -5   6  -7   83.28   25.90
   5  -7 -11   62.43   18.51
   5   7 -11   48.80   16.42
   5   7 -11   44.21   15.17
   5   7 -10   34.93   15.27
  -5  -7  10   73.35   28.29
  -5   7  10   63.27   31.14
   5  -7 -10   46.96   17.17
   5  -7 -10   58.73   17.02
   5   7 -10   45.86   16.07
   5   7 -10   45.01   15.27
  -5  -7   9  790.08   79.74
  -5   7   9  830.25   91.77
  -5   7   9  593.02   44.41
   5  -7  -9  854.10   62.78
   5   7  -9  588.28   60.48
   5   7  -9  802.06   61.23
   5  -7  -9  676.01   63.57
  -5  -7   8 2827.49  193.22
  -5   7   8 3380.89  217.57
  -5   7   8 3269.36  188.53
  -5   7   8 2335.86  167.77
   5  -7  -8 3332.83  178.25
   5   7  -8 2752.39  175.65
   5  -7  -8 2644.40  181.64
   5  -7  -7   91.67   15.32
  -5  -7   7  100.45   21.36
  -5   7   7  100.15   27.50
   5  -7  -7   58.28   15.92
  -5   7   7   98.85   20.46
   5   7  -7   74.35   16.87
  -5   7   7   70.96   14.92
   5   7  -7   82.44   15.67
  -5   7   6  977.81   85.68
   5  -7  -6  805.15   69.46
   5   7  -6  868.03   51.85
  -5   7   6  728.80   65.62
   5  -7  -6  900.46   60.03
   5   7  -6  830.90   63.32
   5   7  -6  835.89   51.70
   5   7  -6  757.15   64.92
  -5   7   5 1867.49  134.98
   5   7  -5 1746.23  111.28
   5   7  -5 1882.31  109.13
   5   7  -5 1706.86  112.48
  -5   7   5 1625.62  122.46
   5  -7  -5 1855.62  110.28
  -5   7   5 1772.68  116.52
   5  -7  -5 1969.29  114.67
   5   7  -5 1819.54  118.71
   5   7  -4 1043.83   72.46
   5   7  -4 1067.63   69.56
   5   7  -4  958.80   66.92
   5   7  -4 1036.89   68.61
   5  -7  -4 1065.48   64.72
  -5   7   4  973.72   80.14
  -5   7   4 1012.89   68.61
   5  -7  -4  981.25   73.30
   5  -7  -4 1028.46   71.06
   5   7  -3  606.75   45.96
   5   7  -3  559.04   42.12
   5   7  -3  628.20   47.21
   5  -7  -3  648.46   40.42
  -5   7   3  637.43   57.74
  -5   7   3  590.68   42.77
   5  -7  -3  575.31   47.76
   5  -7  -3  615.23   48.10
   5   7  -3  623.41   46.56
   5   7  -2 2377.73   69.36
   5   7  -2 2193.20   48.55
   5  -7  -2 2238.46   65.17
  -5   7   2 2392.55   92.07
   5  -7  -2 2291.80   69.71
   5   7  -2 2429.48   44.01
   5   7  -2 2332.32   56.49
   5   7  -1 2775.89   89.62
  -5   7   1 2970.00  112.23
  -5  -7   1 2729.33   82.34
   5  -7  -1 2594.00   78.19
  -5   7   1 2496.84   72.01
   5   7  -1 2569.95   67.82
   5  -7  -1 2600.14   87.08
   5   7  -1 2764.21   67.32
   5  -7  -1 2960.82   63.22
   5   7   0  602.35   50.25
   5  -7   0  618.52   44.31
  -5   7   0  647.91   58.38
  -5   7   0  564.08   45.06
   5   7   0  549.71   36.83
  -5  -7   0  591.97   47.95
   5   7   0  536.44   41.07
   5  -7   0  626.41   42.12
  -5   7   0  670.37   58.93
   5  -7   1 2829.78  169.41
  -5  -7  -1 2988.22  179.94
   5   7   1 2757.18  169.06
  -5   7  -1 2567.45  187.43
   5  -7   1 3146.10  172.26
   5  -7   2 1057.95   68.86
  -5   7  -2 1164.64   88.08
  -5  -7  -2 1127.56   82.74
   5  -7   2  928.21   77.00
  -5   7  -2  941.78   87.13
   5   7   2  943.28   69.46
   5  -7   2 1109.55   73.65
  -5  -7  -3 1999.18  155.94
   5   7   3 1592.19  127.40
  -5   7  -3 2271.94  143.37
  -5  -7  -3 2170.04  141.32
   5  -7   3 1785.95  130.49
  -5   7  -3 1800.83  143.52
   5  -7   3 2177.43  128.79
  -5  -7  -4  692.62   83.63
  -5   7  -4  831.95   70.26
   5   7   4  544.97   56.24
   5  -7   4  618.92   58.88
  -5  -7  -4  794.42   72.86
  -5   7  -4  617.97   72.06
  -5   7  -4  662.29   64.12
   5   7   4  561.73   55.64
   5  -7   4  773.31   59.48
  -5  -7  -5 2559.27  190.57
  -5   7  -5 2635.87  158.54
   5   7   5 1590.44  137.43
  -5   7  -5 2221.54  154.39
  -5   7  -5 2162.96  166.42
   5  -7   5 1856.96  141.37
  -5  -7  -5 2702.44  169.76
   5   7   5 1929.72  140.97
   5  -7   5 2376.08  144.91
   5   7   6   11.13   10.18
  -5  -7  -6   44.16   27.89
  -5  -7  -6   42.12   20.66
   5  -7   6   13.82   10.73
  -5   7  -6   20.01   14.22
   5   7   6   43.26   14.57
   5  -7   6   28.04   14.42
  -5  -7  -7 1050.71  104.79
  -5   7  -7  934.74   93.21
   5  -8 -11   19.01   12.67
   5   8 -11   13.02   10.18
   5   8 -11   16.92   11.53
   5   8 -11   13.87   11.18
  -5  -8  10 2423.09  178.60
  -5   8  10 2595.90  201.35
   5   8 -10 1823.58  150.40
   5  -8 -10 2571.20  155.29
   5   8 -10 2287.06  151.40
   5   8 -10 2286.81  150.95
   5  -8 -10 2077.53  155.29
   5  -8  -9   12.03   10.43
  -5  -8   9   18.66   13.47
   5   8  -9    9.03    8.53
  -5   8   9   19.06   20.21
  -5   8   9    9.38    5.24
   5  -8  -9   29.39   10.93
   5   8  -9    9.23   10.03
   5  -8  -8   59.58   16.42
  -5  -8   8   41.27   15.97
  -5   8   8   32.39   20.51
  -5   8   8   39.67   14.72
  -5   8   8   30.14   10.63
   5  -8  -8   32.44   11.33
   5   8  -8   39.42   12.43
  -5   8   7  839.93   80.44
  -5   8   7  535.09   54.99
   5  -8  -7  723.86   53.84
  -5   8   7  775.26   63.77
   5  -8  -7  622.96   58.08
   5   8  -7  626.01   54.49
   5   8  -7  634.39   57.64
  -5   8   6 1964.20  142.47
   5   8  -6 1725.72  121.36
   5   8  -6 1942.69  106.94
  -5   8   6 1508.61  123.36
   5  -8  -6 1937.20  114.92
   5   8  -6 1793.74  106.29
   5   8  -6 1689.35  118.41
   5   8  -5  682.05   50.05
   5   8  -5  786.59   50.60
   5   8  -5  696.82   57.39
   5   8  -5  708.19   53.69
  -5   8   5  677.85   64.02
   5  -8  -5  735.49   50.80
  -5   8   5  691.98   55.29
   5  -8  -5  748.21   54.84
   5  -8  -4  434.04   31.89
   5   8  -4  442.22   34.33
   5   8  -4  448.36   35.53
   5   8  -4  398.21   33.98
  -5   8   4  381.84   44.51
  -5   8   4  427.20   35.58
   5  -8  -4  385.63   37.92
   5  -8  -4  390.42   36.48
   5   8  -3 2143.94  131.89
   5   8  -3 2337.56  124.45
   5  -8  -3 2324.88  128.10
  -5   8   3 2107.82  149.05
   5   8  -3 2031.57  129.79
   5  -8  -3 2095.29  136.48
  -5   8   3 1972.88  130.54
   5  -8  -3 2127.58  136.38
   5   8  -2  202.05   20.66
   5   8  -2  197.01   15.97
  -5   8   2  221.51   31.79
   5  -8  -2  240.32   24.90
   5   8  -2  199.80   19.86
  -5   8   2  209.28   20.61
   5  -8  -2  236.48   25.90
   5  -8  -1  512.48   30.54
  -5  -8   1  569.47   34.63
  -5   8   1  490.73   28.19
   5   8  -1  487.23   25.40
   5  -8  -1  518.27   35.18
   5   8  -1  497.96   23.15
   5   8   0  990.88   28.34
   5   8   0  979.21   50.90
   5  -8   0  930.80   40.22
  -5   8   0 1053.51   65.07
  -5   8   0  923.97   43.31
  -5  -8   0  994.63   49.15
   5   8   0  949.71   26.80
   5   8   0  920.32   36.48
   5  -8   0 1010.04   35.83
   5  -8   1 4418.88  242.22
  -5  -8  -1 4663.79  254.59
  -5   8  -1 3859.79  246.71
   5   8   1 4098.06  241.07
   5  -8   1 4913.45  244.31
   5  -8   2    1.65    4.79
  -5  -8  -2   16.92    9.98
   5  -8   2   29.14   11.08
   5   8   2    4.84    5.59
  -5   8  -2    1.70    7.19
   5  -8   2    9.58    7.98
  -5  -8  -3  914.38   92.37
   5   8   3  688.68   66.42
  -5   8  -3  968.03   79.34
  -5  -8  -3  921.82   77.95
   5  -8   3  785.39   69.11
  -5   8  -3  967.93   89.62
   5   8   3  809.64   62.48
   5  -8   3  949.17   67.77
  -5   8  -4   54.84   17.52
   5   8   4   48.15   14.97
  -5  -8  -4   50.60   27.20
  -5  -8  -4   63.37   21.61
   5  -8   4   57.29   16.27
   5  -8   4   41.57   14.02
  -5  -8  -5 5282.61  336.48
  -5   8  -5 5942.15  300.90
   5   8   5 3529.29  274.80
  -5  -8  -5 5696.69  310.48
   5  -8   5 4241.53  279.94
  -5   8  -5 4668.58  292.97
   5   8   5 4029.60  277.30
   5  -8   5 5402.33  283.89
  -5  -8  -6   62.13   32.04
   5   8   6   25.20   12.82
  -5  -8  -6   57.04   23.70
   5  -8   6   56.74   18.06
  -5   8  -6   46.21   18.96
   5   8   6   27.15   12.62
   5  -8   6   44.86   16.27
   5  -8   7  751.86   72.56
  -5   8  -7 1010.79   92.47
   5  -9 -11    4.14   11.08
   5  -9 -10   10.43   11.33
   5   9 -10   11.43   12.18
  -5   9  10   22.26   22.95
   5  -9 -10   24.15   13.02
   5   9 -10   21.21   11.88
  -5  -9   9  975.61   85.98
  -5   9   9 1057.10  105.84
  -5   9   9  743.42   66.17
   5  -9  -9 1103.11   76.85
   5  -9  -9  855.40   77.80
   5   9  -9  969.63   74.90
   5  -9  -8   12.53   10.43
  -5  -9   8   10.58    8.73
  -5   9   8    2.30   12.28
  -5   9   8    3.79    8.88
  -5   9   8    7.88    7.68
   5  -9  -8    7.93    8.23
   5   9  -8   10.83    9.18
   5  -9  -7   61.98   16.42
  -5   9   7   72.56   18.26
  -5   9   7   52.20   21.86
   5   9  -7   55.59   15.07
   5   9  -7   63.02    5.64
   5  -9  -7   79.49   14.57
  -5   9   7   63.97   17.66
   5   9  -7   64.97   15.37
   5   9  -6   42.47    7.63
   5   9  -6   47.66   12.33
   5  -9  -6   24.45    8.88
  -5   9   6   31.84   14.42
  -5   9   6   17.86    9.08
   5   9  -6   32.39   10.98
   5   9  -6   29.54    6.84
   5   9  -5  881.45   59.93
   5   9  -5  979.31   62.88
   5   9  -5  895.67   66.02
   5  -9  -5  952.21   62.68
  -5   9   5  861.09   78.79
  -5   9   5  814.83   66.22
   5  -9  -5 1004.16   67.77
   5   9  -4  684.34   46.66
   5  -9  -4  670.52   46.11
  -5   9   4  670.57   60.08
   5  -9  -4  616.28   52.65
   5   9  -4  658.69   49.15
  -5   9   4  664.98   64.02
  -5   9   4  592.17   48.95
   5  -9  -4  640.33   51.55
   5   9  -3  699.66   46.76
   5  -9  -3  649.11   51.35
   5  -9  -3  661.74   43.86
   5   9  -3  612.48   45.96
  -5   9   3  694.12   64.22
   5   9  -3  609.69   36.98
  -5   9   3  577.10   46.46
   5  -9  -3  630.50   51.10
  -5   9   2    9.63    8.08
   5   9  -2    5.09    5.49
  -5   9   2    7.63    5.29
   5  -9  -2    5.44    5.69
   5  -9  -2   21.36    8.98
  -5   9   1   13.57    9.83
  -5   9   1   13.62    6.89
   5  -9  -1    9.98    5.94
   5   9  -1   13.12    6.24
   5  -9  -1    4.89    6.39
   5   9   0    8.88    3.74
   5   9   0   19.21    5.04
  -5   9   0    7.14    6.49
  -5  -9   0   15.77    7.39
  -5   9   0   15.02   10.43
   5   9   0   16.67    6.84
   5  -9   1 1624.52  100.15
   5   9   1 1544.98   87.63
   5   9   1 1545.63  108.24
  -5   9  -1 1452.97  104.59
  -5  -9  -1 1756.56  111.83
   5   9   1 1553.22   99.25
   5   9   1 1519.08   88.13
   5  -9   1 1815.20  100.95
   5  -9   2    5.29    5.59
  -5   9  -2   12.72   10.78
  -5  -9  -2   11.78    9.18
   5  -9   2    3.14    7.39
   5   9   2   10.18    6.84
   5  -9   2   12.92    8.03
   5   9   3  161.98   27.15
  -5   9  -3  289.23   38.32
  -5  -9  -3  239.52   35.23
   5  -9   3  194.36   29.14
  -5  -9  -3  263.08   46.61
   5   9   3  225.55   25.95
   5  -9   3  242.47   28.24
  -5  -9  -4  422.01   66.82
   5   9   4  282.09   37.97
  -5   9  -4  471.81   51.60
   5  -9   4  338.33   40.82
   5  -9   4  357.24   41.77
   5  -9   4  456.64   42.32
  -5  -9  -5   45.66   28.84
  -5   9  -5   68.46   21.41
   5   9   5   17.17   11.93
  -5  -9  -5   32.44   18.31
   5  -9   5   23.10   11.23
   5   9   5   35.08   14.02
   5  -9   5   37.87   15.47
  -5  -9  -6   13.57   21.61
  -5   9  -6   18.41   13.92
   5   9   6    6.39    8.43
  -5  -9  -6    6.99   14.87
   5  -9   6    9.38   10.73
  -5   9  -6    9.43   12.82
   5   9   6    9.23    9.53
   5  -9   6   11.23   11.63
   5  10 -10 2127.53  140.17
   5 -10 -10 2529.53  155.49
   5 -10 -10 2120.54  156.44
   5  10 -10 2219.44  151.75
   5 -10  -9   65.67   18.86
  -5 -10   9   65.92   19.61
  -5  10   9   62.73   26.15
  -5  10   9   80.79   21.16
   5 -10  -9   81.39   18.36
  -5  10   9   57.64   15.47
   5  10  -9   54.19   12.92
   5  10  -9   55.74   16.47
   5 -10  -8   35.78   14.57
  -5  10   8   38.22   19.96
  -5  10   8   41.37   15.37
   5 -10  -8   40.57   12.62
  -5  10   8   30.84   14.07
   5  10  -8   47.51   14.12
  -5  10   7 1248.57  107.74
   5  10  -7 1395.48   80.99
   5 -10  -7 1508.31   95.76
   5  10  -7 1377.81   81.29
  -5  10   7 1591.49  107.94
   5 -10  -7 1339.79  102.05
   5  10  -7 1304.61   97.46
   5  10  -6 3721.46  197.11
   5  10  -6 3020.75  204.74
  -5  10   6 2996.70  221.56
   5 -10  -6 3645.71  204.14
   5  10  -6 3327.54  195.21
   5  10  -5  289.43   29.99
   5 -10  -5  303.85   27.20
  -5  10   5  268.82   39.57
  -5  10   5  241.47   29.09
   5 -10  -5  291.07   30.99
   5  10  -4  430.10   32.24
  -5  10   4  461.63   47.46
   5  10  -4  382.94   35.28
   5 -10  -4  441.12   33.58
  -5  10   4  397.61   49.00
   5 -10  -4  357.34   37.68
  -5  10   4  367.77   36.03
   5 -10  -4  442.57   39.32
   5  10  -3 4583.35  261.23
   5 -10  -3 4378.61  276.65
   5 -10  -3 5139.35  262.08
   5 -10  -3 4410.64  269.22
  -5  10   3 4830.71  284.39
   5  10  -3 4254.60  262.98
  -5  10   3 4771.78  289.87
  -5  10   3 4034.74  264.33
   5 -10  -3 4942.34  272.01
   5 -10  -2 3459.43  203.75
   5  10  -2 3377.69  198.16
  -5  10   2 3885.34  227.10
  -5  10   2 3030.58  199.40
   5 -10  -2 3579.24  206.74
   5 -10  -1  701.31   53.84
  -5 -10   1  756.60   58.43
  -5  10   1  812.89   71.06
  -5  10   1  659.69   53.79
   5  10  -1  672.71   50.40
   5 -10  -1  689.53   56.99
   5 -10   0   33.38   11.68
   5  10   0   33.63    6.99
   5 -10   0   28.69    8.38
  -5  10   0   31.24    9.98
  -5 -10   0   45.81   12.13
  -5  10   0   17.17   11.28
   5  10   0   36.08    9.73
   5 -10   1 3446.51  204.24
  -5  10  -1 3217.46  210.83
   5  10   1 3687.23  192.57
  -5 -10  -1 3790.18  217.57
   5  10   1 3266.47  191.82
   5  10   1 3358.73  203.65
   5 -10   2  499.16   32.78
  -5  10  -2  551.60   50.75
  -5 -10  -2  510.09   45.06
   5 -10   2  484.79   41.42
   5  10   2  420.47   31.19
   5 -10   2  422.61   38.72
   5 -10   2  500.96   34.43
   5  10   3  162.13   26.55
  -5  10  -3  234.78   34.63
  -5 -10  -3  205.59   32.59
  -5 -10  -3  251.70   46.16
   5 -10   3  160.18   26.20
   5 -10   3  166.87   27.45
   5  10   3  167.27   22.85
   5 -10   3  231.84   27.45
  -5 -10  -4    6.19   17.52
   5  10   4    2.40    8.18
  -5  10  -4   25.05   13.82
   5 -10   4    2.54    9.63
   5 -10   4    3.64    7.73
   5  10   4   22.90    9.93
   5 -10   4   13.82   10.63
  -5 -10  -5  743.22   96.06
  -5  10  -5  839.73   73.40
   5  10   5  497.86   55.94
  -5  10  -5  684.64   87.53
  -5 -10  -5  864.03   81.64
   5 -10   5  563.83   59.43
   5  10   5  516.33   56.09
   5 -10   5  762.59   62.18
  -5 -10  -6    3.54   20.76
  -5  10  -6    1.70   11.63
   5  10   6    2.59    7.68
  -5 -10  -6    7.24   14.17
   5 -10   6    6.89    9.93
  -5  10  -6    3.84   13.12
   5 -10   6    6.39    9.23
   5 -11 -10  582.24   56.54
   5 -11 -10  486.33   56.39
   5  11 -10  555.30   54.99
  -5  11   9  233.29   45.71
   5  11  -9  182.89   22.11
   5  11  -9  184.73   28.59
   5 -11  -9  219.46   29.89
  -5  11   9  247.06   34.48
   5 -11  -9  170.26   30.14
  -5 -11   9  176.25   29.19
   5  11  -8  335.53   42.62
   5  11  -8  416.92   34.58
   5 -11  -8  523.16   44.76
  -5  11   8  424.86   52.50
   5 -11  -8  445.42   48.45
  -5  11   8  455.70   48.75
   5  11  -8  418.07   43.86
   5  11  -7  163.72   14.52
   5  11  -7  148.46   16.07
   5  11  -7  150.25   23.15
   5 -11  -7  155.99   21.61
  -5  11   7  167.92   27.20
  -5  11   7  149.35   30.99
   5  11  -7  156.94   14.27
  -5  11   7  154.19   25.45
   5  11  -7  135.78   22.36
   5 -11  -7  133.78   24.25
   5  11  -6 1621.68  104.69
   5  11  -6 1481.36   88.87
  -5  11   6 1469.78  121.81
   5 -11  -6 1297.67  103.99
   5 -11  -6 1668.74  100.60
   5  11  -6 1492.74   91.97
  -5  11   5  218.42   34.43
   5 -11  -5  138.13   26.40
   5  11  -5  186.73   24.35
   5 -11  -5  239.37   23.40
  -5  11   5  224.35   37.33
  -5  11   5  189.22   25.15
   5 -11  -5  225.65   26.65
   5  11  -4 1172.87   69.46
   5 -11  -4  962.14   83.93
  -5  11   4 1130.66   90.02
   5 -11  -4 1164.54   73.45
   5  11  -4 1051.16   75.80
  -5  11   4 1162.09   98.55
   5 -11  -4 1023.67   79.54
  -5  11   4  988.54   76.85
   5 -11  -4 1190.19   81.29
   5  11  -3  122.56   14.62
   5 -11  -3  104.24   21.21
  -5  11   3  107.89   23.75
   5 -11  -3  110.68   14.42
   5 -11  -3  104.84   17.96
   5  11  -3  115.47   16.87
  -5  11   3   94.86   15.87
  -5  11   3  124.35   26.55
   5 -11  -3  107.74   18.81
   5 -11  -2  732.70   62.88
   5 -11  -2  719.17   56.74
  -5  11   2  890.68   76.70
   5  11  -2  721.62   53.04
  -5  11   2  658.94   54.89
   5 -11  -2  689.53   58.28
  -5  11   2  785.94   71.36
   5 -11  -1 2645.65  172.51
   5  11  -1 2815.06  158.83
   5 -11  -1 2644.95  164.82
  -5 -11   1 2735.77  170.96
  -5  11   1 3048.35  189.42
  -5  11   1 2557.47  165.82
   5  11  -1 2636.02  161.63
   5 -11  -1 2563.96  168.72
   5 -11   0   15.42    9.48
  -5  11   0   28.99   10.23
  -5 -11   0   41.57   11.78
   5  11   0   17.42    5.99
   5 -11   0   25.90    8.63
  -5  11   0   22.70   13.17
   5  11   0   16.37    7.83
   5 -11   1   66.67   16.42
  -5 -11  -1   95.16   19.46
   5 -11   1   68.61   13.02
  -5  11  -1   29.94   12.08
   5  11   1   92.62    8.88
   5  11   1   69.21   13.52
  -5  11  -1   85.83   22.41
   5  11   1   76.20    7.88
  -5 -11  -2    3.54    7.49
   5 -11   2   26.35    8.93
  -5  11  -2   19.96   11.68
  -5 -11  -2   39.62   14.22
   5  11   2   25.60    9.08
   5 -11   2   11.28    9.98
   5 -11   2   15.67    9.58
  -5 -11  -3 1876.52  150.40
   5  11   3 1330.76  110.93
  -5  11  -3 2119.64  132.99
  -5 -11  -3 1852.17  127.60
  -5  11  -3 1745.68  147.56
   5 -11   3 1547.18  114.67
   5 -11   3 1532.46  115.62
   5  11   3 1367.68  104.89
   5 -11   3 1852.12  112.28
  -5 -11  -4   91.02   33.28
   5  11   4   43.06   15.22
  -5  11  -4   67.77   20.36
  -5 -11  -4   46.31   18.36
   5 -11   4   53.44   16.97
   5  11   4   48.10   13.32
  -5  11  -4   63.02   27.60
   5 -11   4   42.12   15.87
   5 -11   4   55.04   15.57
   5  11   5  489.48   56.94
  -5  11  -5  858.50   75.40
  -5  11  -5  636.59   86.53
  -5 -11  -5  806.95   81.19
   5 -11   5  579.95   60.98
   5 -11   5  776.56   64.27
  -5 -11  -5  688.83   95.71
  -5 -11  -6   58.78   31.99
  -5  11  -6   63.07   21.21
   5  11   6   34.58   14.22
  -5 -11  -6   75.50   27.60
   5 -11   6   36.38   15.47
   5 -11   6   64.82   18.61
   5 -12 -10   34.53   16.17
   5  12 -10   20.91   12.67
   5  12  -9   13.57    8.33
  -5  12   9    9.73   12.33
   5 -12  -9    7.19   10.73
   5  12  -9   18.21   11.33
   5  12  -8  495.72   50.40
   5 -12  -8  608.94   51.40
  -5  12   8  508.89   63.52
   5  12  -8  551.11   41.32
   5 -12  -8  469.87   52.94
  -5  12   8  610.54   58.33
   5  12  -8  545.02   52.40
   5  12  -7  906.20   74.70
   5 -12  -7 1033.90   73.01
  -5  12   7 1117.73   84.83
  -5  12   7  915.18   91.97
   5  12  -7  949.61   61.93
   5 -12  -7  875.36   77.00
   5  12  -7 1006.10   61.53
  -5  12   7  950.86   78.94
   5  12  -7  902.36   75.00
  -5  12   6  213.13   35.63
   5  12  -6  171.91   25.50
  -5  12   6  201.25   30.69
   5 -12  -6  177.25   22.26
   5 -12  -6  133.34   23.65
  -5  12   6  168.07   34.73
   5  12  -6  178.50   14.82
   5  12  -6  180.84   18.56
  -5  12   5 1199.22   94.36
   5 -12  -5  969.68   84.48
   5  12  -5 1035.49   76.55
   5 -12  -5 1119.73   73.55
  -5  12   5 1050.81   97.61
   5 -12  -5 1195.38   80.04
   5  12  -5  956.50   69.06
  -5  12   4   32.59   10.93
   5  12  -4   41.02    7.34
   5 -12  -4   32.83   14.17
   5 -12  -4   36.48    8.98
   5  12  -4   45.06   11.73
  -5  12   4   38.77   15.57
  -5  12   4   52.75   19.86
   5 -12  -4   40.27   12.13
   5 -12  -4   38.32   12.67
  -5  12   3 1375.22  102.55
   5  12  -3 1337.79   77.55
   5 -12  -3 1164.19   92.72
  -5  12   3 1312.34  107.89
   5 -12  -3 1141.98   86.23
   5  12  -3 1155.26   82.79
  -5  12   3 1102.16   84.23
   5 -12  -3 1249.32   80.24
   5 -12  -3 1224.87   88.42
   5  12  -2   59.28   12.23
   5 -12  -2   70.21   17.42
  -5  12   2   68.56   20.51
  -5  12   2   64.92   14.02
   5 -12  -2   95.26   16.42
  -5  12   2   60.28   19.96
   5 -12  -2   60.18   14.62
   5 -12  -1 1026.61   84.23
   5  12  -1 1151.41   73.40
   5 -12  -1 1067.08   78.59
  -5 -12   1 1259.40   86.98
  -5  12   1 1219.73   99.65
  -5  12   1 1082.70   81.14
   5  12  -1 1105.21   76.70
   5 -12  -1 1106.60   83.28
  -5  12   1 1092.33   81.19
  -5  12   1 1248.87  100.95
   5 -12   0 1109.90   85.48
   5 -12   0 1083.50   78.00
   5  12   0 1161.00   71.16
  -5 -12   0 1222.42   87.23
  -5  12   0 1244.38   99.20
  -5  12   0 1010.14   81.54
   5  12   0 1100.86   77.35
  -5  12   0 1137.14  101.15
  -5  12   0 1141.43   91.27
   5 -12   1   41.57   13.52
   5 -12   1   47.76   11.08
   5  12   1   51.55    7.29
  -5 -12  -1   52.25   15.32
   5  12   1   35.43   10.13
  -5  12  -1   41.02   16.47
  -5  12  -1   50.85   21.76
   5 -12   2   40.32   10.88
  -5  12  -2   33.48   15.22
  -5 -12  -2   38.52   15.27
   5  12   2   27.84   10.08
   5 -12   2   23.15   11.63
  -5  12  -2   67.82   26.45
   5 -12   2   33.53   12.87
  -5  12  -2   43.11   19.21
  -5 -12  -2   34.68   15.92
   5 -12   3    9.63    9.68
   5  12   3   19.01    9.53
  -5 -12  -3   27.40   21.91
  -5  12  -3   30.54   15.52
   5  12   3   29.04   11.18
   5 -12   3   28.74   13.12
  -5  12  -3   19.76   19.86
  -5  12  -3   24.70   17.91
   5  12   4  504.60   55.04
  -5  12  -4  794.02   71.16
   5 -12   4  548.41   56.54
  -5 -12  -4  746.72   72.46
  -5  12  -4  599.06   84.13
   5 -12   4  575.21   58.53
   5  12   4  576.90   52.40
  -5 -12  -4  690.38   92.37
  -5 -12  -5  362.78   70.76
   5  12   5  285.38   39.62
  -5  12  -5  461.13   53.54
  -5 -12  -5  501.80   61.38
   5 -12   5  337.83   42.96
  -5  12  -5  388.53   68.01
  -5 -12  -6   11.53   23.50
  -5  12  -6   -3.59   11.83
  -5 -12  -6   -4.94   19.26
   5 -12   6    1.45   10.58
   5 -13 -10  624.86   60.93
   5 -13  -9 1062.84   80.89
   5 -13  -9  895.02   82.89
   5  13  -9  941.68   81.04
  -5  13   9 1068.38   86.78
   5  13  -8 1898.93  135.08
  -5  13   8 1929.77  158.24
   5 -13  -8 1762.85  138.18
  -5  13   8 2389.76  147.11
  -5  13   8 1995.19  143.17
   5 -13  -8 2315.75  136.78
   5  13  -8 2042.15  121.66
   5  13  -8 1890.70  136.53
  -5  13   8 1801.77  135.03
  -5  13   7   14.97   12.08
   5  13  -7   17.62    6.09
  -5  13   7   26.95   16.07
   5  13  -7   20.81   11.68
   5 -13  -7   19.86    9.68
  -5  13   7   16.22   14.22
  -5  13   7   20.96   10.93
   5  13  -7   18.26    6.34
   5 -13  -7   19.56   11.43
   5  13  -7   12.08    9.18
   5  13  -6  320.61   35.38
  -5  13   6  326.00   45.81
  -5  13   6  355.99   41.97
   5 -13  -6  313.48   31.54
  -5  13   6  315.67   50.00
   5 -13  -6  287.58   35.53
  -5  13   6  278.55   34.93
   5  13  -6  299.80   26.75
  -5  13   5 1299.92   98.70
   5 -13  -5  968.38   87.53
   5  13  -5 1061.14   80.29
   5 -13  -5 1150.12   77.50
  -5  13   5 1192.98  106.74
   5  13  -5 1036.44   73.25
   5 -13  -5 1260.50   84.53
   5 -13  -4 1017.58   82.29
   5  13  -4 1051.21   59.88
  -5  13   4 1149.02   88.77
   5 -13  -4  896.52   74.00
   5 -13  -4 1119.43   70.21
   5  13  -4 1105.80   74.25
  -5  13   4 1133.95   99.45
   5 -13  -4 1122.22   78.64
   5  13  -3   21.76    6.44
   5 -13  -3   14.37   10.88
  -5  13   3   30.69   15.02
   5 -13  -3   33.63    9.18
   5  13  -3   36.63   11.13
  -5  13   3   14.72    7.98
   5 -13  -3   10.58    7.14
  -5  13   3   33.03   17.22
   5 -13  -3   22.66   11.28
   5  13  -2   31.04   10.33
   5  13  -2   26.95    9.13
  -5  13   2   16.57   14.17
   5 -13  -2   31.14   13.52
   5 -13  -2   24.90    9.88
  -5  13   2   27.50   10.23
  -5  13   2   23.95   14.77
   5 -13  -2   22.41   10.83
   5 -13  -1  269.22   34.08
   5  13  -1  328.25   27.10
   5 -13  -1  247.66   28.69
  -5  13   1  307.99   43.51
  -5  13   1  247.16   30.89
   5  13  -1  227.00   26.95
   5 -13  -1  273.06   32.74
  -5  13   1  242.67   31.09
  -5  13   1  230.24   40.37
  -5 -13   1  300.80   34.93
   5 -13   0  845.47   53.54
   5 -13   0  832.35   44.56
   5  13   0  902.36   35.23
  -5  13   0  952.76   70.81
  -5 -13   0  952.41   57.14
   5  13   0  856.90   44.61
  -5  13   0  894.32   74.50
  -5  13   0  958.45   64.17
   5 -13   1  538.93   47.06
   5 -13   1  533.09   53.24
  -5 -13  -1  610.49   57.89
   5  13   1  632.54   39.57
   5  13   1  516.08   46.76
  -5  13  -1  561.34   70.31
  -5  13  -1  605.25   64.57
   5 -13   1  559.19   53.79
   5 -13   2   67.37   14.27
  -5  13  -2   63.42   17.52
  -5  13  -2  107.49   24.95
  -5 -13  -2   73.01   19.51
   5  13   2   66.82    5.19
   5  13   2   51.15   13.17
   5 -13   2   39.37   14.92
  -5 -13  -2   63.42   21.36
  -5  13  -2   64.27   26.85
  -5  13  -2   68.61   23.30
   5 -13   2   79.74   18.56
  -5 -13  -3  366.12   61.03
  -5  13  -3  344.37   45.66
  -5  13  -3  291.47   39.62
  -5 -13  -3  345.61   45.76
   5 -13   3  306.44   38.57
   5 -13   3  309.54   39.67
   5  13   3  289.72   33.08
  -5  13  -3  367.27   54.29
  -5  13  -3  304.79   56.19
   5  13   4  658.34   67.72
  -5  13  -4 1091.03   87.38
   5 -13   4  844.07   72.86
  -5  13  -4  852.91  103.15
  -5 -13  -4 1028.81   89.02
   5 -13   4  752.41   71.26
   5  13   4  751.61   65.02
  -5 -13  -4  883.35  108.68
   5  13   5  185.08   30.34
  -5  13  -5  241.77   39.17
  -5 -13  -5  224.80   42.47
   5 -13   5  181.29   31.89
  -5  13  -5  172.61   46.31
   5  13   5  218.42   29.64
  -5 -13  -6   20.11   24.70
   5 -14 -10   33.03   15.02
  -5  14   9  180.24   30.94
   5  14  -9  179.04   29.34
   5 -14  -9  193.47   29.09
   5 -14  -9  121.71   27.00
   5  14  -9  156.39   28.24
  -5  14   8   25.10   13.72
  -5  14   8   32.29   18.36
   5  14  -8   32.64   14.57
   5 -14  -8   41.17   14.52
   5  14  -8   44.71    8.88
  -5  14   8   43.46   22.66
  -5  14   8   33.03   15.37
   5 -14  -8   17.96   12.58
   5  14  -8   23.30   12.13
  -5  14   7   36.18   17.52
   5  14  -7   28.49    6.04
   5  14  -7   35.28   14.27
   5 -14  -7   25.10   10.23
  -5  14   7   35.88   19.56
  -5  14   7   36.83   14.22
   5  14  -7   26.05    7.54
   5 -14  -7   22.90   12.33
  -5  14   7   25.35   13.22
   5  14  -7   45.06   14.37
  -5  14   6   11.83   12.23
   5  14  -6   10.03   10.68
  -5  14   6   19.46   16.07
  -5  14   6   10.18    7.98
  -5  14   6   16.57   11.53
   5 -14  -6   20.91   10.88
   5 -14  -6   21.26    9.03
   5  14  -6   21.91    7.63
   5  14  -5   32.54    9.88
  -5  14   5   50.55   17.62
   5 -14  -5   40.47   17.07
   5  14  -5   33.73   12.97
   5 -14  -5   45.56   10.78
  -5  14   5   36.58   19.16
   5 -14  -4   12.18   11.33
   5 -14  -4   31.39   14.77
  -5  14   4    9.13    9.68
   5 -14  -4    9.83    6.84
   5  14  -4   11.78    8.13
  -5  14   4    4.34   12.77
   5  14  -3   55.74    8.03
   5 -14  -3   21.06   13.07
  -5  14   3   72.36   22.80
  -5  14   3   32.44   15.92
   5 -14  -3   35.93    9.33
   5  14  -3   42.96   12.33
   5 -14  -3   36.93   12.03
  -5  14   3    3.79    5.59
   5 -14  -3   43.86   14.72
  -5  14   2   68.71   21.56
   5  14  -2   53.39   12.28
   5 -14  -2   59.33   16.82
   5 -14  -2   58.68   13.82
   5  14  -2   47.16   12.03
  -5  14   2   22.36    9.58
  -5  14   2   72.66   22.80
  -5  14   2   56.59   11.88
   5 -14  -2   47.16   14.52
  -5  14   1   13.52   14.72
   5 -14  -1    9.08    7.98
   5  14  -1    8.98    6.69
   5 -14  -1    4.14    6.14
  -5 -14   1   24.10   10.33
  -5  14   1    1.85   11.43
   5  14  -1   13.52    7.88
   5 -14  -1    2.15    7.88
  -5  14   1    8.78    7.93
   5 -14   0  173.36   26.20
   5 -14   0  160.53   21.96
   5  14   0  166.17   18.26
   5  14   0  161.53   21.96
  -5  14   0  147.76   31.14
  -5  14   0  154.29   28.74
  -5 -14   0  187.83   27.79
  -5  14   0  197.16   38.72
   5 -14   1  147.51   24.85
   5 -14   1  123.50   19.71
   5 -14   1  117.17   22.95
  -5 -14  -1  194.66   29.79
   5  14   1  179.49   16.62
   5  14   1  130.14   20.86
  -5  14  -1  193.37   40.52
  -5  14  -1  147.16   30.54
   5 -14   2   25.20   10.43
   5  14   2   26.55    4.44
  -5  14  -2   32.34   13.97
  -5  14  -2   30.59   15.62
  -5 -14  -2   30.24   14.62
   5  14   2   17.81    9.43
  -5 -14  -2   20.81   12.53
   5 -14   2   16.12   10.83
  -5  14  -2   29.59   21.96
  -5  14  -2   29.24   16.72
   5 -14   2   24.45   12.38
  -5 -14  -3  273.61   53.04
  -5  14  -3  342.42   45.41
  -5  14  -3  227.65   35.33
  -5 -14  -3  306.89   43.56
   5 -14   3  239.57   34.08
   5  14   3  239.57   29.74
   5 -14   3  258.14   35.83
  -5  14  -3  345.21   52.25
  -5  14  -3  242.57   52.35
   5  14   4   77.20   20.51
  -5  14  -4  157.84   31.24
  -5 -14  -4  150.60   32.19
  -5  14  -4  122.76   26.35
   5  14   4  105.14   20.71
  -5  14  -4   90.62   34.78
   5 -14   4  122.86   25.30
   5 -14   4   92.57   21.86
  -5  14  -4  173.85   40.02
  -5 -14  -4  143.47   46.26
   5  14   5  366.22   47.11
  -5  14  -5  607.94   63.67
  -5  14  -5  444.82   74.75
   5 -14   5  429.15   50.75
   5  14   5  444.12   46.51
  -5 -14  -5  574.21   90.22
  -5 -14  -5  654.10   72.61
  -5 -14  -6  164.12   50.90
   5  15  -9  601.41   62.83
   5 -15  -9  822.92   67.37
  -5  15   9  769.02   70.41
   5  15  -9  661.14   65.17
  -5  15   8   48.65   17.22
  -5  15   8   40.42   20.01
   5  15  -8   86.83   20.96
   5 -15  -8   53.49   15.12
  -5  15   8   42.32   24.60
  -5  15   8   46.91   17.66
   5 -15  -8   39.92   15.72
   5  15  -8   39.62   14.67
  -5  15   7  143.47   31.34
   5  15  -7  117.77   23.15
   5 -15  -7  112.43   19.81
   5  15  -7  128.64   15.62
  -5  15   7  128.05   36.03
  -5  15   7  117.37   23.55
   5 -15  -7   94.51   21.51
  -5  15   7  134.33   26.00
   5  15  -7  127.50   23.75
  -5  15   6  366.42   46.86
  -5  15   6  356.19   43.36
   5  15  -6  296.36   35.68
   5 -15  -6  308.94   32.69
   5 -15  -6  300.70   37.73
  -5  15   6  261.93   35.33
  -5  15   6  300.55   52.94
   5  15  -6  295.46   28.04
  -5  15   5  640.53   63.17
   5 -15  -5  494.67   56.24
   5 -15  -5  588.83   48.00
   5  15  -5  604.70   52.60
  -5  15   5  622.11   74.90
  -5  15   5  518.72   51.70
   5  15  -5  549.56   44.76
  -5  15   4 1147.47   99.45
   5 -15  -4 1304.91   84.73
   5 -15  -4 1083.80   94.11
   5  15  -4 1162.79   87.08
  -5  15   4 1293.78  115.57
   5 -15  -4 1283.45   92.87
   5  15  -3 1378.01   78.39
   5  15  -3 1226.37   89.42
   5 -15  -3 1133.55   97.31
   5 -15  -3 1209.95   93.26
   5 -15  -3 1313.39   88.52
   5  15  -3 1338.99   92.87
  -5  15   3 1488.84  122.41
   5 -15  -3 1315.54   97.71
  -5  15   3 1461.55  112.73
   5  15  -2  103.44   16.42
  -5  15   2  107.69   27.20
   5 -15  -2   87.33   20.76
   5 -15  -2   90.27   17.62
   5  15  -2   85.93   16.82
  -5  15   2  112.48   29.09
  -5  15   2  113.13   18.01
   5 -15  -2  137.53   22.75
   5 -15  -1  197.36   29.24
   5  15  -1  219.76   22.85
   5 -15  -1  197.41   25.85
  -5  15   1  243.92   40.37
   5  15  -1  184.93   24.75
  -5  15   1  214.37   30.64
   5 -15  -1  194.41   28.64
  -5  15   1  256.99   42.86
  -5 -15   1  219.86   31.19
   5 -15   0  158.14   25.50
   5 -15   0  157.04   22.70
   5  15   0  171.31   18.91
  -5 -15   0  169.01   27.60
   5  15   0  160.13   22.85
  -5  15   0  190.02   32.29
  -5  15   0  153.45   36.43
   5 -15   1 2126.38  153.60
   5 -15   1 2241.10  147.96
   5 -15   1 2289.06  156.44
  -5  15  -1 2138.95  155.39
  -5 -15  -1 2490.51  163.77
   5  15   1 2581.62  139.02
   5  15   1 2263.01  148.56
  -5  15  -1 2516.35  186.68
   5 -15   1 2018.29  153.79
  -5  15  -1 2761.27  178.30
   5 -15   2   15.47    9.03
   5 -15   2   12.03   10.03
  -5  15  -2   19.41   12.28
  -5 -15  -2    4.74    9.73
  -5  15  -2   10.53   11.58
   5  15   2    8.08    7.49
  -5 -15  -2    7.58    9.73
  -5  15  -2    5.59   16.47
   5 -15   2    9.18   10.93
  -5  15  -2    4.29   11.58
   5 -15   2    2.50    9.08
  -5 -15  -3  411.83   67.07
  -5  15  -3  390.33   48.95
  -5 -15  -3  514.28   58.53
  -5  15  -3  512.13   75.55
   5 -15   3  443.47   48.65
   5  15   3  350.95   40.37
  -5  15  -3  560.24   59.83
   5 -15   3  416.17   48.45
  -5  15  -3  597.46   70.96
   5  15   4  344.62   45.66
  -5  15  -4  598.46   62.68
  -5  15  -4  437.93   53.04
   5 -15   4  466.42   50.80
  -5 -15  -4  598.31   67.37
  -5  15  -4  448.61   74.70
   5  15   4  422.71   45.01
   5 -15   4  459.44   52.25
  -5  15  -4  554.95   72.86
  -5 -15  -4  606.90   92.37
  -5  15  -5  426.60   52.85
  -5  15  -5  309.24   44.86
  -5 -15  -5  415.38   59.03
   5 -15   5  321.11   43.11
   5  15   5  275.90   36.48
  -5  15  -5  310.73   62.33
  -5 -15  -5  376.35   75.70
  -5 -15  -6   26.45   29.09
   5  16  -9   47.16   18.21
   5 -16  -9   32.64   14.77
  -5  16   8    2.94   10.63
  -5  16   8   12.62   14.32
   5  16  -8   -1.30   10.58
   5 -16  -8    8.78    8.98
  -5  16   8   24.45   19.46
  -5  16   8    1.50    9.53
   5 -16  -8   -1.45   10.28
   5  16  -8   10.68    9.63
  -5  16   7  117.52   28.39
   5  16  -7   84.58   20.11
   5 -16  -7  107.34   18.86
  -5  16   7   59.48   26.70
   5 -16  -7   81.44   20.66
  -5  16   7   68.91   18.56
   5  16  -7   84.53   13.47
  -5  16   7   93.56   23.50
   5  16  -7   83.63   20.16
  -5  16   6   68.61   21.81
   5  16  -6   92.27   20.36
   5 -16  -6   75.70   15.67
   5 -16  -6   64.52   17.66
  -5  16   6   65.92   19.41
  -5  16   6   55.24   25.15
  -5  16   6   53.59   16.42
   5  16  -6   67.77   12.87
   5 -16  -5  568.62   62.63
   5 -16  -5  690.98   54.54
   5  16  -5  648.86   57.69
  -5  16   5  791.68   86.33
  -5  16   5  595.47   58.93
   5  16  -5  664.03   51.45
  -5  16   5  778.16   70.41
   5 -16  -4   46.41   16.17
   5  16  -4   23.10    9.43
   5  16  -4   25.35   11.88
   5 -16  -4   20.66   13.12
   5  16  -4   33.68   12.58
   5 -16  -4   36.88   10.73
  -5  16   4   28.69   10.98
  -5  16   4   26.35   17.81
   5 -16  -3   92.17   20.81
   5  16  -3   96.51   17.52
   5 -16  -3   88.62   21.06
  -5  16   3  107.89   26.65
   5 -16  -3  114.32   17.12
   5 -16  -3   85.93   18.06
   5  16  -3   92.67   18.26
  -5  16   3  130.49   32.74
  -5  16   3   86.78   12.43
   5 -16  -2  481.94   52.60
   5  16  -2  557.19   45.86
   5 -16  -2  499.11   48.95
   5  16  -2  540.13   48.45
  -5  16   2  728.75   75.95
  -5  16   2  561.83   49.90
   5 -16  -2  562.18   54.39
  -5  16   2  688.28   70.61
  -5  16   1  243.52   43.21
   5 -16  -1  174.05   28.39
   5  16  -1  246.41   24.90
   5 -16  -1  205.84   27.30
  -5 -16   1  238.98   33.28
  -5  16   1  272.71   43.66
   5  16  -1  210.18   27.20
  -5  16   1  188.53   30.54
   5 -16  -1  221.36   30.94
   5 -16   0   82.19   18.26
   5 -16   0   82.94   16.47
  -5 -16   0   56.89   16.92
   5  16   0   61.73   12.03
   5  16   0   78.39   15.87
  -5  16   0   75.10   21.51
  -5  16   0   70.51   17.62
  -5  16   0   60.38   24.35
   5 -16   1  281.54   35.68
   5 -16   1  293.27   32.74
   5 -16   1  275.40   36.33
  -5  16  -1  269.42   37.33
   5  16   1  337.93   27.00
   5  16   1  267.57   32.04
   5 -16   1  260.43   36.33
  -5  16  -1  285.63   45.16
  -5  16  -1  283.99   51.70
   5 -16   2  241.27   34.43
  -5 -16  -2  309.04   45.96
  -5  16  -2  384.89   49.45
  -5 -16  -2  347.31   45.41
   5  16   2  242.67   31.69
  -5  16  -2  267.77   38.52
   5 -16   2  300.25   39.57
  -5  16  -2  330.14   51.10
  -5  16  -2  282.84   54.79
   5  16   2  327.05   23.60
   5 -16   2  233.64   34.78
  -5 -16  -3    6.29   14.17
   5 -16   3   11.98    9.93
  -5  16  -3    9.68   11.68
  -5  16  -3   38.07   18.51
  -5 -16  -3   14.92   13.07
   5  16   3   14.02   10.93
  -5  16  -3   42.07   26.95
   5 -16   3   10.13   13.47
  -5  16  -3   22.26   16.32
  -5  16  -4  245.41   39.97
  -5  16  -4  180.54   34.28
  -5 -16  -4  265.87   44.66
   5  16   4  195.46   28.44
   5 -16   4  207.29   34.23
  -5  16  -4  243.07   54.94
   5 -16   4  163.18   29.54
  -5 -16  -4  249.85   60.18
  -5  16  -4  247.76   48.10
  -5  16  -5  419.37   55.54
  -5 -16  -5  718.62   78.99
  -5  16  -5  479.15   79.69
   5  16   5  440.33   48.50
  -5  16  -5  628.45   81.34
   5 -17  -9   46.21   16.12
   5  17  -8  605.20   60.53
   5 -17  -8  657.10   58.48
   5 -17  -8  596.17   62.48
  -5  17   8  665.88   88.72
  -5  17   8  574.11   61.93
   5  17  -8  617.92   61.28
  -5  17   7  197.36   36.38
   5  17  -7  181.39   28.84
   5 -17  -7  203.30   27.45
   5 -17  -7  138.87   26.95
   5  17  -7  173.80   20.51
  -5  17   7  221.96   48.70
  -5  17   7  170.66   29.34
  -5  17   7  175.30   30.74
   5  17  -7  118.02   24.95
  -5  17   6   83.33   22.95
   5  17  -6   84.18   19.66
   5 -17  -6   89.62   17.52
   5 -17  -6  102.30   21.56
  -5  17   6   84.23   22.01
  -5  17   6   92.37   31.74
  -5  17   6   81.09   19.91
   5  17  -6   73.45   13.87
   5  17  -5   86.03   15.62
   5  17  -5  101.30   19.46
  -5  17   5   98.06   24.15
   5 -17  -5   58.53   19.46
   5 -17  -5   89.87   16.72
   5  17  -5  103.64   21.31
   5 -17  -5   65.22   17.66
  -5  17   5   63.72   17.57
  -5  17   5   79.79   27.84
   5  17  -4   34.13   11.18
   5 -17  -4   53.74   17.76
   5  17  -4   45.96   13.57
   5 -17  -4   34.03   16.17
   5 -17  -4   58.78   13.17
   5  17  -4   44.86   14.17
  -5  17   4   38.22   13.97
  -5  17   4   52.15   23.25
   5 -17  -3   27.10   14.67
   5  17  -3    5.74    7.14
   5 -17  -3   17.42   12.92
  -5  17   3    1.90   11.58
   5  17  -3    4.89    6.84
   5 -17  -3    8.48    6.69
   5 -17  -3    5.29    6.74
  -5  17   3    9.73    8.78
  -5  17   3   11.88   14.57
  -5  17   3    9.53    5.49
   5 -17  -2  894.37   80.19
   5  17  -2 1029.36   72.61
  -5  17   2 1228.21  107.34
   5 -17  -2  985.74   77.60
   5  17  -2  983.75   75.90
  -5  17   2  935.74   80.59
  -5  17   2  941.03   76.95
  -5  17   2 1223.47  102.50
   5 -17  -2 1050.61   83.58
  -5  17   1    2.25   15.17
   5 -17  -1   35.73   13.92
   5 -17  -1   16.27    9.93
   5  17  -1   12.92    8.73
  -5 -17   1   24.25   12.38
  -5  17   1    2.54    7.19
   5  17  -1    7.49    8.98
  -5  17   1    8.63   11.63
  -5  17   1   17.76   10.93
   5 -17  -1   13.37   10.98
   5 -17   0    7.14    8.13
   5 -17   0    9.33    8.08
  -5  17   0    7.83    9.18
   5  17   0   -0.55    6.54
   5  17   0   18.06    9.83
  -5  17   0    3.34    9.48
  -5  17   0    7.24   16.42
   5 -17   1  448.06   49.70
   5 -17   1  515.18   47.81
   5 -17   1  444.87   50.60
  -5  17  -1  588.78   66.32
  -5  17  -1  462.83   52.99
   5  17   1  619.17   41.77
   5  17   1  522.81   48.65
  -5  17  -1  555.55   73.85
  -5 -17  -1  616.23   61.28
   5 -17   1  446.41   51.90
  -5  17  -1  584.54   66.37
   5 -17   2 1235.85  104.79
  -5 -17  -2 1456.61  120.61
  -5  17  -2 1332.35  112.13
  -5  17  -2 1789.90  128.49
  -5 -17  -2 1729.87  124.70
  -5  17  -2 1423.72  140.07
   5  17   2 1308.60  102.35
   5 -17   2 1389.19  111.68
  -5  17  -2 1681.26  134.23
   5  17   2 1627.87   90.47
   5 -17   2 1336.40  108.53
  -5 -17  -3   -3.14    5.44
   5 -17   3   21.61   12.08
   5 -17   3   24.45   12.67
  -5  17  -3   46.56   19.01
  -5  17  -3   23.20   15.67
  -5 -17  -3   36.93   17.17
   5  17   3   47.36   14.12
  -5  17  -3   26.35   23.10
   5 -17   3    5.99   11.43
  -5  17  -3   20.11   18.66
  -5  17  -4   35.13   17.32
  -5  17  -4   32.29   17.86
  -5 -17  -4   21.71   17.42
   5  17   4   37.08   13.22
  -5  17  -4   28.09   23.20
   5 -17   4   31.34   15.42
   5 -17   4   41.92   15.87
  -5 -17  -4   42.17   28.74
  -5  17  -4   35.88   21.61
  -5  17  -5  387.23   54.94
  -5  17  -5  612.28   86.48
  -5  17  -5  641.43   82.99
   5 -18  -9   28.89   14.17
  -5  18   9   15.52   14.72
   5  18  -8 1240.29  101.00
   5 -18  -8 1335.60   98.90
  -5  18   8 1339.94  137.88
  -5  18   7   41.97   18.11
   5  18  -7   20.51   13.82
   5 -18  -7   54.14   14.62
   5 -18  -7   21.36   13.52
  -5  18   7   42.22   25.35
  -5  18   7   27.55   13.57
  -5  18   7   28.29   15.17
   5  18  -7    8.28    9.48
   5  18  -6   27.89   13.57
  -5  18   6   54.74   19.01
   5 -18  -6   45.01   13.87
   5  18  -6   37.63   14.57
   5 -18  -6   29.04   13.62
  -5  18   6   53.59   19.21
  -5  18   6   89.17   31.24
  -5  18   6   31.59   13.77
   5  18  -6   24.80    9.73
   5  18  -5 1219.78   95.76
  -5  18   5 1580.86  116.57
   5 -18  -5 1223.37   99.30
   5 -18  -5 1552.72   97.41
   5  18  -5 1362.45  100.55
  -5  18   5 1588.35  136.38
  -5  18   5 1197.37  100.45
   5  18  -5 1277.61   90.42
   5  18  -4  494.92   46.21
   5 -18  -4  460.69   52.55
   5 -18  -4  577.65   47.21
   5  18  -4  533.29   49.55
  -5  18   4  586.04   73.30
  -5  18   4  490.33   51.90
  -5  18   4  392.02   33.98
   5  18  -4  473.81   42.52
   5 -18  -4  585.79   54.24
   5 -18  -3   95.61   22.36
   5 -18  -3   78.79   20.96
  -5  18   3  102.25   26.80
   5  18  -3   92.52   17.57
   5 -18  -3   91.82   19.56
   5  18  -3   90.02   19.16
  -5  18   3  108.19   22.61
  -5  18   3   97.96   29.29
  -5  18   3   91.07   16.12
   5 -18  -2   17.02   12.62
  -5  18   2    4.29   14.07
   5  18  -2   16.27    4.94
   5 -18  -2   13.02   11.73
   5 -18  -2    6.34    8.63
   5  18  -2    6.14    7.83
   5  18  -2    1.00    8.18
  -5  18   2    9.23    8.98
  -5  18   2    4.74   12.72
  -5  18   2    7.73    7.54
   5 -18  -1 1567.24  126.70
   5 -18  -1 1794.84  124.70
   5  18  -1 1921.34  118.81
  -5 -18   1 1884.91  135.28
  -5  18   1 1675.77  130.34
   5  18  -1 1886.85  125.55
  -5  18   1 2366.40  161.73
  -5  18   1 2136.06  158.44
  -5  18   1 1721.38  132.64
   5 -18  -1 1941.30  133.14
   5 -18   0   12.18    8.83
   5 -18   0    5.89    8.38
   5  18   0   24.95    9.78
  -5 -18   0   26.35   13.47
   5  18   0   14.17    8.98
  -5  18   0    5.49    7.78
  -5  18   0    5.19    9.78
  -5  18   0   37.53   23.30
   5 -18   1  164.42   24.65
   5 -18   1  120.61   24.55
   5 -18   1  143.02   25.30
  -5 -18  -1  230.99   35.88
  -5  18  -1  159.43   29.39
   5  18   1  201.80   20.81
  -5  18  -1  211.93   38.57
   5  18   1  167.17   25.75
  -5  18  -1  185.38   43.21
  -5  18  -1  166.27   34.68
   5 -18   1  153.55   28.84
   5  18   2   12.03    6.84
   5 -18   2   12.08    9.43
  -5  18  -2    4.69    9.98
  -5 -18  -2   12.67   13.82
  -5  18  -2    1.95   12.28
   5  18   2   12.67   10.48
  -5 -18  -2   12.28   11.13
  -5  18  -2    6.09   19.31
  -5  18  -2    6.89   14.62
   5 -18   2    7.34   12.48
   5 -18   2   16.02   11.58
   5 -18   3  157.09   28.14
  -5 -18  -3  280.99   44.36
  -5  18  -3  219.66   36.88
   5  18   3  208.74   29.69
   5 -18   3  178.50   30.39
  -5  18  -3  230.04   39.72
   5 -18   3  206.49   34.63
  -5  18  -3  267.82   56.64
  -5  18  -3  247.26   47.26
   5 -18   4    5.34   10.93
  -5  18  -4    7.44   13.77
  -5 -18  -4   24.85   20.66
   5  18   4   10.58   10.18
  -5  18  -4   56.54   29.44
  -5  18  -4    8.38   14.27
  -5  18  -5  951.06  117.87
  -5  18  -5 1156.70  118.76
   5  19  -8  377.75   45.66
   5 -19  -8  381.74   43.01
  -5  19   8  309.24   44.61
  -5  19   8  290.77   61.68
  -5  19   7    1.80   12.72
   5  19  -7   -1.25    9.63
   5  19  -7    2.64    9.88
   5 -19  -7    3.29    8.18
   5 -19  -7   14.67   11.68
  -5  19   7    6.64   17.86
  -5  19   7    4.54    9.93
  -5  19   7   17.76   12.58
   5  19  -7    8.58   10.33
  -5  19   6  692.97   68.46
   5  19  -6  512.63   54.49
  -5  19   6  806.10   72.96
   5 -19  -6  597.16   60.58
   5 -19  -6  664.73   56.54
   5  19  -6  670.27   61.58
  -5  19   6  713.23   88.92
  -5  19   6  561.68   60.68
   5  19  -6  608.99   50.65
   5  19  -5  201.85   29.54
  -5  19   5  298.06   43.21
   5 -19  -5  207.59   31.79
   5 -19  -5  257.14   30.64
   5  19  -5  262.98   34.53
  -5  19   5  235.93   34.88
  -5  19   5  215.32   48.05
   5  19  -5  219.46   26.45
   5  19  -4  615.13   53.79
   5 -19  -4  565.88   60.83
   5 -19  -4  754.15   55.79
   5  19  -4  612.73   56.89
  -5  19   4  769.42   84.83
  -5  19   4  587.68   59.53
  -5  19   4  492.62   43.06
   5  19  -4  595.92   50.35
   5  19  -3  176.20   24.45
  -5  19   3  208.79   38.72
   5 -19  -3  180.74   30.49
   5 -19  -3  169.76   26.60
   5  19  -3  170.11   26.90
  -5  19   3  140.17   27.30
  -5  19   3  193.67   41.37
  -5  19   3  137.53   21.61
   5 -19  -3  228.95   33.28
   5  19  -3  151.55   22.51
   5 -19  -2  173.90   29.89
  -5  19   2  190.87   38.42
   5  19  -2  169.96   12.87
   5  19  -2  158.14   22.75
   5 -19  -2  146.06   24.55
   5 -19  -2  123.70   25.85
   5  19  -2  163.92   25.80
  -5  19   2  171.06   29.39
  -5  19   2  206.44   42.22
  -5  19   2  139.47   24.80
   5 -19  -1 1952.27  147.11
   5 -19  -1 1997.68  143.81
  -5  19   1 1984.36  150.35
  -5  19   1 2905.78  185.63
   5  19  -1 2197.34  145.31
  -5 -19   1 2479.93  159.88
  -5  19   1 2672.79  183.69
  -5  19   1 1983.06  151.65
   5 -19  -1 2315.45  154.49
   5 -19   0    3.74    7.34
   5 -19   0    4.14    7.54
  -5 -19   0   24.60   13.37
   5  19   0    7.19    7.54
   5  19   0    7.49    8.53
  -5  19   0    8.83   10.38
  -5  19   0    2.59   14.57
  -5  19   0    5.84    9.63
   5 -19   1  224.65   33.43
   5 -19   1  202.45   29.59
   5 -19   1  243.82   34.73
  -5 -19  -1  341.27   45.91
  -5  19  -1  305.04   47.76
   5  19   1  306.89   27.45
   5  19   1  225.80   31.84
   5 -19   1  258.29   37.48
  -5  19  -1  308.79   54.79
  -5  19  -1  245.96   43.41
   5 -19   2   51.70   16.52
  -5 -19  -2   94.46   25.30
  -5  19  -2   45.86   18.76
  -5  19  -2   65.82   23.20
   5  19   2   47.85   15.02
  -5  19  -2  111.03   36.83
  -5  19  -2   62.93   24.65
   5 -19   2   57.64   19.21
   5 -19   2   58.63   18.11
   5 -19   3 1692.34  134.73
  -5  19  -3 2433.47  161.63
  -5  19  -3 1836.90  146.61
  -5 -19  -3 2440.60  165.42
  -5  19  -3 2399.24  190.87
   5  19   3 1878.52  135.08
   5 -19   3 1799.33  139.57
  -5  19  -3 2439.31  175.20
   5 -19   3 1969.14  145.81
   5 -19   4  401.40   47.26
  -5  19  -4  401.75   55.24
  -5  19  -4  526.11   82.54
  -5  19  -4  539.48   73.35
   5 -20  -8  145.71   25.95
  -5  20   8   74.95   22.66
   5  20  -7  333.59   42.37
   5 -20  -7  355.14   39.87
  -5  20   7  279.45   41.47
  -5  20   7  314.43   63.32
  -5  20   6 1615.09  115.42
   5  20  -6 1117.88   95.76
  -5  20   6 1617.09  117.77
   5 -20  -6 1239.49  102.00
   5 -20  -6 1396.58   98.16
   5  20  -6 1268.33  102.15
  -5  20   6 1428.31  137.18
  -5  20   6 1227.96  103.69
   5  20  -6 1283.00   90.42
   5  20  -5   16.47   10.78
   5 -20  -5   45.61   13.27
  -5  20   5   18.76   14.67
   5 -20  -5   13.27   10.88
   5  20  -5   12.77   11.93
  -5  20   5    7.44   10.78
  -5  20   5   25.55   18.71
   5  20  -5   22.51    9.63
   5  20  -4  474.01   46.51
   5 -20  -4  399.66   51.45
   5 -20  -4  516.57   47.01
   5  20  -4  514.13   51.65
  -5  20   4  521.81   70.61
  -5  20   4  477.65   53.79
   5  20  -4  467.92   44.01
   5 -20  -3 2117.35  157.79
   5  20  -3 2457.77  150.10
   5 -20  -3 2099.83  152.60
   5  20  -3 2293.15  154.29
  -5  20   3 2334.72  161.18
  -5  20   3 3152.44  200.05
  -5  20   3 2006.92  145.61
  -5  20   3 2896.70  184.93
   5  20  -3 2045.84  145.51
   5 -20  -3 2810.07  166.17
   5 -20  -2  759.69   73.65
   5 -20  -2  798.17   70.71
   5  20  -2  870.42   66.97
   5  20  -2  902.36   72.96
  -5  20   2  780.55   75.90
  -5  20   2 1142.43  104.64
  -5  20   2  814.23   72.36
  -5  20   2 1058.05   98.45
   5 -20  -2  943.48   79.89
  -5  20   1  285.28   51.60
   5 -20  -1  192.02   32.04
   5 -20  -1  214.47   30.99
   5  20  -1  265.92   29.34
  -5 -20   1  301.25   41.77
  -5  20   1  223.36   35.48
  -5  20   1  339.83   52.80
   5  20  -1  258.49   33.73
  -5  20   1  280.89   39.82
   5 -20  -1  287.03   39.17
   5 -20   0   49.25   16.17
   5 -20   0   47.16   14.82
  -5  20   0   33.88   15.32
  -5 -20   0   92.82   23.55
   5  20   0   52.35   13.12
   5  20   0   43.11   14.82
  -5  20   0   55.39   19.66
  -5  20   0   71.81   28.39
   5 -20   1 1763.85  139.87
   5 -20   1 2010.36  139.97
   5 -20   1 1849.88  143.17
  -5 -20  -1 2425.14  162.93
  -5  20  -1 1988.80  150.25
  -5  20  -1 2282.42  167.17
   5  20   1 2345.04  131.79
   5  20   1 2041.00  141.82
  -5  20  -1 2494.35  186.78
  -5  20  -1 2015.65  160.03
   5 -20   1 2125.58  150.75
   5 -20   2   17.42   11.63
  -5 -20  -2   29.54   17.12
  -5  20  -2    6.84   13.67
  -5  20  -2   43.21   20.76
   5  20   2   24.60   11.98
  -5  20  -2    6.29   19.96
   5 -20   2   15.27   12.33
  -5  20  -2   21.11   16.47
   5 -20   2   29.79   14.87
  -5  20  -3  167.02   33.78
  -5 -20  -3  206.84   40.77
   5  20   3  136.33   25.80
  -5  20  -3  222.21   52.15
  -5  20  -3  186.13   41.57
  -5  20  -4   34.93   19.36
  -5  20  -4   59.18   26.80
   5 -21  -7    4.79    9.93
  -5  21   7    6.84   18.31
  -5  21   7    3.24   14.42
  -5  21   6   50.00   20.41
   5  21  -6   36.58   15.22
   5  21  -6   53.04   18.61
   5 -21  -6   55.69   15.87
  -5  21   6   61.73   20.16
  -5  21   6   53.09   28.24
   5  21  -6   55.64   14.07
   5 -21  -5  117.42   24.90
   5  21  -5  143.12   24.80
   5 -21  -5  171.21   26.35
  -5  21   5  216.32   38.07
   5  21  -5  165.27   28.59
  -5  21   5  164.32   30.39
  -5  21   5  134.78   39.57
   5  21  -5  137.43   21.66
   5  21  -4    7.29    9.33
   5 -21  -4    3.14   10.63
   5  21  -4   14.72    9.48
  -5  21   4    1.60   10.38
  -5  21   4    2.69   15.17
   5 -21  -4    6.99    6.99
   5  21  -3   99.25   19.06
  -5  21   3  114.47   30.54
   5 -21  -3   84.23   23.10
   5  21  -3  130.54   22.66
   5  21  -3  103.69   22.75
  -5  21   3  128.94   27.10
  -5  21   3  124.50   35.23
   5 -21  -2    1.50   11.48
   5  21  -2    1.00    7.68
  -5  21   2   45.21   22.56
   5 -21  -2   16.77   12.82
   5 -21  -2    4.79    7.88
   5  21  -2    0.90    8.33
   5  21  -2    2.40    9.33
  -5  21   2    6.24   11.28
  -5  21   2   32.93   20.66
   5 -21  -1   35.33   15.97
  -5  21   1   33.23   22.21
   5 -21  -1   31.59   14.22
   5 -21  -1   20.96   11.83
  -5 -21   1   31.69   16.37
   5  21  -1   28.69   11.28
  -5  21   1   20.26   14.37
   5  21  -1   22.56   13.02
  -5  21   1   49.00   22.85
  -5  21   1   27.70   13.92
   5 -21   0   92.62   21.51
   5 -21   0  100.20   21.21
  -5 -21   0  135.18   28.84
  -5  21   0  105.69   25.75
   5  21   0  110.13   18.56
   5  21   0  104.29   21.61
  -5  21   0  124.60   28.24
  -5  21   0  120.01   35.53
   5 -21   1  355.89   41.87
   5 -21   1  357.89   43.51
   5 -21   1  355.89   44.71
  -5 -21  -1  528.65   59.83
  -5  21  -1  385.24   50.30
  -5  21  -1  397.16   57.64
   5  21   1  361.23   42.82
  -5  21  -1  562.23   75.45
  -5  21  -1  432.74   57.09
   5 -21   1  423.31   51.45
   5 -21   2   29.69   13.87
  -5 -21  -2   32.98   18.26
   5  21   2   32.04   13.82
   5 -21   2   26.90   13.92
  -5  21  -2   25.90   18.41
  -5  21  -3   -3.74   13.97
   5 -22  -7    4.99    9.93
  -5  22   7   -3.44   20.16
  -5  22   7    1.70   11.53
   5 -22  -6 1032.05   80.39
   5  22  -6  902.26   82.14
  -5  22   6 1117.73  116.32
  -5  22   6  867.23   84.28
   5  22  -5  328.60   39.47
   5 -22  -5  360.68   40.32
   5  22  -5  345.46   43.11
  -5  22   5  306.09   44.56
  -5  22   5  363.88   62.13
   5  22  -5  294.71   34.03
   5  22  -4  443.62   46.46
   5 -22  -4  401.65   48.40
   5 -22  -4  540.78   48.70
   5  22  -4  495.72   51.95
  -5  22   4  559.89   73.60
  -5  22   4  410.63   52.40
   5  22  -4  409.04   42.96
   5 -22  -3  356.94   46.31
   5  22  -3  345.41   39.02
   5  22  -3  403.10   44.96
  -5  22   3  482.29   66.62
   5  22  -3  351.30   38.77
   5 -22  -2  146.61   29.94
  -5  22   2  181.49   40.12
   5 -22  -2  174.15   28.04
   5 -22  -2  130.04   27.35
   5  22  -2  173.90   28.54
  -5  22   2  159.98   30.84
  -5  22   2  205.64   43.26
   5  22  -2  158.59   24.85
   5 -22  -1   19.21   14.47
  -5  22   1   31.54   20.06
   5 -22  -1   32.09   14.97
   5 -22  -1   23.20   13.67
   5  22  -1   33.58   12.43
  -5  22   1   19.56   13.92
   5  22  -1   16.32   12.67
  -5  22   1   40.02   20.86
   5 -22   0  966.68   86.28
   5 -22   0 1118.83   88.08
  -5 -22   0 1427.32  108.58
   5  22   0 1275.07   82.14
   5  22   0 1095.43   88.82
   5 -22   0 1007.10   88.57
  -5  22   0  988.09   94.51
   5 -22   1 1216.29   96.81
   5 -22   1 1104.21   96.06
   5 -22   1 1277.96  101.95
  -5  22  -1 1213.84  107.14
   5  22   1 1328.41  100.60
   5 -22   2   33.53   13.77
  -5 -22  -2   79.69   25.25
  -5  22  -2   55.59   22.21
  -5  22  -3  702.90   76.15
   5 -23  -6   13.62   10.93
  -5  23   6   12.13   14.42
   5 -23  -5 2188.66  136.78
   5  23  -5 2090.45  142.22
  -5  23   5 1694.74  140.92
   5  23  -5 1790.60  126.75
   5  23  -4  506.59   50.60
  -5  23   4  452.95   57.04
  -5  23   4  527.70   72.56
   5 -23  -4  590.48   52.50
   5  23  -4  476.90   47.16
   5  23  -3   44.66   14.67
   5 -23  -3   36.88   17.52
   5  23  -3   40.57   14.82
   5  23  -3   51.35   17.37
  -5  23   3   32.49   16.62
  -5  23   3   74.00   27.79
   5 -23  -2  197.31   34.28
  -5  23   2  214.08   43.56
   5 -23  -2  125.25   27.35
   5  23  -2  176.90   25.85
   5  23  -2  170.16   29.24
  -5  23   2  220.86   44.46
   5  23  -2  144.56   24.55
   5 -23  -1 1093.08   98.30
   5  23  -1 1177.86   94.91
   5 -23   0  206.69   32.14
  -5 -23   0  267.47   42.91
  -5  23   0  219.12   37.58
   5 -23   0  222.16   34.13
   5  23   0  221.36   33.63
   5 -23   1  550.91   57.49
   5 -23   1  600.61   61.53
  -5  23  -1  634.24   68.26
   5  23   1  577.00   59.63
  -5  23  -2    3.84   12.67
   5 -24  -5   92.77   20.86
  -5  24   5   95.51   26.35
   5  24  -5   97.86   19.51
   5  24  -4   22.21   16.12
  -5  24   4    5.44   11.98
   5  24  -4   10.08   10.18
   5  24  -3  171.41   27.40
   5  24  -3  187.63   31.44
  -5  24   3  181.54   34.58
   5  24  -3  180.09   27.79
   5 -24  -2  594.62   63.62
   5  24  -2  739.38   60.63
   5  24  -2  784.39   69.21
  -5  24   2  674.76   71.76
   5  24  -2  567.92   57.04
   5 -24  -1   35.83   15.22
  -5  24   1   37.38   19.31
   5  24  -1   46.56   14.92
   5  24  -1   56.89   18.41
   5 -24   0   63.97   19.46
  -5  24   0   62.18   22.61
   5  24   0  120.46   24.90
  -5  24  -1   51.35   21.61
  -5  25   4 1903.57  141.12
   5  25  -4 1650.27  119.06
   5  25  -3    6.99   10.28
   5 -25  -2  126.45   26.60
   5  25  -2  110.28   22.11
  -5  25   2  133.19   30.49
  -5  25   1 1360.00  114.87
  -5  25   0  484.34   60.58
   5  26  -2  946.62   77.00
  -6   0  11  143.86   50.20
   6   0 -11  151.60   25.35
  -6   0  10 1223.77  130.94
   6   0 -10  865.28   82.54
   6   0 -10 1065.83   79.44
   6   0 -10 1057.35   74.45
  -6   0   9  324.86   59.13
   6   0  -9  197.76   31.79
   6   0  -9  291.67   31.09
   6   0  -9  288.13   27.99
  -6   0   8 3006.53  207.74
   6   0  -8 2642.30  159.28
   6   0  -8 2487.96  155.19
  -6   0   7  737.19   77.65
   6   0  -7  603.50   54.74
   6   0  -7  635.59   55.59
   6   0  -7  681.00   47.71
   6   0  -7  590.93   44.71
   6   0  -6 1430.66   99.85
   6   0  -6 1348.77   97.26
   6   0  -6 1500.42   87.13
   6   0  -6 1406.61   85.33
   6   0  -6 1348.62   86.38
   6   0  -5 1967.69  130.09
   6   0  -5 1854.42  125.65
   6   0  -5 1912.05  118.37
   6   0  -5 2037.26  113.23
   6   0  -5 1965.45  116.22
   6   0  -4 2284.46  141.42
   6   0  -4 2094.29  134.48
   6   0  -4 2156.77  131.29
   6   0  -3   85.78   14.02
   6   0  -3  107.84   18.51
   6   0  -3   92.32   15.42
  -6   0   2  821.47   62.63
   6   0  -2  878.11   62.13
   6   0  -2  789.63   56.04
   6   0  -1 2701.64  152.65
   6   0  -1 2521.24  153.40
   6   0  -1 2396.89  143.22
  -6   0   1 2222.99  148.70
  -6   0   0   16.17    6.04
   6   0   0   17.07    7.83
  -6   0   0   11.03    5.19
   6   0   0   19.16    5.24
   6   0   0    7.44    7.19
   6   0   0    8.13    6.49
   6   0   1  645.37   40.57
   6   0   1  641.38   52.70
  -6   0  -1  685.89   53.24
   6   0   1  611.24   49.30
   6   0   2  790.73   60.43
  -6   0  -2  799.66   64.92
   6   0   2  653.80   55.79
   6   0   3  945.67   78.34
   6   0   3  936.29   73.50
  -6   0  -4  272.11   39.72
   6   0   4  195.61   27.25
   6   0   4  202.25   29.59
   6   0   5 2047.39  154.84
   6   0   5 2422.49  155.39
   6   0   6   29.69   13.82
  -6   0  -6   31.79   19.36
  -6  -1  11   48.20   31.64
  -6   1  11   41.12   30.14
   6  -1 -11   33.83   13.52
   6   1 -11   15.02   10.68
  -6  -1  10 1053.61  118.61
  -6   1  10 1114.04  123.75
   6  -1 -10  759.09   74.40
   6   1 -10  735.74   73.45
   6  -1 -10  942.48   71.76
   6   1 -10  939.63   71.26
   6   1 -10  879.05   66.37
  -6  -1   9   35.63   21.51
  -6   1   9   53.09   25.55
   6  -1  -9   40.57   14.77
   6  -1  -9   46.06   11.93
   6   1  -9   47.90   12.28
   6  -1  -9   37.28    9.93
   6   1  -9   35.38   10.53
  -6  -1   8  139.87   34.98
  -6   1   8  114.17   33.28
   6  -1  -8  107.84   16.62
   6   1  -8  110.83   16.82
   6  -1  -8  132.14   16.07
   6   1  -8  101.00   15.37
  -6   1   7 2705.18  182.59
   6  -1  -7 2304.13  150.40
   6   1  -7 2205.67  147.51
   6  -1  -7 2092.30  148.16
   6   1  -7 2050.28  147.11
   6  -1  -7 2452.03  139.42
   6   1  -7 2403.48  139.27
   6  -1  -7 2218.65  135.38
   6   1  -7 2265.75  137.53
  -6  -1   7 2596.79  177.50
   6  -1  -6 1239.84   94.01
   6   1  -6 1334.70   93.61
   6  -1  -6 1237.14   91.97
   6   1  -6 1220.08   91.37
   6  -1  -6 1394.73   81.79
   6   1  -6 1388.44   81.94
   6   1  -6 1312.54   79.64
   6  -1  -6 1334.40   80.99
   6  -1  -6 1304.56   79.89
   6   1  -6 1256.41   82.69
   6   1  -5   80.04   16.87
   6  -1  -5   69.81   16.42
   6  -1  -5   53.39   12.53
   6  -1  -5   66.12    7.83
   6  -1  -5   79.64   12.13
   6   1  -5   73.20    8.48
   6   1  -5   73.85   14.47
   6   1  -5   61.13   10.58
   6  -1  -5   79.74    9.33
   6   1  -5   80.34   11.23
   6  -1  -4  225.10   25.25
   6   1  -4  259.83   29.54
   6  -1  -4  272.51   30.79
   6   1  -4  235.98   25.60
  -6   1   4  275.35   29.69
   6   1  -4  227.35   23.40
   6  -1  -4  230.84   23.60
   6   1  -3 4557.65  104.79
   6  -1  -3 4395.12  106.74
   6   1  -3 4370.07   84.93
  -6   1   3 4462.34  113.97
   6   1  -3 4673.42   91.82
   6  -1  -3 4459.15   90.12
   6  -1  -3 4320.77   86.33
  -6   1   2   10.53    8.08
   6   1  -2   12.18    5.69
  -6   1   2    9.68    7.58
   6   1  -2   11.63    6.84
   6  -1  -2   26.85    8.48
  -6   1   1   80.39   14.67
   6   1  -1   95.31   15.17
  -6   1   1   82.44   18.61
   6   1  -1   72.21   14.77
   6  -1  -1   98.30   16.32
   6  -1  -1   82.79   15.67
   6  -1  -1   84.93   12.03
   6   1  -1  100.00   12.08
  -6   1   0  794.52   68.31
   6  -1   0  736.24   49.65
   6   1   0  782.10   61.23
   6  -1   0  744.47   60.63
   6   1   0  779.75   48.70
  -6  -1   0  775.01   52.70
  -6   1   0  743.17   51.85
  -6   1   0  664.73   53.99
   6  -1   0  734.14   53.74
   6   1   0  851.01   59.33
   6  -1   0  822.27   60.58
   6   1   1 1740.44   95.81
   6  -1   1 1741.39   98.50
   6   1   1 1762.25  111.23
  -6  -1  -1 1806.21  112.38
  -6   1  -1 1736.80  111.28
   6   1   1 1446.13  111.93
   6  -1   1 1706.76  112.38
  -6   1  -1 1431.51  101.60
   6   1   1 1615.29  107.89
   6  -1   1 1695.93  107.89
  -6   1  -2   19.11    4.44
  -6  -1  -2   27.50   10.98
  -6   1  -2   38.32   11.93
   6  -1   2   21.96   10.83
   6   1   2   23.55    9.73
   6  -1   2   12.48    7.78
   6   1   3  735.44   67.47
   6  -1   3  750.91   67.87
  -6  -1  -3 1015.28   79.89
  -6   1  -3  942.33   77.10
   6   1   3  825.16   65.37
   6  -1   3  856.00   65.27
   6   1   4  524.21   54.04
   6  -1   4  517.52   53.89
  -6  -1  -4  749.11   70.66
  -6   1  -4  701.46   67.62
   6   1   4  583.34   52.94
   6  -1   4  605.95   53.14
   6   1   5  338.88   42.02
   6  -1   5  352.15   42.47
  -6  -1  -5  491.82   59.58
  -6   1  -5  505.20   58.78
   6   1   5  418.67   43.76
   6  -1   5  394.02   42.47
   6  -1   6  609.29   62.18
   6   1   6  580.85   60.98
  -6  -1  -6  964.64   91.12
  -6   1  -6  937.44   88.57
  -6  -2  11  298.86   67.67
  -6   2  11  367.37   77.10
   6  -2 -11  306.89   37.82
   6   2 -11  308.69   37.48
   6   2 -11  292.32   33.78
  -6  -2  10  660.89   91.42
  -6   2  10  676.66   95.11
   6  -2 -10  478.35   54.99
   6   2 -10  498.11   55.44
   6  -2 -10  608.54   53.19
   6   2 -10  610.59   52.89
   6   2 -10  555.75   48.45
   6  -2  -9  190.87   29.99
  -6  -2   9  209.18   46.81
  -6   2   9  246.36   51.35
   6  -2  -9  200.65   25.50
   6   2  -9  227.35   26.95
   6   2  -9  194.41   24.00
  -6  -2   8  907.70   96.41
  -6   2   8 1159.65  109.43
   6  -2  -8  997.32   69.31
   6   2  -8  994.23   69.41
   6  -2  -8  970.92   64.12
   6   2  -8  868.28   66.12
  -6   2   7 1250.47  108.04
   6  -2  -7  963.29   78.74
   6  -2  -7  993.03   80.54
   6   2  -7 1016.83   79.19
   6  -2  -7 1102.71   70.71
   6   2  -7 1076.16   70.81
   6  -2  -7 1049.27   66.37
   6   2  -7  971.82   69.56
  -6  -2   7 1184.00  101.60
   6  -2  -6   15.32   10.28
   6   2  -6    3.39    8.28
  -6   2   6    8.78    5.14
   6  -2  -6    6.59    4.74
   6   2  -6    2.89    3.99
   6   2  -6    3.94    4.39
   6   2  -6   18.66    8.53
   6  -2  -6    4.24    5.19
   6  -2  -6    2.94    3.14
   6   2  -6   14.47    6.19
   6  -2  -5 1126.21   84.33
  -6   2   5 1344.58   94.31
   6   2  -5 1207.65   73.95
   6   2  -5 1294.38   87.88
   6  -2  -5 1261.15   90.77
  -6   2   5 1128.36   83.93
   6   2  -5 1186.49   84.48
   6   2  -5 1181.35   77.15
   6  -2  -5 1243.73   72.31
   6  -2  -5 1265.84   79.34
   6   2  -5 1283.75   73.80
   6  -2  -5 1213.04   72.21
   6   2  -4  792.48   56.54
   6  -2  -4  743.97   58.18
   6   2  -4  688.83   50.65
  -6   2   4  678.55   55.79
   6   2  -4  723.96   48.60
   6  -2  -4  725.91   49.15
   6   2  -4  596.37   37.23
   6  -2  -4  681.95   51.50
   6  -2  -3   45.16   10.33
   6   2  -3   42.57   11.83
   6  -2  -3   58.88   13.77
  -6   2   3   -0.95    3.69
  -6   2   3   50.15   13.62
   6   2  -3   43.71   10.33
   6   2  -3   34.83    8.88
   6  -2  -3   44.11   11.18
   6   2  -2  204.09   20.21
  -6   2   2  231.49   30.64
   6   2  -2  201.05   24.15
   6  -2  -2  190.42   23.45
  -6   2   2  222.46   26.85
   6  -2  -2  208.29   21.51
   6  -2  -2  210.03   26.65
   6   2  -1 3531.04  190.32
  -6   2   1 3192.36  203.10
   6   2  -1 3147.05  192.77
  -6  -2   1 2945.30  177.50
   6  -2  -1 3217.56  192.77
   6  -2  -1 3177.74  183.88
  -6   2   1 3131.03  192.02
   6  -2  -1 3510.43  194.26
   6  -2  -1 2981.73  182.69
   6   2  -1 3297.80  182.09
   6  -2   0  437.13   40.22
  -6   2   0  447.86   47.11
   6  -2   0  378.50   30.54
   6   2   0  407.89   39.92
   6  -2   0  407.79   39.77
   6   2   0  410.44   28.74
  -6  -2   0  417.67   33.58
  -6   2   0  423.26   37.78
  -6   2   0  402.40   32.49
   6   2   0  453.65   37.97
   6  -2   0  421.01   34.28
   6   2   1  687.09   41.67
   6  -2   1  788.48   47.76
  -6   2  -1  727.56   67.17
   6   2   1  717.33   60.38
   6   2   1  775.46   56.99
  -6   2  -1  660.99   52.70
  -6  -2  -1  845.57   60.28
  -6   2  -1  795.62   58.23
   6  -2   1  744.07   59.33
   6  -2   1  774.61   54.94
   6  -2   2  174.50   24.10
  -6   2  -2  130.09   16.07
  -6  -2  -2  187.28   27.10
  -6   2  -2  175.10   25.50
   6   2   2  155.34   21.76
   6  -2   2  154.69   20.81
   6   2   3 2175.93  158.83
   6  -2   3 2306.47  160.18
  -6  -2  -3 2916.66  175.00
  -6   2  -3 2655.48  169.36
   6   2   3 2364.01  155.59
   6  -2   3 2555.83  155.99
   6   2   4  271.81   36.13
   6  -2   4  305.19   37.63
  -6  -2  -4  372.01   48.55
  -6   2  -4  399.16   48.10
   6   2   4  285.43   34.48
   6  -2   4  311.53   35.03
   6   2   5  238.58   34.68
   6  -2   5  301.10   37.63
  -6  -2  -5  396.56   54.29
  -6   2  -5  350.75   48.20
   6   2   5  261.63   34.33
   6  -2   5  309.34   36.48
   6   2   6  447.91   50.85
   6  -2   6  460.74   51.60
  -6  -2  -6  723.01   78.14
  -6   2  -6  677.41   74.00
  -6  -3  11  791.38  108.38
  -6   3  11  734.34  110.73
   6  -3 -11  796.22   66.37
   6   3 -11  694.32   63.17
   6   3 -11  670.02   59.58
  -6  -3  10 2110.76  178.75
  -6   3  10 2285.71  192.37
   6  -3 -10 1619.09  132.14
   6   3 -10 1609.75  131.44
   6  -3 -10 2058.36  129.94
   6   3 -10 2015.05  128.74
   6   3 -10 1918.99  124.65
  -6  -3   9   32.59   20.66
  -6   3   9   25.40   19.46
   6  -3  -9   12.72    9.23
   6  -3  -9   28.59    9.63
   6   3  -9   13.47    8.98
   6   3  -9    8.23    6.89
  -6  -3   8  426.20   57.79
  -6   3   8  469.72   65.32
   6   3  -8  283.74   36.93
   6  -3  -8  361.98   33.43
   6   3  -8  370.76   33.98
   6   3  -8  311.68   31.59
   6  -3  -7  678.20   62.28
   6  -3  -7  740.13   65.37
   6   3  -7  702.95   62.48
   6  -3  -7  818.57   55.74
   6   3  -7  775.86   55.64
   6  -3  -7  815.18   50.70
   6   3  -7  731.50   55.64
   6  -3  -6 1185.65   89.87
   6  -3  -6 1148.32   92.62
   6   3  -6 1207.45   88.52
  -6   3   6 1129.71   84.03
  -6   3   6 1394.63   98.80
   6   3  -6 1197.12   89.67
   6  -3  -6 1353.06   79.89
   6   3  -6 1258.15   77.05
   6   3  -6 1372.23   81.59
   6  -3  -6 1327.56   75.80
   6  -3  -6 1351.17   80.99
   6   3  -6 1211.25   82.59
  -6   3   6 1468.09  115.82
   6   3  -5  478.55   42.42
   6  -3  -5  478.15   46.21
  -6   3   5  421.21   41.22
   6   3  -5  485.39   33.03
   6   3  -5  424.61   40.12
   6   3  -5  441.02   34.53
   6  -3  -5  458.49   30.34
   6  -3  -5  466.37   36.63
   6   3  -5  495.07   32.64
   6  -3  -5  442.37   28.24
  -6   3   5  492.62   48.10
   6  -3  -5  430.35   40.82
   6   3  -4 1621.03  103.44
   6  -3  -4 1569.58  107.39
  -6   3   4 1450.82  105.29
   6   3  -4 1504.26   98.70
   6   3  -4 1613.00   97.01
   6   3  -4 1484.05   87.23
   6  -3  -4 1557.46   97.56
   6   3  -4 1563.45   87.43
   6  -3  -4 1492.89   86.13
   6  -3  -4 1514.54  100.30
   6   3  -3 1353.41   89.57
   6  -3  -3 1328.41   93.02
   6   3  -3 1260.15   83.48
  -6   3   3 1342.83   96.81
   6   3  -3 1316.19   86.48
   6  -3  -3 1270.88   85.98
   6  -3  -3 1282.70   75.60
   6  -3  -3 1269.88   85.68
   6   3  -2 1078.16   66.37
  -6   3   2 1047.97   81.94
   6   3  -2 1163.74   74.10
   6  -3  -2 1104.66   73.50
   6   3  -2 1253.06   71.11
   6  -3  -2 1040.68   68.41
   6  -3  -2 1111.29   62.88
  -6   3   1 1271.08   94.86
   6   3  -1 1237.44   84.58
  -6  -3   1 1116.08   72.76
  -6   3   1 1149.62   85.18
   6  -3  -1 1131.85   83.18
   6  -3  -1 1206.50   76.95
   6  -3  -1 1196.13   74.95
   6   3  -1 1201.61   73.70
   6   3  -1 1258.95   80.09
   6  -3   0  504.75   45.31
  -6   3   0  591.13   55.29
   6  -3   0  458.89   36.23
   6   3   0  507.19   45.56
  -6   3   0  438.88   42.62
   6  -3   0  512.08   45.66
  -6  -3   0  511.78   39.67
   6   3   0  494.67   32.88
   6   3   0  514.58   41.32
  -6   3   0  465.03   37.13
   6  -3   0  537.78   39.37
   6  -3   1 2461.26  138.28
  -6   3  -1 2030.87  145.11
   6   3   1 2418.85  147.06
   6   3   1 2226.08  151.70
  -6  -3  -1 2379.28  150.65
  -6   3  -1 2421.49  148.95
   6  -3   1 2430.38  152.35
   6  -3   1 2448.99  145.21
  -6   3  -2  203.75   23.25
   6  -3   2  201.40   27.25
  -6  -3  -2  220.71   30.19
  -6   3  -2  224.60   29.39
   6   3   2  235.93   27.35
   6  -3   2  211.48   25.30
  -6   3  -3  384.24   34.33
   6   3   3  425.36   45.06
   6  -3   3  388.33   43.81
  -6   3  -3  508.19   51.25
   6   3   3  432.09   42.27
   6  -3   3  463.93   41.92
   6   3   4   62.03   17.22
   6  -3   4   59.03   16.27
  -6  -3  -4   83.09   23.85
  -6   3  -4   67.22   19.96
   6   3   4   60.03   16.32
   6  -3   4   66.52   16.32
   6   3   5 1299.32  104.94
   6  -3   5 1301.87  104.94
  -6   3  -5 1680.01  125.25
   6   3   5 1330.76  103.00
   6  -3   5 1463.94  104.29
   6  -3   6   99.75   22.46
  -6  -3  -6  125.35   34.33
  -6   3  -6  164.92   36.43
  -6  -4  11  201.15   53.39
   6  -4 -11  231.84   31.59
   6   4 -11  208.59   30.04
   6   4 -11  185.63   27.30
  -6  -4  10  228.00   50.15
  -6   4  10  259.73   59.33
   6  -4 -10  153.35   28.89
   6  -4 -10  216.97   29.04
   6   4 -10  224.85   28.74
   6   4 -10  215.47   27.45
   6   4 -10  153.89   29.64
  -6  -4   9  146.76   36.58
  -6   4   9  167.32   43.56
   6  -4  -9  107.64   22.61
   6  -4  -9  162.38   22.36
   6   4  -9  141.42   21.41
   6   4  -9  125.45   19.71
  -6   4   8  351.15   56.64
  -6  -4   8  238.03   43.56
   6   4  -8  262.38   34.33
   6  -4  -8  300.55   29.74
   6   4  -8  290.72   29.79
   6   4  -8  273.51   28.99
   6  -4  -7  196.56   29.04
  -6   4   7  201.75   39.27
  -6   4   7  157.99   18.81
   6   4  -7  162.48   24.80
   6  -4  -7  196.76   20.76
   6   4  -7  201.05   21.71
   6   4  -7  180.99   21.56
   6  -4  -6  493.42   50.25
   6   4  -6  525.41   45.81
  -6   4   6  468.47   43.71
   6   4  -6  483.14   46.46
   6   4  -6  575.01   36.78
   6  -4  -6  559.64   38.77
   6  -4  -6  536.24   40.22
   6   4  -6  529.25   42.22
   6  -4  -6  499.76   47.46
  -6   4   6  540.88   52.99
  -6   4   6  668.87   69.56
   6   4  -5  615.58   49.30
   6  -4  -5  529.00   52.05
  -6   4   5  553.85   50.20
   6   4  -5  571.72   40.17
   6   4  -5  544.12   41.37
   6  -4  -5  603.30   37.68
   6   4  -5  554.65   47.85
   6  -4  -5  566.58   43.51
  -6   4   5  561.44   54.59
   6  -4  -5  630.15   50.35
   6   4  -4  579.05   46.36
   6  -4  -4  528.15   49.45
  -6   4   4  502.90   49.10
   6   4  -4  539.73   41.12
   6   4  -4  488.73   42.12
   6   4  -4  523.36   33.98
   6  -4  -4  513.93   42.02
   6  -4  -4  524.81   44.26
   6   4  -3  989.29   68.36
   6  -4  -3  832.25   70.16
  -6   4   3  935.79   75.80
   6   4  -3  894.03   62.58
   6   4  -3  992.18   66.32
   6  -4  -3  882.30   65.12
   6  -4  -3  909.74   65.27
   6   4  -2   15.07    6.49
  -6   4   2   36.53   13.12
   6   4  -2   14.42    6.84
   6   4  -2   16.72    5.54
   6  -4  -2   12.92    7.04
   6  -4  -2   32.59    8.38
  -6   4   2   -1.00    3.84
   6  -4  -2   16.97    4.54
  -6   4   1 1079.36   85.98
   6   4  -1 1039.89   75.90
  -6   4   1  935.24   76.95
  -6  -4   1  998.87   66.77
   6  -4  -1 1001.56   68.66
   6  -4  -1 1027.26   75.60
   6   4  -1 1095.62   70.66
   6  -4  -1 1099.37   66.62
   6   4  -1 1031.40   64.97
   6  -4   0  109.58   18.71
   6   4   0   86.43   14.12
   6  -4   0  105.84   13.47
   6   4   0   96.41   17.52
  -6   4   0  118.37   23.10
  -6   4   0  152.85   15.67
  -6  -4   0   92.17   14.57
   6  -4   0   96.01   17.62
  -6   4   0   76.25   16.17
   6   4   0  109.03   10.38
  -6   4   0   96.41   13.67
   6  -4   0  113.72   14.57
   6  -4   1 2732.82  162.78
  -6   4  -1 2529.08  174.00
   6   4   1 2674.54  176.20
  -6  -4  -1 2972.95  175.85
  -6   4  -1 2800.94  172.86
   6  -4   1 3002.84  169.41
   6  -4   1 2864.71  177.20
  -6   4  -2  851.86   68.91
   6  -4   2  828.06   72.31
   6  -4   2  917.03   72.81
  -6  -4  -2 1084.80   79.69
  -6   4  -2  943.13   75.20
   6  -4   2  984.65   68.51
  -6   4  -3  265.37   30.59
  -6   4  -3  361.38   44.96
   6  -4   3  330.84   36.73
   6   4   3  315.32   37.13
   6  -4   3  308.14   37.58
  -6  -4  -3  414.88   46.41
  -6   4  -3  306.64   39.42
   6   4   3  294.57   34.03
   6  -4   3  309.74   33.13
  -6   4  -4  478.80   43.16
   6   4   4  465.63   51.35
   6  -4   4  593.27   55.89
  -6   4  -4  611.99   62.58
   6   4   4  552.10   51.85
   6  -4   4  625.71   52.60
   6   4   5  434.04   48.10
   6  -4   5  424.46   47.85
  -6  -4  -5  556.10   66.87
  -6   4  -5  521.12   60.28
   6   4   5  414.83   45.66
   6  -4   5  461.78   46.56
  -6  -4  -6  580.20   74.60
  -6   4  -6  576.06   69.71
   6  -5 -11  737.09   63.57
   6   5 -11  711.14   62.18
   6   5 -11  590.88   56.94
  -6  -5  10  432.24   67.67
  -6   5  10  549.81   84.48
   6   5 -10  359.59   46.21
   6  -5 -10  463.18   44.71
   6   5 -10  466.72   44.61
   6   5 -10  393.32   40.52
   6  -5 -10  362.13   46.26
  -6  -5   9  188.38   41.37
  -6   5   9  240.92   51.45
   6  -5  -9  150.95   28.04
   6  -5  -9  243.82   28.14
   6   5  -9  230.54   27.55
   6   5  -9  198.11   25.60
   6   5  -8    1.15    8.33
  -6  -5   8   19.91   15.17
  -6   5   8   29.39   21.31
  -6   5   8    7.58    3.99
   6  -5  -8    5.49    6.44
   6   5  -8   -0.75    6.44
   6   5  -8    5.99    7.88
   6   5  -7    8.13    7.58
  -6   5   7   23.05   15.22
   6  -5  -7    3.59    9.33
  -6   5   7    8.98    9.28
  -6   5   7    3.24    4.44
   6   5  -7   11.58    7.34
   6  -5  -6  987.54   79.89
   6   5  -6  950.56   70.91
  -6   5   6  869.72   72.11
   6   5  -6  977.56   66.72
   6   5  -6 1019.53   61.98
   6  -5  -6 1062.29   64.87
   6   5  -6  919.03   73.70
   6  -5  -6 1016.13   66.97
  -6   5   6 1176.36   85.38
   6   5  -6  969.82   69.51
   6  -5  -6  941.08   75.00
  -6   5   6 1112.99   98.21
   6   5  -5 1101.76   76.70
   6  -5  -5 1029.16   83.04
  -6   5   5 1005.45   81.09
   6   5  -5 1060.94   70.01
   6   5  -5 1120.43   69.16
   6  -5  -5 1094.63   65.87
   6   5  -5  998.17   76.25
   6  -5  -5 1150.77   73.95
  -6   5   5 1130.36   86.68
   6  -5  -5 1037.99   78.00
   6   5  -4    5.89    4.74
   6  -5  -4   32.59   10.48
   6   5  -4    3.54    7.04
   6  -5  -4    6.29    7.98
  -6   5   4    9.03    8.78
   6   5  -4   30.49    8.18
   6   5  -4    7.83    4.24
   6  -5  -4    3.04    5.79
   6   5  -3 1329.41   86.58
   6   5  -3 1348.37   85.73
  -6   5   3 1249.47   96.46
   6   5  -3 1198.12   81.59
   6   5  -3 1238.74   73.65
   6  -5  -3 1310.75   85.83
   6  -5  -3 1191.19   84.08
  -6   5   2   21.76   11.58
   6   5  -2   15.22    6.44
   6  -5  -2   20.26    9.18
   6   5  -2   21.91    6.29
   6   5  -2   14.27    3.64
   6  -5  -2   17.62    6.99
   6  -5  -2   23.25    4.59
   6   5  -1  520.87   36.83
  -6   5   1  546.27   51.00
  -6   5   1  552.50   55.39
   6   5  -1  553.75   47.36
  -6  -5   1  540.98   40.77
   6  -5  -1  550.11   41.32
  -6   5   1  490.58   34.73
   6  -5  -1  524.66   46.31
   6   5  -1  562.13   41.02
  -6   5   1  516.82   35.33
   6   5  -1  537.28   35.38
   6  -5  -1  538.28   37.73
   6  -5   0   60.63   14.52
   6  -5   0   63.47   10.73
   6   5   0   68.51   12.08
  -6   5   0   60.68   17.22
   6   5   0   68.81   14.72
  -6   5   0   59.93   10.58
  -6   5   0   51.50   14.42
  -6  -5   0   62.88   12.43
   6  -5   0   49.10   13.17
   6   5   0   61.13    7.34
  -6   5   0   64.72   11.43
   6  -5   0   63.47   10.88
  -6   5  -1  207.59   29.44
   6  -5   1  240.27   21.91
   6   5   1  206.34   28.09
  -6  -5  -1  253.40   29.54
  -6   5  -1  211.58   26.80
   6  -5   1  239.42   24.85
   6  -5   1  236.43   29.69
   6  -5   2   28.54   11.28
  -6   5  -2   16.12    9.03
  -6  -5  -2   25.40   12.58
   6  -5   2   27.00   10.93
  -6   5  -2   21.86   10.58
   6  -5   2   15.82    8.28
  -6   5  -3  356.59   44.31
   6   5   3  257.84   34.08
   6  -5   3  266.72   33.58
   6  -5   3  238.88   33.88
  -6  -5  -3  343.77   43.56
  -6   5  -3  308.79   38.87
   6   5   3  265.97   32.49
   6  -5   3  334.29   33.48
  -6   5  -3  259.09   33.38
   6   5   4  455.60   48.95
   6  -5   4  485.54   50.50
  -6   5  -4  574.31   59.03
   6   5   4  439.83   46.21
   6  -5   4  525.36   47.66
  -6   5  -4  408.04   44.11
   6   5   5   64.92   18.46
  -6  -5  -5   87.53   27.94
   6  -5   5   57.19   17.76
  -6   5  -5  113.82   27.00
  -6  -5  -5  113.08   38.87
   6   5   5   77.60   19.56
   6  -5   5   90.17   19.56
  -6  -5  -6   94.71   39.52
  -6  -5  -6   98.50   31.69
  -6   5  -6   96.31   28.54
   6  -6 -11  373.11   41.17
   6   6 -11  303.70   37.82
   6   6 -11  289.28   35.78
  -6  -6  10  110.23   34.03
  -6   6  10  131.49   42.91
   6  -6 -10  105.99   24.05
   6  -6 -10  123.55   21.46
   6   6 -10  100.30   20.51
   6   6 -10  110.23   19.96
   6   6 -10   64.97   19.81
  -6  -6   9  653.75   75.25
  -6   6   9  673.41   86.93
   6  -6  -9  676.76   53.79
   6   6  -9  615.93   53.09
   6   6  -9  604.25   52.20
   6  -6  -9  518.67   56.89
  -6   6   8 1742.79  138.53
  -6   6   8 1107.75   82.14
   6  -6  -8 1586.95   91.67
   6   6  -8 1227.16   96.71
   6   6  -8 1334.60   90.87
   6  -6  -7  667.77   62.93
  -6   6   7  607.49   54.09
   6  -6  -7  774.46   52.60
   6   6  -7  651.06   59.08
   6   6  -7  689.58   54.79
   6   6  -6   70.16   15.17
  -6   6   6  102.45   27.40
   6  -6  -6   56.19   14.27
   6  -6  -6   55.49   16.27
   6   6  -6   70.86   14.72
   6   6  -6   84.53   13.22
   6   6  -6   59.83    9.13
  -6   6   6   73.95   15.67
   6  -6  -6   66.67   10.78
   6  -6  -6   81.19   13.47
   6   6  -5 1006.60   71.11
   6  -6  -5  955.00   78.94
   6   6  -5 1067.43   66.87
  -6   6   5  894.08   77.80
   6   6  -5  997.07   65.47
   6  -6  -5 1037.74   62.53
  -6   6   5  999.42   82.04
   6   6  -5  909.89   71.61
   6  -6  -5 1049.97   70.36
   6  -6  -5  964.04   74.05
   6   6  -4 1417.94   89.57
   6  -6  -4 1328.51   97.16
   6   6  -4 1388.19   86.48
  -6   6   4 1284.25   99.40
   6  -6  -4 1267.53   76.25
   6   6  -4 1333.70   79.99
  -6   6   4 1417.24  101.00
   6   6  -4 1256.56   87.18
   6  -6  -4 1278.16   87.23
   6  -6  -4 1252.51   89.42
   6   6  -3   28.99    7.98
   6   6  -3   22.85    8.93
   6   6  -3   27.50    9.93
  -6   6   3   25.90   12.38
   6   6  -3   34.33    6.19
   6  -6  -3   33.13   11.03
   6  -6  -3   26.35    8.88
   6   6  -2   77.75   14.72
   6   6  -2   53.34    9.33
  -6   6   2   70.31   18.56
   6   6  -2   71.01    8.48
   6  -6  -2   48.25   12.48
   6  -6  -2   49.50   11.23
   6  -6  -2   66.72    7.14
   6   6  -2   69.06   10.28
   6   6  -1  501.06   22.80
   6   6  -1  542.22   37.73
  -6   6   1  568.32   49.65
  -6  -6   1  537.73   31.69
   6   6  -1  530.75   27.15
   6  -6  -1  527.00   30.09
  -6   6   1  469.27   22.70
   6  -6  -1  510.94   35.93
   6   6  -1  503.20   21.76
   6  -6  -1  555.60   24.00
   6   6   0   51.95   13.02
  -6   6   0   54.59   17.17
  -6   6   0   47.31   14.87
  -6   6   0   51.20   10.53
   6  -6   0   52.70   10.08
   6  -6   0   50.45   13.67
  -6  -6   0   66.77   13.17
   6  -6   0   43.96   12.62
   6   6   0   61.58    9.68
   6   6   0   52.85    6.69
   6  -6   0   51.95   10.08
   6  -6   1   79.54   12.33
  -6   6  -1   86.88   19.71
   6   6   1   84.28   17.37
  -6  -6  -1   97.36   18.51
  -6   6  -1   95.41   17.66
   6  -6   1   97.11   15.22
   6  -6   1   76.80   17.17
  -6   6  -2   91.02   21.21
  -6  -6  -2  134.68   23.70
   6  -6   2  131.04   21.56
   6  -6   2   87.98   19.01
  -6   6  -2   95.26   19.91
   6  -6   2  104.49   17.02
  -6   6  -3  283.44   39.17
   6   6   3  186.78   28.34
   6  -6   3  181.79   27.94
   6  -6   3  197.86   29.59
  -6  -6  -3  257.74   37.43
  -6   6  -3  206.84   31.94
   6   6   3  190.02   26.90
   6  -6   3  213.23   26.85
  -6   6  -3  198.26   31.29
  -6   6  -4   10.78    8.58
  -6   6  -4   40.27   17.37
   6   6   4   15.92   10.43
  -6  -6  -4   22.70   15.77
   6  -6   4   18.76   11.48
  -6   6  -4   14.27   11.78
   6   6   4   17.42   11.13
   6  -6   4    6.89    8.73
  -6  -6  -5  117.72   41.72
   6   6   5   47.26   16.77
  -6  -6  -5   78.54   26.65
   6  -6   5   39.17   14.97
  -6   6  -5   82.74   24.05
   6   6   5   77.85   18.86
   6  -6   5   72.31   17.86
  -6  -6  -6   -2.59   18.11
  -6   6  -6   12.53   14.67
  -6  -6  -6    7.54   25.65
   6  -7 -11   13.42   11.38
   6   7 -11   20.21   12.82
   6   7 -11   26.70   13.17
  -6  -7  10  337.98   54.19
  -6   7  10  354.60   65.87
   6  -7 -10  317.52   35.88
   6   7 -10  291.17   35.28
   6   7 -10  302.80   34.83
   6  -7 -10  235.03   37.03
  -6  -7   9   78.64   24.85
  -6   7   9   88.27   32.24
   6  -7  -9   76.40   19.76
   6  -7  -9   82.74   16.72
   6   7  -9   93.17   17.91
   6   7  -9   91.42   17.71
  -6   7   8  651.31   78.74
  -6   7   8  477.10   42.02
   6  -7  -8  572.26   45.01
   6   7  -8  480.25   50.05
   6   7  -8  515.18   45.96
   6  -7  -8  462.33   49.70
  -6   7   7  422.96   57.89
   6  -7  -7  331.94   40.57
  -6   7   7  312.03   34.78
   6  -7  -7  355.34   30.39
   6   7  -7  389.58   39.52
   6   7  -7  304.15   20.26
   6   7  -7  277.45   31.14
   6  -7  -6  250.25   34.48
   6   7  -6  293.07   28.69
   6   7  -6  267.02   22.61
  -6   7   6  231.79   32.29
   6  -7  -6  292.07   25.15
  -6   7   6  289.13   37.08
   6   7  -6  257.29   31.04
   6  -7  -6  268.12   32.44
   6   7  -6  305.24   28.24
   6  -7  -6  288.28   28.14
  -6   7   6  335.28   48.15
   6   7  -5  489.28   39.92
   6  -7  -5  380.94   44.56
   6   7  -5  534.09   37.63
  -6   7   5  359.89   44.76
   6   7  -5  455.45   35.68
   6  -7  -5  455.00   32.78
  -6   7   5  508.69   51.05
   6   7  -5  391.57   39.72
   6  -7  -5  434.29   42.17
   6  -7  -5  487.13   39.97
   6   7  -4   12.13    5.89
   6   7  -4   11.68    7.24
   6   7  -4   27.00    9.23
   6  -7  -4   12.67    4.04
  -6   7   4   17.42   10.48
   6   7  -4    4.54    4.89
   6  -7  -4    6.14    6.49
  -6   7   4    5.04    9.63
   6  -7  -4   13.27    8.33
   6   7  -3  474.01   39.57
   6   7  -3  509.99   33.78
   6   7  -3  447.31   40.12
  -6   7   3  493.32   52.05
   6   7  -3  462.73   32.88
   6  -7  -3  458.24   40.02
   6   7  -3  416.77   36.38
   6  -7  -3  481.69   41.32
  -6   7   3  415.92   31.34
   6   7  -2  490.28   42.32
  -6   7   2  475.61   51.75
   6  -7  -2  432.09   38.27
   6   7  -2  445.57   34.78
  -6   7   2  409.09   31.19
   6   7  -2  463.38   32.34
   6  -7  -2  459.09   41.62
   6   7  -2  466.02   33.33
   6   7  -1  751.36   60.88
   6   7  -1  744.82   49.20
  -6   7   1  850.06   73.95
   6  -7  -1  744.72   55.04
  -6  -7   1  786.24   57.89
  -6   7   1  706.60   51.35
   6  -7  -1  778.95   60.88
   6   7  -1  747.17   49.75
   6  -7  -1  785.19   49.45
   6  -7  -1  734.44   63.32
   6   7   0  579.30   21.71
   6  -7   0  513.33   31.09
   6   7   0  568.87   41.82
  -6   7   0  663.28   55.84
  -6   7   0  540.43   33.58
   6  -7   0  581.70   43.26
  -6  -7   0  590.63   39.57
   6  -7   0  499.51   39.12
   6   7   0  533.84   27.84
   6  -7   0  617.22   31.19
   6   7   0  557.44   21.01
   6  -7   1  228.20   22.85
   6   7   1  190.92   27.84
  -6  -7  -1  244.51   30.69
   6   7   1  202.40   22.01
   6  -7   1  242.82   25.05
  -6   7  -1  183.44   31.84
  -6   7  -2   53.69   18.06
   6  -7   2   87.73   18.41
  -6   7  -2   58.83   19.16
  -6  -7  -2   58.58   16.62
   6  -7   2   39.92   13.67
  -6   7  -2   50.80   14.87
   6  -7   2   50.70   12.23
  -6   7  -3 1102.56   90.72
   6   7   3  773.56   73.55
   6  -7   3  950.06   77.20
  -6  -7  -3 1065.53   88.37
   6  -7   3  906.00   77.25
  -6   7  -3  961.04   81.69
  -6   7  -3  860.89   84.08
   6  -7   3 1045.72   73.80
  -6   7  -4   80.24   22.90
  -6   7  -4  139.02   28.99
   6   7   4   77.20   19.31
  -6  -7  -4   97.16   26.65
   6  -7   4   77.15   19.61
  -6   7  -4  106.29   24.80
  -6  -7  -4  101.00   37.87
   6   7   4   71.41   18.01
   6  -7   4   93.02   19.31
   6   7   5  378.40   47.90
  -6  -7  -5  674.91   93.51
  -6  -7  -5  699.56   75.95
   6  -7   5  458.34   51.30
  -6   7  -5  520.72   61.68
   6   7   5  478.45   50.30
   6  -7   5  605.60   53.44
  -6  -7  -6  955.45  120.76
  -6  -7  -6  968.03  101.85
  -6   7  -6  852.56   89.17
   6  -8 -11  360.48   41.57
   6   8 -11  286.68   37.13
   6   8 -11  264.77   35.23
  -6   8  10 1584.90  153.55
   6  -8 -10 1559.75  108.73
   6   8 -10 1532.36  108.09
   6   8 -10 1419.08  106.19
  -6   8   9  374.11   61.68
   6  -8  -9  353.60   34.98
   6   8  -9  217.17   33.78
   6   8  -9  260.98   31.74
   6  -8  -9  268.97   37.48
   6  -8  -8   11.23    9.48
   6   8  -8    3.59    8.13
  -6   8   8   10.38   14.62
  -6   8   8    8.48   10.48
  -6   8   8   11.38    6.84
   6  -8  -8    5.94    6.19
   6   8  -8    8.93    8.48
  -6   8   7 1627.32  129.44
   6  -8  -7 1265.49  102.95
   6   8  -7 1330.71   91.77
  -6   8   7 1271.58   98.35
   6   8  -7 1366.89   78.44
   6  -8  -7 1532.71   90.62
   6   8  -7 1315.74   98.50
   6   8  -7 1335.40   78.69
   6   8  -7 1283.65   93.31
   6   8  -6  162.78   20.06
  -6   8   6  200.00   37.48
   6  -8  -6  122.61   24.50
   6   8  -6  201.80   17.96
   6   8  -6  161.83   20.86
  -6   8   6  149.25   26.05
   6  -8  -6  181.69   18.91
  -6   8   6  160.48   27.99
   6  -8  -6  132.89   23.35
   6   8  -6  159.83   23.85
   6  -8  -6  165.37   21.21
   6   8  -5  161.03   19.81
   6   8  -5  166.37   18.96
   6   8  -5  154.74   18.41
   6  -8  -5  174.75   16.72
  -6   8   5  110.98   24.00
  -6   8   5  171.06   28.34
   6  -8  -5  155.04   22.85
   6  -8  -5  171.56   21.66
   6   8  -5  156.99   22.06
   6   8  -4  170.81   20.61
   6   8  -4  178.45   21.21
   6  -8  -4  173.16   15.47
  -6   8   4  197.36   30.49
  -6   8   4  165.37   28.74
   6   8  -4  148.11   17.27
   6  -8  -4  150.05   21.56
  -6   8   4  150.75   17.91
   6  -8  -4  150.80   20.96
   6   8  -4  171.61   21.21
   6   8  -3  907.10   61.58
  -6   8   3  913.34   76.25
   6   8  -3  871.17   63.32
  -6   8   3  804.90   75.60
   6   8  -3  799.31   54.64
   6  -8  -3  794.72   62.18
  -6   8   3  747.57   54.54
   6  -8  -3  818.92   62.88
   6   8  -3  800.71   58.98
   6   8  -3  911.64   53.09
   6  -8  -2  173.61   25.20
   6   8  -2  173.16   22.80
  -6   8   2  163.87   30.09
   6   8  -2  165.77   14.87
   6  -8  -2  138.33   19.06
  -6   8   2  123.50   14.87
   6   8  -2  145.46   15.52
   6   8  -2  139.52   16.22
   6  -8  -2  148.41   21.36
   6  -8  -1  251.25   32.59
   6   8  -1  326.05   33.73
   6  -8  -1  241.02   26.35
  -6   8   1  326.80   42.52
  -6  -8   1  284.54   30.19
   6   8  -1  288.03   23.00
  -6   8   1  261.48   25.55
   6  -8  -1  280.44   31.79
   6   8  -1  258.39   23.45
   6  -8  -1  293.42   22.56
   6   8   0  216.57   16.37
   6   8   0  202.40   16.47
   6  -8   0  200.10   22.21
   6   8   0  183.29   26.10
  -6   8   0  251.35   37.08
  -6   8   0  192.87   23.35
  -6  -8   0  236.98   27.94
   6  -8   0  234.88   29.99
   6  -8   0  229.10   28.69
   6   8   0  203.45   20.46
   6  -8   0  217.87   21.06
   6  -8   1   74.10   17.02
   6  -8   1   60.43   11.38
   6   8   1   65.27   15.77
  -6   8  -1   51.20   13.12
  -6  -8  -1   62.03   16.62
   6   8   1   58.33   11.18
   6  -8   1   83.13   13.67
   6  -8   2   20.06    7.29
  -6   8  -2    6.59   10.48
   6  -8   2    5.69    7.49
  -6  -8  -2   11.98    9.63
   6  -8   2    2.25    7.19
   6  -8   2    4.39    7.63
  -6   8  -3  721.57   68.86
   6   8   3  478.75   52.70
   6  -8   3  511.14   53.74
  -6  -8  -3  672.56   66.57
   6  -8   3  575.51   56.04
  -6   8  -3  576.41   59.58
   6  -8   3  684.19   53.49
  -6  -8  -4   68.11   32.39
  -6   8  -4   49.40   20.56
   6   8   4   44.11   15.27
  -6  -8  -4   57.44   22.01
   6  -8   4   43.56   15.67
  -6   8  -4   47.66   17.91
   6   8   4   67.77   17.52
   6  -8   4   60.43   16.97
  -6  -8  -5   15.62   28.94
  -6   8  -5   12.82   13.27
   6   8   5   15.87   10.08
  -6  -8  -5   16.52   18.41
   6  -8   5    5.34    9.43
  -6   8  -5   15.02   12.77
   6   8   5   24.95   12.23
   6  -8   5   15.97   11.33
  -6  -8  -6    2.69   16.62
  -6   8  -6   -4.19   16.02
   6   9 -11   67.32   18.91
   6   9 -11   75.20   18.76
   6  -9 -10  234.04   30.69
   6   9 -10  168.47   26.55
   6   9 -10  155.64   25.80
  -6   9   9  385.43   62.43
   6  -9  -9  355.19   36.18
   6   9  -9  251.30   36.88
   6  -9  -9  323.26   41.37
   6   9  -9  299.80   35.08
   6  -9  -8   34.43   13.82
  -6   9   8   43.46   22.66
   6   9  -8   33.88   13.32
  -6   9   8   33.18   15.02
  -6   9   8   26.60   10.88
   6  -9  -8   31.79   10.53
   6   9  -8   43.96   13.42
  -6   9   7  882.25   88.72
   6   9  -7  779.00   60.03
  -6   9   7  682.05   66.42
   6  -9  -7  857.75   57.89
   6   9  -7  741.08   47.51
   6   9  -7  741.98   64.82
   6   9  -7  753.06   61.08
   6   9  -6  386.28   33.53
   6   9  -6  414.83   32.04
  -6   9   6  361.88   46.06
   6  -9  -6  420.02   33.58
  -6   9   6  462.53   49.65
   6   9  -6  397.21   36.68
   6  -9  -6  338.33   39.42
   6   9  -6  382.34   40.17
   6  -9  -6  435.44   38.12
  -6   9   6  437.98   56.99
   6   9  -5  292.52   27.79
   6   9  -5  343.02   29.24
   6  -9  -5  300.20   25.45
   6   9  -5  286.43   27.79
  -6   9   5  244.36   37.68
  -6   9   5  287.73   38.77
   6  -9  -5  266.42   31.99
  -6   9   5  331.09   32.04
   6  -9  -5  288.43   30.59
   6   9  -5  279.05   31.34
   6   9  -4  122.81   17.22
   6   9  -4  130.84   18.21
   6   9  -4  122.91   11.13
   6  -9  -4  114.27   12.87
   6   9  -4  104.74   14.87
  -6   9   4  120.76   26.05
   6  -9  -4  111.83   18.51
  -6   9   4   95.76   14.82
  -6   9   4  120.06   24.75
   6  -9  -4  123.01   19.31
   6   9  -4  114.52   17.32
   6   9  -3 2722.15  160.33
   6  -9  -3 2626.74  172.71
  -6   9   3 2668.15  179.84
   6   9  -3 2935.77  165.82
  -6   9   3 2751.24  184.38
   6   9  -3 2704.78  149.75
   6   9  -3 2541.50  155.64
   6  -9  -3 2558.22  163.82
  -6   9   3 2366.75  156.19
   6  -9  -3 2670.15  165.02
   6   9  -3 2716.71  160.33
   6   9  -2   23.00    6.59
   6  -9  -2   19.81    9.78
   6   9  -2   27.94   10.68
  -6   9   2   25.45   14.22
  -6   9   2   29.19   14.37
  -6   9   2   19.51    6.09
   6   9  -2   19.16    6.69
   6  -9  -2   26.25    8.38
   6  -9  -2   27.20   10.48
   6   9  -1   17.57    5.39
   6  -9  -1   20.51    9.78
   6   9  -1   25.95   10.53
  -6  -9   1   20.76    9.28
  -6   9   1   34.48   15.07
   6  -9  -1   14.37    7.14
  -6   9   1   20.21    7.24
   6   9  -1   18.81    6.79
   6   9   0  350.75   24.70
   6  -9   0  302.65   30.54
   6   9   0  342.67   24.10
   6   9   0  337.38   37.28
  -6   9   0  420.47   49.70
  -6   9   0  300.90   32.64
  -6  -9   0  380.59   38.52
   6  -9   0  350.01   38.72
   6  -9   0  328.55   36.98
   6   9   0  373.46   30.39
   6  -9   0  370.86   29.59
   6  -9   1  586.74   45.56
   6   9   1  517.27   52.10
  -6   9  -1  513.48   49.70
  -6  -9  -1  618.72   56.59
   6   9   1  573.56   44.71
   6  -9   1  670.97   47.06
   6  -9   2   86.28   13.97
  -6   9  -2   86.98   23.45
  -6  -9  -2  120.66   24.65
   6  -9   2   75.65   17.71
   6   9   2   66.32   13.77
   6  -9   2   92.97   16.67
  -6   9  -3  722.02   71.16
   6   9   3  517.92   55.34
  -6  -9  -3  715.38   69.21
   6  -9   3  546.37   57.14
   6  -9   3  693.12   54.99
  -6   9  -4   90.82   24.35
   6   9   4   34.73   14.22
  -6  -9  -4   80.54   25.15
  -6  -9  -4   71.36   32.83
   6  -9   4   51.50   16.82
  -6   9  -4   78.94   22.01
   6   9   4   47.31   15.42
   6  -9   4   82.64   17.96
  -6   9  -5   33.73   17.17
   6   9   5   13.37    9.98
  -6  -9  -5   35.83   21.51
   6  -9   5   19.41   12.53
  -6   9  -5   15.22   13.77
  -6  -9  -5   45.01   31.14
   6  -9   5   19.51   12.08
  -6  -9  -6  429.80   65.87
  -6   9  -6  332.04   52.30
   6 -10 -10   13.22   10.63
   6  10 -10   20.41   12.08
   6 -10  -9  116.97   24.60
  -6  10   9  140.87   38.02
   6  10  -9   76.70   20.26
  -6  10   9  101.55   24.05
   6 -10  -9  126.70   20.56
   6  10  -9  104.79   20.66
  -6  10   8 1014.69  100.40
   6  10  -8  924.86   70.41
  -6  10   8  700.31   71.36
   6 -10  -8 1012.54   68.91
   6 -10  -8  886.74   76.40
  -6  10   8  962.64   81.49
   6  10  -8  794.07   72.96
   6  10  -8  873.02   70.21
  -6  10   7   13.42   14.77
   6  10  -7   12.23    9.28
   6  10  -7   14.12    9.63
   6  10  -7   11.48    4.69
   6 -10  -7   17.86    8.33
  -6  10   7   12.08   10.93
   6  10  -7   19.11    5.29
   6  10  -7   21.31    9.73
  -6  10   6    1.45    9.18
   6 -10  -6   26.30   11.13
   6  10  -6   21.66    9.48
   6  10  -6    5.09    6.09
   6  10  -6   10.88    9.13
   6 -10  -6   13.57    6.34
  -6  10   6   13.07   10.43
  -6  10   6    5.89    5.54
   6 -10  -6    1.05    6.94
   6  10  -5    7.04    6.54
   6  10  -5   12.97    8.08
   6  10  -5    3.59    6.24
   6 -10  -5   15.32    6.44
   6  10  -5   13.02    7.93
  -6  10   5   37.23   17.07
  -6  10   5    2.89    8.88
   6 -10  -5   13.12    7.49
   6 -10  -5    6.29    8.98
   6  10  -4  875.01   64.37
   6  10  -4  975.06   61.73
   6 -10  -4  819.77   72.51
   6  10  -4  942.43   64.82
  -6  10   4  913.84   78.79
   6 -10  -4  921.07   57.29
  -6  10   4  852.81   81.59
   6  10  -4  908.15   60.73
   6 -10  -4  815.13   65.97
   6  10  -4  811.24   49.30
  -6  10   4  778.30   61.08
   6 -10  -4  880.50   66.27
   6  10  -3  932.80   60.88
   6 -10  -3  869.37   71.91
  -6  10   3  882.85   79.29
   6  10  -3  858.45   64.47
  -6  10   3  826.66   80.29
   6 -10  -3  817.48   64.22
   6  10  -3  830.20   57.69
  -6  10   3  765.68   58.88
   6 -10  -3  774.06   64.97
   6  10  -3  830.80   60.48
   6 -10  -2  304.15   36.13
  -6  10   2  270.36   39.77
   6  10  -2  321.61   33.23
   6 -10  -2  256.29   28.34
  -6  10   2  315.52   43.31
  -6  10   2  242.32   26.10
   6  10  -2  275.55   25.05
   6 -10  -2  270.86   31.19
   6  10  -2  253.65   24.80
   6  10  -1    7.58    5.04
   6 -10  -1   58.78   15.67
  -6  10   1    6.94   11.03
   6  10  -1   12.43    8.93
  -6 -10   1   50.30   13.42
  -6  10   1   15.62   11.83
   6 -10  -1    8.98    7.49
  -6  10   1    8.68    6.04
   6  10  -1    6.99    5.49
   6 -10  -1   11.38    7.58
   6 -10   0   33.68   12.82
  -6 -10   0   38.97   12.53
   6  10   0   35.03    6.49
   6  10   0   45.16   13.57
   6  10   0   54.74    6.94
  -6  10   0   41.57   17.32
  -6  10   0   28.44   10.08
   6  10   0   26.95    8.73
   6 -10   0   46.46   14.32
   6 -10   0   31.79    9.38
   6 -10   1  407.29   35.98
   6  10   1  366.37   41.67
  -6  10  -1  381.79   40.97
  -6 -10  -1  478.45   48.00
   6  10   1  383.59   34.88
   6 -10   1  473.11   37.23
   6 -10   2 1619.58  105.09
  -6  10  -2 2015.90  135.93
  -6 -10  -2 1839.25  126.85
   6 -10   2 1468.34  114.97
   6  10   2 1392.44  103.64
   6 -10   2 1817.94  109.03
   6  10   3    1.25    7.63
  -6  10  -3    8.98   11.88
  -6 -10  -3    6.94   11.83
   6 -10   3    9.18   10.43
   6 -10   3    6.14    8.83
  -6  10  -3   16.57   17.57
  -6  10  -4  748.41   72.61
   6  10   4  413.53   51.55
  -6 -10  -4  690.48   96.16
  -6 -10  -4  739.98   75.20
   6 -10   4  579.70   58.83
  -6  10  -4  419.67   70.21
   6 -10   4  683.84   55.89
  -6  10  -5  284.04   43.56
  -6 -10  -5  239.62   46.51
   6 -10   5  179.69   31.04
  -6 -10  -5  188.38   57.04
  -6  10  -5  176.75   35.83
   6 -10   5  215.77   30.89
  -6  10  -6  423.21   58.68
   6 -11 -10    2.25    8.88
   6  11 -10    8.28    9.43
  -6  11   9  103.99   33.38
   6  11  -9  124.30   25.00
  -6  11   9  161.23   29.34
   6  11  -9  126.50   23.75
   6 -11  -9  151.30   22.80
   6  11  -9   92.02   20.56
   6 -11  -9   95.26   23.15
  -6  11   8 1111.09  103.10
   6  11  -8  850.81   68.71
  -6  11   8  759.89   76.25
   6 -11  -8  957.25   67.92
   6 -11  -8  819.47   74.15
  -6  11   8  923.37   80.44
   6  11  -8  851.26   70.56
   6  11  -8  798.86   72.56
   6  11  -7   13.52    9.58
   6  11  -7   19.51   10.48
   6 -11  -7   18.66    8.53
  -6  11   7    8.73   10.73
   6  11  -7   16.52    5.44
   6  11  -7   10.88    8.28
   6  11  -6  309.83   36.58
   6  11  -6  398.51   31.64
   6  11  -6  336.58   34.63
   6 -11  -6  388.68   32.74
  -6  11   6  301.50   46.16
  -6  11   6  327.90   43.76
  -6  11   6  331.54   37.87
   6 -11  -6  389.38   37.13
   6  11  -6  334.04   28.94
   6 -11  -5  775.16   72.91
   6  11  -5  842.43   57.74
   6  11  -5  915.78   62.63
   6  11  -5  853.11   66.67
  -6  11   5  861.84   77.65
   6 -11  -5  910.64   59.23
   6  11  -5  869.47   62.63
  -6  11   5  815.48   82.69
   6 -11  -5  787.64   67.12
  -6  11   5  741.98   63.62
   6 -11  -5  881.10   66.82
   6  11  -4 1519.13   88.17
   6 -11  -4 1233.90  101.10
  -6  11   4 1345.98  108.73
   6  11  -4 1410.00   92.87
   6 -11  -4 1408.60   85.83
  -6  11   4 1329.61  113.72
   6  11  -4 1344.18   88.77
   6 -11  -4 1304.61   94.86
  -6  11   4 1166.83   89.57
   6 -11  -4 1336.65   94.81
   6  11  -3  271.31   25.45
   6 -11  -3  262.43   34.48
   6  11  -3  252.00   26.20
  -6  11   3  241.07   37.82
  -6  11   3  272.31   41.92
   6 -11  -3  207.69   27.15
   6  11  -3  261.63   25.30
  -6  11   3  216.47   25.60
   6 -11  -3  244.91   29.94
   6 -11  -2    9.43    9.63
   6  11  -2    3.69    4.79
  -6  11   2   17.22   13.12
  -6  11   2    9.13   10.33
   6 -11  -2    6.19    6.34
  -6  11   2   17.17    7.54
   6  11  -2   19.36    7.83
   6 -11  -2    1.85    6.69
   6 -11  -1 1255.26   97.46
   6  11  -1 1325.82   82.39
   6  11  -1 1356.96   95.66
   6 -11  -1 1274.12   89.07
  -6 -11   1 1443.43   98.25
  -6  11   1 1583.11  117.42
  -6  11   1 1187.59   89.67
   6  11  -1 1294.13   85.38
   6 -11  -1 1248.72   93.76
   6  11  -1 1330.21   82.19
  -6  11   1 1318.98  113.33
   6 -11   0  508.54   51.80
   6 -11   0  515.88   43.46
   6  11   0  519.52   35.63
   6  11   0  491.37   48.85
  -6  11   0  609.14   64.57
  -6 -11   0  556.89   52.00
  -6  11   0  489.08   46.76
   6  11   0  545.52   35.38
   6  11   0  510.34   41.72
   6 -11   0  510.44   49.40
  -6  11   0  552.15   66.12
  -6  11  -1   11.98   16.82
   6 -11   1   13.52    7.39
   6  11   1   12.38    8.58
  -6 -11  -1    3.89    8.83
   6  11   1   12.18    7.73
  -6  11  -2   16.52   18.11
   6 -11   2    9.03    7.09
  -6  11  -2   12.82   11.23
  -6 -11  -2    4.59    9.03
   6  11   2   23.10    9.28
   6 -11   2    8.73    9.53
   6 -11   2   17.37   10.03
   6  11   3  318.27   41.92
  -6  11  -3  501.90   57.79
  -6 -11  -3  501.65   57.98
   6 -11   3  372.16   45.06
  -6 -11  -3  419.82   66.77
  -6  11  -3  387.73   65.87
   6  11   3  336.58   36.88
   6 -11   3  500.01   43.41
  -6 -11  -4   11.68   22.01
  -6  11  -4    7.63   12.13
   6  11   4   -1.35    8.53
  -6 -11  -4   16.87   15.62
   6 -11   4    1.35    8.33
   6 -11   4    2.79    9.88
  -6  11  -4   26.70   21.96
   6 -11   4    3.14    9.33
  -6 -11  -5   19.71   19.16
  -6 -11  -5   -4.49   24.15
  -6  11  -5    9.93   12.18
   6 -11   5    3.59   10.43
  -6  11  -6  127.10   32.78
   6  12 -10   42.12   16.82
   6 -12 -10   65.77   17.47
   6  12 -10   47.95   15.92
  -6  12   9  731.85   86.93
   6  12  -9  667.87   60.18
   6 -12  -9  737.24   59.33
   6 -12  -9  629.80   64.22
   6  12  -9  614.68   58.93
   6  12  -9  574.86   61.13
  -6  12   9  716.53   69.76
   6  12  -8 1275.92   93.71
  -6  12   8 1179.91  106.69
   6  12  -8 1257.10   79.69
   6 -12  -8 1476.62   93.36
   6 -12  -8 1192.83   98.21
  -6  12   8 1435.75  107.69
   6  12  -8 1254.01   95.36
   6  12  -8 1182.60   96.86
   6  12  -7  720.42   63.42
   6  12  -7  742.63   48.75
   6  12  -7  746.02   60.13
   6 -12  -7  755.00   55.94
  -6  12   7  647.27   74.20
   6  12  -7  688.98   45.36
  -6  12   7  702.66   64.62
   6  12  -7  705.75   47.81
   6  12  -7  670.97   60.13
   6 -12  -6  198.61   33.28
   6  12  -6  243.42   24.00
   6  12  -6  209.28   27.00
   6 -12  -6  265.57   25.60
  -6  12   6  224.65   40.72
   6  12  -6  186.68   21.01
   6 -12  -6  229.94   28.04
   6 -12  -5 2374.34  174.90
   6  12  -5 2694.75  154.09
  -6  12   5 2894.05  184.43
   6 -12  -5 2872.95  159.08
   6  12  -5 2523.29  161.78
  -6  12   5 2716.06  194.41
   6 -12  -5 2433.22  167.77
  -6  12   5 2283.02  163.77
   6 -12  -5 2895.90  169.51
   6  12  -4  590.93   40.92
   6 -12  -4  517.87   54.29
  -6  12   4  557.69   60.38
   6 -12  -4  543.97   40.27
  -6  12   4  530.80   64.52
   6  12  -4  494.47   42.67
   6 -12  -4  500.41   47.51
  -6  12   4  460.09   44.16
   6 -12  -4  491.03   47.01
   6  12  -3   76.85   12.58
   6 -12  -3   68.06   18.81
  -6  12   3  110.83   26.10
  -6  12   3   57.79   20.36
   6  12  -3   78.29   13.67
  -6  12   3   39.37   11.48
   6 -12  -3   75.75   15.32
   6 -12  -3   66.47   16.22
   6 -12  -2  108.73   22.26
  -6  12   2  129.39   29.69
  -6  12   2   99.65   26.55
  -6  12   2   95.86   17.22
   6 -12  -2   93.51   17.12
   6  12  -2  109.63   16.07
   6 -12  -2  101.90   19.66
   6 -12  -1 4788.00  300.10
   6  12  -1 5123.03  282.24
   6 -12  -1 4649.72  289.28
  -6 -12   1 5081.71  299.90
  -6  12   1 5664.65  324.61
  -6  12   1 4353.36  291.07
   6  12  -1 5099.43  286.68
   6 -12  -1 4958.76  296.46
  -6  12   1 4960.25  321.11
   6  12  -1 5054.72  281.84
   6 -12   0  191.82   29.59
  -6  12   0  200.70   41.17
   6 -12   0  211.18   24.60
   6  12   0  219.46   18.71
   6  12   0  206.64   28.59
  -6  12   0  240.32   39.77
  -6 -12   0  259.53   33.33
  -6  12   0  206.39   27.70
   6  12   0  182.49   22.56
   6 -12   0  197.06   28.49
   6  12   0  208.14   17.81
   6 -12   1 1337.00   89.57
   6  12   1 1176.91   95.76
  -6 -12  -1 1565.59  107.49
   6  12   1 1241.59   87.48
  -6  12  -1 1373.72  127.05
   6 -12   2  599.36   48.85
  -6  12  -2  720.62   71.96
  -6  12  -2  600.16   58.48
  -6 -12  -2  719.92   67.42
   6 -12   2  546.56   56.19
   6  12   2  557.59   48.00
  -6  12  -2  582.99   80.39
   6 -12   2  506.00   54.99
   6  12   3 2572.84  198.76
  -6  12  -3 4143.72  230.59
  -6  12  -3 2824.19  203.95
  -6 -12  -3 4015.23  228.85
   6 -12   3 2969.51  202.90
  -6 -12  -3 3398.40  245.56
   6 -12   3 3179.89  205.79
  -6  12  -3 3767.27  260.98
   6  12   3 3057.88  192.72
   6  12   4  211.08   33.38
  -6  12  -4  348.61   48.85
   6 -12   4  259.98   36.58
  -6 -12  -4  286.33   47.16
   6 -12   4  209.98   34.13
  -6 -12  -4  309.14   65.97
  -6  12  -4  307.44   62.83
  -6 -12  -5  874.11  125.80
  -6 -12  -5  954.21  100.00
   6 -13 -10  476.50   48.75
   6  13  -9   32.34   15.07
   6 -13  -9   30.64   12.62
   6  13  -9   32.69   14.07
  -6  13   8   32.64   16.77
   6  13  -8   14.07   10.73
   6  13  -8   26.95   13.77
   6 -13  -8   23.85   10.53
  -6  13   8   23.20   16.07
   6 -13  -8   48.70   16.97
   6  13  -8   29.59   12.92
   6  13  -7   10.13    6.19
   6  13  -7    1.95    9.28
   6 -13  -7    9.08    7.73
  -6  13   7    9.18   16.52
  -6  13   7   12.82   10.48
   6 -13  -7    8.68    9.23
   6  13  -7    4.14    5.19
   6  13  -7   14.22    9.68
  -6  13   6  225.10   39.42
   6 -13  -6  169.51   31.59
   6  13  -6  206.59   22.85
   6  13  -6  179.49   24.95
   6 -13  -6  198.31   22.80
  -6  13   6  218.37   42.02
   6  13  -6  188.38   20.91
   6 -13  -5   29.14   13.67
   6 -13  -5   18.51   14.42
   6  13  -5   28.64    6.89
   6 -13  -5   28.94    8.88
   6  13  -5   28.14   11.08
  -6  13   5   18.26   15.12
  -6  13   5   24.35   14.42
  -6  13   5   20.46    9.18
   6 -13  -5   27.40   12.23
   6  13  -4 1165.94   70.66
   6 -13  -4  958.60   86.68
  -6  13   4 1199.97   98.90
   6 -13  -4 1133.05   73.45
   6 -13  -4 1029.71   80.94
  -6  13   4 1167.28  106.84
   6  13  -4 1091.68   76.85
  -6  13   4  920.72   77.75
   6 -13  -4 1132.45   82.99
   6  13  -3   46.41    9.78
   6 -13  -3   23.30   12.87
  -6  13   3   27.40   17.32
  -6  13   3   25.80   16.37
   6  13  -3   19.26    9.28
   6 -13  -3   10.88    7.78
  -6  13   3    8.73    6.89
   6 -13  -3    3.94    8.48
   6 -13  -2  321.11   38.72
   6  13  -2  283.64   27.94
   6 -13  -2  307.34   32.78
  -6  13   2  307.69   48.20
  -6  13   2  276.35   32.19
   6  13  -2  278.60   28.79
   6 -13  -2  273.01   33.78
  -6  13   2  326.95   47.85
   6  13  -1  144.66   17.47
   6 -13  -1  136.03   25.25
  -6  13   1  170.81   38.02
   6 -13  -1  153.05   21.81
  -6 -13   1  175.65   27.74
  -6  13   1  148.26   23.25
  -6  13   1  189.52   37.23
   6  13  -1  132.49   19.41
   6 -13  -1  175.70   25.85
   6 -13   0  680.05   62.08
   6 -13   0  649.81   53.39
   6  13   0  709.44   45.91
  -6  13   0  760.14   76.90
  -6 -13   0  736.04   64.97
   6 -13   0  709.69   62.53
   6  13   0  650.31   52.05
   6 -13   0  664.88   60.03
  -6  13   0  735.14   83.68
   6  13   0  616.58   44.11
  -6  13  -1  294.27   55.29
   6 -13   1  266.32   29.04
   6 -13   1  243.62   34.08
   6  13   1  218.97   31.89
   6  13   1  245.26   16.62
  -6 -13  -1  328.00   41.17
   6  13   1  229.94   26.80
   6 -13   1  279.30   36.18
  -6  13  -2    8.28    9.98
  -6  13  -2    5.84   12.38
  -6 -13  -2    3.34    9.93
   6 -13   2   -1.30    8.63
   6  13   2   24.60   10.43
   6 -13   2   -1.30    8.83
  -6  13  -2    6.49   16.57
   6 -13   3   35.38   15.27
  -6 -13  -3   30.69   22.21
   6  13   3   34.53   14.22
  -6  13  -3   64.52   22.61
  -6  13  -3   25.35   14.02
  -6 -13  -3   33.18   17.37
   6  13   3   26.45   13.02
   6 -13   3   24.95   13.67
  -6  13  -3   36.83   25.85
  -6  13  -4   33.83   20.31
  -6  13  -4   17.81   12.33
  -6 -13  -4   18.21   16.87
   6 -13   4   11.63   12.38
  -6 -13  -4   -4.19   21.51
  -6  13  -4   15.67   21.11
  -6 -13  -5  496.81   92.62
  -6 -13  -5  429.30   65.92
   6  14 -10  309.54   40.87
   6 -14  -9  108.38   20.76
   6  14  -9   92.97   21.91
   6  14  -9   78.49   20.01
   6  14  -8  824.66   76.60
   6  14  -8  924.07   76.00
   6 -14  -8 1042.33   74.05
  -6  14   8  886.69   96.61
   6 -14  -8  874.16   79.89
  -6  14   8 1060.89   87.98
   6  14  -8  941.63   77.65
  -6  14   7  901.86   88.47
   6  14  -7  835.69   56.49
   6  14  -7  838.44   67.32
   6 -14  -7  915.28   64.17
  -6  14   7  797.37   91.27
  -6  14   7  870.57   79.09
   6 -14  -7  729.05   69.16
  -6  14   7  701.31   68.71
   6  14  -7  789.83   55.04
   6  14  -7  727.90   67.12
   6 -14  -6  426.15   52.60
   6 -14  -6  496.12   41.17
   6  14  -6  424.51   43.16
  -6  14   6  484.14   67.62
   6  14  -6  462.28   38.07
  -6  14   6  531.40   62.73
   6 -14  -5  408.84   50.50
  -6  14   5  484.54   56.49
   6 -14  -5  538.23   41.82
   6  14  -5  465.73   43.76
   6 -14  -5  407.89   45.46
  -6  14   5  563.08   71.06
   6 -14  -5  544.07   49.65
   6  14  -4  688.48   45.51
   6 -14  -4  592.17   62.33
  -6  14   4  728.85   73.90
   6 -14  -4  737.39   51.45
   6 -14  -4  610.39   56.64
   6  14  -4  660.29   54.04
  -6  14   4  816.18   85.28
  -6  14   4  585.49   55.59
   6 -14  -4  649.71   58.48
   6  14  -3  147.36   17.07
   6 -14  -3  128.54   25.80
  -6  14   3  206.09   37.53
   6  14  -3  145.16   20.96
   6 -14  -3  119.66   20.86
  -6  14   3  158.54   37.03
  -6  14   3  122.36   20.91
   6 -14  -3  129.89   23.05
   6 -14  -2  290.47   37.73
   6  14  -2  290.82   28.49
   6 -14  -2  305.34   33.38
  -6  14   2  379.40   53.69
  -6  14   2  257.59   32.83
   6  14  -2  292.02   30.04
   6 -14  -2  288.13   35.13
  -6  14   2  307.39   47.71
   6  14  -1  163.97   18.36
   6 -14  -1  133.14   24.65
  -6  14   1  133.68   34.28
   6 -14  -1  123.45   20.16
  -6 -14   1  170.41   27.50
  -6  14   1  157.89   24.50
  -6  14   1  159.68   35.53
   6  14  -1  164.52   21.56
   6 -14  -1  163.63   25.90
  -6  14   0   36.78   21.06
   6 -14   0   32.24   13.32
   6  14   0   26.20    6.84
   6 -14   0   25.80    9.98
  -6 -14   0   42.12   15.42
   6  14   0   38.32    8.33
  -6  14   0   43.21   19.91
   6  14   0   72.81   13.92
   6 -14   0   40.52   14.47
   6 -14   0   42.17   14.37
  -6  14  -1   51.30   26.65
   6  14   1    3.34    2.64
   6 -14   1   17.96   11.13
   6 -14   1    4.04    6.89
  -6  14  -1    1.25    7.68
  -6 -14  -1   36.68   16.22
   6 -14   1   -1.30    8.23
   6  14   1   10.93    7.14
  -6  14  -2  448.46   56.49
  -6  14  -2  305.29   41.72
  -6 -14  -2  424.01   52.05
   6  14   2  340.92   35.83
   6 -14   2  394.67   45.21
   6 -14   2  314.53   41.42
  -6  14  -2  422.96   71.71
   6 -14   3   43.11   16.67
  -6 -14  -3   46.46   25.45
  -6  14  -3   82.74   25.60
  -6  14  -3   52.45   19.36
  -6 -14  -3   50.30   22.36
   6  14   3   47.66   14.27
   6 -14   3   89.27   22.01
  -6  14  -3   58.68   32.04
  -6  14  -4  136.13   29.24
  -6 -14  -4  232.54   43.96
   6  14   4  166.17   25.70
  -6  14  -4  157.09   49.00
  -6  14  -5  265.72   43.76
  -6 -14  -5  403.05   61.73
   6  15  -9   38.32   16.37
   6 -15  -9   38.02   13.37
  -6  15   8  570.37   69.36
   6  15  -8  496.61   49.25
   6 -15  -8  485.59   45.26
  -6  15   8  395.51   64.57
   6 -15  -8  449.31   51.45
  -6  15   8  468.97   53.79
   6  15  -8  397.36   46.76
  -6  15   7 1921.09  145.66
   6  15  -7 1705.41  119.16
   6 -15  -7 1838.95  115.62
  -6  15   7 1951.97  136.88
  -6  15   7 1940.80  160.03
   6 -15  -7 1543.69  122.21
  -6  15   7 1481.71  121.71
   6  15  -7 1768.64  106.89
   6  15  -7 1544.88  119.86
   6 -15  -6 1476.37  124.85
   6 -15  -6 1895.39  112.73
   6  15  -6 1672.93  115.92
  -6  15   6 2044.79  161.23
  -6  15   6 1580.01  119.11
   6  15  -6 1635.20  107.14
   6 -15  -5   74.45   19.21
   6 -15  -5   49.50   20.11
   6  15  -5   96.66   18.51
  -6  15   5   95.86   24.60
   6 -15  -5   90.82   19.26
   6 -15  -5   94.76   15.67
   6 -15  -4  160.78   25.80
   6  15  -4  134.03   13.32
   6 -15  -4  103.99   24.35
   6 -15  -4  133.24   18.36
  -6  15   4  146.86   33.08
   6  15  -4  129.79   21.31
  -6  15   4  189.57   40.37
   6 -15  -4  123.31   21.81
   6  15  -3 5200.88  279.79
  -6  15   3 5568.84  324.46
   6  15  -3 4769.33  286.78
   6 -15  -3 4468.43  300.15
   6 -15  -3 4663.74  292.47
  -6  15   3 5550.28  335.68
   6  15  -3 4621.43  287.38
   6 -15  -3 4960.75  296.46
   6 -15  -2   40.87   16.22
   6  15  -2   51.10   12.03
  -6  15   2   46.36   22.70
   6 -15  -2   49.70   13.52
  -6  15   2   46.81   20.86
   6  15  -2   39.32   11.98
   6 -15  -2   74.95   18.51
   6 -15  -1  240.62   34.13
  -6  15   1  271.01   48.75
   6  15  -1  242.02   24.35
   6 -15  -1  281.69   31.19
  -6 -15   1  285.98   37.33
  -6  15   1  291.27   48.00
   6  15  -1  229.69   27.74
   6 -15  -1  220.96   32.04
  -6  15   0    8.33   18.96
   6 -15   0   16.52   10.58
   6 -15   0   17.86    9.28
  -6 -15   0    1.45    9.88
   6  15   0    1.70    5.14
  -6  15   0   -4.29   10.33
   6 -15   0    8.83    8.83
   6  15   0   16.72    9.58
   6 -15   0    8.58   10.43
   6 -15   1 2338.31  169.06
   6 -15   1 2458.07  160.58
   6 -15   1 2406.37  170.56
  -6 -15  -1 2924.49  183.74
  -6  15  -1 2384.32  170.71
   6  15   1 2754.43  146.91
   6  15   1 2388.41  159.33
  -6  15  -1 2964.12  219.07
   6  15   1 2512.66  145.41
   6 -15   2   -1.35   10.68
   6  15   2    3.94    8.93
  -6  15  -2    4.44    9.38
  -6  15  -2   45.61   20.86
  -6 -15  -2    9.23   12.92
   6 -15   2   15.22   11.03
   6  15   2   -3.49    9.33
   6 -15   2   -1.40   10.98
  -6  15  -2   -3.64   17.52
  -6  15  -3 2818.21  175.75
  -6  15  -3 1940.35  151.30
  -6 -15  -3 2556.92  171.61
  -6 -15  -3 2244.34  185.63
   6 -15   3 1854.57  145.41
  -6  15  -3 2290.50  204.59
   6  15   3 1945.29  136.93
   6 -15   3 2044.89  148.80
  -6  15  -4  118.32   27.10
  -6 -15  -4  103.29   31.34
   6  15   4   50.50   15.62
  -6  15  -4   34.23   27.45
   6  16  -9  449.86   51.15
   6 -16  -9  557.14   51.50
   6  16  -8  598.61   58.43
   6 -16  -8  673.96   56.69
  -6  16   8  721.92   90.32
  -6  16   8  635.54   65.42
   6  16  -8  588.33   59.38
  -6  16   7  633.24   69.66
   6  16  -7  474.81   48.70
   6 -16  -7  522.01   46.16
  -6  16   7  571.07   61.63
   6 -16  -7  431.44   50.25
  -6  16   7  490.08   75.15
  -6  16   7  472.66   52.70
   6  16  -7  467.97   50.30
   6 -16  -6   24.30   15.02
   6 -16  -6   53.29   12.53
   6  16  -6   39.82   14.42
  -6  16   6   49.05   26.70
  -6  16   6   49.55   15.32
   6  16  -6   39.47   11.18
   6 -16  -5  821.17   79.74
  -6  16   5 1106.05   93.56
   6 -16  -5 1009.50   69.06
   6 -16  -5  857.05   74.05
   6  16  -5  921.97   71.91
  -6  16   5 1051.11  108.63
  -6  16   5  771.32   72.56
   6 -16  -5 1014.09   77.55
   6  16  -5  862.79   65.77
   6  16  -4  331.74   37.23
   6 -16  -4  380.99   47.46
  -6  16   4  470.97   58.08
   6 -16  -4  367.02   41.37
   6 -16  -4  442.57   37.58
   6  16  -4  396.76   39.92
  -6  16   4  459.99   67.72
   6 -16  -4  453.30   46.26
   6  16  -3  128.30   14.27
   6  16  -3  129.44   19.46
   6 -16  -3  118.51   25.50
  -6  16   3  119.21   32.64
   6 -16  -3  100.95   20.16
   6  16  -3  110.08   20.21
  -6  16   3  150.20   37.13
   6 -16  -3   99.60   21.76
   6  16  -2  100.85   15.82
   6 -16  -2   78.19   20.61
  -6  16   2   62.58   25.35
   6 -16  -2   77.45   17.37
  -6  16   2   96.06   29.04
   6  16  -2   86.38   16.92
   6 -16  -2   70.01   18.11
   6 -16  -1  517.52   55.24
   6 -16  -1  513.18   49.20
   6  16  -1  605.00   44.91
  -6 -16   1  622.96   60.88
  -6  16   1  751.36   79.89
   6  16  -1  523.86   48.25
   6 -16  -1  573.86   55.79
  -6  16   1  620.22   77.60
  -6  16   0   14.62   19.26
   6 -16   0   14.37   10.23
   6 -16   0   17.91    9.68
   6 -16   0    7.78    9.63
  -6 -16   0   26.35   13.72
  -6  16   0   10.43   10.68
  -6  16   0    4.49   11.43
   6  16   0   19.31    7.09
   6  16   0   21.31    9.43
   6 -16   0    3.84    9.73
  -6  16  -1   26.70   28.39
   6 -16   1   14.32   11.08
   6 -16   1   15.27    9.68
   6  16   1   13.82    4.69
  -6 -16  -1   18.61   13.52
  -6  16  -1    8.43   10.98
   6 -16   1    2.74    8.38
   6  16   1   18.46   10.03
   6 -16   2   27.30   13.62
  -6  16  -2   23.00   13.37
  -6  16  -2   47.11   21.26
  -6 -16  -2   21.16   16.37
   6 -16   2   21.16   12.08
   6  16   2   20.36   11.28
   6 -16   2   15.82   12.28
  -6  16  -2   72.11   34.18
  -6  16  -3   78.49   23.10
  -6 -16  -3  109.43   31.69
   6  16   3   64.52   16.77
   6 -16   3   93.86   23.30
  -6  16  -3  109.48   44.36
  -6  16  -4   61.28   21.71
  -6 -16  -4   98.60   31.29
   6  16   4   60.98   16.47
  -6  16  -4   78.94   38.17
   6  17  -8   46.91   17.32
   6 -17  -8   59.63   16.57
  -6  17   7  164.37   34.93
   6 -17  -7  137.18   22.16
   6  17  -7  129.89   24.10
  -6  17   7  140.02   41.77
   6 -17  -7  131.24   25.90
  -6  17   7  132.84   26.60
  -6  17   7  147.96   30.49
   6  17  -7  138.23   25.80
   6 -17  -6 1029.86   73.40
   6  17  -6 1039.74   78.64
  -6  17   6 1021.32  114.47
  -6  17   6  852.71   79.09
   6  17  -6  939.83   68.81
   6  17  -5   15.57    9.03
   6 -17  -5   14.37   13.27
   6 -17  -5   26.95   16.02
   6 -17  -5   26.95   10.53
   6  17  -5   39.02   14.12
  -6  17   5   41.07   19.41
  -6  17   5   33.68   22.75
  -6  17   5   20.26   10.83
   6  17  -4  160.48   23.70
   6 -17  -4  125.00   27.65
   6 -17  -4  183.93   27.05
  -6  17   4  203.00   38.52
   6  17  -4  157.59   24.40
  -6  17   4  212.08   45.61
  -6  17   4  147.86   26.15
   6 -17  -4  214.72   31.09
  -6  17   3  559.54   66.97
   6  17  -3  485.59   32.09
   6 -17  -3  386.58   47.95
   6  17  -3  438.48   40.72
   6 -17  -3  394.12   43.41
  -6  17   3  537.43   71.51
   6  17  -3  399.26   41.52
  -6  17   3  373.11   44.91
   6 -17  -3  428.70   47.26
   6 -17  -2 1263.29  101.90
   6 -17  -2 1225.57   94.66
  -6  17   2 1211.89   99.25
   6  17  -2 1347.13   93.51
   6 -17  -2 1331.91  100.45
  -6  17   2 1402.47  124.25
  -6  17   1   32.34   22.95
   6 -17  -1   21.41   13.37
   6 -17  -1   29.89   11.58
   6  17  -1   22.85    9.43
  -6 -17   1   31.54   15.17
  -6  17   1   30.54   13.97
  -6  17   1   22.06   18.71
   6  17  -1   25.95   10.73
   6 -17  -1   32.69   14.57
   6 -17   0  283.39   38.77
   6 -17   0  299.66   34.63
   6  17   0  394.57   30.34
  -6 -17   0  371.71   48.00
  -6  17   0  317.92   52.20
  -6  17   0  322.26   41.12
   6 -17   0  308.69   39.82
   6  17   0  296.01   33.93
   6 -17   0  260.53   37.38
  -6  17   0  359.09   61.53
   6 -17   1 1683.46  123.60
   6 -17   1 1596.93  114.27
   6 -17   1 1735.65  125.70
  -6 -17  -1 2061.46  140.17
  -6  17  -1 1479.26  122.96
   6  17   1 1668.29  114.87
  -6  17  -1 2038.25  173.11
  -6  17  -2  299.46   48.20
  -6 -17  -2  321.36   47.36
   6  17   2  242.27   30.24
   6 -17   2  227.75   35.88
   6 -17   2  230.24   35.63
  -6  17  -2  289.23   63.17
   6 -17   3   20.16   12.72
  -6 -17  -3   -2.30   17.71
   6  17   3    9.33   10.43
  -6  17  -4    1.95   12.72
  -6 -17  -4   23.10   20.91
   6  17   4    6.74    9.38
   6 -18  -8  486.13   46.66
  -6  18   8  402.20   51.65
   6 -18  -7  175.60   24.25
   6  18  -7  124.30   24.25
  -6  18   7  137.48   42.37
  -6  18   7  121.46   26.40
   6  18  -7  116.67   24.45
   6  18  -6  284.59   35.83
   6 -18  -6  361.33   35.98
   6  18  -6  305.49   37.48
  -6  18   6  431.29   71.26
  -6  18   6  283.74   39.52
   6  18  -6  323.81   32.24
   6  18  -5 1038.74   80.94
   6 -18  -5  912.84   89.22
  -6  18   5 1133.85  101.80
   6 -18  -5 1232.05   80.74
   6  18  -5 1065.19   82.74
  -6  18   5 1372.23  129.69
  -6  18   5  953.61   85.58
   6  18  -5 1032.95   76.55
   6  18  -4  297.91   33.53
  -6  18   4  323.56   50.25
   6 -18  -4  289.48   41.12
   6 -18  -4  292.77   36.48
   6  18  -4  270.91   34.08
  -6  18   4  338.13   59.83
  -6  18   4  303.15   39.37
   6 -18  -4  318.97   40.12
   6 -18  -3  218.07   34.93
   6  18  -3  263.43   30.24
   6 -18  -3  266.77   33.73
  -6  18   3  349.96   58.63
   6  18  -3  245.91   30.89
  -6  18   3  196.31   32.49
   6 -18  -3  287.33   37.78
  -6  18   3  281.74   47.85
   6 -18  -2  381.89   48.05
   6  18  -2  502.95   42.12
   6 -18  -2  406.09   44.36
  -6  18   2  392.52   47.95
   6  18  -2  515.83   46.06
   6 -18  -2  451.05   49.55
  -6  18   2  481.00   67.12
   6 -18  -1 1898.73  143.91
   6 -18  -1 1877.82  136.48
   6  18  -1 2195.74  130.94
  -6 -18   1 2339.01  155.34
  -6  18   1 2702.24  183.54
  -6  18   1 1852.37  143.81
   6  18  -1 2018.04  136.78
   6 -18  -1 2130.12  145.51
  -6  18   1 2278.88  179.64
   6 -18   0  386.53   47.11
   6 -18   0  429.05   43.66
   6  18   0  469.07   37.08
  -6 -18   0  508.29   57.89
  -6  18   0  503.10   66.72
  -6  18   0  421.41   49.85
   6 -18   0  395.46   47.66
   6  18   0  425.61   43.21
  -6  18   0  447.46   60.73
  -6  18   0  489.33   74.75
   6 -18   1 1501.82  118.81
   6 -18   1 1572.18  112.33
   6 -18   1 1702.07  123.31
  -6 -18  -1 2017.05  139.52
  -6  18  -1 1551.82  123.26
   6  18   1 1610.30  112.53
  -6  18  -1 1931.62  171.36
  -6  18  -1 1875.88  151.40
   6 -18   1 1454.56  119.41
   6 -18   2   43.76   16.27
  -6 -18  -2   43.91   21.16
  -6  18  -2   23.35   15.17
   6 -18   2   44.01   16.47
   6  18   2   38.97   14.12
  -6  18  -2   95.96   40.87
   6 -18   3 1638.20  127.05
  -6  18  -3 1671.83  134.53
   6  18   3 1688.20  120.56
   6 -18   4  360.73   46.01
   6  19  -8  102.55   23.85
   6 -19  -7  163.33   24.60
   6  19  -7  149.90   27.25
  -6  19   7  166.32   47.51
  -6  19   7  130.79   27.84
   6  19  -6    6.74    9.18
   6 -19  -6   24.55   11.03
   6  19  -6   25.15   13.97
  -6  19   6   17.71   20.91
  -6  19   6   14.77   12.33
   6  19  -6   13.32    8.58
   6  19  -5  710.09   64.57
   6 -19  -5  700.61   74.40
   6 -19  -5  935.49   66.42
   6  19  -5  835.49   69.11
  -6  19   5  999.12  109.78
   6  19  -5  781.05   62.43
   6 -19  -4  162.98   28.59
   6  19  -4  141.62   22.95
   6 -19  -4  134.43   28.59
  -6  19   4  199.50   38.92
   6 -19  -4  147.46   25.50
   6  19  -4  146.11   24.55
  -6  19   4  191.92   46.26
  -6  19   4  133.53   26.45
   6  19  -4  126.65   20.76
   6 -19  -3   12.33   13.57
   6 -19  -3   10.38   11.88
   6  19  -3   11.98   10.08
  -6  19   3    2.45   16.97
   6 -19  -3    5.79    8.63
   6  19  -3   31.79   12.48
  -6  19   3   11.68   17.22
  -6  19   3   11.43   10.03
  -6  19   2   65.37   28.64
   6 -19  -2   58.48   18.91
   6  19  -2   63.42   14.42
   6 -19  -2   58.83   16.37
  -6  19   2   83.78   30.59
  -6  19   2   63.07   19.11
   6  19  -2   52.55   15.22
   6 -19  -2   56.64   18.91
   6 -19  -1  888.59   81.94
   6 -19  -1  945.52   77.35
   6  19  -1 1016.03   71.21
  -6 -19   1 1036.64   90.97
  -6  19   1 1280.26  115.17
  -6  19   1  993.18   86.13
   6  19  -1  970.82   76.75
   6 -19  -1  933.40   82.59
  -6  19   1 1172.52  115.97
  -6  19   0   22.75   24.10
   6 -19   0    9.58    9.58
   6 -19   0    8.38    8.73
  -6 -19   0   18.46   12.58
  -6  19   0    7.78   11.23
  -6  19   0   15.07   15.42
   6  19   0   11.03    7.49
   6 -19   0    1.40    8.88
   6  19   0   36.98   12.82
  -6  19  -1  153.74   46.41
   6 -19   1  130.34   23.50
   6 -19   1  116.82   25.15
  -6 -19  -1  204.69   38.12
  -6  19  -1  176.10   32.09
   6 -19   1  139.27   27.65
   6  19   1  148.70   24.80
   6 -19   1  121.71   27.00
  -6 -19  -2  161.28   35.78
  -6  19  -2  125.25   29.14
   6  19   2  100.50   21.81
  -6  19  -2  130.09   47.36
   6 -19   3   25.50   14.47
  -6  19  -3    7.44   12.67
  -6 -19  -3   24.40   19.91
   6  19   3   11.33   10.93
  -6  19  -3    8.83   27.00
   6 -20  -7   83.09   18.31
   6  20  -7   56.74   19.51
  -6  20   7   45.31   17.96
   6  20  -6    9.23    8.98
   6 -20  -6    7.04    8.58
   6  20  -6    8.73   13.12
  -6  20   6   18.16   23.15
  -6  20   6    3.09    9.53
   6  20  -5   32.09   12.03
   6  20  -5   54.49   15.42
   6 -20  -5   58.98   22.16
   6 -20  -5   96.46   18.06
   6  20  -5   38.27   14.77
  -6  20   5   44.16   25.30
  -6  20   5   62.18   19.81
  -6  20   4 1272.72  109.88
   6  20  -4  989.39   78.49
   6 -20  -4  843.58   85.38
   6 -20  -4 1004.76   83.93
   6  20  -4 1003.81   81.44
  -6  20   4 1480.56  132.14
  -6  20   4  984.05   87.78
   6  20  -4 1019.33   77.30
   6 -20  -4 1235.90   92.02
   6  20  -3  232.04   28.89
   6 -20  -3  178.40   33.43
   6 -20  -3  190.12   29.74
  -6  20   3  273.76   49.60
   6  20  -3  259.29   32.19
  -6  20   3  192.22   32.74
  -6  20   3  215.77   47.95
   6 -20  -3  251.50   36.53
   6 -20  -2   62.13   20.01
  -6  20   2   64.97   28.89
   6 -20  -2   33.38   16.07
   6 -20  -2   52.65   15.62
   6  20  -2   50.25   13.97
  -6  20   2   65.82   28.09
  -6  20   2   55.99   18.36
   6  20  -2   66.52   16.77
  -6  20   1  125.70   38.82
   6 -20  -1   72.91   20.96
   6 -20  -1  105.64   21.01
   6  20  -1   95.36   16.82
  -6 -20   1  146.76   29.64
  -6  20   1   88.67   23.40
  -6  20   1  147.31   37.53
   6  20  -1   95.46   20.21
   6 -20  -1  106.04   24.30
   6 -20   0   49.95   18.31
   6 -20   0   77.10   18.11
   6 -20   0   59.93   18.46
  -6 -20   0   77.35   24.85
  -6  20   0   58.83   20.71
  -6  20   0   56.99   25.15
   6  20   0   67.37   16.87
  -6  20  -1  279.84   63.62
   6 -20   1  285.73   39.07
   6 -20   1  276.50   35.33
  -6 -20  -1  386.28   53.39
  -6  20  -1  309.79   44.36
   6  20   1  298.61   36.43
   6 -20   2  684.74   67.82
  -6 -20  -2  960.84   91.42
  -6  20  -2  681.05   73.95
   6  20   2  708.84   63.82
  -6  20  -2  834.54  112.68
  -6  21   7  814.03  110.98
   6 -21  -6  784.79   64.87
   6  21  -6  650.01   65.17
   6  21  -5    7.73    9.38
   6 -21  -5    5.79    8.53
   6  21  -5    1.25   11.33
  -6  21   5   -3.44   17.57
  -6  21   5    1.60    9.83
   6  21  -5    9.98    9.63
   6  21  -4  272.46   33.53
   6 -21  -4  234.88   38.87
   6  21  -4  337.08   38.67
  -6  21   4  277.65   40.87
  -6  21   4  346.16   62.58
   6  21  -4  249.31   31.59
   6 -21  -3 1523.03  125.70
   6  21  -3 1739.05  116.27
   6 -21  -3 1547.38  120.96
  -6  21   3 2144.29  169.41
   6  21  -3 1825.53  122.51
  -6  21   3 1563.40  127.10
  -6  21   3 2021.49  156.64
   6 -21  -2  235.28   32.88
  -6  21   2  259.48   50.65
   6 -21  -2  192.47   33.98
   6  21  -2  258.44   29.79
  -6  21   2  383.89   61.28
  -6  21   2  242.62   38.47
   6  21  -2  225.95   32.24
   6 -21  -2  308.29   40.82
  -6  21   1    9.23   18.86
   6 -21  -1   19.91   13.02
   6 -21  -1    6.99    9.08
  -6  21   1    3.24    9.63
   6  21  -1   10.18   10.93
  -6 -21   0  377.80   52.10
  -6  21   0  327.50   63.87
   6 -21   0  272.86   39.17
   6 -21   0  325.60   38.12
  -6  21   0  260.23   41.67
   6  21   0  310.68   37.92
   6 -21   1  536.58   57.59
  -6 -21  -1  748.26   78.05
  -6  21  -1  539.83   62.97
   6  21   1  568.47   54.99
   6 -21   2  152.40   28.44
   6  22  -6   64.12   19.71
   6  22  -5   10.18   11.08
   6 -22  -5   10.18    8.13
   6  22  -5    5.29   11.68
  -6  22   5   38.82   18.16
   6  22  -5   -0.95    8.68
   6  22  -4   27.89   12.58
   6 -22  -4   41.52   19.26
   6  22  -4   47.31   15.17
   6  22  -4   22.36   13.32
  -6  22   4   30.64   16.72
   6 -22  -3  552.60   61.23
   6  22  -3  607.79   53.54
   6  22  -3  648.11   59.03
  -6  22   3  551.41   62.28
   6  22  -3  534.24   52.10
   6 -22  -2   11.98   12.43
  -6  22   2   -1.75   12.13
   6 -22  -1  391.57   46.61
  -6  22   1  362.63   48.85
   6  22  -1  349.01   41.57
   6 -22   0   37.82   15.67
  -6 -22   0   58.23   23.05
  -6  22   0   63.92   21.51
   6  22   0   48.30   15.47
   6 -22   1   62.83   19.76
  -6 -22  -1   69.86   27.94
  -6  22  -1   68.26   22.70
   6  23  -5   27.50   14.87
   6  23  -4  202.90   29.74
   6 -23  -4  196.71   35.73
   6  23  -4  198.41   31.74
  -6  23   4  235.68   39.37
   6  23  -4  222.96   29.64
   6 -23  -3  579.65   64.32
   6  23  -3  699.66   58.78
   6  23  -3  761.14   65.42
  -6  23   3  710.04   71.91
   6  23  -3  563.18   55.84
   6 -23  -2  191.42   34.28
   6  23  -2  254.84   30.69
  -6  23   2  234.28   39.32
   6 -23  -1   28.89   14.17
  -6  23   1   25.05   15.57
   6  23  -1   26.50   14.12
   6 -23   0  641.43   66.52
  -6 -23   0  902.86   87.38
   6  24  -4    9.68   10.38
   6  24  -3   25.45   12.67
   6 -24  -2  175.55   32.19
   6 -24  -1   61.38   19.21
  -7   0  11   66.62   36.38
  -7   0  10 2745.80  227.35
   7   0 -10 2441.10  157.89
  -7   0   9  292.67   59.23
   7   0  -9  258.89   35.88
   7   0  -9  310.48   30.24
   7   0  -9  269.56   26.80
   7   0  -8  352.95   41.92
   7   0  -8  408.49   34.33
   7   0  -8  409.09   32.44
   7   0  -7   16.12   11.58
   7   0  -7   18.51    9.78
   7   0  -7   14.52    5.44
   7   0  -7   11.38    5.34
   7   0  -7   12.08    5.49
   7   0  -6  992.83   78.49
   7   0  -6  989.98   75.75
   7   0  -6 1006.50   60.73
   7   0  -6 1011.04   60.43
   7   0  -6 1044.23   66.67
   7   0  -6  985.29   63.67
   7   0  -5 3277.29  207.09
   7   0  -5 3709.44  215.52
   7   0  -5 3416.72  201.50
   7   0  -4  243.32   29.99
   7   0  -4  222.61   24.60
   7   0  -4  213.93   24.50
   7   0  -3   10.33    8.33
   7   0  -3    9.33    5.99
   7   0  -3   12.38    6.84
   7   0  -2   71.11   14.97
   7   0  -2   68.01   13.77
   7   0  -2   73.20   11.78
   7   0  -1 1762.75  113.23
   7   0  -1 1653.12  114.27
   7   0  -1 1671.98  103.15
   7   0   0  551.80   37.63
   7   0   0  555.00   50.50
  -7   0   0  512.93   39.67
   7   0   0  566.03   48.60
   7   0   0  546.76   43.81
   7   0   1  796.12   46.86
   7   0   1  684.39   62.93
   7   0   1  744.47   60.98
  -7   0  -1  797.12   61.98
   7   0   1  700.16   57.29
  -7   0  -2  354.90   40.62
   7   0   2  258.39   30.54
   7   0   3    1.25    7.78
  -7   0  -3   -1.70   12.13
   7   0   3    8.18    8.63
   7   0   4   58.38   17.37
  -7   0  -4   74.10   24.70
   7   0   4   52.25   15.82
  -7  -1  11  114.87   44.71
  -7   1  11  136.58   49.55
  -7  -1  10  278.10   62.18
  -7   1  10  289.48   64.42
   7  -1 -10  235.08   28.49
   7   1 -10  211.23   27.40
  -7  -1   9    6.49   14.62
  -7   1   9    6.89   16.62
   7   1  -9   18.06   10.98
   7  -1  -9   19.96    8.08
   7   1  -9   21.51    9.13
   7  -1  -9    7.24    5.79
   7   1  -9    5.39    6.24
   7  -1  -8   24.40   11.63
   7   1  -8   34.58   13.37
   7  -1  -8   69.11   11.78
   7   1  -8   49.20   10.38
   7  -1  -8   53.34    9.63
   7   1  -8   45.11    9.63
   7  -1  -7  326.10   37.82
   7  -1  -7  350.50   40.02
   7   1  -7  356.79   39.17
   7   1  -7  341.17   38.22
   7  -1  -7  373.66   28.59
   7   1  -7  370.12   28.99
   7   1  -7  365.18   26.60
   7  -1  -7  361.98   27.65
   7  -1  -7  358.19   27.35
   7   1  -7  329.10   28.79
   7  -1  -6  356.89   38.37
   7   1  -6  399.21   41.42
   7  -1  -6  390.92   42.32
   7   1  -6  355.44   38.22
   7   1  -6  413.68   28.14
   7  -1  -6  390.62   26.60
   7   1  -6  418.02   27.74
   7   1  -6  423.31   32.34
   7  -1  -6  406.29   32.74
   7  -1  -6  408.34   28.84
   7   1  -6  390.28   31.29
   7   1  -5  105.94   17.76
   7   1  -5  123.01   21.71
   7  -1  -5   99.30   20.21
   7  -1  -5   84.33   16.37
   7   1  -5  102.90   15.22
   7  -1  -5  132.69   16.77
   7  -1  -5  115.22   11.58
   7   1  -4    8.48    7.19
   7  -1  -4    1.00    7.63
   7  -1  -4    2.74    5.24
   7   1  -4    5.99    5.64
   7   1  -4   10.78    7.19
   7  -1  -4    5.79    6.84
   7   1  -3  350.06   35.78
   7  -1  -3  316.97   35.18
   7   1  -3  327.95   31.94
   7  -1  -3  303.15   31.24
   7  -1  -3  296.41   29.04
   7   1  -3  291.32   28.24
   7  -1  -2   84.88   17.02
  -7   1   2   63.02   14.57
   7   1  -2   89.82   15.37
   7   1  -2   81.79   15.57
   7  -1  -2   86.48   16.12
   7  -1  -2   89.12   12.97
   7   1  -2   66.52   11.48
   7  -1  -1  942.13   69.26
   7   1  -1  952.41   71.06
   7  -1  -1  974.12   71.36
   7  -1  -1  936.19   60.58
   7   1  -1  899.61   58.93
   7  -1  -1  823.42   60.43
  -7   1   1  767.28   65.42
   7   1  -1  940.83   67.72
  -7   1   0    4.49    5.29
   7   1   0    3.24    5.49
   7  -1   0    8.23    4.84
   7   1   0    6.89    5.84
   7   1   0   19.36    5.14
  -7  -1   0   12.67    5.49
   7  -1   0    9.93    7.54
  -7   1   0    6.74    3.84
   7   1   0   28.84    8.73
   7  -1   0    9.48    6.49
   7  -1   1   46.16   12.97
   7  -1   1   66.32    7.78
   7   1   1   19.21    9.43
   7  -1   1   19.31    9.48
  -7  -1  -1   43.51   12.92
  -7   1  -1   48.90   12.03
   7   1   1   22.01    9.18
   7   1   1   20.46    9.73
   7  -1   1   24.40    9.43
   7  -1   2 1526.07  103.89
  -7  -1  -2 1620.98  111.88
  -7   1  -2 1551.77  110.53
   7   1   2 1337.84   97.91
   7  -1   2 1345.03   97.26
   7   1   3  130.64   24.80
   7  -1   3  150.20   26.50
  -7  -1  -3  181.89   33.53
  -7   1  -3  161.73   31.14
   7   1   3  184.83   25.25
   7  -1   3  141.57   22.75
   7   1   4    5.19    8.83
   7  -1   4    3.89    9.43
  -7  -1  -4   20.91   17.07
  -7   1  -4   22.11   16.07
   7   1   4   12.43    9.33
   7  -1   4   11.18    9.78
  -7  -1  -5   19.71   17.37
   7  -1   5   32.88   13.57
  -7  -2  11   35.03   27.89
  -7  -2  10  159.28   47.11
  -7   2  10  206.49   57.24
   7  -2 -10  215.52   27.00
   7   2 -10  192.47   26.00
  -7   2   9  259.68   57.19
   7   2  -9  209.83   31.59
   7  -2  -9  231.79   25.85
   7   2  -9  225.80   25.70
   7   2  -9  196.81   23.40
   7  -2  -8   61.48   17.07
   7  -2  -8   80.34   12.72
   7   2  -8   51.30   15.37
   7   2  -8   70.36   12.67
   7  -2  -8   73.05   10.43
   7   2  -8   67.82   12.03
   7  -2  -7  315.12   37.53
   7  -2  -7  343.52   40.72
   7   2  -7  341.07   38.07
   7   2  -7  321.56   37.38
   7  -2  -7  407.34   29.19
   7   2  -7  375.11   29.59
   7   2  -7  366.42   26.35
   7  -2  -7  354.25   26.25
   7  -2  -7  381.29   28.74
   7   2  -7  328.10   29.89
   7  -2  -6  610.94   57.09
   7   2  -6  687.49   60.18
   7  -2  -6  616.83   60.58
   7   2  -6  641.03   57.39
   7   2  -6  748.41   46.76
   7  -2  -6  739.43   44.46
   7   2  -6  713.78   49.50
   7   2  -6  765.48   46.21
   7  -2  -6  763.33   51.90
   7  -2  -6  729.40   44.81
   7   2  -6  696.07   50.15
   7   2  -5  176.20   25.15
   7  -2  -5  175.60   26.70
   7   2  -5  176.20   23.10
  -7   2   5  155.24   24.40
   7   2  -5  165.12   19.51
   7  -2  -5  173.90   20.31
   7  -2  -5  165.67   13.42
   7  -2  -5  170.06   22.80
   7  -2  -4   59.13   12.67
   7   2  -4   71.46   15.37
   7  -2  -4   69.06   16.17
  -7   2   4   82.84   18.76
  -7   2   4   69.66   17.02
   7   2  -4   64.27   12.77
   7   2  -4   64.77   12.92
   7  -2  -4   58.03   12.58
   7   2  -3 1041.68   74.40
   7   2  -3 1174.22   83.23
   7  -2  -3 1202.51   86.28
  -7   2   3 1173.67   91.32
   7   2  -3 1151.16   79.49
   7  -2  -3 1157.40   79.89
   7  -2  -3 1088.44   76.45
  -7   2   2  712.88   55.49
   7   2  -2  699.66   38.47
   7   2  -2  654.80   41.02
   7  -2  -2  669.12   41.47
   7  -2  -2  627.80   32.44
   7  -2  -2  622.86   27.74
   7   2  -2  666.08   31.24
   7  -2  -2  613.33   43.91
  -7   2   1  163.48   29.24
   7  -2  -1  151.95   22.56
   7   2  -1  153.45   23.15
   7  -2  -1  152.20   17.37
   7  -2  -1  153.20   23.05
   7   2  -1  146.66   15.92
   7  -2  -1  160.63   17.86
  -7   2   1  152.10   22.66
   7   2  -1  164.42   21.56
   7   2   0   15.97    7.98
  -7   2   0    9.83    6.34
  -7   2   0   10.83    9.88
   7  -2   0   13.67    5.54
   7   2   0   15.97    8.33
  -7  -2   0   22.06    7.19
   7   2   0   15.22    4.29
   7  -2   0   12.03    8.38
  -7   2   0   10.83    4.84
   7  -2   0   13.87    9.08
   7  -2   0    9.28    7.24
   7  -2   1  580.70   37.03
   7   2   1  508.29   46.06
   7   2   1  497.51   49.45
   7  -2   1  492.67   49.35
  -7  -2  -1  560.99   49.60
  -7   2  -1  574.81   48.60
   7  -2   1  543.57   49.35
   7   2   1  480.85   43.96
  -7   2  -1  443.47   40.07
   7  -2   1  558.34   44.61
  -7   2  -2   20.96    5.39
  -7  -2  -2   50.00   16.52
  -7   2  -2   45.56   14.52
   7  -2   2   30.64   11.88
   7   2   2   35.53   11.98
   7  -2   2   38.42   11.88
   7   2   3   30.64   13.12
   7  -2   3   26.05   12.08
  -7  -2  -3   27.15   15.07
  -7   2  -3   26.05   13.67
   7   2   3   23.80   11.33
   7  -2   3   48.40   13.57
   7   2   4   91.82   20.76
   7  -2   4   65.72   18.01
  -7  -2  -4   78.19   26.30
  -7   2  -4   84.93   25.50
   7   2   4   83.04   18.91
   7  -2   4   83.78   18.31
  -7  -2  -5   27.50   19.51
   7  -2   5   19.21   11.13
  -7  -3  11  281.49   64.42
  -7  -3  10  253.45   56.74
  -7   3  10  302.90   66.12
   7  -3 -10  274.06   30.24
   7   3 -10  192.32   26.15
   7   3 -10  190.72   24.95
  -7   3   9 1365.64  135.68
   7   3  -9  880.00   82.84
   7  -3  -9 1167.38   77.20
   7   3  -9 1141.28   77.15
   7   3  -9 1014.89   74.15
   7  -3  -8  245.46   33.43
   7   3  -8  201.05   30.54
   7  -3  -8  264.67   25.35
   7   3  -8  293.47   27.10
   7   3  -8  256.84   26.25
   7  -3  -7 1121.92   94.26
   7   3  -7 1170.78   90.32
   7   3  -7 1081.40   90.07
   7  -3  -7 1401.17   79.79
   7   3  -7 1330.66   80.69
   7   3  -7 1273.22   75.80
   7  -3  -7 1281.11   80.04
   7   3  -7 1256.76   82.74
   7  -3  -7 1182.75   92.42
   7   3  -6  157.04   23.35
   7  -3  -6  150.65   25.05
  -7   3   6  149.30   21.56
   7   3  -6  123.70   20.56
   7   3  -6  154.34   14.57
   7  -3  -6  147.26   12.33
   7   3  -6  133.68   15.77
   7   3  -6  138.62   13.67
   7  -3  -6  138.72   17.37
   7  -3  -6  129.79    9.78
   7   3  -6  151.10   17.66
   7  -3  -6  135.13   21.71
   7   3  -5  166.87   23.35
   7  -3  -5  164.42   25.60
   7   3  -5  125.90   18.91
  -7   3   5  123.31   22.31
  -7   3   5  156.39   26.50
   7   3  -5  129.84   17.17
   7   3  -5  123.80    9.43
   7  -3  -5  124.00   17.57
   7  -3  -5  121.31   19.31
   7   3  -4  317.27   33.43
   7  -3  -4  297.21   34.73
   7   3  -4  259.09   27.65
  -7   3   4  274.95   36.03
   7   3  -4  290.62   28.64
   7  -3  -4  287.93   28.84
   7  -3  -4  281.99   29.54
  -7   3   4  281.59   36.03
   7   3  -3 1464.84  100.85
   7  -3  -3 1436.80  103.74
   7   3  -3 1389.89   93.02
  -7   3   3 1431.61  110.38
   7   3  -3 1516.14   98.45
   7  -3  -3 1485.15   98.21
   7  -3  -3 1423.37   95.31
   7  -3  -3 1480.71   86.08
   7  -3  -2  321.31   37.33
   7   3  -2  377.90   33.28
  -7   3   2  403.45   46.56
   7   3  -2  351.85   35.63
   7  -3  -2  372.26   36.38
   7  -3  -2  309.98   30.04
   7  -3  -2  355.29   27.25
   7   3  -2  327.35   28.64
  -7   3   1  687.83   67.62
   7   3  -1  690.53   57.69
   7  -3  -1  650.31   56.54
   7  -3  -1  670.57   48.90
   7  -3  -1  645.22   56.59
  -7   3   1  647.56   57.69
   7   3  -1  693.37   46.36
   7   3  -1  701.06   53.19
   7  -3  -1  702.31   48.60
   7  -3   0  109.93   19.71
  -7   3   0   92.72   17.37
   7  -3   0  104.49   13.37
  -7   3   0  109.88   24.85
  -7   3   0  124.05   13.72
   7   3   0  109.73   10.63
  -7  -3   0   94.76   14.87
   7   3   0   83.04   17.76
   7   3   0  120.76   17.66
  -7   3   0   87.38   12.77
   7  -3   0   98.06   18.81
   7  -3   0   98.01   14.92
   7  -3   1  786.69   49.80
  -7   3  -1  797.87   74.70
   7   3   1  668.02   61.63
   7  -3   1  655.50   61.48
  -7  -3  -1  769.47   61.93
  -7   3  -1  597.91   54.59
  -7   3  -1  799.96   61.38
   7  -3   1  776.26   63.22
   7  -3   1  807.00   57.24
  -7   3  -2   14.77    5.99
  -7  -3  -2   24.45   13.87
  -7   3  -2    6.29    9.08
   7  -3   2   36.78   12.13
   7   3   2    6.09    8.23
   7  -3   2   -0.80    6.79
   7   3   3  375.35   43.96
   7  -3   3  380.00   44.36
  -7  -3  -3  554.30   59.33
  -7   3  -3  465.78   53.29
   7   3   3  375.06   40.37
   7  -3   3  409.84   40.37
   7   3   4  914.33   80.34
   7  -3   4  894.37   80.14
  -7  -3  -4 1174.77  102.75
  -7   3  -4 1099.87   96.71
   7   3   4  920.47   76.65
   7  -3   4 1022.77   77.50
  -7  -3  -5   17.62   17.12
   7  -3   5    9.08   10.58
  -7   4  10  471.31   83.38
   7  -4 -10  416.72   40.32
   7   4 -10  434.09   40.92
   7   4 -10  358.74   37.18
  -7   4   9   28.29   25.60
   7  -4  -9   41.12   10.63
   7   4  -9   38.97   12.62
   7   4  -9   37.18   14.92
   7   4  -9   28.89   11.08
   7   4  -8  269.47   35.93
   7  -4  -8  357.94   30.39
   7   4  -8  336.73   30.69
   7   4  -8  309.88   30.59
   7  -4  -8  293.82   37.18
   7  -4  -7  610.54   59.93
   7   4  -7  610.19   54.59
  -7   4   7  548.96   49.25
   7   4  -7  668.92   47.26
   7   4  -7  562.78   54.59
   7  -4  -7  677.70   45.06
   7   4  -7  638.43   41.77
   7   4  -7  703.95   47.21
   7   4  -7  629.35   49.00
   7  -4  -7  721.12   47.61
   7  -4  -7  611.04   56.84
   7  -4  -6   46.86   12.92
   7   4  -6   19.46   11.13
   7  -4  -6   28.74   13.42
  -7   4   6   26.50   13.92
  -7   4   6   31.99   11.28
   7   4  -6   35.03    7.49
   7  -4  -6   20.26    4.69
   7   4  -6   31.04    7.73
   7   4  -6   33.88    6.94
   7   4  -6   36.23   11.53
   7  -4  -6   17.91    7.98
   7   4  -6   19.51    7.93
   7  -4  -5   18.41   10.23
   7   4  -5   39.32   12.18
   7  -4  -5   17.17   12.03
  -7   4   5   22.70   14.72
  -7   4   5   15.17   10.53
   7   4  -5   14.07    7.54
   7   4  -5   17.57    8.73
   7   4  -5   17.42    3.74
   7  -4  -5   13.02    8.23
   7   4  -4  339.78   34.68
   7  -4  -4  358.64   38.57
   7   4  -4  271.31   28.84
  -7   4   4  301.45   39.12
   7   4  -4  305.14   30.64
   7  -4  -4  319.96   31.39
  -7   4   4  307.74   39.17
   7  -4  -4  336.13   32.64
   7   4  -3  545.97   48.65
   7  -4  -3  579.95   52.94
   7   4  -3  539.38   43.31
  -7   4   3  591.63   59.68
   7   4  -3  580.25   48.05
   7  -4  -3  580.25   47.85
   7   4  -3  649.01   45.81
   7  -4  -3  560.64   45.71
   7  -4  -3  548.51   35.48
   7  -4  -2  766.93   66.22
   7   4  -2  842.48   59.03
  -7   4   2  826.51   75.70
   7   4  -2  819.72   63.57
   7  -4  -2  800.36   63.22
   7  -4  -2  761.49   57.39
   7  -4  -2  860.79   52.30
   7   4  -2  744.67   54.34
  -7   4   1  584.34   60.43
   7   4  -1  490.78   47.11
  -7  -4   1  567.32   37.78
   7  -4  -1  515.38   40.47
   7  -4  -1  545.12   49.15
   7  -4  -1  538.73   48.60
   7   4  -1  540.08   43.01
   7   4  -1  559.04   37.38
   7  -4  -1  595.52   39.87
   7  -4   0   96.66   19.76
   7  -4   0  109.83   14.17
  -7   4   0  113.37   25.55
   7   4   0  117.27   17.47
  -7   4   0  115.52   14.42
   7   4   0  111.38   10.38
   7   4   0   99.00   19.16
  -7  -4   0  117.27   17.22
  -7   4   0  118.22   15.22
   7  -4   0  106.39   19.76
   7  -4   0  113.97   15.77
  -7   4   0   93.61   18.66
   7  -4   1  388.18   28.09
  -7   4  -1  331.89   45.11
   7   4   1  313.38   36.83
  -7   4  -1  250.75   31.89
  -7  -4  -1  343.42   37.03
   7  -4   1  274.36   35.03
  -7   4  -1  316.97   34.53
   7  -4   1  309.09   36.33
   7  -4   1  310.63   31.04
  -7  -4  -2   86.78   20.96
  -7   4  -2   74.55   18.91
  -7   4  -2   42.72   11.18
   7   4   2   69.01   15.97
   7  -4   2   72.96   14.72
   7  -4   2   48.85   15.12
   7   4   3  990.93   86.48
   7  -4   3 1000.11   86.88
  -7  -4  -3 1357.26  105.34
  -7   4  -3 1279.66   99.65
   7   4   3 1072.62   83.58
   7  -4   3 1169.68   82.74
   7   4   4  319.07   41.72
   7  -4   4  394.32   45.31
  -7  -4  -4  490.08   61.53
  -7   4  -4  422.06   54.39
   7   4   4  382.29   41.77
   7  -4   5  207.94   30.64
  -7   5  10   16.37   19.66
   7   5 -10   12.77    9.33
   7   5 -10   16.12    8.78
   7   5  -9 2529.73  185.18
   7  -5  -9 3090.27  175.75
   7   5  -9 2876.89  175.70
   7   5  -9 2674.34  174.10
  -7   5   8 1471.43  111.93
   7   5  -8 1816.94  129.19
   7  -5  -8 2118.79  117.37
   7   5  -8 2104.02  119.11
   7   5  -8 1898.23  119.31
   7  -5  -8 1829.57  129.39
  -7   5   8 2250.28  176.70
   7  -5  -7    5.64    6.99
   7  -5  -7   -1.05    6.84
   7  -5  -7   15.52   11.63
  -7   5   7    8.88   11.58
  -7   5   7    8.38    7.14
   7   5  -7   10.48    7.04
   7  -5  -7    8.38    5.14
   7   5  -7    1.00    5.24
   7   5  -7    1.05    7.34
   7   5  -7    7.19    6.84
   7  -5  -6  109.53   19.66
   7   5  -6  108.93   18.91
   7  -5  -6  107.54   22.31
  -7   5   6  114.52   24.80
  -7   5   6   95.91   19.41
   7   5  -6  116.32   13.52
   7  -5  -6  110.13   11.18
   7   5  -6  111.73   13.97
   7   5  -6  112.53   13.07
   7  -5  -6   96.06   15.62
   7   5  -6   94.56   17.81
   7   5  -5 4408.35  256.44
   7  -5  -5 4205.90  263.78
  -7   5   5 3951.21  263.88
   7   5  -5 4185.94  253.85
   7   5  -5 4500.81  249.26
   7   5  -5 4287.49  240.47
   7  -5  -5 4449.92  251.75
  -7   5   5 4399.62  269.81
   7  -5  -5 3998.56  255.24
   7   5  -4  553.75   48.05
   7  -5  -4  549.76   52.99
  -7   5   4  523.31   56.49
   7   5  -4  502.50   43.66
   7   5  -4  591.13   46.26
   7  -5  -4  602.15   47.21
  -7   5   4  550.71   56.14
   7  -5  -4  546.56   46.91
   7   5  -3  202.85   24.30
   7  -5  -3  135.58   23.30
   7   5  -3  143.32   18.11
   7   5  -3  165.27   22.11
  -7   5   3  135.78   27.84
   7   5  -3  172.71   19.11
  -7   5   3  169.36   27.65
   7  -5  -3  218.32   24.90
   7  -5  -3  133.58   19.41
  -7   5   2   30.09   13.87
   7   5  -2   28.09    7.58
   7   5  -2   36.38   10.88
   7  -5  -2   31.49   11.18
   7  -5  -2   43.11    9.98
   7   5  -2   32.19    9.08
   7  -5  -2   40.07    6.89
  -7   5   1 2343.00  165.67
   7   5  -1 2317.80  149.85
  -7  -5   1 2083.01  137.43
   7  -5  -1 2246.44  139.87
   7   5  -1 2325.88  140.82
   7  -5  -1 2404.63  150.40
   7  -5  -1 2459.27  151.70
   7  -5  -1 2416.90  136.93
   7   5  -1 2293.00  134.53
   7  -5   0  833.40   66.57
   7  -5   0  758.29   54.04
  -7   5   0  890.83   80.19
  -7   5   0  651.86   64.02
   7   5   0  759.64   64.42
  -7  -5   0  762.19   59.33
   7   5   0  777.81   46.96
   7  -5   0  787.39   65.27
  -7   5   0  749.81   55.14
   7  -5   0  830.95   56.14
   7  -5   1 1487.80   92.57
  -7   5  -1 1701.42  124.65
  -7   5  -1 1173.52  102.10
   7   5   1 1460.95  107.09
  -7  -5  -1 1586.35  108.04
  -7   5  -1 1472.63  103.94
   7  -5   1 1510.20  107.29
   7  -5   1 1603.62   98.75
   7  -5   2   21.36   10.48
  -7  -5  -2   11.28   10.73
  -7   5  -2   17.37    8.43
  -7   5  -2   25.50   12.28
   7   5   2   10.18    8.08
   7  -5   2   13.17    9.18
   7   5   3 1626.27  130.54
   7  -5   3 1843.49  134.33
  -7   5  -3 2106.82  144.81
   7   5   3 1768.39  127.55
   7  -5   3 2010.56  127.80
   7   5   4  613.18   62.38
   7  -5   4  626.21   63.02
  -7  -5  -4  867.23   85.88
  -7   5  -4  796.52   77.85
   7   5   4  630.25   59.73
   7  -5   4  728.75   60.73
   7  -5   5 1090.68   86.38
   7   6 -10    7.44    8.63
   7   6 -10   -0.90    7.09
   7  -6  -9  185.98   23.00
   7   6  -9  173.85   23.55
   7   6  -9  152.80   22.11
   7   6  -9  140.57   26.75
  -7   6   8   21.51   21.61
   7  -6  -8   24.35   13.17
  -7   6   8   21.51    8.58
   7  -6  -8   30.24    8.98
   7   6  -8   22.01   10.03
   7   6  -8   22.85   11.83
   7   6  -8   18.01    9.13
   7  -6  -7  342.02   43.46
   7   6  -7  392.12   38.07
  -7   6   7  322.66   37.53
   7   6  -7  394.22   33.88
   7  -6  -7  423.16   31.34
   7   6  -7  380.15   41.02
   7   6  -7  393.92   27.50
   7  -6  -7  344.87   40.22
   7   6  -7  346.36   34.33
   7  -6  -7  401.45   33.83
  -7   6   7  438.48   50.20
   7  -6  -6   87.83   18.11
  -7   6   6  100.45   24.80
   7  -6  -6   77.95   19.81
   7   6  -6  114.22   18.91
  -7   6   6  100.70   20.96
   7   6  -6   90.32   13.17
   7  -6  -6   99.30   10.98
   7   6  -6  104.74   13.72
   7  -6  -6  113.47   16.92
   7   6  -6   94.81   18.11
   7   6  -5 1550.37  102.95
   7  -6  -5 1500.72  110.88
  -7   6   5 1432.11  112.78
   7   6  -5 1472.03  101.65
   7   6  -5 1519.18   90.32
   7   6  -5 1543.89   97.31
   7  -6  -5 1468.39   99.05
  -7   6   5 1565.99  116.07
   7  -6  -5 1476.67  103.44
   7  -6  -4  139.92   23.65
  -7   6   4   94.96   22.85
   7   6  -4  102.85   17.76
   7   6  -4  100.85   16.52
   7   6  -4  104.19   16.02
  -7   6   4  119.91   25.25
   7  -6  -4  102.35   17.12
   7  -6  -4   95.11   16.67
   7   6  -3  314.92   33.38
   7   6  -3  359.09   29.34
   7   6  -3  322.11   29.64
  -7   6   3  345.56   45.26
   7   6  -3  288.08   32.39
  -7   6   3  364.78   43.86
   7  -6  -3  336.63   32.83
   7  -6  -3  344.52   34.98
   7   6  -2 1140.39   76.60
  -7   6   2 1244.13  102.80
   7   6  -2 1198.42   86.98
   7  -6  -2 1211.35   81.94
   7  -6  -2 1126.06   85.53
   7   6  -2 1239.14   78.69
   7   6  -2 1193.93   70.91
   7  -6  -2 1252.41   72.26
  -7   6   1  594.02   62.23
   7   6  -1  502.70   47.90
   7  -6  -1  495.62   40.92
  -7  -6   1  482.09   40.97
   7   6  -1  503.65   40.02
   7  -6  -1  504.35   47.16
   7  -6  -1  525.16   49.20
   7  -6  -1  536.19   37.87
   7   6  -1  495.02   35.73
   7  -6   0  610.89   54.39
   7  -6   0  552.20   42.86
  -7   6   0  645.97   66.37
   7   6   0  552.65   52.00
  -7   6   0  482.39   42.27
  -7  -6   0  584.69   49.40
   7   6   0  570.97   35.03
   7  -6   0  544.92   51.80
  -7   6   0  516.08   43.91
   7  -6   0  652.45   44.66
   7  -6   1   85.38   12.97
  -7   6  -1   92.37   24.70
  -7   6  -1   74.60   15.37
   7   6   1   96.41   19.46
  -7  -6  -1   92.97   19.56
  -7   6  -1   62.63   18.06
   7  -6   1   82.14   18.76
  -7   6  -1   89.27   18.11
   7  -6   1  105.09   15.87
  -7   6  -2  435.88   50.80
  -7  -6  -2  696.57   63.72
   7  -6   2  581.35   54.74
  -7   6  -2  538.28   55.29
   7  -6   2  587.78   48.30
  -7   6  -3   44.06   19.61
   7   6   3   27.99   11.58
  -7  -6  -3   64.52   22.66
   7  -6   3   29.89   13.17
  -7   6  -3   41.42   16.77
   7  -6   3   29.54   13.32
   7   6   3   14.62   10.93
   7  -6   3   26.30   12.18
  -7  -6  -4   38.62   20.81
   7  -6   4   -1.35    9.53
  -7   6  -4   -1.90   13.97
   7   6   4   13.77   11.18
   7  -6   4   -1.05    8.43
   7  -6   5   17.42   11.03
   7   7 -10  496.86   46.11
   7   7 -10  457.09   44.46
  -7   7   9   13.72   19.36
   7  -7  -9   15.62    8.48
   7   7  -9   12.33    8.98
   7   7  -9    2.54    6.69
   7   7  -9    2.69    8.93
  -7   7   8  451.95   52.65
  -7   7   8  347.91   37.23
   7   7  -8  412.73   38.12
   7  -7  -8  453.35   36.58
   7   7  -8  409.19   45.51
   7   7  -8  469.22   39.17
   7   7  -8  389.33   38.37
  -7   7   8  546.07   75.80
   7  -7  -7   16.97    9.73
   7   7  -7   20.36    9.83
   7  -7  -7   21.36   10.68
  -7   7   7   10.88   12.43
   7  -7  -7    8.33   11.38
   7   7  -7   15.92   10.33
  -7   7   7   15.62   10.08
   7   7  -7   15.42   10.18
   7  -7  -7   15.72    6.69
   7   7  -7   18.16    5.64
   7   7  -7   15.62    9.33
   7  -7  -6 1481.01  114.17
   7   7  -6 1586.45  103.79
  -7   7   6 1428.21  113.33
   7   7  -6 1509.60   95.91
   7   7  -6 1523.53   96.51
   7  -7  -6 1652.42   93.07
   7   7  -6 1434.10  105.64
  -7   7   6 1697.63  122.01
   7  -7  -6 1383.40  106.49
   7  -7  -6 1633.06  102.00
   7   7  -5  957.40   70.31
   7  -7  -5  890.13   78.05
  -7   7   5  913.34   82.89
   7   7  -5  986.99   67.22
   7   7  -5  957.35   61.23
   7   7  -5  906.65   70.01
  -7   7   5 1030.10   85.88
   7  -7  -5  931.25   72.31
   7  -7  -5  973.97   69.96
  -7   7   4  167.97   29.89
   7   7  -4  171.46   22.95
   7  -7  -4  173.46   27.35
   7   7  -4  169.21   21.81
  -7   7   4  135.33   28.09
   7   7  -4  152.50   20.36
   7   7  -4  158.93   15.02
   7   7  -4  173.06   17.96
   7  -7  -4  137.83   20.86
   7  -7  -4  165.07   22.16
   7   7  -3  260.48   29.34
   7   7  -3  294.57   31.14
  -7   7   3  297.11   42.82
   7   7  -3  240.52   25.15
  -7   7   3  275.70   38.82
   7  -7  -3  236.08   27.79
   7   7  -3  264.18   20.26
   7  -7  -3  281.44   31.34
   7   7  -3  266.12   23.80
   7   7  -2  351.10   29.54
   7   7  -2  355.10   37.28
  -7   7   2  425.51   51.85
  -7   7   2  333.24   43.51
   7  -7  -2  365.22   33.88
   7   7  -2  370.36   29.89
   7  -7  -2  345.31   37.03
   7   7  -2  359.94   26.00
  -7   7   1 3309.78  209.73
   7   7  -1 3130.54  188.08
   7  -7  -1 2816.76  176.80
  -7  -7   1 2908.38  179.94
   7  -7  -1 2949.64  185.98
   7  -7  -1 3125.99  188.92
  -7   7   1 2700.24  169.91
   7   7  -1 3118.91  170.31
   7  -7  -1 3153.34  172.01
   7   7  -1 2948.15  169.86
   7  -7  -1 2566.90  187.18
   7  -7   0  155.99   24.85
   7  -7   0  141.42   17.71
   7   7   0  139.77   23.20
  -7   7   0  179.54   33.38
  -7   7   0  112.98   17.27
  -7  -7   0  128.20   21.06
   7  -7   0  129.44   22.51
   7   7   0  138.43   11.08
  -7   7   0  139.67   19.56
   7  -7   0  161.03   18.11
   7  -7   1  491.03   38.87
  -7   7  -1  612.38   65.27
   7   7   1  413.38   46.66
  -7   7  -1  455.75   43.71
  -7  -7  -1  522.06   51.35
  -7   7  -1  472.41   46.71
   7  -7   1  437.63   47.61
   7  -7   1  538.98   42.32
  -7   7  -2  266.32   39.37
  -7  -7  -2  357.79   44.86
   7  -7   2  263.88   36.28
   7  -7   2  293.32   37.43
  -7   7  -2  328.55   40.77
   7  -7   2  350.55   34.18
  -7   7  -3  743.77   71.66
  -7   7  -3 1164.69   95.41
   7   7   3  679.05   68.51
   7  -7   3  820.42   72.16
  -7  -7  -3  979.66   87.58
   7  -7   3  792.23   72.21
  -7   7  -3  944.82   81.74
   7   7   3  734.84   66.82
   7  -7   3  926.01   68.21
  -7  -7  -4  197.61   39.87
   7  -7   4  125.95   25.60
  -7   7  -4  168.02   34.13
   7  -7   4  170.06   25.60
   7   7   4  117.57   23.45
   7   8 -10  747.47   60.28
   7   8 -10  635.69   57.39
   7   8  -9   46.06   16.02
  -7   8   9   87.78   34.53
   7   8  -9   58.03   14.87
   7  -8  -9   49.70   12.67
   7   8  -9   51.90   13.57
   7   8  -9   31.69   11.83
  -7   8   8  374.46   62.33
  -7   8   8  283.49   41.72
  -7   8   8  246.81   31.54
   7   8  -8  302.20   31.34
   7  -8  -8  325.65   29.34
   7   8  -8  273.86   35.93
   7   8  -8  260.23   30.44
   7  -8  -7 2509.37  176.40
  -7   8   7 2126.78  168.57
   7   8  -7 2633.02  159.48
   7  -8  -7 2856.08  155.94
   7   8  -7 2534.27  168.96
   7  -8  -7 2437.46  169.26
  -7   8   7 2759.92  183.59
   7   8  -7 2477.93  162.03
   7  -8  -7 2871.90  161.08
   7  -8  -6  886.79   78.84
   7   8  -6  932.85   67.77
  -7   8   6  853.51   79.94
   7   8  -6  962.79   62.97
   7  -8  -6  948.07   59.58
   7   8  -6  916.83   63.17
   7   8  -6  844.92   70.26
  -7   8   6  976.51   84.63
   7  -8  -6  833.20   71.61
   7  -8  -6  981.65   68.16
   7   8  -5 1556.06  101.05
   7  -8  -5 1350.62  109.68
   7   8  -5 1600.22   99.05
  -7   8   5 1385.75  116.97
   7   8  -5 1512.15   93.26
  -7   8   5 1549.52  118.27
   7   8  -5 1426.27  101.35
   7  -8  -5 1473.67  104.29
   7  -8  -5 1603.87  102.70
   7   8  -4   84.13   16.37
   7   8  -4   85.38   11.58
   7   8  -4  107.19   17.66
  -7   8   4   87.73   23.60
   7   8  -4  105.84   12.43
   7   8  -4   91.57   15.27
   7  -8  -4  109.83   18.46
   7  -8  -4   97.61   17.42
  -7   8   4  113.33   25.50
   7   8  -3 3708.74  231.54
   7   8  -3 4166.18  236.28
  -7   8   3 3804.50  256.39
  -7   8   3 3932.49  252.05
   7   8  -3 3985.24  228.40
   7  -8  -3 3605.69  231.59
   7   8  -3 3951.90  221.06
   7  -8  -3 3848.86  234.83
   7   8  -3 3955.60  222.26
  -7   8   2 1154.76   95.66
   7   8  -2 1241.09   84.48
   7   8  -2 1105.51   71.46
  -7   8   2 1336.35  105.34
   7   8  -2 1178.71   70.71
   7  -8  -2 1153.31   77.95
   7  -8  -2 1158.25   83.04
   7   8  -2 1132.90   68.51
  -7   8   2  973.92   64.67
   7  -8  -1 1968.69  134.58
   7   8  -1 1997.48  113.87
  -7   8   1 1902.37  143.81
   7   8  -1 1928.67  130.14
   7  -8  -1 1933.21  121.76
  -7   8   1 2264.75  154.54
  -7  -8   1 1844.64  125.45
  -7   8   1 1621.08  115.27
   7  -8  -1 2067.20  131.49
   7   8  -1 1859.16  114.47
  -7   8   1 1834.21  117.77
   7  -8  -1 2174.68  115.27
   7  -8   0  237.83   25.05
   7  -8   0  253.90   33.03
   7   8   0  251.75   32.19
  -7   8   0  269.07   42.32
  -7  -8   0  251.75   31.19
  -7   8   0  215.27   25.90
   7  -8   0  255.04   32.39
   7   8   0  240.77   17.07
  -7   8   0  266.02   29.09
   7   8   0  252.35   23.30
   7  -8   0  258.29   24.40
   7  -8   1 2112.06  130.09
  -7   8  -1 2316.15  164.02
   7   8   1 1982.76  142.32
  -7   8  -1 1729.92  134.98
  -7  -8  -1 2321.64  148.65
  -7   8  -1 2005.07  141.12
   7  -8   1 2451.83  134.38
   7  -8   1 2105.77  144.51
  -7  -8  -2  426.75   51.70
   7  -8   2  365.37   43.96
   7  -8   2  400.21   45.46
  -7   8  -2  403.00   47.31
   7  -8   2  453.50   40.22
  -7   8  -3  701.11   73.50
   7   8   3  526.60   56.59
   7  -8   3  597.96   59.08
  -7  -8  -3  753.55   75.10
   7  -8   3  549.81   57.93
  -7   8  -3  655.45   66.07
   7   8   3  527.40   53.84
   7  -8   3  661.74   54.54
  -7  -8  -4  314.68   51.60
  -7   8  -4  281.39   45.36
   7   9 -10  165.42   25.20
   7   9  -9  167.17   25.25
   7  -9  -9  211.83   25.15
   7   9  -9  169.86   29.49
   7  -9  -9  201.95   32.59
   7   9  -9  180.49   26.00
  -7   9   8  336.28   58.58
  -7   9   8  238.53   33.68
   7   9  -8  324.90   33.03
   7  -9  -8  332.44   30.34
   7   9  -8  295.11   37.33
   7   9  -8  261.03   31.59
  -7   9   7  188.73   32.78
   7  -9  -7  135.28   27.45
   7   9  -7  150.00   20.76
   7   9  -7  142.27   14.62
   7  -9  -7  139.57   17.12
  -7   9   7  149.20   27.94
   7   9  -7  134.13   23.30
   7   9  -7  132.04   20.91
   7  -9  -7  147.76   20.76
   7   9  -7  128.69   14.52
   7  -9  -7  131.14   23.85
   7  -9  -6  325.60   42.07
   7   9  -6  330.09   32.09
   7   9  -6  348.46   29.94
  -7   9   6  282.89   42.72
   7  -9  -6  338.68   27.30
   7   9  -6  365.32   31.64
  -7   9   6  351.95   45.86
   7   9  -6  304.75   35.13
   7  -9  -6  308.69   36.53
   7  -9  -6  338.43   33.93
  -7   9   5   93.41   24.20
   7   9  -5   76.35   15.27
   7   9  -5  106.34   17.02
   7   9  -5   70.26   13.92
  -7   9   5   90.57   24.20
   7   9  -5   83.04   12.77
   7  -9  -5   78.49   17.02
   7  -9  -5   76.70   16.32
   7   9  -4  150.05   20.41
   7   9  -4  125.30   19.71
  -7   9   4  154.44   31.64
   7   9  -4  126.55   15.07
   7  -9  -4  137.88   21.21
   7   9  -4  126.05   18.51
   7  -9  -4  133.14   20.46
  -7   9   4  131.29   28.39
   7   9  -4  125.00   12.62
   7   9  -3   36.28    9.43
   7   9  -3   50.35   13.22
   7   9  -3   49.95   13.72
   7   9  -3   61.63    8.23
  -7   9   3   51.50   20.16
   7   9  -3   44.01    8.78
  -7   9   3   42.86    7.24
   7  -9  -3   45.86   12.72
  -7   9   3   63.07   20.51
   7  -9  -3   54.84   14.82
   7  -9  -2  143.27   24.80
   7   9  -2  142.02   22.16
   7  -9  -2  120.91   18.81
   7   9  -2  121.26   15.12
  -7   9   2  141.57   30.99
  -7   9   2  106.54   13.67
  -7   9   2  152.60   31.14
   7   9  -2  143.17   15.12
   7  -9  -2  138.87   22.01
   7  -9  -1   83.98   19.31
   7   9  -1   84.28   10.93
   7   9  -1   83.83   18.16
  -7  -9   1   76.60   16.52
  -7   9   1  124.65   29.89
   7  -9  -1   90.72   15.47
  -7   9   1   69.71   22.75
  -7   9   1   80.39   13.22
   7   9  -1   97.11   12.82
   7  -9  -1  100.90   19.81
   7  -9   0  161.48   20.91
   7  -9   0  192.12   28.89
   7   9   0  188.68   27.79
  -7   9   0  218.02   38.57
  -7   9   0  157.24   33.18
  -7  -9   0  168.37   26.65
  -7   9   0  141.92   21.51
   7  -9   0  178.89   27.40
   7   9   0  179.84   19.66
   7   9   0  196.41   13.97
   7  -9   0  226.85   21.41
   7  -9   1  197.21   22.41
   7   9   1  150.40   26.15
  -7   9  -1  161.83   34.83
  -7   9  -1  169.66   25.80
  -7  -9  -1  196.51   31.14
   7  -9   1  209.73   23.15
   7  -9   1  198.46   29.84
  -7  -9  -2  910.49   79.84
   7  -9   2  648.26   64.97
   7  -9   2  708.89   67.12
  -7   9  -2  705.85   69.01
   7  -9   2  843.87   61.08
  -7   9  -3   10.43   14.17
   7   9   3   10.63   10.13
  -7  -9  -3    8.08   11.88
   7  -9   3   12.28   11.18
  -7   9  -3   25.05   14.52
   7  -9   3   25.25   13.37
   7  -9   3    6.44    9.18
  -7  -9  -4  107.14   30.84
   7  10 -10 2354.73  154.99
   7  10  -9    8.48   10.03
   7  10  -9   15.07   10.68
   7  10  -8   18.56   10.83
   7  10  -8   24.80   11.78
  -7  10   8   27.20   12.72
   7 -10  -8   33.83   10.38
   7  10  -8   12.38    9.23
   7 -10  -7 1522.23  111.98
   7  10  -7 1346.28   83.78
  -7  10   7 1215.74  107.74
   7  10  -7 1389.89   92.32
   7 -10  -7 1471.48   89.12
   7 -10  -7 1219.28   99.60
  -7  10   7 1479.11  113.97
   7  10  -7 1278.56   98.95
   7  10  -7 1331.16   95.91
   7  10  -7 1312.44   83.78
   7 -10  -7 1465.64   94.21
   7  10  -6 1341.74   88.62
   7  10  -6 1407.26   87.83
  -7  10   6 1206.90  109.43
   7 -10  -6 1417.34   85.03
   7  10  -6 1318.53   88.72
  -7  10   6 1358.65  110.93
   7 -10  -6 1192.63   95.96
   7  10  -6 1258.85   95.41
   7 -10  -6 1429.71   94.56
   7  10  -5  319.57   30.99
   7  10  -5  317.32   22.16
   7  10  -5  315.22   31.54
  -7  10   5  243.02   42.77
  -7  10   5  342.22   46.51
   7  10  -5  326.60   29.09
   7 -10  -5  297.41   34.68
   7  10  -5  293.82   32.98
   7 -10  -5  328.70   34.78
   7  10  -4  196.56   23.25
   7  10  -4  205.29   25.55
   7  10  -4  181.04   14.27
   7  10  -4  206.84   20.41
   7 -10  -4  154.04   23.70
  -7  10   4  192.77   20.91
   7  10  -4  172.96   22.46
   7 -10  -4  194.96   25.95
  -7  10   4  206.99   35.58
   7  10  -3 2205.22  135.48
   7 -10  -3 2089.50  147.01
  -7  10   3 2115.15  157.69
   7  10  -3 2223.39  140.67
  -7  10   3 2283.67  166.22
   7 -10  -3 2076.93  137.23
   7  10  -3 2145.04  128.10
   7  10  -3 2007.61  131.54
   7 -10  -3 2253.93  141.02
   7 -10  -2   14.97    9.73
   7  10  -2   10.98    8.98
  -7  10   2   14.37   14.82
  -7  10   2   18.96   15.82
   7 -10  -2    6.14    5.89
  -7  10   2   14.77    6.24
   7  10  -2   21.01    7.09
   7 -10  -2    4.89    7.83
   7  10  -2    6.34    5.29
   7  10  -1   82.94   11.48
   7 -10  -1   97.01   21.41
   7  10  -1   77.95   10.43
   7  10  -1   75.45   17.57
  -7 -10   1   86.93   18.16
  -7  10   1   92.77   26.85
  -7  10   1   76.05   24.00
   7 -10  -1   68.66   14.17
  -7  10   1   73.95   13.72
   7  10  -1  101.10   13.47
   7 -10  -1   67.02   16.97
   7 -10   0   71.06   17.91
   7 -10   0   59.23   17.32
   7 -10   0   77.35   13.92
  -7  10   0   49.20   20.91
   7  10   0   56.34   15.62
  -7  10   0   66.32   23.15
  -7 -10   0   91.32   19.81
  -7  10   0   64.32   14.92
   7  10   0   83.38   13.17
   7 -10   0   66.92   17.27
   7  10   0   67.82    7.19
   7 -10   1 2159.06  137.08
   7  10   1 2065.10  148.16
  -7  10  -1 1922.78  143.57
  -7 -10  -1 2439.66  158.09
   7  10   1 2117.30  135.48
   7 -10   1 2620.10  139.77
   7 -10   1 2184.21  151.15
  -7  10  -1 2086.01  170.36
  -7  10  -2   49.60   22.31
   7 -10   2    3.99    7.54
  -7  10  -2   12.62   13.37
   7  10   2   23.15   11.83
  -7 -10  -2   17.32   14.17
   7 -10   2   10.68   10.18
  -7  10  -2   10.33    9.38
   7 -10   2   14.77    8.48
  -7  10  -3 1642.09  127.25
  -7  10  -3 1084.25  100.80
   7 -10   3 1158.75  101.05
  -7 -10  -3 1675.77  127.55
   7 -10   3 1289.44  104.74
  -7  10  -3 1376.67  111.93
   7 -10   3 1538.99   98.25
  -7 -10  -4  582.39   73.35
   7 -10   4  498.26   49.70
   7  11 -10  109.98   22.06
   7  11  -9 1575.42  107.64
   7  11  -9 1452.42  107.29
  -7  11   8  227.20   48.40
   7 -11  -8  210.53   23.60
  -7  11   8  156.29   30.04
   7  11  -8  166.62   28.14
   7  11  -8  163.38   25.25
   7  11  -7  259.98   23.35
   7 -11  -7  276.30   26.60
  -7  11   7  213.63   38.32
   7 -11  -7  256.59   34.53
  -7  11   7  276.75   41.42
   7  11  -7  253.55   33.48
   7  11  -7  288.68   32.78
   7  11  -7  261.98   23.40
   7 -11  -6    8.78   10.13
  -7  11   6    7.04   11.58
   7  11  -6   12.13    8.63
   7  11  -6   24.55    9.78
   7  11  -6   12.97    8.53
   7 -11  -6   17.71    7.29
   7  11  -6   24.85   10.33
  -7  11   6    7.93   13.12
   7 -11  -6    6.54    8.68
   7  11  -5 1589.99   98.30
   7  11  -5 1593.44  101.75
  -7  11   5 1402.72  125.10
  -7  11   5 1539.34  122.71
   7  11  -5 1557.26   97.96
   7 -11  -5 1404.01  105.34
  -7  11   5 1350.17  100.50
   7  11  -5 1464.34  103.29
   7 -11  -5 1628.87  105.74
   7  11  -4    5.24    6.54
   7  11  -4    7.04    7.54
   7 -11  -4    2.69    9.13
   7  11  -4    5.09    7.78
  -7  11   4    2.15   10.93
   7  11  -4   -0.55    5.29
   7 -11  -4    8.43    7.49
  -7  11   4    3.24    4.59
  -7  11   4    7.24   13.02
   7 -11  -4    6.54    9.28
   7  11  -3 1486.55   93.26
   7 -11  -3 1372.18  105.44
  -7  11   3 1389.49  117.67
   7  11  -3 1515.54   99.80
  -7  11   3 1576.42  126.65
   7 -11  -3 1306.36   95.26
   7  11  -3 1472.43   88.52
  -7  11   3 1190.29   88.57
   7  11  -3 1305.96   89.97
   7 -11  -3 1409.95   98.85
   7  11  -2   13.52    5.89
   7 -11  -2   -3.84   10.03
   7  11  -2    1.05    7.39
  -7  11   2   15.22   13.82
  -7  11   2    4.09   13.87
   7 -11  -2   10.43    7.73
  -7  11   2    5.24    5.24
   7  11  -2    9.93    6.24
   7 -11  -2    4.04    7.68
   7  11  -1  133.88   13.72
   7 -11  -1   48.45   15.87
   7  11  -1   82.79   18.56
   7  11  -1   63.57    9.78
  -7  11   1   74.10   24.95
  -7 -11   1  112.98   21.31
   7 -11  -1   98.65   16.42
  -7  11   1   92.82   27.05
  -7  11   1   57.44   13.77
   7  11  -1   64.12   11.83
   7 -11  -1   62.78   16.77
   7 -11   0  257.89   36.53
   7 -11   0  267.62   28.74
   7  11   0  264.97   34.73
  -7  11   0  262.23   48.05
   7 -11   0  267.82   35.58
  -7  11   0  392.52   53.54
  -7 -11   0  312.63   38.62
  -7  11   0  256.79   31.54
   7 -11   0  267.22   34.73
   7  11   0  250.25   26.00
   7  11   0  276.85   19.21
   7 -11   1 1726.42  109.03
   7  11   1 1617.39  119.61
  -7 -11  -1 1906.57  130.34
   7  11   1 1571.08  106.19
  -7  11  -1 1679.22  147.36
   7 -11   1 1591.74  120.71
  -7  11  -2  111.18   34.38
   7  11   2  102.40   22.51
  -7  11  -2  109.28   23.50
  -7 -11  -2  134.38   29.74
   7 -11   2  139.07   26.35
   7 -11   2  145.96   21.41
  -7  11  -3   83.48   27.05
  -7  11  -3   55.24   18.31
  -7 -11  -3   54.39   23.25
   7 -11   3   42.02   16.92
  -7  11  -3   31.84   16.12
   7 -11   3   46.16   14.72
  -7 -11  -4  982.15  103.20
   7  12  -9  639.33   56.74
   7  12  -9  606.95   56.59
  -7  12   8   11.28   17.32
   7  12  -8    3.84    8.73
   7  12  -8    2.74    8.58
   7 -12  -8    5.79    7.19
  -7  12   8    5.34   10.93
   7  12  -8   21.86   11.33
  -7  12   7   74.10   22.80
   7  12  -7   81.29   19.06
   7  12  -7  101.40   13.62
   7 -12  -7   94.76   14.87
   7  12  -7   91.52   17.47
  -7  12   7   61.63   22.36
   7 -12  -7   76.90   19.11
   7  12  -7  104.14   13.67
   7  12  -6  408.94   33.58
   7  12  -6  415.33   36.33
   7 -12  -6  467.32   35.63
  -7  12   6  370.02   55.14
   7  12  -6  432.64   38.37
  -7  12   6  405.54   53.44
   7 -12  -6  373.61   42.91
  -7  12   6  353.35   40.77
   7  12  -6  356.24   40.67
   7 -12  -6  486.53   43.86
   7  12  -5  102.25   15.57
   7 -12  -5  122.71   25.90
   7  12  -5  109.93   19.36
   7  12  -5  135.33   19.86
   7  12  -5  117.82   17.81
  -7  12   5   95.16   28.44
  -7  12   5  113.28   18.81
   7 -12  -5  120.86   21.51
  -7  12   5  114.57   27.74
   7 -12  -5  103.34   20.06
   7  12  -4   60.58   12.82
   7 -12  -4   42.91   16.52
   7  12  -4   56.14   13.02
   7  12  -4   62.88   15.37
  -7  12   4   66.32   23.90
   7  12  -4   75.70   13.17
  -7  12   4   79.99   24.90
   7 -12  -4   66.57   15.62
  -7  12   4   61.98   12.92
   7 -12  -4   83.63   18.16
   7  12  -3   60.13   12.23
   7  12  -3   43.41   10.73
   7 -12  -3   43.01   16.82
   7  12  -3   46.76   14.67
  -7  12   3   55.09   23.20
  -7  12   3   45.01   21.31
   7 -12  -3   37.58   12.13
   7  12  -3   50.85   10.83
  -7  12   3   36.38   10.43
   7 -12  -3   48.75   14.12
   7 -12  -2  388.68   45.66
  -7  12   2  405.59   57.04
   7  12  -2  420.66   42.96
   7 -12  -2  357.09   37.58
  -7  12   2  526.85   64.77
  -7  12   2  356.94   36.73
   7  12  -2  416.52   34.73
   7  12  -2  451.45   34.78
   7 -12  -2  414.58   42.86
   7  12  -1  131.89   15.32
   7 -12  -1  124.30   24.35
   7 -12  -1  116.02   19.16
   7  12  -1  140.72   24.40
  -7  12   1  127.60   33.93
  -7 -12   1  157.24   26.00
  -7  12   1  157.09   36.23
   7  12  -1  121.76   14.32
  -7  12   1  117.72   20.11
   7  12  -1  174.45   19.41
   7 -12  -1  135.53   23.35
   7 -12   0  229.39   34.23
   7  12   0  239.77   17.86
   7 -12   0  227.55   26.90
   7  12   0  236.28   32.93
  -7  12   0  279.15   50.80
  -7  12   0  327.65   49.75
  -7 -12   0  302.70   38.87
  -7  12   0  208.99   29.69
   7  12   0  241.67   25.35
   7 -12   0  250.75   33.58
   7 -12   1   95.21   16.57
   7  12   1   90.47   21.16
  -7 -12  -1  102.85   25.50
  -7  12  -2    3.24   15.67
   7  12   2   10.73   10.18
  -7  12  -2    2.25   10.03
  -7  12  -2   16.92   10.43
  -7 -12  -2    7.63   11.23
   7  12   2    3.84    7.73
   7 -12   2   -1.40    8.48
  -7 -12  -3   75.95   26.40
   7  13  -9   27.84   13.17
   7  13  -8  843.43   66.62
   7  13  -8  774.41   71.11
  -7  13   7   73.10   22.61
   7  13  -7   67.27   17.66
   7 -13  -7   99.15   15.32
   7  13  -7   94.46   18.06
  -7  13   7   46.46   21.71
   7 -13  -7   73.30   18.51
   7 -13  -6  206.09   34.78
   7  13  -6  205.74   23.95
   7 -13  -6  269.91   24.60
   7  13  -6  206.29   25.70
  -7  13   6  222.66   43.31
   7 -13  -6  154.44   26.90
   7  13  -6  181.99   27.40
  -7  13   6  175.80   35.53
   7 -13  -6  212.68   28.49
   7  13  -5  364.48   30.49
   7 -13  -5  322.71   43.56
   7  13  -5  376.55   36.28
  -7  13   5  463.28   55.89
  -7  13   5  381.69   57.44
   7  13  -5  377.75   34.83
   7 -13  -5  337.53   38.97
  -7  13   5  294.32   35.33
   7 -13  -5  396.26   40.27
   7  13  -5  302.80   35.68
   7  13  -4 1108.35   69.91
   7 -13  -4  951.46   84.38
  -7  13   4  982.70   95.06
   7  13  -4 1077.61   77.55
  -7  13   4 1134.00  107.34
   7 -13  -4 1049.72   78.49
   7  13  -4 1011.24   70.56
  -7  13   4  851.26   72.01
   7 -13  -4 1020.37   78.39
   7  13  -4  932.95   72.56
   7  13  -3   67.12   13.12
   7 -13  -3   47.21   17.32
   7  13  -3   49.20   12.08
   7  13  -3   75.45   16.62
  -7  13   3   60.83   24.35
  -7  13   3   84.68   26.80
   7 -13  -3   53.84   13.67
   7  13  -3   55.79   12.13
  -7  13   3   55.69   13.37
   7 -13  -3   59.28   16.72
   7  13  -2   67.17   12.03
   7  13  -2   65.97   12.82
   7 -13  -2   87.53   20.86
   7  13  -2   80.84   17.71
  -7  13   2   99.95   29.84
   7 -13  -2   61.73   14.82
  -7  13   2   77.25   26.90
  -7  13   2   71.16   15.47
   7  13  -2   70.71   13.87
   7 -13  -2   68.26   17.52
  -7  13   1 1836.80  152.00
   7 -13  -1 1726.87  125.70
   7  13  -1 1717.09  104.99
   7 -13  -1 1719.34  114.62
   7  13  -1 1730.96  121.61
  -7  13   1 2120.74  155.64
  -7 -13   1 1960.41  129.19
  -7  13   1 1486.70  115.22
   7  13  -1 1695.68  104.14
   7  13  -1 1703.97  109.48
   7 -13  -1 1735.80  121.61
   7 -13   0   97.76   22.41
   7  13   0   89.27    9.63
  -7  13   0   74.95   31.84
   7 -13   0   86.63   16.62
   7  13   0   75.70   18.71
   7  13   0  110.53   11.03
  -7  13   0  142.37   34.28
  -7 -13   0  120.36   25.15
   7  13   0   94.06   15.52
   7 -13   0   81.89   19.51
   7 -13   1   23.00   13.67
  -7  13  -1   35.78   24.75
   7 -13   1   24.50    9.38
   7  13   1   14.27   11.08
  -7 -13  -1   23.70   14.17
   7  13   1   22.85    9.18
  -7  13  -2  278.65   58.98
   7  13   2  198.71   31.99
  -7  13  -2  341.57   50.95
  -7 -13  -2  253.25   42.32
  -7  13  -2  174.45   31.29
   7 -13   2  230.39   34.28
   7  13   2  191.27   25.25
  -7 -13  -3 1365.44  122.91
   7  14  -8   64.17   17.32
  -7  14   7  183.49   35.08
   7 -14  -7  129.69   29.24
   7 -14  -7  187.18   22.36
   7  14  -7  179.04   24.80
  -7  14   7  161.48   38.92
  -7  14   7  159.48   28.09
   7  14  -7  156.19   26.65
   7 -14  -6  120.66   22.06
   7 -14  -6   80.34   24.10
   7  14  -6  112.18   21.16
   7  14  -6  114.47   17.76
   7 -14  -6  121.31   17.12
   7  14  -6  110.18   18.71
  -7  14   6  121.51   35.18
   7 -14  -6   90.07   20.71
  -7  14   6  138.48   31.19
   7  14  -5 1688.70  119.86
   7 -14  -5 1698.68  131.89
   7  14  -5 1922.78  109.23
   7  14  -5 1920.54  120.06
  -7  14   5 1861.06  143.91
  -7  14   5 2037.31  161.93
   7 -14  -5 1713.50  123.41
   7  14  -5 1780.57  116.42
  -7  14   5 1437.10  117.97
   7 -14  -5 1900.43  125.00
   7  14  -4   91.77   14.07
   7 -14  -4   79.19   22.41
   7  14  -4   74.40   15.37
   7  14  -4  100.35   18.91
  -7  14   4  105.94   32.09
   7  14  -4   76.10   14.77
  -7  14   4   93.41   27.60
   7 -14  -4   62.68   16.07
  -7  14   4   62.73   14.87
   7 -14  -4   53.89   16.42
   7  14  -3  273.66   27.00
   7 -14  -3  238.68   36.63
   7  14  -3  306.44   34.53
   7 -14  -3  256.79   31.34
  -7  14   3  356.44   56.09
  -7  14   3  275.15   48.25
   7  14  -3  298.21   29.34
  -7  14   3  237.73   30.39
   7 -14  -3  250.50   33.48
   7  14  -3  253.85   27.89
   7 -14  -2  757.45   70.01
  -7  14   2  770.62   87.03
   7  14  -2  776.86   55.54
   7  14  -2  810.09   66.62
   7 -14  -2  717.68   60.83
  -7  14   2  874.76   92.17
  -7  14   2  680.25   61.33
   7  14  -2  767.38   57.29
   7 -14  -2  821.72   67.77
   7  14  -2  717.78   54.19
   7 -14  -1  703.55   68.26
   7  14  -1  824.96   52.94
   7 -14  -1  680.95   59.23
   7  14  -1  723.86   65.17
  -7 -14   1  777.06   71.11
  -7  14   1  930.75   94.16
  -7  14   1  649.46   62.23
   7  14  -1  756.55   56.99
   7  14  -1  743.67   51.20
   7 -14  -1  743.42   66.32
  -7  14   1  789.73   91.57
   7 -14   0  290.97   41.02
   7 -14   0  341.42   35.73
   7  14   0  332.84   40.92
   7  14   0  370.51   25.90
  -7  14   0  490.78   63.97
  -7 -14   0  474.51   52.50
   7  14   0  340.92   33.93
   7 -14   0  358.19   42.27
  -7  14   0  443.02   69.31
   7 -14   1   32.64   14.97
   7 -14   1   41.82   16.32
  -7  14  -1   35.73   25.85
   7 -14   1   43.41   12.58
   7  14   1   18.46   11.33
  -7 -14  -1   41.02   17.22
  -7  14  -1   30.99   12.67
   7  14   1   23.50    9.88
  -7  14  -2  451.25   53.39
  -7 -14  -2  612.93   68.61
   7 -14   2  482.74   53.69
   7  14   2  461.98   43.71
  -7  14  -2  608.89   92.07
  -7 -14  -3   31.39   20.61
   7  15  -8 1029.36   78.09
   7  15  -8  905.85   78.14
   7  15  -7  506.64   46.66
  -7  15   7  486.04   71.86
   7  15  -7  443.17   48.85
   7  15  -6  274.31   33.43
   7 -15  -6  160.43   32.74
   7  15  -6  266.27   28.44
   7 -15  -6  248.81   26.25
   7  15  -6  227.25   28.54
   7 -15  -6  212.78   31.44
  -7  15   6  234.58   49.55
  -7  15   6  231.29   40.57
   7  15  -6  220.76   25.05
   7 -15  -6  255.69   33.08
   7 -15  -5  158.39   26.60
   7  15  -5  138.57   22.90
   7  15  -5  158.73   16.12
   7 -15  -5  147.06   30.49
   7  15  -5  177.50   24.70
   7 -15  -5  181.64   27.89
   7  15  -5  205.64   25.30
  -7  15   5  180.79   43.31
  -7  15   5  204.69   39.62
   7  15  -4  249.50   31.09
   7  15  -4  357.44   28.34
   7 -15  -4  300.10   41.37
  -7  15   4  328.30   51.50
   7  15  -4  295.66   34.98
   7 -15  -4  276.35   34.93
  -7  15   4  414.18   62.93
   7  15  -4  469.27   37.03
  -7  15   4  233.19   32.54
   7 -15  -4  279.84   36.08
   7  15  -3  885.69   57.69
   7  15  -3  735.89   58.73
   7  15  -3  814.98   60.18
   7 -15  -3  699.21   70.46
  -7  15   3  855.65   90.17
   7 -15  -3  757.85   64.67
  -7  15   3  882.65   96.26
   7  15  -3  787.54   60.18
  -7  15   3  638.48   62.43
   7 -15  -3  887.79   70.41
   7 -15  -2   45.26   15.92
   7  15  -2   58.28   12.58
   7  15  -2   61.03   12.18
   7  15  -2   68.16   18.11
  -7  15   2   75.80   29.34
   7 -15  -2   71.86   16.22
  -7  15   2   85.08   28.79
  -7  15   2   52.30   15.02
   7  15  -2   73.95   15.32
   7 -15  -2   54.69   17.47
   7  15  -1   36.68    8.48
   7 -15  -1   32.44   15.27
  -7  15   1   32.29   26.05
   7  15  -1   39.77   13.87
   7 -15  -1   35.43   12.23
   7  15  -1   42.47    9.38
  -7 -15   1   39.32   16.77
  -7  15   1   57.29   25.90
   7  15  -1   34.58   11.38
   7 -15  -1   27.45   13.22
   7 -15   0   48.00   16.82
  -7  15   0   46.71   26.10
   7 -15   0   36.08   12.03
   7  15   0   35.73   14.07
   7 -15   0   43.96   15.67
  -7 -15   0   44.46   17.12
  -7  15   0   63.62   26.05
   7  15   0   54.69   13.27
   7 -15   0   34.08   14.97
   7 -15   1   72.41   19.96
   7 -15   1   33.38   15.12
  -7  15  -1   50.30   30.94
   7 -15   1   21.11   10.23
   7  15   1   39.02   15.12
  -7 -15  -1   31.99   16.12
  -7  15  -1   27.05   13.62
   7  15   1   53.04   13.32
  -7 -15  -2  804.90   81.54
   7  15   2  589.98   53.04
  -7  15  -2  813.24  112.73
   7 -15   2  627.35   65.27
  -7 -15  -3  417.37   60.78
   7  15   3  300.15   34.98
   7  16  -8  171.21   26.90
   7  16  -7  483.59   52.70
   7  16  -7  606.80   52.60
  -7  16   7  550.86   80.99
   7  16  -6    6.94    7.93
   7 -16  -6   13.67   12.28
   7 -16  -6   29.19   15.47
   7  16  -6   -1.15    8.18
   7  16  -6    3.99    7.68
   7 -16  -6    6.44    6.69
   7  16  -6    9.28    9.98
  -7  16   6   35.58   22.70
   7 -16  -6    5.04    9.58
  -7  16   6   -1.30   10.38
  -7  16   6    2.05   11.13
   7 -16  -5 1207.50  107.19
   7  16  -5 1455.21   98.25
  -7  16   5 1433.75  122.86
   7 -16  -5 1230.61   99.60
  -7  16   5 1506.56  141.92
   7  16  -5 1364.69   95.66
   7 -16  -5 1478.12  104.44
   7  16  -4   23.45   10.83
   7  16  -4   35.78    8.78
   7 -16  -4   29.04   16.32
  -7  16   4   32.98   22.41
  -7  16   4   69.46   28.64
   7 -16  -4   38.47   13.87
   7  16  -4   34.23   12.38
   7 -16  -4   43.01   16.62
   7  16  -3  654.90   45.16
   7 -16  -3  584.24   60.73
   7  16  -3  552.50   47.85
  -7  16   3  549.41   74.20
   7 -16  -3  540.78   52.60
  -7  16   3  691.53   85.03
   7  16  -3  569.72   49.35
   7 -16  -3  580.15   56.24
   7  16  -2  255.74   26.70
   7 -16  -2  288.73   39.62
   7  16  -2  272.46   27.79
   7 -16  -2  267.47   32.54
  -7  16   2  297.96   54.54
  -7  16   2  368.42   59.43
   7  16  -2  289.72   31.04
   7 -16  -2  256.14   35.38
   7 -16  -1  605.65   62.53
   7 -16  -1  613.38   55.14
   7  16  -1  701.56   48.60
   7  16  -1  586.54   58.78
  -7 -16   1  730.10   70.26
  -7  16   1  852.61   91.37
   7  16  -1  644.77   53.19
   7 -16  -1  661.69   62.18
   7  16  -1  609.49   46.41
  -7  16   1  756.45   94.51
   7 -16   0  397.81   47.71
   7 -16   0  386.73   39.77
   7  16   0  359.14   43.86
   7 -16   0  399.41   46.86
  -7  16   0  562.48   71.31
  -7 -16   0  465.83   56.19
  -7  16   0  354.35   44.41
   7  16   0  375.26   37.63
   7 -16   0  395.96   46.31
  -7  16   0  476.10   77.30
  -7  16  -1   37.23   29.94
   7 -16   1   52.65   18.26
   7 -16   1   35.93   12.97
   7  16   1   22.01   12.62
  -7 -16  -1   71.46   23.75
  -7  16  -1   64.52   19.26
   7  16   1   67.17   14.62
  -7  16  -2  198.41   58.88
   7 -16   2   94.56   24.35
  -7 -16  -2  178.80   38.37
   7  16   2  132.14   21.61
   7  17  -7  317.62   40.72
   7  17  -7  378.80   40.37
  -7  17   7  381.79   69.36
   7 -17  -6  563.13   64.87
   7  17  -6  696.67   54.84
  -7  17   6  734.94   96.76
   7  17  -6  634.14   55.79
   7  17  -6  591.68   50.10
   7 -17  -5   18.61   14.02
   7 -17  -5    3.29   13.42
   7  17  -5   16.62   11.23
  -7  17   5    6.69   15.12
   7 -17  -5    9.63    9.63
  -7  17   5   36.23   20.01
  -7  17   5   11.53    9.23
   7 -17  -4   46.66   17.17
   7  17  -4   44.71   12.77
   7 -17  -4   35.98   16.77
  -7  17   4   71.26   28.74
   7 -17  -4   38.82   14.17
  -7  17   4   57.54   27.79
   7  17  -4   24.45   11.63
   7  17  -3  221.01   26.20
   7 -17  -3  170.36   31.59
   7 -17  -3  168.67   27.10
  -7  17   3  253.65   52.89
   7  17  -3  229.74   27.20
   7 -17  -3  209.13   31.44
  -7  17   2  594.72   79.14
   7 -17  -2  491.12   55.69
   7  17  -2  516.33   43.61
   7 -17  -2  480.60   48.80
  -7  17   2  674.41   83.18
   7  17  -2  553.55   47.85
   7 -17  -2  548.81   54.84
   7 -17  -1  499.06   55.04
   7 -17  -1  475.26   47.46
  -7 -17   1  681.60   66.32
  -7  17   1  708.84   83.23
  -7  17   1  438.93   51.40
   7  17  -1  483.69   45.26
   7 -17  -1  509.09   53.69
  -7  17   1  586.39   83.58
   7 -17   0  543.57   58.08
   7 -17   0  496.71   48.70
   7  17   0  490.33   53.84
   7 -17   0  537.23   57.24
  -7  17   0  643.67   79.99
  -7 -17   0  690.83   70.61
  -7  17   0  470.52   55.19
   7  17   0  545.02   48.25
   7 -17   0  580.90   58.08
  -7  17   0  644.72   93.31
  -7  17  -1   48.00   33.23
   7 -17   1   54.99   18.36
   7 -17   1   35.88   13.32
  -7 -17  -1   37.68   19.26
   7  17   1   30.49   11.68
   7 -17   2   15.22   13.97
  -7 -17  -2    4.69   17.47
   7  17   2   20.01   10.63
   7  18  -7  109.73   22.16
  -7  18   7  157.24   47.01
  -7  18   6  714.78   97.56
   7  18  -6  581.94   54.59
   7 -18  -5   37.58   16.52
   7  18  -5   15.07    9.08
   7  18  -5   37.28   13.92
   7 -18  -5   10.08   12.82
   7  18  -5   20.56   11.13
  -7  18   5   31.99   21.81
  -7  18   5   30.69   19.26
   7 -18  -4   54.29   18.56
   7  18  -4   33.78   12.38
   7 -18  -4   46.46   18.81
  -7  18   4   33.23   20.96
   7 -18  -4   28.49   12.62
  -7  18   4   36.98   25.00
   7  18  -4   61.58   15.37
  -7  18   4   40.47   14.67
  -7  18   3  755.00   88.87
   7 -18  -3  687.24   68.81
   7  18  -3  655.00   54.84
   7 -18  -3  644.62   60.48
   7  18  -3  739.98   58.83
  -7  18   3  598.86   62.68
   7 -18  -3  768.57   67.47
  -7  18   2  865.98  101.70
   7 -18  -2  790.98   76.15
   7  18  -2  873.92   62.83
   7 -18  -2  776.86   68.56
  -7  18   2 1121.97  112.18
  -7  18   2  745.27   73.80
   7  18  -2  890.68   67.62
   7 -18  -2  878.71   74.95
   7 -18  -1   56.34   19.31
  -7  18   1   71.86   33.58
   7 -18  -1   57.04   15.62
  -7 -18   1   81.29   24.00
  -7  18   1   78.84   30.39
  -7  18   1   61.13   19.01
   7  18  -1   59.93   15.12
   7 -18  -1   58.73   18.16
  -7  18   0   19.61   25.85
   7 -18   0   14.32   10.08
  -7 -18   0   44.21   21.11
   7  18   0   30.29   11.53
   7 -18   1  457.79   52.85
   7 -18   1  400.60   43.11
   7  18   1  421.26   42.86
  -7  18  -2   30.94   35.08
   7  18   2   15.02   10.23
  -7  19   7  122.96   43.46
   7  19  -6   16.57   12.03
   7  19  -6    3.34   10.18
  -7  19   6   23.75   25.20
   7  19  -5 1404.96  107.34
   7  19  -5 1567.84  109.98
   7  19  -5 1485.25  105.24
   7 -19  -5 1748.83  119.71
   7 -19  -4   73.01   21.11
   7 -19  -4   93.46   25.40
  -7  19   4  108.48   37.92
   7  19  -4   89.42   18.71
  -7  19   3  435.73   66.57
   7 -19  -3  373.46   48.65
   7  19  -3  445.02   40.52
   7 -19  -3  367.07   42.82
  -7  19   3  556.69   79.19
   7  19  -3  389.73   40.97
   7 -19  -3  406.04   48.15
   7 -19  -2   12.18   13.17
  -7  19   2    3.14   16.92
   7 -19  -2   16.67   10.73
   7  19  -2   10.93    9.03
  -7  19   2    9.48   20.16
   7  19  -2   10.58    8.83
   7 -19  -2   11.03   12.18
   7 -19  -1  321.16   44.11
   7 -19  -1  361.43   40.42
  -7  19   1  454.05   75.55
   7  19  -1  381.24   39.07
  -7  19   0  150.40   48.15
   7 -19   0   71.81   21.31
   7 -19   0  106.24   21.31
  -7 -19   0  112.78   30.39
   7  19   0   93.26   19.36
   7 -19   1 1097.67   98.06
   7 -19   1 1235.25   91.72
  -7 -19  -1 1664.20  127.30
   7  19   1 1102.51   87.98
  -7  19  -1 1558.06  164.17
   7  20  -6   60.78   18.26
  -7  20   6   86.73   37.97
   7  20  -5  366.47   40.27
   7  20  -5  374.16   41.07
  -7  20   5  413.08   76.05
   7  20  -5  347.06   37.48
   7 -20  -4  110.48   26.00
   7  20  -4   96.56   19.16
   7  20  -4   74.95   19.31
   7 -20  -3  673.76   72.36
   7  20  -3  812.44   62.83
   7  20  -3  839.53   67.02
   7 -20  -2  177.45   32.88
   7  20  -2  223.81   29.24
   7 -20  -1    7.63   12.97
   7 -20   0   72.71   21.56
  -7 -20   0  123.80   30.99
   7  20   0   72.91   17.81
   7  21  -5   51.35   16.77
   7  21  -5   42.32   15.77
   7  21  -4   54.14   15.87
   7  21  -4   70.26   16.97
   7  21  -4   52.50   16.97
   7  21  -3   -1.10    8.68
   7 -21  -2    3.14   11.63
   7  21  -2    9.73   10.08
   7 -21  -1  160.63   30.69
   7  21  -1  159.13   25.95
   7  22  -4  164.47   25.70
   7  22  -4  185.53   27.20
   7  22  -3 1162.59   89.62
   7  22  -2  429.20   45.81
   8   0  -9 1063.54   87.58
   8   0  -8   13.47   12.18
   8   0  -8   10.63    9.63
   8   0  -8   12.53    5.64
   8   0  -7   57.93   18.01
   8   0  -7   60.63   16.17
   8   0  -7   52.05    5.59
   8   0  -7   49.45    9.83
   8   0  -7   60.93    9.23
   8   0  -6  151.80   23.20
   8   0  -6  151.55   25.60
   8   0  -6  171.91   19.96
   8   0  -6  171.81   16.07
   8   0  -5 1604.51  108.63
   8   0  -5 1415.89   96.51
   8   0  -5 1461.55  100.20
   8   0  -4  136.28   23.05
   8   0  -4  131.74   20.11
   8   0  -4  140.82   19.61
   8   0  -3 1070.03   83.48
   8   0  -3 1146.07   80.84
   8   0  -3 1055.40   74.10
   8   0  -2   65.27   14.57
   8   0  -2   36.93   13.02
   8   0  -2   45.76   13.12
   8   0  -2   80.44   12.62
   8   0  -1 1249.42   79.09
   8   0  -1 1129.36   90.52
   8   0  -1 1229.91   82.59
   8   0  -1 1375.52   91.52
   8   0   0  159.68   14.52
  -8   0   0  109.73   11.68
   8   0   0  140.37   23.75
   8   0   0  148.90   22.61
   8   0   0  137.38   19.41
   8   0   1 1871.53  126.55
   8   0   1 1796.73  129.99
  -8   0  -1 1924.38  125.35
   8   0   1 1875.18  121.71
   8   0   2 1258.60   89.82
   8   0   3  795.57   65.32
   8  -1  -9  250.75   36.13
   8   1  -9  327.35   40.52
   8  -1  -8   12.72   13.72
   8   1  -8   26.00   13.82
   8  -1  -8   17.71   11.78
   8   1  -8   22.61   11.83
   8   1  -8   21.41    7.24
   8   1  -8   27.05    7.68
   8  -1  -7  279.59   33.93
   8  -1  -7  342.12   39.77
   8   1  -7  333.84   38.07
   8   1  -7  291.12   34.58
   8  -1  -7  222.51   17.17
   8   1  -7  312.58   19.51
   8   1  -7  320.76   25.45
   8  -1  -7  314.87   26.50
   8  -1  -7  318.07   22.01
   8   1  -7  304.50   24.65
   8   1  -6  309.69   34.88
   8   1  -6  330.14   38.52
   8  -1  -6  328.70   39.57
   8   1  -6  334.74   30.04
   8  -1  -6  353.70   31.44
   8  -1  -6  357.14   24.65
   8   1  -6  351.85   27.50
   8  -1  -6  278.15   34.03
   8   1  -5  770.62   64.32
   8   1  -5  925.81   72.76
   8  -1  -5  931.80   74.10
   8   1  -5  878.11   63.67
   8  -1  -5  886.39   63.87
   8  -1  -5  905.55   54.74
   8  -1  -5  802.11   65.42
   8   1  -4  274.85   33.03
   8  -1  -4  238.68   31.74
   8   1  -4  253.55   28.49
   8  -1  -4  246.41   28.24
   8  -1  -4  228.65   26.45
   8   1  -4  215.32   25.50
   8   1  -3  192.67   27.25
   8  -1  -3  179.49   27.25
   8   1  -3  192.42   25.75
   8  -1  -3  196.51   25.55
   8  -1  -3  166.97   21.21
   8   1  -3  204.84   22.36
   8   1  -2  547.46   47.01
   8  -1  -2  566.82   48.35
   8   1  -2  523.11   48.15
   8  -1  -2  523.16   48.25
   8  -1  -2  507.99   40.62
   8   1  -2  501.01   39.77
   8  -1  -2  502.90   39.22
   8  -1  -2  501.75   50.50
   8  -1  -1 1182.10   78.94
   8   1  -1 1245.83   92.27
   8   1  -1 1288.04   78.74
   8  -1  -1 1226.57   92.12
   8   1  -1 1160.80   82.34
   8  -1  -1 1259.05   82.09
   8   1  -1 1297.97   89.42
   8  -1  -1 1333.80   91.62
   8   1   0   73.70   16.22
   8  -1   0   84.88   11.23
   8   1   0   89.92   10.23
   8  -1   0   95.01   18.96
  -8  -1   0   63.47    9.78
   8   1   0   82.09   18.76
   8  -1   0  103.74   20.81
   8   1   0  107.94   17.02
   8   1   1  627.06   53.24
   8   1   1  538.43   54.64
   8  -1   1  567.42   52.60
   8  -1   1  598.16   56.54
  -8  -1  -1  582.09   51.60
  -8   1  -1  584.29   51.35
   8   1   1  566.48   48.90
   8  -1   1  571.02   48.30
   8   1   2  206.74   27.25
   8   1   3  372.01   39.62
   8  -1   3  358.79   38.77
   8  -2  -9  268.07   36.78
   8   2  -9  253.85   35.78
   8  -2  -8 1825.88  133.73
   8   2  -8 1747.08  128.94
   8   2  -8 1840.15  131.29
   8   2  -8 1883.96  113.67
   8   2  -8 2053.52  114.37
   8   2  -8 1892.74  115.97
   8  -2  -8 1710.90  129.54
   8  -2  -7  100.95   23.20
   8   2  -7  133.39   23.70
   8  -2  -7   94.46   19.66
   8   2  -7   83.18   18.96
   8   2  -7  110.53   10.23
   8   2  -7   88.13   12.97
   8  -2  -7  106.09   14.87
   8  -2  -7  107.64    9.23
   8   2  -7   99.05   13.72
   8   2  -6  103.00   20.11
   8  -2  -6  106.29   22.41
   8   2  -6   98.35   18.46
   8   2  -6  105.34   15.07
   8  -2  -6  112.33   16.37
   8  -2  -6  105.69    8.73
   8   2  -6  105.44   13.97
   8  -2  -6  126.75   20.91
   8   2  -5 1192.48   88.32
   8   2  -5 1285.40   94.81
   8  -2  -5 1301.62   98.01
   8   2  -5 1332.31   87.43
   8  -2  -5 1328.81   87.88
   8  -2  -5 1297.67   74.90
   8  -2  -5 1253.46   89.97
   8   2  -4 1140.09   82.99
   8  -2  -4 1085.35   83.98
   8   2  -4 1063.64   76.35
   8  -2  -4 1001.11   76.05
   8  -2  -4 1090.88   64.62
   8  -2  -4 1039.19   75.25
   8   2  -4  974.91   73.50
   8   2  -3    8.28    6.84
   8   2  -3   27.55   10.68
   8  -2  -3   20.11   10.43
  -8   2   3    7.63    9.48
   8   2  -3    0.85    6.59
   8   2  -3    6.74    7.44
   8  -2  -3    9.63    8.83
   8  -2  -3    8.58    5.24
   8  -2  -3   34.48    9.93
   8  -2  -2  137.48   24.05
   8   2  -2  142.17   20.61
   8   2  -2  138.43   22.31
   8  -2  -2  175.10   24.00
   8  -2  -2  150.10   22.90
   8  -2  -2  138.57   17.76
   8   2  -2  144.56   17.22
   8  -2  -2  138.53   16.22
  -8   2   1 1156.01   93.61
   8  -2  -1 1411.60   97.76
   8  -2  -1 1318.23   85.28
   8   2  -1 1293.78   97.06
   8  -2  -1 1276.72   96.86
   8   2  -1 1351.27   83.28
   8   2  -1 1438.34   94.26
   8  -2  -1 1412.80   87.38
   8  -2   0   21.16    6.74
   8   2   0   25.45    5.44
  -8  -2   0   17.57    5.99
   8   2   0   27.00   11.88
   8  -2   0   27.25   11.83
   8   2   0   50.60   13.12
   8  -2   0   24.80    9.58
   8   2   0   21.21   10.18
   8  -2   1   89.12   19.36
   8  -2   1  108.68   11.63
   8   2   1   76.95   17.96
  -8  -2  -1   93.26   19.61
   8  -2   1  101.10   20.91
  -8   2  -1  102.55   18.46
   8   2   1  118.07   18.81
   8   2   2  134.63   21.56
   8   2   3  181.84   26.40
   8  -3  -9   20.06   12.08
   8   3  -9   13.32   10.88
   8   3  -8  245.21   32.04
   8   3  -8  202.95   30.24
   8  -3  -8  183.44   31.29
   8   3  -8  252.85   22.31
   8   3  -8  189.82   21.96
   8  -3  -8  197.16   30.14
   8  -3  -7 2423.14  148.26
   8   3  -7 2345.64  141.02
   8   3  -7 2300.18  140.47
   8   3  -7 2520.85  119.86
   8   3  -7 2620.30  119.66
   8   3  -7 2518.00  124.15
   8  -3  -7 2492.30  128.25
   8   3  -7 2334.47  126.70
   8  -3  -7 2443.50  142.42
   8   3  -6  222.71   30.34
   8  -3  -6  250.25   34.28
   8   3  -6  264.23   30.39
   8   3  -6  229.74   23.55
   8  -3  -6  230.04   24.80
   8  -3  -6  217.42   28.64
   8   3  -5  389.08   41.12
   8  -3  -5  387.13   43.46
   8   3  -5  362.78   36.38
  -8   3   5  374.01   44.61
   8   3  -5  401.55   35.88
   8  -3  -5  399.51   36.53
   8  -3  -5  363.63   37.33
  -8   3   4  365.18   44.96
   8   3  -4  330.59   32.78
   8   3  -4  356.14   38.47
   8  -3  -4  380.30   41.62
  -8   3   4  358.74   46.46
   8   3  -4  351.30   35.23
   8  -3  -4  379.80   36.23
   8  -3  -4  341.27   34.68
   8   3  -3 2940.06  190.57
   8  -3  -3 3128.74  195.86
  -8   3   3 2626.59  202.55
   8   3  -3 3409.03  186.33
   8   3  -3 3060.32  188.53
   8  -3  -3 2994.41  188.18
   8  -3  -3 2837.42  182.34
   8  -3  -3 3243.31  174.20
   8   3  -3 2836.32  180.24
  -8   3   3 2964.56  198.81
   8  -3  -2  109.08   21.21
  -8   3   2  102.60   26.00
   8   3  -2  100.85   18.81
   8  -3  -2  101.75   15.17
   8  -3  -2   76.15   17.47
   8   3  -2  102.45   14.02
   8  -3  -2   94.61   12.72
   8   3  -2  101.60   16.87
   8  -3  -2  111.58   19.51
   8  -3  -1  685.89   57.29
  -8   3   1  663.28   70.66
   8  -3  -1  614.88   46.21
   8   3  -1  606.25   55.84
   8  -3  -1  622.61   56.34
   8   3  -1  623.11   43.26
   8   3  -1  620.17   51.25
   8  -3  -1  607.29   46.01
   8  -3   0 1108.40   70.51
   8   3   0 1070.57   64.02
   8   3   0 1078.31   78.34
   8   3   0 1105.21   85.38
  -8  -3   0 1042.78   72.56
   8  -3   0 1079.61   85.08
   8  -3   0 1196.92   85.48
   8  -3   0 1155.31   75.25
  -8   3   0  965.28   78.39
   8  -3   1  893.23   54.14
   8   3   1  804.20   70.56
  -8  -3  -1  851.86   69.31
   8  -3   1  747.17   69.31
   8  -3   1  886.44   70.51
  -8   3  -1  905.35   67.42
   8   3   1  831.25   64.22
   8  -3   1  868.68   62.68
  -8   3  -1  638.73   57.39
   8  -3   2  190.52   28.99
   8   3   2  175.85   25.70
   8  -3   2  212.38   26.20
   8   3   3  666.38   58.78
   8  -3   3  676.61   57.49
   8  -3   4  376.80   41.37
   8  -4  -9  115.52   23.80
   8   4  -9   85.88   21.16
   8  -4  -8   65.12   17.62
   8  -4  -8   29.44   16.02
   8   4  -8   42.32   15.52
   8   4  -8   59.63   11.23
   8   4  -8   43.61   14.82
   8   4  -8   42.86   10.58
   8  -4  -7 1792.74  131.29
   8   4  -7 2002.57  126.70
   8   4  -7 1776.07  124.60
   8  -4  -7 1682.71  102.50
   8   4  -7 1945.94  110.43
   8   4  -7 2067.70  108.48
   8  -4  -7 1968.59  115.22
   8   4  -7 1862.40  114.92
   8  -4  -7 1791.64  125.90
   8  -4  -6   28.24   11.63
   8   4  -6    7.93   10.13
   8  -4  -6    1.30    9.98
  -8   4   6    6.14    8.33
   8   4  -6    6.49    5.99
   8  -4  -6    6.44    7.19
   8  -4  -5   39.97   12.38
   8   4  -5   71.36   16.62
   8  -4  -5  135.93   23.65
  -8   4   5  149.00   28.09
  -8   4   5   45.01   16.27
   8   4  -5   59.58   13.92
   8   4  -5   48.90   12.23
   8  -4  -5   29.29   11.88
   8   4  -4  103.00   16.42
   8   4  -4   97.01   19.31
   8  -4  -4  110.73   21.71
  -8   4   4   73.25   21.46
  -8   4   4   76.75   22.16
   8   4  -4  110.13   18.26
   8  -4  -4   98.11   18.41
   8  -4  -4   99.50   17.07
   8   4  -3  566.72   51.55
   8  -4  -3  604.85   55.84
   8   4  -3  606.99   47.06
  -8   4   3  574.56   64.22
   8   4  -3  564.53   50.20
   8  -4  -3  559.69   49.95
   8  -4  -3  558.19   46.56
  -8   4   3  532.24   57.79
   8  -4  -3  591.97   37.23
   8   4  -3  520.77   43.66
   8  -4  -2   91.72   20.06
   8  -4  -2  110.18   20.16
  -8   4   2  108.14   27.15
   8  -4  -2  109.03   16.17
   8   4  -2  113.57   20.41
   8  -4  -2  119.21   20.76
   8   4  -2  112.63   16.97
   8   4  -2  106.64   14.27
   8  -4  -2   97.11   12.38
   8  -4  -1  278.90   32.78
  -8   4   1  199.55   37.43
   8  -4  -1  204.69   22.61
   8   4  -1  216.37   29.99
   8   4  -1  240.57   26.50
   8  -4  -1  198.46   28.94
   8   4  -1  228.90   20.16
   8  -4  -1  248.21   23.35
  -8   4   0   35.88   12.33
   8   4   0   39.82    4.84
  -8   4   0   48.00   19.61
   8  -4   0   44.76    9.68
  -8  -4   0   29.54    9.23
   8   4   0   39.42   13.37
  -8   4   0   23.30    5.04
   8  -4   0   49.80   14.47
   8  -4   0   46.36   15.02
   8  -4   0   35.63   10.48
   8  -4   1  110.58   13.37
  -8   4  -1   86.73   16.47
   8  -4   1  104.94   21.41
  -8   4  -1   88.17   15.97
   8   4   1   86.43   19.86
  -8  -4  -1  106.94   21.31
   8  -4   1   87.93   19.91
  -8   4  -1  101.65   18.71
   8  -4   1  107.44   16.97
   8   4   1   93.66   18.26
   8  -4   2    7.19    9.58
   8   4   2    7.68    8.98
   8  -4   2    4.99    8.13
   8   4   3  340.47   39.17
   8  -4   3  376.85   38.87
   8  -4   4   16.02   11.93
   8   5  -9  496.36   54.59
   8   5  -9  604.75   47.56
   8  -5  -8    7.39    9.38
   8  -5  -8    5.79   12.58
   8   5  -8    7.09    8.33
   8   5  -8   23.15    8.93
   8  -5  -7   27.65   13.12
   8  -5  -7   27.65   15.82
   8   5  -7   36.68   14.17
  -8   5   7   46.71   14.27
   8  -5  -7   21.26    4.09
   8   5  -7   20.46    6.84
   8   5  -7   26.10    7.19
   8   5  -7   14.62   10.13
   8   5  -7   37.48    7.44
   8  -5  -7   14.07    8.83
   8   5  -7   23.50    8.88
   8   5  -6  150.60   23.65
   8  -5  -6  159.78   27.84
  -8   5   6  152.60   30.49
   8   5  -6  147.41   22.66
  -8   5   6  135.58   26.05
   8   5  -6  157.99   18.96
   8   5  -6  150.05   11.93
   8  -5  -6  172.51   21.41
   8  -5  -6  162.93   24.45
   8   5  -5  618.17   54.29
   8  -5  -5  637.04   60.08
   8   5  -5  618.57   51.65
  -8   5   5  597.31   63.52
   8   5  -5  649.91   50.10
   8  -5  -5  602.95   50.40
   8  -5  -5  602.60   52.75
  -8   5   5  630.65   65.72
   8   5  -4 1316.74   94.56
   8  -5  -4 1373.47  101.00
   8   5  -4 1239.59   88.03
  -8   5   4 1250.47  108.73
   8   5  -4 1282.10   91.27
   8   5  -4 1477.17   88.47
   8  -5  -4 1388.34   93.17
   8  -5  -4 1242.13   89.97
  -8   5   4 1219.68  104.49
  -8   5   3   25.45   14.52
   8   5  -3   38.12   12.58
   8  -5  -3   45.96   15.22
   8   5  -3   45.66   10.78
   8   5  -3   28.39    9.03
  -8   5   3   46.61   18.31
   8   5  -3   33.58   11.48
   8  -5  -3   20.66   10.73
   8  -5  -3   26.65   10.03
  -8   5   2   11.43   10.33
   8   5  -2    7.34    4.99
   8  -5  -2   24.25   10.93
  -8   5   2    1.95    9.93
   8   5  -2    5.74    6.14
   8   5  -2   20.01    9.78
   8  -5  -2    7.83    6.29
   8  -5  -2    4.89    7.78
   8  -5  -2    4.59    4.54
  -8   5   1   18.06   14.92
   8   5  -1   27.25   11.63
   8  -5  -1    9.28    7.73
   8   5  -1   21.86    5.99
   8   5  -1   14.62    7.98
   8  -5  -1   19.41   11.38
   8  -5  -1   18.51    7.63
   8  -5   0 1433.95   89.32
  -8   5   0 1626.87  125.85
   8   5   0 1361.20  102.75
  -8  -5   0 1351.22   94.61
   8  -5   0 1496.48  105.04
  -8   5   0 1225.17   83.83
   8  -5   0 1541.54   92.32
   8  -5   0 1546.38  105.34
   8  -5   1  665.03   45.51
  -8   5  -1  774.81   77.95
   8   5   1  596.67   58.88
  -8   5  -1  469.57   48.15
  -8  -5  -1  700.51   60.93
   8  -5   1  635.14   59.88
  -8   5  -1  504.60   52.70
  -8   5  -1  701.51   57.24
   8  -5   1  691.28   60.78
   8  -5   1  693.72   51.85
   8   5   2  229.79   34.18
   8  -5   2  296.26   36.98
   8   5   2  245.21   31.79
   8  -5   2  316.32   32.54
   8   5   3  183.93   27.55
   8  -5   3  169.26   25.10
   8  -5   4    2.15   10.33
   8   6  -9  443.27   40.32
   8  -6  -8   10.03    9.28
   8  -6  -8    4.49   11.38
   8   6  -8    8.28    8.78
   8   6  -8    8.53    7.14
   8  -6  -7  114.17   21.31
   8  -6  -7   95.16   23.80
   8   6  -7   92.92   19.06
  -8   6   7  114.07   27.25
  -8   6   7   86.13   19.41
   8  -6  -7   97.96    9.58
   8   6  -7   96.91   12.97
   8   6  -7  129.44   14.02
   8   6  -7   83.78   18.46
   8  -6  -7  104.29   16.97
   8   6  -7   91.97   15.72
   8  -6  -6   55.59   15.07
   8   6  -6   54.74   15.07
   8  -6  -6   44.41   17.07
  -8   6   6   46.21   17.96
  -8   6   6   50.00   17.02
   8   6  -6   49.75   11.03
   8   6  -6   60.28    7.49
   8   6  -6   34.93   11.53
   8  -6  -6   64.67   13.97
   8   6  -5  707.00   58.28
   8  -6  -5  776.21   67.12
   8   6  -5  627.45   54.29
  -8   6   5  757.05   73.10
   8   6  -5  723.91   54.44
   8  -6  -5  715.63   55.84
   8  -6  -5  631.25   56.34
  -8   6   5  642.08   68.56
  -8   6   4   19.51   14.77
   8   6  -4   57.59   14.92
   8  -6  -4   38.87   14.47
   8   6  -4   40.07    9.83
  -8   6   4   36.83   17.57
   8   6  -4   28.79   11.53
   8   6  -4   45.61   11.08
   8  -6  -4   34.18   12.53
   8  -6  -4   41.77   11.73
   8   6  -3  566.72   50.95
   8  -6  -3  614.53   57.59
   8   6  -3  545.82   44.16
  -8   6   3  670.37   70.51
   8   6  -3  586.04   51.85
   8  -6  -3  514.23   46.76
   8  -6  -3  646.22   53.49
  -8   6   3  532.89   60.23
   8   6  -3  601.46   44.86
  -8   6   2  181.54   33.48
  -8   6   2  217.87   40.32
   8   6  -2  243.27   30.49
   8  -6  -2  242.42   26.30
   8   6  -2  232.54   24.60
   8  -6  -2  222.21   29.74
   8   6  -2  290.97   24.00
  -8   6   1 1539.94  123.21
   8  -6  -1 1422.98  100.80
   8  -6  -1 1269.38   87.98
   8   6  -1 1245.73   97.96
  -8   6   1 1165.49  103.74
   8  -6  -1 1308.65   98.50
   8   6  -1 1364.34   81.84
   8  -6  -1 1455.56   85.83
   8  -6   0 1024.17   71.11
  -8   6   0 1329.66  109.23
   8   6   0 1099.52   85.68
  -8  -6   0 1041.73   78.49
   8  -6   0 1038.74   83.78
  -8   6   0  952.11   69.01
   8  -6   0 1195.08   73.90
   8  -6   0 1107.95   85.78
   8  -6   1  536.73   41.77
  -8   6  -1  618.07   71.06
   8   6   1  520.27   54.24
  -8  -6  -1  573.36   56.64
   8  -6   1  550.21   54.89
   8  -6   1  562.28   55.64
   8  -6   1  569.27   46.51
   8   6   2  641.88   63.57
   8  -6   2  691.58   64.07
   8   6   2  641.13   58.63
   8  -6   2  782.00   58.73
   8   6   3  710.84   64.72
   8  -6   3  833.30   65.17
   8   7  -9  823.17   63.42
   8  -7  -8    6.34    9.43
   8  -7  -8    6.14   12.28
   8   7  -8   14.62   10.78
   8   7  -8   12.92    8.28
   8  -7  -7  188.03   32.14
   8   7  -7  205.94   27.05
  -8   7   7  215.22   37.73
  -8   7   7  180.49   30.24
   8   7  -7  165.97   26.55
   8   7  -7  239.32   21.66
   8   7  -7  214.97   20.21
   8   7  -7  233.74   21.26
   8  -7  -7  196.76   29.24
   8  -7  -7  219.36   25.05
   8   7  -7  182.94   23.80
   8   7  -6  181.79   24.95
  -8   7   6  162.88   32.69
   8  -7  -6  143.86   27.60
  -8   7   6  139.52   28.44
   8   7  -6  162.08   23.75
   8   7  -6  172.41   20.11
   8   7  -6  174.75   15.87
   8   7  -6  172.96   15.82
   8  -7  -6  148.46   24.05
   8  -7  -6  152.50   21.96
   8   7  -5  989.69   73.50
   8  -7  -5  965.13   81.54
  -8   7   5  887.94   87.43
   8   7  -5  912.49   70.41
   8   7  -5 1021.82   70.61
   8  -7  -5  930.85   73.01
   8  -7  -5  987.94   71.96
  -8   7   5  981.45   88.97
  -8   7   4   25.65   15.42
   8   7  -4   31.09   11.58
   8  -7  -4   18.01   10.58
   8   7  -4   19.81    7.19
   8   7  -4   26.95   10.28
   8   7  -4   17.12    8.08
   8  -7  -4   20.11   10.68
   8  -7  -4   24.30   10.43
   8   7  -3 1175.47   86.28
   8   7  -3 1149.97   78.54
  -8   7   3 1248.52  109.38
   8   7  -3 1277.61   88.47
   8  -7  -3 1142.38   82.84
  -8   7   3 1068.98   98.65
   8  -7  -3 1203.31   87.43
   8   7  -3 1200.77   77.00
   8   7  -2   30.54    7.54
  -8   7   2   31.89   17.76
   8   7  -2   30.99   11.03
   8  -7  -2   22.61    8.78
   8  -7  -2   17.57   11.03
   8   7  -2   16.02    7.24
  -8   7   2   27.35   14.87
  -8   7   1  696.67   75.95
   8  -7  -1  596.72   47.90
   8   7  -1  593.32   56.14
   8  -7  -1  643.27   58.13
  -8   7   1  501.40   60.93
   8  -7  -1  548.91   54.54
   8   7  -1  610.64   41.02
   8  -7  -1  669.02   44.36
   8  -7   0   96.16   20.91
   8  -7   0   77.60   13.72
  -8   7   0   97.66   29.34
   8   7   0  104.59   21.36
  -8  -7   0   76.85   17.47
  -8   7   0   80.44   13.87
   8  -7   0   79.09   18.96
   8  -7   0   90.42   14.37
   8  -7   1  587.78   44.56
  -8   7  -1  691.23   75.95
   8   7   1  496.86   54.44
  -8  -7  -1  584.14   59.68
   8  -7   1  554.45   55.94
   8  -7   1  575.41   57.29
   8  -7   1  627.60   48.80
   8   7   2  125.50   25.20
   8  -7   2  163.03   22.85
   8   7   2  147.31   24.45
   8  -7   2  163.38   28.14
   8  -7   3   46.81   14.67
   8  -7   4   34.48   14.87
   8   8  -9   73.60   15.77
  -8   8   8 1089.24   96.26
   8  -8  -8 1057.80   90.32
   8   8  -8 1009.30   83.28
   8  -8  -8 1033.05   84.68
   8   8  -8  973.77   74.35
   8  -8  -7  278.15   40.47
   8   8  -7  327.85   34.48
  -8   8   7  281.84   40.42
   8   8  -7  340.62   29.09
   8   8  -7  324.31   37.82
   8   8  -7  324.81   27.20
   8  -8  -7  305.44   37.68
   8  -8  -7  345.21   33.48
   8   8  -7  304.94   32.64
  -8   8   7  366.62   49.40
  -8   8   6   81.99   24.05
   8   8  -6   92.57   17.91
   8  -8  -6   82.39   21.01
  -8   8   6   70.16   21.81
   8   8  -6  101.00   12.23
   8   8  -6   77.60   13.72
   8   8  -6   81.74   17.07
   8  -8  -6   76.05   17.37
   8  -8  -6   83.04   16.52
   8   8  -5  155.84   22.46
  -8   8   5  124.05   28.84
   8  -8  -5  145.66   27.25
   8   8  -5  163.43   21.31
   8   8  -5  143.12   21.21
  -8   8   5  151.45   32.69
   8   8  -5  147.66   16.32
   8   8  -5  151.95   13.97
   8  -8  -5  133.24   21.81
   8  -8  -5  161.58   23.30
   8   8  -4  335.98   35.28
   8   8  -4  294.86   31.19
   8   8  -4  374.71   36.68
   8  -8  -4  303.55   33.73
  -8   8   4  343.67   48.45
   8  -8  -4  389.88   37.82
   8   8  -4  332.04   27.45
   8   8  -3 1431.11   97.06
   8   8  -3 1328.41   88.72
  -8   8   3 1452.87  122.91
   8   8  -3 1472.53   99.65
   8  -8  -3 1323.52   93.81
  -8   8   3 1299.12  114.17
   8   8  -3 1342.14   85.23
   8  -8  -3 1377.37   98.01
   8   8  -2  593.77   43.51
  -8   8   2  706.10   76.85
   8   8  -2  591.97   54.89
   8  -8  -2  579.95   48.85
  -8   8   2  532.69   64.07
   8  -8  -2  692.67   57.59
   8  -8  -1  150.20   27.74
   8  -8  -1  172.91   21.81
   8   8  -1  191.02   28.64
  -8   8   1  192.37   39.02
   8  -8  -1  201.90   29.39
   8  -8  -1  190.32   28.54
  -8   8   1  145.76   31.14
   8   8  -1  183.24   16.62
   8  -8  -1  201.70   18.71
   8  -8   0  601.01   57.44
   8  -8   0  516.97   44.11
  -8   8   0  674.41   75.45
  -8   8   0  514.38   62.03
   8   8   0  561.83   55.39
  -8  -8   0  574.11   54.34
   8  -8   0  561.93   55.09
  -8   8   0  537.48   45.76
   8  -8   0  639.58   45.21
   8  -8   1  253.90   21.86
  -8   8  -1  278.35   45.51
   8   8   1  233.24   30.99
  -8  -8  -1  273.71   35.93
   8  -8   1  251.50   31.89
   8  -8   1  234.43   31.24
   8  -8   1  271.31   24.70
   8  -8   2  841.58   74.85
   8  -8   3   17.17   10.93
   8   9  -9    5.44    7.98
   8  -9  -8    8.08   13.22
  -8   9   8   -3.84   12.18
   8   9  -8    6.29    8.83
   8  -9  -8   11.68   11.03
   8   9  -8    5.14    7.88
   8  -9  -7   62.48   15.82
  -8   9   7   57.24   21.51
   8  -9  -7   49.15   18.76
   8   9  -7   50.50   14.32
  -8   9   7   51.35   19.16
   8   9  -7   69.71   12.58
   8  -9  -7   62.38   17.52
   8   9  -7   56.04   16.27
  -8   9   6   26.40   16.42
   8   9  -6   23.45   11.03
   8  -9  -6   16.07   11.73
  -8   9   6   28.79   16.07
   8   9  -6   27.99    9.13
   8   9  -6   21.41    7.73
   8  -9  -6   25.25   10.68
   8  -9  -6   21.36   10.98
   8   9  -6   23.60   11.03
  -8   9   5   35.88   17.96
   8   9  -5   44.31   12.82
   8  -9  -5   26.60   14.22
   8   9  -5   32.78    6.99
  -8   9   5   31.49   16.47
   8   9  -5   44.31   12.18
   8   9  -5   36.48    7.39
   8  -9  -5   36.83   11.68
   8  -9  -5   31.14   12.28
   8   9  -5   33.03   10.83
   8   9  -4  237.33   27.45
   8   9  -4  207.29   27.10
   8   9  -4  206.39   24.45
  -8   9   4  181.34   38.92
   8  -9  -4  213.88   27.20
   8   9  -4  215.47   18.61
   8   9  -4  205.49   17.71
   8  -9  -4  193.62   26.95
  -8   9   4  210.73   39.62
   8   9  -3   26.65   11.43
  -8   9   3   40.97   21.61
   8   9  -3   27.89   11.73
   8  -9  -3   28.99   10.83
   8   9  -3   35.83    8.98
   8   9  -3   30.09    6.19
   8  -9  -3   24.75   12.13
  -8   9   3    9.78   12.97
   8  -9  -2   33.38   13.62
  -8   9   2   48.95   21.46
   8   9  -2   50.85   14.52
   8   9  -2   39.27    8.58
   8  -9  -2   42.17   11.68
   8   9  -2   41.82    7.54
   8  -9  -2   28.09   12.53
  -8   9   2   50.70   20.56
   8  -9  -1  437.58   49.60
   8  -9  -1  459.39   40.02
  -8   9   1  367.97   54.54
  -8   9   1  579.75   69.66
   8   9  -1  409.84   45.61
   8  -9  -1  446.46   47.46
   8  -9  -1  459.29   47.46
  -8   9   1  397.86   30.84
   8   9  -1  520.17   32.64
   8  -9   0  223.21   32.64
   8  -9   0  207.29   24.40
   8   9   0  182.89   29.34
  -8   9   0  245.21   45.16
  -8  -9   0  239.72   32.98
   8  -9   0  222.66   32.24
  -8   9   0  149.55   33.98
   8  -9   0  243.67   23.80
   8  -9   0  215.22   33.68
   8  -9   1  146.71   19.36
  -8   9  -1  242.87   44.01
   8   9   1  146.61   26.40
   8  -9   1  151.60   27.65
  -8   9  -1  120.61   29.94
   8  -9   1  129.54   25.55
   8  -9   1  157.44   20.76
   8  -9   2   21.16   10.13
   8  10  -9   21.06    9.58
   8  10  -8   13.97   10.83
   8  10  -8   11.73    9.13
   8 -10  -7 1819.09  141.17
   8  10  -7 1896.29  123.85
  -8  10   7 1741.99  144.56
   8  10  -7 2090.85  122.51
   8  10  -7 1760.95  131.39
   8 -10  -7 1802.82  133.14
  -8  10   7 2115.55  154.14
   8 -10  -7 2210.31  129.59
   8  10  -6   75.60   16.77
  -8  10   6   48.75   21.31
   8 -10  -6   70.51   21.41
   8  10  -6   80.34   15.62
  -8  10   6   52.20   20.76
   8  10  -6   72.31   14.02
   8  10  -6   78.59   12.23
   8 -10  -6   57.19   16.27
   8 -10  -6   83.18   17.27
  -8  10   5   81.64   25.25
   8  10  -5   90.27   16.67
   8  10  -5   73.75   15.77
  -8  10   5   71.91   24.85
   8  10  -5   75.45   11.88
   8  10  -5   77.55    8.78
   8 -10  -5  108.04   19.81
   8 -10  -5   70.41   16.62
   8  10  -5   73.25   15.62
   8  10  -4  298.61   31.59
   8  10  -4  286.28   32.59
  -8  10   4  284.24   49.15
   8  10  -4  264.67   28.74
  -8  10   4  281.89   45.56
   8 -10  -4  264.57   31.49
   8  10  -4  278.80   23.35
   8 -10  -4  278.20   32.88
   8  10  -3  188.28   24.90
   8 -10  -3  181.24   30.04
   8  10  -3  178.35   26.30
   8  10  -3  165.32   19.86
   8 -10  -3  150.30   22.66
  -8  10   3  184.28   39.82
   8  10  -3  180.09   16.87
   8 -10  -3  189.02   27.00
  -8  10   3  156.74   35.63
   8 -10  -2   99.95   22.46
   8  10  -2  105.04   13.92
   8  10  -2  115.82   21.86
  -8  10   2  134.28   33.98
   8 -10  -2   97.91   17.22
   8  10  -2  104.84   12.58
  -8  10   2  102.00   29.24
   8 -10  -2  109.43   21.51
   8 -10  -1  437.08   51.25
   8  10  -1  505.10   35.38
   8 -10  -1  519.57   44.06
  -8  10   1  441.87   61.58
  -8  10   1  564.93   71.31
   8  10  -1  501.16   50.85
  -8 -10   1  538.58   50.35
   8 -10  -1  533.84   52.89
   8 -10  -1  501.60   50.90
   8  10  -1  500.11   37.58
   8  10  -1  504.70   34.78
   8 -10   0   79.39   21.16
   8 -10   0   24.60    9.48
   8 -10   0   38.37   15.52
  -8  10   0   29.64   19.76
   8  10   0   32.88   13.72
  -8 -10   0   28.79   13.87
  -8  10   0   25.45   18.11
   8 -10   0   28.14   13.52
   8 -10   1   45.71   11.48
  -8  10  -1   47.01   21.96
   8  10   1   26.65   13.12
   8 -10   1   26.15   13.37
   8 -10   1   27.30   14.07
   8 -10   1   31.94   11.23
   8  11  -9   75.55   17.76
   8  11  -8   90.77   21.81
   8  11  -8  114.82   20.46
   8 -11  -7  200.60   35.33
  -8  11   7  193.72   38.42
   8  11  -7  210.98   30.69
   8 -11  -7  206.74   31.09
  -8  11   7  275.65   44.51
   8 -11  -7  239.23   29.29
  -8  11   6  235.13   42.27
   8  11  -6  293.82   29.49
   8  11  -6  287.28   28.84
  -8  11   6  282.64   47.85
   8  11  -6  278.15   26.90
   8 -11  -6  254.99   33.38
   8  11  -6  259.88   32.19
   8 -11  -6  250.95   31.19
   8  11  -5  412.23   37.03
   8  11  -5  405.99   38.47
  -8  11   5  343.57   55.79
  -8  11   5  396.16   55.49
   8 -11  -5  344.02   39.77
   8  11  -5  407.29   32.29
   8  11  -5  345.91   37.23
   8 -11  -5  373.36   39.57
   8  11  -4  432.49   38.42
   8 -11  -4  344.02   44.51
   8  11  -4  394.52   40.02
  -8  11   4  414.78   61.18
  -8  11   4  393.87   55.79
   8 -11  -4  345.56   38.17
   8  11  -4  377.15   36.18
   8  11  -4  373.11   30.64
   8 -11  -4  410.49   41.72
   8  11  -3  132.69   20.51
   8 -11  -3  130.04   25.80
   8 -11  -3  121.11   20.06
   8  11  -3  119.21   21.76
   8  11  -3  128.59   17.32
  -8  11   3  137.38   35.58
   8  11  -3  123.31   14.72
   8 -11  -3  157.29   24.80
  -8  11   3  142.12   33.58
   8 -11  -2   77.50   19.81
   8  11  -2   78.39   11.88
   8  11  -2   76.35   18.36
  -8  11   2  108.38   32.54
   8 -11  -2   69.66   15.07
  -8  11   2   80.69   27.50
   8  11  -2   95.61   12.23
   8 -11  -2   60.33   16.57
   8 -11  -1  228.00   35.18
   8  11  -1  249.26   21.36
   8 -11  -1  248.31   28.44
   8  11  -1  268.57   34.78
  -8  11   1  302.15   52.30
  -8 -11   1  235.78   33.58
   8 -11  -1  243.92   35.03
  -8  11   1  252.05   47.51
   8 -11  -1  268.32   35.13
   8  11  -1  248.76   23.80
   8  11  -1  272.46   21.21
   8 -11   0  982.95   87.03
   8 -11   0 1049.17   86.08
   8 -11   0 1001.11   73.15
  -8  11   0  917.38  102.65
   8  11   0  925.61   81.99
  -8  11   0 1246.43  113.77
  -8 -11   0 1114.89   90.82
   8 -11   0 1116.13   86.38
   8  11   0 1000.31   69.21
   8 -11   1  171.21   21.66
   8  11   1  137.28   26.20
  -8  11  -1  146.91   37.87
   8 -11   1  158.14   29.09
   8  12  -9  928.16   74.40
   8  12  -8 1737.55  119.41
  -8  12   7  610.34   78.54
   8 -12  -7  752.01   68.51
   8  12  -7  680.60   65.22
  -8  12   7  882.45   86.08
   8 -12  -7  991.33   67.92
  -8  12   6  114.32   30.69
   8  12  -6  109.53   17.17
   8  12  -6  120.26   20.76
   8  12  -6  105.49   17.81
  -8  12   6   87.68   28.54
   8 -12  -6   95.36   20.51
   8 -12  -6  117.52   21.51
   8  12  -5 2024.18  124.60
   8 -12  -5 1748.33  139.62
   8  12  -5 2080.92  129.69
  -8  12   5 2183.86  170.16
  -8  12   5 2014.15  157.24
   8 -12  -5 1788.25  131.29
   8  12  -5 2011.01  121.26
   8  12  -5 1795.19  127.15
   8 -12  -5 2067.65  132.84
   8  12  -4  999.87   70.06
   8 -12  -4  881.25   81.54
   8  12  -4 1037.24   76.00
  -8  12   4 1123.97  109.43
  -8  12   4 1016.83   98.25
   8 -12  -4  890.38   73.25
   8  12  -4  868.33   68.56
   8  12  -4  959.10   64.37
   8 -12  -4  974.27   76.60
   8 -12  -3  525.66   57.19
   8  12  -3  595.22   54.34
  -8  12   3  555.15   70.56
  -8  12   3  599.41   76.85
   8 -12  -3  526.60   49.45
   8  12  -3  553.30   44.46
   8  12  -3  582.24   42.27
   8 -12  -3  547.56   52.99
   8  12  -2   10.78    6.99
   8 -12  -2    4.34    9.18
   8  12  -2    3.49    8.68
  -8  12   2   -2.69   12.97
   8 -12  -2    5.24    7.29
  -8  12   2   12.53   16.52
   8  12  -2   15.72    6.34
   8 -12  -2   17.22   11.03
   8 -12  -1 1299.87  105.04
  -8  12   1 1354.11  128.25
   8 -12  -1 1267.08   92.32
   8  12  -1 1313.04  101.45
  -8  12   1 1753.92  140.62
  -8 -12   1 1335.50  103.89
   8 -12  -1 1341.04  103.25
   8 -12  -1 1345.88  101.45
   8  12  -1 1350.62   86.28
   8 -12   0    2.99    9.53
   8 -12   0   15.67    9.43
   8  12   0    3.94    8.33
  -8  12   0    7.98   17.57
  -8  12   0    8.68   19.71
   8 -12   0    2.79    8.18
   8  12   0    0.60    6.49
   8 -12   0    7.88    9.48
   8 -12   1  552.95   46.66
  -8  12  -1  521.36   76.50
   8  13  -8   25.70   12.43
  -8  13   7  548.61   73.35
   8  13  -7  496.31   52.50
   8 -13  -7  627.20   53.19
   8 -13  -6   36.18   14.62
  -8  13   6   11.03   13.02
   8  13  -6    1.05    8.48
   8 -13  -6   -1.65   10.73
   8  13  -6    0.75    7.39
  -8  13   6   -8.23   13.97
   8 -13  -6    5.94    9.88
   8  13  -5  112.33   19.26
   8  13  -5   97.66   16.27
   8 -13  -5   84.93   22.21
   8  13  -5   82.29   17.91
  -8  13   5   85.08   31.04
   8  13  -5  104.79   16.02
   8 -13  -5  109.03   21.16
  -8  13   5  120.86   32.69
   8 -13  -5  149.05   23.55
   8  13  -4  219.61   25.05
   8 -13  -4  200.85   33.98
   8  13  -4  224.90   29.54
   8 -13  -4  206.44   28.44
  -8  13   4  232.44   48.65
   8  13  -4  200.40   22.06
   8  13  -4  196.81   24.70
  -8  13   4  191.37   40.92
   8 -13  -4  226.35   31.04
   8  13  -3  955.70   68.81
   8 -13  -3  915.03   81.74
  -8  13   3  855.60   95.66
   8  13  -3  938.59   75.60
   8 -13  -3  882.70   71.71
  -8  13   3 1189.34  114.52
   8  13  -3  839.03   64.67
   8  13  -3  980.15   64.32
   8 -13  -3  956.45   76.65
   8 -13  -2   92.47   21.71
   8  13  -2   50.55   11.23
   8  13  -2   64.62   17.91
  -8  13   2   76.30   28.19
   8 -13  -2   51.00   13.77
  -8  13   2   54.59   26.05
   8  13  -2   70.56   11.83
   8  13  -2   56.09   10.58
   8 -13  -2   51.00   16.32
   8 -13  -1   19.36   12.92
   8 -13  -1   12.08   11.23
   8 -13  -1   10.33    8.43
   8  13  -1    6.34    9.88
  -8 -13   1   17.57   12.72
  -8  13   1   22.41   20.76
  -8  13   1   11.88   20.16
   8  13  -1   17.12    8.13
   8 -13  -1   12.53   10.48
   8 -13   0  436.73   52.20
  -8  13   0  454.95   74.10
   8 -13   0  527.80   44.86
   8 -13   0  466.47   52.70
   8  13   0  447.66   50.25
   8 -13   0  434.74   50.15
   8 -13   1  131.74   20.11
  -8  13  -1  106.24   38.37
   8  14  -8    5.64    8.58
   8 -14  -7   17.32   12.43
   8  14  -7   25.25   13.12
  -8  14   7   22.31   20.71
   8 -14  -6   31.54   13.92
   8  14  -6   28.74   12.13
   8 -14  -6   16.72   13.72
   8  14  -6   29.79   10.43
  -8  14   6   38.67   22.11
   8 -14  -6   29.09   12.62
  -8  14   6   27.60   17.57
   8 -14  -5  248.96   39.42
   8  14  -5  347.61   36.13
  -8  14   5  331.64   52.89
   8 -14  -5  318.82   37.53
  -8  14   5  356.54   62.28
   8  14  -5  274.70   33.08
   8 -14  -5  327.50   38.17
   8  14  -4   29.74   10.18
   8  14  -4   30.84   10.98
   8 -14  -4   33.83   16.42
   8  14  -4   27.50   12.82
  -8  14   4   36.73   24.45
   8 -14  -4   25.05   11.78
   8  14  -4   36.78   10.28
  -8  14   4   49.30   24.85
   8 -14  -4   33.78   14.82
   8  14  -3  430.20   38.02
   8  14  -3  400.11   36.58
   8 -14  -3  440.87   50.60
  -8  14   3  401.35   62.48
   8  14  -3  378.95   42.96
   8 -14  -3  413.23   41.97
  -8  14   3  433.04   68.41
   8  14  -3  373.01   35.13
   8  14  -3  416.37   35.68
   8 -14  -3  413.18   44.96
   8 -14  -2    2.99   11.08
   8  14  -2    1.25   10.43
   8 -14  -2    2.84    7.39
  -8  14   2    2.94   15.97
  -8  14   2   11.73   19.96
   8  14  -2    2.40    6.94
   8 -14  -2   17.32   12.62
   8 -14  -1  408.84   49.95
  -8  14   1  439.38   71.66
   8 -14  -1  409.64   41.27
   8  14  -1  421.56   48.05
  -8  14   1  591.63   78.29
   8 -14  -1  421.41   49.10
   8 -14  -1  451.45   49.20
   8 -14   0  253.20   38.02
   8 -14   0  271.06   30.89
   8  14   0  234.14   35.33
  -8  14  -1  723.36  100.90
   8 -14   1  667.43   55.69
  -8  15   7  923.77  103.64
   8  15  -7  765.93   69.21
  -8  15   6  286.98   57.34
   8  15  -6  237.53   32.98
   8 -15  -6  315.52   37.03
   8 -15  -5  454.45   54.39
   8  15  -5  478.55   45.46
  -8  15   5  456.19   63.97
  -8  15   5  568.57   80.89
   8 -15  -5  430.74   46.41
   8  15  -5  413.58   42.91
   8 -15  -5  486.28   49.00
   8 -15  -4  512.58   57.09
   8  15  -4  529.65   50.70
  -8  15   4  469.52   68.16
   8 -15  -4  464.13   47.95
  -8  15   4  619.92   84.58
   8  15  -4  482.74   44.11
   8 -15  -4  538.63   52.50
   8 -15  -3  716.68   69.86
   8  15  -3  707.70   54.49
  -8  15   3  645.77   85.23
   8  15  -3  739.98   64.82
   8 -15  -3  692.67   60.63
  -8  15   3  882.10  101.15
   8  15  -3  697.66   53.69
   8 -15  -3  683.29   64.47
   8 -15  -2  166.47   30.29
   8 -15  -2  151.10   24.25
   8  15  -2  187.13   29.14
  -8  15   2  209.38   49.80
  -8  15   2  187.63   48.10
   8 -15  -2  149.45   27.45
   8 -15  -1 1418.13  109.63
  -8  15   1 1371.48  142.02
   8 -15  -1 1322.82   95.86
   8  15  -1 1301.52  103.15
   8 -15  -1 1345.78  104.29
   8 -15   0   63.82   15.62
  -8  15   0   54.04   30.29
  -8  15  -1 1122.67  135.18
   8 -15   1  969.77   74.65
   8 -16  -6   74.70   19.61
   8  16  -6   59.23   17.22
  -8  16   6  111.98   39.67
   8  16  -5  581.00   52.75
  -8  16   5  662.34   91.27
   8  16  -5  540.23   50.85
   8 -16  -5  597.11   57.09
   8  16  -4    8.13    8.78
   8  16  -4    4.14    6.49
   8 -16  -4    3.19    9.88
   8  16  -4    3.39    9.58
   8 -16  -4    3.34    7.58
  -8  16   4   16.32   16.67
   8 -16  -4    6.09   11.68
   8 -16  -3  542.37   61.78
   8  16  -3  648.36   50.75
  -8  16   3  633.79   84.83
   8  16  -3  613.58   58.83
   8 -16  -3  624.11   56.89
  -8  16   3  760.79   97.31
   8  16  -3  594.87   49.05
   8 -16  -3  648.46   60.58
   8 -16  -2  339.23   45.56
  -8  16   2  434.94   71.66
   8 -16  -2  346.56   39.32
   8  16  -2  335.08   41.92
  -8  16   2  536.09   77.10
   8 -16  -2  437.43   47.46
   8 -16  -1  405.69   49.80
   8 -16  -1  397.66   41.12
   8  16  -1  404.05   46.86
  -8  16   0  745.77  104.54
   8 -16   0  562.48   51.95
  -8  17   6  757.10  101.05
   8  17  -6  529.30   54.84
   8 -17  -6  707.60   62.03
   8 -17  -5    3.84   13.12
   8  17  -5   12.03    9.48
  -8  17   5   14.87   22.80
   8  17  -4   55.04   13.97
   8  17  -4   30.94   11.08
   8  17  -4   35.88   13.82
  -8  17   4   72.26   32.59
   8 -17  -4   69.41   19.46
  -8  17   3 2430.77  203.15
   8 -17  -3 2233.52  158.49
   8  17  -3 2544.55  164.92
   8 -17  -3 2383.62  164.12
   8  17  -2  107.44   22.85
   8 -17  -2   67.92   17.76
  -8  17   2  122.16   40.97
   8 -17  -1   28.49   11.58
  -8  17   1   27.55   25.95
   8 -17   0  226.90   29.89
   8 -18  -6   69.61   20.66
   8  18  -6   79.69   19.01
  -8  18   6  117.82   42.82
   8  18  -5  981.75   77.65
   8  18  -5  944.43   78.14
   8 -18  -5 1164.34   89.02
   8  18  -4  415.03   40.57
   8  18  -4  443.52   47.26
   8  18  -3  147.91   27.40
   8  19  -5  581.79   53.89
   8  19  -4  751.76   67.07
   8  19  -3  209.83   32.74
   8  20  -4   17.76   12.23
   9   0  -8   57.54   18.66
   9   0  -8   67.42   17.37
   9   0  -7  400.70   46.16
   9   0  -7  454.55   35.88
   9   0  -7  371.16   42.12
   9   0  -6  650.26   60.78
   9   0  -6  661.44   50.85
   9   0  -6  595.77   54.39
   9   0  -5   76.75   15.82
   9   0  -5   95.91   20.31
   9   0  -5   87.53   16.37
   9   0  -4  302.30   38.17
   9   0  -4  330.29   34.98
   9   0  -4  317.62   32.09
   9   0  -3 1723.03  121.46
   9   0  -3 1812.40  116.32
   9   0  -3 1740.20  118.02
   9   0  -3 1584.70  107.59
   9   0  -3 1692.84  104.94
   9   0  -2  424.31   44.71
   9   0  -2  466.32   36.38
   9   0  -2  394.67   35.28
   9   0  -2  442.52   43.46
   9   0  -2  428.85   47.06
   9   0  -1   24.05   11.48
   9   0  -1   13.72    6.34
   9   0  -1   10.63   10.08
   9   0  -1   31.69   10.38
   9   0   0   32.83   12.53
   9   0   0    8.88    8.13
   9   0   0   11.38   10.28
   9   0   1 1289.44   90.57
   9   0   2  185.53   25.70
   9  -1  -8   67.32   20.06
   9   1  -8   72.01   19.91
   9  -1  -8   65.37   17.37
   9   1  -8   70.76   18.41
   9   1  -7  788.93   68.56
   9  -1  -7  807.00   72.71
   9   1  -7  899.31   73.95
   9   1  -7  827.21   58.43
   9  -1  -7  863.93   59.78
   9  -1  -7  814.18   69.06
   9   1  -6  579.05   56.49
   9  -1  -6  591.48   57.29
   9   1  -6  565.48   46.06
   9  -1  -6  603.00   47.66
   9   1  -6  579.45   40.22
   9  -1  -6  502.00   49.75
   9   1  -6  598.41   52.25
   9   1  -5  143.91   24.75
   9  -1  -5  142.92   25.50
   9   1  -5  139.37   20.91
   9  -1  -5  135.33   20.66
   9  -1  -5  143.37   21.36
   9   1  -5  136.83   20.71
   9   1  -4  417.52   45.01
   9  -1  -4  419.72   45.71
   9   1  -4  486.83   43.01
   9  -1  -4  431.84   41.37
   9  -1  -4  386.08   37.43
   9  -1  -4  412.28   30.89
   9   1  -4  376.00   36.88
   9   1  -3  381.79   43.46
   9  -1  -3  394.62   44.31
   9   1  -3  408.94   39.87
   9  -1  -3  414.33   41.27
   9   1  -3  412.38   42.32
   9  -1  -3  424.76   42.62
   9  -1  -3  352.40   34.68
   9   1  -3  403.20   35.38
   9  -1  -3  429.00   32.44
   9  -1  -2  159.28   24.60
   9  -1  -2  155.64   26.55
   9   1  -2  147.11   24.25
   9  -1  -2  151.90   18.96
   9  -1  -2  149.50   24.60
   9   1  -2  173.80   19.06
   9   1  -2  148.31   19.36
   9  -1  -2  149.25   18.36
   9   1  -2  141.57   22.66
   9   1  -2  167.12   27.20
   9   1  -1   62.28   15.47
   9  -1  -1   55.84   10.48
   9   1  -1   57.89    9.68
   9   1  -1   54.19   17.52
   9  -1  -1   81.29   17.66
   9  -1  -1   70.76   18.66
   9   1  -1   57.64   13.37
   9  -1  -1   56.54   12.33
   9   1   0  836.69   68.26
   9   1   0  842.78   73.05
   9  -1   0  782.15   71.76
   9  -1   0  892.33   71.06
   9   1   0  866.38   64.17
   9  -1   0  833.89   62.73
   9  -1   1  210.83   30.84
   9  -1   1  232.34   27.45
   9   1   2   78.44   17.62
   9  -2  -8  134.78   24.50
   9   2  -8  137.03   26.25
   9   2  -8  131.24   24.45
   9   2  -7  372.56   41.17
   9  -2  -7  407.04   46.76
   9   2  -7  372.96   42.91
   9  -2  -7  392.82   34.18
   9  -2  -7  370.61   41.22
   9  -2  -6   67.42   16.07
   9   2  -6   43.71   15.77
   9  -2  -6   44.91   17.17
   9   2  -6   35.83   12.48
   9   2  -6   33.18   10.28
   9  -2  -6   25.40   10.58
   9   2  -6   42.32    9.08
   9   2  -5  388.88   42.77
   9  -2  -5  350.50   42.62
   9   2  -5  350.06   36.08
   9  -2  -5  343.02   37.13
   9   2  -5  372.61   37.18
   9   2  -4   81.24   16.27
   9   2  -4   90.17   15.82
   9   2  -4  107.84   20.66
   9  -2  -4  109.13   22.01
   9   2  -4   76.85   16.97
   9  -2  -4  100.75   18.31
   9  -2  -4   78.69   15.42
   9   2  -3  233.84   32.04
   9  -2  -3  232.89   33.08
   9   2  -3  245.86   28.34
   9   2  -3  234.73   30.09
   9  -2  -3  248.66   30.84
   9  -2  -3  212.98   28.74
   9  -2  -3  203.75   24.55
   9   2  -3  224.50   24.25
   9  -2  -3  236.28   21.01
   9  -2  -2  962.94   83.63
   9  -2  -2 1123.97   81.79
   9  -2  -2 1017.58   70.66
   9   2  -2 1027.31   81.24
   9  -2  -2 1024.47   81.49
   9   2  -2  983.45   68.36
   9  -2  -2 1076.56   69.01
   9   2  -2 1108.30   78.14
   9   2  -2 1005.05   83.33
   9   2  -1    9.03    8.68
   9  -2  -1    2.94    5.44
   9   2  -1    7.09    8.28
   9  -2  -1    5.94    9.03
   9  -2  -1    5.39    9.03
   9   2  -1    6.39    7.93
   9  -2  -1    8.18    7.39
   9  -2   0    7.88    9.78
   9   2   0   11.38    9.88
   9  -2   0   11.43    9.88
   9   2   0    5.69    8.58
   9   2   0    7.88    8.38
   9  -2   0    6.89    7.98
   9  -2   1   23.45   12.33
   9   2   1   22.06   11.23
   9  -2   1    5.54    7.44
   9   2   2  169.51   25.20
   9  -2   2  160.63   23.50
   9  -3  -8  259.93   37.58
   9   3  -8  261.03   34.88
   9   3  -8  259.09   34.83
   9  -3  -8  224.40   32.64
   9   3  -7 1117.93   87.28
   9  -3  -7 1126.86   93.31
   9   3  -7 1104.81   88.08
   9  -3  -7 1210.35   78.74
   9  -3  -7 1135.60   87.93
   9  -3  -6  120.26   21.61
   9   3  -6  124.95   23.60
   9  -3  -6  108.04   23.90
   9   3  -6  113.67   20.41
   9   3  -6  123.60   17.76
   9  -3  -6  131.49   19.41
   9   3  -5  597.36   54.69
   9  -3  -5  564.08   56.34
   9   3  -5  549.91   47.81
   9  -3  -5  603.80   49.65
   9  -3  -5  526.80   48.65
   9   3  -5  507.59   46.61
   9   3  -4    6.74    7.44
   9  -3  -4   19.21   10.88
   9   3  -4   10.53    7.19
   9   3  -4   16.32    9.63
   9  -3  -4   10.03    8.88
   9  -3  -4    6.99    6.74
   9   3  -4   13.77    8.13
   9   3  -3  794.27   67.02
   9  -3  -3  715.63   67.67
   9   3  -3  825.66   61.18
   9   3  -3  783.74   64.52
   9  -3  -3  764.38   63.87
   9  -3  -3  748.61   57.74
   9  -3  -3  780.70   64.62
   9   3  -3  732.90   55.39
   9  -3  -2   97.11   21.61
   9   3  -2   87.23   17.07
   9  -3  -2   97.26   15.27
   9   3  -2   98.95   20.26
   9   3  -2  116.17   14.67
   9  -3  -2   81.49   18.66
   9  -3  -2   97.16   13.37
   9  -3  -2  100.55   20.61
   9  -3  -1  455.55   37.58
   9   3  -1  438.73   47.51
   9   3  -1  484.74   43.81
   9  -3  -1  466.27   49.15
   9  -3  -1  485.59   38.92
   9  -3  -1  511.58   49.40
   9  -3   0  101.55   21.71
   9   3   0  120.51   23.35
   9  -3   0   99.85   22.01
   9  -3   0  115.22   17.22
   9   3   0  100.85   18.66
   9  -3   1   38.57   14.62
   9   3   1   40.67   12.82
   9  -3   1   28.74   11.23
   9   3   2  227.05   30.14
   9  -3   2  264.92   30.54
   9  -4  -8    9.93   10.38
   9  -4  -8    4.39   11.73
   9   4  -8    4.54   10.43
   9   4  -8    7.34    9.33
   9  -4  -7  353.20   44.61
   9   4  -7  373.86   41.72
   9   4  -7  358.54   40.02
   9  -4  -7  371.71   34.08
   9  -4  -7  369.62   41.27
   9  -4  -6   62.23   16.07
   9   4  -6   62.68   18.26
   9  -4  -6   70.31   19.91
   9   4  -6   75.50   16.82
   9   4  -6   86.43   14.92
   9  -4  -6   73.75   15.27
   9   4  -5 1297.42   91.57
   9   4  -5 1336.55   98.06
   9  -4  -5 1352.47  103.00
   9   4  -5 1372.77   92.27
   9  -4  -5 1374.67   93.36
   9  -4  -5 1221.33   92.12
   9   4  -4  146.71   24.20
   9  -4  -4  173.56   28.09
  -9   4   4   94.96   26.30
  -9   4   4  155.69   33.83
   9   4  -4  156.69   20.66
   9   4  -4  137.58   22.06
   9  -4  -4  152.80   23.35
   9  -4  -4  143.17   20.96
   9   4  -4  141.42   19.81
   9   4  -3  426.45   46.56
   9  -4  -3  476.10   51.15
  -9   4   3  505.70   64.12
   9   4  -3  517.92   47.95
   9  -4  -3  483.04   42.17
   9  -4  -3  481.49   46.76
   9   4  -3  468.97   39.27
   9   4  -3  538.13   43.71
  -9   4   3  470.62   55.49
   9  -4  -2  839.33   77.20
   9  -4  -2  989.44   76.35
   9  -4  -2  913.59   65.77
   9   4  -2  920.97   75.35
   9  -4  -2  947.22   75.85
   9   4  -2  952.06   69.16
   9   4  -2  890.33   61.63
   9  -4  -2 1024.12   61.93
  -9   4   2  753.30   77.45
   9  -4  -1  577.60   45.96
   9   4  -1  599.96   51.15
   9   4  -1  643.22   58.68
   9  -4  -1  609.54   57.89
   9  -4  -1  652.31   46.76
   9  -4  -1  642.87   58.63
   9  -4  -1  591.68   60.73
   9   4   0  325.70   40.47
   9  -4   0  339.68   41.42
   9  -4   0  384.29   42.67
   9   4   0  331.39   35.38
   9  -4   0  354.05   32.78
   9  -4   1  368.62   41.92
   9   4   1  320.26   35.63
   9  -4   1  330.84   33.83
   9   4   2  359.74   39.32
   9  -5  -8  243.37   37.87
   9   5  -8  250.35   32.88
   9   5  -8  251.90   34.43
   9  -5  -7  219.96   34.53
   9   5  -7  195.36   28.84
   9   5  -7  223.26   30.59
   9  -5  -7  229.79   25.25
   9  -5  -7  193.47   29.59
   9   5  -7  205.34   22.75
   9   5  -6  698.21   59.23
   9  -5  -6  675.66   64.57
   9   5  -6  640.48   55.79
  -9   5   6  576.31   64.67
   9   5  -6  655.45   50.90
   9  -5  -6  636.79   52.30
   9  -5  -6  627.90   56.39
  -9   5   5 1370.43  116.92
   9   5  -5 1432.46  102.05
   9  -5  -5 1360.30  107.34
   9   5  -5 1373.22   96.21
  -9   5   5 1370.33  117.62
   9   5  -5 1451.42   97.11
   9  -5  -5 1466.39   98.45
   9  -5  -5 1380.71   98.16
   9   5  -4  301.40   35.78
   9  -5  -4  290.02   38.72
   9   5  -4  317.37   30.39
  -9   5   4  349.66   51.30
   9   5  -4  300.05   34.03
   9  -5  -4  260.23   30.69
   9  -5  -4  330.34   35.58
  -9   5   4  283.19   43.46
   9   5  -4  306.84   30.49
   9   5  -3  831.00   71.66
   9  -5  -3  910.04   77.80
  -9   5   3  889.23   92.47
   9   5  -3  938.24   72.91
   9  -5  -3  878.91   66.22
   9  -5  -3  939.53   73.15
   9   5  -3  908.10   65.12
   9   5  -3  888.64   62.58
  -9   5   3  809.59   81.54
   9   5  -2   35.73   10.73
   9  -5  -2   13.52   11.38
  -9   5   2   17.71   12.28
  -9   5   2   14.12   15.57
   9  -5  -2   10.03   11.28
   9   5  -2   16.82   11.48
   9  -5  -2   19.96    8.83
   9  -5  -2    9.93   10.53
   9   5  -2   48.65    9.83
   9  -5  -2   28.84    7.49
   9  -5  -1 1847.28  127.85
  -9   5   1 1975.78  156.09
   9  -5  -1 1721.43  113.23
   9   5  -1 1776.17  127.35
   9  -5  -1 1839.25  127.95
  -9   5   1 1435.60  126.55
   9  -5  -1 2020.84  113.08
   9  -5  -1 1805.12  132.74
   9  -5   0    9.93   10.78
   9   5   0   18.11   11.68
   9  -5   0   14.17   10.73
   9   5   1  455.80   44.56
   9   5   2  977.81   77.15
   9   6  -8   66.02   17.27
   9   6  -8   59.83   17.71
   9  -6  -7    6.89    9.13
   9  -6  -7   14.87   13.37
   9   6  -7   23.45   13.67
   9   6  -7    4.34    8.48
   9  -6  -7   19.06    9.68
   9   6  -7    8.68    6.94
   9   6  -6    4.04    9.83
   9  -6  -6   11.38   12.82
  -9   6   6    7.93   13.92
  -9   6   6   17.76   12.82
   9   6  -6   13.42    9.38
   9   6  -6   18.31    8.43
   9  -6  -6   16.02   10.13
   9  -6  -6    3.09    6.99
   9   6  -5   33.48   13.87
   9  -6  -5   63.92   19.21
  -9   6   5   54.54   22.80
  -9   6   5   34.58   17.47
   9   6  -5   55.24   14.12
   9   6  -5   54.59   13.37
   9   6  -5   42.32   10.48
   9  -6  -5   41.22   13.97
   9  -6  -5   27.50   11.58
   9   6  -4    7.88    6.69
   9   6  -4   18.71    9.68
   9  -6  -4   20.41   11.83
  -9   6   4   13.32   13.32
  -9   6   4   -2.25   12.58
   9   6  -4   15.22    7.98
   9   6  -4   27.10   11.58
   9  -6  -4   11.78    9.73
   9  -6  -4    3.39    7.24
   9   6  -3   62.88   17.17
   9  -6  -3   81.09   20.21
  -9   6   3   85.93   25.15
   9   6  -3   70.56   12.33
   9   6  -3   76.55   13.42
  -9   6   3   73.15   26.60
   9   6  -3   79.44   17.91
   9  -6  -3   57.19   13.72
   9  -6  -3   69.46   18.21
  -9   6   2   53.69   19.16
   9  -6  -2   59.28   17.27
  -9   6   2   68.46   25.50
   9   6  -2   63.22   17.17
   9  -6  -2   65.92   13.62
   9  -6  -2   50.30   16.17
   9  -6  -2   56.44   16.87
   9   6  -2   76.70   11.53
   9   6  -2   58.98   12.28
  -9   6   1   57.24   19.11
   9  -6  -1   70.66   18.61
  -9   6   1   60.08   24.95
   9  -6  -1   32.59   10.33
   9   6  -1   69.46   17.47
   9  -6  -1   54.34   16.52
  -9   6   0   -2.54   16.22
   9   6   0   -3.99    9.83
   9  -6   0   -1.25    9.88
   9  -6   0    1.30    7.29
   9   6   1   95.56   19.91
   9   7  -8  318.07   39.17
   9  -7  -7  128.15   27.89
   9   7  -7  110.18   21.26
  -9   7   7   99.85   28.79
   9   7  -7  120.21   22.21
   9   7  -7  111.18   17.86
   9  -7  -7  121.61   19.16
   9  -7  -7  114.07   22.21
   9   7  -6  375.40   39.57
   9  -7  -6  303.65   42.27
   9   7  -6  351.60   38.22
  -9   7   6  387.58   52.45
   9   7  -6  365.22   34.38
   9  -7  -6  329.30   38.22
   9  -7  -6  397.96   37.73
  -9   7   6  397.51   54.74
   9   7  -5 1444.38   99.80
   9  -7  -5 1287.99  106.19
   9   7  -5 1296.08   94.76
   9   7  -5 1452.67   89.47
  -9   7   5 1344.48  121.06
   9   7  -5 1470.43   97.01
   9  -7  -5 1242.98   96.61
   9  -7  -5 1473.97   98.60
  -9   7   5 1364.84  118.91
   9   7  -4  133.58   18.71
  -9   7   4  109.43   29.19
   9   7  -4  138.43   23.35
   9  -7  -4  122.71   25.35
  -9   7   4  115.82   31.69
   9   7  -4  127.95   22.16
   9  -7  -4  118.07   19.86
   9  -7  -4  136.73   22.61
   9   7  -4  150.45   17.76
   9   7  -3  389.43   41.62
   9  -7  -3  361.68   44.91
  -9   7   3  422.16   61.78
   9   7  -3  420.12   42.82
   9  -7  -3  414.93   38.32
   9   7  -3  340.92   31.99
   9  -7  -3  392.92   42.67
  -9   7   3  476.20   57.34
   9   7  -3  389.73   33.68
  -9   7   2   59.83   21.51
  -9   7   2   58.78   24.95
   9   7  -2   80.84   19.61
   9  -7  -2   80.49   14.92
   9  -7  -2  105.04   21.81
   9  -7  -2   79.84   18.91
   9  -7  -1  467.37   49.60
   9  -7  -1  460.49   39.57
  -9   7   1  498.51   68.61
   9   7  -1  459.94   49.10
   9  -7  -1  481.89   49.75
  -9   7   1  410.04   53.89
   9   7   0  254.39   35.83
   9  -7   0  226.60   33.78
   9   7   1  765.08   64.62
  -9   8   7 1160.35  110.73
   9   8  -7 1283.95   90.27
   9   8  -7 1167.53   91.52
   9  -8  -7 1131.65   93.21
   9  -8  -7 1348.17   87.68
   9   8  -6   72.36   17.32
   9  -8  -6   68.56   20.86
  -9   8   6   36.23   22.01
  -9   8   6   50.15   20.71
   9   8  -6   71.16   14.17
   9   8  -6   63.87   15.77
   9  -8  -6   68.21   16.82
   9  -8  -6   58.93   15.42
   9   8  -5  377.15   39.42
   9  -8  -5  427.10   48.40
   9   8  -5  365.57   36.93
  -9   8   5  323.16   53.14
   9   8  -5  365.92   37.28
   9  -8  -5  383.39   40.02
   9  -8  -5  394.92   39.97
  -9   8   5  354.60   53.04
  -9   8   4   50.00   22.11
   9   8  -4   12.72    9.13
   9  -8  -4    7.14    9.43
  -9   8   4   14.97   16.42
   9   8  -4    7.73    6.39
   9   8  -4    3.94    8.88
   9  -8  -4   16.27    9.38
   9   8  -3  701.81   59.58
  -9   8   3  795.47   88.37
   9   8  -3  640.58   47.85
   9   8  -3  691.28   60.78
   9  -8  -3  632.64   54.34
  -9   8   3  620.02   73.25
   9  -8  -3  720.07   61.83
   9   8  -3  710.74   50.90
  -9   8   2   36.78   17.52
   9  -8  -2   65.32   17.47
  -9   8   2   56.19   25.45
   9   8  -2   48.80   16.62
   9  -8  -2   36.43   11.28
   9  -8  -2   34.43   14.02
   9  -8  -1  696.47   62.88
   9  -8  -1  628.15   50.70
  -9   8   1  821.27   89.87
   9   8  -1  628.20   60.88
  -9   8   1  526.11   66.67
   9  -8  -1  675.46   62.73
  -9   9   7  185.48   38.52
   9   9  -7  202.55   28.99
   9   9  -6  744.77   60.18
   9  -9  -6  711.19   69.66
  -9   9   6  721.07   81.09
   9   9  -6  707.70   60.13
   9  -9  -6  661.79   61.58
   9  -9  -6  787.34   60.93
  -9   9   6  727.01   80.54
  -9   9   5   37.38   21.16
   9   9  -5    5.49    9.43
   9  -9  -5   -1.50   11.78
  -9   9   5    2.50   13.37
   9   9  -5   15.77    9.53
   9   9  -5    6.64    6.79
   9  -9  -5    5.99    8.38
   9  -9  -5   28.24   12.08
  -9   9   4   79.34   26.60
  -9   9   4   39.52   21.11
   9   9  -4   40.32   13.97
   9   9  -4   43.36   11.53
   9  -9  -4   25.90   10.88
   9  -9  -4   37.18   13.42
  -9   9   3   15.62   17.42
   9   9  -3    7.88   10.13
   9   9  -3   18.76    7.88
  -9   9   3   27.30   22.31
   9   9  -3   36.83   13.32
   9  -9  -3   21.31   10.33
   9  -9  -3   32.34   14.22
  -9   9   2   39.12   23.35
   9   9  -2   41.02   15.12
   9  -9  -2   44.46   12.28
   9  -9  -2   37.23   14.92
   9  -9  -2   39.82   15.52
  -9   9   2   40.27   21.31
   9  -9  -1  244.66   37.43
   9  -9  -1  284.19   37.87
   9  -9  -1  265.17   28.79
  -9   9   1  310.53   55.44
   9   9  -1  302.65   37.97
   9  -9  -1  265.82   36.63
  -9   9   1  227.90   43.06
   9  10  -7 1422.93  104.34
   9  10  -6  894.97   66.27
  -9  10   6  777.16   89.12
   9  10  -6  767.43   65.97
   9 -10  -6  788.88   69.41
  -9  10   6  855.00   90.07
   9 -10  -6  924.46   68.51
   9  10  -5  778.21   60.68
  -9  10   5  622.11   82.69
   9  10  -5  680.20   57.84
   9  10  -5  767.78   60.98
   9 -10  -5  697.42   61.83
  -9  10   5  688.78   81.24
   9 -10  -5  815.43   64.17
  -9  10   4   18.76   16.47
   9  10  -4    4.59    9.73
  -9  10   4    5.59   15.02
   9  10  -4   30.49    9.83
   9 -10  -4   12.33    9.03
   9 -10  -4    2.15    8.68
   9  10  -3 2253.93  152.25
  -9  10   3 2736.62  200.90
   9  10  -3 2434.17  158.24
   9 -10  -3 2295.29  150.65
  -9  10   3 2058.46  178.60
   9 -10  -3 2565.16  159.13
   9 -10  -2 1481.56  114.82
   9 -10  -2 1418.53   99.90
  -9  10   2 1869.84  151.85
   9  10  -2 1409.10  108.83
  -9  10   2 1332.95  127.95
   9 -10  -2 1493.34  110.58
   9 -10  -2 1549.62  110.08
   9 -10  -1  845.07   64.77
  -9  10   1  809.94   91.52
   9 -10  -1  930.30   77.05
   9  11  -7  314.92   37.68
  -9  11   6   58.93   24.10
  -9  11   6   81.69   28.29
   9 -11  -6   78.74   18.96
   9  11  -6   78.54   17.66
   9 -11  -6   79.84   17.81
  -9  11   5   91.52   30.44
   9  11  -5   84.28   17.62
  -9  11   5   53.84   25.00
   9  11  -5   84.08   17.66
   9  11  -5   80.59   16.17
   9 -11  -5   55.29   16.87
   9  11  -4   -0.90    8.83
  -9  11   4    2.94   13.32
   9  11  -4    1.05    7.19
   9 -11  -4    1.00    7.98
   9  11  -4    4.99    6.29
   9 -11  -4   -1.10    9.03
   9 -11  -3  486.48   55.39
  -9  11   3  647.36   83.73
   9 -11  -3  495.72   46.51
  -9  11   3  447.71   67.52
   9 -11  -3  532.49   51.75
   9 -11  -2  206.29   27.20
   9  11  -2  265.87   34.98
  -9  11   2  218.87   50.75
   9 -11  -2  221.86   33.68
   9 -11  -2  215.32   32.29
  -9  11   2  195.96   44.51
   9 -11  -1  179.24   23.85
   9  11  -1  188.08   30.09
  -9  11   1  174.35   42.22
   9  12  -7   29.19   12.82
  -9  12   6  100.10   31.79
   9  12  -6   76.10   17.71
   9 -12  -6   62.58   17.12
  -9  12   5 1505.46  140.22
   9  12  -5 1324.17   95.26
   9 -12  -5 1336.95  100.05
  -9  12   5 1294.88  126.40
   9 -12  -5 1477.02  102.25
   9  12  -4  364.78   35.98
   9  12  -4  291.87   31.09
  -9  12   4  376.25   63.22
   9  12  -4  326.05   37.63
   9 -12  -4  280.34   34.43
  -9  12   4  323.56   56.09
   9 -12  -4  329.35   38.62
   9  12  -3   74.50   17.52
  -9  12   3   69.86   30.79
   9  12  -3   55.04   16.92
   9 -12  -3   59.83   16.07
   9 -12  -3   90.12   21.26
  -9  12   3   79.29   30.34
   9 -12  -2 1434.45  101.85
   9  12  -2 1543.19  111.48
  -9  12   2 1472.88  138.48
   9 -12  -1  176.95   23.70
  -9  12   1  161.73   41.57
  -9  13   6   96.01   32.88
   9  13  -6   84.78   18.61
   9 -13  -6  113.67   21.61
  -9  13   5 1155.76  123.55
   9  13  -5 1043.73   80.04
  -9  13   5 1120.43  113.97
   9 -13  -5 1177.36   87.63
   9  13  -4  385.14   42.27
  -9  13   4  468.87   74.25
   9 -13  -4  369.42   40.87
   9 -13  -4  401.65   44.36
   9  13  -3   26.85   13.47
  -9  13   3    6.69   17.07
   9 -13  -3    6.89    8.23
  -9  13   3    2.89   17.76
   9 -13  -3    3.74   10.78
   9  13  -2   11.78   12.77
   9 -13  -2   -0.95    8.48
  -9  13   2    9.13   15.52
   9 -13  -1  687.73   56.79
  -9  13   1  677.55   90.32
   9  14  -6    8.38    9.78
  -9  14   6    6.69   17.12
   9 -14  -6   10.18   11.58
   9  14  -5   43.51   14.32
  -9  14   5   27.94   24.55
   9  14  -5   23.45   10.68
   9 -14  -5   36.63   15.07
   9  14  -4   65.17   17.57
  -9  14   4   88.27   34.18
   9 -14  -4   74.95   17.81
  -9  14   4   38.07   25.20
   9 -14  -4   66.62   18.76
   9  14  -3  150.35   26.80
   9 -14  -3  128.45   22.36
  -9  14   3  128.40   39.27
   9 -14  -2   46.31   14.32
  -9  14   2   46.16   28.69
   9 -14  -1   54.74   15.02
  -9  14   1   45.81   30.69
  -9  15   6 1005.25  119.26
   9  15  -6  851.61   73.95
   9 -15  -6 1093.83   81.59
  -9  15   5  216.87   53.79
   9 -15  -5  179.29   29.14
   9  15  -4   16.47   11.03
   9  15  -3   62.73   19.21
  -9  15   3   81.69   33.53
   9 -15  -2  296.06   34.48
  -9  15   2  284.63   60.78
   9 -15  -1  569.07   51.75
  -9  15   1  675.46   96.96
   9  16  -4   13.27   10.88
   9  17  -4   65.82   18.51
  10   0  -7  475.71   52.25
  10   0  -7  505.35   49.65
  10   0  -6   13.82   10.33
  10   0  -6   -1.30   12.43
  10   0  -6   18.31    9.58
  10   0  -5 1573.48  107.09
  10   0  -5 1539.69  106.04
  10   0  -4  596.07   58.78
  10   0  -4  607.04   52.94
  10   0  -4  598.91   53.99
  10   0  -4  538.98   47.16
  10   0  -3  610.24   61.48
  10   0  -3  693.02   58.08
  10   0  -3  621.12   58.43
  10   0  -2  172.36   28.59
  10   0  -2  198.31   28.34
  10   0  -1  547.96   52.35
  10   0   0   25.85   12.48
  10   1  -8   18.56   14.82
  10   1  -7  255.04   35.58
  10  -1  -7  247.81   36.68
  10  -1  -7  277.70   34.63
  10   1  -7  256.94   33.18
  10   1  -6  312.73   40.02
  10  -1  -6  378.25   44.61
  10  -1  -6  355.49   38.27
  10   1  -6  324.95   36.63
  10   1  -5  649.36   62.43
  10  -1  -5  659.19   63.22
  10   1  -5  690.38   56.54
  10  -1  -5  702.90   57.14
  10  -1  -5  626.21   54.39
  10   1  -5  637.78   54.59
  10   1  -4  634.29   61.48
  10  -1  -4  680.55   63.77
  10   1  -4  708.44   57.19
  10  -1  -4  681.05   57.69
  10   1  -4  640.13   57.44
  10  -1  -4  584.34   50.70
  10   1  -4  615.73   51.15
  10   1  -3  363.63   43.31
  10  -1  -3  342.32   42.96
  10  -1  -3  333.49   38.57
  10   1  -3  341.22   39.72
  10   1  -3  349.26   37.73
  10   1  -2  269.61   37.58
  10  -1  -2  277.25   36.63
  10   1  -2  290.57   34.28
  10  -1  -2  302.65   35.88
  10  -1  -1   23.55   13.17
  10   1  -1   28.49   12.18
  10   2  -8   11.58   12.38
  10  -2  -7   39.52   14.47
  10   2  -7   33.93   16.22
  10   2  -7   25.20   12.62
  10  -2  -6   15.07   10.23
  10   2  -6    2.89    7.83
  10   2  -6   13.72   11.03
  10  -2  -6   13.77   13.67
  10  -2  -6    3.24    7.88
  10  -2  -5  456.69   50.60
  10   2  -5  478.30   43.81
  10   2  -5  453.70   42.42
  10  -2  -5  499.46   45.31
  10  -2  -5  414.33   41.57
  10   2  -5  402.55   40.67
  10   2  -4   51.25   16.42
  10  -2  -4   45.66   16.42
  10  -2  -4   26.80   11.83
  10   2  -4   32.04   12.72
  10  -2  -4   28.69   12.72
  10   2  -4   43.11   13.22
  10  -2  -4   44.96   12.13
  10   2  -4   41.12   11.38
  10   2  -3   73.45   20.01
  10  -2  -3   67.02   19.86
  10   2  -3   55.89   16.32
  10  -2  -3   69.31   17.62
  10  -2  -3   49.35   12.08
  10   2  -3   57.54   15.17
  10  -2  -3   69.56   16.72
  10   2  -2  102.65   23.55
  10   2  -2  109.18   20.56
  10   2  -2  100.25   21.96
  10  -2  -2  139.42   25.40
  10  -2  -2  127.90   23.20
  10   2  -1  410.09   42.07
  10  -2  -1  388.73   43.76
  10   3  -8   14.92   12.67
  10   3  -7  679.20   61.78
  10  -3  -7  611.69   58.28
  10   3  -7  648.36   58.33
  10   3  -6  328.65   39.57
  10  -3  -6  306.79   35.73
  10   3  -6  313.53   35.28
  10   3  -5  545.17   56.19
  10  -3  -5  622.11   61.33
  10   3  -5  630.50   51.45
  10   3  -5  595.47   52.40
  10  -3  -5  620.37   53.69
  10  -3  -5  574.66   51.35
  10   3  -5  591.13   50.60
  10   3  -4  114.32   23.35
  10  -3  -4  125.20   25.65
  10   3  -4  108.09   19.01
  10  -3  -4  102.15   21.21
  10   3  -4  108.09   17.22
  10  -3  -4  101.40   18.06
  10   3  -3  384.44   45.06
  10  -3  -3  400.90   43.16
  10  -3  -3  399.06   36.88
  10   3  -3  380.39   43.06
  10  -3  -3  420.17   44.61
  10   3  -3  430.40   40.22
  10   3  -2  258.34   36.88
  10   3  -2  236.18   33.88
  10   3  -2  278.05   31.49
  10  -3  -2  276.40   36.23
  10  -3  -2  309.64   37.08
  10   3  -1 1365.69  100.95
  10  -3  -1 1592.89  110.48
  10   4  -8  213.03   31.94
  10   4  -7  121.16   25.05
  10   4  -7  141.57   24.90
  10   4  -6  645.02   59.88
  10  -4  -6  661.34   53.99
  10  -4  -6  644.22   56.84
  10   4  -6  598.16   54.49
  10   4  -5  273.81   35.48
  10   4  -5  249.55   30.24
  10  -4  -5  241.97   29.94
  10   4  -5  232.94   28.24
  10   4  -4   29.84    9.93
  10   4  -4   19.66   12.08
  10   4  -4   29.19   13.02
  10  -4  -4   33.28   14.32
  10  -4  -4   29.54   11.03
  10   4  -3  146.86   26.90
  10  -4  -3  134.68   24.50
  10  -4  -3  146.86   20.56
  10   4  -3  160.23   25.85
  10   4  -3  160.03   22.21
  10  -4  -3  142.17   25.35
  10  -4  -2  401.25   44.56
  10   4  -2  423.71   46.21
  10   4  -2  365.47   37.48
  10  -4  -2  409.89   45.36
  10   4  -2  386.08   45.76
  10   5  -7  822.17   69.21
  10   5  -7  832.00   70.51
  10   5  -6   85.38   20.06
  10   5  -6   79.19   17.47
  10  -5  -6   98.75   18.26
  10  -5  -6   73.90   18.11
  10   5  -5  397.56   43.26
  10   5  -5  390.67   39.32
  10  -5  -5  325.75   37.13
  10  -5  -5  412.13   41.02
  10   5  -5  368.47   37.08
  10   5  -4  164.27   27.25
  10  -5  -4  147.26   22.16
  10  -5  -4  166.47   26.65
  10   5  -3 1189.64   94.21
  10  -5  -3 1300.77   94.66
  10  -5  -3 1126.31   83.18
  10   5  -3 1218.28   93.07
  10  -5  -3 1289.04   94.71
  10  -5  -2  453.45   48.90
  10   5  -2  433.09   49.25
  10   5  -2  499.91   51.45
  10   6  -7  538.03   51.60
  10   6  -7  535.29   52.20
  10   6  -6   64.92   18.41
  10   6  -6   63.77   15.42
  10  -6  -6   64.77   15.72
  10  -6  -6   65.32   16.52
  10   6  -5  533.84   50.85
  10   6  -5  492.17   45.86
  10  -6  -5  441.02   45.16
  10  -6  -5  465.48   46.21
  10   6  -5  481.64   43.46
 -10   6   4  485.89   65.52
  10   6  -4  619.37   56.64
 -10   6   4  611.94   78.19
  10   6  -4  598.56   54.14
  10  -6  -4  533.04   48.95
  10  -6  -4  596.92   55.14
  10   6  -3  290.37   37.03
  10  -6  -3  280.14   30.54
  10   6  -3  285.23   36.33
  10  -6  -3  279.50   36.23
  10  -6  -3  307.84   37.73
 -10   6   3  253.85   43.81
  10   6  -2    1.25    9.18
  10   7  -7  341.62   39.42
  10   7  -6    7.44   10.38
  10   7  -6    2.84    7.44
  10  -7  -6    1.05    8.53
  10  -7  -6   15.67    9.93
  10   7  -5   97.26   21.11
 -10   7   5  112.23   31.84
 -10   7   5  108.48   32.49
  10   7  -5  105.89   18.61
  10   7  -5  118.81   20.66
  10  -7  -5   91.97   19.11
  10  -7  -5  121.81   21.61
  10   7  -4  989.34   77.80
 -10   7   4  939.98  103.89
  10   7  -4  934.05   75.45
  10  -7  -4  902.41   71.01
  10  -7  -4  989.69   77.55
 -10   7   4  827.01   91.87
  10   7  -3  434.84   46.21
 -10   7   3  486.33   71.71
  10  -7  -3  397.06   38.72
  10   7  -3  428.50   45.76
  10  -7  -3  446.86   47.61
 -10   7   3  350.70   54.14
  10   7  -2  249.70   34.43
  10   8  -7 1152.81   88.57
  10   8  -6   45.36   13.92
  10   8  -5  206.14   29.14
 -10   8   5  203.05   42.86
 -10   8   5  205.89   45.41
  10   8  -5  192.87   27.05
  10  -8  -5  181.04   26.75
  10  -8  -5  247.41   30.99
  10   8  -4  573.11   55.74
 -10   8   4  696.47   86.93
  10   8  -4  609.34   55.99
  10  -8  -4  631.85   53.49
  10  -8  -4  620.17   57.14
 -10   8   4  505.55   70.61
  10   8  -3  205.44   30.29
 -10   8   3  141.87   35.78
  10  -8  -3  214.67   26.55
  10   8  -3  228.30   32.29
  10   8  -2   17.17   11.63
  10   9  -6    6.79    9.08
 -10   9   5   61.48   27.45
 -10   9   5   90.77   32.49
  10  -9  -5   67.77   16.37
  10  -9  -5   67.62   18.71
  10   9  -4  527.05   50.35
  10   9  -4  505.90   50.00
  10  -9  -4  447.26   44.96
  10  -9  -4  524.11   51.40
 -10   9   4  395.12   63.32
 -10   9   3  131.54   34.83
  10   9  -3  138.92   24.40
  10  -9  -3  136.53   20.86
  10   9  -3  144.96   25.95
 -10  10   5 1124.97  122.91
  10 -10  -5 1198.47   90.42
 -10  10   4    5.34   12.87
  10  10  -4    5.69    8.48
  10 -10  -4   15.47    9.98
 -10  10   3   29.09   20.71
  10  10  -3   43.26   15.42
  10  10  -3   37.92   16.07
  10 -10  -3   37.73   12.38
  10  10  -2   11.73   11.33
 -10  11   5  222.76   52.05
  10 -11  -5  228.85   32.04
 -10  11   4    8.43   15.92
  10 -11  -4   18.81   10.58
 -10  11   3  239.72   49.65
  10 -11  -3  228.25   29.24
  10  12  -4   32.14   14.27
  10 -12  -3  537.23   49.65
 -10  12   3  571.22   80.84
  11  -2  -4   21.16   13.02
   0   0   0    0.00    0.00


_computing_structure_solution     'SHELXT 2014/5 (Sheldrick, 2014)'
_computing_structure_solution     'SHELXT 2014/5 (Sheldrick, 2014)'
;
_shelx_hkl_checksum              20474
_olex2_submission_special_instructions 'No special instructions were received'
loop_
_space_group_symop_operation_xyz
'x, y, z'
'-x, y+1/2, -z'
'-x, -y, -z'
'x, -y-1/2, z'
loop_
_atom_site_label
_atom_site_type_symbol
_atom_site_fract_x
_atom_site_fract_y
_atom_site_fract_z
_atom_site_U_iso_or_equiv
_atom_site_adp_type
_atom_site_occupancy
_atom_site_site_symmetry_order
_atom_site_calc_flag
_atom_site_refinement_flags_posn
_atom_site_refinement_flags_adp
_atom_site_refinement_flags_occupancy
_atom_site_disorder_assembly
_atom_site_disorder_group
I1 I 0.51038(6) 0.250000 0.31062(6) 0.00661(12) Uani 1 2 d S T P . .
I5 I 1.02594(6) 0.250000 0.60112(6) 0.00712(12) Uani 1 2 d S T P . .
I4 I 0.80258(5) 0.45187(2) 0.90725(4) 0.00648(10) Uani 1 1 d . . . . .
I2 I 0.24858(5) 0.38620(2) 0.36897(5) 0.00751(10) Uani 1 1 d . . . . .
I3 I 0.74182(5) 0.44839(2) 0.37748(5) 0.00797(11) Uani 1 1 d . . . . .
Cs2 Cs 0.33568(5) 0.38115(2) -0.09763(5) 0.01538(11) Uani 1 1 d . . . . .
Cs1 Cs 0.90613(8) 0.250000 0.07098(8) 0.02123(15) Uani 1 2 d S T P . .
Ga1 Ga 0.69644(8) 0.33783(3) 0.63227(8) 0.00604(14) Uani 1 1 d . . . . .
O3 O 0.6795(5) 0.3140(2) 0.4064(5) 0.0097(8) Uani 1 1 d . . . . .
O7 O 0.7624(6) 0.4249(2) 0.5883(6) 0.0138(9) Uani 1 1 d . . . . .
O10 O 1.0365(6) 0.4342(2) 1.0311(6) 0.0197(10) Uani 1 1 d . . . . .
O14 O 0.6283(9) 0.250000 0.6768(7) 0.0046(14) Uani 0.943(17) 2 d S TU P A 1
O12 O 0.9557(5) 0.3132(2) 0.7102(5) 0.0111(8) Uani 1 1 d . . . . .
O5 O 0.4312(6) 0.3572(2) 0.5558(5) 0.0132(9) Uani 1 1 d . . . . .
O6 O 0.5009(7) 0.4549(3) 0.2863(7) 0.0244(11) Uani 1 1 d . . . . .
O2 O 0.2743(6) 0.3328(2) 0.2164(6) 0.0171(9) Uani 1 1 d . . . . .
O13 O 1.2626(8) 0.250000 0.7221(9) 0.0159(13) Uani 1 2 d DS T P . .
O4 O 0.0615(6) 0.3487(2) 0.4014(6) 0.0191(10) Uani 1 1 d . . . . .
O9 O 0.7240(5) 0.36980(19) 0.8514(5) 0.0081(8) Uani 1 1 d . . . . .
O1 O 0.5234(9) 0.250000 0.1118(8) 0.0186(14) Uani 1 2 d S T P . .
O8 O 0.8067(8) 0.5295(2) 0.4194(7) 0.0226(11) Uani 1 1 d . . . . .
O11 O 0.7084(7) 0.4633(2) 1.0626(6) 0.0208(10) Uani 1 1 d . . . . .
H13 H 1.38(2) 0.250000 0.73(7) 0.3(3) Uiso 1 2 d DS T P . .
O15 O 0.550(15) 0.250000 0.686(12) 0.0046(14) Uani 0.057(17) 2 d S T P A 2
loop_
_atom_site_aniso_label
_atom_site_aniso_U_11
_atom_site_aniso_U_22
_atom_site_aniso_U_33
_atom_site_aniso_U_23
_atom_site_aniso_U_13
_atom_site_aniso_U_12
I1 0.0084(2) 0.0042(2) 0.0053(2) 0.000 0.00033(19) 0.000
I5 0.0073(2) 0.0060(2) 0.0083(2) 0.000 0.00311(19) 0.000
I4 0.00895(18) 0.00436(17) 0.00572(19) -0.00127(11) 0.00225(14) -0.00019(12)
I2 0.00733(17) 0.00577(18) 0.0093(2) 0.00258(12) 0.00288(14) 0.00165(11)
I3 0.01248(19) 0.00560(18) 0.0079(2) 0.00192(12) 0.00616(15) 0.00215(12)
Cs2 0.0170(2) 0.0139(2) 0.0168(2) -0.00149(14) 0.00796(16) -0.00184(13)
Cs1 0.0210(3) 0.0188(3) 0.0171(3) 0.000 -0.0010(2) 0.000
Ga1 0.0090(3) 0.0030(3) 0.0057(3) -0.0005(2) 0.0022(2) -0.0002(2)
O3 0.0110(19) 0.0091(18) 0.009(2) -0.0055(15) 0.0035(16) -0.0050(15)
O7 0.028(2) 0.008(2) 0.009(2) -0.0011(16) 0.0112(18) -0.0034(17)
O10 0.011(2) 0.013(2) 0.026(3) 0.0009(19) -0.0025(19) 0.0011(17)
O14 0.0047(17) 0.0042(16) 0.0050(16) 0.000 0.0020(10) 0.000
O12 0.0103(19) 0.0072(18) 0.015(2) -0.0043(16) 0.0033(17) -0.0010(15)
O5 0.0092(19) 0.019(2) 0.009(2) 0.0063(17) 0.0016(17) 0.0043(16)
O6 0.016(2) 0.033(3) 0.023(3) 0.012(2) 0.006(2) 0.002(2)
O2 0.021(2) 0.013(2) 0.017(2) 0.0001(18) 0.0065(19) 0.0097(18)
O13 0.010(3) 0.014(3) 0.024(4) 0.000 0.007(3) 0.000
O4 0.015(2) 0.021(2) 0.023(3) 0.0037(19) 0.009(2) -0.0057(18)
O9 0.016(2) 0.0030(18) 0.007(2) -0.0029(14) 0.0055(17) -0.0034(14)
O1 0.027(4) 0.019(3) 0.008(3) 0.000 0.005(3) 0.000
O8 0.043(3) 0.007(2) 0.023(3) 0.0009(18) 0.018(2) -0.003(2)
O11 0.033(3) 0.019(2) 0.018(2) -0.0066(19) 0.019(2) -0.001(2)
O15 0.0047(17) 0.0042(16) 0.0050(16) 0.000 0.0020(10) 0.000
loop_
_atom_type_symbol
_atom_type_description
_atom_type_scat_dispersion_real
_atom_type_scat_dispersion_imag
_atom_type_scat_source
Cs Cs -0.3680 2.1192 'International Tables Vol C Tables 4.2.6.8 and 6.1.1.4'
Ga Ga 0.2307 1.6083 'International Tables Vol C Tables 4.2.6.8 and 6.1.1.4'
H H 0.0000 0.0000 'International Tables Vol C Tables 4.2.6.8 and 6.1.1.4'
I I -0.4742 1.8119 'International Tables Vol C Tables 4.2.6.8 and 6.1.1.4'
O O 0.0106 0.0060 'International Tables Vol C Tables 4.2.6.8 and 6.1.1.4'
loop_
_geom_angle_atom_site_label_1
_geom_angle_atom_site_label_2
_geom_angle_atom_site_label_3
_geom_angle
_geom_angle_site_symmetry_1
_geom_angle_site_symmetry_3
_geom_angle_publ_flag
Cs2 I1 Cs2 80.195(14) . 4_565 ?
Cs2 I1 Cs1 69.695(11) 4_565 1_455 ?
Cs2 I1 Cs1 69.695(11) . 1_455 ?
O15b Cs1 Ga1 35.4(11) 1_554 4_564 ?
Cs2 I1 Cs1 71.130(11) . . ?
O14a Cs1 Ga1 30.06(5) 1_554 4_564 ?
O15b Cs1 O12 58.1(17) 1_554 4_564 ?
O14a Cs1 O12 48.61(12) 1_554 4_564 ?
O14a Cs1 O12 48.61(12) 1_554 1_554 ?
O15b Cs1 O12 58.1(17) 1_554 1_554 ?
O14a Cs1 O4 140.22(9) 1_554 4_665 ?
Cs2 I1 Cs1 71.130(11) 4_565 . ?
Cs1 I1 Cs1 128.010(19) . 1_455 ?
O3 I1 Cs2 81.94(13) . . ?
O3 I1 Cs2 142.36(12) . 4_565 ?
O3 I1 Cs2 142.36(12) 4_565 . ?
O3 I1 Cs2 81.94(13) 4_565 4_565 ?
O3 I1 Cs1 71.82(12) . . ?
O3 I1 Cs1 132.63(13) . 1_455 ?
O14a Cs1 O4 140.22(9) 1_554 1_655 ?
O14a Ga1 Cs2 79.44(18) . 1_556 ?
O3 I1 Cs1 132.63(13) 4_565 1_455 ?
O3 I1 Cs1 71.82(12) 4_565 . ?
O3 I1 O3 92.7(3) . 4_565 ?
O3 I1 O2 88.02(17) . . ?
O3 I1 O2 172.26(17) . 4_565 ?
O3 I1 O2 172.26(17) 4_565 . ?
O3 I1 O2 88.02(17) 4_565 4_565 ?
O2 I1 Cs2 102.13(11) 4_565 . ?
O2 I1 Cs2 45.36(11) . . ?
O2 I1 Cs2 102.13(11) . 4_565 ?
O2 I1 Cs2 45.36(11) 4_565 4_565 ?
O2 I1 Cs1 45.12(11) 4_565 1_455 ?
O2 I1 Cs1 115.65(11) 4_565 . ?
O2 I1 Cs1 115.65(11) . . ?
O2 I1 Cs1 45.12(11) . 1_455 ?
O2 I1 O2 90.2(2) 4_565 . ?
O1 I1 Cs2 46.61(10) . . ?
O1 I1 Cs2 46.61(11) . 4_565 ?
O1 I1 Cs1 38.9(2) . . ?
O15b Ga1 Cs2 66(2) . 1_556 ?
O15b Ga1 Cs1 60(3) . 1_556 ?
O14a Ga1 Cs1 55.64(17) . 1_556 ?
Ga1 O14a Cs1 94.30(18) 4_565 1_556 ?
Ga1 O14a Cs1 94.30(18) . 1_556 ?
Ga1 O15b Cs1 85(3) . 1_556 ?
O1 I1 Cs1 89.1(2) . 1_455 ?
O1 I1 O3 98.3(2) . . ?
O1 I1 O3 98.3(2) . 4_565 ?
O1 I1 O2 89.27(19) . 4_565 ?
O1 I1 O2 89.27(19) . . ?
Cs2 I5 Cs2 88.440(16) 1_656 4_666 ?
Cs2 I5 Cs1 122.481(11) 1_656 . ?
Cs2 I5 Cs1 122.481(11) 4_666 . ?
O12 I5 Cs2 113.54(14) 4_565 1_656 ?
O12 I5 Cs2 113.54(14) . 4_666 ?
O12 I5 Cs2 52.10(13) . 1_656 ?
Ga1 O15b Cs1 85(3) 4_565 1_556 ?
Ga1 O15b Ga1 106(5) 4_565 . ?
Ga1 O14a Ga1 134.9(4) 4_565 . ?
O12 I5 Cs2 52.10(13) 4_565 4_666 ?
O12 I5 Cs1 123.80(14) . . ?
O12 I5 Cs1 123.80(14) 4_565 . ?
O12 I5 O12 93.2(3) 4_565 . ?
O13 I5 Cs2 49.59(9) . 4_666 ?
O13 I5 Cs2 49.59(9) . 1_656 ?
O13 I5 Cs1 113.3(2) . . ?
O13 I5 O12 98.6(2) . 4_565 ?
O13 I5 O12 98.6(2) . . ?
Cs2 I4 Cs2 86.745(10) 1_556 3_666 ?
Cs2 I4 Cs1 135.924(13) 3_666 1_556 ?
Cs2 I4 Cs1 72.891(11) 1_556 1_556 ?
O10 I4 Cs2 132.49(16) . 1_556 ?
O10 I4 Cs2 107.38(16) . 3_666 ?
O10 I4 Cs1 65.57(15) . 1_556 ?
O10 I4 O9 97.7(2) . . ?
O9 I4 Cs2 141.18(12) . 3_666 ?
O9 I4 Cs2 54.66(12) . 1_556 ?
O9 I4 Cs1 36.11(13) . 1_556 ?
O11 I4 Cs2 53.90(17) . 1_556 ?
O11 I4 Cs2 49.22(16) . 3_666 ?
O11 I4 Cs1 88.19(17) . 1_556 ?
O11 I4 O10 101.7(2) . . ?
O11 I4 O9 97.5(2) . . ?
Cs2 I2 Cs2 162.951(13) . 1_556 ?
Cs1 I2 Cs2 116.711(12) 1_455 1_556 ?
Cs1 I2 Cs2 72.235(12) 1_455 . ?
O5 I2 Cs2 45.56(13) . 1_556 ?
O5 I2 Cs2 117.99(13) . . ?
O5 I2 Cs1 116.11(15) . 1_455 ?
O2 I2 Cs2 137.35(15) . 1_556 ?
O2 I2 Cs2 37.23(15) . . ?
O2 I2 Cs1 48.24(15) . 1_455 ?
O2 I2 O5 100.0(2) . . ?
O4 I2 Cs2 124.04(16) . . ?
O4 I2 Cs2 69.10(16) . 1_556 ?
O4 I2 Cs1 53.23(16) . 1_455 ?
O4 I2 O5 98.1(2) . . ?
O4 I2 O2 99.3(2) . . ?
Cs2 I3 Cs2 80.714(10) 3_665 . ?
O7 I3 Cs2 137.25(13) . 3_665 ?
O7 I3 Cs2 127.26(14) . . ?
O6 I3 Cs2 47.12(19) . . ?
O6 I3 Cs2 77.09(17) . 3_665 ?
O6 I3 O7 98.6(2) . . ?
O6 I3 O8 101.4(3) . . ?
O8 I3 Cs2 123.60(18) . . ?
O8 I3 Cs2 43.56(17) . 3_665 ?
O8 I3 O7 98.2(2) . . ?
O10 Cs2 I5 96.76(9) 1_454 1_454 ?
O10 Cs2 O12 70.11(11) 1_454 1_454 ?
O10 Cs2 O5 143.44(11) 1_454 1_554 ?
O10 Cs2 O6 64.48(12) 1_454 . ?
O10 Cs2 O9 159.10(11) 1_454 1_554 ?
O10 Cs2 O1 109.95(15) 1_454 . ?
O10 Cs2 O8 91.71(13) 1_454 3_665 ?
O10 Cs2 O11 109.77(12) 1_454 1_554 ?
O10 Cs2 O11 60.16(12) 1_454 3_666 ?
O12 Cs2 I5 27.02(7) 1_454 1_454 ?
O12 Cs2 O5 86.93(11) 1_454 1_554 ?
O12 Cs2 O6 130.71(11) 1_454 . ?
O12 Cs2 O9 130.41(10) 1_454 1_554 ?
O12 Cs2 O1 93.17(13) 1_454 . ?
O12 Cs2 O8 81.37(12) 1_454 3_665 ?
O12 Cs2 O11 173.02(12) 1_454 1_554 ?
O12 Cs2 O11 112.39(12) 1_454 3_666 ?
O5 Cs2 I5 66.40(8) 1_554 1_454 ?
O5 Cs2 O6 142.06(11) 1_554 . ?
O6 Cs2 I5 150.18(8) . 1_454 ?
O2 Cs2 I5 95.07(9) . 1_454 ?
O2 Cs2 O10 55.19(12) . 1_454 ?
O2 Cs2 O12 83.52(12) . 1_454 ?
O2 Cs2 O5 152.07(11) . 1_554 ?
O2 Cs2 O6 55.39(12) . . ?
O2 Cs2 O13 94.98(14) . 1_454 ?
O2 Cs2 O9 123.56(11) . 1_554 ?
O2 Cs2 O1 55.58(14) . . ?
O2 Cs2 O8 146.72(12) . 3_665 ?
O2 Cs2 O11 102.22(12) . 1_554 ?
O2 Cs2 O11 100.86(12) . 3_666 ?
O13 Cs2 I5 25.64(11) 1_454 1_454 ?
O13 Cs2 O10 117.66(14) 1_454 1_454 ?
O13 Cs2 O12 51.41(13) 1_454 1_454 ?
O13 Cs2 O5 59.09(14) 1_454 1_554 ?
O13 Cs2 O6 144.38(14) 1_454 . ?
O13 Cs2 O9 82.95(13) 1_454 1_554 ?
O13 Cs2 O1 60.05(15) 1_454 . ?
O13 Cs2 O8 98.40(14) 1_454 3_665 ?
O13 Cs2 O11 155.96(15) 1_454 3_666 ?
O13 Cs2 O11 130.98(14) 1_454 1_554 ?
O9 Cs2 I5 104.06(7) 1_554 1_454 ?
O9 Cs2 O5 48.87(10) 1_554 1_554 ?
O9 Cs2 O6 97.04(11) 1_554 . ?
O9 Cs2 O1 76.19(14) 1_554 . ?
O9 Cs2 O11 102.71(11) 1_554 3_666 ?
O1 Cs2 I5 79.74(10) . 1_454 ?
O1 Cs2 O5 99.04(13) . 1_554 ?
O1 Cs2 O6 85.21(13) . . ?
O8 Cs2 I5 84.57(9) 3_665 1_454 ?
O8 Cs2 O5 55.96(11) 3_665 1_554 ?
O8 Cs2 O6 117.23(12) 3_665 . ?
O8 Cs2 O9 88.38(12) 3_665 1_554 ?
O8 Cs2 O1 154.47(13) 3_665 . ?
O8 Cs2 O11 91.67(13) 3_665 1_554 ?
O8 Cs2 O11 58.92(12) 3_665 3_666 ?
O11 Cs2 I5 153.32(8) 1_554 1_454 ?
O11 Cs2 I5 133.48(9) 3_666 1_454 ?
O11 Cs2 O5 89.64(11) 1_554 1_554 ?
O11 Cs2 O5 107.04(11) 3_666 1_554 ?
O11 Cs2 O6 58.91(12) 3_666 . ?
O11 Cs2 O6 52.42(11) 1_554 . ?
O11 Cs2 O9 49.35(11) 1_554 1_554 ?
O11 Cs2 O1 143.93(13) 3_666 . ?
O11 Cs2 O1 93.38(14) 1_554 . ?
O11 Cs2 O11 62.91(15) 1_554 3_666 ?
O12 Cs1 Ga1 29.63(7) 4_564 4_564 ?
O12 Cs1 Ga1 58.62(7) 1_554 4_564 ?
O12 Cs1 O12 44.14(13) 4_564 1_554 ?
O2 Cs1 Ga1 128.32(8) 1_655 4_564 ?
O2 Cs1 Ga1 96.75(8) 4_665 4_564 ?
O2 Cs1 O14 124.23(12) 1_655 1_554 ?
O2 Cs1 O14 124.23(12) 4_665 1_554 ?
O2 Cs1 O12 99.77(10) 4_665 1_554 ?
O2 Cs1 O12 99.77(10) 1_655 4_564 ?
O2 Cs1 O12 76.28(11) 4_665 4_564 ?
O2 Cs1 O12 76.28(11) 1_655 1_554 ?
O2 Cs1 O2 65.59(15) 1_655 4_665 ?
O2 Cs1 O4 90.56(12) 4_665 1_655 ?
O2 Cs1 O4 90.56(12) 1_655 4_665 ?
O2 Cs1 O4 48.91(11) 4_665 4_665 ?
O2 Cs1 O4 48.91(11) 1_655 1_655 ?
O2 Cs1 O15 132.0(13) 1_655 1_554 ?
O2 Cs1 O15 132.0(13) 4_665 1_554 ?
O4 Cs1 Ga1 169.62(8) 1_655 4_564 ?
O4 Cs1 Ga1 114.36(8) 4_665 4_564 ?
O4 Cs1 O12 112.93(10) 1_655 1_554 ?
O4 Cs1 O12 112.93(10) 4_665 4_564 ?
O4 Cs1 O12 148.47(10) 4_665 1_554 ?
O4 Cs1 O12 148.47(10) 1_655 4_564 ?
O4 Cs1 O4 76.02(17) 1_655 4_665 ?
O4 Cs1 O15 136.3(9) 4_665 1_554 ?
O4 Cs1 O15 136.3(9) 1_655 1_554 ?
O9 Cs1 Ga1 28.73(7) 4_564 4_564 ?
O9 Cs1 Ga1 82.10(7) 1_554 4_564 ?
O9 Cs1 O14 53.11(7) 1_554 1_554 ?
O9 Cs1 O14 53.11(7) 4_564 1_554 ?
O9 Cs1 O12 49.17(10) 4_564 4_564 ?
O9 Cs1 O12 49.17(10) 1_554 1_554 ?
O9 Cs1 O12 86.86(10) 4_564 1_554 ?
O9 Cs1 O12 86.86(10) 1_554 4_564 ?
O9 Cs1 O2 86.96(11) 4_564 4_665 ?
O9 Cs1 O2 86.96(11) 1_554 1_655 ?
O9 Cs1 O2 144.13(10) 1_554 4_665 ?
O9 Cs1 O2 144.13(10) 4_564 1_655 ?
O9 Cs1 O4 160.18(11) 1_554 4_665 ?
O9 Cs1 O4 160.18(11) 4_564 1_655 ?
O9 Cs1 O4 87.66(11) 1_554 1_655 ?
O9 Cs1 O4 87.66(11) 4_564 4_665 ?
O9 Cs1 O9 105.71(14) 4_564 1_554 ?
O9 Cs1 O1 79.98(10) 1_554 . ?
O9 Cs1 O1 79.98(10) 4_564 . ?
O9 Cs1 O15 52.99(13) 1_554 1_554 ?
O9 Cs1 O15 52.99(13) 4_564 1_554 ?
O1 Cs1 Ga1 91.61(11) . 4_564 ?
O1 Cs1 O14 79.49(17) . 1_554 ?
O1 Cs1 O12 121.20(13) . 1_554 ?
O1 Cs1 O12 121.20(13) . 4_564 ?
O1 Cs1 O2 135.79(11) . 4_665 ?
O1 Cs1 O2 135.79(11) . 1_655 ?
O1 Cs1 O4 88.23(12) . 4_665 ?
O1 Cs1 O4 88.23(12) . 1_655 ?
O1 Cs1 O15 68.8(19) . 1_554 ?
Cs1 Ga1 Cs2 73.375(14) 1_556 1_556 ?
O3 Ga1 Cs2 139.35(12) . 1_556 ?
O3 Ga1 Cs1 132.51(13) . 1_556 ?
O3 Ga1 O7 88.41(17) . . ?
O3 Ga1 O14 91.7(2) . . ?
O3 Ga1 O12 87.32(17) . . ?
O3 Ga1 O5 92.60(18) . . ?
O3 Ga1 O15 98(2) . . ?
O7 Ga1 Cs2 100.24(12) . 1_556 ?
O7 Ga1 Cs1 124.45(13) . 1_556 ?
O7 Ga1 O14 179.6(2) . . ?
O7 Ga1 O5 93.79(19) . . ?
O7 Ga1 O15 164(2) . . ?
O12 Ga1 Cs2 131.88(13) . 1_556 ?
O12 Ga1 Cs1 62.60(13) . 1_556 ?
O12 Ga1 O7 89.75(19) . . ?
O12 Ga1 O14 90.6(2) . . ?
O12 Ga1 O5 176.46(18) . . ?
O12 Ga1 O15 105(2) . . ?
O5 Ga1 Cs2 47.55(13) . 1_556 ?
O5 Ga1 Cs1 115.24(12) . 1_556 ?
O5 Ga1 O14 85.9(2) . . ?
O5 Ga1 O15 72(2) . . ?
O9 Ga1 Cs2 43.28(12) . 1_556 ?
O9 Ga1 Cs1 51.44(12) . 1_556 ?
O9 Ga1 O3 173.98(17) . . ?
O9 Ga1 O7 85.64(17) . . ?
O9 Ga1 O14 94.2(2) . . ?
O9 Ga1 O12 91.72(17) . . ?
O9 Ga1 O5 88.73(18) . . ?
O9 Ga1 O15 88(2) . . ?
I1 O3 Ga1 113.6(2) . . ?
I3 O7 Ga1 120.4(2) . . ?
I4 O10 Cs2 126.8(2) . 1_656 ?
I5 O12 Cs2 100.88(15) . 1_656 ?
I5 O12 Cs1 109.44(17) . 1_556 ?
I5 O12 Ga1 119.3(2) . . ?
Cs2 O12 Cs1 95.67(11) 1_656 1_556 ?
Ga1 O12 Cs2 135.99(18) . 1_656 ?
Ga1 O12 Cs1 87.77(14) . 1_556 ?
I2 O5 Cs2 111.77(17) . 1_556 ?
I2 O5 Ga1 138.7(2) . . ?
Ga1 O5 Cs2 106.73(16) . 1_556 ?
I3 O6 Cs2 110.7(2) . . ?
I1 O2 Cs2 100.25(14) . . ?
I1 O2 Cs1 102.09(15) . 1_455 ?
I2 O2 I1 118.5(2) . . ?
I2 O2 Cs2 122.2(2) . . ?
I2 O2 Cs1 107.11(19) . 1_455 ?
Cs2 O2 Cs1 104.29(14) . 1_455 ?
I5 O13 Cs2 104.77(14) . 4_666 ?
I5 O13 Cs2 104.77(14) . 1_656 ?
I5 O13 H13 151(10) . . ?
Cs2 O13 Cs2 124.7(2) 1_656 4_666 ?
Cs2 O13 H13 88(10) 1_656 . ?
Cs2 O13 H13 88(10) 4_666 . ?
I2 O4 Cs1 101.69(19) . 1_455 ?
I4 O9 Cs2 97.96(15) . 1_556 ?
I4 O9 Cs1 123.86(18) . 1_556 ?
I4 O9 Ga1 119.1(2) . . ?
Cs1 O9 Cs2 102.64(11) 1_556 1_556 ?
Ga1 O9 Cs2 112.60(16) . 1_556 ?
Ga1 O9 Cs1 99.82(15) . 1_556 ?
I1 O1 Cs2 110.84(16) . 4_565 ?
I1 O1 Cs2 110.84(16) . . ?
I1 O1 Cs1 120.7(3) . . ?
Cs2 O1 Cs2 111.84(19) 4_565 . ?
Cs1 O1 Cs2 100.97(13) . 4_565 ?
Cs1 O1 Cs2 100.97(13) . . ?
I3 O8 Cs2 113.9(2) . 3_665 ?
I4 O11 Cs2 99.9(2) . 1_556 ?
I4 O11 Cs2 106.9(2) . 3_666 ?
Cs2 O11 Cs2 117.09(15) 1_556 3_666 ?
loop_
_geom_bond_atom_site_label_1
_geom_bond_atom_site_label_2
_geom_bond_distance
_geom_bond_site_symmetry_2
_geom_bond_publ_flag
I1 Cs2 4.3005(6) . ?
I1 Cs2 4.3005(6) 4_565 ?
O15b Cs1 3.48(10) 1_556 ?
O14a Cs1 3.311(6) 1_556 ?
I1 Cs1 4.3533(8) . ?
I1 Cs1 4.4570(8) 1_455 ?
O15b Ga1 2.33(7) 4_565 ?
O14a Ga1 2.009(3) 4_565 ?
I1 O3 1.867(4) . ?
I1 O3 1.867(4) 4_565 ?
I1 O2 2.469(4) . ?
I1 O2 2.469(4) 4_565 ?
I1 O1 1.764(6) . ?
I5 Cs2 3.9716(6) 4_666 ?
I5 Cs2 3.9716(6) 1_656 ?
I5 Cs1 4.3360(8) . ?
I5 O12 1.837(4) 4_565 ?
I5 O12 1.837(4) . ?
I5 O13 1.777(6) . ?
I4 Cs2 3.9734(5) 1_556 ?
I4 Cs2 4.2068(5) 3_666 ?
I4 Cs1 4.4726(4) 1_556 ?
I4 O10 1.804(5) . ?
I4 O9 1.845(4) . ?
I4 O11 1.781(4) . ?
I2 Cs2 4.3490(6) . ?
I2 Cs2 4.4174(6) 1_556 ?
I2 Cs1 4.1381(6) 1_455 ?
I2 O5 1.833(4) . ?
I2 O2 1.806(4) . ?
I2 O4 1.791(4) . ?
I3 Cs2 4.2573(5) 3_665 ?
I3 Cs2 4.4198(6) . ?
I3 O7 1.842(4) . ?
I3 O6 1.780(5) . ?
I3 O8 1.786(5) . ?
Cs2 I5 3.9717(6) 1_454 ?
Cs2 O10 3.173(5) 1_454 ?
Cs2 O12 3.191(4) 1_454 ?
Cs2 O5 3.396(4) 1_554 ?
Cs2 O6 3.464(6) . ?
Cs2 O2 3.109(5) . ?
Cs2 O13 3.128(3) 1_454 ?
Cs2 O9 3.273(4) 1_554 ?
Cs2 O1 3.344(4) . ?
Cs2 O8 3.209(5) 3_665 ?
Cs2 O11 3.329(5) 3_666 ?
Cs2 O11 3.259(5) 1_554 ?
Cs1 Ga1 3.9995(8) 4_564 ?
Cs1 O14 3.311(6) 1_554 ?
Cs1 O12 3.554(4) 1_554 ?
Cs1 O12 3.554(4) 4_564 ?
Cs1 O2 3.230(5) 1_655 ?
Cs1 O2 3.230(5) 4_665 ?
Cs1 O4 3.385(5) 1_655 ?
Cs1 O4 3.385(5) 4_665 ?
Cs1 O9 3.174(4) 4_564 ?
Cs1 O9 3.174(4) 1_554 ?
Cs1 O1 3.179(7) . ?
Cs1 O15 3.48(10) 1_554 ?
Ga1 Cs2 4.4076(7) 1_556 ?
Ga1 Cs1 3.9995(8) 1_556 ?
Ga1 O3 1.978(4) . ?
Ga1 O7 1.987(4) . ?
Ga1 O14 2.009(3) . ?
Ga1 O12 1.979(4) . ?
Ga1 O5 1.997(4) . ?
Ga1 O9 1.951(4) . ?
Ga1 O15 2.33(7) . ?
O10 Cs2 3.173(5) 1_656 ?
O12 Cs2 3.191(4) 1_656 ?
O12 Cs1 3.554(4) 1_556 ?
O5 Cs2 3.396(4) 1_556 ?
O2 Cs1 3.230(5) 1_455 ?
O13 Cs2 3.127(3) 1_656 ?
O13 Cs2 3.127(3) 4_666 ?
O13 H13 0.90(2) . ?
O4 Cs1 3.385(5) 1_455 ?
O9 Cs2 3.273(4) 1_556 ?
O9 Cs1 3.174(4) 1_556 ?
O1 Cs2 3.344(4) 4_565 ?
O8 Cs2 3.209(5) 3_665 ?
O11 Cs2 3.329(5) 3_666 ?
O11 Cs2 3.259(5) 1_556 ?
