#------------------------------------------------------------------------------
#$Date: 2021-11-05 04:33:30 +0200 (Fri, 05 Nov 2021) $
#$Revision: 270323 $
#$URL: file:///home/coder/svn-repositories/cod/cif/7/24/38/7243851.cif $
#------------------------------------------------------------------------------
#
# This file is available in the Crystallography Open Database (COD),
# http://www.crystallography.net/
#
# All data on this site have been placed in the public domain by the
# contributors.
#
data_7243851
loop_
_publ_author_name
'Dowarah, Jayanta'
'Patel, Devanshi'
'Marak, Brilliant N.'
'Yadav, Umesh Chand Singh'
'Shah, Pramod Kumar'
'Shukla, Pradeep Kumar'
'Singh, Ved Prakash'
_publ_section_title
;
 Green synthesis, structural analysis and anticancer activity of
 dihydropyrimidinone derivatives
;
_journal_issue                   57
_journal_name_full               'RSC Advances'
_journal_page_first              35737
_journal_page_last               35753
_journal_paper_doi               10.1039/D1RA03969E
_journal_volume                  11
_journal_year                    2021
_chemical_formula_moiety         'C14 H15 Cl N2 O2 S'
_chemical_formula_sum            'C14 H15 Cl N2 O2 S'
_chemical_formula_weight         310.81
_space_group_crystal_system      triclinic
_space_group_IT_number           2
_space_group_name_Hall           '-P 1'
_space_group_name_H-M_alt        'P -1'
_symmetry_Int_Tables_number      2
_audit_creation_date             2019-05-25
_audit_creation_method
;
Olex2 1.2
(compiled 2018.05.29 svn.r3508 for OlexSys, GUI svn.r5506)
;
_audit_update_record
;
2019-06-29 deposited with the CCDC.	2021-10-14 downloaded from the CCDC.
;
_cell_angle_alpha                107.568(3)
_cell_angle_beta                 90.583(3)
_cell_angle_gamma                107.829(2)
_cell_formula_units_Z            2
_cell_length_a                   7.3066(6)
_cell_length_b                   10.4657(8)
_cell_length_c                   10.6788(9)
_cell_measurement_reflns_used    7717
_cell_measurement_temperature    296(2)
_cell_measurement_theta_max      27.14
_cell_measurement_theta_min      2.43
_cell_volume                     736.37(10)
_computing_molecular_graphics    'Olex2 (Dolomanov et al., 2009)'
_computing_publication_material  'Olex2 (Dolomanov et al., 2009)'
_computing_structure_refinement  'olex2.refine (Bourhis et al., 2015)'
_diffrn_ambient_temperature      296.15
_diffrn_measured_fraction_theta_full 0.9951
_diffrn_measured_fraction_theta_max 0.9951
_diffrn_measurement_device_type  'Bruker APEX-II CCD'
_diffrn_measurement_method       '\f and \w scans'
_diffrn_radiation_type           'Mo K\a'
_diffrn_radiation_wavelength     0.71073
_diffrn_reflns_av_R_equivalents  0.0215
_diffrn_reflns_av_unetI/netI     0.0156
_diffrn_reflns_limit_h_max       9
_diffrn_reflns_limit_h_min       -9
_diffrn_reflns_limit_k_max       13
_diffrn_reflns_limit_k_min       -13
_diffrn_reflns_limit_l_max       13
_diffrn_reflns_limit_l_min       -13
_diffrn_reflns_number            14725
_diffrn_reflns_theta_full        27.1574
_diffrn_reflns_theta_max         27.16
_diffrn_reflns_theta_min         3.38
_diffrn_standards_number         0
_exptl_absorpt_coefficient_mu    0.403
_exptl_absorpt_correction_type   none
_exptl_crystal_colour            Yellow
_exptl_crystal_density_diffrn    1.4016
_exptl_crystal_description       Rectangular
_exptl_crystal_F_000             324.6689
_exptl_crystal_size_max          0.26
_exptl_crystal_size_mid          0.25
_exptl_crystal_size_min          0.20
_refine_diff_density_max         0.2794
_refine_diff_density_min         -0.4253
_refine_diff_density_rms         0.0715
_refine_ls_d_res_high            0.7786
_refine_ls_d_res_low             6.0329
_refine_ls_goodness_of_fit_ref   1.0760
_refine_ls_hydrogen_treatment    mixed
_refine_ls_matrix_type           full
_refine_ls_number_constraints    21
_refine_ls_number_parameters     191
_refine_ls_number_reflns         3263
_refine_ls_number_restraints     0
_refine_ls_restrained_S_all      1.0760
_refine_ls_R_factor_all          0.0429
_refine_ls_R_factor_gt           0.0384
_refine_ls_shift/su_max          0.0003
_refine_ls_shift/su_mean         0.0000
_refine_ls_structure_factor_coef Fsqd
_refine_ls_weighting_details
'w=1/[\s^2^(Fo^2^)+(0.0643P)^2^+0.2424P] where P=(Fo^2^+2Fc^2^)/3'
_refine_ls_weighting_scheme      calc
_refine_ls_wR_factor_gt          0.1104
_refine_ls_wR_factor_ref         0.1156
_reflns_Friedel_coverage         0.0
_reflns_limit_h_max              9
_reflns_limit_h_min              -9
_reflns_limit_k_max              12
_reflns_limit_k_min              -13
_reflns_limit_l_max              13
_reflns_limit_l_min              0
_reflns_number_gt                2892
_reflns_number_total             3263
_reflns_threshold_expression     I>=2u(I)
_iucr_refine_instructions_details
;
TITL VPS_I_7_0m_a.res in P-1
CELL 0.71073 7.3066 10.4657 10.6788 107.568 90.583 107.829
ZERR 2 0.0006 0.0008 0.0009 0.003 0.003 0.002
LATT 1
SFAC C H N O Cl S
UNIT 28 30 4 4 2 2

L.S. 4
PLAN  -3 0 0
TEMP 23
ACTA 
FMAP 2
HTAB 
BOND $H
CONF 
WGHT 0.064339 0.242442
FVAR 0.763868
REM <olex2.extras>
REM <HklSrc "%.\\VPS_I_7_0m.hkl">
REM </olex2.extras>

S1    6     0.80670  0.59538  0.95849  11.00000  0.03338  0.04842  0.05562 =
 0.03163  0.00424  0.01549 
Cl2   5    -0.08131  0.18706  0.56704  11.00000  0.07871  0.03917  0.07004 =
 0.01184 -0.00678 -0.00741 
O0aa  4     0.17322  0.88855  0.82976  11.00000  0.02668  0.05168  0.06884 =
 0.03177  0.01223  0.01503 
O1    4     0.43284  1.02925  0.77451  11.00000  0.03049  0.04461  0.07901 =
 0.03829  0.01129  0.01559 
N2    3     0.48078  0.64556  0.91283  11.00000  0.02612  0.03722  0.03714 =
 0.02231  0.00113  0.00514 
N3    3     0.75440  0.78974  0.86444  11.00000  0.02212  0.03841  0.04233 =
 0.02197  0.00728  0.01012 
C1    1     0.13611  0.37699  0.45953  11.00000  0.04315  0.04913  0.03507 =
 0.00329 -0.00142  0.01956 
AFIX 43
H1    2     0.08821  0.30735  0.37810  11.00000 -1.20000 
AFIX 0
C2    1     0.26438  0.50684  0.46739  11.00000  0.04474  0.06065  0.03446 =
 0.01787  0.00865  0.01847 
AFIX 43
H2a   2     0.30340  0.52558  0.39033  11.00000 -1.20000 
AFIX 0
C3    1     0.33669  0.61063  0.58898  11.00000  0.03399  0.04413  0.03850 =
 0.01807  0.00623  0.01045 
AFIX 43
H3a   2     0.42488  0.69774  0.59285  11.00000 -1.20000 
AFIX 0
C4    1     0.27790  0.58493  0.70480  11.00000  0.02350  0.03379  0.03331 =
 0.01435  0.00128  0.01140 
C5    1     0.35526  0.69375  0.84193  11.00000  0.02249  0.03185  0.03249 =
 0.01483  0.00341  0.00789 
AFIX 13
H5    2     0.24483  0.70043  0.89180  11.00000 -1.20000 
AFIX 0
C6    1     0.46597  0.83962  0.83741  11.00000  0.02449  0.03001  0.03388 =
 0.01382  0.00370  0.00757 
C7    1     0.34367  0.92105  0.81587  11.00000  0.02674  0.03121  0.03588 =
 0.01200  0.00395  0.00864 
C8    1     0.31930  1.11114  0.74583  11.00000  0.03877  0.03887  0.06261 =
 0.02170  0.00560  0.01948 
AFIX 23
H8a   2     0.20599  1.04938  0.68419  11.00000 -1.20000 
H8b   2     0.27706  1.16131  0.82625  11.00000 -1.20000 
AFIX 0
C9    1     0.44649  1.21304  0.68711  11.00000  0.06415  0.09386  0.17707 =
 0.10381  0.03676  0.03978 
AFIX 137
H9a   2     0.56143  1.26978  0.74703  11.00000 -1.50000 
H9b   2     0.48122  1.16200  0.60511  11.00000 -1.50000 
H9c   2     0.37910  1.27327  0.67120  11.00000 -1.50000 
AFIX 0
C10   1     0.67033  0.67818  0.90836  11.00000  0.02874  0.03331  0.02600 =
 0.01176  0.00141  0.00858 
C11   1     0.66102  0.88066  0.84373  11.00000  0.02573  0.03157  0.03397 =
 0.01483  0.00500  0.00796 
C12   1     0.79766  1.01504  0.83122  11.00000  0.02746  0.04295  0.07130 =
 0.03349  0.00802  0.00752 
AFIX 137
H12a  2     0.81197  1.00369  0.73961  11.00000 -1.50000 
H12b  2     0.74708  1.09134  0.86763  11.00000 -1.50000 
H12c  2     0.92140  1.03611  0.87841  11.00000 -1.50000 
AFIX 0
C13   1     0.07978  0.35212  0.57541  11.00000  0.03612  0.03375  0.04621 =
 0.01117 -0.00359  0.00938 
C14   1     0.14582  0.45378  0.69734  11.00000  0.03474  0.03638  0.03618 =
 0.01611  0.00049  0.00909 
AFIX 43
H14   2     0.10287  0.43517  0.77369  11.00000 -1.20000 
AFIX 0
H3    2     0.87032  0.81492  0.86409  11.00000  0.03872 
H2    2     0.42516  0.58284  0.94494  11.00000  0.04243 
HKLF 4

END
Q1 1 0.041667 0.194444 0.527778 11 0.05 0.28
Q2 1 0.416667 0.888889 0.833333 11 0.05 0.27
Q3 1 0.916667 1 0.777778 11 0.05 0.21
Q4 1 0.416667 0.777778 0.833333 11 0.05 0.21
Q5 1 0.333333 0.583333 0.638889 11 0.05 0.2
Q6 1 0.333333 0.638889 0.777778 11 0.05 0.2
Q7 1 0.541667 0.861111 0.861111 11 0.05 0.2
Q8 1 -0.166667 0.361111 0.777778 11 0.05 0.2
Q9 1 0.75 1.055556 0.777778 11 0.05 0.19
Q10 1 0.083333 0.416667 0.638889 11 0.05 0.18
Q11 1 0.333333 0.527778 0.527778 11 0.05 0.18
Q12 1 0.708333 0.944444 0.833333 11 0.05 0.18
Q13 1 0.833333 1.111111 0.944444 11 0.05 0.18
Q14 1 0.208333 0.527778 0.694444 11 0.05 0.17
Q15 1 0.25 0.416667 0.444444 11 0.05 0.17
Q16 1 0.791667 1.25 0.888889 11 0.05 0.17
Q17 1 0.75 0.527778 0.888889 11 0.05 0.17
Q18 1 0.416667 1.138889 0.611111 11 0.05 0.17
Q19 1 0.125 0.166667 0.361111 11 0.05 0.17
Q20 1 0.708333 1.305556 0.861111 11 0.05 0.16

  REM The information below was added by Olex2.
  REM
  REM R1 = 0.0384 for 2892 Fo > 4sig(Fo) and 0.0429 for all 3263 data
  REM 191 parameters refined using 0 restraints
  REM Highest difference peak 0.2794, deepest hole -0.4253
  REM Mean Shift 0.0000, Max Shift 0.0003.

  REM +++ Tabular Listing of Refinement Information +++
  REM R1_all = 0.0429
  REM R1_gt = 0.0384
  REM wR_ref = 0.1156
  REM GOOF = 1.0760
  REM Shift_max = 0.0003
  REM Shift_mean = 0.0000
  REM Reflections_all = 3263
  REM Reflections_gt = 2892
  REM Parameters = 191
  REM Hole = -0.4253
  REM Peak = 0.2794
  REM Flack = n/a

  
;
_cod_data_source_file            d1ra03969e2.cif
_cod_data_source_block           VPS_I_7_0m
_cod_database_code               7243851
_publcif_datablock.id            {40077a52-d982-4c3b-b660-83029cb8d717}
_olex2_refinement_description
;
1. Fixed Uiso
 At 1.2 times of:
  All C(H) groups, All C(H,H) groups
 At 1.5 times of:
  All C(H,H,H) groups
2.a Ternary CH refined with riding coordinates:
 C5(H5)
2.b Secondary CH2 refined with riding coordinates:
 C8(H8a,H8b)
2.c Aromatic/amide H refined with riding coordinates:
 C1(H1), C2(H2a), C3(H3a), C14(H14)
2.d Idealised Me refined as rotating group:
 C9(H9a,H9b,H9c), C12(H12a,H12b,H12c)
;
_iucr_refine_fcf_details
;
data_VPS_I_7_0m_CCDC1
_computing_structure_refinement   'olex2.refine (Bourhis et al., 2015)'
_shelx_refln_list_code            4
loop_
  _space_group_symop_id
  _space_group_symop_operation_xyz
  1  x,y,z
  2  -x,-y,-z

_space_group_crystal_system       triclinic
_space_group_IT_number            2
_space_group_name_H-M_alt         'P -1'
_space_group_name_Hall            '-P 1'
_symmetry_space_group_name_H-M    'P -1'
_symmetry_space_group_name_Hall   '-P 1'
_symmetry_Int_Tables_number       2
_cell_length_a                    7.3066(6)
_cell_length_b                    10.4657(8)
_cell_length_c                    10.6788(9)
_cell_angle_alpha                 107.568(3)
_cell_angle_beta                  90.583(3)
_cell_angle_gamma                 107.829(2)
_cell_volume                      736.37(10)
loop_
  _refln_index_h
  _refln_index_k
  _refln_index_l
  _refln_F_squared_calc
  _refln_F_squared_meas
  _refln_F_squared_sigma
  _refln_F_squared_weight
  _refln_observed_status
-9 1 1 2.159 4.536 1.435 56.193 o
-9 1 2 11.914 13.276 1.109 32.502 o
-9 1 3 15.406 16.517 1.404 23.148 o
-9 2 1 30.463 33.917 1.338 11.626 o
-9 2 2 5.189 5.318 1.039 64.201 o
-9 2 3 0.043 1.074 0.821 205.699 o
-9 3 1 25.886 26.639 1.379 14.278 o
-9 3 2 54.777 53.140 1.774 5.550 o
-9 3 3 59.237 60.046 1.921 4.821 o
-9 3 4 0.234 -2.571 1.200 106.971 o
-9 4 1 13.249 12.194 0.945 33.556 o
-9 4 2 24.002 27.368 1.278 15.286 o
-9 4 3 39.714 42.317 1.510 8.344 o
-9 5 1 0.010 0.187 0.621 392.718 o
-9 5 2 0.004 0.123 0.564 481.490 o
-9 5 3 11.871 14.830 1.149 30.854 o
-9 6 1 0.425 0.103 0.621 341.234 o
-9 6 2 7.628 4.826 0.848 62.513 o
-9 7 1 1.709 1.285 1.091 100.020 o
-8 -3 1 0.448 0.818 0.880 172.990 o
-8 -3 2 20.225 23.156 1.577 16.654 o
-8 -3 3 1.011 0.268 0.721 223.201 o
-8 -2 1 36.349 32.293 1.682 9.644 o
-8 -2 2 0.013 0.057 0.594 439.878 o
-8 -2 3 19.324 19.251 1.172 20.806 o
-8 -2 4 3.905 4.609 1.039 73.357 o
-8 -2 5 17.404 16.139 1.176 23.602 o
-8 -1 1 46.361 44.215 1.516 7.186 o
-8 -1 2 19.781 16.769 1.113 21.792 o
-8 -1 3 20.955 18.040 1.004 21.052 o
-8 -1 4 15.463 20.005 1.240 23.076 o
-8 -1 5 6.642 7.433 1.088 51.701 o
-8 -1 6 34.913 34.310 2.634 7.769 o
-8 0 1 39.048 46.746 1.608 7.963 o
-8 0 2 2.072 1.513 0.532 209.442 o
-8 0 3 1.306 0.466 0.574 270.972 o
-8 0 4 74.042 64.226 3.726 3.052 o
-8 0 5 36.329 34.902 1.776 9.205 o
-8 0 6 8.036 8.457 1.144 44.292 o
-8 0 7 0.804 0.442 0.821 187.837 o
-8 1 1 0.047 -0.003 0.410 899.184 o
-8 1 2 76.960 86.062 1.624 3.257 o
-8 1 3 0.485 0.985 0.668 260.796 o
-8 1 4 62.143 61.482 1.828 4.617 o
-8 1 5 27.553 32.357 2.012 10.798 o
-8 1 6 18.699 14.902 1.820 17.965 o
-8 1 7 8.576 7.397 1.407 37.254 o
-8 2 1 139.139 136.496 2.308 1.339 o
-8 2 2 0.008 1.055 0.566 387.544 o
-8 2 3 35.798 38.466 1.466 9.510 o
-8 2 4 17.460 22.524 1.281 20.255 o
-8 2 5 31.225 32.324 1.688 10.795 o
-8 2 6 21.255 24.724 1.422 16.572 o
-8 2 7 7.644 5.336 0.876 60.084 o
-8 3 1 0.253 0.672 0.486 475.426 o
-8 3 2 8.894 6.979 0.729 56.136 o
-8 3 3 54.511 53.961 2.465 5.022 o
-8 3 4 0.133 -0.174 0.669 337.202 o
-8 3 5 0.299 -0.109 0.566 428.076 o
-8 3 6 0.061 0.409 0.627 362.043 o
-8 3 7 6.464 7.205 0.988 56.649 o
-8 4 1 21.110 25.969 1.297 16.932 o
-8 4 2 2.965 2.708 0.653 136.298 o
-8 4 3 0.035 -0.366 0.539 534.020 o
-8 4 4 4.163 4.021 0.685 102.832 o
-8 4 5 13.984 15.906 1.049 28.567 o
-8 4 6 1.526 1.866 0.756 161.217 o
-8 5 1 40.745 41.222 1.490 8.288 o
-8 5 2 96.269 89.816 2.196 2.457 o
-8 5 3 0.298 1.775 0.653 254.350 o
-8 5 4 6.888 5.224 0.811 66.990 o
-8 5 5 0.381 -0.254 0.621 353.049 o
-8 5 6 0.556 0.426 0.620 309.733 o
-8 6 1 3.019 2.997 0.841 107.130 o
-8 6 2 14.367 16.945 1.172 26.226 o
-8 6 3 1.175 0.199 0.608 273.047 o
-8 6 4 38.620 36.457 1.732 8.715 o
-8 6 5 10.516 10.052 1.075 38.426 o
-8 7 1 65.605 71.650 1.996 4.020 o
-8 7 2 92.912 97.181 3.035 2.293 o
-8 7 3 6.988 6.682 1.163 49.111 o
-8 7 4 0.043 -0.830 0.602 427.287 o
-8 8 1 14.695 13.717 1.089 28.601 o
-8 8 2 0.065 0.481 0.618 366.039 o
-8 8 3 7.505 11.353 1.091 43.418 o
-8 9 1 0.307 0.583 0.743 243.160 o
-8 9 2 1.808 2.159 0.931 117.162 o
-7 -5 1 0.045 0.379 0.654 339.013 o
-7 -5 2 4.253 4.339 0.854 85.759 o
-7 -5 3 14.103 14.341 1.279 26.755 o
-7 -5 4 14.059 16.287 1.343 25.082 o
-7 -5 5 1.630 2.109 0.779 149.886 o
-7 -4 1 0.109 0.289 0.699 297.977 o
-7 -4 2 14.106 14.680 1.209 27.368 o
-7 -4 3 9.319 10.037 1.088 40.723 o
-7 -4 4 18.758 19.856 1.416 19.375 o
-7 -4 5 0.885 3.075 0.704 175.890 o
-7 -4 6 0.965 1.382 0.643 230.206 o
-7 -4 7 11.650 10.287 0.983 37.634 o
-7 -3 1 30.382 29.568 2.324 9.604 o
-7 -3 2 1.694 1.867 0.654 182.542 o
-7 -3 3 23.239 20.493 1.128 18.062 o
-7 -3 4 10.506 12.131 0.937 38.909 o
-7 -3 5 0.759 0.644 0.574 311.687 o
-7 -3 6 84.634 91.301 1.986 2.810 o
-7 -3 7 0.011 0.370 0.608 393.599 o
-7 -3 8 0.458 0.052 0.721 263.740 o
-7 -2 1 55.906 52.416 1.531 5.639 o
-7 -2 2 21.396 19.743 1.086 19.674 o
-7 -2 3 38.520 43.298 1.446 8.552 o
-7 -2 4 32.183 25.094 1.081 13.081 o
-7 -2 5 0.018 -1.167 0.441 800.702 o
-7 -2 6 39.253 40.691 1.732 8.244 o
-7 -2 7 8.140 8.788 1.052 46.176 o
-7 -2 8 9.740 12.992 1.251 33.812 o
-7 -1 1 11.704 9.698 0.712 42.867 o
-7 -1 2 141.789 131.685 2.000 1.352 o
-7 -1 3 22.218 18.442 0.930 20.352 o
-7 -1 4 112.499 109.956 2.662 1.843 o
-7 -1 5 38.285 31.056 1.287 10.076 o
-7 -1 6 82.391 73.616 2.967 2.915 o
-7 -1 7 32.977 40.564 1.845 9.170 o
-7 -1 8 6.806 6.924 1.309 44.307 o
-7 -1 9 2.211 3.252 1.292 68.248 o
-7 0 1 222.543 218.494 2.734 0.599 o
-7 0 2 69.801 63.199 1.478 4.215 o
-7 0 3 52.903 45.630 1.392 6.391 o
-7 0 4 344.896 346.681 4.197 0.265 o
-7 0 5 1.710 5.755 0.891 100.437 o
-7 0 6 33.320 36.242 1.394 10.446 o
-7 0 7 0.651 0.137 0.800 208.734 o
-7 0 8 9.858 10.783 1.179 36.895 o
-7 0 9 16.218 18.308 2.215 15.507 o
-7 1 1 23.113 20.168 0.852 19.460 o
-7 1 2 104.892 102.380 1.823 2.154 o
-7 1 3 153.397 143.142 2.265 1.174 o
-7 1 4 58.761 54.852 1.605 5.237 o
-7 1 5 12.003 12.513 0.956 35.286 o
-7 1 6 104.536 103.014 2.298 2.098 o
-7 1 7 67.785 60.757 1.790 4.294 o
-7 1 8 0.083 0.397 0.593 397.769 o
-7 1 9 3.040 2.101 0.900 105.174 o
-7 2 1 130.093 139.545 2.010 1.439 o
-7 2 2 16.633 17.140 0.769 27.089 o
-7 2 3 31.507 27.472 1.037 13.000 o
-7 2 4 4.337 3.444 0.579 114.366 o
-7 2 5 62.086 54.234 1.684 4.954 o
-7 2 6 128.266 135.723 2.968 1.420 o
-7 2 7 12.693 14.757 1.091 30.537 o
-7 2 8 23.627 22.010 1.344 16.441 o
-7 2 9 31.442 30.456 1.512 11.421 o
-7 3 1 145.770 140.219 2.174 1.260 o
-7 3 2 92.753 86.643 1.692 2.682 o
-7 3 3 93.958 99.637 2.158 2.397 o
-7 3 4 36.014 31.586 1.141 10.813 o
-7 3 5 4.575 4.085 0.641 101.253 o
-7 3 6 3.755 3.236 0.656 116.912 o
-7 3 7 11.159 8.625 0.937 41.380 o
-7 3 8 34.776 38.870 1.756 9.159 o
-7 4 1 81.391 82.662 1.563 3.161 o
-7 4 2 4.538 3.560 0.638 105.193 o
-7 4 3 64.842 60.984 1.688 4.517 o
-7 4 4 177.523 176.191 3.106 0.866 o
-7 4 5 17.546 19.843 1.195 21.778 o
-7 4 6 21.576 19.916 1.114 19.346 o
-7 4 7 7.111 7.535 0.839 58.968 o
-7 4 8 1.637 1.073 0.620 212.205 o
-7 5 1 10.719 10.513 0.850 41.860 o
-7 5 2 85.856 81.611 1.968 2.934 o
-7 5 3 46.825 46.350 1.559 6.943 o
-7 5 4 1.209 0.124 0.566 298.773 o
-7 5 5 38.348 38.234 1.520 8.941 o
-7 5 6 55.062 58.245 1.900 5.223 o
-7 5 7 55.853 52.933 1.855 5.409 o
-7 6 1 11.291 9.340 0.818 42.504 o
-7 6 2 14.840 16.744 1.069 26.852 o
-7 6 3 0.582 0.994 0.566 317.823 o
-7 6 4 31.279 29.484 1.905 10.560 o
-7 6 5 21.334 17.804 1.267 19.330 o
-7 6 6 43.560 43.639 1.728 7.378 o
-7 6 7 97.183 100.623 2.565 2.243 o
-7 7 1 0.319 0.451 0.503 462.234 o
-7 7 2 0.086 -0.410 0.564 476.481 o
-7 7 3 4.224 4.478 0.880 83.385 o
-7 7 4 1.253 1.720 0.715 183.522 o
-7 7 5 0.601 1.300 0.725 216.405 o
-7 7 6 54.990 55.765 1.986 5.272 o
-7 8 1 5.318 7.961 0.884 64.653 o
-7 8 2 42.710 41.666 1.559 7.850 o
-7 8 3 0.048 0.643 0.621 354.619 o
-7 8 4 2.236 3.243 0.811 120.799 o
-7 8 5 0.391 -0.282 0.645 329.261 o
-7 9 1 5.879 6.077 0.818 70.014 o
-7 9 2 61.050 66.265 2.001 4.445 o
-7 9 3 0.390 -0.897 0.693 290.972 o
-7 9 4 0.237 0.064 0.635 353.806 o
-7 10 1 3.775 2.569 0.724 113.752 o
-7 10 2 7.234 6.135 0.927 58.104 o
-6 -7 2 0.133 0.114 0.693 309.515 o
-6 -7 3 0.035 -0.613 0.654 364.200 o
-6 -7 4 7.718 10.190 1.179 41.987 o
-6 -7 5 31.113 31.392 1.946 10.272 o
-6 -6 1 3.748 1.624 0.721 121.957 o
-6 -6 2 88.818 87.490 3.607 2.367 o
-6 -6 3 1.181 1.615 1.114 100.678 o
-6 -6 4 55.929 56.315 2.073 5.114 o
-6 -6 5 0.018 -1.011 0.622 405.625 o
-6 -6 6 6.382 8.523 1.524 37.167 o
-6 -6 7 34.229 40.761 1.559 9.438 o
-6 -5 1 16.462 19.252 1.309 22.003 o
-6 -5 2 75.436 76.166 2.271 3.347 o
-6 -5 3 3.296 2.153 0.721 125.182 o
-6 -5 4 27.398 29.538 1.577 12.567 o
-6 -5 5 5.567 4.934 0.880 72.098 o
-6 -5 6 46.017 48.434 1.595 6.879 o
-6 -5 7 5.951 8.456 0.840 62.179 o
-6 -5 8 3.926 3.157 0.887 91.251 o
-6 -4 1 26.872 24.039 2.435 10.537 o
-6 -4 2 26.778 32.984 1.449 12.603 o
-6 -4 3 20.771 20.847 1.042 19.956 o
-6 -4 4 13.919 17.375 1.029 27.955 o
-6 -4 5 89.897 93.933 2.093 2.592 o
-6 -4 6 6.532 6.099 0.685 72.275 o
-6 -4 7 2.354 1.938 0.566 180.071 o
-6 -4 8 22.913 26.895 1.217 16.140 o
-6 -4 9 37.361 39.305 1.845 8.495 o
-6 -3 1 6.325 9.079 0.742 62.614 o
-6 -3 2 197.418 192.876 3.072 0.732 o
-6 -3 3 3.723 2.629 0.552 135.558 o
-6 -3 4 78.952 84.978 1.921 3.132 o
-6 -3 5 0.034 -0.133 0.424 852.754 o
-6 -3 6 31.174 27.384 1.213 12.715 o
-6 -3 7 11.448 13.830 1.054 33.627 o
-6 -3 8 5.158 3.616 0.715 91.529 o
-6 -3 9 39.470 44.200 1.845 7.772 o
-6 -3 10 7.897 8.981 1.119 44.689 o
-6 -2 1 143.643 150.038 2.178 1.234 o
-6 -2 2 55.102 50.645 1.206 5.996 o
-6 -2 3 2.958 0.707 0.549 184.351 o
-6 -2 4 33.420 33.491 1.066 11.388 o
-6 -2 5 27.287 25.712 1.166 14.613 o
-6 -2 6 3.381 3.695 0.627 122.607 o
-6 -2 7 94.102 92.096 2.039 2.510 o
-6 -2 8 0.097 -0.608 0.678 332.017 o
-6 -2 9 14.292 14.092 1.445 24.787 o
-6 -2 10 4.343 4.254 0.953 77.809 o
-6 -1 1 0.973 0.639 0.346 476.246 o
-6 -1 2 77.633 82.116 1.403 3.357 o
-6 -1 3 11.332 11.367 0.672 42.318 o
-6 -1 4 444.924 449.106 4.984 0.165 o
-6 -1 5 0.255 0.655 0.591 356.109 o
-6 -1 6 48.017 52.559 1.281 6.638 o
-6 -1 7 27.881 27.195 1.815 12.005 o
-6 -1 8 0.315 0.423 1.072 128.005 o
-6 -1 9 7.667 8.568 1.109 46.150 o
-6 -1 10 17.766 13.715 1.286 23.410 o
-6 0 1 826.487 757.424 7.006 0.054 o
-6 0 2 19.534 20.833 0.822 22.048 o
-6 0 3 3.753 3.894 0.472 131.211 o
-6 0 4 55.917 67.686 1.369 5.064 o
-6 0 5 39.103 34.222 1.014 9.920 o
-6 0 6 86.010 88.347 1.662 2.874 o
-6 0 7 3.136 1.751 0.555 160.273 o
-6 0 8 3.174 3.480 0.657 124.423 o
-6 0 9 68.653 72.479 1.950 3.854 o
-6 0 10 2.505 1.437 0.652 163.624 o
-6 1 1 14.296 21.513 0.725 27.576 o
-6 1 2 27.096 18.178 0.885 17.479 o
-6 1 3 382.657 356.613 4.091 0.230 o
-6 1 4 57.233 54.642 1.229 5.578 o
-6 1 5 43.939 46.872 1.137 7.695 o
-6 1 6 0.497 -0.237 0.488 495.392 o
-6 1 7 25.482 23.797 1.195 15.738 o
-6 1 8 39.294 42.321 1.490 8.443 o
-6 1 9 2.265 4.188 0.764 119.410 o
-6 1 10 1.686 1.166 0.668 192.138 o
-6 2 1 57.114 57.441 1.092 5.521 o
-6 2 2 4.901 5.153 0.677 89.283 o
-6 2 3 0.414 0.453 0.380 636.215 o
-6 2 4 2.576 1.234 0.339 243.086 o
-6 2 5 174.054 174.096 2.618 0.906 o
-6 2 6 71.891 69.684 1.603 3.875 o
-6 2 7 13.316 16.760 1.058 28.769 o
-6 2 8 2.377 1.558 0.632 170.342 o
-6 2 9 1.325 1.401 0.632 215.206 o
-6 2 10 2.466 2.672 0.764 129.015 o
-6 3 1 0.090 -0.690 0.316 1379.200 o
-6 3 2 81.774 77.672 1.424 3.273 o
-6 3 3 0.012 -0.005 0.343 1318.840 o
-6 3 4 34.978 33.776 1.251 10.607 o
-6 3 5 0.411 0.000 0.503 493.657 o
-6 3 6 11.425 13.492 0.921 35.976 o
-6 3 7 26.047 25.255 1.147 15.316 o
-6 3 8 59.004 69.318 1.924 4.517 o
-6 3 9 7.423 6.880 0.897 56.903 o
-6 4 1 649.134 647.658 6.677 0.081 o
-6 4 2 178.951 178.469 2.398 0.871 o
-6 4 3 89.502 96.050 2.054 2.580 o
-6 4 4 49.855 47.661 1.498 6.545 o
-6 4 5 3.127 4.956 0.841 94.557 o
-6 4 6 9.895 8.349 0.869 46.560 o
-6 4 7 3.126 3.332 0.725 117.762 o
-6 4 8 0.267 1.116 0.602 318.172 o
-6 4 9 35.494 38.294 2.026 8.575 o
-6 5 1 79.742 82.963 1.381 3.256 o
-6 5 2 636.000 639.547 7.668 0.083 o
-6 5 3 548.969 529.448 6.639 0.113 o
-6 5 4 90.531 89.497 2.077 2.640 o
-6 5 5 1.333 1.114 0.653 213.824 o
-6 5 6 27.718 26.227 1.367 13.698 o
-6 5 7 3.080 1.664 0.709 135.812 o
-6 5 8 37.955 36.365 1.543 9.159 o
-6 6 1 58.454 54.525 1.355 5.410 o
-6 6 2 119.382 123.320 2.437 1.655 o
-6 6 3 5.644 4.780 0.725 81.356 o
-6 6 4 181.822 186.658 3.213 0.814 o
-6 6 5 524.819 553.984 7.817 0.115 o
-6 6 6 8.390 7.416 0.931 51.116 o
-6 6 7 0.268 -0.115 0.750 260.476 o
-6 6 8 3.003 3.055 0.850 105.818 o
-6 7 1 5.937 6.143 0.631 78.851 o
-6 7 2 18.324 19.421 1.109 21.925 o
-6 7 3 18.875 16.623 1.072 22.892 o
-6 7 4 16.277 21.174 2.597 12.727 o
-6 7 5 0.101 0.539 0.632 343.948 o
-6 7 6 5.669 6.300 0.906 66.156 o
-6 7 7 100.963 106.092 4.255 1.824 o
-6 8 1 8.003 8.747 1.096 45.358 o
-6 8 2 19.179 17.868 1.109 21.862 o
-6 8 3 14.309 12.015 0.984 31.526 o
-6 8 4 0.132 -0.061 0.582 439.292 o
-6 8 5 4.810 4.127 0.811 85.180 o
-6 8 6 3.070 0.546 0.740 142.491 o
-6 9 1 0.009 -0.912 0.409 936.553 o
-6 9 2 37.271 36.242 1.633 9.153 o
-6 9 3 35.018 31.965 1.534 10.273 o
-6 9 4 11.490 9.883 1.039 37.340 o
-6 9 5 0.733 -0.054 0.653 289.135 o
-6 10 1 0.683 0.927 0.870 167.216 o
-6 10 2 2.317 0.978 0.632 182.221 o
-6 10 3 4.177 5.256 0.869 81.423 o
-6 10 4 5.599 3.229 0.944 73.396 o
-6 11 1 4.739 4.481 0.812 84.154 o
-6 11 2 0.382 -0.243 0.602 372.841 o
-5 -8 1 27.912 29.901 1.629 12.190 o
-5 -8 2 7.695 7.504 1.446 37.794 o
-5 -8 3 0.018 0.189 0.691 318.826 o
-5 -8 4 60.795 63.584 2.204 4.440 o
-5 -8 5 75.890 80.607 2.501 3.168 o
-5 -8 6 137.921 149.740 4.087 1.176 o
-5 -8 7 21.064 22.845 1.614 16.127 o
-5 -7 1 40.706 42.382 1.735 7.877 o
-5 -7 2 12.933 13.925 1.160 29.875 o
-5 -7 3 0.031 -0.020 0.603 428.872 o
-5 -7 4 26.038 21.395 1.416 15.156 o
-5 -7 5 6.687 9.677 1.153 45.987 o
-5 -7 6 121.645 133.808 3.198 1.489 o
-5 -7 7 22.022 21.749 1.875 14.598 o
-5 -7 8 116.161 118.579 2.527 1.729 o
-5 -7 9 41.447 47.060 4.199 4.402 o
-5 -6 1 69.307 71.436 2.090 3.795 o
-5 -6 2 168.095 162.824 3.355 0.951 o
-5 -6 3 16.116 17.941 1.251 23.317 o
-5 -6 4 14.119 13.324 1.119 29.237 o
-5 -6 5 48.569 41.662 1.339 7.224 o
-5 -6 6 3.678 4.626 0.670 106.573 o
-5 -6 7 16.085 14.271 0.988 27.621 o
-5 -6 8 29.561 36.732 1.422 11.291 o
-5 -6 9 18.199 17.787 1.237 21.768 o
-5 -6 10 35.897 41.817 2.004 8.259 o
-5 -5 1 4.987 6.088 0.787 77.623 o
-5 -5 2 20.437 16.576 1.151 21.106 o
-5 -5 3 467.570 464.510 5.800 0.151 o
-5 -5 4 133.908 139.683 2.506 1.367 o
-5 -5 5 5.829 5.676 0.695 78.118 o
-5 -5 6 0.018 0.653 0.488 537.470 o
-5 -5 7 153.826 152.172 2.776 1.112 o
-5 -5 8 1.714 1.175 0.512 245.393 o
-5 -5 9 24.979 24.980 1.144 15.886 o
-5 -5 10 0.002 0.799 0.523 465.826 o
-5 -4 1 9.816 10.175 0.971 42.019 o
-5 -4 2 6.639 6.818 0.627 71.720 o
-5 -4 3 25.422 26.019 1.042 15.778 o
-5 -4 4 53.809 50.292 1.905 5.672 o
-5 -4 5 323.145 324.381 4.426 0.297 o
-5 -4 6 377.101 375.884 4.487 0.226 o
-5 -4 7 0.219 0.155 0.445 642.881 o
-5 -4 8 75.643 69.315 1.774 3.644 o
-5 -4 9 66.735 71.601 1.882 4.005 o
-5 -4 10 0.022 -0.158 0.598 438.114 o
-5 -4 11 5.009 6.916 1.630 38.006 o
-5 -3 1 21.470 20.652 0.763 20.845 o
-5 -3 2 39.675 42.511 1.423 8.448 o
-5 -3 3 1.964 2.432 0.345 242.460 o
-5 -3 4 155.750 153.396 2.108 1.117 o
-5 -3 5 90.044 84.341 1.817 2.780 o
-5 -3 6 414.860 406.482 5.247 0.190 o
-5 -3 7 272.825 290.649 4.109 0.389 o
-5 -3 8 156.858 154.705 2.795 1.078 o
-5 -3 9 9.775 12.100 0.906 41.166 o
-5 -3 10 61.744 64.602 2.204 4.350 o
-5 -3 11 46.807 38.959 1.781 7.192 o
-5 -2 1 2.581 1.632 0.437 207.643 o
-5 -2 2 8.755 9.123 0.435 59.234 o
-5 -2 3 46.982 46.653 0.844 7.464 o
-5 -2 4 29.396 34.415 0.942 12.726 o
-5 -2 5 109.512 127.746 1.905 1.817 o
-5 -2 6 262.120 264.226 3.234 0.439 o
-5 -2 7 1.050 1.115 0.414 362.222 o
-5 -2 8 91.260 93.861 1.728 2.614 o
-5 -2 9 158.780 163.509 3.545 1.001 o
-5 -2 10 167.871 155.173 3.396 0.975 o
-5 -2 11 2.678 4.997 0.953 88.081 o
-5 -1 1 40.610 43.984 1.047 8.576 o
-5 -1 2 7.399 9.158 0.542 63.354 o
-5 -1 3 25.758 22.594 0.928 16.851 o
-5 -1 4 6.350 7.877 0.535 73.687 o
-5 -1 5 3.444 3.197 0.414 152.905 o
-5 -1 6 0.147 0.123 0.330 1106.460 o
-5 -1 7 14.169 12.195 0.685 35.108 o
-5 -1 8 7.794 9.882 0.676 56.166 o
-5 -1 9 23.844 21.001 1.097 17.703 o
-5 -1 10 62.227 62.352 1.760 4.614 o
-5 -1 11 32.149 32.597 1.412 11.173 o
-5 0 1 548.366 591.601 6.007 0.107 o
-5 0 2 6.990 8.279 0.512 69.030 o
-5 0 3 39.525 32.212 0.878 10.223 o
-5 0 4 43.749 45.439 1.408 7.578 o
-5 0 5 1.087 0.939 0.335 429.362 o
-5 0 6 44.772 53.395 1.154 7.092 o
-5 0 7 12.190 13.162 0.704 37.824 o
-5 0 8 27.847 27.058 1.166 14.112 o
-5 0 9 18.991 21.172 1.136 20.574 o
-5 0 10 15.669 17.413 1.097 25.334 o
-5 0 11 15.073 17.869 1.166 25.078 o
-5 1 1 108.919 92.557 1.350 2.219 o
-5 1 2 100.254 90.026 2.882 2.238 o
-5 1 3 161.914 178.966 1.924 0.984 o
-5 1 4 10.348 8.078 0.388 55.313 o
-5 1 5 9.414 8.237 0.531 56.300 o
-5 1 6 7.579 7.575 0.562 66.092 o
-5 1 7 0.261 0.082 0.446 637.726 o
-5 1 8 14.508 13.480 0.913 30.988 o
-5 1 9 13.320 13.768 0.971 31.856 o
-5 1 10 0.028 0.567 0.552 444.673 o
-5 1 11 1.234 1.241 0.695 200.070 o
-5 2 1 76.428 79.041 1.175 3.523 o
-5 2 2 11.072 14.110 0.570 40.940 o
-5 2 3 12.344 8.895 0.377 46.823 o
-5 2 4 165.976 145.579 1.711 1.079 o
-5 2 5 0.226 0.888 0.346 690.390 o
-5 2 6 57.090 49.203 1.255 5.840 o
-5 2 7 10.528 12.767 0.795 40.612 o
-5 2 8 5.979 6.450 0.816 68.410 o
-5 2 9 11.418 10.937 1.806 24.255 o
-5 2 10 2.190 0.840 0.618 193.486 o
-5 2 11 15.607 14.490 1.125 26.695 o
-5 3 1 174.694 165.688 1.916 0.944 o
-5 3 2 65.997 61.270 1.163 4.627 o
-5 3 3 315.879 334.173 3.245 0.305 o
-5 3 4 19.977 33.744 1.154 16.146 o
-5 3 5 5.132 2.469 0.532 113.944 o
-5 3 6 14.816 12.413 1.014 30.158 o
-5 3 7 10.965 10.554 0.789 42.323 o
-5 3 8 4.807 3.022 0.602 108.477 o
-5 3 9 10.747 8.327 0.869 44.206 o
-5 3 10 5.276 4.868 0.790 79.811 o
-5 4 1 31.139 30.069 0.740 13.241 o
-5 4 2 49.048 52.437 0.791 6.807 o
-5 4 3 78.573 86.222 1.774 3.157 o
-5 4 4 26.869 23.823 1.042 15.613 o
-5 4 5 135.854 140.837 3.043 1.307 o
-5 4 6 1.839 1.015 0.520 239.485 o
-5 4 7 154.619 157.906 2.824 1.082 o
-5 4 8 38.682 35.840 1.284 9.467 o
-5 4 9 1.179 1.647 0.602 227.984 o
-5 4 10 0.045 0.203 0.677 327.413 o
-5 5 1 229.572 234.555 2.322 0.559 o
-5 5 2 24.605 23.570 1.000 16.959 o
-5 5 3 0.148 -0.273 0.519 537.942 o
-5 5 4 0.057 -0.453 0.479 662.782 o
-5 5 5 0.056 -0.043 0.514 577.929 o
-5 5 6 0.542 0.710 0.582 325.887 o
-5 5 7 165.611 173.844 3.104 0.942 o
-5 5 8 12.687 12.021 0.983 34.123 o
-5 5 9 10.161 10.862 0.894 41.952 o
-5 6 1 55.606 52.313 0.841 6.026 o
-5 6 2 681.395 666.853 7.860 0.075 o
-5 6 3 40.719 44.900 1.459 8.029 o
-5 6 4 0.239 0.492 0.520 452.385 o
-5 6 5 1.059 1.442 0.608 238.213 o
-5 6 6 5.442 6.160 1.061 59.925 o
-5 6 7 14.227 15.642 1.128 27.570 o
-5 6 8 4.024 6.350 0.841 80.363 o
-5 6 9 4.787 3.621 0.782 89.847 o
-5 7 1 43.427 42.254 0.886 8.367 o
-5 7 2 107.419 108.904 2.179 1.997 o
-5 7 3 3.582 3.503 0.602 123.708 o
-5 7 4 147.893 146.531 2.718 1.187 o
-5 7 5 38.156 41.937 1.509 8.652 o
-5 7 6 20.623 18.066 1.880 15.888 o
-5 7 7 3.010 2.895 0.740 121.079 o
-5 7 8 0.508 -0.171 0.704 273.127 o
-5 8 1 0.025 -0.256 0.374 1099.730 o
-5 8 2 46.827 44.552 1.412 7.199 o
-5 8 3 28.905 29.329 1.301 12.924 o
-5 8 4 3.412 4.315 0.725 106.604 o
-5 8 5 2.446 3.983 0.747 120.508 o
-5 8 6 22.892 21.511 1.277 17.266 o
-5 8 7 29.894 28.105 1.453 12.376 o
-5 9 1 3.877 3.610 0.566 121.751 o
-5 9 2 40.233 36.607 1.409 8.903 o
-5 9 3 1.175 1.414 0.600 235.659 o
-5 9 4 1.489 1.308 0.736 176.370 o
-5 9 5 3.707 2.515 1.030 82.761 o
-5 9 6 0.899 0.676 0.704 226.144 o
-5 10 1 95.214 91.191 1.912 2.512 o
-5 10 2 35.602 30.881 1.409 10.515 o
-5 10 3 2.097 3.140 0.695 143.516 o
-5 10 4 30.978 32.172 1.559 11.197 o
-5 11 1 2.758 3.241 0.709 126.811 o
-5 11 2 51.099 51.230 1.731 6.026 o
-5 11 3 7.772 8.897 0.971 49.479 o
-5 12 1 0.727 1.007 0.686 234.839 o
-4 -9 1 0.168 -0.202 0.613 392.137 o
-4 -9 2 12.876 9.922 1.052 34.535 o
-4 -9 3 4.702 7.621 0.980 64.009 o
-4 -9 4 44.758 55.431 2.043 6.184 o
-4 -9 5 16.753 15.596 1.616 20.552 o
-4 -9 6 0.696 -0.171 0.654 291.764 o
-4 -9 7 10.123 10.968 1.151 36.779 o
-4 -9 8 66.945 69.112 3.770 3.187 o
-4 -8 1 0.398 0.891 0.622 301.333 o
-4 -8 2 142.716 135.939 3.688 1.222 o
-4 -8 3 34.522 23.330 1.416 11.797 o
-4 -8 4 25.009 24.560 1.507 14.556 o
-4 -8 5 24.287 26.111 1.515 14.501 o
-4 -8 6 12.430 14.041 1.218 29.686 o
-4 -8 7 7.767 9.668 0.852 51.716 o
-4 -8 8 5.399 4.750 0.730 83.133 o
-4 -8 9 7.367 7.835 0.850 56.810 o
-4 -7 1 94.038 98.282 2.418 2.369 o
-4 -7 2 82.720 70.987 2.063 3.220 o
-4 -7 3 40.144 45.136 1.676 7.830 o
-4 -7 4 64.857 62.312 1.691 4.471 o
-4 -7 5 8.562 6.675 0.673 59.920 o
-4 -7 6 8.567 10.909 1.566 31.104 o
-4 -7 7 5.439 6.291 1.088 58.358 o
-4 -7 8 1.599 0.844 0.532 255.962 o
-4 -7 9 0.387 -0.196 0.503 500.002 o
-4 -7 10 0.383 -0.557 0.514 484.004 o
-4 -6 1 177.626 176.176 3.355 0.858 o
-4 -6 2 54.141 53.303 1.707 5.647 o
-4 -6 3 55.713 62.460 1.437 5.263 o
-4 -6 4 3.922 3.243 0.520 129.199 o
-4 -6 5 278.089 277.497 3.897 0.393 o
-4 -6 6 13.179 13.054 0.869 33.945 o
-4 -6 7 1.395 1.803 0.532 237.994 o
-4 -6 8 0.693 3.039 0.927 128.968 o
-4 -6 9 1.138 0.884 0.566 272.141 o
-4 -6 10 1.213 -0.102 0.452 391.962 o
-4 -6 11 2.095 3.059 0.607 161.434 o
-4 -5 1 358.797 355.968 4.423 0.248 o
-4 -5 2 795.357 755.488 8.486 0.057 o
-4 -5 3 292.052 286.435 3.810 0.365 o
-4 -5 4 161.171 152.007 2.489 1.068 o
-4 -5 5 24.039 25.681 1.023 16.616 o
-4 -5 6 0.514 0.108 0.569 379.711 o
-4 -5 7 28.623 29.008 1.037 13.778 o
-4 -5 8 72.258 67.314 1.509 3.947 o
-4 -5 9 76.541 80.481 1.882 3.326 o
-4 -5 10 8.214 7.578 0.790 55.843 o
-4 -5 11 0.400 0.811 0.545 368.968 o
-4 -4 1 135.518 131.474 1.295 1.453 o
-4 -4 2 733.054 723.513 8.108 0.065 o
-4 -4 3 352.873 358.003 6.159 0.245 o
-4 -4 4 161.217 160.845 2.537 1.033 o
-4 -4 5 1010.140 987.247 9.716 0.035 o
-4 -4 6 530.112 516.173 5.592 0.121 o
-4 -4 7 57.980 58.807 1.512 5.188 o
-4 -4 8 2.940 2.682 0.539 155.546 o
-4 -4 9 7.001 8.348 0.790 59.398 o
-4 -4 10 20.615 20.254 1.109 19.908 o
-4 -4 11 43.431 46.315 1.559 7.401 o
-4 -4 12 3.229 3.487 0.821 103.760 o
-4 -3 1 1.056 2.117 0.211 400.386 o
-4 -3 2 121.209 117.993 1.406 1.739 o
-4 -3 3 10.434 12.600 0.535 45.068 o
-4 -3 4 1607.060 1596.300 12.491 0.014 o
-4 -3 5 65.749 69.924 1.065 4.381 o
-4 -3 6 6.160 8.633 0.540 72.259 o
-4 -3 7 516.947 497.690 5.299 0.128 o
-4 -3 8 393.942 401.368 4.506 0.206 o
-4 -3 9 18.640 14.673 0.763 26.238 o
-4 -3 10 21.351 17.186 0.870 21.805 o
-4 -3 11 2.330 2.196 0.621 164.378 o
-4 -3 12 21.565 23.242 1.443 16.683 o
-4 -2 1 1140.090 1119.640 9.568 0.028 o
-4 -2 2 32.130 31.888 0.608 12.752 o
-4 -2 3 107.382 108.606 1.373 2.076 o
-4 -2 4 205.898 207.129 2.241 0.683 o
-4 -2 5 13.722 11.098 0.496 39.078 o
-4 -2 6 280.855 282.248 3.460 0.387 o
-4 -2 7 133.693 131.995 1.950 1.444 o
-4 -2 8 42.262 42.828 1.093 8.340 o
-4 -2 9 394.102 383.613 4.637 0.211 o
-4 -2 10 64.924 73.931 1.548 4.162 o
-4 -2 11 40.558 37.547 1.358 8.823 o
-4 -2 12 2.138 2.217 0.638 166.044 o
-4 -1 1 5.539 7.538 0.380 87.396 o
-4 -1 2 96.957 94.358 1.237 2.506 o
-4 -1 3 797.641 812.965 7.121 0.054 o
-4 -1 4 36.309 37.520 0.776 10.477 o
-4 -1 5 299.466 302.886 3.406 0.345 o
-4 -1 6 7.866 6.696 0.472 69.700 o
-4 -1 7 114.302 109.975 1.752 1.900 o
-4 -1 8 32.934 36.368 0.992 11.244 o
-4 -1 9 11.896 11.332 0.731 40.108 o
-4 -1 10 50.108 51.693 1.855 6.001 o
-4 -1 11 52.590 55.742 1.611 5.744 o
-4 -1 12 28.489 29.755 1.806 11.509 o
-4 0 1 511.339 595.120 5.375 0.116 o
-4 0 2 3.730 12.653 0.451 78.437 o
-4 0 3 17.609 17.480 0.512 27.254 o
-4 0 4 164.203 162.501 1.855 1.026 o
-4 0 5 465.124 503.981 4.695 0.146 o
-4 0 6 109.978 113.768 1.704 1.948 o
-4 0 7 80.149 82.787 1.420 3.235 o
-4 0 8 30.212 22.686 0.915 14.726 o
-4 0 9 20.409 21.485 1.075 19.811 o
-4 0 10 6.867 7.313 1.361 42.074 o
-4 0 11 8.427 6.420 0.764 58.229 o
-4 0 12 10.358 9.011 0.897 43.735 o
-4 1 1 249.846 268.371 2.666 0.464 o
-4 1 2 111.341 112.037 1.361 1.964 o
-4 1 3 31.398 48.607 0.790 10.304 o
-4 1 4 420.229 496.781 4.238 0.167 o
-4 1 5 3.359 4.333 0.368 145.648 o
-4 1 6 139.061 156.262 1.833 1.262 o
-4 1 7 107.315 111.354 1.733 2.020 o
-4 1 8 179.685 188.379 2.603 0.836 o
-4 1 9 11.941 12.192 0.889 36.708 o
-4 1 10 8.055 8.929 0.812 53.168 o
-4 1 11 0.047 0.311 0.591 414.192 o
-4 1 12 8.658 10.506 1.119 40.983 o
-4 2 1 126.374 130.491 1.383 1.573 o
-4 2 2 149.189 125.711 1.461 1.326 o
-4 2 3 287.308 327.588 3.136 0.346 o
-4 2 4 271.939 275.183 3.060 0.411 o
-4 2 5 0.015 0.009 0.115 9704.080 o
-4 2 6 156.952 164.871 1.851 1.071 o
-4 2 7 7.991 9.952 0.667 55.432 o
-4 2 8 17.152 21.798 1.109 21.912 o
-4 2 9 134.355 130.779 2.795 1.392 o
-4 2 10 50.419 54.041 1.645 6.019 o
-4 2 11 0.017 0.028 0.591 446.613 o
-4 3 1 211.804 191.038 1.869 0.696 o
-4 3 2 6.546 8.331 0.399 75.199 o
-4 3 3 135.646 130.036 2.120 1.423 o
-4 3 4 40.869 45.510 1.219 8.222 o
-4 3 5 8.636 5.795 0.566 65.038 o
-4 3 6 2.006 2.584 0.552 184.187 o
-4 3 7 49.986 44.146 1.384 6.836 o
-4 3 8 66.910 66.008 1.510 4.294 o
-4 3 9 11.813 12.770 0.943 35.597 o
-4 3 10 0.011 -0.812 0.532 554.558 o
-4 3 11 10.595 14.128 3.599 9.646 o
-4 4 1 91.334 109.401 1.223 2.456 o
-4 4 2 126.348 124.716 2.032 1.578 o
-4 4 3 1.329 0.081 0.396 414.269 o
-4 4 4 5.330 3.429 0.503 106.538 o
-4 4 5 142.839 144.572 2.439 1.255 o
-4 4 6 29.157 34.705 1.215 12.181 o
-4 4 7 119.158 123.599 2.353 1.663 o
-4 4 8 4.076 5.127 0.725 94.099 o
-4 4 9 2.663 2.611 0.682 139.230 o
-4 4 10 0.764 1.436 0.816 173.660 o
-4 5 1 27.201 35.869 0.633 13.808 o
-4 5 2 178.372 179.975 2.720 0.862 o
-4 5 3 65.954 73.366 1.682 4.073 o
-4 5 4 272.756 287.270 3.920 0.393 o
-4 5 5 0.017 0.134 0.446 744.046 o
-4 5 6 30.549 32.236 1.208 12.148 o
-4 5 7 12.221 13.853 0.956 33.743 o
-4 5 8 6.433 5.515 0.695 74.377 o
-4 5 9 18.965 18.275 1.385 19.966 o
-4 5 10 0.867 0.563 0.779 198.736 o
-4 6 1 15.142 16.585 0.507 31.262 o
-4 6 2 48.979 48.299 1.281 6.782 o
-4 6 3 2.069 2.378 0.693 154.037 o
-4 6 4 21.187 22.689 1.000 19.260 o
-4 6 5 102.000 101.576 2.098 2.193 o
-4 6 6 53.490 56.502 1.584 5.641 o
-4 6 7 0.149 -0.936 0.479 624.079 o
-4 6 8 0.538 -0.463 0.532 426.288 o
-4 6 9 3.509 3.818 0.811 99.572 o
-4 7 1 0.025 0.078 0.255 2092.910 o
-4 7 2 171.366 164.310 2.194 0.963 o
-4 7 3 22.188 22.351 1.023 18.619 o
-4 7 4 0.384 0.584 0.564 368.481 o
-4 7 5 2.977 2.447 0.591 149.059 o
-4 7 6 0.481 0.080 0.545 414.108 o
-4 7 7 13.994 13.680 1.023 30.317 o
-4 7 8 15.784 17.187 1.162 24.752 o
-4 8 1 51.154 47.470 0.985 6.755 o
-4 8 2 3.925 3.175 0.591 121.959 o
-4 8 3 41.811 43.559 1.367 8.068 o
-4 8 4 10.542 9.222 0.827 44.443 o
-4 8 5 45.520 48.118 1.580 6.976 o
-4 8 6 15.165 14.486 1.023 28.258 o
-4 8 7 0.535 -0.316 0.602 351.240 o
-4 9 1 2.950 2.955 0.502 157.518 o
-4 9 2 39.723 38.109 1.344 8.946 o
-4 9 3 11.161 9.166 0.876 41.934 o
-4 9 4 2.448 3.019 0.661 142.992 o
-4 9 5 25.837 24.711 1.287 15.030 o
-4 9 6 1.311 2.278 0.799 151.192 o
-4 10 1 52.659 54.761 1.404 5.920 o
-4 10 2 3.235 2.423 0.661 132.604 o
-4 10 3 1.294 0.378 0.591 266.681 o
-4 10 4 14.460 15.418 1.101 27.730 o
-4 10 5 11.511 9.256 1.211 34.687 o
-4 11 1 53.090 51.749 2.325 5.331 o
-4 11 2 23.262 23.297 1.262 16.672 o
-4 11 3 2.080 2.999 0.844 120.240 o
-4 12 1 8.181 7.855 1.044 47.640 o
-3 -10 1 21.360 20.615 1.403 17.692 o
-3 -10 2 30.779 32.936 1.770 10.622 o
-3 -10 3 2.852 1.676 0.678 146.070 o
-3 -10 4 60.695 56.452 2.157 4.707 o
-3 -10 5 24.718 24.031 1.503 14.799 o
-3 -10 6 47.020 50.294 2.001 6.258 o
-3 -10 7 4.541 4.033 0.854 84.616 o
-3 -10 8 3.353 3.276 0.821 103.534 o
-3 -9 1 16.620 23.689 1.386 19.723 o
-3 -9 2 1.660 2.416 0.678 168.284 o
-3 -9 3 6.541 7.794 0.880 59.382 o
-3 -9 4 44.746 40.452 1.666 7.509 o
-3 -9 5 6.921 6.202 0.880 61.287 o
-3 -9 6 133.344 141.425 3.198 1.319 o
-3 -9 7 0.011 0.628 0.511 502.985 o
-3 -9 8 89.842 87.851 2.056 2.689 o
-3 -9 9 25.080 28.961 1.307 14.388 o
-3 -9 10 2.106 2.395 0.678 155.789 o
-3 -8 1 49.974 43.500 2.053 6.253 o
-3 -8 2 84.818 77.924 2.133 2.996 o
-3 -8 3 2.329 2.751 0.850 117.302 o
-3 -8 4 9.074 10.295 1.982 23.938 o
-3 -8 5 79.020 84.552 1.776 3.171 o
-3 -8 6 8.142 9.601 0.759 53.101 o
-3 -8 7 32.907 31.137 1.204 11.613 o
-3 -8 8 29.894 32.318 1.308 12.104 o
-3 -8 9 7.546 5.080 0.677 69.418 o
-3 -8 10 40.688 41.915 1.802 7.821 o
-3 -8 11 49.275 56.166 1.707 5.979 o
-3 -7 1 17.593 17.650 1.253 22.182 o
-3 -7 2 102.177 114.545 2.530 2.001 o
-3 -7 3 12.926 12.104 0.681 37.683 o
-3 -7 4 1.785 0.198 0.340 370.242 o
-3 -7 5 15.667 17.582 0.882 27.099 o
-3 -7 6 50.801 48.991 1.358 6.464 o
-3 -7 7 169.531 171.520 2.834 0.934 o
-3 -7 8 0.045 -0.142 0.446 766.920 o
-3 -7 9 51.405 52.668 1.531 6.071 o
-3 -7 10 3.019 4.860 0.661 115.183 o
-3 -7 11 62.493 58.339 2.202 4.499 o
-3 -6 1 0.249 0.175 0.216 1562.140 o
-3 -6 2 119.597 122.548 1.974 1.693 o
-3 -6 3 57.302 53.628 1.212 5.627 o
-3 -6 4 65.429 67.246 1.430 4.376 o
-3 -6 5 0.788 -0.018 0.359 613.359 o
-3 -6 6 15.829 17.650 1.187 24.267 o
-3 -6 7 0.021 -0.550 0.359 1192.500 o
-3 -6 8 0.148 -0.504 0.401 854.375 o
-3 -6 9 1.514 2.052 0.473 244.719 o
-3 -6 10 0.121 0.248 0.424 719.895 o
-3 -6 11 35.465 37.905 1.210 10.060 o
-3 -6 12 8.913 9.702 0.780 49.663 o
-3 -5 1 47.902 50.593 0.660 7.142 o
-3 -5 2 149.683 149.204 1.941 1.192 o
-3 -5 3 45.252 49.814 1.149 7.277 o
-3 -5 4 380.468 381.199 4.699 0.221 o
-3 -5 5 36.691 32.415 1.558 9.798 o
-3 -5 6 275.221 280.741 3.787 0.396 o
-3 -5 7 57.102 51.919 1.051 5.804 o
-3 -5 8 0.116 -0.469 0.331 1229.400 o
-3 -5 9 24.947 26.520 1.435 14.471 o
-3 -5 10 1.347 1.156 0.503 276.593 o
-3 -5 11 0.056 -0.880 0.465 700.048 o
-3 -5 12 3.856 6.295 0.740 89.258 o
-3 -4 1 112.713 105.180 1.047 2.024 o
-3 -4 2 459.012 460.251 4.709 0.157 o
-3 -4 3 889.917 883.134 9.549 0.044 o
-3 -4 4 37.419 31.998 0.956 10.679 o
-3 -4 5 110.812 106.759 1.200 2.037 o
-3 -4 6 722.024 727.730 6.467 0.066 o
-3 -4 7 22.298 20.589 0.708 20.461 o
-3 -4 8 44.448 43.919 1.204 7.785 o
-3 -4 9 3.958 5.002 0.501 115.161 o
-3 -4 10 6.788 5.291 0.523 80.531 o
-3 -4 11 0.001 0.436 0.436 699.988 o
-3 -4 12 0.570 -1.021 0.479 490.935 o
-3 -3 1 1.094 5.345 0.238 228.487 o
-3 -3 2 27.942 35.510 0.500 13.766 o
-3 -3 3 44.764 33.555 0.596 9.150 o
-3 -3 4 6.776 5.683 0.396 83.984 o
-3 -3 5 663.977 657.783 5.852 0.079 o
-3 -3 6 58.148 52.358 0.887 5.746 o
-3 -3 7 49.550 45.840 0.991 7.068 o
-3 -3 8 32.772 36.957 1.005 11.186 o
-3 -3 9 65.387 65.431 1.333 4.471 o
-3 -3 10 7.167 8.112 0.624 64.900 o
-3 -3 11 29.214 30.735 1.033 13.245 o
-3 -3 12 1.512 1.844 0.503 240.414 o
-3 -3 13 5.072 7.732 1.200 52.135 o
-3 -2 1 2347.310 2460.200 16.490 0.006 o
-3 -2 2 244.360 271.854 2.281 0.475 o
-3 -2 3 0.250 1.154 0.186 931.910 o
-3 -2 4 443.535 453.474 4.165 0.166 o
-3 -2 5 22.731 24.507 0.583 19.162 o
-3 -2 6 0.065 0.327 0.260 1512.250 o
-3 -2 7 339.282 336.989 3.745 0.277 o
-3 -2 8 0.776 2.819 0.455 277.653 o
-3 -2 9 124.820 121.013 1.889 1.634 o
-3 -2 10 11.247 10.343 0.680 43.753 o
-3 -2 11 21.758 23.952 1.101 18.042 o
-3 -2 12 0.350 0.415 0.544 408.426 o
-3 -2 13 7.218 8.473 1.628 33.311 o
-3 -1 1 206.557 208.199 1.911 0.683 o
-3 -1 2 85.200 82.732 0.946 3.109 o
-3 -1 3 389.941 396.566 3.364 0.213 o
-3 -1 4 12.700 12.703 0.364 40.728 o
-3 -1 5 0.929 -0.127 0.270 703.825 o
-3 -1 6 142.200 120.035 1.690 1.426 o
-3 -1 7 2.487 4.618 0.925 94.495 o
-3 -1 8 6.374 9.246 0.566 68.113 o
-3 -1 9 33.341 32.954 1.143 11.347 o
-3 -1 10 52.820 54.734 1.243 6.000 o
-3 -1 11 11.082 11.501 0.772 41.173 o
-3 -1 12 10.225 8.680 0.811 46.454 o
-3 0 1 1802.750 2008.180 13.507 0.010 o
-3 0 2 1484.100 1543.630 11.118 0.016 o
-3 0 3 80.012 83.577 1.782 3.151 o
-3 0 4 142.420 110.981 1.537 1.485 o
-3 0 5 41.940 50.133 0.818 7.997 o
-3 0 6 221.478 217.801 2.302 0.609 o
-3 0 7 0.020 -0.148 0.259 2240.160 o
-3 0 8 19.693 18.248 0.745 23.442 o
-3 0 9 16.819 16.553 0.763 27.256 o
-3 0 10 15.420 20.619 0.948 25.181 o
-3 0 11 3.913 3.529 0.638 114.137 o
-3 0 12 58.839 64.701 2.079 4.599 o
-3 1 1 21.869 46.388 0.542 13.967 o
-3 1 2 2.655 3.790 0.271 186.551 o
-3 1 3 2975.310 3058.110 25.059 0.004 o
-3 1 4 631.089 679.841 5.947 0.082 o
-3 1 5 136.505 133.585 1.429 1.424 o
-3 1 6 23.636 20.363 0.511 20.179 o
-3 1 7 0.656 0.189 0.240 877.217 o
-3 1 8 0.445 0.613 0.337 669.639 o
-3 1 9 31.535 26.855 0.972 13.244 o
-3 1 10 4.881 3.116 0.618 105.397 o
-3 1 11 0.003 1.017 0.545 415.864 o
-3 1 12 8.350 9.143 1.019 46.003 o
-3 2 1 436.007 498.108 3.624 0.160 o
-3 2 2 0.082 0.732 0.115 1836.940 o
-3 2 3 77.904 80.077 1.391 3.392 o
-3 2 4 17.544 24.294 0.570 23.426 o
-3 2 5 709.840 679.141 5.987 0.071 o
-3 2 6 110.783 115.757 1.431 1.935 o
-3 2 7 542.448 545.417 5.998 0.114 o
-3 2 8 124.199 127.101 1.905 1.599 o
-3 2 9 39.972 39.021 1.301 8.870 o
-3 2 10 0.117 -0.579 0.569 461.127 o
-3 2 11 3.426 2.027 0.721 124.008 o
-3 2 12 1.198 1.542 0.693 196.255 o
-3 3 1 494.492 502.620 4.115 0.136 o
-3 3 2 10.605 6.124 0.656 52.964 o
-3 3 3 105.476 100.955 1.691 2.170 o
-3 3 4 58.290 55.742 1.219 5.435 o
-3 3 5 0.232 0.443 0.216 1313.990 o
-3 3 6 18.902 17.909 0.501 25.565 o
-3 3 7 274.878 273.574 3.419 0.405 o
-3 3 8 22.310 20.174 0.903 19.793 o
-3 3 9 139.972 137.716 2.503 1.314 o
-3 3 10 0.040 -0.355 0.866 208.989 o
-3 3 11 3.708 2.952 0.754 108.527 o
-3 4 1 45.903 49.371 0.684 7.509 o
-3 4 2 186.460 158.621 3.191 0.863 o
-3 4 3 84.698 96.853 1.691 2.773 o
-3 4 4 87.795 88.805 1.648 2.810 o
-3 4 5 99.510 96.089 1.817 2.351 o
-3 4 6 5.087 6.217 0.441 96.195 o
-3 4 7 50.629 50.981 1.367 6.363 o
-3 4 8 7.749 9.928 0.782 53.304 o
-3 4 9 5.537 4.768 0.579 91.307 o
-3 4 10 7.082 9.562 1.019 49.142 o
-3 4 11 0.098 -0.268 0.721 294.697 o
-3 5 1 1410.350 1444.580 12.133 0.018 o
-3 5 2 1061.860 1098.120 9.339 0.031 o
-3 5 3 158.110 167.661 2.068 1.046 o
-3 5 4 65.239 61.030 1.339 4.629 o
-3 5 5 20.311 18.322 0.545 23.733 o
-3 5 6 66.160 59.794 1.494 4.550 o
-3 5 7 0.001 0.280 0.465 659.588 o
-3 5 8 2.729 2.304 0.618 152.328 o
-3 5 9 0.580 -0.857 0.594 353.697 o
-3 5 10 24.971 30.390 1.642 13.000 o
-3 6 1 1.244 1.145 0.192 469.616 o
-3 6 2 77.693 82.009 1.123 3.408 o
-3 6 3 428.489 407.796 3.887 0.185 o
-3 6 4 201.824 205.744 2.541 0.698 o
-3 6 5 19.553 16.604 0.876 23.594 o
-3 6 6 0.157 0.205 0.479 582.782 o
-3 6 7 0.271 -0.187 0.465 606.333 o
-3 6 8 0.822 0.500 0.552 329.186 o
-3 6 9 3.054 3.085 0.854 104.624 o
-3 7 1 0.407 0.013 0.189 1538.070 o
-3 7 2 125.561 121.486 1.547 1.640 o
-3 7 3 18.359 17.233 0.832 24.724 o
-3 7 4 5.358 6.603 0.452 90.733 o
-3 7 5 121.128 112.756 2.184 1.728 o
-3 7 6 37.010 38.644 1.344 9.434 o
-3 7 7 47.904 47.894 1.483 6.779 o
-3 7 8 16.218 15.709 1.633 20.730 o
-3 8 1 38.743 35.828 0.855 10.005 o
-3 8 2 0.118 0.395 0.337 959.664 o
-3 8 3 0.008 -0.374 0.337 1377.000 o
-3 8 4 61.918 59.691 1.598 4.806 o
-3 8 5 28.529 26.231 1.177 13.976 o
-3 8 6 6.333 7.453 0.811 63.990 o
-3 8 7 25.459 19.514 1.309 16.313 o
-3 8 8 18.554 21.624 2.142 14.467 o
-3 9 1 12.238 11.330 0.769 38.774 o
-3 9 2 120.356 124.915 2.006 1.662 o
-3 9 3 33.204 30.535 1.215 11.591 o
-3 9 4 0.003 -0.086 0.514 596.784 o
-3 9 5 1.420 1.771 0.693 183.290 o
-3 9 6 2.725 3.632 0.821 109.306 o
-3 10 1 21.923 21.706 0.946 19.346 o
-3 10 2 199.961 205.038 3.316 0.692 o
-3 10 3 23.768 24.288 1.484 15.223 o
-3 10 4 13.102 14.731 1.251 28.002 o
-3 10 5 4.792 3.770 0.891 80.858 o
-3 11 1 8.066 8.933 0.980 48.263 o
-3 11 2 0.412 -0.069 0.622 348.452 o
-3 11 3 4.328 3.491 0.995 77.486 o
-3 11 4 4.967 6.954 1.760 34.394 o
-3 12 1 12.519 13.574 1.151 30.790 o
-3 12 2 4.922 4.089 1.056 67.802 o
-2 -11 1 2.847 4.951 0.853 96.390 o
-2 -11 2 5.999 5.359 0.918 66.270 o
-2 -11 3 4.862 5.348 1.503 44.126 o
-2 -11 4 30.112 32.931 1.577 11.282 o
-2 -11 5 5.641 6.133 0.953 64.368 o
-2 -11 6 28.898 25.924 1.542 12.776 o
-2 -11 7 1.282 0.839 0.654 223.024 o
-2 -11 8 111.085 114.466 4.970 1.519 o
-2 -10 1 0.274 1.118 0.654 280.096 o
-2 -10 2 218.840 189.502 3.777 0.643 o
-2 -10 3 14.819 13.646 1.133 27.995 o
-2 -10 4 24.935 23.608 1.416 15.155 o
-2 -10 5 71.237 68.141 2.803 3.490 o
-2 -10 6 4.699 3.261 1.090 69.189 o
-2 -10 7 0.988 0.586 0.493 348.651 o
-2 -10 8 55.437 57.930 1.663 5.354 o
-2 -10 9 3.688 3.398 0.661 116.134 o
-2 -10 10 76.863 83.634 3.942 2.606 o
-2 -9 1 104.960 116.782 2.657 1.914 o
-2 -9 2 3.679 1.428 0.594 143.906 o
-2 -9 3 43.692 51.169 1.735 6.860 o
-2 -9 4 197.005 155.009 3.192 0.818 o
-2 -9 5 8.140 6.272 0.627 64.500 o
-2 -9 6 5.331 6.055 0.627 84.367 o
-2 -9 7 60.861 46.879 1.558 5.425 o
-2 -9 8 1.495 1.333 0.532 246.492 o
-2 -9 9 24.646 20.421 1.104 17.387 o
-2 -9 10 16.422 17.855 1.086 24.466 o
-2 -9 11 12.837 12.577 1.151 31.044 o
-2 -8 1 16.232 12.348 0.953 28.977 o
-2 -8 2 26.787 27.804 1.218 14.229 o
-2 -8 3 45.203 53.656 1.286 6.918 o
-2 -8 4 0.012 -0.369 0.346 1295.980 o
-2 -8 5 298.274 292.795 3.991 0.350 o
-2 -8 6 71.844 55.356 1.657 4.264 o
-2 -8 7 136.901 121.884 2.597 1.427 o
-2 -8 8 0.927 1.826 0.503 283.768 o
-2 -8 9 36.663 29.598 1.154 10.880 o
-2 -8 10 46.467 42.296 1.707 7.101 o
-2 -8 11 12.684 12.000 1.079 32.735 o
-2 -8 12 0.165 1.200 1.028 133.673 o
-2 -7 1 37.086 36.993 0.786 10.338 o
-2 -7 2 480.235 428.754 5.131 0.154 o
-2 -7 3 5.586 5.592 0.503 90.957 o
-2 -7 4 142.786 147.751 2.316 1.247 o
-2 -7 5 42.716 50.717 1.271 7.473 o
-2 -7 6 0.941 1.493 0.396 363.591 o
-2 -7 7 75.301 74.068 1.645 3.585 o
-2 -7 8 274.584 260.745 4.942 0.404 o
-2 -7 9 213.301 203.610 3.169 0.649 o
-2 -7 10 10.845 10.706 1.014 38.267 o
-2 -7 11 4.050 2.627 0.591 124.562 o
-2 -7 12 45.264 44.814 2.645 5.994 o
-2 -6 1 59.227 68.239 0.834 4.967 o
-2 -6 2 13.131 13.515 1.551 24.889 o
-2 -6 3 2.265 0.564 0.266 319.661 o
-2 -6 4 83.348 77.802 1.855 3.117 o
-2 -6 5 196.822 181.858 2.670 0.767 o
-2 -6 6 122.327 118.645 2.048 1.676 o
-2 -6 7 8.911 6.979 0.561 60.735 o
-2 -6 8 186.400 186.851 2.464 0.809 o
-2 -6 9 14.825 15.261 0.780 30.588 o
-2 -6 10 81.883 79.979 1.777 3.149 o
-2 -6 11 127.815 123.284 2.081 1.565 o
-2 -6 12 5.278 4.608 0.754 83.170 o
-2 -5 1 38.636 42.819 0.630 9.442 o
-2 -5 2 282.877 282.930 3.078 0.386 o
-2 -5 3 97.913 85.981 1.464 2.572 o
-2 -5 4 151.426 141.528 2.154 1.203 o
-2 -5 5 343.083 355.559 4.346 0.262 o
-2 -5 6 74.666 61.163 0.915 4.133 o
-2 -5 7 59.974 52.745 0.892 5.550 o
-2 -5 8 108.357 108.822 1.684 2.029 o
-2 -5 9 48.803 45.828 1.087 7.106 o
-2 -5 10 31.059 32.096 0.968 12.507 o
-2 -5 11 33.319 31.292 1.021 11.821 o
-2 -5 12 58.782 66.380 2.120 4.525 o
-2 -5 13 10.787 12.522 1.079 35.467 o
-2 -4 1 1368.990 1352.510 10.618 0.019 o
-2 -4 2 143.513 154.530 1.857 1.227 o
-2 -4 3 830.860 904.416 9.638 0.047 o
-2 -4 4 305.239 298.326 3.660 0.339 o
-2 -4 5 74.373 70.184 0.883 3.900 o
-2 -4 6 27.152 29.639 0.629 15.165 o
-2 -4 7 66.987 76.327 1.271 4.057 o
-2 -4 8 55.489 50.749 1.062 6.025 o
-2 -4 9 57.516 53.743 1.175 5.619 o
-2 -4 10 18.346 13.008 0.712 27.922 o
-2 -4 11 117.879 111.346 1.883 1.816 o
-2 -4 12 34.864 37.532 1.559 9.640 o
-2 -4 13 25.997 27.942 1.416 13.856 o
-2 -3 1 394.779 469.652 4.127 0.186 o
-2 -3 2 121.473 96.153 2.133 1.862 o
-2 -3 3 1671.660 1736.760 14.471 0.013 o
-2 -3 4 33.190 33.830 0.541 12.146 o
-2 -3 5 665.919 694.136 6.070 0.076 o
-2 -3 6 26.473 24.520 0.578 16.891 o
-2 -3 7 118.498 107.809 1.573 1.859 o
-2 -3 8 173.090 170.795 2.233 0.931 o
-2 -3 9 61.230 60.120 1.247 4.994 o
-2 -3 10 41.168 37.892 1.053 9.043 o
-2 -3 11 2.990 2.089 0.452 178.286 o
-2 -3 12 5.327 5.436 0.564 90.969 o
-2 -3 13 35.800 40.867 1.647 8.968 o
-2 -2 1 0.866 1.221 0.094 628.551 o
-2 -2 2 350.957 356.491 2.611 0.260 o
-2 -2 3 468.940 529.346 4.002 0.140 o
-2 -2 4 309.190 279.812 2.638 0.351 o
-2 -2 5 829.213 908.091 7.799 0.048 o
-2 -2 6 172.167 168.077 2.062 0.949 o
-2 -2 7 130.851 131.226 1.940 1.483 o
-2 -2 8 58.978 50.057 1.053 5.711 o
-2 -2 9 29.076 27.924 0.852 14.248 o
-2 -2 10 29.128 32.092 0.960 13.192 o
-2 -2 11 15.751 16.629 0.810 28.162 o
-2 -2 12 0.887 1.004 0.488 338.907 o
-2 -2 13 2.308 2.839 0.785 127.003 o
-2 -1 1 787.396 809.606 5.262 0.056 o
-2 -1 2 17.871 16.962 0.554 27.041 o
-2 -1 3 609.257 616.406 4.771 0.092 o
-2 -1 4 152.322 183.683 1.726 1.039 o
-2 -1 5 35.179 46.254 0.971 9.507 o
-2 -1 6 123.763 107.512 1.653 1.767 o
-2 -1 7 171.986 172.308 2.169 0.935 o
-2 -1 8 348.888 350.125 3.861 0.261 o
-2 -1 9 2.842 3.331 0.441 164.546 o
-2 -1 10 32.384 32.353 1.186 11.623 o
-2 -1 11 0.949 0.343 0.363 501.063 o
-2 -1 12 1.058 2.345 0.574 225.854 o
-2 -1 13 7.593 8.279 0.953 51.678 o
-2 0 1 38.838 36.175 0.404 10.311 o
-2 0 2 37.681 47.234 0.514 9.249 o
-2 0 3 544.200 525.623 3.394 0.118 o
-2 0 4 355.392 392.219 3.309 0.240 o
-2 0 5 853.107 930.421 7.938 0.045 o
-2 0 6 77.211 70.279 1.015 3.726 o
-2 0 7 5.608 5.760 0.398 95.043 o
-2 0 8 30.873 31.669 0.852 12.858 o
-2 0 9 160.236 155.935 2.183 1.070 o
-2 0 10 30.870 32.467 0.992 12.463 o
-2 0 11 0.327 0.411 0.441 561.412 o
-2 0 12 37.064 37.491 1.577 9.167 o
-2 1 1 1629.010 1559.110 20.195 0.014 o
-2 1 2 178.861 174.007 1.407 0.903 o
-2 1 3 363.911 382.022 3.179 0.237 o
-2 1 4 8.791 12.173 0.349 53.862 o
-2 1 5 59.994 58.405 0.843 5.309 o
-2 1 6 28.834 23.737 0.533 15.944 o
-2 1 7 4.975 6.485 1.452 44.390 o
-2 1 8 16.114 21.963 1.562 19.339 o
-2 1 9 101.041 98.659 1.625 2.305 o
-2 1 10 11.609 10.871 0.655 42.490 o
-2 1 11 17.809 19.826 1.251 21.186 o
-2 1 12 15.077 17.463 1.218 24.790 o
-2 2 1 865.998 843.234 5.539 0.048 o
-2 2 2 1.777 2.398 0.161 302.081 o
-2 2 3 46.931 38.309 0.869 8.115 o
-2 2 4 262.838 260.506 2.499 0.446 o
-2 2 5 250.851 248.733 2.469 0.485 o
-2 2 6 62.297 60.996 0.938 4.982 o
-2 2 7 507.684 493.324 4.765 0.133 o
-2 2 8 19.040 18.628 0.750 23.852 o
-2 2 9 8.599 10.302 0.644 52.928 o
-2 2 10 24.236 28.595 1.378 14.551 o
-2 2 11 6.201 5.715 0.854 67.420 o
-2 2 12 6.629 8.982 1.067 49.958 o
-2 3 1 42.088 36.759 0.435 9.468 o
-2 3 2 1511.130 1530.410 11.722 0.016 o
-2 3 3 0.219 0.540 0.353 775.573 o
-2 3 4 138.124 134.406 1.479 1.399 o
-2 3 5 64.298 71.476 1.004 4.440 o
-2 3 6 36.318 36.652 0.753 10.610 o
-2 3 7 133.073 131.230 1.871 1.460 o
-2 3 8 13.049 11.625 0.546 39.491 o
-2 3 9 36.651 34.558 1.033 10.440 o
-2 3 10 0.062 0.848 0.725 261.385 o
-2 3 11 5.597 7.106 0.880 65.664 o
-2 4 1 316.970 308.465 2.647 0.321 o
-2 4 2 306.698 312.438 2.901 0.331 o
-2 4 3 318.749 302.862 2.876 0.322 o
-2 4 4 187.055 202.655 2.101 0.774 o
-2 4 5 37.466 37.680 0.713 10.233 o
-2 4 6 0.022 0.448 0.233 1677.720 o
-2 4 7 2.374 3.031 0.395 194.418 o
-2 4 8 37.898 36.981 1.012 9.883 o
-2 4 9 4.928 3.664 0.721 93.106 o
-2 4 10 23.084 21.474 1.317 16.982 o
-2 4 11 13.581 13.171 1.179 29.273 o
-2 5 1 224.922 251.518 2.458 0.547 o
-2 5 2 1.538 0.566 0.183 472.964 o
-2 5 3 21.611 18.484 0.492 22.638 o
-2 5 4 0.004 0.104 0.174 4026.620 o
-2 5 5 55.617 52.178 0.915 6.002 o
-2 5 6 0.207 0.319 0.316 990.961 o
-2 5 7 17.275 18.201 0.773 25.730 o
-2 5 8 0.573 0.300 0.778 218.702 o
-2 5 9 0.783 1.245 0.654 239.763 o
-2 5 10 2.324 1.885 1.200 79.535 o
-2 6 1 559.167 545.583 4.951 0.110 o
-2 6 2 1.925 1.753 0.259 295.715 o
-2 6 3 2.197 1.478 0.223 292.449 o
-2 6 4 138.976 138.915 1.930 1.347 o
-2 6 5 20.544 22.208 0.964 20.034 o
-2 6 6 50.899 51.348 1.163 6.445 o
-2 6 7 6.652 6.681 0.709 68.644 o
-2 6 8 0.253 0.893 0.654 291.442 o
-2 6 9 0.289 0.171 0.848 202.489 o
-2 7 1 2.676 3.096 0.355 187.717 o
-2 7 2 402.084 398.708 4.621 0.202 o
-2 7 3 113.495 111.140 1.981 1.885 o
-2 7 4 15.894 18.142 0.837 26.861 o
-2 7 5 1.395 1.813 0.394 294.267 o
-2 7 6 106.117 100.462 2.001 2.128 o
-2 7 7 23.643 22.180 1.279 16.689 o
-2 7 8 10.747 9.426 1.268 34.755 o
-2 8 1 83.701 86.960 1.346 3.031 o
-2 8 2 3.943 6.062 0.502 107.630 o
-2 8 3 5.632 9.129 0.611 71.433 o
-2 8 4 218.725 213.679 2.789 0.619 o
-2 8 5 44.045 41.095 1.548 7.703 o
-2 8 6 4.750 7.548 0.908 67.646 o
-2 8 7 13.878 12.399 1.454 25.898 o
-2 8 8 7.574 5.827 1.714 32.684 o
-2 9 1 699.842 680.712 6.446 0.072 o
-2 9 2 55.860 55.571 1.291 5.631 o
-2 9 3 30.824 31.130 1.098 12.479 o
-2 9 4 9.840 11.505 0.989 40.039 o
-2 9 5 14.293 14.774 1.109 28.225 o
-2 9 6 12.064 11.330 3.428 10.401 o
-2 10 1 0.835 1.158 0.434 375.797 o
-2 10 2 12.552 12.898 1.088 32.117 o
-2 10 3 82.121 72.057 3.173 2.881 o
-2 10 4 7.758 7.686 0.953 52.137 o
-2 10 5 4.592 4.079 0.880 82.031 o
-2 11 1 10.152 9.387 0.833 45.166 o
-2 11 2 115.681 121.502 4.244 1.522 o
-2 11 3 56.742 58.982 2.043 4.970 o
-2 12 1 1.323 1.371 0.721 185.367 o
-1 -12 2 59.972 59.877 2.133 4.654 o
-1 -12 3 8.698 8.913 1.001 45.840 o
-1 -12 4 15.284 11.752 1.457 24.822 o
-1 -12 5 1.289 1.868 0.763 166.097 o
-1 -12 6 18.022 21.035 1.443 19.287 o
-1 -11 1 52.166 55.009 2.584 5.059 o
-1 -11 2 0.181 0.212 0.603 385.407 o
-1 -11 3 63.499 71.991 2.172 4.050 o
-1 -11 4 71.377 69.053 2.427 3.621 o
-1 -11 5 5.308 2.372 0.743 94.073 o
-1 -11 6 29.202 31.722 1.508 11.886 o
-1 -11 7 18.187 18.537 1.080 22.606 o
-1 -11 8 77.677 82.932 2.007 3.199 o
-1 -11 9 2.412 2.493 0.754 133.393 o
-1 -10 1 44.063 46.294 1.676 7.188 o
-1 -10 2 0.972 0.846 0.554 294.540 o
-1 -10 3 80.481 77.315 2.142 3.163 o
-1 -10 4 1.427 1.600 0.594 219.021 o
-1 -10 5 119.527 120.076 2.225 1.694 o
-1 -10 6 31.369 34.755 1.227 11.488 o
-1 -10 7 37.572 37.299 1.258 9.585 o
-1 -10 8 0.572 1.703 0.742 201.405 o
-1 -10 9 0.086 0.040 0.898 191.796 o
-1 -10 10 36.837 45.089 1.766 8.229 o
-1 -9 1 139.842 133.175 2.767 1.323 o
-1 -9 2 1.226 0.630 0.700 212.636 o
-1 -9 3 2.457 4.557 0.520 146.697 o
-1 -9 4 284.483 258.090 3.599 0.401 o
-1 -9 5 30.801 24.377 1.088 13.701 o
-1 -9 6 0.768 0.514 0.379 508.261 o
-1 -9 7 160.283 160.778 2.712 1.034 o
-1 -9 8 0.047 -0.238 0.379 1047.340 o
-1 -9 9 72.546 73.255 1.749 3.706 o
-1 -9 10 1.642 2.685 0.693 161.488 o
-1 -9 11 35.218 37.904 1.614 9.428 o
-1 -8 1 13.533 12.101 0.535 38.006 o
-1 -8 2 55.979 49.378 0.972 6.088 o
-1 -8 3 64.769 55.236 1.011 4.991 o
-1 -8 4 13.498 9.718 0.506 41.115 o
-1 -8 5 24.668 24.721 1.212 15.838 o
-1 -8 6 177.003 156.754 2.522 0.943 o
-1 -8 7 223.164 201.052 3.760 0.610 o
-1 -8 8 7.343 5.871 0.754 65.182 o
-1 -8 9 0.559 0.529 0.474 439.747 o
-1 -8 10 11.554 10.793 0.811 40.254 o
-1 -8 11 51.550 55.844 1.875 5.647 o
-1 -8 12 3.519 3.685 0.754 106.195 o
-1 -7 1 1.004 1.407 0.264 450.488 o
-1 -7 2 275.791 273.873 2.505 0.409 o
-1 -7 3 26.888 30.118 0.557 15.300 o
-1 -7 4 202.467 186.208 1.956 0.744 o
-1 -7 5 34.494 37.989 0.658 11.018 o
-1 -7 6 507.640 495.279 5.136 0.132 o
-1 -7 7 85.839 85.411 1.411 2.972 o
-1 -7 8 26.462 22.967 0.760 16.882 o
-1 -7 9 43.079 34.670 0.967 9.073 o
-1 -7 10 63.337 64.073 1.577 4.562 o
-1 -7 11 0.220 -0.043 0.554 460.688 o
-1 -7 12 7.159 7.296 0.891 57.366 o
-1 -7 13 0.881 1.596 0.740 191.805 o
-1 -6 1 266.172 255.659 2.302 0.446 o
-1 -6 2 0.940 0.674 0.168 664.556 o
-1 -6 3 211.508 196.712 1.992 0.685 o
-1 -6 4 21.985 19.873 0.429 21.893 o
-1 -6 5 35.990 38.537 0.672 10.534 o
-1 -6 6 659.723 617.106 5.561 0.083 o
-1 -6 7 206.474 209.735 2.308 0.675 o
-1 -6 8 127.189 126.453 1.861 1.565 o
-1 -6 9 1.029 1.288 0.355 393.334 o
-1 -6 10 0.434 0.135 0.315 873.345 o
-1 -6 11 44.013 38.090 1.155 8.387 o
-1 -6 12 3.629 4.596 0.608 113.489 o
-1 -6 13 0.533 3.187 1.628 52.623 o
-1 -5 1 496.428 514.659 4.182 0.133 o
-1 -5 2 1855.180 2056.560 15.683 0.010 o
-1 -5 3 116.410 98.402 1.673 1.975 o
-1 -5 4 246.459 273.213 2.598 0.467 o
-1 -5 5 221.950 201.007 2.055 0.638 o
-1 -5 6 30.740 23.868 0.728 14.661 o
-1 -5 7 300.612 304.365 3.075 0.344 o
-1 -5 8 75.753 74.111 1.291 3.648 o
-1 -5 9 26.732 24.313 0.789 16.306 o
-1 -5 10 1.174 0.812 0.382 389.718 o
-1 -5 11 12.139 13.104 0.795 36.785 o
-1 -5 12 13.806 11.551 0.827 34.698 o
-1 -5 13 0.881 1.741 0.654 220.429 o
-1 -4 1 3550.200 3771.260 41.713 0.003 o
-1 -4 2 708.559 752.827 6.408 0.066 o
-1 -4 3 299.095 358.377 3.252 0.311 o
-1 -4 4 3642.110 3824.550 31.539 0.003 o
-1 -4 5 42.565 36.049 0.590 9.352 o
-1 -4 6 10.881 13.919 0.426 43.284 o
-1 -4 7 28.725 26.968 1.257 13.528 o
-1 -4 8 5.016 4.103 0.409 112.744 o
-1 -4 9 363.190 340.765 3.814 0.253 o
-1 -4 10 13.832 12.132 0.651 36.170 o
-1 -4 11 20.672 24.168 0.864 19.717 o
-1 -4 12 0.538 0.314 0.445 507.405 o
-1 -4 13 0.517 0.775 0.577 328.708 o
-1 -3 1 112.100 118.621 1.003 1.909 o
-1 -3 2 116.280 130.631 1.200 1.728 o
-1 -3 3 690.034 710.295 4.684 0.072 o
-1 -3 4 90.325 103.121 1.074 2.585 o
-1 -3 5 82.937 122.112 1.373 2.496 o
-1 -3 6 1607.520 1605.650 14.715 0.014 o
-1 -3 7 171.829 170.330 2.114 0.943 o
-1 -3 8 27.213 23.991 0.703 16.358 o
-1 -3 9 2.920 4.534 0.424 147.992 o
-1 -3 10 16.874 21.301 0.795 24.408 o
-1 -3 11 23.084 21.823 0.864 18.886 o
-1 -3 12 22.120 19.925 1.023 19.447 o
-1 -3 13 0.822 1.305 0.678 224.880 o
-1 -2 1 1295.020 1421.370 10.891 0.020 o
-1 -2 2 1217.280 1163.010 14.463 0.024 o
-1 -2 3 95.951 101.261 0.845 2.471 o
-1 -2 4 203.297 181.844 1.476 0.756 o
-1 -2 5 50.051 42.409 0.635 7.432 o
-1 -2 6 525.958 565.614 5.533 0.116 o
-1 -2 7 149.270 185.474 2.237 1.040 o
-1 -2 8 299.930 319.395 3.525 0.332 o
-1 -2 9 46.203 47.116 1.033 7.420 o
-1 -2 10 54.478 52.529 1.130 6.003 o
-1 -2 11 6.983 6.148 0.556 74.518 o
-1 -2 12 17.438 22.259 1.042 21.932 o
-1 -2 13 4.766 7.353 0.880 69.632 o
-1 -1 1 2129.500 2012.780 34.956 0.008 o
-1 -1 2 123.414 153.853 2.018 1.433 o
-1 -1 3 3224.760 3288.010 23.486 0.004 o
-1 -1 4 4.534 2.011 0.194 159.710 o
-1 -1 5 350.232 342.924 2.749 0.267 o
-1 -1 6 148.481 128.658 1.624 1.313 o
-1 -1 7 1.092 1.296 0.285 429.215 o
-1 -1 8 10.251 10.385 0.518 49.328 o
-1 -1 9 0.232 -0.381 0.295 1270.870 o
-1 -1 10 88.728 86.704 1.760 2.795 o
-1 -1 11 77.304 76.709 1.711 3.418 o
-1 -1 12 4.112 5.363 0.653 98.147 o
-1 -1 13 12.845 9.812 0.980 35.844 o
-1 0 1 4868.100 3298.310 102.499 0.002 o
-1 0 2 5124.740 4633.000 56.228 0.001 o
-1 0 3 4439.880 4292.270 30.509 0.002 o
-1 0 4 113.775 142.963 1.157 1.673 o
-1 0 5 680.042 672.499 5.403 0.075 o
-1 0 6 28.609 21.666 0.529 16.603 o
-1 0 7 418.857 406.133 4.229 0.190 o
-1 0 8 128.804 144.037 1.957 1.430 o
-1 0 9 353.493 346.542 3.857 0.259 o
-1 0 10 0.485 0.686 0.363 591.611 o
-1 0 11 5.136 5.805 0.638 86.550 o
-1 0 12 26.949 27.381 1.181 14.362 o
-1 0 13 18.490 22.592 1.684 17.025 o
-1 1 1 2032.920 1309.370 27.841 0.011 o
-1 1 2 258.127 258.832 7.091 0.406 o
-1 1 3 1627.230 1576.110 11.255 0.014 o
-1 1 4 1203.710 1194.510 8.641 0.025 o
-1 1 5 1093.460 1127.410 8.217 0.029 o
-1 1 6 934.443 952.810 8.184 0.040 o
-1 1 7 179.830 161.327 2.043 0.923 o
-1 1 8 230.072 216.641 2.640 0.580 o
-1 1 9 177.803 177.562 2.534 0.877 o
-1 1 10 6.017 7.787 0.891 61.351 o
-1 1 11 44.577 44.933 1.384 7.517 o
-1 1 12 1.235 0.771 0.622 241.804 o
-1 2 1 270.152 312.172 4.397 0.374 o
-1 2 2 1654.040 1615.270 12.964 0.013 o
-1 2 3 419.845 424.631 3.076 0.187 o
-1 2 4 769.770 846.200 6.247 0.055 o
-1 2 5 260.673 246.398 2.263 0.467 o
-1 2 6 203.214 208.988 2.208 0.691 o
-1 2 7 448.221 474.914 4.426 0.159 o
-1 2 8 249.816 252.845 2.977 0.479 o
-1 2 9 31.196 26.884 0.835 13.649 o
-1 2 10 0.113 0.059 0.457 680.135 o
-1 2 11 11.171 13.677 1.054 34.213 o
-1 2 12 3.140 5.149 0.821 95.332 o
-1 3 1 116.211 112.018 1.298 1.879 o
-1 3 2 568.625 588.886 4.149 0.103 o
-1 3 3 0.067 0.838 0.250 1118.070 o
-1 3 4 1565.440 1575.850 13.859 0.015 o
-1 3 5 69.144 68.225 0.910 4.255 o
-1 3 6 117.367 122.782 1.687 1.745 o
-1 3 7 6.876 6.888 0.486 75.230 o
-1 3 8 1.080 1.312 0.328 401.265 o
-1 3 9 93.813 93.802 1.835 2.527 o
-1 3 10 154.317 152.163 2.578 1.116 o
-1 3 11 0.121 0.985 0.577 364.979 o
-1 4 1 132.145 129.439 1.133 1.513 o
-1 4 2 177.648 159.705 1.451 0.954 o
-1 4 3 0.161 0.387 0.396 737.205 o
-1 4 4 56.754 66.505 0.983 5.195 o
-1 4 5 323.652 314.140 3.428 0.307 o
-1 4 6 150.192 136.969 1.891 1.245 o
-1 4 7 8.733 9.949 0.584 54.455 o
-1 4 8 0.527 0.441 0.374 604.275 o
-1 4 9 0.081 0.109 0.479 629.343 o
-1 4 10 0.504 1.942 0.835 168.216 o
-1 4 11 12.050 13.250 1.800 22.907 o
-1 5 1 0.009 0.000 0.135 8034.100 o
-1 5 2 606.384 608.262 4.977 0.093 o
-1 5 3 18.061 24.324 0.583 22.883 o
-1 5 4 0.072 0.282 0.315 1184.690 o
-1 5 5 10.427 9.296 0.458 51.559 o
-1 5 6 3.357 4.776 0.464 131.184 o
-1 5 7 197.110 186.395 2.466 0.759 o
-1 5 8 0.266 0.147 0.600 380.559 o
-1 5 9 39.469 41.731 2.060 7.636 o
-1 5 10 3.322 4.526 1.025 78.610 o
-1 6 1 1.266 2.825 0.294 296.723 o
-1 6 2 37.127 39.635 0.746 10.048 o
-1 6 3 5.191 4.548 0.351 110.312 o
-1 6 4 134.298 129.569 1.830 1.457 o
-1 6 5 65.038 58.770 1.572 4.629 o
-1 6 6 43.194 42.786 1.399 7.872 o
-1 6 7 1.321 0.484 0.522 298.334 o
-1 6 8 10.689 14.626 1.390 29.062 o
-1 6 9 21.092 16.403 1.575 17.965 o
-1 7 1 86.886 89.010 1.150 2.909 o
-1 7 2 87.899 90.631 1.297 2.829 o
-1 7 3 245.815 240.854 2.904 0.503 o
-1 7 4 26.400 25.410 1.050 15.436 o
-1 7 5 4.443 3.123 0.456 126.944 o
-1 7 6 7.174 5.332 0.530 77.103 o
-1 7 7 7.612 6.625 1.091 49.770 o
-1 7 8 8.264 9.026 1.800 28.198 o
-1 8 1 160.999 162.459 2.184 1.040 o
-1 8 2 35.808 36.391 1.411 9.824 o
-1 8 3 37.524 39.365 1.085 9.609 o
-1 8 4 2.563 2.520 0.532 170.303 o
-1 8 5 20.953 18.793 0.961 21.006 o
-1 8 6 6.662 4.427 0.969 62.719 o
-1 8 7 0.384 2.651 0.903 144.079 o
-1 9 1 153.901 161.200 2.254 1.096 o
-1 9 2 2.137 1.583 0.488 217.274 o
-1 9 3 14.775 11.673 0.811 33.125 o
-1 9 4 9.636 7.841 0.725 51.736 o
-1 9 5 21.174 25.861 1.587 15.535 o
-1 9 6 14.808 17.010 1.575 21.796 o
-1 10 1 2.313 0.824 0.495 226.098 o
-1 10 2 55.939 58.089 2.103 5.025 o
-1 10 3 0.910 1.365 0.532 289.835 o
-1 10 4 4.104 4.524 0.821 88.909 o
-1 10 5 7.560 7.902 2.399 20.101 o
-1 11 1 42.961 39.739 1.459 8.083 o
-1 11 2 42.592 40.465 1.434 8.115 o
-1 11 3 4.442 5.051 0.854 81.289 o
-1 12 1 3.793 3.223 0.821 98.693 o
0 -12 1 19.634 19.145 1.350 19.480 o
0 -12 2 22.079 18.095 1.279 18.703 o
0 -12 3 11.575 9.724 0.980 38.416 o
0 -12 4 46.252 41.014 1.713 7.207 o
0 -12 5 37.617 38.907 1.642 8.822 o
0 -12 6 6.447 6.005 0.854 65.294 o
0 -12 7 39.501 43.607 1.812 7.859 o
0 -12 8 102.971 111.134 2.817 1.980 o
0 -11 1 131.042 132.563 3.296 1.381 o
0 -11 2 0.550 1.771 0.594 268.629 o
0 -11 3 0.458 0.192 0.732 252.426 o
0 -11 4 12.752 8.850 0.891 38.426 o
0 -11 5 0.482 0.280 0.415 577.409 o
0 -11 6 15.380 13.898 0.869 29.917 o
0 -11 7 29.768 30.732 1.237 12.568 o
0 -11 8 15.481 14.873 1.133 26.534 o
0 -11 9 82.914 87.426 4.202 2.337 o
0 -11 10 42.112 47.948 1.840 7.149 o
0 -10 1 8.322 9.198 0.792 52.285 o
0 -10 2 18.319 20.577 1.209 20.815 o
0 -10 3 61.683 63.162 1.481 4.749 o
0 -10 4 11.462 9.290 0.695 44.332 o
0 -10 5 39.069 41.172 1.206 8.956 o
0 -10 6 6.731 5.977 0.618 74.292 o
0 -10 7 68.970 70.749 1.663 3.984 o
0 -10 8 2.091 2.405 0.769 138.235 o
0 -10 9 28.294 29.854 1.435 12.660 o
0 -10 10 58.790 62.335 2.516 4.419 o
0 -10 11 30.980 31.845 1.566 11.222 o
0 -9 1 10.038 9.204 0.566 51.294 o
0 -9 2 558.241 534.340 5.550 0.111 o
0 -9 3 3.945 2.565 0.395 150.265 o
0 -9 4 149.091 153.349 2.103 1.173 o
0 -9 5 67.308 63.824 1.309 4.406 o
0 -9 6 29.898 27.629 0.852 13.975 o
0 -9 7 22.015 23.783 0.937 18.650 o
0 -9 8 25.029 26.149 0.993 16.099 o
0 -9 9 15.858 19.612 1.218 23.092 o
0 -9 10 5.274 7.020 0.854 68.996 o
0 -9 11 0.957 1.028 0.889 153.186 o
0 -9 12 53.694 55.334 1.934 5.436 o
0 -8 1 24.903 26.582 1.359 14.761 o
0 -8 2 190.321 200.156 2.468 0.759 o
0 -8 3 7.985 7.374 0.447 67.611 o
0 -8 4 364.104 344.584 3.405 0.252 o
0 -8 5 236.284 244.837 2.901 0.521 o
0 -8 6 31.048 29.503 0.835 13.214 o
0 -8 7 45.920 45.409 0.931 7.663 o
0 -8 8 421.788 421.166 4.649 0.184 o
0 -8 9 1.698 1.426 0.365 296.103 o
0 -8 10 1.835 2.031 0.479 224.171 o
0 -8 11 10.355 13.915 1.052 35.456 o
0 -8 12 0.137 0.204 0.554 456.698 o
0 -7 1 13.084 13.179 0.434 38.725 o
0 -7 2 4.740 5.622 0.328 110.262 o
0 -7 3 54.153 44.533 0.890 6.615 o
0 -7 4 341.729 343.035 3.300 0.273 o
0 -7 5 155.843 144.684 1.713 1.165 o
0 -7 6 11.369 12.491 0.628 41.447 o
0 -7 7 384.899 382.143 4.149 0.219 o
0 -7 8 130.707 138.395 1.984 1.440 o
0 -7 9 109.322 108.758 1.732 2.006 o
0 -7 10 147.100 152.864 3.636 1.118 o
0 -7 11 41.392 38.420 1.274 8.695 o
0 -7 12 0.150 0.082 0.792 240.324 o
0 -7 13 16.851 15.535 1.511 21.418 o
0 -6 1 698.254 661.565 5.354 0.074 o
0 -6 2 30.276 34.596 0.586 12.956 o
0 -6 3 441.149 464.830 4.217 0.164 o
0 -6 4 128.599 144.904 1.622 1.443 o
0 -6 5 115.438 102.709 1.278 1.981 o
0 -6 6 84.924 89.991 1.374 2.929 o
0 -6 7 0.992 1.337 0.295 438.672 o
0 -6 8 0.059 -0.042 0.275 1849.060 o
0 -6 9 264.825 260.576 3.119 0.438 o
0 -6 10 5.015 6.488 0.700 81.006 o
0 -6 11 291.891 278.131 3.912 0.370 o
0 -6 12 59.398 63.598 1.707 4.795 o
0 -6 13 22.691 22.396 1.385 16.617 o
0 -5 1 718.524 852.539 6.698 0.060 o
0 -5 2 19.435 10.966 0.460 29.363 o
0 -5 3 689.934 709.756 5.687 0.072 o
0 -5 4 10.359 8.612 0.306 55.251 o
0 -5 5 230.436 235.387 2.171 0.556 o
0 -5 6 126.543 131.762 1.557 1.555 o
0 -5 7 60.733 58.973 1.031 5.161 o
0 -5 8 21.125 14.785 0.592 24.475 o
0 -5 9 23.742 22.971 0.822 18.262 o
0 -5 10 4.050 3.152 0.406 139.576 o
0 -5 11 140.706 135.261 2.326 1.329 o
0 -5 12 20.460 22.917 1.317 18.022 o
0 -5 13 97.637 98.933 2.538 2.256 o
0 -4 1 106.004 122.512 0.994 1.988 o
0 -4 2 1379.090 1416.500 9.552 0.019 o
0 -4 3 327.164 388.074 2.829 0.267 o
0 -4 4 122.548 97.893 1.041 1.906 o
0 -4 5 179.571 191.153 1.678 0.847 o
0 -4 6 75.863 65.078 0.915 3.953 o
0 -4 7 31.062 30.904 0.792 13.031 o
0 -4 8 0.976 1.444 0.536 278.514 o
0 -4 9 17.114 17.300 0.655 27.173 o
0 -4 10 2.157 1.558 0.346 258.949 o
0 -4 11 13.052 12.154 0.746 36.564 o
0 -4 12 0.770 1.143 0.594 275.963 o
0 -4 13 31.636 33.131 1.508 11.019 o
0 -3 1 2355.850 2406.930 17.502 0.007 o
0 -3 2 21.849 22.405 0.537 20.682 o
0 -3 3 1555.760 1594.470 10.752 0.015 o
0 -3 4 16.637 19.305 0.419 27.740 o
0 -3 5 229.598 235.485 1.980 0.560 o
0 -3 6 5.536 18.191 0.451 53.349 o
0 -3 7 27.450 27.638 0.583 15.578 o
0 -3 8 254.646 250.844 2.876 0.471 o
0 -3 9 5.575 5.627 0.434 94.415 o
0 -3 10 20.774 18.603 0.781 22.148 o
0 -3 11 4.350 2.908 0.503 126.079 o
0 -3 12 28.569 36.482 1.478 11.467 o
0 -3 13 0.037 0.121 0.941 175.352 o
0 -2 1 126.616 60.840 1.542 2.161 o
0 -2 2 4.747 2.764 0.469 123.452 o
0 -2 3 1287.270 1287.590 9.217 0.022 o
0 -2 4 7.575 7.699 0.207 74.203 o
0 -2 5 2526.990 2641.460 20.208 0.006 o
0 -2 6 22.606 26.121 0.506 18.900 o
0 -2 7 79.283 77.468 1.090 3.444 o
0 -2 8 1.822 3.306 0.401 212.161 o
0 -2 9 26.495 26.004 0.930 15.616 o
0 -2 10 6.545 6.650 0.486 78.580 o
0 -2 11 11.986 10.725 0.782 39.801 o
0 -2 12 51.457 47.492 1.614 6.279 o
0 -2 13 0.164 -0.043 0.554 473.117 o
0 -1 2 484.623 300.633 29.049 0.094 o
0 -1 3 924.773 976.436 8.813 0.040 o
0 -1 4 2.391 1.701 0.154 278.676 o
0 -1 5 1.651 3.687 0.193 253.095 o
0 -1 6 347.769 340.414 2.921 0.270 o
0 -1 7 157.312 156.785 1.739 1.102 o
0 -1 8 181.902 180.651 1.991 0.857 o
0 -1 9 40.760 39.749 1.370 8.569 o
0 -1 10 131.568 127.370 2.196 1.483 o
0 -1 11 17.261 17.878 0.989 24.398 o
0 -1 12 10.526 8.668 0.880 44.118 o
0 -1 13 4.714 5.168 0.844 79.422 o
0 0 2 7.284 2.228 0.171 104.203 o
0 0 3 2599.960 2599.860 32.905 0.005 o
0 0 4 230.265 237.414 1.725 0.557 o
0 0 5 83.346 86.844 0.944 3.102 o
0 0 6 15.869 11.233 0.383 35.360 o
0 0 7 496.744 471.747 4.304 0.141 o
0 0 8 424.474 423.801 3.962 0.183 o
0 0 9 40.023 39.892 0.913 9.217 o
0 0 10 45.472 50.249 1.322 7.077 o
0 0 11 0.014 0.093 0.465 697.748 o
0 0 12 3.269 1.371 0.532 166.138 o
0 1 2 21451.200 15934.900 306.353 0.000 o
0 1 3 4839.170 4778.200 34.552 0.002 o
0 1 4 448.969 413.232 2.987 0.174 o
0 1 5 1788.880 1968.980 16.243 0.011 o
0 1 6 44.592 46.078 0.716 7.957 o
0 1 7 21.121 18.813 0.487 22.947 o
0 1 8 0.850 1.537 0.316 431.167 o
0 1 9 17.692 16.101 0.850 25.890 o
0 1 10 16.599 14.264 0.827 28.444 o
0 1 11 1.668 0.806 0.479 276.357 o
0 1 12 59.531 67.725 1.758 4.616 o
0 2 0 9.423 13.258 0.715 44.135 o
0 2 1 778.544 369.635 7.884 0.082 o
0 2 2 1601.960 1743.170 12.406 0.013 o
0 2 3 1686.210 1702.070 10.892 0.013 o
0 2 4 2184.140 2358.080 16.776 0.007 o
0 2 5 1626.590 1699.760 13.073 0.013 o
0 2 6 87.093 90.427 1.140 2.879 o
0 2 7 116.285 123.666 1.469 1.769 o
0 2 8 15.083 16.434 0.623 30.668 o
0 2 9 20.333 18.998 1.022 21.062 o
0 2 10 22.237 21.820 1.023 18.755 o
0 2 11 0.613 0.955 0.495 373.369 o
0 2 12 5.635 5.498 1.146 56.458 o
0 3 0 18.348 21.430 0.365 24.749 o
0 3 1 179.461 172.846 1.450 0.902 o
0 3 2 0.023 1.085 0.260 988.443 o
0 3 3 201.853 214.547 1.790 0.690 o
0 3 4 1.474 1.331 0.175 410.457 o
0 3 5 172.388 145.547 1.493 1.037 o
0 3 6 192.911 180.323 1.936 0.802 o
0 3 7 626.804 612.361 6.118 0.088 o
0 3 8 25.763 25.628 1.062 15.644 o
0 3 9 2.707 2.245 0.503 175.717 o
0 3 10 24.095 22.321 1.596 15.003 o
0 3 11 1.333 -0.094 0.866 163.000 o
0 4 0 1409.800 1486.890 10.022 0.018 o
0 4 1 411.775 426.049 2.911 0.191 o
0 4 2 2.169 3.878 0.195 215.517 o
0 4 3 134.336 127.422 1.290 1.493 o
0 4 4 264.055 251.196 2.135 0.456 o
0 4 5 25.355 24.779 0.507 17.599 o
0 4 6 121.726 129.364 1.785 1.625 o
0 4 7 10.051 6.192 0.585 56.740 o
0 4 8 97.683 93.771 1.796 2.429 o
0 4 9 106.025 93.914 2.340 2.157 o
0 4 10 11.230 10.737 1.052 36.776 o
0 5 0 874.087 891.209 6.993 0.046 o
0 5 1 49.890 45.691 0.638 7.217 o
0 5 2 1151.880 1173.030 9.884 0.027 o
0 5 3 77.270 76.716 1.022 3.564 o
0 5 4 62.490 62.948 0.938 4.890 o
0 5 5 0.800 2.064 0.446 315.153 o
0 5 6 105.459 91.563 1.471 2.300 o
0 5 7 47.158 45.762 1.583 6.915 o
0 5 8 56.110 47.532 1.713 5.729 o
0 5 9 7.674 6.708 1.985 26.574 o
0 5 10 21.341 21.937 1.754 15.463 o
0 6 0 48.008 47.464 0.724 7.320 o
0 6 1 45.977 35.456 0.636 8.697 o
0 6 2 43.060 46.438 0.747 8.165 o
0 6 3 149.857 155.585 1.745 1.169 o
0 6 4 509.084 503.076 5.162 0.130 o
0 6 5 16.888 14.785 0.818 27.829 o
0 6 6 28.508 29.769 0.946 13.895 o
0 6 7 9.925 12.370 0.989 38.917 o
0 6 8 1.911 0.667 0.691 185.993 o
0 6 9 4.267 6.346 1.091 63.361 o
0 7 0 6.554 9.205 0.377 72.662 o
0 7 1 628.994 604.865 5.420 0.089 o
0 7 2 295.808 294.126 3.266 0.357 o
0 7 3 222.016 210.225 3.012 0.610 o
0 7 4 24.018 26.977 0.976 16.455 o
0 7 5 71.505 74.980 1.637 3.749 o
0 7 6 20.570 21.170 1.385 18.079 o
0 7 7 44.251 46.580 1.746 7.067 o
0 7 8 18.533 21.257 1.818 16.491 o
0 8 0 24.227 20.455 0.644 19.345 o
0 8 1 6.817 6.604 0.643 70.616 o
0 8 2 41.819 40.317 1.172 8.561 o
0 8 3 11.158 7.356 0.638 49.220 o
0 8 4 1.848 2.408 0.567 190.058 o
0 8 5 24.562 26.835 1.343 14.912 o
0 8 6 3.191 3.563 0.742 112.878 o
0 8 7 26.827 34.164 2.049 10.645 o
0 9 0 0.035 -0.343 0.379 1060.850 o
0 9 1 136.736 134.139 2.324 1.377 o
0 9 2 1.497 2.282 0.465 240.919 o
0 9 3 27.157 30.138 1.145 13.841 o
0 9 4 3.511 3.615 0.608 123.321 o
0 9 5 32.120 32.154 2.076 9.652 o
0 9 6 5.612 5.974 1.091 58.192 o
0 10 0 157.452 153.973 2.623 1.083 o
0 10 1 0.043 0.171 0.449 711.015 o
0 10 2 20.263 22.457 1.732 15.941 o
0 10 3 50.264 48.147 1.473 6.489 o
0 10 4 0.412 1.174 0.678 253.368 o
0 11 0 0.735 0.139 0.554 360.241 o
0 11 1 36.727 39.575 1.676 8.867 o
0 11 2 0.193 -0.325 0.654 343.886 o
0 12 0 0.287 0.096 0.678 307.026 o
1 -13 3 74.106 77.816 2.371 3.335 o
1 -13 4 23.165 25.149 1.542 15.042 o
1 -13 5 9.573 10.660 1.109 39.046 o
1 -13 6 3.153 4.991 1.628 43.621 o
1 -12 0 5.126 6.843 0.920 66.883 o
1 -12 1 5.948 8.161 1.116 51.793 o
1 -12 2 0.408 0.320 0.577 371.386 o
1 -12 3 71.600 71.644 2.109 3.671 o
1 -12 4 7.616 7.298 1.882 28.242 o
1 -12 5 89.084 94.251 2.069 2.615 o
1 -12 6 18.523 20.418 1.392 19.507 o
1 -12 7 8.459 5.800 1.218 44.417 o
1 -12 8 14.232 15.761 1.244 26.248 o
1 -12 9 22.551 25.809 1.515 15.283 o
1 -11 0 54.357 63.007 1.666 5.230 o
1 -11 1 2.043 1.974 0.532 200.084 o
1 -11 2 37.231 36.926 1.507 9.306 o
1 -11 3 0.339 0.444 0.401 626.777 o
1 -11 4 109.779 107.309 2.112 1.975 o
1 -11 5 18.498 20.159 1.002 22.179 o
1 -11 6 37.352 37.056 1.231 9.698 o
1 -11 7 123.850 125.524 3.818 1.452 o
1 -11 8 0.292 0.373 0.522 451.019 o
1 -11 9 37.952 36.672 1.577 9.074 o
1 -11 10 1.767 1.407 0.654 188.408 o
1 -10 0 110.644 116.208 2.181 1.872 o
1 -10 1 68.988 68.074 1.369 4.152 o
1 -10 2 8.364 6.963 0.556 63.674 o
1 -10 3 175.293 178.142 2.459 0.891 o
1 -10 4 91.381 88.500 1.553 2.716 o
1 -10 5 1.806 2.265 0.395 244.124 o
1 -10 6 79.199 82.806 1.534 3.251 o
1 -10 7 112.952 112.711 1.902 1.887 o
1 -10 8 13.552 16.024 1.119 28.257 o
1 -10 9 40.411 41.186 1.577 8.233 o
1 -10 10 37.699 39.029 1.603 8.858 o
1 -10 11 13.570 14.844 1.187 28.149 o
1 -9 0 1.218 1.112 0.489 297.426 o
1 -9 1 41.345 37.688 1.236 8.818 o
1 -9 2 461.349 458.154 4.902 0.156 o
1 -9 3 122.151 111.135 1.743 1.758 o
1 -9 4 103.538 108.040 1.725 2.132 o
1 -9 5 522.188 518.186 5.453 0.124 o
1 -9 6 36.160 39.321 1.310 9.593 o
1 -9 7 252.792 240.004 3.023 0.486 o
1 -9 8 15.968 15.432 0.762 29.045 o
1 -9 9 16.397 15.218 0.876 27.684 o
1 -9 10 77.687 79.310 1.796 3.325 o
1 -9 11 21.844 21.363 1.343 17.542 o
1 -9 12 27.442 28.810 2.419 9.976 o
1 -8 0 34.440 33.634 0.895 11.351 o
1 -8 1 296.211 316.808 3.522 0.339 o
1 -8 2 26.607 28.220 0.762 15.474 o
1 -8 3 152.460 142.513 1.942 1.197 o
1 -8 4 134.686 133.517 1.881 1.427 o
1 -8 5 702.475 686.745 6.864 0.071 o
1 -8 6 373.618 385.178 4.223 0.226 o
1 -8 7 915.234 924.598 9.037 0.042 o
1 -8 8 105.445 102.206 1.646 2.162 o
1 -8 9 146.942 140.067 2.418 1.239 o
1 -8 10 1.845 2.081 0.488 219.537 o
1 -8 11 0.731 0.087 0.415 528.791 o
1 -8 12 0.656 2.234 0.532 274.545 o
1 -7 0 121.027 121.896 1.679 1.696 o
1 -7 1 2.899 6.011 0.374 136.422 o
1 -7 2 380.165 399.291 4.167 0.217 o
1 -7 3 82.298 75.508 1.210 3.335 o
1 -7 4 61.711 61.709 1.084 4.953 o
1 -7 5 554.752 552.220 5.070 0.110 o
1 -7 6 71.709 72.416 1.095 3.944 o
1 -7 7 555.973 553.664 5.160 0.110 o
1 -7 8 116.096 119.790 1.764 1.785 o
1 -7 9 52.227 57.997 1.434 5.783 o
1 -7 10 395.151 375.852 4.881 0.213 o
1 -7 11 114.594 114.910 2.672 1.767 o
1 -7 12 14.274 15.642 1.000 28.894 o
1 -7 13 0.943 2.414 0.721 180.282 o
1 -6 0 19.314 18.434 0.485 24.908 o
1 -6 1 325.362 333.268 3.195 0.295 o
1 -6 2 592.029 656.352 5.817 0.091 o
1 -6 3 287.156 323.721 3.134 0.349 o
1 -6 4 588.279 591.259 4.893 0.098 o
1 -6 5 56.703 55.349 0.855 5.753 o
1 -6 6 540.717 553.443 4.993 0.114 o
1 -6 7 361.753 368.627 3.540 0.243 o
1 -6 8 25.392 21.598 0.684 18.106 o
1 -6 9 401.121 400.962 4.864 0.201 o
1 -6 10 5.356 5.467 0.618 87.285 o
1 -6 11 1.683 2.432 0.520 209.416 o
1 -6 12 133.721 126.221 4.063 1.321 o
1 -6 13 55.461 53.898 1.944 5.339 o
1 -5 0 349.809 356.866 3.043 0.260 o
1 -5 1 49.598 35.130 0.545 8.123 o
1 -5 2 4.663 5.849 0.231 114.017 o
1 -5 3 0.450 0.236 0.121 1476.900 o
1 -5 4 0.917 0.818 0.147 660.795 o
1 -5 5 81.725 90.606 1.269 3.049 o
1 -5 6 219.762 196.939 2.021 0.653 o
1 -5 7 152.207 157.626 1.852 1.137 o
1 -5 8 512.756 508.317 4.669 0.129 o
1 -5 9 182.202 177.553 2.003 0.864 o
1 -5 10 85.629 87.033 1.723 2.898 o
1 -5 11 25.917 25.731 1.025 15.667 o
1 -5 12 13.310 9.876 0.989 34.797 o
1 -5 13 4.077 4.403 0.821 89.728 o
1 -4 0 195.613 191.604 1.451 0.769 o
1 -4 1 1123.710 1163.930 7.154 0.028 o
1 -4 2 249.513 262.214 1.885 0.477 o
1 -4 3 17.276 11.802 0.467 31.905 o
1 -4 4 24.715 24.294 0.437 18.270 o
1 -4 5 123.570 126.031 1.346 1.646 o
1 -4 6 242.437 251.394 2.224 0.504 o
1 -4 7 58.755 70.747 0.938 4.878 o
1 -4 8 8.897 9.289 0.567 55.484 o
1 -4 9 86.309 81.610 1.323 3.037 o
1 -4 10 354.040 352.040 4.481 0.254 o
1 -4 11 59.978 56.640 1.797 4.962 o
1 -4 12 55.300 58.279 1.880 5.215 o
1 -4 13 0.808 0.207 0.654 273.828 o
1 -3 0 165.427 148.575 1.255 1.082 o
1 -3 1 7.722 8.341 0.291 69.692 o
1 -3 2 70.014 85.728 0.814 3.731 o
1 -3 3 2481.540 2351.550 27.429 0.006 o
1 -3 4 78.627 94.474 1.273 3.092 o
1 -3 5 357.060 392.076 3.230 0.238 o
1 -3 6 48.370 52.557 0.690 6.933 o
1 -3 7 6.687 5.875 0.387 84.238 o
1 -3 8 9.341 9.025 0.405 57.336 o
1 -3 9 1.927 2.862 0.869 119.855 o
1 -3 10 66.855 65.395 1.202 4.418 o
1 -3 11 87.058 92.399 2.433 2.628 o
1 -3 12 39.543 39.639 1.608 8.467 o
1 -3 13 14.607 15.459 1.244 26.012 o
1 -2 0 648.187 705.218 17.088 0.069 o
1 -2 1 1453.230 1357.150 43.770 0.015 o
1 -2 2 2798.330 2956.920 24.370 0.005 o
1 -2 3 11.706 9.979 0.357 47.329 o
1 -2 4 7.290 7.077 0.165 79.272 o
1 -2 5 951.009 921.153 7.150 0.040 o
1 -2 6 10.167 8.613 0.318 55.924 o
1 -2 7 361.818 351.430 3.040 0.252 o
1 -2 8 60.319 63.548 0.927 5.041 o
1 -2 9 451.310 456.248 4.747 0.161 o
1 -2 10 49.224 53.149 1.583 6.239 o
1 -2 11 1.321 1.368 0.605 226.452 o
1 -2 12 15.921 16.182 1.431 22.609 o
1 -2 13 29.922 35.406 2.650 8.364 o
1 -1 1 6.230 4.627 0.343 96.786 o
1 -1 2 1828.340 1973.020 17.964 0.010 o
1 -1 3 466.233 427.730 4.886 0.160 o
1 -1 4 215.856 219.240 1.867 0.630 o
1 -1 5 4.198 4.744 0.180 134.651 o
1 -1 6 376.555 337.897 2.854 0.245 o
1 -1 7 77.542 67.029 0.870 3.817 o
1 -1 8 19.811 16.638 0.404 25.629 o
1 -1 9 436.938 430.941 5.198 0.173 o
1 -1 10 15.222 17.375 1.676 20.452 o
1 -1 11 58.617 59.807 1.506 5.099 o
1 -1 12 0.024 -0.408 0.577 468.881 o
1 -1 13 0.078 -0.146 0.761 266.704 o
1 0 2 463.724 466.082 5.990 0.152 o
1 0 3 2226.400 2193.760 16.784 0.007 o
1 0 4 19.797 27.002 0.480 20.650 o
1 0 5 92.120 100.856 1.309 2.543 o
1 0 6 18.799 21.993 0.693 22.806 o
1 0 7 14.227 8.412 0.697 38.633 o
1 0 8 24.688 23.582 0.827 17.503 o
1 0 9 47.310 42.354 1.145 7.521 o
1 0 10 35.431 39.176 1.206 9.927 o
1 0 11 7.854 5.916 0.841 59.181 o
1 0 12 26.431 27.663 1.478 13.535 o
1 1 0 956.431 978.884 8.069 0.038 o
1 1 1 131.709 118.573 1.123 1.592 o
1 1 2 807.914 863.158 6.662 0.051 o
1 1 3 557.586 647.037 4.054 0.100 o
1 1 4 1288.840 1364.010 11.380 0.021 o
1 1 5 662.407 668.408 6.420 0.078 o
1 1 6 2.426 2.374 0.364 213.450 o
1 1 7 180.487 171.525 2.456 0.880 o
1 1 8 50.482 57.082 1.385 6.036 o
1 1 9 0.470 1.171 0.470 401.588 o
1 1 10 9.409 9.578 0.792 47.995 o
1 1 11 0.228 0.967 0.503 428.028 o
1 1 12 46.302 50.803 2.361 5.936 o
1 2 0 507.784 513.273 6.819 0.127 o
1 2 1 1261.380 1345.470 10.317 0.022 o
1 2 2 131.235 141.174 1.165 1.451 o
1 2 3 96.449 76.332 0.796 2.835 o
1 2 4 162.478 141.457 1.271 1.134 o
1 2 5 1.781 3.758 0.190 242.290 o
1 2 6 3.443 2.833 0.356 165.296 o
1 2 7 3.152 2.705 0.668 130.432 o
1 2 8 21.413 24.908 0.965 18.558 o
1 2 9 16.712 20.500 0.970 23.808 o
1 2 10 3.714 2.645 0.514 140.464 o
1 2 11 3.038 3.898 1.061 79.935 o
1 3 0 833.440 810.576 5.276 0.052 o
1 3 1 0.640 0.937 0.204 708.678 o
1 3 2 1040.990 1077.120 9.047 0.032 o
1 3 3 2.798 1.830 0.180 240.157 o
1 3 4 469.771 454.245 3.753 0.155 o
1 3 5 65.844 57.613 0.723 4.892 o
1 3 6 50.521 45.241 0.716 7.125 o
1 3 7 2.713 3.206 0.449 169.314 o
1 3 8 55.795 52.626 1.304 5.772 o
1 3 9 37.531 39.256 1.515 9.006 o
1 3 10 21.694 19.323 1.234 18.811 o
1 3 11 0.007 -0.235 0.654 368.105 o
1 4 0 42.446 46.806 0.599 8.326 o
1 4 1 235.709 224.338 2.245 0.557 o
1 4 2 110.675 103.804 1.387 2.057 o
1 4 3 0.567 1.145 0.217 675.920 o
1 4 4 217.114 227.530 2.082 0.610 o
1 4 5 12.320 9.291 0.646 42.833 o
1 4 6 421.849 395.061 4.059 0.192 o
1 4 7 2.360 1.714 0.603 175.086 o
1 4 8 0.458 0.514 0.594 336.978 o
1 4 9 6.756 8.178 1.223 45.597 o
1 4 10 4.796 4.661 0.807 83.315 o
1 5 0 273.495 315.173 2.682 0.377 o
1 5 1 723.616 773.713 8.329 0.063 o
1 5 2 7.649 7.774 0.465 67.933 o
1 5 3 693.545 690.350 7.600 0.071 o
1 5 4 93.436 94.766 1.673 2.547 o
1 5 5 17.054 25.073 0.882 22.035 o
1 5 6 33.000 24.702 1.023 12.994 o
1 5 7 0.335 0.000 0.495 528.253 o
1 5 8 74.739 71.489 2.073 3.542 o
1 5 9 0.034 -0.739 0.740 285.893 o
1 6 0 6.333 8.417 0.332 78.298 o
1 6 1 1199.320 1243.730 13.085 0.024 o
1 6 2 1.673 5.862 0.816 109.014 o
1 6 3 165.194 165.172 2.474 0.993 o
1 6 4 2.645 2.547 0.431 186.450 o
1 6 5 84.571 79.862 1.657 3.075 o
1 6 6 5.178 4.827 0.866 75.869 o
1 6 7 13.863 13.682 1.932 20.083 o
1 6 8 1.951 3.929 1.371 62.224 o
1 7 0 25.271 21.198 0.774 18.029 o
1 7 1 324.308 317.253 3.992 0.302 o
1 7 2 2.765 1.514 0.379 214.893 o
1 7 3 122.073 120.557 2.084 1.663 o
1 7 4 2.074 1.422 0.431 243.010 o
1 7 5 24.255 25.912 1.251 15.605 o
1 7 6 74.779 79.924 1.946 3.394 o
1 7 7 0.000 1.314 0.693 269.304 o
1 8 0 24.745 27.898 1.262 14.907 o
1 8 1 1.786 1.063 0.403 288.806 o
1 8 2 175.606 177.929 2.751 0.882 o
1 8 3 0.348 0.423 0.415 599.657 o
1 8 4 36.393 36.880 1.345 9.752 o
1 8 5 15.211 15.517 1.151 26.296 o
1 8 6 7.023 8.692 0.833 57.068 o
1 9 0 30.070 32.277 1.080 12.579 o
1 9 1 34.077 33.581 1.135 11.073 o
1 9 2 0.052 0.540 0.431 663.671 o
1 9 3 0.546 1.144 0.495 369.459 o
1 9 4 31.738 27.104 1.435 12.014 o
1 9 5 4.833 7.009 0.920 68.050 o
1 10 0 4.086 2.517 0.654 117.522 o
1 10 1 27.052 22.721 1.261 15.030 o
1 10 2 9.198 9.515 1.009 43.516 o
1 10 3 26.389 27.006 1.939 12.030 o
1 11 0 15.423 21.177 1.385 21.446 o
1 11 1 81.312 89.865 3.771 2.471 o
2 -13 2 17.848 18.243 1.317 21.264 o
2 -13 3 0.035 -0.782 0.554 504.733 o
2 -13 4 5.809 5.783 0.880 68.138 o
2 -13 5 2.118 2.142 0.848 126.029 o
2 -13 6 0.874 0.406 0.654 261.441 o
2 -13 7 11.709 13.250 1.386 28.716 o
2 -12 0 65.808 60.793 1.711 4.451 o
2 -12 1 3.530 4.251 0.950 84.284 o
2 -12 2 0.004 -0.812 0.470 712.985 o
2 -12 3 1.031 1.176 0.465 327.034 o
2 -12 4 0.484 0.733 0.470 439.305 o
2 -12 5 1.814 1.312 0.693 177.490 o
2 -12 6 0.357 0.171 0.554 416.563 o
2 -12 7 17.410 17.027 1.251 22.605 o
2 -12 8 5.163 6.178 0.891 70.166 o
2 -12 9 19.903 23.142 1.515 17.166 o
2 -11 0 10.565 11.148 0.866 41.179 o
2 -11 1 1.997 2.238 0.445 219.727 o
2 -11 2 83.774 87.626 1.684 2.959 o
2 -11 3 0.029 -0.710 0.363 1156.630 o
2 -11 4 70.174 72.955 1.494 3.912 o
2 -11 5 0.867 0.753 0.374 459.960 o
2 -11 6 2.382 3.529 0.721 129.290 o
2 -11 7 4.660 5.242 0.638 93.944 o
2 -11 8 6.835 4.370 0.788 70.921 o
2 -11 9 0.245 0.313 0.522 467.853 o
2 -11 10 0.958 1.899 0.678 203.797 o
2 -10 0 371.844 384.075 4.396 0.227 o
2 -10 1 534.874 541.520 5.807 0.116 o
2 -10 2 13.953 11.557 0.703 35.911 o
2 -10 3 17.579 17.736 0.772 25.662 o
2 -10 4 26.545 26.986 0.852 15.572 o
2 -10 5 66.328 66.546 1.348 4.369 o
2 -10 6 7.798 8.551 0.704 58.182 o
2 -10 7 42.700 41.411 1.318 8.153 o
2 -10 8 56.147 55.170 1.520 5.498 o
2 -10 9 41.955 41.170 1.207 8.423 o
2 -10 10 4.312 3.724 0.638 107.087 o
2 -10 11 4.656 6.626 0.818 76.187 o
2 -9 0 22.668 21.681 0.839 19.305 o
2 -9 1 0.168 0.253 0.539 466.457 o
2 -9 2 565.631 540.570 5.670 0.109 o
2 -9 3 1121.140 1102.270 10.637 0.029 o
2 -9 4 21.501 28.555 0.882 17.724 o
2 -9 5 1.933 2.179 0.385 241.750 o
2 -9 6 193.613 200.973 2.631 0.740 o
2 -9 7 216.497 212.245 2.851 0.628 o
2 -9 8 56.540 57.525 1.498 5.371 o
2 -9 9 36.589 32.408 1.172 10.510 o
2 -9 10 28.110 31.363 1.200 13.118 o
2 -9 11 2.112 1.347 0.526 213.042 o
2 -9 12 2.751 2.142 0.600 157.323 o
2 -8 0 0.295 0.457 0.318 847.883 o
2 -8 1 354.610 350.202 3.861 0.256 o
2 -8 2 63.452 66.186 1.221 4.615 o
2 -8 3 211.335 210.122 2.602 0.653 o
2 -8 4 1026.370 1011.550 9.732 0.034 o
2 -8 5 1301.320 1272.940 12.045 0.021 o
2 -8 6 122.607 128.356 1.702 1.624 o
2 -8 7 17.995 14.005 0.835 26.841 o
2 -8 8 78.725 79.115 1.691 3.311 o
2 -8 9 52.920 53.739 1.408 5.943 o
2 -8 10 9.740 7.305 0.695 53.055 o
2 -8 11 164.578 157.637 2.793 1.012 o
2 -8 12 0.963 1.714 0.678 207.770 o
2 -7 0 377.181 369.748 3.953 0.230 o
2 -7 1 28.440 36.479 0.822 12.921 o
2 -7 2 293.326 296.933 3.277 0.358 o
2 -7 3 202.667 213.398 2.525 0.680 o
2 -7 4 23.269 21.491 0.571 19.871 o
2 -7 5 97.664 99.269 1.112 2.432 o
2 -7 6 465.005 453.899 4.235 0.156 o
2 -7 7 442.393 421.875 4.444 0.174 o
2 -7 8 503.562 487.867 5.910 0.133 o
2 -7 9 25.969 21.779 1.014 16.659 o
2 -7 10 46.746 45.829 1.339 7.189 o
2 -7 11 27.881 30.381 1.149 13.512 o
2 -7 12 4.073 4.099 0.854 88.421 o
2 -7 13 44.684 43.602 1.880 7.050 o
2 -6 0 761.154 840.181 7.298 0.056 o
2 -6 1 13.860 11.111 0.464 39.045 o
2 -6 2 581.450 537.523 4.861 0.106 o
2 -6 3 18.887 23.873 0.533 22.527 o
2 -6 4 393.459 402.418 3.709 0.208 o
2 -6 5 50.958 54.816 0.793 6.425 o
2 -6 6 22.182 18.462 0.536 22.008 o
2 -6 7 11.286 12.398 1.179 33.061 o
2 -6 8 86.248 83.112 1.645 2.958 o
2 -6 9 215.829 213.332 3.139 0.624 o
2 -6 10 173.551 169.834 2.748 0.917 o
2 -6 11 0.022 -0.364 0.438 807.130 o
2 -6 12 8.331 6.590 0.880 54.464 o
2 -6 13 0.561 1.137 0.654 257.773 o
2 -5 0 111.244 121.300 1.376 1.880 o
2 -5 1 1872.900 1920.410 14.703 0.010 o
2 -5 2 731.988 856.229 9.291 0.057 o
2 -5 3 1062.130 1082.180 8.483 0.031 o
2 -5 4 29.247 19.836 0.703 16.381 o
2 -5 5 448.842 440.521 5.076 0.165 o
2 -5 6 6.526 4.899 0.415 89.203 o
2 -5 7 70.003 71.890 1.426 3.969 o
2 -5 8 77.254 81.278 1.551 3.360 o
2 -5 9 21.506 20.929 0.848 20.345 o
2 -5 10 0.573 0.006 0.340 754.310 o
2 -5 11 78.635 82.588 2.208 3.115 o
2 -5 12 40.235 35.615 1.577 8.746 o
2 -5 13 16.164 13.871 1.179 25.881 o
2 -4 0 17.840 16.308 0.378 28.280 o
2 -4 1 305.641 320.320 2.415 0.329 o
2 -4 2 605.489 705.876 4.954 0.085 o
2 -4 3 875.009 897.944 9.805 0.045 o
2 -4 4 1166.770 1366.370 14.074 0.023 o
2 -4 5 2661.490 2808.830 28.448 0.005 o
2 -4 6 8.780 13.391 0.767 44.763 o
2 -4 7 213.833 206.718 2.834 0.647 o
2 -4 8 2.449 1.273 0.264 269.561 o
2 -4 9 18.614 16.185 0.709 25.770 o
2 -4 10 2.711 2.625 0.594 153.046 o
2 -4 11 16.559 15.224 1.109 25.440 o
2 -4 12 0.640 0.671 0.577 320.852 o
2 -4 13 61.405 59.660 2.388 4.418 o
2 -3 0 908.925 926.396 6.345 0.042 o
2 -3 1 705.571 807.622 6.368 0.064 o
2 -3 2 0.297 1.109 0.131 1011.870 o
2 -3 3 1118.470 1218.900 10.191 0.027 o
2 -3 4 65.031 98.405 1.278 3.583 o
2 -3 5 71.752 71.868 1.051 3.966 o
2 -3 6 1187.210 1214.530 9.403 0.025 o
2 -3 7 643.058 671.237 5.427 0.081 o
2 -3 8 352.572 347.549 3.464 0.260 o
2 -3 9 6.967 7.855 0.443 72.622 o
2 -3 10 52.578 50.991 1.647 5.952 o
2 -3 11 56.814 59.885 1.875 5.035 o
2 -3 12 1.487 1.594 0.622 206.430 o
2 -3 13 0.984 0.072 0.825 186.529 o
2 -2 0 13544.700 12210.500 214.466 0.000 o
2 -2 1 1647.960 1710.190 15.357 0.013 o
2 -2 2 2449.520 2516.450 17.866 0.006 o
2 -2 3 37.094 39.064 0.417 10.378 o
2 -2 4 1.533 0.740 0.219 436.130 o
2 -2 5 55.082 48.594 0.652 6.359 o
2 -2 6 6.263 10.171 0.420 70.297 o
2 -2 7 91.124 98.260 1.071 2.633 o
2 -2 8 1085.770 1074.440 9.859 0.030 o
2 -2 9 92.289 90.679 1.726 2.630 o
2 -2 10 123.779 125.612 2.688 1.558 o
2 -2 11 7.536 7.248 0.829 58.097 o
2 -2 12 0.186 0.278 0.661 322.299 o
2 -1 0 528.782 596.667 5.060 0.111 o
2 -1 1 2319.350 2414.120 20.221 0.007 o
2 -1 2 1533.560 1591.590 11.345 0.015 o
2 -1 3 535.031 560.117 3.599 0.116 o
2 -1 4 1208.460 1232.120 9.482 0.024 o
2 -1 5 42.889 46.782 0.627 8.235 o
2 -1 6 171.483 182.519 2.157 0.907 o
2 -1 7 0.020 0.533 0.280 1262.720 o
2 -1 8 25.146 26.110 1.180 15.413 o
2 -1 9 0.105 0.669 0.390 706.022 o
2 -1 10 66.727 60.973 1.454 4.487 o
2 -1 11 33.880 32.339 1.408 10.763 o
2 -1 12 80.699 80.037 3.066 2.836 o
2 0 0 1391.620 1424.890 10.845 0.018 o
2 0 1 4013.000 4017.840 30.490 0.002 o
2 0 2 61.955 61.878 0.742 5.026 o
2 0 3 171.436 169.556 1.411 0.962 o
2 0 4 176.918 188.075 1.903 0.866 o
2 0 5 251.407 244.014 2.686 0.488 o
2 0 6 389.080 396.670 4.660 0.210 o
2 0 7 129.361 117.168 1.888 1.597 o
2 0 8 44.096 45.646 1.212 7.699 o
2 0 9 19.546 18.434 0.858 22.877 o
2 0 10 0.009 -0.494 0.390 1026.830 o
2 0 11 21.334 24.331 1.309 17.191 o
2 0 12 10.922 12.100 2.571 15.991 o
2 1 0 363.830 412.084 2.790 0.227 o
2 1 1 198.712 185.931 2.459 0.753 o
2 1 2 254.153 255.442 1.917 0.474 o
2 1 3 1514.260 1576.240 11.268 0.015 o
2 1 4 170.672 187.552 1.954 0.902 o
2 1 5 3.932 1.674 0.260 179.554 o
2 1 6 63.687 75.202 1.351 4.262 o
2 1 7 130.521 132.314 2.456 1.450 o
2 1 8 48.065 45.912 1.177 7.136 o
2 1 9 102.405 103.994 2.028 2.167 o
2 1 10 10.108 10.809 0.866 42.713 o
2 1 11 0.001 -0.943 0.727 298.814 o
2 2 0 1536.340 1605.600 10.840 0.015 o
2 2 1 16.659 14.470 0.253 31.754 o
2 2 2 117.723 118.929 1.156 1.801 o
2 2 3 13.470 10.681 0.263 42.022 o
2 2 4 342.594 337.045 2.632 0.277 o
2 2 5 6.796 6.737 0.377 79.993 o
2 2 6 379.366 401.241 4.799 0.215 o
2 2 7 41.324 33.686 1.088 9.399 o
2 2 8 12.085 9.895 0.645 42.671 o
2 2 9 3.156 2.770 0.678 128.233 o
2 2 10 13.044 15.228 1.570 23.986 o
2 2 11 42.096 39.348 2.239 7.176 o
2 3 0 395.976 418.380 3.193 0.202 o
2 3 1 41.706 47.064 0.708 8.371 o
2 3 2 1151.070 1156.730 10.696 0.027 o
2 3 3 2.928 1.500 0.222 236.367 o
2 3 4 1.764 2.583 0.169 292.829 o
2 3 5 55.370 54.909 0.688 5.967 o
2 3 6 59.350 55.417 1.311 5.314 o
2 3 7 14.374 13.619 0.940 30.784 o
2 3 8 183.198 171.828 3.384 0.840 o
2 3 9 16.306 13.024 1.079 27.193 o
2 3 10 4.147 5.435 0.880 80.223 o
2 4 0 41.078 46.487 0.802 8.472 o
2 4 1 251.702 230.202 2.579 0.504 o
2 4 2 147.343 138.621 1.991 1.261 o
2 4 3 131.608 135.568 1.737 1.458 o
2 4 4 195.323 201.503 2.388 0.736 o
2 4 5 9.640 8.350 0.507 55.613 o
2 4 6 16.855 20.258 0.965 23.827 o
2 4 7 18.938 25.312 1.303 18.289 o
2 4 8 0.032 0.328 0.577 433.141 o
2 4 9 9.515 14.627 2.801 14.251 o
2 5 0 0.363 0.027 0.243 1315.760 o
2 5 1 450.713 446.346 5.169 0.163 o
2 5 2 110.358 113.239 2.061 1.915 o
2 5 3 965.036 956.282 10.337 0.038 o
2 5 4 63.901 65.741 1.358 4.552 o
2 5 5 49.777 55.184 1.647 6.024 o
2 5 6 0.843 0.602 0.479 379.412 o
2 5 7 14.340 17.420 1.428 23.434 o
2 5 8 0.440 0.428 0.622 320.438 o
2 5 9 16.645 17.899 1.309 22.398 o
2 6 0 317.612 312.543 3.423 0.315 o
2 6 1 0.476 1.062 0.455 425.116 o
2 6 2 14.373 14.004 0.682 33.194 o
2 6 3 35.252 31.079 1.002 11.320 o
2 6 4 31.058 32.950 1.053 12.204 o
2 6 5 98.946 101.052 3.970 1.950 o
2 6 6 0.596 1.122 0.520 343.551 o
2 6 7 27.542 30.116 1.524 12.594 o
2 6 8 12.095 13.532 2.220 18.307 o
2 7 0 13.947 14.041 0.940 31.097 o
2 7 1 52.322 40.912 1.117 6.944 o
2 7 2 8.095 8.513 1.039 47.078 o
2 7 3 3.845 2.784 0.479 140.340 o
2 7 4 26.062 29.855 1.335 13.744 o
2 7 5 37.137 43.712 1.676 8.429 o
2 7 6 46.839 47.031 1.602 6.857 o
2 7 7 10.009 10.332 0.951 41.786 o
2 8 0 67.741 63.553 1.806 4.206 o
2 8 1 27.011 26.246 1.378 13.923 o
2 8 2 64.268 65.522 1.556 4.461 o
2 8 3 29.143 26.929 1.061 13.918 o
2 8 4 9.710 11.871 1.009 39.540 o
2 8 5 1.921 0.761 0.709 178.569 o
2 9 0 13.117 11.028 1.024 33.634 o
2 9 1 64.841 66.995 3.107 3.646 o
2 9 2 13.875 14.782 1.109 28.737 o
2 9 3 14.669 10.804 2.399 16.220 o
2 9 4 0.016 0.257 0.848 212.689 o
2 10 0 24.736 22.366 1.411 15.538 o
2 10 1 16.791 18.924 1.335 21.669 o
2 10 2 12.670 12.044 1.511 26.568 o
3 -13 1 15.955 17.198 1.309 23.270 o
3 -13 2 5.906 6.944 0.931 62.106 o
3 -13 3 19.800 21.382 1.343 18.715 o
3 -13 4 50.544 49.681 1.840 6.071 o
3 -13 5 6.868 8.940 1.044 50.018 o
3 -13 6 38.073 37.376 1.713 8.761 o
3 -13 7 50.352 54.848 2.385 5.377 o
3 -12 0 1.503 0.983 0.899 138.797 o
3 -12 1 8.367 7.891 0.811 54.002 o
3 -12 2 10.329 8.486 0.703 48.762 o
3 -12 3 7.155 8.584 1.153 46.204 o
3 -12 4 2.284 3.807 0.531 159.381 o
3 -12 5 14.022 11.415 1.366 27.387 o
3 -12 6 101.050 108.253 2.353 2.109 o
3 -12 7 47.690 47.244 1.605 6.736 o
3 -12 8 5.805 8.110 0.989 57.427 o
3 -12 9 86.975 90.031 2.604 2.626 o
3 -11 0 6.462 6.263 0.570 77.290 o
3 -11 1 9.137 6.954 0.607 58.515 o
3 -11 2 2.010 2.294 0.504 202.010 o
3 -11 3 0.066 0.065 0.374 1015.750 o
3 -11 4 50.291 56.721 2.040 5.592 o
3 -11 5 21.564 24.575 1.454 16.299 o
3 -11 6 1.079 1.492 0.532 270.485 o
3 -11 7 156.864 143.616 2.677 1.126 o
3 -11 8 0.267 1.245 0.693 252.840 o
3 -11 9 74.482 71.816 1.879 3.608 o
3 -11 10 58.296 65.423 1.637 4.843 o
3 -10 0 55.903 57.144 1.309 5.545 o
3 -10 1 47.431 50.254 1.409 6.753 o
3 -10 2 7.942 6.925 0.552 66.206 o
3 -10 3 10.108 9.538 0.902 43.577 o
3 -10 4 5.464 5.339 0.472 95.223 o
3 -10 5 58.605 53.874 1.451 5.376 o
3 -10 6 49.170 59.233 1.584 5.927 o
3 -10 7 86.678 91.972 2.498 2.631 o
3 -10 8 8.056 9.612 0.718 54.524 o
3 -10 9 101.750 100.139 1.977 2.230 o
3 -10 10 32.553 33.487 1.318 11.147 o
3 -10 11 32.110 29.825 1.339 11.738 o
3 -9 0 276.250 275.571 3.349 0.402 o
3 -9 1 19.432 18.122 0.775 23.585 o
3 -9 2 43.331 39.925 1.045 8.454 o
3 -9 3 10.566 10.405 0.598 46.972 o
3 -9 4 80.278 76.664 1.420 3.357 o
3 -9 5 160.664 162.896 2.269 1.039 o
3 -9 6 35.666 37.103 1.176 10.158 o
3 -9 7 7.269 6.960 0.595 68.579 o
3 -9 8 32.856 37.990 1.281 10.557 o
3 -9 9 8.972 8.257 0.747 52.831 o
3 -9 10 27.535 25.444 1.336 14.017 o
3 -9 11 19.097 21.708 1.184 20.017 o
3 -9 12 14.527 13.267 1.209 27.696 o
3 -8 0 42.728 42.036 1.024 8.393 o
3 -8 1 10.760 10.807 0.573 46.184 o
3 -8 2 583.567 608.167 6.219 0.097 o
3 -8 3 9.996 15.978 0.655 40.190 o
3 -8 4 173.091 171.253 2.265 0.929 o
3 -8 5 1.855 1.482 0.329 292.622 o
3 -8 6 230.917 221.453 2.502 0.572 o
3 -8 7 109.926 116.834 2.160 1.881 o
3 -8 8 12.366 15.676 0.889 32.870 o
3 -8 9 8.009 10.589 1.019 44.977 o
3 -8 10 1.411 1.157 0.519 263.936 o
3 -8 11 46.622 48.771 1.845 6.541 o
3 -8 12 0.090 0.794 0.654 311.492 o
3 -7 0 19.490 17.085 0.674 24.573 o
3 -7 1 187.588 178.118 2.243 0.829 o
3 -7 2 46.101 39.169 0.859 8.191 o
3 -7 3 56.579 57.125 1.059 5.599 o
3 -7 4 143.424 160.615 1.834 1.201 o
3 -7 5 47.592 36.964 0.659 8.253 o
3 -7 6 127.557 120.703 2.051 1.587 o
3 -7 7 8.498 8.405 0.638 57.315 o
3 -7 8 125.723 122.248 2.220 1.590 o
3 -7 9 88.814 86.021 2.370 2.683 o
3 -7 10 2.822 1.702 0.503 181.276 o
3 -7 11 6.088 3.651 0.721 82.525 o
3 -7 12 2.361 2.076 0.934 109.556 o
3 -6 0 7.777 8.044 0.358 68.954 o
3 -6 1 196.604 204.391 2.178 0.727 o
3 -6 2 2.091 3.908 0.337 198.101 o
3 -6 3 150.888 172.295 1.868 1.088 o
3 -6 4 10.063 5.120 0.282 65.490 o
3 -6 5 72.000 67.865 1.367 3.987 o
3 -6 6 5.430 8.294 0.574 77.205 o
3 -6 7 310.544 314.508 4.103 0.319 o
3 -6 8 15.635 13.394 0.764 30.918 o
3 -6 9 19.686 15.415 1.064 22.770 o
3 -6 10 82.071 84.703 1.963 3.013 o
3 -6 11 12.867 11.469 1.087 32.745 o
3 -6 12 10.707 12.318 1.823 24.042 o
3 -5 0 357.547 387.183 3.589 0.239 o
3 -5 1 4.645 8.235 0.332 94.731 o
3 -5 2 73.301 91.653 1.153 3.384 o
3 -5 3 201.512 170.811 1.797 0.786 o
3 -5 4 100.782 109.291 1.413 2.208 o
3 -5 5 53.586 54.791 1.172 5.956 o
3 -5 6 32.656 24.824 0.802 13.546 o
3 -5 7 38.196 39.197 1.044 9.532 o
3 -5 8 15.178 13.799 0.730 31.615 o
3 -5 9 63.554 63.751 1.446 4.611 o
3 -5 10 121.991 116.349 2.668 1.647 o
3 -5 11 3.349 3.753 0.731 110.536 o
3 -5 12 0.169 0.189 0.654 335.561 o
3 -4 0 676.084 717.009 5.767 0.073 o
3 -4 1 1177.180 1303.540 10.112 0.024 o
3 -4 2 4091.760 4392.180 31.251 0.002 o
3 -4 3 215.778 233.347 2.260 0.603 o
3 -4 4 284.531 325.884 3.895 0.347 o
3 -4 5 130.594 118.243 1.856 1.575 o
3 -4 6 15.880 21.237 0.891 24.814 o
3 -4 7 74.857 69.274 1.358 3.799 o
3 -4 8 64.216 64.177 1.391 4.572 o
3 -4 9 116.626 123.953 2.668 1.669 o
3 -4 10 231.238 227.013 4.089 0.543 o
3 -4 11 8.490 8.757 1.337 37.874 o
3 -4 12 18.802 14.569 1.251 22.469 o
3 -3 0 195.625 225.327 1.878 0.692 o
3 -3 1 34.003 33.529 0.532 11.943 o
3 -3 2 1487.830 1653.020 11.860 0.015 o
3 -3 3 484.570 510.591 4.147 0.138 o
3 -3 4 1772.300 1810.820 13.857 0.011 o
3 -3 5 1.425 2.456 0.307 294.961 o
3 -3 6 0.977 2.205 0.301 363.452 o
3 -3 7 31.895 30.463 0.557 13.153 o
3 -3 8 0.040 -0.291 0.214 3024.280 o
3 -3 9 208.851 204.908 4.150 0.643 o
3 -3 10 93.430 97.779 3.540 2.171 o
3 -3 11 12.857 12.846 1.102 31.511 o
3 -3 12 16.493 17.083 1.309 22.861 o
3 -2 0 825.531 871.453 6.048 0.050 o
3 -2 1 175.797 153.287 1.317 0.989 o
3 -2 2 0.009 1.131 0.136 1409.910 o
3 -2 3 877.247 930.778 7.288 0.044 o
3 -2 4 2.138 5.110 0.224 186.093 o
3 -2 5 1008.910 1026.780 8.041 0.035 o
3 -2 6 338.074 334.515 2.876 0.282 o
3 -2 7 0.527 0.491 0.127 1112.240 o
3 -2 8 0.747 0.876 0.519 340.574 o
3 -2 9 5.331 3.932 0.622 94.979 o
3 -2 10 5.593 6.743 0.983 61.634 o
3 -2 11 2.892 5.315 1.374 55.606 o
3 -2 12 3.900 5.770 1.279 56.080 o
3 -1 0 142.545 159.422 1.221 1.232 o
3 -1 1 163.183 141.586 1.117 1.130 o
3 -1 2 0.015 0.475 0.131 2725.070 o
3 -1 3 5.721 6.869 0.235 93.534 o
3 -1 4 173.117 193.868 1.671 0.875 o
3 -1 5 1040.570 1084.490 8.485 0.032 o
3 -1 6 13.513 14.873 0.540 35.229 o
3 -1 7 306.316 292.742 3.766 0.340 o
3 -1 8 4.982 5.318 1.436 46.404 o
3 -1 9 46.420 49.920 1.311 6.983 o
3 -1 10 1.154 2.247 0.642 200.042 o
3 -1 11 1.161 0.937 0.622 241.419 o
3 -1 12 28.362 34.891 3.513 6.693 o
3 0 0 445.105 444.556 2.807 0.169 o
3 0 1 1.308 2.139 0.154 377.680 o
3 0 2 243.089 265.391 2.193 0.486 o
3 0 3 85.934 75.998 0.760 3.234 o
3 0 4 4.861 10.160 0.388 81.478 o
3 0 5 9.116 6.397 0.470 63.453 o
3 0 6 16.006 14.261 0.635 30.818 o
3 0 7 51.247 50.775 1.189 6.422 o
3 0 8 49.401 54.166 1.293 6.372 o
3 0 9 33.119 34.577 1.127 11.213 o
3 0 10 7.365 5.261 0.998 56.546 o
3 0 11 4.992 4.310 1.071 65.966 o
3 1 0 684.776 660.036 4.952 0.076 o
3 1 1 441.727 477.134 3.457 0.162 o
3 1 2 1267.890 1244.930 9.658 0.023 o
3 1 3 135.917 152.130 1.478 1.327 o
3 1 4 35.873 29.363 0.632 11.906 o
3 1 5 0.023 0.497 0.217 1732.060 o
3 1 6 0.019 0.174 0.326 1278.620 o
3 1 7 11.435 12.622 0.724 39.784 o
3 1 8 45.129 42.764 1.608 7.358 o
3 1 9 11.570 11.161 0.956 37.385 o
3 1 10 48.864 50.816 3.770 4.345 o
3 1 11 0.001 1.028 0.969 154.363 o
3 2 0 9.679 9.611 0.381 55.020 o
3 2 1 345.661 347.130 2.622 0.269 o
3 2 2 154.833 166.572 1.393 1.092 o
3 2 3 202.701 193.889 1.814 0.728 o
3 2 4 380.616 374.684 3.193 0.227 o
3 2 5 33.762 33.981 0.728 11.729 o
3 2 6 103.361 90.968 1.684 2.336 o
3 2 7 35.604 35.650 1.089 10.482 o
3 2 8 9.867 12.665 1.032 37.919 o
3 2 9 0.580 -0.677 0.489 473.985 o
3 2 10 1.340 1.681 1.341 73.199 o
3 3 0 127.896 156.044 1.514 1.391 o
3 3 1 391.831 405.183 3.400 0.209 o
3 3 2 7.831 7.493 0.299 71.584 o
3 3 3 510.384 520.468 5.244 0.127 o
3 3 4 47.520 43.878 0.696 7.675 o
3 3 5 346.051 333.389 4.402 0.270 o
3 3 6 77.321 72.277 1.940 3.451 o
3 3 7 7.592 5.818 0.779 63.024 o
3 3 8 3.342 4.297 0.972 83.683 o
3 3 9 7.668 9.361 1.032 47.278 o
3 4 0 233.795 228.542 2.070 0.558 o
3 4 1 213.688 208.088 2.786 0.645 o
3 4 2 146.298 136.621 2.077 1.277 o
3 4 3 18.821 21.801 0.802 22.341 o
3 4 4 15.035 17.537 1.163 25.317 o
3 4 5 85.604 84.790 2.039 2.874 o
3 4 6 4.973 5.497 0.944 70.287 o
3 4 7 108.204 111.751 2.696 1.896 o
3 4 8 3.634 4.303 1.257 61.343 o
3 4 9 3.720 5.835 0.980 74.767 o
3 5 0 731.046 707.019 6.910 0.066 o
3 5 1 377.647 391.549 4.734 0.219 o
3 5 2 155.010 161.723 2.919 1.060 o
3 5 3 1.959 2.015 0.742 151.006 o
3 5 4 44.125 38.605 1.286 8.184 o
3 5 5 23.446 24.012 1.203 16.653 o
3 5 6 34.845 38.243 1.484 9.704 o
3 5 7 14.630 18.706 1.303 23.827 o
3 5 8 9.218 9.176 1.032 43.315 o
3 6 0 41.495 42.806 1.088 8.482 o
3 6 1 40.208 35.913 1.038 9.461 o
3 6 2 417.947 427.911 5.244 0.183 o
3 6 3 12.697 18.470 1.237 26.515 o
3 6 4 17.609 19.276 1.271 21.394 o
3 6 5 27.561 28.953 1.403 13.153 o
3 6 6 43.873 49.607 1.663 7.010 o
3 6 7 10.579 11.575 1.121 35.953 o
3 7 0 2.847 2.006 0.603 155.992 o
3 7 1 203.732 201.161 3.598 0.680 o
3 7 2 0.047 0.879 0.515 458.726 o
3 7 3 16.394 13.857 1.218 25.269 o
3 7 4 91.017 98.151 2.489 2.433 o
3 7 5 16.872 19.586 1.350 21.239 o
3 7 6 3.952 6.263 1.064 66.712 o
3 8 0 9.378 11.887 0.980 40.853 o
3 8 1 2.770 3.033 0.705 129.067 o
3 8 2 0.768 0.565 0.603 295.246 o
3 8 3 106.181 112.512 3.629 1.796 o
3 8 4 2.842 0.605 1.025 100.236 o
3 9 0 63.060 70.076 3.308 3.551 o
3 9 1 105.392 114.745 2.813 1.905 o
3 9 2 10.259 9.188 1.457 32.061 o
3 10 0 2.291 1.794 1.025 99.748 o
4 -13 2 9.609 9.356 0.906 45.087 o
4 -13 3 11.279 11.992 1.179 33.397 o
4 -13 4 85.859 93.189 2.246 2.691 o
4 -13 5 0.624 1.800 0.686 219.293 o
4 -13 6 34.931 37.555 1.535 9.667 o
4 -12 0 66.674 70.508 1.712 4.102 o
4 -12 1 49.452 53.393 1.645 6.153 o
4 -12 2 0.618 0.252 0.479 451.012 o
4 -12 3 10.567 8.757 0.698 47.689 o
4 -12 4 19.593 21.069 1.128 20.225 o
4 -12 5 22.163 20.839 1.176 18.367 o
4 -12 6 36.784 42.435 1.512 8.852 o
4 -12 7 89.447 87.886 3.213 2.445 o
4 -12 8 11.405 13.568 1.063 33.782 o
4 -11 0 40.880 41.327 1.459 8.297 o
4 -11 1 5.899 6.186 0.821 69.422 o
4 -11 2 21.934 22.883 0.961 18.887 o
4 -11 3 126.597 131.385 2.175 1.522 o
4 -11 4 55.718 51.858 1.531 5.683 o
4 -11 5 30.052 30.124 1.251 12.539 o
4 -11 6 1.128 0.903 0.503 307.944 o
4 -11 7 142.804 150.243 2.847 1.209 o
4 -11 8 21.542 27.760 1.293 16.281 o
4 -11 9 28.377 29.240 1.404 12.823 o
4 -11 10 0.063 1.143 0.542 397.489 o
4 -10 0 10.605 9.271 0.723 46.300 o
4 -10 1 1.566 1.595 0.400 286.038 o
4 -10 2 32.254 32.389 1.015 11.991 o
4 -10 3 14.371 12.308 0.717 34.305 o
4 -10 4 58.706 58.269 1.301 5.252 o
4 -10 5 54.168 54.713 1.509 5.709 o
4 -10 6 73.897 67.583 1.731 3.786 o
4 -10 7 100.921 110.420 2.726 2.038 o
4 -10 8 29.199 27.700 1.096 13.660 o
4 -10 9 45.593 50.359 2.140 6.263 o
4 -10 10 7.181 7.551 0.827 59.058 o
4 -9 0 116.529 115.606 2.028 1.791 o
4 -9 1 0.182 -0.055 0.348 1048.680 o
4 -9 2 84.389 82.568 1.495 3.062 o
4 -9 3 33.762 27.768 1.268 11.718 o
4 -9 4 149.476 139.002 2.299 1.226 o
4 -9 5 0.011 -0.105 0.390 1025.410 o
4 -9 6 2.583 4.281 0.574 139.290 o
4 -9 7 3.369 4.309 0.564 124.763 o
4 -9 8 184.677 180.588 3.034 0.820 o
4 -9 9 51.533 54.371 1.577 5.938 o
4 -9 10 65.590 61.101 1.721 4.450 o
4 -9 11 61.185 67.765 2.307 4.234 o
4 -8 0 148.212 155.665 2.164 1.169 o
4 -8 1 25.260 21.500 1.017 17.101 o
4 -8 2 227.421 218.917 2.757 0.583 o
4 -8 3 17.879 18.898 0.695 25.186 o
4 -8 4 63.160 59.346 1.172 4.902 o
4 -8 5 24.695 19.704 0.635 19.311 o
4 -8 6 118.320 102.637 1.817 1.889 o
4 -8 7 10.793 9.163 0.740 45.566 o
4 -8 8 0.011 0.111 0.401 920.183 o
4 -8 9 0.439 0.084 0.431 598.719 o
4 -8 10 55.006 59.040 1.703 5.319 o
4 -8 11 70.248 67.890 2.241 3.777 o
4 -7 0 9.641 10.850 0.596 49.265 o
4 -7 1 146.062 131.490 1.860 1.314 o
4 -7 2 162.666 178.289 2.307 0.971 o
4 -7 3 454.834 459.841 4.857 0.159 o
4 -7 4 71.332 65.611 1.025 4.177 o
4 -7 5 123.999 111.875 3.046 1.614 o
4 -7 6 5.587 5.008 0.532 92.340 o
4 -7 7 7.634 8.189 0.661 61.124 o
4 -7 8 34.837 25.404 1.010 12.285 o
4 -7 9 57.369 56.241 1.499 5.354 o
4 -7 10 8.350 8.531 0.989 47.725 o
4 -7 11 0.410 0.051 0.622 345.436 o
4 -7 12 20.187 21.256 1.478 17.733 o
4 -6 0 475.251 478.362 4.468 0.147 o
4 -6 1 46.072 52.638 0.900 7.133 o
4 -6 2 124.169 156.922 2.029 1.406 o
4 -6 3 64.428 55.547 0.891 5.042 o
4 -6 4 400.064 432.534 4.052 0.194 o
4 -6 5 828.927 857.697 9.487 0.049 o
4 -6 6 3.379 1.823 0.431 173.049 o
4 -6 7 143.363 136.659 2.296 1.296 o
4 -6 8 1.420 0.755 0.366 366.842 o
4 -6 9 0.656 0.445 0.431 479.856 o
4 -6 10 9.304 7.645 0.920 48.099 o
4 -6 11 0.019 0.189 0.654 353.870 o
4 -6 12 0.687 -0.060 0.603 332.447 o
4 -5 0 105.349 104.460 1.343 2.166 o
4 -5 1 252.901 260.131 2.665 0.466 o
4 -5 2 46.143 38.720 0.725 8.313 o
4 -5 3 87.713 97.766 1.168 2.735 o
4 -5 4 36.102 32.694 0.574 11.394 o
4 -5 5 0.457 1.843 0.359 444.663 o
4 -5 6 240.508 218.446 3.072 0.543 o
4 -5 7 327.978 331.868 4.308 0.289 o
4 -5 8 232.811 222.717 3.315 0.555 o
4 -5 9 0.035 0.457 0.594 399.937 o
4 -5 10 1.067 0.377 0.622 266.680 o
4 -5 11 26.404 28.869 1.614 12.873 o
4 -5 12 18.223 15.858 1.303 22.001 o
4 -4 0 1367.780 1397.070 11.784 0.019 o
4 -4 1 1234.360 1352.480 10.574 0.022 o
4 -4 2 984.388 1002.350 8.000 0.036 o
4 -4 3 10.692 7.943 0.355 54.653 o
4 -4 4 57.690 57.050 0.839 5.581 o
4 -4 5 295.665 309.245 2.956 0.348 o
4 -4 6 59.442 63.827 1.358 4.943 o
4 -4 7 6.100 8.807 0.621 69.117 o
4 -4 8 304.312 299.286 4.007 0.337 o
4 -4 9 0.570 0.364 0.554 367.439 o
4 -4 10 109.592 112.373 5.018 1.541 o
4 -4 11 23.071 21.530 1.803 14.597 o
4 -4 12 1.680 1.761 0.754 158.888 o
4 -3 0 204.963 210.197 2.171 0.682 o
4 -3 1 16.614 25.128 0.703 23.320 o
4 -3 2 780.932 772.870 6.736 0.058 o
4 -3 3 0.687 0.440 0.236 776.264 o
4 -3 4 108.399 119.716 2.638 1.832 o
4 -3 5 0.781 1.595 0.182 539.672 o
4 -3 6 49.806 54.687 0.735 6.595 o
4 -3 7 275.296 278.227 3.124 0.402 o
4 -3 8 225.347 235.686 4.084 0.547 o
4 -3 9 0.791 -0.482 0.475 445.806 o
4 -3 10 9.242 8.933 0.980 44.877 o
4 -3 11 3.994 3.984 0.858 89.276 o
4 -3 12 25.710 24.497 1.577 14.017 o
4 -2 0 351.097 404.479 3.764 0.237 o
4 -2 1 124.817 112.426 1.409 1.726 o
4 -2 2 2.901 4.857 0.309 156.567 o
4 -2 3 471.572 488.963 5.141 0.146 o
4 -2 4 0.137 0.116 0.154 2855.070 o
4 -2 5 133.784 118.647 1.282 1.557 o
4 -2 6 63.331 64.152 0.834 4.808 o
4 -2 7 38.791 33.971 0.947 10.107 o
4 -2 8 0.801 2.567 0.890 139.075 o
4 -2 9 83.789 79.142 2.213 2.991 o
4 -2 10 49.630 47.278 2.862 5.283 o
4 -2 11 39.039 39.628 1.735 8.363 o
4 -1 0 198.372 186.616 2.028 0.760 o
4 -1 1 13.360 13.150 0.429 38.191 o
4 -1 2 218.386 218.979 2.303 0.617 o
4 -1 3 184.475 184.859 2.016 0.832 o
4 -1 4 6.097 4.540 0.258 102.114 o
4 -1 5 89.152 88.784 1.141 2.837 o
4 -1 6 57.708 52.271 1.192 5.662 o
4 -1 7 113.361 118.912 2.043 1.815 o
4 -1 8 3.036 2.954 0.460 161.405 o
4 -1 9 16.305 14.985 1.149 25.454 o
4 -1 10 0.009 0.015 0.926 183.862 o
4 -1 11 9.988 7.300 1.333 36.547 o
4 0 0 51.461 52.174 0.861 6.492 o
4 0 1 23.718 23.489 0.613 18.764 o
4 0 2 6.137 4.208 0.318 101.412 o
4 0 3 13.785 15.090 0.446 35.240 o
4 0 4 139.584 140.730 1.718 1.339 o
4 0 5 5.043 6.281 0.290 103.305 o
4 0 6 135.852 139.153 2.239 1.364 o
4 0 7 0.116 -0.072 0.349 1124.970 o
4 0 8 179.400 173.794 2.763 0.872 o
4 0 9 10.680 15.656 1.511 26.758 o
4 0 10 5.123 7.716 1.333 46.791 o
4 1 0 23.578 15.457 0.631 21.762 o
4 1 1 658.880 761.588 6.679 0.072 o
4 1 2 79.720 77.218 1.065 3.434 o
4 1 3 17.719 14.606 0.414 29.441 o
4 1 4 4.706 6.577 0.335 103.819 o
4 1 5 39.502 37.683 0.876 9.600 o
4 1 6 6.955 9.152 0.693 61.055 o
4 1 7 7.039 9.626 0.695 59.472 o
4 1 8 120.351 114.478 2.597 1.690 o
4 1 9 1.453 0.759 0.823 161.380 o
4 1 10 59.776 59.924 4.113 3.417 o
4 2 0 118.905 121.739 1.363 1.748 o
4 2 1 229.120 224.736 2.695 0.570 o
4 2 2 205.744 216.421 2.272 0.666 o
4 2 3 0.703 1.098 0.196 648.561 o
4 2 4 31.190 30.803 1.461 11.568 o
4 2 5 8.747 8.181 0.698 55.143 o
4 2 6 64.503 65.825 1.882 4.300 o
4 2 7 3.110 3.576 1.045 81.983 o
4 2 8 0.027 0.108 0.541 516.923 o
4 2 9 5.979 7.414 1.052 55.534 o
4 3 0 10.288 12.833 0.392 46.933 o
4 3 1 300.447 298.424 2.935 0.349 o
4 3 2 4.857 4.064 0.504 108.639 o
4 3 3 927.777 923.757 8.888 0.041 o
4 3 4 271.722 274.272 3.607 0.409 o
4 3 5 3.011 2.109 0.520 164.945 o
4 3 6 48.843 43.848 1.603 6.805 o
4 3 7 15.442 14.694 1.282 25.153 o
4 3 8 5.461 6.286 0.900 67.603 o
4 3 9 0.327 0.009 0.622 358.857 o
4 4 0 188.000 186.996 3.368 0.780 o
4 4 1 56.328 52.266 0.921 5.921 o
4 4 2 3.353 4.062 0.460 139.180 o
4 4 3 126.739 130.612 2.237 1.521 o
4 4 4 60.316 64.333 1.802 4.657 o
4 4 5 75.484 77.879 2.125 3.355 o
4 4 6 4.994 2.808 0.653 102.856 o
4 4 7 1.767 0.542 0.678 198.172 o
4 4 8 42.965 45.693 1.875 7.143 o
4 5 0 264.655 261.489 3.515 0.434 o
4 5 1 318.882 314.547 4.105 0.309 o
4 5 2 5.498 5.627 0.554 88.913 o
4 5 3 6.388 6.024 0.564 79.032 o
4 5 4 2.221 2.388 0.972 104.066 o
4 5 5 8.646 10.962 1.019 42.825 o
4 5 6 91.957 96.362 2.320 2.463 o
4 5 7 2.523 3.204 0.821 115.203 o
4 6 0 175.679 180.843 3.462 0.853 o
4 6 1 60.723 58.006 2.160 4.651 o
4 6 2 27.945 28.709 1.265 13.472 o
4 6 3 232.752 231.944 5.262 0.513 o
4 6 4 2.191 1.360 1.457 60.745 o
4 6 5 0.789 0.514 0.848 177.405 o
4 6 6 0.280 0.000 1.028 143.290 o
4 7 0 2.303 1.488 0.654 168.491 o
4 7 1 168.949 171.849 3.427 0.916 o
4 7 2 1.248 3.843 1.371 65.550 o
4 7 3 13.393 12.492 1.454 26.342 o
4 7 4 66.319 65.161 2.846 3.755 o
4 8 0 107.548 102.374 2.617 2.004 o
4 8 1 12.127 16.992 1.234 28.022 o
4 8 2 2.229 2.266 1.071 92.389 o
4 9 0 89.577 98.165 4.277 2.077 o
5 -12 0 0.199 0.218 0.520 494.000 o
5 -12 1 23.442 23.898 1.249 16.487 o
5 -12 2 0.879 0.693 0.616 272.228 o
5 -12 3 5.074 4.722 1.073 64.400 o
5 -12 4 2.837 3.635 0.668 127.545 o
5 -12 5 0.300 0.431 0.566 390.618 o
5 -12 6 76.057 75.573 2.299 3.325 o
5 -12 7 100.377 112.348 2.564 2.053 o
5 -11 0 6.868 9.009 0.812 57.753 o
5 -11 1 2.692 2.361 0.602 155.473 o
5 -11 2 43.624 36.767 1.367 8.332 o
5 -11 3 1.216 2.673 0.566 212.089 o
5 -11 4 46.375 46.364 1.583 6.976 o
5 -11 5 15.919 17.886 1.097 24.845 o
5 -11 6 15.260 15.667 1.042 27.245 o
5 -11 7 2.793 4.399 0.725 114.688 o
5 -11 8 15.667 17.244 1.128 25.143 o
5 -11 9 34.083 38.752 2.900 7.083 o
5 -10 0 50.221 52.989 1.598 6.129 o
5 -10 1 1.075 1.800 0.532 259.376 o
5 -10 2 10.890 15.848 0.815 36.278 o
5 -10 3 14.754 15.093 0.801 30.621 o
5 -10 4 165.382 152.803 2.734 1.025 o
5 -10 5 30.374 33.016 1.322 11.821 o
5 -10 6 70.018 66.225 1.790 4.006 o
5 -10 7 4.663 5.058 0.717 89.159 o
5 -10 8 10.325 12.948 0.870 39.584 o
5 -10 9 0.547 1.008 0.512 363.926 o
5 -10 10 29.488 34.239 1.889 10.465 o
5 -9 0 18.025 13.705 0.897 26.497 o
5 -9 1 208.792 187.333 2.613 0.705 o
5 -9 2 140.814 131.152 2.051 1.363 o
5 -9 3 16.704 22.584 0.865 23.533 o
5 -9 4 0.020 2.468 0.520 331.948 o
5 -9 5 0.333 0.373 0.446 557.975 o
5 -9 6 110.840 107.970 2.993 1.846 o
5 -9 7 55.995 49.057 1.342 5.908 o
5 -9 8 43.605 41.809 1.422 7.859 o
5 -9 9 18.435 18.245 1.128 22.179 o
5 -9 10 2.615 4.319 0.854 102.467 o
5 -8 0 0.268 0.494 0.327 827.884 o
5 -8 1 10.537 10.021 0.607 47.501 o
5 -8 2 50.647 46.203 1.103 6.828 o
5 -8 3 159.785 143.846 2.121 1.123 o
5 -8 4 121.206 98.542 1.620 1.889 o
5 -8 5 56.731 67.013 1.855 4.787 o
5 -8 6 1.408 5.612 0.556 154.493 o
5 -8 7 33.631 41.686 1.318 9.876 o
5 -8 8 13.451 13.431 0.906 32.731 o
5 -8 9 64.081 58.231 1.617 4.695 o
5 -8 10 36.927 38.510 1.846 8.637 o
5 -8 11 0.963 1.317 0.754 189.126 o
5 -7 0 101.890 102.657 1.619 2.239 o
5 -7 1 16.545 16.117 0.648 28.676 o
5 -7 2 2.447 3.350 0.390 186.068 o
5 -7 3 0.862 0.669 0.311 540.064 o
5 -7 4 56.548 50.791 1.053 5.916 o
5 -7 5 8.169 5.322 0.523 70.540 o
5 -7 6 200.157 178.794 2.904 0.754 o
5 -7 7 49.513 58.005 1.525 5.995 o
5 -7 8 0.445 1.268 0.503 367.605 o
5 -7 9 10.173 12.640 1.119 35.771 o
5 -7 10 69.325 67.331 2.378 3.779 o
5 -7 11 2.278 1.984 0.779 136.771 o
5 -6 0 14.548 13.887 0.513 34.452 o
5 -6 1 54.026 55.782 1.143 5.876 o
5 -6 2 531.595 566.583 8.959 0.110 o
5 -6 3 44.774 47.417 1.217 7.461 o
5 -6 4 1.952 2.416 0.320 250.190 o
5 -6 5 21.400 26.173 1.023 17.939 o
5 -6 6 66.130 70.456 1.615 4.170 o
5 -6 7 17.077 14.614 0.848 27.460 o
5 -6 8 113.417 111.532 2.178 1.865 o
5 -6 9 1.128 0.153 0.844 173.681 o
5 -6 10 90.161 86.735 2.977 2.498 o
5 -6 11 15.793 10.543 1.151 28.487 o
5 -5 0 320.675 295.459 3.025 0.323 o
5 -5 1 973.611 962.598 9.311 0.037 o
5 -5 2 154.836 162.337 2.159 1.088 o
5 -5 3 52.154 58.405 0.909 6.042 o
5 -5 4 205.430 205.705 2.243 0.688 o
5 -5 5 21.498 23.264 0.628 20.341 o
5 -5 6 10.118 13.056 0.797 41.198 o
5 -5 7 0.992 0.086 0.356 533.241 o
5 -5 8 0.015 -0.182 0.554 509.962 o
5 -5 9 0.119 0.035 0.577 444.950 o
5 -5 10 219.779 218.129 4.219 0.585 o
5 -5 11 3.001 2.406 0.821 114.029 o
5 -4 0 334.030 341.698 3.399 0.281 o
5 -4 1 241.836 252.917 2.960 0.497 o
5 -4 2 705.369 700.267 6.395 0.070 o
5 -4 3 1381.100 1360.670 11.619 0.019 o
5 -4 4 24.818 27.160 1.060 15.734 o
5 -4 5 35.178 33.617 1.357 10.386 o
5 -4 6 7.141 7.029 0.594 69.197 o
5 -4 7 1.998 1.542 0.389 257.888 o
5 -4 8 44.172 45.912 1.676 7.199 o
5 -4 9 24.505 23.982 1.457 15.090 o
5 -4 10 2.350 2.449 1.062 91.396 o
5 -4 11 8.475 8.969 1.306 38.451 o
5 -3 0 2.345 0.927 0.268 292.558 o
5 -3 1 2.146 1.015 0.284 302.509 o
5 -3 2 8.464 9.400 0.597 56.368 o
5 -3 3 7.894 9.859 0.523 59.649 o
5 -3 4 208.751 201.513 2.252 0.683 o
5 -3 5 1633.630 1622.820 15.121 0.014 o
5 -3 6 38.360 39.158 0.896 9.669 o
5 -3 7 5.511 3.591 0.678 90.839 o
5 -3 8 34.577 35.769 1.508 9.990 o
5 -3 9 11.515 11.725 1.044 35.474 o
5 -3 10 5.810 6.280 0.908 65.340 o
5 -3 11 5.847 4.259 1.610 39.526 o
5 -2 0 486.511 489.365 4.638 0.141 o
5 -2 1 391.860 418.972 4.068 0.203 o
5 -2 2 0.448 0.906 0.261 734.281 o
5 -2 3 6.239 7.150 0.464 79.856 o
5 -2 4 44.575 47.050 1.003 7.691 o
5 -2 5 32.786 35.346 0.913 11.557 o
5 -2 6 143.840 135.011 1.917 1.317 o
5 -2 7 294.140 293.080 4.802 0.350 o
5 -2 8 98.458 102.196 2.518 2.205 o
5 -2 9 0.130 0.444 0.603 375.768 o
5 -2 10 6.247 8.296 1.559 36.668 o
5 -1 0 0.373 1.383 0.319 572.109 o
5 -1 1 21.623 28.426 0.583 18.603 o
5 -1 2 679.376 672.383 5.680 0.075 o
5 -1 3 140.424 140.966 1.951 1.320 o
5 -1 4 211.620 207.571 2.573 0.657 o
5 -1 5 44.697 43.232 0.970 8.001 o
5 -1 6 54.445 52.327 1.293 5.928 o
5 -1 7 31.507 32.078 1.066 12.173 o
5 -1 8 76.475 82.585 2.243 3.187 o
5 -1 9 22.382 20.041 1.754 15.423 o
5 -1 10 84.392 82.924 3.210 2.643 o
5 0 0 19.909 20.974 0.596 22.677 o
5 0 1 338.260 310.758 3.493 0.292 o
5 0 2 9.643 7.851 0.486 57.078 o
5 0 3 28.304 28.922 0.753 14.571 o
5 0 4 235.515 238.951 2.873 0.531 o
5 0 5 93.593 90.954 1.744 2.586 o
5 0 6 148.830 146.537 3.908 1.113 o
5 0 7 59.294 57.216 1.493 5.155 o
5 0 8 2.368 0.771 0.848 134.073 o
5 0 9 18.130 22.111 1.928 15.801 o
5 1 0 20.664 24.392 0.671 20.395 o
5 1 1 98.791 101.250 1.571 2.334 o
5 1 2 2.816 4.311 0.409 155.484 o
5 1 3 198.279 194.378 2.233 0.741 o
5 1 4 5.622 5.099 0.429 97.080 o
5 1 5 310.636 304.673 4.074 0.325 o
5 1 6 45.088 47.466 1.659 6.995 o
5 1 7 12.229 15.719 1.121 30.119 o
5 1 8 25.382 26.912 1.997 12.118 o
5 1 9 6.818 6.245 1.268 46.522 o
5 2 0 47.056 44.539 1.181 7.370 o
5 2 1 37.186 35.627 0.865 10.394 o
5 2 2 156.127 155.571 2.125 1.105 o
5 2 3 13.794 11.034 0.566 38.285 o
5 2 4 11.689 13.176 1.039 33.996 o
5 2 5 95.800 96.201 2.101 2.403 o
5 2 6 15.286 16.337 1.199 25.323 o
5 2 7 85.344 85.850 2.338 2.798 o
5 2 8 21.486 18.708 2.999 10.046 o
5 3 0 139.013 131.432 2.913 1.331 o
5 3 1 32.055 30.411 0.840 12.689 o
5 3 2 91.798 93.042 1.799 2.599 o
5 3 3 10.567 10.871 0.792 42.889 o
5 3 4 4.933 4.101 0.697 92.750 o
5 3 5 6.440 4.827 0.677 77.689 o
5 3 6 18.467 19.389 1.335 20.280 o
5 3 7 6.557 9.521 1.052 49.815 o
5 4 0 31.018 30.442 1.058 12.614 o
5 4 1 1.225 0.784 0.431 349.540 o
5 4 2 14.145 15.662 0.891 30.193 o
5 4 3 1.568 0.739 0.554 251.859 o
5 4 4 29.213 28.877 1.515 12.291 o
5 4 5 1.821 0.925 0.566 225.939 o
5 4 6 0.476 -0.037 0.582 380.050 o
5 5 0 7.792 7.395 1.085 48.231 o
5 5 1 134.622 136.849 2.872 1.351 o
5 5 2 1.834 0.751 1.025 111.467 o
5 5 3 0.743 1.446 1.457 66.871 o
5 5 4 0.606 0.686 0.848 180.665 o
5 5 5 0.204 0.112 0.721 280.932 o
5 6 0 118.501 114.097 2.714 1.709 o
5 6 1 0.628 1.200 0.768 199.941 o
5 6 2 4.307 5.437 1.194 59.595 o
5 6 3 29.335 34.040 2.239 9.599 o
5 6 4 4.369 3.710 1.457 49.390 o
5 7 0 62.581 66.903 2.117 4.274 o
5 7 1 1.782 1.628 0.969 115.183 o
5 7 2 183.546 185.432 6.770 0.684 o
5 8 0 22.667 20.035 1.935 14.375 o
6 -12 1 0.258 -0.171 0.721 281.088 o
6 -12 2 3.338 4.642 0.953 83.981 o
6 -12 3 15.342 13.993 1.317 25.230 o
6 -12 4 68.982 64.883 2.340 3.873 o
6 -12 5 15.806 18.243 1.754 19.156 o
6 -12 6 20.156 17.156 1.357 19.741 o
6 -11 0 28.710 28.436 1.239 13.320 o
6 -11 1 0.551 0.532 0.552 360.930 o
6 -11 2 4.426 6.080 1.393 48.638 o
6 -11 3 11.872 10.814 1.119 34.401 o
6 -11 4 17.050 17.370 1.378 21.713 o
6 -11 5 8.340 9.512 0.894 48.901 o
6 -11 6 51.044 55.135 1.741 5.829 o
6 -11 7 39.294 39.445 1.548 8.615 o
6 -11 8 59.255 55.163 2.510 4.619 o
6 -10 0 11.475 10.667 0.923 38.654 o
6 -10 1 3.777 3.063 0.602 124.164 o
6 -10 2 77.686 72.116 1.848 3.465 o
6 -10 3 0.038 0.588 0.532 469.057 o
6 -10 4 0.158 -0.704 0.431 747.179 o
6 -10 5 3.266 4.220 0.695 112.404 o
6 -10 6 8.971 8.587 0.858 49.323 o
6 -10 7 7.209 9.227 0.876 53.828 o
6 -10 8 69.791 71.392 1.813 3.872 o
6 -10 9 50.925 50.143 1.787 6.054 o
6 -9 0 4.019 4.705 0.620 106.111 o
6 -9 1 5.727 7.670 0.740 69.865 o
6 -9 2 11.333 12.935 0.756 39.201 o
6 -9 3 70.324 67.208 1.667 4.005 o
6 -9 4 35.291 32.111 1.200 10.831 o
6 -9 5 9.242 7.352 0.748 53.497 o
6 -9 6 14.535 14.015 0.971 29.931 o
6 -9 7 10.955 8.935 0.781 44.635 o
6 -9 8 7.704 7.156 0.719 61.379 o
6 -9 9 15.038 19.316 1.411 22.244 o
6 -8 0 155.491 150.787 2.734 1.106 o
6 -8 1 16.556 15.948 0.784 27.787 o
6 -8 2 6.614 5.252 0.503 83.017 o
6 -8 3 37.568 44.465 1.114 9.037 o
6 -8 4 44.366 44.215 1.484 7.497 o
6 -8 5 67.593 65.407 3.364 3.432 o
6 -8 6 10.532 7.949 0.656 49.975 o
6 -8 7 70.097 62.595 1.713 4.133 o
6 -8 8 5.304 3.135 0.627 99.318 o
6 -8 9 0.204 0.187 0.642 342.872 o
6 -8 10 0.280 1.246 0.754 220.659 o
6 -7 0 0.388 0.334 0.461 522.516 o
6 -7 1 140.301 134.126 2.036 1.353 o
6 -7 2 8.166 8.151 0.590 60.723 o
6 -7 3 157.680 159.736 2.546 1.063 o
6 -7 4 30.134 37.311 1.231 11.466 o
6 -7 5 0.493 0.108 0.398 639.711 o
6 -7 6 17.484 18.525 1.025 23.622 o
6 -7 7 64.842 62.817 1.679 4.461 o
6 -7 8 71.096 65.534 2.133 3.837 o
6 -7 9 2.262 2.472 1.148 82.884 o
6 -7 10 15.206 13.362 1.244 26.488 o
6 -6 0 62.486 60.211 1.218 4.904 o
6 -6 1 145.044 141.337 2.079 1.266 o
6 -6 2 279.749 279.984 3.399 0.392 o
6 -6 3 104.837 100.306 1.657 2.195 o
6 -6 4 86.577 88.266 1.447 2.891 o
6 -6 5 171.307 169.364 2.811 0.930 o
6 -6 6 26.640 29.011 1.484 13.203 o
6 -6 7 0.728 0.133 0.449 477.297 o
6 -6 8 26.893 29.152 1.525 12.961 o
6 -6 9 6.165 6.896 1.100 53.855 o
6 -6 10 97.561 106.325 2.895 2.120 o
6 -5 0 265.063 268.908 3.023 0.430 o
6 -5 1 485.194 471.923 5.118 0.144 o
6 -5 2 99.627 97.733 1.891 2.319 o
6 -5 3 0.934 0.365 0.292 589.302 o
6 -5 4 18.420 18.775 0.849 23.803 o
6 -5 5 0.717 2.326 0.488 288.099 o
6 -5 6 4.758 7.110 0.652 83.326 o
6 -5 7 218.892 219.382 4.084 0.589 o
6 -5 8 71.709 73.827 2.980 3.282 o
6 -5 9 6.884 8.606 1.079 49.324 o
6 -5 10 1.689 2.754 0.844 129.009 o
6 -4 0 1088.760 1122.840 9.962 0.029 o
6 -4 1 83.179 78.266 1.482 3.193 o
6 -4 2 209.421 223.498 2.856 0.632 o
6 -4 3 141.291 135.039 1.694 1.352 o
6 -4 4 49.704 49.083 1.122 6.752 o
6 -4 5 89.969 89.798 1.583 2.735 o
6 -4 6 21.697 22.450 0.971 19.133 o
6 -4 7 0.031 0.150 0.554 486.947 o
6 -4 8 13.644 11.627 1.079 31.562 o
6 -4 9 34.857 34.083 1.725 9.682 o
6 -4 10 14.963 13.564 1.218 26.930 o
6 -3 0 188.625 182.229 2.255 0.813 o
6 -3 1 345.750 337.932 3.872 0.270 o
6 -3 2 786.866 790.400 7.249 0.056 o
6 -3 3 223.581 230.463 2.915 0.576 o
6 -3 4 126.954 130.845 1.972 1.533 o
6 -3 5 119.507 114.706 1.794 1.768 o
6 -3 6 2.575 2.814 0.654 143.512 o
6 -3 7 32.661 31.582 2.395 8.835 o
6 -3 8 5.725 7.802 0.953 59.983 o
6 -3 9 0.319 1.114 0.705 246.642 o
6 -3 10 1.538 0.428 0.947 133.284 o
6 -2 0 22.529 21.411 0.780 19.722 o
6 -2 1 169.710 184.691 2.282 0.909 o
6 -2 2 30.231 27.565 0.945 13.655 o
6 -2 3 259.447 254.760 2.840 0.457 o
6 -2 4 385.252 380.715 3.883 0.220 o
6 -2 5 59.607 59.450 1.245 5.152 o
6 -2 6 0.036 -1.214 0.609 419.179 o
6 -2 7 120.083 114.117 2.717 1.686 o
6 -2 8 3.538 2.407 0.806 108.411 o
6 -2 9 0.088 -1.298 0.823 228.679 o
6 -1 0 1.473 2.732 0.380 255.612 o
6 -1 1 159.965 163.647 1.817 1.054 o
6 -1 2 0.633 0.704 0.348 560.897 o
6 -1 3 135.208 134.832 2.028 1.406 o
6 -1 4 28.073 28.613 0.909 14.392 o
6 -1 5 96.550 96.465 2.276 2.353 o
6 -1 6 98.064 100.819 2.022 2.302 o
6 -1 7 46.224 44.298 2.361 6.264 o
6 -1 8 15.424 16.788 2.828 12.259 o
6 -1 9 87.613 81.542 5.647 1.905 o
6 0 0 98.041 79.842 1.501 2.653 o
6 0 1 30.803 32.295 0.861 12.758 o
6 0 2 69.740 63.934 1.229 4.273 o
6 0 3 1.054 0.554 0.310 502.226 o
6 0 4 148.395 150.808 2.191 1.187 o
6 0 5 17.352 18.247 1.311 21.683 o
6 0 6 1.339 0.988 0.677 207.672 o
6 0 7 36.325 35.076 2.097 8.568 o
6 0 8 40.459 37.505 2.239 7.512 o
6 1 0 32.370 37.755 1.040 11.130 o
6 1 1 288.642 270.660 3.322 0.385 o
6 1 2 125.007 111.973 1.785 1.704 o
6 1 3 329.355 329.851 3.588 0.291 o
6 1 4 271.492 274.391 4.059 0.405 o
6 1 5 1.747 1.362 0.622 200.031 o
6 1 6 52.575 50.211 1.812 5.865 o
6 1 7 0.725 0.621 0.947 148.219 o
6 2 0 148.126 145.406 2.427 1.203 o
6 2 1 3.656 3.911 0.502 129.899 o
6 2 2 14.510 13.914 0.844 31.414 o
6 2 3 199.646 191.720 5.485 0.663 o
6 2 4 38.574 42.856 1.452 8.574 o
6 2 5 47.212 47.341 1.788 6.612 o
6 2 6 4.047 3.893 0.799 94.457 o
6 2 7 10.807 9.592 2.314 18.986 o
6 3 0 3.563 5.593 1.803 36.300 o
6 3 1 83.615 85.315 3.139 2.651 o
6 3 2 23.385 22.740 1.048 17.678 o
6 3 3 114.473 117.028 2.729 1.747 o
6 3 4 6.358 7.268 0.812 64.264 o
6 3 5 4.394 3.951 0.709 98.314 o
6 3 6 65.151 72.195 2.325 3.889 o
6 4 0 18.269 15.024 1.151 23.529 o
6 4 1 14.759 13.262 2.399 15.713 o
6 4 2 31.292 33.092 1.975 9.974 o
6 4 3 50.132 50.581 4.113 3.993 o
6 4 4 6.903 6.843 1.268 45.498 o
6 4 5 47.482 53.471 3.428 4.664 o
6 5 0 30.790 29.367 1.508 11.766 o
6 5 1 0.248 -0.253 0.829 217.150 o
6 5 2 4.399 7.300 1.212 54.700 o
6 5 3 56.375 60.590 2.725 4.482 o
6 6 0 49.997 53.567 1.964 5.828 o
6 6 1 0.013 -0.771 2.057 37.342 o
7 -11 0 5.783 7.413 0.913 62.396 o
7 -11 1 15.778 17.370 1.301 23.420 o
7 -11 2 32.093 30.953 1.911 10.191 o
7 -11 3 45.335 46.867 2.930 5.564 o
7 -11 4 52.461 50.392 2.237 5.515 o
7 -11 5 9.146 7.499 1.102 43.833 o
7 -10 0 0.852 0.156 0.721 235.052 o
7 -10 1 4.800 3.610 0.725 94.461 o
7 -10 2 31.011 34.817 1.806 10.259 o
7 -10 3 10.648 14.445 1.251 31.352 o
7 -10 4 21.366 20.164 1.478 17.391 o
7 -10 5 99.850 96.005 2.721 2.209 o
7 -10 6 116.463 108.007 2.447 1.816 o
7 -10 7 27.685 27.613 1.419 13.294 o
7 -9 0 15.222 16.328 0.985 27.456 o
7 -9 1 0.403 0.620 0.520 408.626 o
7 -9 2 0.751 0.648 0.678 248.385 o
7 -9 3 17.505 14.143 1.218 24.064 o
7 -9 4 18.360 21.025 1.146 21.032 o
7 -9 5 11.672 13.877 1.010 33.867 o
7 -9 6 75.955 79.130 2.339 3.245 o
7 -9 7 61.148 67.400 2.894 3.925 o
7 -9 8 69.173 62.778 2.464 3.861 o
7 -8 0 36.804 39.988 1.360 9.315 o
7 -8 1 61.313 59.180 1.673 4.833 o
7 -8 2 28.806 26.753 1.509 12.776 o
7 -8 3 26.416 24.225 1.237 15.066 o
7 -8 4 29.160 30.136 1.699 11.590 o
7 -8 5 0.008 1.913 0.643 276.589 o
7 -8 6 72.245 77.210 1.805 3.609 o
7 -8 7 31.496 34.663 1.624 10.595 o
7 -8 8 53.039 55.382 3.104 4.557 o
7 -7 0 6.517 6.976 0.669 70.285 o
7 -7 1 245.539 248.537 4.527 0.476 o
7 -7 2 55.597 58.175 1.602 5.366 o
7 -7 3 0.676 1.317 0.503 334.573 o
7 -7 4 60.741 53.952 1.548 5.142 o
7 -7 5 0.758 0.246 0.452 453.762 o
7 -7 6 0.892 1.447 0.507 302.400 o
7 -7 7 1.121 0.994 1.018 121.316 o
7 -7 8 3.713 6.010 0.953 76.079 o
7 -6 0 12.112 9.757 0.745 41.236 o
7 -6 1 36.303 35.535 1.445 9.749 o
7 -6 2 15.864 14.824 0.765 29.564 o
7 -6 3 144.074 141.283 2.356 1.263 o
7 -6 4 73.725 68.911 1.698 3.771 o
7 -6 5 96.191 96.002 1.916 2.423 o
7 -6 6 0.135 0.752 0.520 446.869 o
7 -6 7 4.529 3.698 0.854 86.148 o
7 -6 8 12.571 15.507 1.878 20.872 o
7 -6 9 1.169 0.771 0.969 132.171 o
7 -5 0 7.923 7.337 0.551 65.181 o
7 -5 1 38.363 34.676 1.012 10.042 o
7 -5 2 51.554 51.398 1.746 5.959 o
7 -5 3 0.018 -0.196 0.323 1473.270 o
7 -5 4 1.805 3.034 0.518 191.385 o
7 -5 5 200.342 194.506 3.175 0.715 o
7 -5 6 17.522 17.506 1.379 21.297 o
7 -5 7 78.627 79.601 2.336 3.135 o
7 -5 8 18.465 22.288 1.577 17.782 o
7 -4 0 23.518 23.594 0.909 17.899 o
7 -4 1 15.294 14.075 0.672 31.742 o
7 -4 2 11.348 10.153 0.655 44.131 o
7 -4 3 9.892 11.978 0.805 42.957 o
7 -4 4 67.786 69.274 1.492 4.149 o
7 -4 5 28.675 24.578 1.113 14.436 o
7 -4 6 0.262 0.540 0.622 333.995 o
7 -4 7 19.928 22.367 1.449 17.737 o
7 -4 8 38.173 39.972 1.776 8.416 o
7 -3 0 1.102 2.006 0.445 289.341 o
7 -3 1 30.369 28.250 0.906 13.557 o
7 -3 2 22.730 23.644 0.803 18.753 o
7 -3 3 0.181 0.415 0.351 847.537 o
7 -3 4 80.414 79.087 1.495 3.285 o
7 -3 5 12.908 11.925 1.052 32.837 o
7 -3 6 30.571 32.315 1.535 11.347 o
7 -3 7 18.585 19.397 1.378 19.895 o
7 -3 8 0.038 -1.285 0.554 504.010 o
7 -2 0 0.559 0.244 0.343 692.392 o
7 -2 1 335.085 325.185 3.320 0.289 o
7 -2 2 12.804 11.095 0.554 40.591 o
7 -2 3 9.966 9.478 0.651 49.398 o
7 -2 4 20.382 18.550 0.947 21.622 o
7 -2 5 1.410 1.542 0.642 204.157 o
7 -2 6 18.953 19.910 1.335 19.774 o
7 -2 7 3.530 3.342 1.091 75.969 o
7 -2 8 0.890 1.371 1.025 120.692 o
7 -1 0 0.084 0.068 0.344 1151.040 o
7 -1 1 60.300 58.761 1.247 5.123 o
7 -1 2 10.709 12.704 0.686 41.979 o
7 -1 3 100.788 101.290 1.669 2.275 o
7 -1 4 21.129 21.288 1.086 19.336 o
7 -1 5 61.624 60.495 1.749 4.726 o
7 -1 6 50.864 45.529 2.415 5.704 o
7 -1 7 13.668 12.249 1.971 20.247 o
7 0 0 89.902 81.716 1.622 2.861 o
7 0 1 1.330 0.884 0.392 354.402 o
7 0 2 64.561 66.005 1.335 4.507 o
7 0 3 9.123 8.176 0.641 55.120 o
7 0 4 5.018 6.093 0.880 71.934 o
7 0 5 98.412 94.999 2.515 2.288 o
7 0 6 10.183 9.605 1.333 34.261 o
7 1 0 0.001 0.461 0.434 699.574 o
7 1 1 149.942 146.004 2.081 1.199 o
7 1 2 163.935 155.857 2.471 1.034 o
7 1 3 9.561 9.264 0.850 46.643 o
7 1 4 2.302 2.269 0.743 139.876 o
7 1 5 4.498 5.083 0.880 78.910 o
7 1 6 13.635 17.136 2.228 16.705 o
7 2 0 95.168 87.174 2.303 2.502 o
7 2 1 7.003 5.185 0.821 66.004 o
7 2 2 17.664 14.663 1.511 21.144 o
7 2 3 52.678 51.118 2.130 5.555 o
7 2 4 7.196 6.774 1.009 53.862 o
7 2 5 5.722 4.799 1.141 57.768 o
7 3 0 30.023 29.078 1.478 12.118 o
7 3 1 93.081 96.879 2.544 2.387 o
7 3 2 2.362 1.714 0.969 106.825 o
7 3 3 10.513 10.494 1.179 35.957 o
7 4 0 41.376 41.530 1.735 7.839 o
7 4 1 6.208 6.845 1.268 47.376 o
7 4 2 19.012 22.276 1.875 15.703 o
8 -10 1 1.639 3.190 0.850 124.896 o
8 -10 2 3.080 2.896 0.920 97.772 o
8 -10 3 26.737 21.571 1.676 13.783 o
8 -9 0 2.325 1.459 0.767 143.793 o
8 -9 1 111.130 117.393 2.757 1.793 o
8 -9 2 69.761 88.009 3.814 2.784 o
8 -9 3 128.075 130.800 3.384 1.416 o
8 -9 4 0.334 1.028 0.983 143.095 o
8 -9 5 1.631 1.868 0.779 152.857 o
8 -8 0 1.878 2.335 0.592 183.796 o
8 -8 1 11.369 7.273 0.906 43.179 o
8 -8 2 61.023 57.673 2.172 4.634 o
8 -8 3 187.385 190.035 4.079 0.756 o
8 -8 4 170.114 192.465 4.893 0.800 o
8 -8 5 102.531 108.303 2.426 2.069 o
8 -8 6 2.376 2.540 0.725 138.745 o
8 -7 0 0.566 2.120 0.643 231.923 o
8 -7 1 47.458 42.594 1.384 7.273 o
8 -7 2 6.459 4.121 0.880 69.182 o
8 -7 3 27.393 20.928 1.944 12.608 o
8 -7 4 0.295 0.349 0.552 414.695 o
8 -7 5 24.189 29.184 1.419 14.303 o
8 -7 6 107.955 120.468 2.698 1.827 o
8 -6 0 57.059 62.441 1.801 4.961 o
8 -6 1 65.400 70.786 1.683 4.179 o
8 -6 2 37.809 37.197 1.735 8.787 o
8 -6 3 0.818 0.178 0.514 383.251 o
8 -6 4 28.900 30.380 1.324 12.686 o
8 -6 5 1.451 2.047 0.576 212.639 o
8 -6 6 12.724 12.835 1.109 31.616 o
8 -6 7 34.668 35.416 1.833 9.366 o
8 -5 0 21.642 21.690 1.336 17.602 o
8 -5 1 0.494 0.779 0.501 399.428 o
8 -5 2 20.649 23.040 1.047 19.269 o
8 -5 3 112.414 117.483 2.993 1.746 o
8 -5 4 22.163 23.363 1.223 17.417 o
8 -5 5 12.053 11.814 0.989 35.309 o
8 -5 6 1.968 1.628 0.707 163.986 o
8 -5 7 18.819 18.852 2.399 13.403 o
8 -4 0 64.314 62.124 1.749 4.488 o
8 -4 1 116.092 121.765 2.113 1.742 o
8 -4 2 3.763 3.604 0.469 134.282 o
8 -4 3 11.098 7.861 0.782 45.711 o
8 -4 4 3.081 3.114 0.586 139.566 o
8 -4 5 47.381 46.233 1.584 6.857 o
8 -4 6 62.882 67.073 2.264 4.179 o
8 -3 0 27.602 27.649 0.980 14.613 o
8 -3 1 64.675 63.469 1.269 4.608 o
8 -3 2 12.570 14.067 0.707 36.108 o
8 -3 3 96.985 99.328 1.593 2.401 o
8 -3 4 11.572 13.236 1.023 34.388 o
8 -3 5 0.123 -0.968 0.603 412.171 o
8 -3 6 3.823 3.042 0.799 101.666 o
8 -2 0 19.248 16.157 0.814 24.485 o
8 -2 1 0.749 0.927 0.473 374.365 o
8 -2 2 30.276 30.570 1.245 12.411 o
8 -2 3 16.779 15.580 0.760 27.919 o
8 -2 4 103.947 110.060 2.388 2.029 o
8 -2 5 3.312 4.979 1.146 68.288 o
8 -1 0 3.985 2.227 0.523 137.908 o
8 -1 1 24.571 23.437 1.701 14.132 o
8 -1 2 43.892 41.583 1.284 7.980 o
8 -1 3 44.219 43.842 1.511 7.516 o
8 -1 4 124.687 120.698 5.313 1.305 o
8 -1 5 1.103 1.371 0.969 127.966 o
8 0 0 74.541 76.170 2.248 3.391 o
8 0 1 7.991 8.671 0.686 57.609 o
8 0 2 1.487 2.057 0.638 191.351 o
8 0 3 15.853 13.036 1.039 28.136 o
8 0 4 3.260 2.386 0.892 101.849 o
8 1 0 15.566 16.183 1.286 24.280 o
8 1 1 5.924 8.877 0.897 59.036 o
8 1 2 46.530 48.668 1.925 6.476 o
8 1 3 108.739 111.941 3.611 1.764 o
8 2 0 19.253 17.785 1.286 20.625 o
8 2 1 8.134 6.791 1.194 44.724 o
9 -7 0 1.531 1.614 0.759 163.974 o
9 -7 1 55.344 46.968 2.103 5.526 o
9 -7 2 64.817 69.050 2.869 3.723 o
9 -6 0 1.950 1.114 0.638 191.694 o
9 -6 1 0.020 -0.257 0.705 315.506 o
9 -6 2 9.332 8.764 1.014 44.001 o
9 -6 3 32.529 33.718 1.602 10.509 o
9 -5 0 5.399 5.072 0.891 72.105 o
9 -5 1 5.001 4.239 0.850 80.315 o
9 -5 2 0.416 0.265 0.591 360.763 o
9 -5 3 0.577 -0.231 0.792 219.327 o
9 -4 0 3.381 3.622 0.655 119.863 o
9 -4 1 23.602 21.031 1.155 17.577 o
9 -4 2 2.964 4.103 0.725 114.348 o
9 -4 3 1.631 2.743 0.542 198.638 o
9 -3 0 12.062 17.219 1.025 30.518 o
9 -3 1 33.731 30.380 1.426 11.017 o
9 -3 2 0.706 -0.283 0.552 376.364 o
9 -3 3 0.118 -0.286 0.693 316.780 o
9 -2 0 25.711 24.592 1.367 14.810 o
9 -2 1 35.646 35.761 1.312 10.100 o
9 -2 2 48.069 52.111 1.640 6.377 o
9 -1 0 0.522 -0.239 0.591 364.465 o
9 -1 1 24.188 26.393 2.742 9.795 o
;
_olex2_submission_special_instructions 'No special instructions were received'
_publcif_funding_html
;
;
loop_
_space_group_symop_id
_space_group_symop_operation_xyz
1 x,y,z
2 -x,-y,-z
loop_
_atom_site_label
_atom_site_type_symbol
_atom_site_fract_x
_atom_site_fract_y
_atom_site_fract_z
_atom_site_U_iso_or_equiv
_atom_site_adp_type
_atom_site_occupancy
_atom_site_refinement_flags_posn
S1 S 0.80670(6) 0.59538(5) 0.95849(5) 0.04176(15) Uani 1.000000 .
Cl2 Cl -0.08131(10) 0.18706(5) 0.56704(6) 0.0704(2) Uani 1.000000 .
O0aa O 0.17322(16) 0.88855(14) 0.82976(14) 0.0455(3) Uani 1.000000 .
O1 O 0.43284(17) 1.02925(13) 0.77451(15) 0.0462(3) Uani 1.000000 .
N2 N 0.48078(18) 0.64556(15) 0.91283(13) 0.0323(3) Uani 1.000000 .
N3 N 0.75440(19) 0.78974(14) 0.86444(13) 0.0321(3) Uani 1.000000 .
C1 C 0.1361(3) 0.3770(2) 0.45953(17) 0.0438(4) Uani 1.000000 .
H1 H 0.0882(3) 0.3074(2) 0.37810(17) 0.0526(5) Uiso 1.000000 R
C2 C 0.2644(3) 0.5068(2) 0.46739(17) 0.0456(4) Uani 1.000000 .
H2a H 0.3034(3) 0.5256(2) 0.39033(17) 0.0548(5) Uiso 1.000000 R
C3 C 0.3367(2) 0.61063(19) 0.58898(16) 0.0382(4) Uani 1.000000 .
H3a H 0.4249(2) 0.69774(19) 0.59285(16) 0.0459(4) Uiso 1.000000 R
C4 C 0.2779(2) 0.58493(16) 0.70480(15) 0.0289(3) Uani 1.000000 .
C5 C 0.3553(2) 0.69375(15) 0.84193(14) 0.0281(3) Uani 1.000000 .
H5 H 0.2448(2) 0.70043(15) 0.89180(14) 0.0337(4) Uiso 1.000000 R
C6 C 0.4660(2) 0.83962(15) 0.83741(14) 0.0289(3) Uani 1.000000 .
C7 C 0.3437(2) 0.92105(16) 0.81587(15) 0.0312(3) Uani 1.000000 .
C8 C 0.3193(3) 1.11114(19) 0.7458(2) 0.0438(4) Uani 1.000000 .
H8a H 0.2060(3) 1.04938(19) 0.6842(2) 0.0526(5) Uiso 1.000000 R
H8b H 0.2771(3) 1.16131(19) 0.8262(2) 0.0526(5) Uiso 1.000000 R
C9 C 0.4465(4) 1.2130(3) 0.6871(4) 0.0939(12) Uani 1.000000 .
H9a H 0.5614(18) 1.2698(19) 0.7470(11) 0.1408(17) Uiso 1.000000 GR
H9b H 0.481(3) 1.1620(3) 0.6051(13) 0.1408(17) Uiso 1.000000 GR
H9c H 0.3791(15) 1.273(2) 0.671(3) 0.1408(17) Uiso 1.000000 GR
C10 C 0.6703(2) 0.67818(16) 0.90836(14) 0.0292(3) Uani 1.000000 .
C11 C 0.6610(2) 0.88066(16) 0.84373(15) 0.0297(3) Uani 1.000000 .
C12 C 0.7977(2) 1.01504(19) 0.8312(2) 0.0446(4) Uani 1.000000 .
H12a H 0.8120(17) 1.0037(5) 0.7396(2) 0.0669(6) Uiso 1.000000 GR
H12b H 0.7471(11) 1.0913(4) 0.8676(13) 0.0669(6) Uiso 1.000000 GR
H12c H 0.9214(7) 1.0361(9) 0.8784(12) 0.0669(6) Uiso 1.000000 GR
C13 C 0.0798(2) 0.35212(18) 0.57541(18) 0.0396(4) Uani 1.000000 .
C14 C 0.1458(2) 0.45378(17) 0.69734(16) 0.0353(3) Uani 1.000000 .
H14 H 0.1029(2) 0.43517(17) 0.77369(16) 0.0424(4) Uiso 1.000000 R
H3 H 0.870(3) 0.815(2) 0.8641(19) 0.039(5) Uiso 1.000000 .
H2 H 0.425(3) 0.583(2) 0.945(2) 0.042(5) Uiso 1.000000 .
loop_
_atom_site_aniso_label
_atom_site_aniso_U_11
_atom_site_aniso_U_22
_atom_site_aniso_U_33
_atom_site_aniso_U_12
_atom_site_aniso_U_13
_atom_site_aniso_U_23
S1 0.0334(2) 0.0484(3) 0.0556(3) 0.01549(18) 0.00424(18) 0.0316(2)
Cl2 0.0787(4) 0.0392(3) 0.0700(4) -0.0074(2) -0.0068(3) 0.0118(2)
O0aa 0.0267(6) 0.0517(7) 0.0688(8) 0.0150(5) 0.0122(5) 0.0318(7)
O1 0.0305(6) 0.0446(7) 0.0790(9) 0.0156(5) 0.0113(6) 0.0383(7)
N2 0.0261(6) 0.0372(7) 0.0371(7) 0.0051(5) 0.0011(5) 0.0223(6)
N3 0.0221(6) 0.0384(7) 0.0423(7) 0.0101(5) 0.0073(5) 0.0220(6)
C1 0.0431(9) 0.0491(10) 0.0351(8) 0.0196(8) -0.0014(7) 0.0033(7)
C2 0.0447(10) 0.0606(11) 0.0345(8) 0.0185(9) 0.0087(7) 0.0179(8)
C3 0.0340(8) 0.0441(9) 0.0385(8) 0.0105(7) 0.0062(6) 0.0181(7)
C4 0.0235(6) 0.0338(7) 0.0333(7) 0.0114(6) 0.0013(5) 0.0144(6)
C5 0.0225(6) 0.0318(7) 0.0325(7) 0.0079(5) 0.0034(5) 0.0148(6)
C6 0.0245(7) 0.0300(7) 0.0339(7) 0.0076(6) 0.0037(5) 0.0138(6)
C7 0.0267(7) 0.0312(7) 0.0359(8) 0.0086(6) 0.0039(6) 0.0120(6)
C8 0.0388(9) 0.0389(9) 0.0626(11) 0.0195(7) 0.0056(8) 0.0217(8)
C9 0.0642(16) 0.094(2) 0.177(3) 0.0398(15) 0.0368(19) 0.104(2)
C10 0.0287(7) 0.0333(7) 0.0260(7) 0.0086(6) 0.0014(5) 0.0118(6)
C11 0.0257(7) 0.0316(7) 0.0340(7) 0.0080(6) 0.0050(5) 0.0148(6)
C12 0.0275(8) 0.0429(9) 0.0713(12) 0.0075(7) 0.0080(8) 0.0335(9)
C13 0.0361(8) 0.0338(8) 0.0462(9) 0.0094(7) -0.0036(7) 0.0112(7)
C14 0.0347(8) 0.0364(8) 0.0362(8) 0.0091(6) 0.0005(6) 0.0161(7)
loop_
_atom_type_symbol
_atom_type_scat_dispersion_real
_atom_type_scat_dispersion_imag
_atom_type_scat_Cromer_Mann_a1
_atom_type_scat_Cromer_Mann_a2
_atom_type_scat_Cromer_Mann_a3
_atom_type_scat_Cromer_Mann_a4
_atom_type_scat_Cromer_Mann_b1
_atom_type_scat_Cromer_Mann_b2
_atom_type_scat_Cromer_Mann_b3
_atom_type_scat_Cromer_Mann_b4
_atom_type_scat_Cromer_Mann_c
_atom_type_scat_source
_atom_type_scat_dispersion_source
C 0.00347 0.00161 2.31000 1.02000 1.58860 0.86500 20.84390 10.20750 0.56870
51.65120 0.215599998832
'International Tables Volume C Table 6.1.1.4 (pp. 500-502)'
'Henke, Gullikson and Davis, At. Data and Nucl. Data Tables, 1993, 54, 2'
Cl 0.14873 0.16029 11.46040 7.19640 6.25560 1.64550 0.01040 1.16620 18.51940
47.77840 -9.55739974976
'International Tables Volume C Table 6.1.1.4 (pp. 500-502)'
'Henke, Gullikson and Davis, At. Data and Nucl. Data Tables, 1993, 54, 2'
H 0.00000 0.00000 0.49300 0.32291 0.14019 0.04081 10.51090 26.12570 3.14236
57.79970 0.0030380000826
'International Tables Volume C Table 6.1.1.4 (pp. 500-502)'
'Henke, Gullikson and Davis, At. Data and Nucl. Data Tables, 1993, 54, 2'
O 0.01158 0.00611 3.04850 2.28680 1.54630 0.86700 13.27710 5.70110 0.32390
32.90890 0.250800013542
'International Tables Volume C Table 6.1.1.4 (pp. 500-502)'
'Henke, Gullikson and Davis, At. Data and Nucl. Data Tables, 1993, 54, 2'
N 0.00653 0.00323 12.21260 3.13220 2.01250 1.16630 0.00570 9.89330 28.99750
0.58260 -11.5290002823
'International Tables Volume C Table 6.1.1.4 (pp. 500-502)'
'Henke, Gullikson and Davis, At. Data and Nucl. Data Tables, 1993, 54, 2'
S 0.12424 0.12443 6.90530 5.20340 1.43790 1.58630 1.46790 22.21510 0.25360
56.17200 0.866900026798
'International Tables Volume C Table 6.1.1.4 (pp. 500-502)'
'Henke, Gullikson and Davis, At. Data and Nucl. Data Tables, 1993, 54, 2'
loop_
_geom_angle_atom_site_label_1
_geom_angle_atom_site_label_2
_geom_angle_atom_site_label_3
_geom_angle
_geom_angle_site_symmetry_1
_geom_angle_site_symmetry_3
_geom_angle_publ_flag
C8 O1 C7 117.87(12) . . ?
C10 N2 C5 123.73(12) . . ?
H2 N2 C5 116.3(14) . . ?
H2 N2 C10 118.9(14) . . ?
C11 N3 C10 124.34(13) . . ?
H3 N3 C10 118.2(14) . . ?
H3 N3 C11 116.3(14) . . ?
C2 C1 H1 120.78(10) . . ?
C13 C1 H1 120.78(10) . . ?
C13 C1 C2 118.43(16) . . ?
H2a C2 C1 119.59(10) . . ?
C3 C2 C1 120.82(16) . . ?
C3 C2 H2a 119.59(10) . . ?
H3a C3 C2 119.86(10) . . ?
C4 C3 C2 120.28(16) . . ?
C4 C3 H3a 119.86(10) . . ?
C5 C4 C3 122.80(14) . . ?
C14 C4 C3 119.16(15) . . ?
C14 C4 C5 118.02(13) . . ?
C4 C5 N2 109.84(12) . . ?
H5 C5 N2 108.17(7) . . ?
H5 C5 C4 108.17(7) . . ?
C6 C5 N2 109.19(11) . . ?
C6 C5 C4 113.18(12) . . ?
C6 C5 H5 108.17(8) . . ?
C7 C6 C5 114.40(12) . . ?
C11 C6 C5 119.63(13) . . ?
C11 C6 C7 125.79(13) . . ?
O1 C7 O0aa 122.63(14) . . ?
C6 C7 O0aa 122.60(14) . . ?
C6 C7 O1 114.70(12) . . ?
H8a C8 O1 110.37(9) . . ?
H8b C8 O1 110.37(10) . . ?
H8b C8 H8a 108.6 . . ?
C9 C8 O1 106.75(15) . . ?
C9 C8 H8a 110.37(16) . . ?
C9 C8 H8b 110.37(16) . . ?
H9a C9 C8 109.5 . . ?
H9b C9 C8 109.5 . . ?
H9b C9 H9a 109.5 . . ?
H9c C9 C8 109.5 . . ?
H9c C9 H9a 109.5 . . ?
H9c C9 H9b 109.5 . . ?
N2 C10 S1 124.00(11) . . ?
N3 C10 S1 120.22(11) . . ?
N3 C10 N2 115.73(13) . . ?
C6 C11 N3 118.25(13) . . ?
C12 C11 N3 113.20(13) . . ?
C12 C11 C6 128.55(14) . . ?
H12a C12 C11 109.5 . . ?
H12b C12 C11 109.5 . . ?
H12b C12 H12a 109.5 . . ?
H12c C12 C11 109.5 . . ?
H12c C12 H12a 109.5 . . ?
H12c C12 H12b 109.5 . . ?
C1 C13 Cl2 118.94(14) . . ?
C14 C13 Cl2 118.90(14) . . ?
C14 C13 C1 122.16(16) . . ?
C13 C14 C4 119.13(15) . . ?
H14 C14 C4 120.44(9) . . ?
H14 C14 C13 120.44(10) . . ?
loop_
_geom_bond_atom_site_label_1
_geom_bond_atom_site_label_2
_geom_bond_distance
_geom_bond_site_symmetry_2
_geom_bond_publ_flag
S1 C10 1.6818(15) . ?
Cl2 C13 1.7428(18) . ?
O0aa C7 1.2098(19) . ?
O1 C7 1.3259(19) . ?
O1 C8 1.4510(19) . ?
N2 C5 1.4726(18) . ?
N2 C10 1.3261(19) . ?
N2 H2 0.83(2) . ?
N3 C10 1.3630(19) . ?
N3 C11 1.3933(19) . ?
N3 H3 0.81(2) . ?
C1 H1 0.9300 . ?
C1 C2 1.372(3) . ?
C1 C13 1.381(3) . ?
C2 H2a 0.9300 . ?
C2 C3 1.389(3) . ?
C3 H3a 0.9300 . ?
C3 C4 1.388(2) . ?
C4 C5 1.531(2) . ?
C4 C14 1.394(2) . ?
C5 H5 0.9800 . ?
C5 C6 1.5088(19) . ?
C6 C7 1.469(2) . ?
C6 C11 1.351(2) . ?
C8 H8a 0.9700 . ?
C8 H8b 0.9700 . ?
C8 C9 1.484(3) . ?
C9 H9a 0.9600 . ?
C9 H9b 0.9600 . ?
C9 H9c 0.9600 . ?
C11 C12 1.500(2) . ?
C12 H12a 0.9600 . ?
C12 H12b 0.9600 . ?
C12 H12c 0.9600 . ?
C13 C14 1.377(2) . ?
C14 H14 0.9300 . ?
loop_
_publcif_info_exptl_table_extra_item
sin_theta_over_lambda_max
loop_
_publcif_info_exptl_table_header_item
?
