#------------------------------------------------------------------------------
#$Date: 2022-02-04 21:26:33 +0200 (Fri, 04 Feb 2022) $
#$Revision: 272636 $
#$URL: file:///home/coder/svn-repositories/cod/cif/7/24/39/7243973.cif $
#------------------------------------------------------------------------------
#
# This file is available in the Crystallography Open Database (COD),
# http://www.crystallography.net/
#
# All data on this site have been placed in the public domain by the
# contributors.
#
data_7243973
loop_
_publ_author_name
'Teixeira, Micha\"el'
'Maia, Renata A.'
'Karmazin, Lydia'
'Louis, Beno\^it'
'Baudron, St\'ephane A.'
_publ_section_title
;
 Ionothermal synthesis of calcium-based metal--organic frameworks in a
 deep eutectic solvent
;
_journal_issue                   3
_journal_name_full               CrystEngComm
_journal_page_first              601
_journal_page_last               608
_journal_paper_doi               10.1039/D1CE01497H
_journal_volume                  24
_journal_year                    2022
_chemical_formula_sum            'C11 H10 Ca N2 O7'
_chemical_formula_weight         322.29
_space_group_crystal_system      triclinic
_space_group_IT_number           2
_space_group_name_Hall           '-P 1'
_space_group_name_H-M_alt        'P -1'
_atom_sites_solution_hydrogens   geom
_audit_creation_method           SHELXL-2016/6
_audit_update_record
;
2021-11-08 deposited with the CCDC.	2021-11-30 downloaded from the CCDC.
;
_cell_angle_alpha                64.455(3)
_cell_angle_beta                 86.316(4)
_cell_angle_gamma                74.126(4)
_cell_formula_units_Z            2
_cell_length_a                   8.4045(10)
_cell_length_b                   8.6975(9)
_cell_length_c                   9.8540(13)
_cell_measurement_reflns_used    1745
_cell_measurement_temperature    173(2)
_cell_measurement_theta_max      26.81
_cell_measurement_theta_min      2.30
_cell_volume                     623.92(13)
_computing_cell_refinement       'Bruker SAINT'
_computing_data_collection       'Bruker APEX2'
_computing_data_reduction        'Bruker SAINT'
_computing_molecular_graphics    'Bruker SHELXTL'
_computing_publication_material  'Bruker SHELXTL'
_computing_structure_refinement  'SHELXL-2016/6 (Sheldrick, 2016)'
_computing_structure_solution    'SHELXS-97 (Sheldrick 2008)'
_diffrn_ambient_temperature      173(2)
_diffrn_measured_fraction_theta_full 1.000
_diffrn_measured_fraction_theta_max 0.892
_diffrn_measurement_device_type  'Bruker APEX-II CCD'
_diffrn_measurement_method       '\f and \w scans'
_diffrn_radiation_type           MoK\a
_diffrn_radiation_wavelength     0.71073
_diffrn_reflns_av_R_equivalents  0.0555
_diffrn_reflns_av_unetI/netI     0.0802
_diffrn_reflns_Laue_measured_fraction_full 1.000
_diffrn_reflns_Laue_measured_fraction_max 0.892
_diffrn_reflns_limit_h_max       11
_diffrn_reflns_limit_h_min       -11
_diffrn_reflns_limit_k_max       11
_diffrn_reflns_limit_k_min       -8
_diffrn_reflns_limit_l_max       13
_diffrn_reflns_limit_l_min       -13
_diffrn_reflns_number            8071
_diffrn_reflns_point_group_measured_fraction_full 1.000
_diffrn_reflns_point_group_measured_fraction_max 0.892
_diffrn_reflns_theta_full        25.242
_diffrn_reflns_theta_max         30.115
_diffrn_reflns_theta_min         2.295
_exptl_absorpt_coefficient_mu    0.542
_exptl_absorpt_correction_T_max  0.988
_exptl_absorpt_correction_T_min  0.983
_exptl_absorpt_correction_type   multi-scan
_exptl_absorpt_process_details   sadabs
_exptl_crystal_colour            colourless
_exptl_crystal_density_diffrn    1.716
_exptl_crystal_density_meas      ?
_exptl_crystal_description       platelet
_exptl_crystal_F_000             332
_exptl_crystal_size_max          0.030
_exptl_crystal_size_mid          0.030
_exptl_crystal_size_min          0.020
_refine_diff_density_max         0.932
_refine_diff_density_min         -0.584
_refine_diff_density_rms         0.127
_refine_ls_extinction_method     none
_refine_ls_goodness_of_fit_ref   1.093
_refine_ls_hydrogen_treatment    constr
_refine_ls_matrix_type           full
_refine_ls_number_parameters     193
_refine_ls_number_reflns         3376
_refine_ls_number_restraints     0
_refine_ls_restrained_S_all      1.093
_refine_ls_R_factor_all          0.0904
_refine_ls_R_factor_gt           0.0637
_refine_ls_shift/su_max          0.002
_refine_ls_shift/su_mean         0.000
_refine_ls_structure_factor_coef Fsqd
_refine_ls_weighting_details
'w=1/[\s^2^(Fo^2^)+(0.0646P)^2^+1.7738P] where P=(Fo^2^+2Fc^2^)/3'
_refine_ls_weighting_scheme      calc
_refine_ls_wR_factor_gt          0.1680
_refine_ls_wR_factor_ref         0.1819
_reflns_Friedel_coverage         0.000
_reflns_number_gt                2462
_reflns_number_total             3376
_reflns_threshold_expression     'I > 2\s(I)'
_cod_data_source_file            d1ce01497h2.cif
_cod_data_source_block           CaMOF3
_cod_depositor_comments
;
The following automatic conversions were performed:

data item '_exptl_crystal_density_meas' value 'not measured' was
changed to '?' -- the value is perceived as not measured.

Automatic conversion script
Id: cif_fix_values 7556 2019-12-06 15:28:31Z antanas 

 Adding full bibliography for 7243973--7243978.cif.
;
_cod_database_code               7243973
_shelx_shelxl_version_number     2016/6
_shelx_space_group_comment
;
The symmetry employed for this shelxl refinement is uniquely defined
by the following loop, which should always be used as a source of
symmetry information in preference to the above space-group names.
They are only intended as comments.
;
_shelx_estimated_absorpt_t_min   0.984
_shelx_estimated_absorpt_t_max   0.989
_shelx_res_file
;
TITL e4959a in P-1
    shelx.res
    created by SHELXL-2016/6 at 10:02:01 on 03-Nov-2021
CELL  0.71073   8.4045   8.6975   9.8540   64.455   86.316   74.126
ZERR     2.00   0.0010   0.0009   0.0013    0.003    0.004    0.004
LATT   1
SFAC  C    H    N    O    CA
UNIT  22 20 4 14 2
MERG   2
OMIT     0  -1   2
OMIT    -3   1   3
TWIN   -0.09  1.09 -0.47  0.91  0.09 -0.47  0.00  0.00 -1.00   2
FMAP   2
PLAN   10
SIZE     0.020   0.030   0.030
ACTA
BOND   $H
L.S.   4
TEMP  -100.00
WGHT    0.064600    1.773800
BASF   0.00101
FVAR       0.22362
MOLE    1
C1    1    0.549825    0.294600    0.228397    11.00000    0.01214    0.01429 =
         0.01355   -0.00619    0.00155   -0.00253
C2    1    0.525153    0.140762    0.367593    11.00000    0.01593    0.01043 =
         0.01442   -0.00158    0.00202   -0.00473
C3    1    0.369767    0.147967    0.425742    11.00000    0.01351    0.01438 =
         0.01978   -0.00318    0.00227   -0.00021
AFIX  43
H3    2    0.279693    0.248853    0.374243    11.00000   -1.20000
AFIX   0
C4    1    0.656896   -0.011776    0.443197    11.00000    0.01262    0.01613 =
         0.02211   -0.00475    0.00680   -0.00257
C5    1   -0.174768    0.798765   -0.032832    11.00000    0.00780    0.01286 =
         0.01939   -0.00751   -0.00029    0.00004
C6    1   -0.343326    0.903819   -0.017344    11.00000    0.00710    0.01388 =
         0.02163   -0.00896   -0.00021   -0.00078
C7    1   -0.472239    0.823303    0.027723    11.00000    0.00923    0.01234 =
         0.02435   -0.00907    0.00029   -0.00254
AFIX  43
H7    2   -0.453019    0.702514    0.047478    11.00000   -1.20000
AFIX   0
C8    1    0.371666    0.918552    0.043873    11.00000    0.01080    0.01464 =
         0.01866   -0.00921    0.00090   -0.00280
C9    1   -0.061409    0.499519    0.341652    11.00000    0.01799    0.02793 =
         0.01328   -0.00907    0.00144   -0.00534
C10   1   -0.232533    0.344792    0.503521    11.00000    0.03481    0.04289 =
         0.02669   -0.01446    0.00669   -0.02548
AFIX  23
H10A  2   -0.198328    0.303083    0.610638    11.00000   -1.20000
H10B  2   -0.302141    0.273050    0.496285    11.00000   -1.20000
AFIX   0
C11   1   -0.322776    0.539983    0.432812    11.00000    0.02717    0.04405 =
         0.05495   -0.03370    0.03010   -0.02160
AFIX  23
H11A  2   -0.413093    0.566855    0.359529    11.00000   -1.20000
H11B  2   -0.369263    0.580844    0.510208    11.00000   -1.20000
AFIX   0
N1    3   -0.191124    0.619873    0.358085    11.00000    0.02070    0.02471 =
         0.04360   -0.01973    0.01759   -0.01186
AFIX  43
H1    2   -0.195867    0.732257    0.327661    11.00000   -1.20000
AFIX   0
N2    3   -0.088898    0.337140    0.412553    11.00000    0.01859    0.02010 =
         0.03497   -0.01028    0.00260   -0.00597
AFIX  43
H2    2   -0.028959    0.241299    0.404840    11.00000   -1.20000
AFIX   0
O1    4    0.431134    0.430296    0.170720    11.00000    0.01232    0.01346 =
         0.01983   -0.00056    0.00065   -0.00155
O2    4    0.305357    0.721576   -0.178783    11.00000    0.01281    0.01849 =
         0.01957   -0.00384    0.00449   -0.00498
O3    4    0.812409   -0.028934    0.390552    11.00000    0.01368    0.01892 =
         0.03910    0.00843    0.01288    0.00244
AFIX 147
H3A   2    0.813146    0.062536    0.311706    11.00000   -1.50000
AFIX   0
O4    4   -0.151103    0.641846   -0.014317    11.00000    0.01539    0.01264 =
         0.03542   -0.01421    0.00198   -0.00138
O5    4   -0.056632    0.870909   -0.060182    11.00000    0.00804    0.01500 =
         0.04008   -0.01322    0.00380   -0.00245
O6    4    0.248437    0.834840    0.087474    11.00000    0.00923    0.01437 =
         0.03482   -0.01326    0.00643   -0.00353
AFIX 147
H6    2    0.159325    0.907419    0.088544    11.00000   -1.50000
AFIX   0
O7    4    0.063653    0.532767    0.272584    11.00000    0.01702    0.03315 =
         0.02208   -0.00959    0.00763   -0.00793
CA1   5    0.178199    0.600511    0.043272    11.00000    0.00985    0.00892 =
         0.01515   -0.00439    0.00322   -0.00264
HKLF    4




REM  e4959a in P-1
REM R1 =  0.0637 for    2462 Fo > 4sig(Fo)  and  0.0904 for all    3376 data
REM    193 parameters refined using      0 restraints

END

WGHT      0.0647      1.7723

REM Highest difference peak  0.932,  deepest hole -0.584,  1-sigma level  0.127
Q1    1   0.0023  0.7677  0.1203  11.00000  0.05    0.93
Q2    1  -0.3520  0.5835  0.0273  11.00000  0.05    0.79
Q3    1  -0.2536  0.4815  0.4966  11.00000  0.05    0.72
Q4    1   0.0856  0.1491  0.3572  11.00000  0.05    0.60
Q5    1  -0.4311  0.6766  0.5648  11.00000  0.05    0.56
Q6    1   0.1217  0.4486  0.2215  11.00000  0.05    0.53
Q7    1  -0.1699  0.9408  0.1817  11.00000  0.05    0.46
Q8    1   0.0003  0.2481  0.4653  11.00000  0.05    0.46
Q9    1   0.2755  1.0380 -0.1275  11.00000  0.05    0.45
Q10   1   0.6827  0.2374  0.3406  11.00000  0.05    0.44
;
_shelx_res_checksum              17819
_shelx_hkl_file
;
  -1   0   0    2.40    0.24
  -1   0   0    2.61    0.22
   1   0   0    2.70    0.25
   1   0   0    3.91    0.25
  -2   0   0   52.67    2.91
  -2   0   0   51.33    2.85
  -2   0   0   52.77    2.93
   2   0   0   53.71    2.86
   2   0   0   57.67    2.94
   2   0   0   57.60    2.92
  -3   0   0   58.21    3.15
  -3   0   0   56.68    3.26
   3   0   0   60.40    3.16
   3   0   0   58.98    3.24
  -4   0   0    7.57    0.87
  -4   0   0    8.34    0.72
   4   0   0    6.98    0.81
   4   0   0    8.08    0.70
  -5   0   0   11.54    0.97
  -5   0   0   11.80    1.12
   5   0   0   13.71    1.03
   5   0   0   13.36    1.14
  -6   0   0   23.43    1.62
  -6   0   0   23.98    1.83
   6   0   0   22.70    1.77
  -7   0   0   13.80    1.59
  -7   0   0   13.13    1.34
   7   0   0   13.01    1.47
  -8   0   0   41.90    3.07
  -8   0   0   42.22    2.78
   8   0   0   44.98    3.06
  -9   0   0    9.34    1.27
  -9   0   0    9.83    1.56
   9   0   0   10.38    1.52
 -10   0   0    6.17    1.36
  10   0   0    4.27    1.07
 -11   0   0   15.11    2.21
  11   0   0   13.80    2.00
  11  -1   0    1.19    0.91
 -11   1   0    1.05    1.06
  10  -1   0    1.43    0.83
 -10   1   0    1.31    0.85
   9  -1   0    5.71    1.20
  -9   1   0    5.40    1.03
  -9   1   0    7.18    1.43
   8  -1   0   22.76    2.10
  -8   1   0   25.58    2.27
  -8   1   0   26.15    1.96
   7  -1   0    4.56    0.90
  -7   1   0    5.58    0.83
  -7   1   0    3.58    0.85
   6  -1   0    3.17    0.72
  -6   1   0    2.90    0.60
  -6   1   0    2.63    0.73
   5  -1   0   11.47    1.25
   5  -1   0   12.65    1.03
  -5   1   0   12.35    1.03
  -5   1   0   11.96    1.33
   4  -1   0   -0.20    0.22
   4  -1   0    0.05    0.25
  -4   1   0    0.39    0.33
  -4   1   0    0.39    0.27
   3  -1   0  117.58    6.30
   3  -1   0  119.35    6.41
  -3   1   0  121.34    6.31
  -3   1   0  126.24    6.46
   2  -1   0    0.38    0.20
   2  -1   0    0.49    0.24
  -2   1   0    0.23    0.18
  -2   1   0    0.17    0.23
   1  -1   0  152.17    8.08
   1  -1   0  167.65    8.05
   1  -1   0  165.31    8.10
  -1   1   0  167.80    8.05
  -1   1   0  145.06    8.09
  -1   1   0  154.41    8.08
   0  -1   0   59.33    2.97
   0  -1   0   61.46    2.97
   0  -1   0   61.86    2.96
   0   1   0   59.29    2.97
   0   1   0   51.51    2.95
   0   1   0   56.86    2.97
  -1  -1   0   37.74    1.93
  -1  -1   0   36.15    1.92
   1   1   0   37.32    1.94
   1   1   0   38.81    1.92
   1   1   0   38.55    1.93
  -2  -1   0    0.18    0.15
  -2  -1   0   -0.03    0.19
  -2  -1   0    0.09    0.13
   2   1   0    0.15    0.14
   2   1   0   -0.01    0.17
   2   1   0   -0.03    0.15
  -3  -1   0    1.69    0.28
  -3  -1   0    1.37    0.34
   3   1   0    2.20    0.37
   3   1   0    2.82    0.36
   3   1   0    1.91    0.34
  -4  -1   0    4.94    0.67
  -4  -1   0    4.35    0.52
   4   1   0    5.61    0.61
   4   1   0    4.74    0.64
  -5  -1   0    1.87    0.52
  -5  -1   0    3.54    0.53
   5   1   0    3.88    0.60
   5   1   0    4.74    0.60
  -6  -1   0    0.95    0.37
  -6  -1   0    0.92    0.51
   6   1   0    0.59    0.37
   6   1   0    1.05    0.49
  -7  -1   0    9.33    1.27
  -7  -1   0   11.40    1.19
   7   1   0   10.39    1.28
  -8  -1   0   19.94    1.57
  -8  -1   0   18.24    1.75
   8   1   0   20.24    1.73
  -9  -1   0    0.48    0.53
  -9  -1   0   -0.13    0.35
   9   1   0   -0.17    0.44
 -10  -1   0    2.71    0.78
 -10  -1   0    0.69    0.83
  10   1   0    1.82    0.87
 -11  -1   0    0.74    0.89
  11   1   0    0.44    0.77
  10  -2   0   14.27    2.03
 -10   2   0   13.74    2.11
   9  -2   0    9.31    1.51
  -9   2   0    7.38    1.49
   8  -2   0    6.79    1.23
  -8   2   0    6.19    1.30
  -8   2   0    6.06    1.00
   7  -2   0    4.01    0.96
  -7   2   0    1.61    0.70
  -7   2   0    1.92    0.55
   6  -2   0   21.38    1.73
  -6   2   0   19.87    1.78
  -6   2   0   19.99    1.54
   5  -2   0    1.75    0.57
  -5   2   0    2.06    0.49
  -5   2   0    2.18    0.65
   4  -2   0    4.82    0.74
   4  -2   0    4.28    0.60
  -4   2   0    5.03    0.77
  -4   2   0    4.62    0.62
   3  -2   0   11.73    0.98
   3  -2   0   12.60    0.92
  -3   2   0   11.79    0.90
  -3   2   0   12.46    1.04
   2  -2   0   49.13    2.71
   2  -2   0   50.59    2.64
  -2   2   0   48.73    2.76
  -2   2   0   44.89    2.63
   1  -2   0   87.56    4.35
   1  -2   0   83.50    4.29
  -1   2   0   84.98    4.36
  -1   2   0   78.56    4.29
  -1   2   0   79.41    4.38
   0  -2   0   13.60    0.76
   0  -2   0   13.01    0.80
   0  -2   0   13.46    0.79
   0   2   0   14.47    0.81
   0   2   0   12.84    0.77
   0   2   0   13.75    0.82
   1   2   0    5.56    0.31
  -2  -2   0   36.14    1.90
  -2  -2   0   35.03    1.89
   2   2   0   36.77    1.95
   2   2   0   37.39    1.93
   2   2   0   37.74    1.91
  -3  -2   0    0.16    0.15
  -3  -2   0    0.13    0.19
   3   2   0    0.24    0.19
   3   2   0   -0.09    0.16
   3   2   0   -0.04    0.13
  -4  -2   0   56.70    3.18
  -4  -2   0   59.13    3.09
   4   2   0   55.02    3.07
   4   2   0   57.29    3.15
  -5  -2   0   22.55    1.41
  -5  -2   0   22.02    1.53
   5   2   0   23.34    1.41
   5   2   0   19.44    1.46
  -6  -2   0    8.87    0.90
  -6  -2   0    7.74    1.02
   6   2   0    9.32    0.92
   6   2   0    7.02    0.96
  -7  -2   0   50.30    3.43
  -7  -2   0   56.46    3.26
   7   2   0   55.99    3.44
   7   2   0   58.59    3.24
  -8  -2   0    5.73    1.03
  -8  -2   0    5.04    0.82
   8   2   0    6.64    1.05
  -9  -2   0    2.44    0.64
  -9  -2   0    2.98    0.88
   9   2   0    0.71    0.56
 -10  -2   0    6.11    1.04
 -10  -2   0    8.16    1.39
  10   2   0    6.50    1.24
  11   2   0    1.25    0.80
  10  -3   0   27.95    3.04
 -10   3   0   27.83    3.14
   9  -3   0    2.42    0.87
  -9   3   0    2.28    0.98
   8  -3   0    7.66    1.32
  -8   3   0    8.59    1.53
   7  -3   0    1.08    0.60
  -7   3   0    0.95    0.55
  -7   3   0    1.18    0.68
   6  -3   0    0.20    0.48
  -6   3   0    1.43    0.49
  -6   3   0    0.53    0.58
   5  -3   0   18.83    1.52
  -5   3   0   16.57    1.75
  -5   3   0   13.90    1.25
   4  -3   0    0.29    0.35
  -4   3   0    1.20    0.53
  -4   3   0    0.12    0.31
   3  -3   0    7.55    0.79
   3  -3   0    8.97    0.98
  -3   3   0    8.23    0.97
  -3   3   0    9.14    0.88
   2  -3   0  189.28    9.69
   2  -3   0  180.76    9.57
  -2   3   0  188.84    9.59
  -2   3   0  187.64    9.73
   1  -3   0   12.84    0.84
   1  -3   0   13.27    0.90
  -1   3   0   11.98    0.84
  -1   3   0   12.89    0.95
   0  -3   0    0.62    0.17
   0  -3   0    0.34    0.18
   0  -3   0    0.50    0.14
   0   3   0    0.69    0.21
   0   3   0    0.58    0.17
   0   3   0    0.52    0.14
  -1  -3   0    0.96    0.10
   1   3   0    0.83    0.13
   1   3   0    0.85    0.11
   1   3   0    0.74    0.15
   2   3   0    0.15    0.09
   2   3   0    0.16    0.07
   2   3   0    0.24    0.11
   2   3   0    0.13    0.06
  -3  -3   0   84.71    4.26
  -3  -3   0   78.27    4.23
   3   3   0   82.69    4.27
   3   3   0   85.19    4.33
   3   3   0   86.17    4.32
  -4  -3   0  100.74    4.85
  -4  -3   0   93.45    4.91
   4   3   0   91.44    4.84
   4   3   0   87.37    4.91
  -5  -3   0    1.15    0.38
  -5  -3   0    1.30    0.32
   5   3   0    1.29    0.30
   5   3   0    0.95    0.34
  -6  -3   0   43.32    2.67
  -6  -3   0   43.60    2.53
   6   3   0   42.84    2.51
   6   3   0   45.62    2.69
  -7  -3   0    8.61    1.07
  -7  -3   0    7.43    0.88
   7   3   0    8.49    0.93
   7   3   0    8.59    1.09
  -8  -3   0   -0.31    0.28
  -8  -3   0    0.34    0.50
   8   3   0   -0.10    0.37
  -9  -3   0    1.82    0.58
   9   3   0    1.81    0.64
  10   3   0    3.94    0.91
  11   3   0    2.78    1.01
   9  -4   0    3.75    1.12
  -9   4   0    1.42    1.10
   8  -4   0    0.50    0.59
  -8   4   0    3.07    1.07
   7  -4   0    3.27    0.88
  -7   4   0    3.87    0.98
   6  -4   0    0.48    0.50
  -6   4   0   -0.02    0.50
  -6   4   0    0.06    0.40
   5  -4   0   14.65    1.50
  -5   4   0   18.58    1.69
  -5   4   0   22.53    1.55
   4  -4   0   -0.11    0.38
  -4   4   0    0.16    0.29
  -4   4   0    0.69    0.52
   3  -4   0    4.20    0.60
   3  -4   0    4.08    0.67
  -3   4   0    4.04    0.59
  -3   4   0    3.44    0.72
   2  -4   0   57.09    2.99
   2  -4   0   52.33    3.05
  -2   4   0   53.43    2.98
  -2   4   0   50.15    3.12
   1  -4   0    1.32    0.33
   1  -4   0    1.34    0.28
  -1   4   0    2.07    0.34
  -1   4   0    1.04    0.35
   0  -4   0   72.93    3.67
   0  -4   0   69.21    3.64
   0   4   0   67.72    3.75
   0   4   0   69.66    3.66
  -1  -4   0    2.88    0.25
   1   4   0    3.20    0.34
   1   4   0    3.63    0.32
   1   4   0    3.10    0.27
   2   4   0   27.33    1.35
   2   4   0   23.25    1.32
   3   4   0  163.25    8.04
   3   4   0  159.59    8.10
   3   4   0  156.26    8.09
  -4  -4   0    5.93    0.44
   4   4   0    5.71    0.54
   4   4   0    6.54    0.46
   4   4   0    5.95    0.52
  -5  -4   0    7.16    0.58
  -5  -4   0    6.11    0.64
   5   4   0    7.37    0.68
   5   4   0    7.25    0.58
  -6  -4   0   21.34    1.37
  -6  -4   0   20.72    1.46
   6   4   0   22.18    1.37
   6   4   0   21.81    1.51
  -7  -4   0    0.18    0.40
  -7  -4   0   -0.06    0.26
   7   4   0    0.02    0.36
   7   4   0   -0.18    0.25
  -8  -4   0    5.08    0.73
   8   4   0    3.39    0.76
   9   4   0    4.84    0.95
  10   4   0    3.14    1.14
  11   4   0    0.75    0.74
   8  -5   0    7.30    1.47
  -8   5   0    9.91    1.74
   7  -5   0    1.19    0.69
   6  -5   0    9.71    1.36
  -6   5   0    8.21    1.43
  -6   5   0    9.41    1.23
   5  -5   0   30.18    2.29
  -5   5   0   31.71    2.19
  -5   5   0   32.47    2.48
   4  -5   0    3.67    0.74
  -4   5   0    3.96    0.70
  -4   5   0    3.40    0.83
   3  -5   0   92.61    5.09
  -3   5   0   92.42    5.22
  -3   5   0   85.92    4.93
   2  -5   0   32.80    1.99
   2  -5   0   31.63    2.09
  -2   5   0   35.34    2.05
  -2   5   0   33.17    2.21
   1  -5   0    5.07    0.61
   1  -5   0    5.77    0.58
  -1   5   0    4.76    0.68
  -1   5   0    3.80    0.52
   0  -5   0   11.44    0.77
   0  -5   0   10.16    0.74
   0   5   0   11.40    0.77
   0   5   0   11.40    0.91
  -1  -5   0    0.40    0.13
   1   5   0    0.56    0.22
   1   5   0    0.46    0.19
   1   5   0    0.36    0.14
   2   5   0   22.68    1.25
   2   5   0   21.66    1.22
   3   5   0   43.84    2.15
   3   5   0   38.45    2.13
   4   5   0    5.68    0.46
   4   5   0    4.92    0.35
   4   5   0    5.10    0.34
   4   5   0    4.53    0.45
  -5  -5   0   24.08    1.41
   5   5   0   24.87    1.35
   5   5   0   21.64    1.47
  -6  -5   0   39.03    2.22
   6   5   0   36.11    2.37
   6   5   0   44.97    2.27
   7   5   0    8.51    0.99
   8   5   0    0.15    0.42
   9   5   0    1.76    0.67
  10   5   0    0.90    0.65
  11   5   0   16.53    2.05
  -7   6   0    0.52    0.84
  -6   6   0   14.99    1.94
   5  -6   0    4.49    0.92
  -5   6   0    3.51    1.01
  -5   6   0    6.35    0.99
   4  -6   0    0.82    0.48
  -4   6   0    1.11    0.49
  -4   6   0    1.64    0.73
   3  -6   0    0.50    0.42
  -3   6   0    0.00    0.31
  -3   6   0   -0.26    0.44
   2  -6   0    4.77    0.74
  -2   6   0    4.88    0.85
  -2   6   0    4.03    0.61
   1  -6   0    3.54    0.54
   1  -6   0    2.06    0.42
  -1   6   0    1.82    0.53
  -1   6   0    2.18    0.43
   0  -6   0    1.32    0.28
   0   6   0    0.77    0.35
   0   6   0    0.84    0.25
  -1  -6   0    0.07    0.12
   1   6   0    0.19    0.16
   1   6   0    0.05    0.25
   2   6   0    1.40    0.29
   2   6   0    1.82    0.29
   4   6   0   11.99    0.75
   4   6   0   12.88    0.75
   5   6   0   25.34    1.51
   6   6   0    1.51    0.40
   7   6   0   11.95    1.07
   8   6   0   11.21    1.25
   9   6   0    0.61    0.57
  10   6   0    0.92    0.64
  11   6   0    9.01    1.45
  -6   7   0    0.25    0.65
  -5   7   0    9.77    1.55
  -4   7   0    9.56    1.40
  -4   7   0    8.22    1.08
  -3   7   0    0.30    0.48
  -3   7   0    0.30    0.36
  -2   7   0    3.62    0.78
  -2   7   0    1.96    0.51
  -1   7   0    0.47    0.43
  -1   7   0    0.47    0.30
   0  -7   0    7.92    0.95
   0   7   0    7.66    0.66
   0   7   0    7.01    0.87
   1   7   0   32.74    1.84
   1   7   0   33.93    2.00
   2   7   0    0.07    0.20
   7   7   0   16.33    1.24
   8   7   0   11.43    1.19
   9   7   0    3.86    0.82
  10   7   0    4.85    1.00
  -5   8   0    1.36    0.86
  -4   8   0    3.47    0.95
  -3   8   0    6.99    1.19
  -3   8   0    6.17    0.89
  -2   8   0    5.90    0.82
  -2   8   0    5.30    1.00
  -1   8   0    0.23    0.31
  -1   8   0    0.28    0.46
   0   8   0    2.95    0.61
   0   8   0    2.37    0.44
   1   8   0   29.58    1.88
  -4   9   0    4.23    1.14
  -3   9   0    7.66    1.33
  -2   9   0    8.32    1.29
  -1   9   0    4.07    0.85
   0   9   0    7.05    0.95
   1   9   0    8.40    0.94
  -1  10   0    5.82    1.08
   1   9  -1    0.27    0.46
   0   9  -1    9.10    1.15
  -1   9  -1    0.05    0.52
  -2   9  -1   14.21    1.74
  -3   9  -1    1.93    0.92
   2   8  -1   28.25    1.75
   1   8  -1   30.20    1.96
   0   8  -1    0.26    0.31
   0   8  -1   -0.22    0.38
  -1   8  -1   13.75    1.48
  -1   8  -1   11.93    1.05
  -2   8  -1    4.07    0.91
  -2   8  -1    3.78    0.68
  -3   8  -1    6.61    1.39
  -3   8  -1    5.34    1.13
  -4   8  -1    1.88    0.93
  -5   8  -1    2.83    1.12
  10   7  -1   22.02    1.96
   9   7  -1    0.43    0.54
   8   7  -1    6.13    0.90
   7   7  -1    7.77    0.90
   6   7  -1    0.77    0.36
   3   7  -1    1.72    0.32
   2   7  -1    4.93    0.57
   2   7  -1    3.79    0.34
   1   7  -1    0.47    0.21
   1   7  -1    0.59    0.35
   0   7  -1    1.15    0.40
  -1   7  -1   11.14    0.96
  -1   7  -1   11.56    1.27
  -2   7  -1    4.40    0.67
  -2   7  -1    3.59    0.83
  -3   7  -1    4.08    0.96
  -3   7  -1    4.88    0.79
  -4   7  -1    4.93    1.11
  -5   7  -1   -0.41    0.60
  -6   7  -1    8.46    1.62
  11   6  -1   12.86    1.72
  10   6  -1    4.09    0.94
   9   6  -1    0.38    0.50
   8   6  -1   17.85    1.52
   7   6  -1    6.52    0.87
   6   6  -1    1.78    0.32
   6   6  -1    1.84    0.45
   5   6  -1    8.35    0.72
   5   6  -1    8.06    0.54
   5   6  -1    8.44    0.53
   4   6  -1    5.77    0.55
   3   6  -1   -0.15    0.20
   2   6  -1   12.96    0.95
   2   6  -1   14.58    0.82
   1   6  -1    6.83    0.71
  -1  -6   1    5.01    0.48
   0   6  -1   70.11    3.92
   0   6  -1   67.54    3.71
   0  -6   1   69.66    3.70
   1  -6   1    1.04    0.34
  -2   6  -1    0.19    0.44
  -2   6  -1    0.52    0.34
  -3   6  -1    7.25    1.11
  -3   6  -1    7.87    0.96
  -4   6  -1    4.63    1.04
  -4   6  -1    4.87    0.81
  -5   6  -1    6.12    1.26
  -6   6  -1   17.44    2.17
  -7   6  -1    0.06    0.77
  11   5  -1    5.36    1.26
  10   5  -1    0.85    0.69
   9   5  -1    3.75    0.87
   8   5  -1    7.34    1.06
   7   5  -1   46.24    2.87
   6   5  -1    2.43    0.54
   6   5  -1    2.43    0.39
  -6  -5   1    2.25    0.39
   5   5  -1   12.84    0.99
   5   5  -1   12.90    0.84
   4   5  -1    3.87    0.47
   4   5  -1    3.49    0.35
   4   5  -1    3.84    0.33
   3   5  -1   25.88    1.40
   3   5  -1   25.62    1.52
   3   5  -1   27.70    1.41
   3   5  -1   26.59    1.56
   2   5  -1    3.40    0.31
   2   5  -1    4.10    0.48
   2   5  -1    3.15    0.42
   1   5  -1   18.55    1.11
   1   5  -1   18.38    1.23
  -1  -5   1   19.74    1.10
   0   5  -1    6.03    0.74
   0   5  -1    5.10    0.56
   0  -5   1    5.92    0.59
   0  -5   1    6.62    0.60
  -1   5  -1    9.86    1.06
  -1   5  -1    8.75    0.77
   1  -5   1    9.78    0.82
   1  -5   1    8.29    0.74
  -2   5  -1   21.39    1.43
  -2   5  -1   24.32    1.71
   2  -5   1   17.31    1.44
  -3   5  -1   56.06    3.49
  -3   5  -1   55.25    3.24
   3  -5   1   55.19    3.34
  -4   5  -1    4.24    0.94
  -4   5  -1    3.17    0.64
   4  -5   1    3.81    0.76
  -5   5  -1    2.35    0.67
  -5   5  -1    2.53    0.84
   5  -5   1    4.18    0.87
  -6   5  -1    9.18    1.47
   6  -5   1    7.92    1.32
  -7   5  -1   -0.06    0.61
   7  -5   1   -0.36    0.48
  -8   5  -1    5.79    1.32
   8  -5   1    3.64    1.12
  11   4  -1    1.30    0.82
  10   4  -1    2.37    0.81
   9   4  -1    8.77    1.35
   8   4  -1    2.19    0.67
  -8  -4   1    1.53    0.68
   7   4  -1    0.51    0.34
   7   4  -1    0.76    0.45
  -7  -4   1    0.04    0.26
   6   4  -1   30.21    1.96
   6   4  -1   28.78    1.75
  -6  -4   1   29.44    1.75
  -6  -4   1   27.49    1.84
   5   4  -1    4.33    0.61
   5   4  -1    4.53    0.50
  -5  -4   1    4.93    0.53
   4   4  -1    6.38    0.49
   4   4  -1    6.39    0.61
   3   4  -1   32.94    1.95
   3   4  -1   37.15    1.98
   3   4  -1   35.21    1.86
   3   4  -1   34.82    1.86
   2   4  -1    0.05    0.11
   2   4  -1    0.04    0.17
   2   4  -1    0.04    0.12
   2   4  -1   -0.13    0.14
   1   4  -1   79.96    4.11
   1   4  -1   72.77    4.01
   1   4  -1   82.25    4.11
  -1  -4   1   76.29    4.00
   0   4  -1   35.07    1.87
   0   4  -1   31.86    1.97
   0  -4   1   33.88    1.87
   0  -4   1   33.03    1.88
  -1   4  -1   21.81    1.34
  -1   4  -1   19.38    1.46
   1  -4   1   21.22    1.38
   1  -4   1   23.06    1.35
  -2   4  -1   10.59    0.96
  -2   4  -1   16.01    1.27
   2  -4   1   14.39    1.09
   2  -4   1   14.06    1.00
  -3   4  -1    0.56    0.42
  -3   4  -1    0.13    0.30
   3  -4   1   -0.07    0.30
  -4   4  -1    6.13    0.85
  -4   4  -1    5.94    1.02
   4  -4   1    6.70    0.95
  -5   4  -1   24.78    1.89
  -5   4  -1   26.49    2.17
   5  -4   1   30.93    2.17
  -6   4  -1    2.05    0.74
  -6   4  -1    2.15    0.66
   6  -4   1    2.00    0.72
  -7   4  -1    0.71    0.67
   7  -4   1    1.12    0.68
  -8   4  -1    2.17    0.96
   8  -4   1    6.99    1.36
  -9   4  -1   -0.15    0.77
   9  -4   1    0.23    0.78
  11   3  -1    0.11    0.68
  10   3  -1   13.00    1.76
   9   3  -1    0.82    0.65
  -9  -3   1    2.21    0.64
   8   3  -1   12.22    1.41
  -8  -3   1   11.84    1.22
  -8  -3   1   11.94    1.44
   7   3  -1   35.81    2.42
  -7  -3   1   34.33    2.23
  -7  -3   1   38.05    2.46
   6   3  -1    8.96    0.78
   6   3  -1    8.62    0.98
  -6  -3   1    6.89    0.92
  -6  -3   1    8.17    0.84
   5   3  -1   46.80    2.85
   5   3  -1   48.86    2.72
  -5  -3   1   49.96    2.86
  -5  -3   1   50.67    2.72
   4   3  -1  124.54    6.39
   4   3  -1  118.70    6.27
  -4  -3   1  123.92    6.35
  -4  -3   1  119.90    6.27
   3   3  -1    6.95    0.58
   3   3  -1    5.99    0.55
   3   3  -1    7.39    0.50
   2   3  -1   75.34    4.04
   2   3  -1   74.88    4.10
   2   3  -1   83.13    4.13
   2   3  -1   82.36    4.05
   1   3  -1   12.18    0.73
   1   3  -1   12.82    0.79
   1   3  -1   11.19    0.79
   1   3  -1   13.84    0.84
  -1  -3   1   11.31    0.72
  -1  -3   1   12.71    0.73
   0   3  -1   80.32    4.22
   0   3  -1   79.09    4.13
   0   3  -1   83.31    4.21
   0  -3   1   75.53    4.12
   0  -3   1   79.52    4.15
  -1   3  -1   12.18    0.97
  -1   3  -1   11.52    0.84
   1  -3   1   13.51    0.91
   1  -3   1   12.71    0.84
  -2   3  -1    3.68    0.61
  -2   3  -1    2.65    0.44
   2  -3   1    2.43    0.46
   2  -3   1    2.92    0.42
  -3   3  -1   13.60    1.06
  -3   3  -1   12.36    1.20
   3  -3   1   12.65    1.10
   3  -3   1   16.53    1.08
  -4   3  -1   12.13    1.01
  -4   3  -1   11.67    1.29
   4  -3   1    9.95    1.16
  -5   3  -1   20.68    1.54
  -5   3  -1   21.01    1.78
   5  -3   1   20.56    1.70
  -6   3  -1    4.88    1.07
  -6   3  -1    4.06    0.80
   6  -3   1    3.88    0.85
  -7   3  -1    0.29    0.64
  -7   3  -1    0.38    0.49
   7  -3   1   -0.57    0.37
  -8   3  -1   -0.12    0.65
   8  -3   1   -0.41    0.62
  -9   3  -1    1.17    0.79
   9  -3   1    0.88    0.83
  11   2  -1    1.04    0.87
  10   2  -1   14.60    1.93
 -10  -2   1   13.54    1.58
   9   2  -1    0.29    0.58
  -9  -2   1   -0.28    0.35
  -9  -2   1   -0.18    0.57
   8   2  -1    0.14    0.39
  -8  -2   1    0.36    0.37
  -8  -2   1    0.25    0.48
   7   2  -1   84.67    4.90
   7   2  -1   85.51    4.70
  -7  -2   1   89.62    4.72
  -7  -2   1   77.97    4.89
   6   2  -1    4.86    0.76
   6   2  -1    6.31    0.73
  -6  -2   1    5.33    0.71
  -6  -2   1    6.72    0.93
   5   2  -1   51.41    2.96
   5   2  -1   55.54    3.11
  -5  -2   1   51.44    2.96
  -5  -2   1   55.54    3.13
   4   2  -1    3.44    0.44
   4   2  -1    4.28    0.55
  -4  -2   1    4.14    0.58
  -4  -2   1    3.89    0.47
   3   2  -1    3.15    0.37
   3   2  -1    4.51    0.52
   3   2  -1    4.13    0.49
  -3  -2   1    3.52    0.45
  -3  -2   1    4.29    0.41
   2   2  -1   14.53    0.79
   2   2  -1   12.74    0.83
   2   2  -1   13.41    0.87
  -2  -2   1   11.68    0.77
  -2  -2   1   14.00    0.83
   1   2  -1    7.99    0.57
   1   2  -1    7.78    0.52
   1   2  -1    7.50    0.56
  -1  -2   1    7.83    0.53
  -1  -2   1    9.36    0.52
  -1  -2   1    8.87    0.52
   0   2  -1   12.64    0.85
   0   2  -1   12.09    0.77
   0   2  -1   14.53    0.85
   0  -2   1   12.70    0.81
   0  -2   1   13.16    0.78
   0  -2   1   12.64    0.83
  -1   2  -1   14.81    0.92
  -1   2  -1   11.73    0.81
  -1   2  -1   13.45    0.92
   1  -2   1   12.99    0.88
   1  -2   1   11.43    0.80
  -2   2  -1   44.90    2.51
  -2   2  -1   44.22    2.65
   2  -2   1   46.02    2.50
   2  -2   1   46.22    2.61
  -3   2  -1   24.80    1.73
  -3   2  -1   24.82    1.56
   3  -2   1   23.81    1.54
   3  -2   1   24.39    1.62
  -4   2  -1   19.39    1.50
  -4   2  -1   18.20    1.32
   4  -2   1   16.75    1.28
   4  -2   1   20.21    1.46
  -5   2  -1   -0.01    0.46
  -5   2  -1    1.22    0.44
   5  -2   1    0.86    0.53
  -6   2  -1   15.85    1.35
  -6   2  -1   15.48    1.79
   6  -2   1   16.74    1.50
  -7   2  -1   18.75    1.57
  -7   2  -1   20.72    2.16
   7  -2   1   17.15    1.69
  -8   2  -1   -0.04    0.55
  -8   2  -1   -0.41    0.39
   8  -2   1    0.80    0.69
  -9   2  -1    8.95    1.67
   9  -2   1   10.80    1.64
 -10   2  -1    2.21    1.10
  10  -2   1    0.81    0.79
  11   1  -1    3.07    1.05
  10   1  -1    2.61    0.94
 -10  -1   1    1.63    0.85
 -10  -1   1    1.04    0.62
   9   1  -1    2.14    0.77
  -9  -1   1    3.34    0.93
  -9  -1   1    2.35    0.64
   8   1  -1    3.34    0.78
  -8  -1   1    5.22    1.04
   7   1  -1    9.29    1.23
  -7  -1   1    8.69    1.20
  -7  -1   1    8.21    1.00
   6   1  -1   10.75    0.94
   6   1  -1    9.92    1.15
  -6  -1   1    9.52    1.01
  -6  -1   1   11.25    1.25
   5   1  -1  137.24    6.79
   5   1  -1  126.62    6.91
  -5  -1   1  125.97    6.95
  -5  -1   1  124.67    6.77
   4   1  -1   16.96    1.07
   4   1  -1   15.23    1.15
  -4  -1   1   16.36    1.20
  -4  -1   1   15.14    1.07
   3   1  -1   15.20    0.97
   3   1  -1   17.06    1.06
   3   1  -1   15.32    1.06
  -3  -1   1   16.87    1.09
  -3  -1   1   13.90    0.96
   2   1  -1    5.20    0.50
   2   1  -1    6.36    0.46
   2   1  -1    6.38    0.55
  -2  -1   1    6.44    0.54
  -2  -1   1    6.75    0.48
  -2  -1   1    5.39    0.45
   1   1  -1    6.02    0.47
   1   1  -1    5.45    0.41
   1   1  -1    5.17    0.43
  -1  -1   1    6.43    0.43
  -1  -1   1    5.38    0.45
   0   1  -1   23.84    1.27
   0   1  -1   22.33    1.31
   0   1  -1   22.89    1.32
   0  -1   1   25.78    1.30
   0  -1   1   24.82    1.32
   0  -1   1   21.43    1.26
  -1   1  -1   27.83    1.61
  -1   1  -1   29.75    1.65
  -1   1  -1   28.34    1.56
   1  -1   1   27.23    1.55
   1  -1   1   28.07    1.63
   1  -1   1   28.30    1.61
  -2   1  -1  123.36    6.92
  -2   1  -1  139.28    6.82
   2  -1   1  133.21    6.81
   2  -1   1  133.12    6.89
  -3   1  -1  316.20   16.10
  -3   1  -1  310.43   16.26
   3  -1   1  321.88   16.10
   3  -1   1  317.49   16.20
  -4   1  -1    0.68    0.40
  -4   1  -1   -0.05    0.21
   4  -1   1   -0.03    0.25
   4  -1   1    0.22    0.26
  -5   1  -1   14.74    1.23
  -5   1  -1   16.35    1.42
   5  -1   1   15.41    1.34
   5  -1   1   20.89    1.42
  -6   1  -1   50.20    3.38
  -6   1  -1   56.57    3.19
   6  -1   1   50.51    3.32
  -7   1  -1   -0.21    0.34
  -7   1  -1    0.71    0.57
   7  -1   1    0.19    0.47
  -8   1  -1   -0.03    0.64
  -8   1  -1    0.09    0.43
   8  -1   1    0.05    0.57
  -9   1  -1    4.03    1.11
   9  -1   1    7.85    1.31
 -10   1  -1    0.66    0.88
  10  -1   1    0.03    0.71
  11   0  -1    0.32    0.81
 -11   0   1    0.46    0.93
  10   0  -1    3.95    1.09
 -10   0   1    3.07    1.04
   9   0  -1    7.92    1.38
  -9   0   1   10.51    1.31
  -9   0   1    7.87    1.44
   8   0  -1    0.43    0.50
  -8   0   1   -0.48    0.49
  -8   0   1    0.19    0.42
   7   0  -1    0.24    0.45
  -7   0   1    0.06    0.34
  -7   0   1    0.42    0.56
   6   0  -1   33.39    2.30
   6   0  -1   30.59    2.42
  -6   0   1   34.29    2.38
  -6   0   1   33.13    2.11
   5   0  -1   22.97    1.54
   5   0  -1   24.42    1.70
  -5   0   1   23.62    1.76
  -5   0   1   23.96    1.59
  -4   0   1    1.52    0.46
   3   0  -1   22.95    1.50
   3   0  -1   23.26    1.42
  -3   0   1   24.92    1.57
  -3   0   1   24.54    1.44
   2   0  -1    0.26    0.20
   2   0  -1   -0.10    0.21
   2   0  -1    0.36    0.24
  -2   0   1   -0.23    0.17
  -2   0   1   -0.04    0.18
  -2   0   1    0.15    0.27
   1   0  -1    0.66    0.14
   1   0  -1    0.68    0.16
   1   0  -1    0.65    0.18
  -1   0   1    0.71    0.15
  -1   0   1    0.87    0.19
  -1   0   1    0.85    0.18
   0   0  -1   85.62    4.00
   0   0  -1   85.32    4.03
   0   0  -1   70.23    4.02
   0   0   1   85.00    4.04
   0   0   1   64.65    4.01
  -1   0  -1   12.65    0.84
  -1   0  -1   14.53    0.83
  -1   0  -1   12.18    0.77
   1   0   1   11.82    0.83
   1   0   1   13.96    0.83
   1   0   1   13.56    0.78
  -2   0  -1    8.94    0.61
  -2   0  -1    7.95    0.70
   2   0   1    8.99    0.68
   2   0   1    8.30    0.71
   2   0   1    8.89    0.62
  -3   0  -1   93.64    4.67
  -3   0  -1   99.75    4.84
   3   0   1   78.14    4.63
   3   0   1   83.88    4.73
  -4   0  -1    0.66    0.39
  -4   0  -1    0.74    0.30
   4   0   1   -0.06    0.25
   4   0   1    0.21    0.27
  -5   0  -1    3.94    0.73
  -5   0  -1    5.51    0.70
   5   0   1    5.13    0.76
  -6   0  -1    3.96    0.86
  -6   0  -1    3.79    0.64
   6   0   1    3.86    0.79
  -7   0  -1   20.17    1.62
  -7   0  -1   20.79    1.87
   7   0   1   23.68    1.81
  -8   0  -1   16.79    1.47
  -8   0  -1   17.39    1.92
   8   0   1   16.03    1.83
  -9   0  -1   14.57    1.92
  -9   0  -1   16.00    1.71
   9   0   1   17.05    1.94
 -10   0  -1    2.19    0.98
  10   0   1    3.76    1.00
 -11   0  -1   12.01    2.01
  11   0   1   10.82    1.85
  11  -1  -1    2.57    1.19
 -11   1   1    1.47    1.13
  10  -1  -1    0.68    0.75
 -10   1   1   -0.35    0.64
   9  -1  -1    6.94    1.26
  -9   1   1    7.17    1.38
  -9   1   1    5.43    1.01
   8  -1  -1    2.28    0.75
  -8   1   1    3.13    0.74
  -8   1   1    2.08    0.78
   7  -1  -1   18.50    1.77
  -7   1   1   24.72    2.03
  -7   1   1   22.88    1.71
   6  -1  -1   37.95    2.64
  -6   1   1   40.99    2.76
  -6   1   1   37.92    2.44
   5  -1  -1    1.09    0.39
   4  -1  -1   66.28    3.88
   4  -1  -1   72.56    3.77
  -4   1   1   63.57    3.76
  -4   1   1   71.86    3.96
   3  -1  -1  118.29    5.93
   3  -1  -1  113.16    6.03
  -3   1   1  109.74    5.94
  -3   1   1  112.31    6.06
   2  -1  -1    1.65    0.35
   2  -1  -1    1.51    0.28
  -2   1   1    2.29    0.40
  -2   1   1    1.32    0.27
   1  -1  -1    7.52    0.53
   1  -1  -1    8.37    0.58
   1  -1  -1    7.36    0.57
  -1   1   1    8.25    0.56
  -1   1   1    7.47    0.53
  -1   1   1    8.05    0.61
   0  -1  -1   20.34    1.12
   0  -1  -1   21.30    1.11
   0  -1  -1   20.69    1.08
   0   1   1   20.06    1.12
   0   1   1   20.97    1.12
   0   1   1   18.49    1.08
  -1  -1  -1   66.66    3.52
  -1  -1  -1   71.20    3.56
  -1  -1  -1   67.08    3.55
   1   1   1   68.87    3.52
   1   1   1   67.10    3.56
   1   1   1   69.82    3.56
   1   1   1   72.83    3.55
  -2  -1  -1   17.74    1.12
  -2  -1  -1   18.97    1.09
  -2  -1  -1   19.31    1.17
   2   1   1   20.32    1.15
   2   1   1   19.28    1.08
   2   1   1   18.44    1.16
  -3  -1  -1    4.97    0.53
  -3  -1  -1    5.42    0.61
   3   1   1    5.37    0.48
   3   1   1    6.16    0.54
  -4  -1  -1    4.60    0.55
  -4  -1  -1    6.40    0.76
   4   1   1    6.94    0.67
   4   1   1    5.17    0.65
  -5  -1  -1   14.92    1.11
  -5  -1  -1   14.43    1.23
   5   1   1   17.01    1.15
   5   1   1   15.14    1.20
  -6  -1  -1    5.20    0.70
  -6  -1  -1    5.41    0.87
   6   1   1    6.47    0.81
   6   1   1    5.73    0.85
  -7  -1  -1   23.41    1.70
  -7  -1  -1   26.85    2.00
   7   1   1   22.02    1.82
  -8  -1  -1   19.74    1.61
  -8  -1  -1   21.84    1.89
   8   1   1   20.70    1.82
  -9  -1  -1    1.81    0.64
  -9  -1  -1    1.38    0.75
   9   1   1    1.14    0.64
 -10  -1  -1    4.31    0.87
 -10  -1  -1    3.91    1.10
  10   1   1    1.81    0.83
 -11  -1  -1    3.33    1.11
  11   1   1    1.80    0.96
  10  -2  -1    4.54    1.32
 -10   2   1    7.34    1.61
   9  -2  -1    1.65    0.81
  -9   2   1    1.43    0.82
   8  -2  -1    4.56    1.01
  -8   2   1    5.46    1.18
  -8   2   1    5.58    1.00
   7  -2  -1   86.72    5.25
  -7   2   1   89.66    5.03
  -7   2   1   84.53    5.33
   6  -2  -1   21.63    1.75
  -6   2   1   19.00    1.53
  -6   2   1   19.95    1.83
   5  -2  -1    0.96    0.50
  -5   2   1   -0.27    0.30
  -5   2   1    0.82    0.50
   3  -2  -1   31.15    1.84
   3  -2  -1   24.98    1.67
  -3   2   1   29.73    1.87
  -3   2   1   27.36    1.71
   2  -2  -1   10.88    0.85
   2  -2  -1   11.17    0.77
  -2   2   1    9.70    0.76
  -2   2   1   11.75    0.90
   1  -2  -1    1.92    0.26
   1  -2  -1    2.36    0.35
  -1   2   1    1.98    0.35
  -1   2   1    2.37    0.34
  -1   2   1    1.90    0.29
   0  -2  -1   48.45    2.64
   0  -2  -1   51.85    2.64
   0  -2  -1   49.91    2.61
   0   2   1   48.30    2.65
   0   2   1   49.09    2.61
   0   2   1   53.85    2.66
  -1  -2  -1   28.92    1.54
  -1  -2  -1   31.43    1.56
  -1  -2  -1   28.94    1.55
   1   2   1   30.16    1.58
   1   2   1   28.24    1.57
   1   2   1   31.84    1.55
  -2  -2  -1    2.15    0.25
  -2  -2  -1    2.23    0.27
  -2  -2  -1    2.59    0.25
  -2  -2  -1    3.08    0.31
   2   2   1    2.19    0.27
   2   2   1    2.28    0.29
   2   2   1    2.65    0.25
  -3  -2  -1    8.91    0.69
  -3  -2  -1    9.10    0.63
   3   2   1    9.04    0.63
   3   2   1    9.77    0.72
   3   2   1    9.00    0.68
  -4  -2  -1    0.75    0.24
  -4  -2  -1    0.67    0.31
   4   2   1    1.01    0.30
   4   2   1    0.91    0.26
  -5  -2  -1    0.16    0.30
  -5  -2  -1    0.07    0.20
   5   2   1    0.13    0.20
   5   2   1    0.10    0.25
  -6  -2  -1   11.10    1.06
  -6  -2  -1   10.10    1.13
   6   2   1   11.12    1.19
   6   2   1   10.42    1.05
  -7  -2  -1   44.05    2.91
  -7  -2  -1   46.93    2.72
   7   2   1   43.31    2.87
   7   2   1   42.95    2.80
  -8  -2  -1    3.23    0.66
  -8  -2  -1    2.79    0.80
   8   2   1    2.24    0.70
  -9  -2  -1   31.68    2.12
  -9  -2  -1   27.56    2.32
   9   2   1   24.64    2.21
 -10  -2  -1    8.75    1.23
 -10  -2  -1    8.87    1.47
  10   2   1    8.35    1.40
  11   2   1    0.55    0.73
  10  -3  -1   21.38    2.69
 -10   3   1   18.55    2.61
   9  -3  -1   -0.60    0.50
  -9   3   1    0.73    0.77
   8  -3  -1    4.26    1.04
  -8   3   1    4.35    1.22
   7  -3  -1    0.93    0.61
  -7   3   1    1.35    0.60
  -7   3   1    1.08    0.72
   6  -3  -1    1.31    0.60
  -6   3   1    0.09    0.39
  -6   3   1   -0.20    0.52
   5  -3  -1   10.65    1.28
  -5   3   1   10.86    1.18
  -5   3   1   12.93    1.47
   4  -3  -1    6.98    0.87
   4  -3  -1    6.82    0.92
  -4   3   1    6.89    1.00
  -4   3   1    7.35    0.87
   3  -3  -1    3.82    0.53
   3  -3  -1    2.93    0.56
  -3   3   1    4.25    0.72
  -3   3   1    3.88    0.57
   2  -3  -1   46.37    2.61
   2  -3  -1   46.45    2.53
  -2   3   1   43.68    2.65
  -2   3   1   43.74    2.52
   1  -3  -1  127.44    5.93
   1  -3  -1  111.51    5.99
  -1   3   1  109.88    6.01
  -1   3   1  110.24    5.92
  -1   3   1  114.19    6.17
   0  -3  -1    0.08    0.14
   0  -3  -1   -0.16    0.13
   0  -3  -1    0.03    0.11
   0   3   1   -0.01    0.15
   0   3   1    0.00    0.11
   0   3   1   -0.18    0.11
  -1  -3  -1  171.72    8.96
   1   3   1  175.73    8.98
   1   3   1  175.36    9.01
   1   3   1  193.14    9.01
   2   3   1    4.47    0.27
   2   3   1    3.75    0.29
   2   3   1    3.96    0.30
  -3  -3  -1    3.32    0.31
  -3  -3  -1    3.19    0.34
   3   3   1    2.74    0.34
   3   3   1    3.28    0.31
   3   3   1    3.00    0.37
  -4  -3  -1  112.89    6.05
  -4  -3  -1  116.37    5.99
   4   3   1  121.56    6.08
   4   3   1  113.99    5.99
  -5  -3  -1   16.96    1.26
  -5  -3  -1   18.14    1.17
   5   3   1   19.42    1.27
   5   3   1   16.75    1.16
  -6  -3  -1   98.83    4.94
  -6  -3  -1   95.57    5.09
   6   3   1   90.98    5.05
   6   3   1   80.73    4.88
  -7  -3  -1   24.69    1.72
  -7  -3  -1   26.05    1.92
   7   3   1   27.13    1.90
   7   3   1   25.77    1.73
  -8  -3  -1    2.64    0.59
  -8  -3  -1    0.86    0.59
   8   3   1    1.59    0.58
  -9  -3  -1   30.62    2.34
  -9  -3  -1   26.33    1.99
   9   3   1   28.33    2.24
  10   3   1    4.97    1.08
  11   3   1    1.23    0.75
   9  -4  -1    3.68    1.23
  -9   4   1    3.11    1.21
   8  -4  -1    6.59    1.38
  -8   4   1    7.69    1.49
   7  -4  -1    0.77    0.61
  -7   4   1    0.14    0.38
  -7   4   1    0.35    0.72
   6  -4  -1    5.12    0.98
  -6   4   1    6.57    0.97
  -6   4   1    4.61    1.08
   5  -4  -1    2.45    0.67
  -5   4   1    1.15    0.48
  -5   4   1    1.21    0.62
   4  -4  -1    0.88    0.50
  -4   4   1    1.18    0.56
  -4   4   1    1.21    0.41
   3  -4  -1    0.25    0.30
   3  -4  -1    0.26    0.29
  -3   4   1   -0.01    0.35
  -3   4   1    0.27    0.26
   2  -4  -1   55.13    3.24
   2  -4  -1   60.62    3.39
  -2   4   1   61.82    3.47
  -2   4   1   61.18    3.30
   1  -4  -1   50.10    2.84
   1  -4  -1   52.01    2.75
  -1   4   1   50.45    2.77
  -1   4   1   49.82    2.88
   0  -4  -1  159.40    8.17
   0  -4  -1  162.15    8.12
   0   4   1  163.24    8.21
   0   4   1  154.26    8.14
   0   4   1  161.27    8.23
  -1  -4  -1   50.36    2.62
   1   4   1   50.57    2.65
   1   4   1   52.16    2.70
   1   4   1   53.81    2.70
   3   4   1   11.05    0.67
   3   4   1   10.92    0.69
   3   4   1   11.62    0.64
  -4  -4  -1    2.33    0.28
   4   4   1    1.75    0.31
   4   4   1    2.11    0.40
   4   4   1    2.29    0.27
  -5  -4  -1    1.49    0.29
  -5  -4  -1    0.82    0.32
   5   4   1    0.82    0.29
   5   4   1    1.36    0.28
  -6  -4  -1   22.49    1.46
  -6  -4  -1   20.76    1.36
   6   4   1   19.71    1.45
   6   4   1   20.11    1.33
  -7  -4  -1    7.23    0.81
  -7  -4  -1    8.70    0.98
   7   4   1    6.61    0.90
   7   4   1    5.88    0.73
  -8  -4  -1   22.80    1.66
   8   4   1   24.98    1.88
   9   4   1    5.89    1.05
  10   4   1    6.13    1.15
  11   4   1    0.36    0.63
   8  -5  -1    0.67    0.80
  -8   5   1    1.22    0.88
   7  -5  -1    2.72    0.96
  -7   5   1    0.67    0.73
   6  -5  -1    0.87    0.61
  -6   5   1    0.73    0.63
  -6   5   1    1.19    0.53
   5  -5  -1    9.89    1.30
  -5   5   1    7.10    1.18
  -5   5   1    9.09    1.13
   4  -5  -1    3.72    0.77
  -4   5   1    2.88    0.83
  -4   5   1    2.96    0.62
   3  -5  -1   59.53    3.52
  -3   5   1   60.31    3.41
  -3   5   1   56.10    3.59
   2  -5  -1    7.43    0.79
   2  -5  -1    7.08    0.89
  -2   5   1    8.56    0.86
  -2   5   1    8.34    0.99
   1  -5  -1   13.82    0.93
   1  -5  -1   13.25    1.01
  -1   5   1   13.16    1.07
  -1   5   1   13.12    0.95
   0  -5  -1   26.31    1.55
   0  -5  -1   28.16    1.59
   0   5   1   28.51    1.70
   0   5   1   28.28    1.58
  -1  -5  -1   45.34    2.34
   1   5   1   44.06    2.37
   1   5   1   47.08    2.46
   1   5   1   45.91    2.44
   2   5   1   16.87    0.91
   4   5   1    3.50    0.29
   4   5   1    3.67    0.37
   4   5   1    3.23    0.38
  -5  -5  -1    0.18    0.16
   5   5   1    0.49    0.18
   5   5   1    0.42    0.23
  -6  -5  -1   14.76    0.96
   6   5   1   13.46    1.08
   6   5   1   14.05    0.96
  -7  -5  -1    0.14    0.22
   7   5   1   -0.24    0.21
   7   5   1    0.18    0.29
   8   5   1   12.14    1.30
   9   5   1    8.63    1.20
  10   5   1    0.21    0.50
  11   5   1    8.86    1.42
  -8   6   1    1.01    0.97
   7  -6  -1   -0.04    0.77
  -7   6   1    1.08    0.95
   6  -6  -1   10.29    1.56
  -6   6   1   11.43    1.74
   5  -6  -1    3.15    0.84
  -5   6   1    2.86    0.71
  -5   6   1    2.70    0.87
   4  -6  -1   28.46    2.32
  -4   6   1   36.65    2.26
  -4   6   1   33.22    2.49
   3  -6  -1   12.98    1.35
  -3   6   1   10.75    1.34
  -3   6   1   11.17    1.15
   2  -6  -1    2.18    0.54
  -2   6   1    1.56    0.57
  -2   6   1    0.65    0.36
   1  -6  -1   18.21    1.13
   1  -6  -1   15.45    1.19
  -1   6   1   16.51    1.33
  -1   6   1   15.95    1.15
   1   6   1    2.54    0.39
   2   6   1   12.07    0.73
   2   6   1   12.38    0.75
   5   6   1    0.90    0.25
   5   6   1    0.56    0.14
   6   6   1    2.29    0.42
   6   6   1    1.50    0.28
   7   6   1   43.86    2.64
   8   6   1    0.49    0.43
   9   6   1    1.37    0.55
  10   6   1    5.26    1.01
  11   6   1    4.09    1.04
  -7   7   1    0.45    0.89
  -6   7   1    1.35    0.93
  -5   7   1    2.50    0.92
  -4   7   1    0.31    0.46
  -4   7   1    0.70    0.63
  -3   7   1    2.46    0.75
  -3   7   1    3.32    0.65
  -2   7   1   20.39    1.78
  -2   7   1   25.14    1.62
   1  -7  -1   15.30    1.06
  -1   7   1   14.31    1.09
  -1   7   1   14.89    1.29
   0  -7  -1    0.48    0.21
   0   7   1    0.31    0.23
   0   7   1    0.08    0.33
   2   7   1   38.94    2.12
   6   7   1   41.98    2.38
   7   7   1    4.10    0.63
   8   7   1   12.76    1.18
   9   7   1    6.46    1.01
  10   7   1   10.91    1.43
  11   7   1    1.96    0.86
  -5   8   1   10.66    1.77
  -4   8   1    3.34    0.98
  -3   8   1    0.31    0.40
  -3   8   1   -0.44    0.52
  -2   8   1   21.57    1.58
  -2   8   1   23.05    1.89
  -1   8   1    4.89    0.86
  -1   8   1    4.14    0.61
   0   8   1    1.05    0.31
   0   8   1    0.59    0.41
   1   8   1  107.47    5.54
   1   8   1  107.84    5.76
  -4   9   1    0.10    0.74
  -3   9   1    9.62    1.54
  -2   9   1    9.33    1.45
  -2   9   1   10.59    1.44
  -1   9   1   -0.08    0.49
   0   9   1    5.27    0.86
   1   9   1    1.74    0.52
  -2  10   1    2.11    0.91
  -1  10   1    0.79    0.70
   0  10   1    6.04    1.14
   0   9  -2    0.01    0.49
  -1   9  -2    8.68    1.30
  -2   9  -2    2.40    0.88
   2   8  -2   23.29    1.62
   1   8  -2    7.91    1.03
   0   8  -2    0.12    0.43
  -1   8  -2    3.99    0.88
  -2   8  -2   11.46    1.22
  -2   8  -2   12.69    1.59
  -3   8  -2    2.53    0.86
  -4   8  -2   -0.06    0.76
   9   7  -2    0.14    0.57
   8   7  -2    9.71    1.18
   7   7  -2   15.95    1.34
   6   7  -2    1.91    0.50
   5   7  -2   23.33    1.53
   4   7  -2    2.21    0.66
   3   7  -2    1.99    0.45
   2   7  -2    7.44    0.59
   2   7  -2    8.40    0.88
   1   7  -2    0.68    0.27
   1   7  -2    0.25    0.39
   0   7  -2   -0.57    0.22
   0   7  -2    0.43    0.45
  -1   7  -2   15.27    1.61
  -1   7  -2   14.61    1.16
  -2   7  -2    0.77    0.55
  -2   7  -2   -0.03    0.34
  -3   7  -2    0.45    0.40
  -3   7  -2   -0.30    0.51
  -4   7  -2    4.62    1.13
  -5   7  -2    2.25    0.97
  10   6  -2    0.29    0.60
   9   6  -2    0.84    0.63
   8   6  -2    3.26    0.76
   7   6  -2    0.92    0.48
   7   6  -2    0.23    0.45
   5   6  -2   16.34    1.14
   5   6  -2   12.47    0.88
   4   6  -2   35.05    2.04
   4   6  -2   32.48    1.81
   3   6  -2    1.81    0.40
   3   6  -2    1.82    0.27
   3   6  -2    1.47    0.24
   2   6  -2    1.32    0.39
   2   6  -2    1.68    0.28
   1   6  -2    0.27    0.21
   1   6  -2    0.61    0.38
  -1  -6   2   -0.13    0.19
   0   6  -2    0.35    0.39
   0   6  -2    1.09    0.32
   0  -6   2    0.67    0.30
  -1   6  -2   13.22    1.37
  -1   6  -2   11.47    0.97
  -2   6  -2   -0.10    0.31
  -2   6  -2    0.17    0.50
  -3   6  -2    0.08    0.53
  -3   6  -2    0.84    0.41
  -4   6  -2    4.10    0.96
  -4   6  -2    2.92    0.67
  -5   6  -2    7.94    1.44
  -6   6  -2    2.06    0.99
  -7   6  -2    2.98    1.05
  11   5  -2    8.61    1.53
  10   5  -2    2.77    0.95
   9   5  -2    4.29    0.95
   8   5  -2    1.61    0.61
   7   5  -2   10.77    1.23
   6   5  -2    9.03    1.01
   5   5  -2    6.43    0.55
   5   5  -2    6.21    0.61
   5   5  -2    5.23    0.73
   4   5  -2   33.41    1.89
   4   5  -2   32.81    1.86
   4   5  -2   34.79    2.06
   3   5  -2   30.62    1.72
   3   5  -2   32.02    1.88
   3   5  -2   30.20    1.71
   2   5  -2    3.05    0.36
   2   5  -2    2.60    0.48
   1   5  -2    9.93    0.85
   1   5  -2    8.61    0.66
  -1  -5   2    7.24    0.62
   0   5  -2   91.62    4.74
   0   5  -2   89.59    4.93
   0  -5   2   88.56    4.74
   0  -5   2   87.98    4.75
  -1   5  -2   12.60    0.99
  -1   5  -2   13.22    1.22
   1  -5   2   14.55    1.03
   1  -5   2   11.75    1.01
  -2   5  -2    8.67    1.12
  -2   5  -2    8.40    0.90
   2  -5   2    6.50    0.86
  -3   5  -2   18.71    1.74
  -3   5  -2   19.56    1.49
   3  -5   2   22.50    1.63
  -4   5  -2   27.03    2.19
  -4   5  -2   25.85    1.87
   4  -5   2   25.88    1.99
  -5   5  -2   10.73    1.26
  -5   5  -2   10.08    1.49
   5  -5   2    9.61    1.32
  -6   5  -2    5.77    1.26
   6  -5   2    4.00    0.94
  -7   5  -2    2.54    1.05
   7  -5   2    2.57    0.89
  -8   5  -2   13.53    2.04
  11   4  -2    1.19    0.80
  10   4  -2    5.02    1.14
   9   4  -2   16.29    1.85
   8   4  -2    0.02    0.45
   7   4  -2    8.33    1.09
  -7  -4   2    6.77    0.81
   6   4  -2   10.85    0.85
   6   4  -2   11.78    1.19
  -6  -4   2    9.62    0.86
   5   4  -2   -0.01    0.32
   5   4  -2    0.39    0.23
  -5  -4   2   -0.14    0.27
   4   4  -2   63.21    3.55
   4   4  -2   66.60    3.40
   4   4  -2   61.42    3.41
   3   4  -2    5.29    0.50
   3   4  -2    4.60    0.47
   3   4  -2    5.23    0.61
   2   4  -2   25.33    1.54
   2   4  -2   25.50    1.42
   2   4  -2   23.65    1.43
   1   4  -2   65.69    3.47
   1   4  -2   66.31    3.62
  -1  -4   2   63.32    3.46
  -1  -4   2   67.36    3.47
   0   4  -2   46.77    2.77
   0   4  -2   47.70    2.63
   0  -4   2   45.56    2.62
   0  -4   2   50.30    2.66
  -1   4  -2    3.82    0.49
  -1   4  -2    3.31    0.61
   1  -4   2    2.77    0.49
   1  -4   2    4.35    0.56
  -2   4  -2    0.02    0.25
  -2   4  -2   -0.38    0.36
   2  -4   2    0.38    0.32
   2  -4   2    0.45    0.29
  -3   4  -2    0.86    0.55
  -3   4  -2    0.17    0.28
   3  -4   2   -0.06    0.33
  -4   4  -2    0.75    0.52
  -4   4  -2    0.74    0.41
   4  -4   2    0.65    0.45
  -5   4  -2    0.56    0.46
  -5   4  -2   -0.23    0.44
   5  -4   2    0.37    0.43
  -6   4  -2    0.94    0.64
  -6   4  -2    0.95    0.55
   6  -4   2    0.43    0.48
  -7   4  -2    7.23    1.42
   7  -4   2    6.06    1.17
  -8   4  -2    7.49    1.53
   8  -4   2    8.89    1.54
  11   3  -2   -0.50    0.71
  10   3  -2   15.92    1.96
   9   3  -2    5.09    1.06
   8   3  -2    0.00    0.46
  -8  -3   2    0.23    0.35
   7   3  -2    3.86    0.79
  -7  -3   2    5.08    0.70
  -7  -3   2    5.36    0.88
   6   3  -2    0.43    0.44
   6   3  -2    0.31    0.27
  -6  -3   2    0.17    0.40
  -6  -3   2   -0.09    0.26
   5   3  -2   19.13    1.22
   5   3  -2   19.55    1.40
  -5  -3   2   18.24    1.23
  -5  -3   2   16.96    1.33
   4   3  -2  130.49    6.80
   4   3  -2  130.75    6.95
  -4  -3   2  135.73    6.92
  -4  -3   2  129.52    6.81
   3   3  -2    2.14    0.31
   3   3  -2    2.18    0.34
   3   3  -2    1.48    0.36
  -3  -3   2    2.69    0.38
   2   3  -2   54.40    2.61
   2   3  -2   42.93    2.47
   2   3  -2   48.56    2.49
  -2  -3   2   40.14    2.45
   1   3  -2   96.68    4.94
   1   3  -2   88.77    4.81
  -1  -3   2   95.56    4.84
  -1  -3   2   91.35    4.81
   0   3  -2    1.91    0.41
   0   3  -2    1.53    0.29
   0  -3   2    1.49    0.31
   0  -3   2    2.12    0.33
  -1   3  -2    0.17    0.28
  -1   3  -2    0.10    0.19
   1  -3   2   -0.05    0.21
   1  -3   2   -0.07    0.17
  -2   3  -2    3.34    0.51
  -2   3  -2    4.06    0.72
   2  -3   2    4.49    0.64
   2  -3   2    4.36    0.55
  -3   3  -2    0.32    0.39
  -3   3  -2    0.21    0.28
   3  -3   2   -0.41    0.27
   3  -3   2    0.81    0.53
  -4   3  -2   39.78    2.72
  -4   3  -2   36.51    2.37
   4  -3   2   38.07    2.50
  -5   3  -2   23.61    1.75
  -5   3  -2   24.85    2.02
   5  -3   2   22.99    1.84
  -6   3  -2    7.51    1.25
  -6   3  -2    5.89    0.93
   6  -3   2    9.00    1.22
  -7   3  -2    6.00    1.20
  -7   3  -2    6.34    1.02
   7  -3   2    7.48    1.26
  -8   3  -2    3.39    1.14
   8  -3   2    2.96    0.94
  -9   3  -2    8.94    1.77
   9  -3   2   10.57    1.73
  11   2  -2    2.76    1.08
  10   2  -2    9.43    1.54
   9   2  -2    0.57    0.61
  -9  -2   2    0.63    0.67
  -9  -2   2   -0.38    0.36
   8   2  -2    7.72    1.20
  -8  -2   2    6.66    0.92
  -8  -2   2    7.39    1.19
   7   2  -2    0.41    0.37
   7   2  -2    0.33    0.48
  -7  -2   2   -0.05    0.30
  -7  -2   2    0.32    0.49
   6   2  -2    5.43    0.70
   6   2  -2    4.78    0.85
  -6  -2   2    6.26    0.93
  -6  -2   2    4.33    0.63
   5   2  -2    0.75    0.39
   5   2  -2    0.54    0.27
  -5  -2   2    0.51    0.39
  -5  -2   2    0.51    0.29
   4   2  -2    1.03    0.28
   4   2  -2    0.90    0.35
  -4  -2   2    0.65    0.26
  -4  -2   2    0.83    0.37
   3   2  -2    4.63    0.47
   3   2  -2    3.64    0.51
  -3  -2   2    4.33    0.57
  -3  -2   2    4.59    0.48
   2   2  -2   96.72    4.93
   2   2  -2   94.02    5.01
   2   2  -2   94.57    5.04
   2   2  -2   97.19    4.94
  -2  -2   2   93.40    4.99
   1   2  -2   24.98    1.45
   1   2  -2   23.13    1.34
   1   2  -2   25.29    1.44
  -1  -2   2   22.14    1.37
  -1  -2   2   22.96    1.34
   0   2  -2   17.09    1.09
   0   2  -2   16.09    1.13
   0   2  -2   15.45    1.10
   0   2  -2   16.49    1.01
   0  -2   2   16.76    1.05
   0  -2   2   16.77    1.02
  -1   2  -2    8.76    0.67
  -1   2  -2    8.77    0.78
   1  -2   2    9.15    0.69
   1  -2   2    9.41    0.75
  -2   2  -2    2.00    0.48
  -2   2  -2    2.50    0.42
   2  -2   2    1.79    0.35
   2  -2   2    2.27    0.45
  -3   2  -2    0.24    0.24
  -3   2  -2    0.34    0.41
   3  -2   2    0.10    0.22
   3  -2   2   -0.02    0.28
  -4   2  -2   28.83    1.92
  -4   2  -2   29.79    2.18
   4  -2   2   31.53    2.07
  -5   2  -2    1.80    0.51
  -5   2  -2    0.82    0.58
   5  -2   2    0.96    0.52
  -6   2  -2   27.77    2.01
  -6   2  -2   28.05    2.29
   6  -2   2   31.27    2.25
  -7   2  -2   -0.58    0.45
  -7   2  -2   -0.16    0.40
   7  -2   2    0.45    0.51
  -8   2  -2    7.57    1.44
   8  -2   2    9.05    1.45
  -9   2  -2    0.47    0.72
   9  -2   2    0.63    0.78
 -10   2  -2    1.65    0.92
  10  -2   2    0.74    0.85
  11   1  -2    2.42    1.01
  10   1  -2    1.97    0.93
 -10  -1   2    3.25    0.89
 -10  -1   2    0.19    0.69
   9   1  -2    1.89    0.82
  -9  -1   2    4.15    0.85
  -9  -1   2    3.57    1.02
   8   1  -2    5.71    1.13
  -8  -1   2    6.41    0.91
  -8  -1   2    5.35    1.09
   7   1  -2   20.85    1.77
  -7  -1   2   17.33    1.67
  -7  -1   2   19.28    1.48
   6   1  -2    0.36    0.47
   6   1  -2    0.18    0.28
  -6  -1   2    0.77    0.37
  -6  -1   2    0.59    0.53
   5   1  -2    1.27    0.47
   5   1  -2    0.30    0.27
  -5  -1   2    0.66    0.32
  -5  -1   2    1.19    0.45
   4   1  -2    2.37    0.41
   4   1  -2    3.11    0.55
  -4  -1   2    4.22    0.64
  -4  -1   2    2.30    0.41
   3   1  -2    4.86    0.53
   3   1  -2    6.17    0.68
  -3  -1   2    5.21    0.65
  -3  -1   2    6.13    0.53
   2   1  -2   60.59    3.20
   2   1  -2   55.13    3.14
   2   1  -2   55.14    3.07
  -2  -1   2   58.31    3.18
  -2  -1   2   61.25    3.09
   1   1  -2   12.92    0.98
   1   1  -2   14.19    0.97
   1   1  -2   15.13    0.90
  -1  -1   2   16.06    0.99
   0   1  -2   68.96    3.38
   0   1  -2   62.38    3.46
   0  -1   2   61.23    3.42
  -1   1  -2    1.18    0.26
  -1   1  -2    1.34    0.35
   1  -1   2    0.71    0.21
  -2   1  -2   13.36    0.91
  -2   1  -2   12.55    1.02
   2  -1   2   14.59    0.93
   2  -1   2   12.52    0.97
  -3   1  -2  227.48   11.92
  -3   1  -2  217.26   11.71
   3  -1   2  238.95   11.86
   3  -1   2  231.69   11.72
  -4   1  -2    0.20    0.24
  -4   1  -2   -0.30    0.31
   4  -1   2    0.24    0.33
   4  -1   2    0.43    0.29
  -5   1  -2    5.58    0.76
  -5   1  -2    6.14    0.98
   5  -1   2    6.13    0.89
  -6   1  -2   23.19    1.98
  -6   1  -2   24.64    1.73
   6  -1   2   23.02    1.85
  -7   1  -2    2.02    0.76
  -7   1  -2    2.23    0.60
   7  -1   2    2.30    0.74
  -8   1  -2    2.04    0.67
  -8   1  -2    1.33    0.72
   8  -1   2    0.37    0.54
  -9   1  -2    1.37    0.86
   9  -1   2    1.28    0.77
 -10   1  -2    3.09    1.12
  10  -1   2    0.41    0.61
  11   0  -2   -0.60    0.76
 -11   0   2   -0.14    0.85
  10   0  -2   11.85    1.84
 -10   0   2   10.77    1.75
   9   0  -2   15.10    1.93
  -9   0   2   13.89    1.94
  -9   0   2   17.26    1.71
   8   0  -2    0.59    0.51
  -8   0   2   -0.39    0.54
  -8   0   2    0.30    0.44
   7   0  -2    1.07    0.62
  -7   0   2    1.34    0.63
  -7   0   2    1.39    0.48
   6   0  -2  100.97    5.75
  -6   0   2   92.67    5.71
  -6   0   2  107.42    5.54
   5   0  -2   21.57    1.43
   5   0  -2   19.26    1.58
  -5   0   2   22.64    1.69
  -5   0   2   21.95    1.48
   4   0  -2  101.43    5.83
   4   0  -2  112.90    5.68
  -4   0   2  111.10    5.69
  -4   0   2  103.03    5.84
   3   0  -2    6.32    0.73
   3   0  -2    6.95    0.60
  -3   0   2    6.25    0.76
  -3   0   2    6.97    0.67
   2   0  -2    2.47    0.44
   2   0  -2    2.63    0.43
   2   0  -2    1.90    0.30
  -2   0   2    3.01    0.36
  -2   0   2    1.84    0.39
   1   0  -2  314.11   16.23
   1   0  -2  276.88   16.14
   1   0  -2  343.78   16.26
  -1   0   2  330.89   16.16
  -1   0   2  329.34   16.25
  -1   0   2  328.91   16.21
   0   0  -2  326.48   17.48
   0   0  -2  322.85   17.42
   0   0  -2  358.65   17.50
   0   0   2  341.48   17.42
   0   0   2  372.98   17.50
   0   0   2  355.79   17.50
  -1   0  -2  218.28   10.71
  -1   0  -2  197.86   10.75
  -1   0  -2  211.18   10.80
  -1   0  -2  210.93   10.81
   1   0   2  212.64   10.77
   1   0   2  226.34   10.83
   1   0   2  201.21   10.69
  -2   0  -2  314.36   15.55
  -2   0  -2  285.73   15.65
   2   0   2  309.70   15.64
   2   0   2  319.27   15.56
  -3   0  -2   57.08    3.02
  -3   0  -2   50.60    3.12
   3   0   2   56.74    3.00
   3   0   2   53.72    3.10
  -4   0  -2    2.19    0.45
  -4   0  -2    2.33    0.56
   4   0   2    2.05    0.41
   4   0   2    2.02    0.47
  -5   0  -2   12.79    1.05
  -5   0  -2   12.31    1.19
   5   0   2   12.97    1.15
   5   0   2   11.65    0.98
  -6   0  -2   10.50    1.13
  -6   0  -2    8.14    1.20
   6   0   2   12.74    1.37
  -7   0  -2   27.38    1.92
  -7   0  -2   26.20    2.16
   7   0   2   27.68    2.10
  -8   0  -2    0.32    0.58
  -8   0  -2   -0.47    0.32
   8   0   2    0.06    0.49
  -9   0  -2    0.01    0.52
  -9   0  -2   -0.11    0.63
   9   0   2    1.57    0.73
 -10   0  -2   -0.83    0.71
  10   0   2    0.59    0.71
 -11   0  -2   16.07    2.37
  11   0   2   18.75    2.33
  11  -1  -2    2.12    1.12
 -11   1   2    2.31    1.27
  10  -1  -2    5.82    1.34
 -10   1   2    4.10    1.23
   9  -1  -2   16.42    2.07
  -9   1   2   13.28    1.59
  -9   1   2   13.27    1.88
   8  -1  -2    2.93    0.94
  -8   1   2    4.10    1.08
  -8   1   2    2.49    0.70
   7  -1  -2    7.19    1.17
  -7   1   2    5.77    0.89
  -7   1   2    7.46    1.27
   6  -1  -2   30.82    2.25
  -6   1   2   30.31    2.30
  -6   1   2   30.28    2.05
   5  -1  -2    1.39    0.54
   5  -1  -2    2.49    0.53
  -5   1   2    1.40    0.46
  -5   1   2    1.09    0.59
   4  -1  -2   28.04    1.88
   4  -1  -2   26.93    1.69
  -4   1   2   27.29    1.72
  -4   1   2   26.73    1.89
   3  -1  -2   68.50    3.60
   3  -1  -2   72.08    3.77
  -3   1   2   59.68    3.57
  -3   1   2   66.26    3.74
   2  -1  -2   18.32    1.22
   2  -1  -2   18.62    1.11
  -2   1   2   16.83    1.11
  -2   1   2   17.61    1.22
   1  -1  -2   24.99    1.38
   1  -1  -2   24.96    1.46
   1  -1  -2   23.60    1.47
  -1   1   2   22.63    1.37
  -1   1   2   25.96    1.47
  -1   1   2   23.67    1.49
   0  -1  -2   50.31    2.72
   0  -1  -2   47.42    2.65
   0  -1  -2   48.41    2.71
   0   1   2   51.12    2.71
   0   1   2   50.39    2.65
   0   1   2   54.34    2.76
  -1  -1  -2   24.79    1.38
  -1  -1  -2   22.47    1.44
   1   1   2   24.63    1.38
   1   1   2   26.59    1.45
  -2  -1  -2  159.84    8.13
  -2  -1  -2  166.21    8.24
   2   1   2  165.32    8.24
   2   1   2  152.05    8.13
   2   1   2  154.09    8.19
  -3  -1  -2   16.31    1.13
  -3  -1  -2   14.19    1.00
   3   1   2   13.92    1.05
   3   1   2   17.14    1.02
  -4  -1  -2   22.28    1.53
  -4  -1  -2   21.54    1.36
   4   1   2   19.93    1.45
   4   1   2   21.17    1.35
  -5  -1  -2    6.42    0.76
  -5  -1  -2    6.57    0.89
   5   1   2    8.58    0.99
   5   1   2    9.02    0.88
  -6  -1  -2    4.24    0.83
  -6  -1  -2    3.65    0.65
   6   1   2    3.09    0.66
  -7  -1  -2   29.13    1.94
  -7  -1  -2   30.37    2.19
   7   1   2   24.06    2.00
  -8  -1  -2   17.25    1.44
  -8  -1  -2   17.25    1.88
   8   1   2   15.26    1.76
  -9  -1  -2    9.17    1.44
  -9  -1  -2    8.00    1.17
   9   1   2    6.83    1.26
 -10  -1  -2    5.87    1.34
  10   1   2    5.07    1.20
 -11  -1  -2   -0.09    0.67
  11   1   2    0.37    0.69
  10  -2  -2    5.19    1.37
 -10   2   2    8.16    1.72
   9  -2  -2    0.41    0.60
  -9   2   2   -0.43    0.60
   8  -2  -2    4.61    1.05
  -8   2   2    1.97    0.63
  -8   2   2    2.45    0.86
   7  -2  -2   53.14    3.49
  -7   2   2   48.78    3.16
  -7   2   2   49.61    3.52
   6  -2  -2   25.28    2.00
  -6   2   2   21.08    1.94
  -6   2   2   24.28    1.73
   5  -2  -2    5.80    0.94
  -5   2   2    5.03    0.74
  -5   2   2    6.36    1.01
   4  -2  -2   15.83    1.17
   4  -2  -2   15.90    1.35
  -4   2   2   16.15    1.20
  -4   2   2   16.81    1.40
   3  -2  -2   18.92    1.42
   3  -2  -2   21.45    1.32
  -3   2   2   19.14    1.29
  -3   2   2   19.27    1.46
   2  -2  -2   28.37    1.70
   2  -2  -2   28.41    1.58
  -2   2   2   25.04    1.56
  -2   2   2   24.48    1.68
   1  -2  -2    1.97    0.30
   1  -2  -2    1.49    0.32
  -1   2   2    2.11    0.35
  -1   2   2    1.97    0.37
  -1   2   2    1.69    0.27
   0  -2  -2   22.17    1.36
   0  -2  -2   23.74    1.38
   0  -2  -2   21.44    1.28
   0   2   2   24.98    1.37
   0   2   2   23.56    1.31
   0   2   2   22.98    1.39
  -1  -2  -2  844.12   45.37
  -1  -2  -2  884.75   45.38
  -1  -2  -2 1000.00   45.61
   1   2   2  910.09   45.38
   1   2   2  942.86   45.55
   1   2   2  856.80   45.39
  -2  -2  -2   23.34    1.32
  -2  -2  -2   21.14    1.38
   2   2   2   21.72    1.40
   2   2   2   25.39    1.40
   2   2   2   26.42    1.34
  -3  -2  -2   12.58    0.84
  -3  -2  -2   14.06    0.95
   3   2   2   12.33    0.84
  -4  -2  -2   24.34    1.73
  -4  -2  -2   26.54    1.61
   4   2   2   27.24    1.72
   4   2   2   30.28    1.63
  -5  -2  -2    5.43    0.64
  -5  -2  -2    4.93    0.74
   5   2   2    5.67    0.63
   5   2   2    3.87    0.63
  -6  -2  -2    1.52    0.41
  -6  -2  -2    2.35    0.63
   6   2   2    1.58    0.50
   6   2   2    1.78    0.42
  -7  -2  -2   33.28    2.07
  -7  -2  -2   30.34    2.25
   7   2   2   29.25    2.17
  -8  -2  -2    4.45    0.94
  -8  -2  -2    6.36    0.93
   8   2   2    6.58    1.07
  -9  -2  -2   31.01    2.15
  -9  -2  -2   28.29    2.32
   9   2   2   27.02    2.27
 -10  -2  -2    3.86    0.89
 -10  -2  -2    5.46    1.28
  10   2   2    4.25    1.08
  11   2   2    0.77    0.68
  10  -3  -2    3.63    1.29
 -10   3   2    2.74    1.21
   9  -3  -2    1.19    0.83
  -9   3   2    1.28    0.87
   8  -3  -2    3.18    0.97
  -8   3   2    2.99    1.02
   7  -3  -2    5.03    1.10
  -7   3   2    5.26    1.12
  -7   3   2    4.25    0.83
   6  -3  -2   16.34    1.84
  -6   3   2   19.11    1.51
  -6   3   2   18.21    2.01
   5  -3  -2    4.01    0.87
  -5   3   2    3.32    0.62
  -5   3   2    4.48    0.90
   4  -3  -2    3.45    0.63
   4  -3  -2    2.59    0.63
  -4   3   2    1.85    0.64
  -4   3   2    2.43    0.50
   3  -3  -2    1.07    0.33
   3  -3  -2    0.63    0.41
  -3   3   2    0.86    0.41
  -3   3   2    0.66    0.32
   2  -3  -2    3.47    0.57
   2  -3  -2    3.15    0.45
  -2   3   2    1.87    0.48
  -2   3   2    3.74    0.50
   1  -3  -2    6.73    0.66
   1  -3  -2    5.16    0.52
  -1   3   2    5.62    0.66
  -1   3   2    5.45    0.54
   0  -3  -2    1.85    0.26
   0  -3  -2    1.77    0.32
   0   3   2    1.85    0.34
   0   3   2    2.12    0.33
   0   3   2    1.51    0.24
  -1  -3  -2   85.78    4.45
  -1  -3  -2   92.50    4.43
  -1  -3  -2   86.52    4.42
  -1  -3  -2   86.93    4.45
   1   3   2   81.06    4.50
   1   3   2   85.44    4.48
  -2  -3  -2   42.25    2.19
  -2  -3  -2   40.52    2.20
  -2  -3  -2   41.09    2.16
   2   3   2   41.20    2.18
   2   3   2   40.92    2.23
   2   3   2   40.45    2.24
  -3  -3  -2   47.41    2.92
  -3  -3  -2   45.58    2.85
   3   3   2   54.39    2.95
   3   3   2   62.66    2.99
   3   3   2   64.03    2.90
  -4  -3  -2   87.14    4.44
  -4  -3  -2   85.39    4.52
   4   3   2   79.11    4.52
   4   3   2   85.76    4.43
  -5  -3  -2   23.12    1.59
  -5  -3  -2   24.44    1.49
   5   3   2   24.48    1.47
   5   3   2   22.91    1.58
  -6  -3  -2    0.10    0.35
  -6  -3  -2    0.37    0.29
   6   3   2    0.21    0.27
   6   3   2    0.17    0.34
  -7  -3  -2    2.70    0.69
  -7  -3  -2    3.52    0.58
   7   3   2    2.56    0.54
   7   3   2    3.20    0.71
  -8  -3  -2    3.81    0.68
  -8  -3  -2    3.80    0.84
   8   3   2    1.56    0.64
  -9  -3  -2    8.99    1.33
  -9  -3  -2    7.81    1.06
   9   3   2   10.10    1.36
 -10  -3  -2    1.10    0.50
  10   3   2    0.60    0.68
  11   3   2    1.37    0.74
   9  -4  -2    5.85    1.46
  -9   4   2    3.06    1.16
   8  -4  -2    4.05    1.12
  -8   4   2    4.61    1.23
   7  -4  -2    4.23    0.97
  -7   4   2    1.28    0.54
  -7   4   2    3.52    1.00
   6  -4  -2   12.73    1.59
  -6   4   2    9.19    1.41
  -6   4   2    9.46    1.16
   5  -4  -2   15.32    1.66
  -5   4   2   15.65    1.71
  -5   4   2   14.51    1.28
   4  -4  -2    3.80    0.83
  -4   4   2    4.69    0.73
  -4   4   2    4.10    0.87
   3  -4  -2   10.13    0.86
   3  -4  -2    8.76    1.07
  -3   4   2    7.51    1.04
  -3   4   2    9.18    0.93
   2  -4  -2    6.22    0.67
   2  -4  -2    8.33    0.88
  -2   4   2    5.39    0.79
  -2   4   2    5.26    0.65
   1  -4  -2   34.05    1.88
   1  -4  -2   33.19    1.96
  -1   4   2   32.96    2.03
  -1   4   2   31.28    1.88
   0  -4  -2  206.11   10.65
   0  -4  -2  201.43   10.58
   0   4   2  213.49   10.68
   0   4   2  213.49   10.70
   0   4   2  210.14   10.59
  -1  -4  -2    3.55    0.30
  -1  -4  -2    3.74    0.33
  -1  -4  -2    3.63    0.31
   1   4   2    4.47    0.43
   1   4   2    3.55    0.41
   1   4   2    3.85    0.36
  -2  -4  -2   82.16    4.23
   2   4   2   84.28    4.31
   2   4   2   84.00    4.33
  -3  -4  -2   43.53    2.30
   3   4   2   45.78    2.33
   3   4   2   44.18    2.41
   3   4   2   42.45    2.38
  -4  -4  -2    0.89    0.24
  -4  -4  -2    0.47    0.18
   4   4   2    0.68    0.23
   4   4   2    0.62    0.19
  -5  -4  -2    2.26    0.37
  -5  -4  -2    2.21    0.42
   5   4   2    2.47    0.37
   5   4   2    2.52    0.45
  -6  -4  -2    5.46    0.73
  -6  -4  -2    5.22    0.62
   6   4   2    5.70    0.77
  -7  -4  -2    1.27    0.50
  -7  -4  -2    2.45    0.51
   7   4   2    1.11    0.48
  -8  -4  -2    1.59    0.59
  -8  -4  -2    1.81    0.47
   8   4   2    0.78    0.48
  -9  -4  -2   11.59    1.27
   9   4   2   11.81    1.45
  10   4   2   -0.44    0.46
  11   4   2   -0.83    0.53
   9  -5  -2   25.71    2.93
  -9   5   2   29.62    3.23
   8  -5  -2    8.31    1.56
  -8   5   2    9.79    1.77
   7  -5  -2   10.90    1.68
  -7   5   2   12.60    1.82
   6  -5  -2   10.57    1.50
  -6   5   2   13.81    1.80
  -6   5   2   12.33    1.38
   5  -5  -2    1.26    0.58
  -5   5   2    2.83    0.84
  -5   5   2    1.12    0.52
   4  -5  -2    5.78    0.99
  -4   5   2    4.93    1.02
  -4   5   2    6.02    0.85
   3  -5  -2   90.57    5.15
  -3   5   2   91.78    4.99
  -3   5   2   89.86    5.23
   2  -5  -2   -0.17    0.31
   2  -5  -2    0.09    0.24
  -2   5   2    0.26    0.27
  -2   5   2    0.42    0.41
   1  -5  -2  114.91    6.29
   1  -5  -2  117.73    6.40
  -1   5   2  126.70    6.33
  -1   5   2  125.10    6.51
   0  -5  -2    0.29    0.22
   0  -5  -2    0.15    0.17
   0   5   2    0.03    0.15
   0   5   2    0.16    0.26
  -1  -5  -2    2.80    0.29
  -1  -5  -2    2.68    0.27
   1   5   2    2.52    0.35
   1   5   2    2.54    0.37
   1   5   2    2.14    0.28
   2   5   2   13.46    0.80
   2   5   2   12.37    0.81
   3   5   2   -0.01    0.14
   3   5   2   -0.10    0.12
   4   5   2   12.01    0.67
   4   5   2    9.17    0.73
   4   5   2    8.41    0.69
  -5  -5  -2   18.42    1.18
   5   5   2   22.09    1.33
  -6  -5  -2   19.80    1.26
  -6  -5  -2   20.00    1.29
   6   5   2   17.82    1.35
   6   5   2   19.65    1.25
   7   5   2    0.54    0.30
   7   5   2    1.51    0.47
   8   5   2    9.58    1.15
   9   5   2    0.41    0.46
  10   5   2    0.89    0.57
  11   5   2    8.12    1.36
   8  -6  -2   -0.04    0.97
  -8   6   2    0.08    0.75
   7  -6  -2    1.11    0.83
  -7   6   2    0.13    0.76
   6  -6  -2   16.48    1.94
  -6   6   2   16.74    2.08
   5  -6  -2    5.94    1.07
  -5   6   2    6.30    0.91
  -5   6   2    6.00    1.22
   4  -6  -2   11.42    1.36
  -4   6   2    8.36    1.03
  -4   6   2    9.79    1.35
   3  -6  -2    0.09    0.42
  -3   6   2    0.03    0.47
  -3   6   2    0.27    0.34
   2  -6  -2    5.16    0.79
  -2   6   2    5.93    0.75
  -2   6   2    5.52    0.92
   1  -6  -2    9.01    0.77
   1  -6  -2   10.93    0.91
  -1   6   2   10.45    0.82
  -1   6   2    8.78    1.04
   0  -6  -2    3.44    0.46
   0  -6  -2    2.81    0.37
   0   6   2    2.48    0.51
   0   6   2    2.89    0.41
  -1  -6  -2    2.75    0.28
   1   6   2    2.44    0.42
   1   6   2    2.84    0.33
   2   6   2    0.18    0.13
   2   6   2    0.33    0.20
   3   6   2   20.74    1.17
   3   6   2   22.57    1.20
   4   6   2    0.96    0.23
   4   6   2    0.66    0.19
   5   6   2   20.12    1.16
   5   6   2   19.88    1.24
  -6  -6  -2    0.71    0.22
   6   6   2    0.66    0.29
   6   6   2    1.69    0.30
   7   6   2   25.85    1.74
   8   6   2    0.57    0.40
   9   6   2    0.28    0.42
  10   6   2    4.42    0.94
  11   6   2    4.68    1.09
  -7   7   2    2.31    1.13
  -6   7   2    3.43    1.13
  -5   7   2    2.39    0.94
  -4   7   2    8.96    1.11
  -4   7   2    6.86    1.23
  -3   7   2    7.01    0.92
  -3   7   2    8.27    1.25
  -2   7   2   11.29    1.34
  -2   7   2   10.17    1.03
   1  -7  -2   11.99    0.91
  -1   7   2   10.26    0.91
  -1   7   2   13.27    1.20
   0  -7  -2    6.31    0.58
   0   7   2    6.25    0.82
   0   7   2    4.75    0.56
  -1  -7  -2    2.79    0.27
   1   7   2    2.23    0.45
   1   7   2    2.22    0.32
   2   7   2    0.64    0.25
   5   7   2    2.93    0.33
   6   7   2   10.05    0.78
   7   7   2   44.21    2.60
   8   7   2    1.35    0.49
   9   7   2    0.35    0.43
  10   7   2    6.45    1.08
  11   7   2    0.28    0.62
  -6   8   2   -0.24    0.81
  -5   8   2   12.84    1.90
  -4   8   2    2.11    0.83
  -3   8   2    1.43    0.70
  -3   8   2    0.35    0.38
  -2   8   2    7.79    0.91
  -2   8   2    7.35    1.15
  -1   8   2    1.79    0.63
  -1   8   2    2.41    0.48
   0   8   2    7.36    0.68
   0   8   2    8.56    1.00
   1   8   2    6.27    0.53
   1   8   2    7.06    0.79
   2   8   2    0.92    0.30
   9   8   2   11.56    1.33
  10   8   2    3.66    1.31
  -4   9   2    2.66    1.03
  -3   9   2   22.75    2.19
  -3   9   2   25.59    1.92
  -2   9   2    1.56    0.73
  -2   9   2    1.51    0.47
  -1   9   2    2.39    0.66
  -1   9   2    0.91    0.37
   0   9   2    3.42    0.73
   1   9   2   10.89    1.01
  -3  10   2    3.87    1.10
  -2  10   2    0.60    0.72
  -1  10   2    4.61    0.97
   0  10   2    2.54    0.69
   0   9  -3    0.21    0.59
  -1   9  -3    6.63    1.24
   2   8  -3   19.30    1.55
   1   8  -3    0.25    0.49
   0   8  -3    2.94    0.84
  -1   8  -3    7.83    1.25
  -2   8  -3    0.24    0.66
  -3   8  -3    2.32    0.93
   7   7  -3    6.33    1.00
   6   7  -3    0.65    0.47
   5   7  -3   11.03    1.05
   4   7  -3   14.06    1.19
   3   7  -3    3.42    0.63
   2   7  -3    1.07    0.49
   1   7  -3    2.30    0.63
   1   7  -3    3.37    0.50
   0   7  -3    2.55    0.52
   0   7  -3    3.66    0.79
  -1   7  -3    9.38    1.31
  -1   7  -3    9.97    1.07
  -2   7  -3    1.23    0.66
  -2   7  -3    0.65    0.48
  -3   7  -3   10.10    1.49
  -4   7  -3    6.35    1.31
  -5   7  -3    0.95    0.93
  10   6  -3    6.24    1.16
   9   6  -3   10.98    1.47
   8   6  -3    2.92    0.79
   7   6  -3    0.35    0.48
   6   6  -3    9.56    1.11
   5   6  -3    6.77    0.85
   5   6  -3    6.50    0.65
   4   6  -3   13.40    0.92
   4   6  -3   13.65    1.15
   3   6  -3    0.27    0.22
   3   6  -3    0.33    0.37
   2   6  -3    1.72    0.34
   2   6  -3    1.03    0.44
   1   6  -3   16.63    1.42
   1   6  -3   19.36    1.24
   0   6  -3    9.25    1.12
   0   6  -3    8.96    0.89
  -1   6  -3    0.34    0.51
  -1   6  -3    0.85    0.38
  -2   6  -3   27.01    1.86
  -2   6  -3   26.55    2.14
  -3   6  -3    5.15    0.82
  -3   6  -3    4.15    1.00
  -4   6  -3    0.28    0.67
  -5   6  -3   10.29    1.66
  -6   6  -3    4.54    1.29
  10   5  -3    1.12    0.73
   9   5  -3    4.61    0.99
   8   5  -3    0.56    0.55
   7   5  -3    6.51    1.02
   6   5  -3   10.64    0.92
   6   5  -3   10.65    1.19
   5   5  -3    3.39    0.69
   5   5  -3    4.02    0.54
   4   5  -3   -0.35    0.15
   4   5  -3   -0.25    0.32
   4   5  -3    0.27    0.24
   3   5  -3   27.22    1.94
   3   5  -3   32.00    1.79
   3   5  -3   31.65    1.79
   2   5  -3    0.17    0.21
   2   5  -3   -0.03    0.36
   1   5  -3   19.66    1.20
   1   5  -3   16.56    1.37
  -1  -5   3   16.98    1.17
   0   5  -3   -0.04    0.24
   0   5  -3   -0.61    0.31
   0  -5   3   -0.07    0.23
   0  -5   3   -0.05    0.24
  -1   5  -3    0.95    0.52
  -1   5  -3    0.61    0.31
   1  -5   3    0.66    0.32
  -2   5  -3   51.35    3.16
  -2   5  -3   54.03    3.47
   2  -5   3   57.41    3.27
  -3   5  -3   18.37    1.72
  -3   5  -3   16.64    1.41
   3  -5   3   18.59    1.51
  -4   5  -3   23.63    2.13
  -4   5  -3   24.69    1.78
   4  -5   3   20.60    1.80
  -5   5  -3    4.10    1.05
   5  -5   3    3.71    0.99
  -6   5  -3    0.06    0.75
  -7   5  -3    2.38    1.00
  11   4  -3    1.79    0.94
  10   4  -3   -0.10    0.59
   9   4  -3    9.50    1.37
   8   4  -3    1.72    0.67
   7   4  -3   15.04    1.43
   6   4  -3   52.55    3.22
   5   4  -3    0.68    0.29
   5   4  -3    0.85    0.35
   5   4  -3    1.42    0.50
   4   4  -3   14.30    1.20
   4   4  -3   14.93    1.02
   4   4  -3   14.23    1.03
  -4  -4   3   15.05    1.06
   3   4  -3   -0.11    0.30
   3   4  -3    0.20    0.24
   3   4  -3   -0.04    0.21
  -3  -4   3    0.19    0.21
   2   4  -3    3.41    0.58
   2   4  -3    2.54    0.40
  -2  -4   3    2.96    0.41
   1   4  -3   46.60    2.75
   1   4  -3   46.64    2.56
  -1  -4   3   46.91    2.58
  -1  -4   3   43.61    2.54
   0   4  -3   21.21    1.36
   0   4  -3   21.87    1.55
   0  -4   3   22.26    1.42
   0  -4   3   20.14    1.38
  -1   4  -3   93.75    4.69
  -1   4  -3   86.14    4.87
   1  -4   3   80.19    4.69
   1  -4   3   84.01    4.65
  -2   4  -3    4.39    0.85
  -2   4  -3    4.73    0.66
   2  -4   3    3.12    0.63
  -3   4  -3    8.01    1.14
  -3   4  -3    6.39    0.85
   3  -4   3    5.49    0.87
  -4   4  -3    0.80    0.37
  -4   4  -3    1.55    0.65
   4  -4   3    0.22    0.40
  -5   4  -3    4.97    1.12
  -5   4  -3    5.31    0.87
   5  -4   3    4.71    0.91
  -6   4  -3    0.15    0.55
   6  -4   3    0.26    0.47
  -7   4  -3    7.94    1.48
   7  -4   3    8.28    1.39
  -8   4  -3    4.82    1.33
   8  -4   3    4.32    1.16
  11   3  -3   -0.08    0.70
  10   3  -3    3.81    1.09
   9   3  -3    1.04    0.69
   8   3  -3    8.95    1.31
  -8  -3   3    9.44    1.08
   7   3  -3   48.39    2.99
  -7  -3   3   42.39    2.90
  -7  -3   3   41.83    2.67
   6   3  -3   33.75    2.06
   6   3  -3   32.13    2.28
  -6  -3   3   32.13    2.07
  -6  -3   3   35.44    2.27
   5   3  -3    0.63    0.29
   5   3  -3    0.24    0.37
  -5  -3   3    0.71    0.33
  -5  -3   3    0.54    0.41
   4   3  -3   20.64    1.52
   4   3  -3   19.63    1.36
   4   3  -3   23.02    1.36
  -4  -3   3   20.91    1.45
   3   3  -3   10.74    0.78
   3   3  -3   10.98    0.94
   3   3  -3    9.51    0.77
  -3  -3   3    9.06    0.84
   2   3  -3    0.58    0.24
   2   3  -3    0.49    0.24
   2   3  -3    0.69    0.33
  -2  -3   3    0.44    0.24
   1   3  -3    2.82    0.39
   1   3  -3    2.46    0.48
  -1  -3   3    2.21    0.39
  -1  -3   3    2.98    0.40
   0   3  -3   23.68    1.38
   0   3  -3   20.58    1.51
   0  -3   3   20.13    1.36
   0  -3   3   22.68    1.43
  -1   3  -3   -0.43    0.22
  -1   3  -3    0.09    0.23
   1  -3   3    0.32    0.25
   1  -3   3    0.25    0.27
  -2   3  -3    7.87    1.02
  -2   3  -3    8.87    0.89
   2  -3   3    8.28    0.85
   2  -3   3    9.00    0.99
  -3   3  -3    0.62    0.55
  -4   3  -3   10.27    1.10
  -4   3  -3   11.18    1.39
   4  -3   3   12.04    1.32
  -5   3  -3    2.12    0.59
  -5   3  -3    0.61    0.52
   5  -3   3    2.06    0.63
  -6   3  -3    1.34    0.73
  -6   3  -3    0.15    0.40
   6  -3   3    0.55    0.49
  -7   3  -3    3.69    1.03
   7  -3   3    5.36    1.09
  -8   3  -3    0.75    0.74
   8  -3   3    0.13    0.60
  -9   3  -3    7.98    1.60
   9  -3   3    4.93    1.23
  11   2  -3   18.30    2.33
  10   2  -3    1.26    0.83
   9   2  -3    1.31    0.74
  -9  -2   3    0.72    0.57
   8   2  -3   24.26    2.10
  -8  -2   3   27.12    1.87
  -8  -2   3   23.41    2.10
   7   2  -3   36.08    2.73
  -7  -2   3   38.81    2.78
  -7  -2   3   45.11    2.56
   6   2  -3    8.80    1.12
   6   2  -3    5.46    0.72
  -6  -2   3    5.24    0.89
  -6  -2   3    6.88    0.80
   5   2  -3    2.51    0.62
   5   2  -3    4.69    0.62
  -5  -2   3    4.09    0.59
  -5  -2   3    2.82    0.65
   4   2  -3    1.11    0.31
   4   2  -3    1.10    0.39
  -4  -2   3    0.70    0.31
  -4  -2   3    0.93    0.42
   3   2  -3    4.63    0.53
   3   2  -3    4.55    0.66
  -3  -2   3    5.26    0.69
   2   2  -3    8.41    0.68
   2   2  -3    8.32    0.88
   2   2  -3    9.88    0.72
  -2  -2   3    8.56    0.78
   1   2  -3   11.10    0.92
   1   2  -3   11.73    0.82
  -1  -2   3   10.88    0.79
  -1  -2   3   11.33    0.84
   0   2  -3   52.77    2.81
   0   2  -3   49.77    2.93
   0  -2   3   50.23    2.86
   0  -2   3   52.17    2.82
  -1   2  -3   52.21    3.01
  -1   2  -3   55.39    3.20
   1  -2   3   55.25    3.12
   1  -2   3   57.64    3.05
  -2   2  -3    3.55    0.54
  -2   2  -3    3.98    0.71
   2  -2   3    3.93    0.62
   2  -2   3    2.89    0.48
  -3   2  -3    0.64    0.34
  -3   2  -3    1.22    0.49
   3  -2   3    0.93    0.34
   3  -2   3    0.72    0.38
  -4   2  -3    2.45    0.55
  -4   2  -3    1.88    0.69
   4  -2   3    2.24    0.57
  -5   2  -3    8.18    1.04
  -5   2  -3   12.23    1.50
   5  -2   3   11.09    1.30
  -6   2  -3   21.56    1.93
  -6   2  -3   21.23    1.69
   6  -2   3   20.66    1.78
  -7   2  -3    4.47    1.05
  -7   2  -3    5.09    0.90
   7  -2   3    3.70    0.94
  -8   2  -3   14.26    1.99
   8  -2   3   12.57    1.72
  -9   2  -3   12.95    2.04
   9  -2   3   13.42    1.87
  11   1  -3    8.40    1.67
  10   1  -3   -0.42    0.66
 -10  -1   3    0.16    0.53
   9   1  -3    8.97    1.42
  -9  -1   3    4.58    1.17
  -9  -1   3    6.71    1.09
   8   1  -3    2.97    0.91
  -8  -1   3    4.55    1.04
  -8  -1   3    3.52    0.75
   7   1  -3   25.22    1.99
  -7  -1   3   23.74    1.70
  -7  -1   3   21.72    1.95
   6   1  -3    1.33    0.41
   6   1  -3    2.04    0.62
  -6  -1   3    1.61    0.65
  -6  -1   3    1.62    0.50
   4   1  -3   28.58    1.88
   4   1  -3   26.69    1.71
  -4  -1   3   28.06    1.74
  -4  -1   3   30.19    1.95
   3   1  -3  151.39    8.59
   3   1  -3  175.50    8.76
  -3  -1   3  173.67    8.79
  -3  -1   3  168.80    8.63
   2   1  -3   22.72    1.30
   2   1  -3   19.00    1.37
   2   1  -3   20.34    1.29
  -2  -1   3   20.66    1.43
   1   1  -3   93.22    4.89
   1   1  -3   89.39    4.76
  -1  -1   3   90.45    4.86
   0   1  -3    3.17    0.51
   0   1  -3    3.81    0.45
   0  -1   3    3.44    0.43
   0  -1   3    4.52    0.53
  -1   1  -3    0.21    0.28
  -1   1  -3    0.12    0.22
   1  -1   3    0.15    0.23
   1  -1   3    0.07    0.23
  -2   1  -3   73.52    3.84
  -2   1  -3   68.76    4.00
   2  -1   3   70.59    3.94
   2  -1   3   70.40    3.84
  -3   1  -3    0.86    0.41
  -3   1  -3   -0.03    0.21
   3  -1   3    0.09    0.27
   3  -1   3    0.28    0.25
  -4   1  -3   31.12    2.24
  -4   1  -3   33.05    2.02
   4  -1   3   35.43    2.19
   4  -1   3   29.74    2.12
  -5   1  -3   30.99    2.03
  -5   1  -3   31.47    2.32
   5  -1   3   29.82    2.16
  -6   1  -3   24.55    1.70
  -6   1  -3   18.93    1.85
   6  -1   3   20.25    1.78
  -7   1  -3    7.25    1.03
  -7   1  -3    6.42    1.19
   7  -1   3    7.07    1.17
  -8   1  -3    5.62    1.21
  -8   1  -3    5.95    1.04
   8  -1   3    5.58    1.16
  -9   1  -3    1.13    0.81
   9  -1   3    0.60    0.71
 -10   1  -3   -0.98    0.62
  10  -1   3   -0.86    0.66
  11   0  -3    3.06    1.21
  10   0  -3    8.30    1.58
 -10   0   3    7.43    1.59
   9   0  -3    8.89    1.48
  -9   0   3    9.26    1.25
  -9   0   3    9.49    1.55
   8   0  -3   -0.19    0.46
  -8   0   3    0.10    0.38
  -8   0   3   -0.33    0.57
   7   0  -3    7.33    1.21
  -7   0   3    8.79    1.34
  -7   0   3    7.35    0.97
   6   0  -3   45.25    3.10
  -6   0   3   50.48    2.91
  -6   0   3   47.51    3.20
   5   0  -3    6.16    0.72
  -5   0   3    8.59    0.87
  -5   0   3    7.35    1.01
   4   0  -3   49.87    2.84
   4   0  -3   51.49    3.03
  -4   0   3   52.33    3.08
  -4   0   3   47.02    2.84
   3   0  -3  156.23    8.48
   3   0  -3  156.28    8.33
  -3   0   3  162.69    8.35
  -3   0   3  170.29    8.56
   2   0  -3    0.26    0.25
   2   0  -3    0.16    0.21
  -2   0   3   -0.08    0.29
  -2   0   3   -0.13    0.20
   1   0  -3  188.81    9.43
   1   0  -3  183.17    9.42
   1   0  -3  189.18    9.54
  -1   0   3  175.66    9.55
   0   0  -3  143.81    7.20
   0   0  -3  124.71    7.07
   0   0   3  134.61    7.18
   0   0   3  147.61    7.08
  -1   0  -3   10.64    0.87
  -1   0  -3   10.12    0.72
   1   0   3    9.77    0.74
   1   0   3    9.09    0.80
  -2   0  -3    0.03    0.26
  -2   0  -3    0.00    0.18
   2   0   3   -0.06    0.19
   2   0   3   -0.02    0.22
  -3   0  -3   39.93    2.34
  -3   0  -3   42.93    2.53
   3   0   3   41.70    2.35
   3   0   3   37.54    2.42
  -4   0  -3    2.19    0.60
  -4   0  -3    2.71    0.49
   4   0   3    3.97    0.57
   4   0   3    2.03    0.51
  -5   0  -3   20.05    1.42
  -5   0  -3   19.27    1.68
   5   0   3   19.80    1.57
  -6   0  -3    9.86    1.38
  -6   0  -3   10.35    1.15
   6   0   3   10.53    1.31
  -7   0  -3   29.03    2.30
  -7   0  -3   26.17    1.94
   7   0   3   27.81    2.16
  -8   0  -3   18.38    2.12
  -8   0  -3   19.54    1.65
   8   0   3   22.07    1.93
  -9   0  -3   23.96    2.27
   9   0   3   22.71    2.15
 -10   0  -3   -0.12    0.75
  10   0   3    0.75    0.85
 -11   1   3    0.97    0.95
  10  -1  -3    2.62    1.10
 -10   1   3    2.00    1.07
   9  -1  -3   14.31    1.99
  -9   1   3   17.70    2.20
  -9   1   3   19.59    1.95
   8  -1  -3    0.68    0.60
  -8   1   3   -0.60    0.50
  -8   1   3    0.14    0.48
   7  -1  -3    0.97    0.59
  -7   1   3   -0.15    0.49
  -7   1   3   -0.21    0.34
   6  -1  -3    0.89    0.55
  -6   1   3    2.25    0.63
  -6   1   3    1.96    0.70
   5  -1  -3   24.82    1.65
   5  -1  -3   24.07    1.86
  -5   1   3   24.06    1.68
  -5   1   3   24.73    1.93
   4  -1  -3  203.11   10.57
   4  -1  -3  208.58   10.78
  -4   1   3  210.26   10.59
  -4   1   3  194.12   10.80
   3  -1  -3   19.75    1.29
   2  -1  -3   20.71    1.21
   2  -1  -3   17.55    1.27
  -2   1   3   18.45    1.34
  -2   1   3   17.70    1.18
   1  -1  -3   45.46    2.46
   1  -1  -3   45.65    2.56
  -1   1   3   44.11    2.60
  -1   1   3   43.69    2.46
   0  -1  -3    7.91    0.71
   0  -1  -3    8.01    0.62
   0   1   3    7.85    0.75
   0   1   3    8.94    0.63
  -1  -1  -3  341.62   19.07
  -1  -1  -3  386.21   18.99
   1   1   3  367.09   19.00
   1   1   3  410.16   19.13
  -2  -1  -3    2.13    0.45
  -2  -1  -3    2.99    0.42
   2   1   3    3.01    0.42
   2   1   3    3.40    0.48
  -3  -1  -3    5.21    0.70
  -3  -1  -3    4.16    0.52
   3   1   3    5.20    0.66
   3   1   3    5.96    0.62
  -4  -1  -3   28.10    1.87
  -4  -1  -3   24.46    1.64
   4   1   3   26.16    1.78
   4   1   3   27.15    1.66
  -5  -1  -3    6.72    0.99
  -5  -1  -3    7.89    0.86
   5   1   3    7.26    0.82
   5   1   3    8.30    1.02
  -6  -1  -3    0.76    0.41
  -6  -1  -3   -0.08    0.47
   6   1   3   -0.27    0.28
  -7  -1  -3   12.03    1.26
  -7  -1  -3   13.43    1.57
   7   1   3   13.75    1.52
  -8  -1  -3    2.70    0.65
  -8  -1  -3    2.23    0.82
   8   1   3    3.93    0.88
  -9  -1  -3    2.78    0.72
  -9  -1  -3    3.26    0.92
   9   1   3    2.03    0.83
 -10  -1  -3    3.67    1.24
  10   1   3    4.79    1.13
 -11  -1  -3   -0.14    0.87
  11   1   3   -0.08    0.74
  10  -2  -3    1.68    0.98
 -10   2   3   -0.24    0.90
   9  -2  -3    0.28    0.64
  -9   2   3    0.85    0.84
   8  -2  -3    7.79    1.40
  -8   2   3    7.87    1.43
  -8   2   3    9.97    1.29
   7  -2  -3   -0.07    0.48
  -7   2   3   -0.17    0.52
  -7   2   3   -0.24    0.33
   6  -2  -3   11.32    1.43
  -6   2   3   13.21    1.33
  -6   2   3    6.86    1.24
   5  -2  -3   16.16    1.46
  -5   2   3   17.10    1.76
  -5   2   3   14.30    1.25
   4  -2  -3    1.13    0.52
   4  -2  -3    0.90    0.32
  -4   2   3    0.92    0.36
  -4   2   3    1.10    0.53
   3  -2  -3   46.47    2.69
   3  -2  -3   46.40    2.86
  -3   2   3   46.93    2.89
  -3   2   3   48.88    2.72
   1  -2  -3    1.75    0.32
   1  -2  -3    1.02    0.32
  -1   2   3    0.84    0.26
  -1   2   3    1.31    0.40
   0  -2  -3    0.92    0.25
   0  -2  -3    1.02    0.24
   0  -2  -3    1.36    0.34
   0   2   3    0.88    0.32
   0   2   3    1.35    0.33
  -1  -2  -3  103.72    5.36
  -1  -2  -3  101.17    5.44
   1   2   3  107.70    5.45
   1   2   3  106.59    5.48
   1   2   3   98.46    5.34
  -2  -2  -3   15.10    1.06
  -2  -2  -3   14.77    0.95
   2   2   3   15.65    1.03
   2   2   3   15.38    0.96
   2   2   3   13.36    1.04
  -3  -2  -3    6.11    0.73
  -3  -2  -3    7.20    0.60
   3   2   3    7.59    0.60
   3   2   3    5.28    0.66
  -4  -2  -3   17.15    1.34
  -4  -2  -3   19.13    1.22
   4   2   3   17.13    1.19
   4   2   3   17.62    1.30
  -5  -2  -3    5.77    0.72
  -5  -2  -3    6.78    0.90
   5   2   3    6.91    0.76
   5   2   3    5.20    0.79
  -6  -2  -3   25.00    1.85
  -6  -2  -3   22.67    1.63
   6   2   3   25.82    1.70
   6   2   3   21.27    1.73
  -7  -2  -3    7.12    0.92
  -7  -2  -3    6.36    1.06
   7   2   3    6.29    1.05
  -8  -2  -3    2.78    0.80
  -8  -2  -3    2.46    0.57
   8   2   3    0.87    0.56
  -9  -2  -3    5.92    0.96
  -9  -2  -3    3.94    0.95
   9   2   3    4.78    1.01
 -10  -2  -3    2.56    0.88
 -10  -2  -3    6.59    1.32
  10   2   3    7.49    1.28
  11   2   3    0.68    0.78
  10  -3  -3   13.53    2.17
 -10   3   3   13.73    2.29
   9  -3  -3    0.54    0.86
  -9   3   3    1.00    0.91
   8  -3  -3    3.50    1.00
  -8   3   3    4.29    1.18
   7  -3  -3    3.08    0.89
  -7   3   3    2.08    0.87
  -7   3   3    3.94    0.82
   6  -3  -3   10.95    1.47
  -6   3   3   10.39    1.20
  -6   3   3    8.27    1.33
   5  -3  -3   45.34    3.16
  -5   3   3   54.61    3.34
  -5   3   3   47.34    2.96
   4  -3  -3    6.24    0.94
  -4   3   3    5.99    0.79
  -4   3   3    5.71    0.95
   3  -3  -3   57.71    3.14
   3  -3  -3   55.59    3.33
  -3   3   3   57.32    3.18
  -3   3   3   51.22    3.32
   2  -3  -3  103.81    5.42
   2  -3  -3   93.23    5.52
  -2   3   3  102.41    5.42
  -2   3   3  111.17    5.64
   1  -3  -3   32.55    1.84
   1  -3  -3   31.64    1.94
  -1   3   3   32.37    2.01
  -1   3   3   31.87    1.85
   0  -3  -3    0.31    0.19
   0  -3  -3    0.76    0.30
   0   3   3    0.37    0.25
   0   3   3    0.50    0.20
   0   3   3    0.42    0.25
  -1  -3  -3  149.55    7.86
  -1  -3  -3  161.00    7.88
  -1  -3  -3  144.54    7.93
   1   3   3  161.76    7.97
   1   3   3  153.82    8.01
  -2  -3  -3  162.39    7.89
  -2  -3  -3  146.31    7.78
   2   3   3  149.53    7.79
   2   3   3  158.01    7.90
   2   3   3  146.43    7.90
  -3  -3  -3   68.39    3.67
  -3  -3  -3   68.14    3.77
   3   3   3   70.98    3.68
   3   3   3   69.95    3.78
  -4  -3  -3   44.36    2.65
  -4  -3  -3   47.07    2.55
   4   3   3   44.80    2.54
   4   3   3   45.65    2.66
  -5  -3  -3   63.61    3.33
  -5  -3  -3   55.07    3.46
   5   3   3   55.92    3.30
   5   3   3   65.06    3.50
  -6  -3  -3   50.12    3.15
  -6  -3  -3   51.59    3.00
   6   3   3   52.60    2.99
   6   3   3   52.92    3.17
  -7  -3  -3    8.78    1.00
  -7  -3  -3    8.19    1.13
   7   3   3    7.05    0.98
   7   3   3    7.63    1.06
  -8  -3  -3    0.25    0.40
  -8  -3  -3   -0.07    0.44
   8   3   3   -0.78    0.34
  -9  -3  -3    8.29    1.31
  -9  -3  -3    9.95    1.18
   9   3   3    7.31    1.22
 -10  -3  -3   -0.13    0.42
  10   3   3    0.87    0.71
  11   3   3    3.39    0.99
   9  -4  -3   -0.36    0.73
  -9   4   3    0.60    0.93
   8  -4  -3    0.11    0.72
  -8   4   3    0.92    0.85
   7  -4  -3    3.23    0.98
  -7   4   3    2.26    0.66
  -7   4   3    0.57    0.74
   6  -4  -3   60.29    3.97
  -6   4   3   62.33    3.72
  -6   4   3   58.76    4.04
   5  -4  -3    2.94    0.76
  -5   4   3    2.71    0.80
  -5   4   3    3.05    0.68
   4  -4  -3    1.14    0.58
  -4   4   3    0.93    0.40
  -4   4   3    0.88    0.53
   3  -4  -3   15.22    1.10
   3  -4  -3   14.52    1.29
  -3   4   3   14.19    1.13
  -3   4   3   13.64    1.33
   2  -4  -3   12.08    1.02
   2  -4  -3   12.01    0.90
  -2   4   3    9.75    0.89
  -2   4   3   13.17    1.10
  -1   4   3   16.44    1.25
  -1   4   3   16.33    1.09
   0  -4  -3   82.51    4.25
   0  -4  -3   77.17    4.13
   0   4   3   78.56    4.29
   0   4   3   77.25    4.16
  -1  -4  -3    2.69    0.40
  -1  -4  -3    2.75    0.35
   1   4   3    2.92    0.42
   1   4   3    3.20    0.49
  -2  -4  -3   78.30    4.10
  -2  -4  -3   81.14    4.06
  -2  -4  -3   74.60    4.05
   2   4   3   78.45    4.18
   2   4   3   80.33    4.08
   2   4   3   76.19    4.15
  -3  -4  -3   23.45    1.32
  -3  -4  -3   23.15    1.38
   3   4   3   22.53    1.41
   3   4   3   22.23    1.34
  -4  -4  -3    9.99    0.82
  -4  -4  -3   11.66    0.75
   4   4   3    9.04    0.80
   4   4   3    9.22    0.73
  -5  -4  -3    2.41    0.41
  -5  -4  -3    2.87    0.50
   5   4   3    2.32    0.41
   5   4   3    1.38    0.41
  -6  -4  -3    0.40    0.30
  -6  -4  -3    0.66    0.40
   6   4   3    0.22    0.36
   6   4   3    0.01    0.29
  -7  -4  -3    2.09    0.59
  -7  -4  -3    1.64    0.44
   7   4   3    0.12    0.39
   7   4   3    1.30    0.45
  -8  -4  -3    5.71    0.78
  -8  -4  -3    3.65    0.84
   8   4   3    5.02    0.91
  -9  -4  -3    5.09    0.84
   9   4   3    3.20    0.86
  10   4   3    9.65    1.39
  11   4   3    2.36    0.97
   9  -5  -3   14.00    2.20
  -9   5   3   14.61    2.22
   8  -5  -3    3.46    1.18
  -8   5   3    1.37    0.97
   7  -5  -3    1.98    0.85
  -7   5   3    0.90    0.78
   6  -5  -3   20.35    1.96
  -6   5   3   18.63    1.69
  -6   5   3   23.23    2.13
   5  -5  -3    0.43    0.49
  -5   5   3    0.24    0.39
  -5   5   3    0.65    0.62
   4  -5  -3    7.06    1.07
  -4   5   3    8.99    1.27
  -4   5   3    8.63    1.05
   3  -5  -3   66.01    3.97
  -3   5   3   65.22    4.07
  -3   5   3   69.05    3.82
   2  -5  -3    0.37    0.27
   2  -5  -3    0.19    0.34
  -2   5   3    0.15    0.27
  -2   5   3   -0.20    0.37
   1  -5  -3    0.58    0.24
   1  -5  -3    0.55    0.34
  -1   5   3    0.66    0.28
  -1   5   3    0.47    0.38
   0  -5  -3   84.24    4.43
   0   5   3   84.57    4.45
  -1  -5  -3   18.45    1.09
  -2  -5  -3   57.51    3.02
  -2  -5  -3   58.91    3.02
   2   5   3   60.67    3.15
   2   5   3   54.55    3.17
  -3  -5  -3    4.45    0.35
  -3  -5  -3    3.66    0.37
  -3  -5  -3    4.38    0.45
   3   5   3    3.73    0.40
   3   5   3    3.22    0.47
  -4  -5  -3    4.87    0.48
   4   5   3    5.29    0.60
   4   5   3    5.94    0.51
  -5  -5  -3   11.01    0.84
  -5  -5  -3   12.38    0.90
   5   5   3   15.41    1.04
   5   5   3   10.99    0.86
  -6  -5  -3   39.26    2.34
  -6  -5  -3   39.47    2.26
   6   5   3   40.81    2.43
   6   5   3   36.93    2.26
  -7  -5  -3    0.25    0.26
   7   5   3   -0.08    0.33
   7   5   3    0.04    0.27
  -8  -5  -3   21.22    1.57
   8   5   3   22.90    1.78
   9   5   3    0.42    0.52
  10   5   3   15.71    1.77
  11   5   3    4.54    1.10
   8  -6  -3    1.10    0.89
  -8   6   3   -0.09    0.72
   7  -6  -3   15.36    2.01
  -7   6   3   15.16    2.11
   6  -6  -3    3.69    1.02
  -6   6   3    3.68    1.05
   5  -6  -3    2.03    0.72
  -5   6   3    4.53    0.84
  -5   6   3    2.98    0.89
   4  -6  -3    0.16    0.45
  -4   6   3   -0.13    0.35
  -4   6   3   -0.25    0.47
   3  -6  -3    3.50    0.76
  -3   6   3    3.26    0.61
  -3   6   3    3.93    0.89
   2  -6  -3   10.90    1.17
  -2   6   3   10.59    1.29
  -2   6   3    9.99    1.02
   1  -6  -3    0.13    0.31
   1  -6  -3    0.03    0.24
  -1   6   3    0.10    0.25
  -1   6   3    0.62    0.45
   0  -6  -3   14.10    0.98
   0  -6  -3   15.18    1.06
   0   6   3   14.24    1.17
   0   6   3   15.64    1.01
  -1  -6  -3   20.62    1.17
  -1  -6  -3   19.36    1.14
   1   6   3   18.05    1.31
   1   6   3   19.44    1.18
  -2  -6  -3   22.82    1.28
   2   6   3   26.54    1.57
   2   6   3   23.23    1.48
   3   6   3    0.00    0.20
   3   6   3    0.23    0.25
  -4  -6  -3    6.94    0.46
   4   6   3    7.38    0.62
   4   6   3    7.56    0.55
  -5  -6  -3   17.29    1.04
   5   6   3   17.14    1.19
   5   6   3   17.32    1.10
  -6  -6  -3    0.17    0.23
   6   6   3   -0.35    0.19
   6   6   3    0.26    0.29
   7   6   3    8.05    0.96
   8   6   3    4.54    0.79
   9   6   3   22.98    1.87
  10   6   3    6.90    1.17
  11   6   3    1.22    0.75
  -7   7   3   -0.13    0.81
  -6   7   3    1.23    0.88
  -5   7   3   -0.22    0.65
  -4   7   3    0.03    0.38
  -4   7   3    0.31    0.59
   3  -7  -3    1.74    0.62
  -3   7   3    1.12    0.62
  -3   7   3    1.29    0.49
   2  -7  -3   17.19    1.89
  -2   7   3   15.56    1.25
  -2   7   3   16.97    1.52
   1  -7  -3   -0.11    0.46
   1  -7  -3    0.37    0.29
  -1   7   3    0.46    0.30
  -1   7   3    0.79    0.48
   0  -7  -3   21.04    1.27
   0   7   3   18.65    1.28
   0   7   3   20.67    1.51
  -1  -7  -3   22.04    1.21
  -1  -7  -3   20.24    1.17
   1   7   3   18.87    1.23
   1   7   3   19.81    1.41
   2   7   3    7.28    0.69
   3   7   3    2.78    0.40
   4   7   3   75.50    3.96
   5   7   3   11.70    0.84
   6   7   3    7.19    0.76
   7   7   3    6.04    0.77
   8   7   3    5.12    0.79
   9   7   3    8.85    1.15
  10   7   3    4.04    0.92
  11   7   3    4.92    1.08
  -6   8   3   -0.06    0.78
  -5   8   3   12.40    1.86
  -4   8   3   11.99    1.67
  -4   8   3    9.18    1.32
  -3   8   3   12.66    1.62
  -3   8   3   12.91    1.33
  -2   8   3    5.44    1.00
  -2   8   3    6.08    0.82
  -1   8   3    0.91    0.35
  -1   8   3    0.89    0.56
   0   8   3   52.19    3.15
   0   8   3   51.84    2.90
   1   8   3   28.07    1.64
   1   8   3   28.10    1.84
   2   8   3   -0.11    0.26
   3   8   3   48.08    2.67
   7   8   3    1.47    0.39
   8   8   3   22.33    1.60
   9   8   3    0.16    0.44
  10   8   3    1.06    0.61
  -5   9   3    2.72    1.12
  -4   9   3   -0.24    0.71
  -3   9   3   10.25    1.56
  -3   9   3   12.47    1.31
  -2   9   3   -0.01    0.36
  -2   9   3   -0.60    0.45
  -1   9   3    2.21    0.52
  -1   9   3    3.52    0.84
   0   9   3   23.62    1.50
   0   9   3   21.63    1.74
   1   9   3   -0.32    0.34
   2   9   3    7.41    0.89
  -3  10   3    1.48    0.84
  -2  10   3   -0.66    0.61
  -1  10   3    2.57    0.80
   0  10   3    0.00    0.51
   1  10   3   -0.31    0.41
  -1  11   3    4.16    1.03
   2   8  -4    7.17    1.08
   1   8  -4   10.55    1.40
   0   8  -4   12.06    1.55
  -1   8  -4    1.23    0.84
  -2   8  -4    0.79    0.75
   6   7  -4    9.23    1.21
   5   7  -4   13.82    1.44
   4   7  -4    3.24    0.72
   3   7  -4    6.75    0.94
   2   7  -4    4.25    0.82
   1   7  -4    2.52    0.71
   0   7  -4    0.21    0.55
   0   7  -4   -0.23    0.33
  -1   7  -4    2.85    0.85
  -1   7  -4    1.96    0.58
  -2   7  -4    2.06    0.95
  -3   7  -4    0.46    0.71
  -4   7  -4    8.40    1.55
   9   6  -4    2.70    0.89
   8   6  -4    0.79    0.64
   7   6  -4    0.54    0.57
   6   6  -4    4.86    0.91
   5   6  -4    0.24    0.46
   4   6  -4    0.25    0.28
   4   6  -4   -0.33    0.41
   3   6  -4    0.08    0.44
   3   6  -4    0.61    0.29
   2   6  -4    0.46    0.30
   2   6  -4    0.13    0.45
   1   6  -4    5.86    0.96
   1   6  -4    5.12    0.68
   0   6  -4    2.54    0.55
   0   6  -4    2.31    0.70
  -1   6  -4    2.33    0.76
  -1   6  -4    2.26    0.56
  -2   6  -4    0.63    0.61
  -2   6  -4    1.51    0.54
  -3   6  -4    9.09    1.46
  -3   6  -4    6.75    1.15
  -4   6  -4   -0.72    0.62
  -5   6  -4    5.57    1.29
  10   5  -4    4.59    1.08
   9   5  -4    1.37    0.82
   8   5  -4    2.59    0.83
   8   5  -4    3.11    0.67
   7   5  -4    4.38    0.88
   7   5  -4    4.36    0.73
   6   5  -4    8.46    0.94
   6   5  -4   13.31    1.39
   5   5  -4    3.47    0.76
   5   5  -4    3.39    0.57
   4   5  -4   20.13    1.40
   4   5  -4   22.76    1.66
   3   5  -4    6.78    0.91
   3   5  -4    6.50    0.71
   2   5  -4    9.77    0.82
   2   5  -4    9.92    1.13
   2   5  -4    8.77    1.18
   1   5  -4   19.32    1.59
   1   5  -4   19.61    1.34
  -1  -5   4   20.16    1.48
   0   5  -4   -0.28    0.24
   0   5  -4    0.26    0.46
  -1   5  -4    5.87    1.00
  -1   5  -4    6.68    0.83
  -2   5  -4   28.68    2.04
  -2   5  -4   34.85    2.45
  -3   5  -4    1.70    0.57
  -3   5  -4    0.42    0.57
  -4   5  -4    9.21    1.20
  -4   5  -4   10.82    1.59
  -5   5  -4    2.64    0.95
  -6   5  -4    0.31    0.78
  10   4  -4    0.84    0.79
   9   4  -4    4.19    1.04
   8   4  -4    3.51    0.91
   7   4  -4    1.84    0.68
   6   4  -4   12.37    1.11
   6   4  -4   15.02    1.37
   5   4  -4    6.67    0.77
   5   4  -4    5.76    0.89
   4   4  -4    3.00    0.69
   4   4  -4    2.46    0.49
   4   4  -4    3.45    0.52
   3   4  -4   14.63    1.07
   3   4  -4   13.50    1.25
   3   4  -4   14.67    1.08
  -3  -4   4   14.96    1.08
   2   4  -4   13.35    1.02
   2   4  -4   14.76    1.20
   2   4  -4   11.69    0.97
  -2  -4   4   13.04    0.99
   1   4  -4    8.06    0.82
   1   4  -4    7.33    0.97
  -1  -4   4    7.35    0.77
  -1  -4   4    8.03    0.83
   0   4  -4    0.71    0.32
   0   4  -4    1.06    0.53
   0  -4   4    0.61    0.34
   0  -4   4    0.29    0.30
  -1   4  -4   -0.08    0.28
  -1   4  -4   -0.38    0.40
   1  -4   4    0.16    0.31
  -2   4  -4   34.18    2.29
  -2   4  -4   40.20    2.62
   2  -4   4   36.23    2.39
  -3   4  -4   -0.18    0.50
  -3   4  -4    0.23    0.36
   3  -4   4   -0.26    0.35
  -4   4  -4    1.23    0.53
  -4   4  -4    1.56    0.73
   4  -4   4    1.59    0.58
  -5   4  -4    0.78    0.74
  -5   4  -4    0.23    0.51
   5  -4   4    0.12    0.49
  -6   4  -4    0.26    0.66
   6  -4   4    0.79    0.66
  -7   4  -4    0.10    0.67
   7  -4   4    1.02    0.78
  10   3  -4   27.61    2.54
   9   3  -4    0.68    0.66
   8   3  -4   10.52    1.48
   7   3  -4   14.60    1.60
  -7  -3   4   14.91    1.25
   6   3  -4    0.45    0.46
  -6  -3   4    0.06    0.44
   5   3  -4   62.54    3.36
   5   3  -4   58.21    3.38
   5   3  -4   54.27    3.56
  -5  -3   4   60.90    3.53
   4   3  -4    1.73    0.43
   4   3  -4    1.33    0.52
   4   3  -4    1.42    0.38
  -4  -3   4    1.70    0.52
   3   3  -4   34.89    2.01
   3   3  -4   31.22    2.19
   3   3  -4   33.58    2.00
  -3  -3   4   33.04    2.11
   2   3  -4    5.28    0.65
   2   3  -4    5.02    0.76
   2   3  -4    5.88    0.65
  -2  -3   4    6.93    0.75
   1   3  -4   23.24    1.48
   0   3  -4    3.99    0.55
   0   3  -4    4.60    0.79
   0  -3   4    4.31    0.64
   0  -3   4    5.59    0.66
  -1   3  -4   40.31    2.43
  -1   3  -4   44.66    2.67
   1  -3   4   40.52    2.46
   1  -3   4   40.47    2.52
  -2   3  -4    0.42    0.50
  -2   3  -4   -0.09    0.28
   2  -3   4    0.02    0.34
  -3   3  -4    6.81    0.85
  -3   3  -4    4.12    0.87
   3  -3   4    5.78    0.86
  -4   3  -4   25.21    1.73
  -4   3  -4   21.64    1.94
   4  -3   4   21.19    1.76
  -5   3  -4    1.92    0.75
  -5   3  -4    1.81    0.59
   5  -3   4    2.82    0.75
  -6   3  -4    5.23    1.04
  -6   3  -4    6.81    1.26
   6  -3   4    6.18    1.13
  -7   3  -4    3.80    1.08
   7  -3   4    1.57    0.74
  -8   3  -4    1.97    0.98
   8  -3   4    2.63    1.00
  11   2  -4    3.15    1.14
  10   2  -4    1.37    0.89
   9   2  -4    0.89    0.68
   8   2  -4   22.12    1.97
  -8  -2   4   21.18    2.01
  -8  -2   4   17.85    1.57
   7   2  -4    5.17    1.02
  -7  -2   4    5.17    1.03
  -7  -2   4    6.21    0.88
   6   2  -4    8.24    1.18
   6   2  -4    8.54    0.97
  -6  -2   4    9.82    1.24
  -6  -2   4    9.09    1.00
   5   2  -4   21.21    1.69
   5   2  -4   22.00    1.47
  -5  -2   4   20.34    1.68
  -5  -2   4   21.33    1.49
   4   2  -4    1.86    0.58
   4   2  -4    3.00    0.51
  -4  -2   4    2.38    0.62
   3   2  -4    0.01    0.23
   3   2  -4   -0.21    0.22
   3   2  -4    0.32    0.37
  -3  -2   4    0.17    0.35
   2   2  -4    0.17    0.24
   2   2  -4    0.11    0.23
   2   2  -4   -0.12    0.31
  -2  -2   4   -0.12    0.28
  -1  -2   4    3.38    0.52
  -1  -2   4    3.59    0.47
   0   2  -4   30.33    1.95
   0   2  -4   27.21    1.75
   0  -2   4   31.62    1.79
   0  -2   4   27.33    1.84
  -1   2  -4   54.87    3.27
  -1   2  -4   54.01    3.06
   1  -2   4   51.80    3.08
   1  -2   4   57.86    3.20
  -2   2  -4    0.37    0.48
  -2   2  -4    0.39    0.32
   2  -2   4    0.76    0.35
   2  -2   4    0.54    0.35
  -3   2  -4    3.04    0.73
  -3   2  -4    3.67    0.65
   3  -2   4    3.20    0.68
  -4   2  -4   10.44    1.12
  -4   2  -4   12.11    1.49
   4  -2   4   10.35    1.25
  -5   2  -4   16.27    1.40
  -5   2  -4   19.92    1.77
   5  -2   4   16.86    1.54
  -6   2  -4    0.08    0.61
  -6   2  -4    0.03    0.35
   6  -2   4   -0.67    0.32
  -7   2  -4    2.88    1.01
   7  -2   4    1.76    0.71
  -8   2  -4   13.96    2.06
   8  -2   4   13.35    1.83
  -9   2  -4    2.24    1.02
   9  -2   4    3.80    1.19
  11   1  -4    9.26    1.78
   9   1  -4    2.78    0.98
  -9  -1   4    3.31    0.80
  -9  -1   4    2.20    0.90
   8   1  -4    0.57    0.59
  -8  -1   4    1.82    0.59
  -8  -1   4    2.27    0.87
   7   1  -4    7.13    1.19
  -7  -1   4    6.89    1.20
  -7  -1   4    5.69    0.88
   6   1  -4    1.73    0.63
  -6  -1   4    3.03    0.59
  -6  -1   4    2.16    0.72
   5   1  -4    0.31    0.33
   5   1  -4   -0.13    0.40
  -5  -1   4    0.20    0.52
  -5  -1   4    1.15    0.41
   4   1  -4    2.80    0.62
   4   1  -4    2.85    0.50
  -4  -1   4    3.54    0.72
  -4  -1   4    2.95    0.53
   3   1  -4   42.42    2.37
   3   1  -4   40.93    2.54
  -3  -1   4   37.89    2.54
   2   1  -4    0.32    0.24
   2   1  -4    0.47    0.37
   2   1  -4    0.23    0.26
  -2  -1   4    0.01    0.32
   1   1  -4    0.87    0.35
   1   1  -4    0.34    0.24
  -1  -1   4    0.93    0.39
   0   1  -4  131.19    6.91
   0   1  -4  112.28    6.71
   0  -1   4  136.44    6.85
   0  -1   4  137.88    6.93
   0  -1   4  130.99    6.76
  -1   1  -4    0.45    0.34
  -1   1  -4    0.24    0.24
   1  -1   4    0.37    0.25
   1  -1   4    0.20    0.27
  -2   1  -4   56.38    3.25
  -2   1  -4   57.54    3.44
   2  -1   4   59.79    3.29
   2  -1   4   60.29    3.41
  -3   1  -4   15.95    1.40
  -3   1  -4   12.19    1.08
   3  -1   4   14.61    1.14
   3  -1   4   17.50    1.29
  -4   1  -4    2.22    0.68
  -4   1  -4    0.94    0.40
   4  -1   4    2.63    0.62
  -5   1  -4   16.66    1.39
  -5   1  -4   18.44    1.73
   5  -1   4   17.81    1.57
  -6   1  -4   14.96    1.47
  -6   1  -4   11.67    1.61
   6  -1   4   12.05    1.51
  -7   1  -4    1.12    0.76
  -7   1  -4    0.33    0.41
   7  -1   4    1.75    0.69
  -8   1  -4    1.92    0.83
   8  -1   4    2.23    0.87
  -9   1  -4    3.50    1.13
   9  -1   4    1.35    0.86
 -10   1  -4    6.21    1.48
  10  -1   4    6.78    1.39
  11   0  -4    1.18    0.89
  10   0  -4   17.48    2.35
 -10   0   4   18.94    2.48
   9   0  -4    8.69    1.52
  -9   0   4    5.89    1.06
  -9   0   4    7.22    1.44
   8   0  -4    0.11    0.56
  -8   0   4    0.05    0.63
  -8   0   4    0.46    0.50
   7   0  -4   20.13    1.91
  -7   0   4   23.50    2.02
  -7   0   4   22.29    1.69
   6   0  -4   16.36    1.57
  -6   0   4   16.74    1.39
  -6   0   4   19.31    1.75
   5   0  -4    9.11    0.95
   5   0  -4    7.31    1.08
  -5   0   4    9.59    1.22
  -5   0   4    8.95    0.96
   4   0  -4    0.39    0.28
   4   0  -4    0.03    0.32
  -4   0   4    0.23    0.28
  -4   0   4    0.24    0.38
   3   0  -4    7.66    0.77
   3   0  -4    5.62    0.80
  -3   0   4    8.47    0.73
  -3   0   4    7.81    0.98
   2   0  -4   30.98    1.94
   2   0  -4   29.18    1.78
   2   0  -4   25.78    1.78
  -2   0   4   33.59    2.04
   1   0  -4  163.63    8.99
   1   0  -4  169.74    9.15
   1   0  -4  185.66    9.03
  -1   0   4  179.85    9.17
   0   0  -4    8.98    0.74
   0   0  -4   10.10    0.92
   0   0   4    9.33    0.75
   0   0   4    8.99    0.86
  -1   0  -4  112.82    6.11
  -1   0  -4  118.33    6.29
   1   0   4  115.10    6.14
   1   0   4  121.46    6.24
  -2   0  -4   36.81    2.15
  -2   0  -4   37.19    2.34
   2   0   4   35.51    2.25
   2   0   4   37.45    2.17
  -3   0  -4    0.28    0.38
  -3   0  -4    0.31    0.26
   3   0   4    0.59    0.36
   3   0   4    0.93    0.33
  -4   0  -4   12.15    1.01
  -4   0  -4   12.08    1.37
   4   0   4   10.56    1.19
   4   0   4   12.13    1.02
  -5   0  -4   18.13    1.64
  -5   0  -4   18.76    1.40
   5   0   4   16.89    1.53
  -6   0  -4    0.30    0.54
  -6   0  -4   -0.11    0.38
   6   0   4    1.14    0.52
  -7   0  -4   12.58    1.60
  -7   0  -4   11.16    1.26
   7   0   4    9.14    1.32
  -8   0  -4    2.51    0.73
  -8   0  -4    2.40    0.85
   8   0   4    1.41    0.70
  -9   0  -4    0.25    0.70
   9   0   4   -0.03    0.61
 -10   0  -4    0.79    0.92
  10   0   4    0.02    0.64
  10  -1  -4    4.87    1.26
 -10   1   4    3.83    1.29
   9  -1  -4   16.05    2.20
  -9   1   4   20.08    2.14
  -9   1   4   20.13    2.40
   8  -1  -4    2.59    0.87
  -8   1   4    2.57    0.92
  -8   1   4    2.02    0.63
   7  -1  -4    4.85    1.07
  -7   1   4    5.80    1.21
  -7   1   4    8.17    1.07
   6  -1  -4    3.50    0.87
  -6   1   4    3.16    0.67
  -6   1   4    3.02    0.87
   5  -1  -4    3.32    0.79
  -5   1   4    2.53    0.78
  -5   1   4    2.70    0.61
   4  -1  -4    8.35    1.06
   4  -1  -4    8.63    0.91
  -4   1   4    6.98    0.82
  -4   1   4    6.26    0.98
   3  -1  -4   37.94    2.40
   3  -1  -4   39.03    2.26
  -3   1   4   40.20    2.28
  -3   1   4   34.06    2.44
   2  -1  -4   17.78    1.34
   2  -1  -4   17.51    1.20
  -2   1   4   17.69    1.23
  -2   1   4   18.82    1.41
   1  -1  -4   54.78    3.03
   1  -1  -4   54.83    3.03
   1  -1  -4   54.98    3.18
  -1   1   4   54.73    3.21
   0  -1  -4   26.78    1.60
   0  -1  -4   26.31    1.72
   0   1   4   25.93    1.58
   0   1   4   27.14    1.74
  -1  -1  -4   32.64    1.88
  -1  -1  -4   30.81    2.01
   1   1   4   34.36    1.89
   1   1   4   30.08    2.00
  -3  -1  -4    0.21    0.36
  -3  -1  -4    0.48    0.27
   3   1   4   -0.29    0.23
   3   1   4    0.45    0.28
  -4  -1  -4   24.90    1.83
  -4  -1  -4   26.24    1.66
   4   1   4   23.87    1.74
   4   1   4   24.24    1.62
  -5  -1  -4    7.60    1.11
  -5  -1  -4    7.88    0.89
   5   1   4    9.49    1.11
  -6  -1  -4    0.25    0.51
  -6  -1  -4    0.43    0.42
   6   1   4    0.22    0.38
  -7  -1  -4    5.09    1.00
  -7  -1  -4    5.47    0.88
   7   1   4    3.61    0.84
  -8  -1  -4    2.30    0.69
  -8  -1  -4    1.65    0.70
   8   1   4   -0.18    0.37
  -9  -1  -4    0.60    0.80
  -9  -1  -4    0.53    0.53
   9   1   4    1.38    0.67
 -10  -1  -4    0.90    0.80
  10   1   4    1.19    0.77
  10  -2  -4    7.88    1.64
 -10   2   4    8.53    1.78
   9  -2  -4    3.12    1.11
  -9   2   4    5.12    1.40
   8  -2  -4   16.92    2.17
  -8   2   4   17.70    1.82
  -8   2   4   21.04    2.43
   7  -2  -4   10.17    1.56
  -7   2   4    9.31    1.23
  -7   2   4   12.49    1.68
   6  -2  -4    0.62    0.54
  -6   2   4    0.18    0.38
  -6   2   4    0.16    0.54
   5  -2  -4   20.04    1.73
  -5   2   4   21.72    1.55
  -5   2   4   17.99    2.00
   4  -2  -4   13.84    1.45
   4  -2  -4   14.51    1.12
  -4   2   4   14.17    1.15
  -4   2   4   13.08    1.51
   3  -2  -4   45.07    2.90
   3  -2  -4   49.67    2.75
  -3   2   4   45.23    2.97
  -3   2   4   48.96    2.75
   2  -2  -4    2.21    0.42
   2  -2  -4    1.88    0.48
  -2   2   4    4.14    0.73
  -2   2   4    2.86    0.49
   1  -2  -4    3.89    0.49
   1  -2  -4    4.29    0.62
  -1   2   4    3.36    0.65
  -1   2   4    4.23    0.55
   0  -2  -4   86.53    4.79
   0  -2  -4   95.61    4.82
   0  -2  -4   91.27    4.94
   0   2   4   90.58    5.00
  -1  -2  -4   97.36    5.07
  -1  -2  -4   92.66    4.92
   1   2   4  100.64    4.92
   1   2   4   82.38    5.02
  -2  -2  -4    0.10    0.33
  -2  -2  -4   -0.02    0.22
   2   2   4   -0.38    0.19
   2   2   4    0.28    0.27
   2   2   4   -0.46    0.26
  -3  -2  -4  113.96    6.41
  -3  -2  -4  116.63    6.26
   3   2   4  128.12    6.29
   3   2   4  118.98    6.41
  -4  -2  -4   27.68    1.77
  -4  -2  -4   22.42    1.52
   4   2   4   21.16    1.63
   4   2   4   25.42    1.57
  -5  -2  -4    5.14    0.73
  -5  -2  -4    6.42    0.94
   5   2   4    8.27    1.01
   5   2   4    6.38    0.80
  -6  -2  -4   28.39    2.13
  -6  -2  -4   28.21    1.87
   6   2   4   25.45    1.99
  -7  -2  -4   23.45    1.91
  -7  -2  -4   19.51    1.60
   7   2   4   22.89    1.85
  -8  -2  -4   75.81    4.71
  -8  -2  -4   77.41    4.44
   8   2   4   72.23    4.65
  -9  -2  -4   -0.06    0.63
  -9  -2  -4    0.27    0.49
   9   2   4    0.53    0.55
 -10  -2  -4    1.86    0.87
  10   2   4    1.00    0.78
  11   2   4    1.28    0.86
  10  -3  -4    0.79    0.93
 -10   3   4    1.12    1.05
   9  -3  -4   -0.50    0.51
  -9   3   4   -0.57    0.74
   8  -3  -4    2.64    0.96
  -8   3   4    1.70    0.95
  -7   3   4    6.95    1.10
  -7   3   4    7.76    1.39
   5  -3  -4    9.45    1.34
  -5   3   4   13.17    1.13
  -5   3   4   13.07    1.59
   4  -3  -4   -0.31    0.43
  -4   3   4   -0.33    0.25
  -4   3   4   -0.91    0.45
   3  -3  -4    7.61    0.97
   3  -3  -4    7.82    0.83
  -3   3   4    7.42    0.84
  -3   3   4    6.76    1.00
   2  -3  -4   42.88    2.50
   2  -3  -4   41.48    2.64
  -2   3   4   46.08    2.76
  -2   3   4   43.87    2.52
   1  -3  -4   13.08    0.90
   1  -3  -4   12.31    1.03
  -1   3   4   11.22    0.90
  -1   3   4   10.16    1.14
   0  -3  -4   29.04    1.75
   0  -3  -4   28.91    1.87
   0  -3  -4   29.12    1.73
   0   3   4   31.22    1.92
  -1  -3  -4   -0.12    0.18
  -1  -3  -4   -0.07    0.27
   1   3   4    0.24    0.19
   1   3   4   -0.36    0.24
  -2  -3  -4    7.89    0.65
  -2  -3  -4    8.37    0.85
   2   3   4    7.04    0.62
   2   3   4    7.54    0.85
  -3  -3  -4  123.26    6.51
  -3  -3  -4  129.22    6.39
   3   3   4  123.53    6.52
   3   3   4  112.95    6.37
  -4  -3  -4    9.67    0.94
  -4  -3  -4   10.12    0.82
   4   3   4    9.52    0.82
   4   3   4   11.80    0.95
  -5  -3  -4   70.86    4.05
  -5  -3  -4   67.50    3.85
   5   3   4   70.86    3.86
   5   3   4   68.53    4.01
  -6  -3  -4   18.29    1.31
  -6  -3  -4   15.57    1.51
   6   3   4   18.55    1.35
   6   3   4   17.35    1.51
  -7  -3  -4    1.99    0.53
  -7  -3  -4    0.84    0.57
   7   3   4    1.66    0.59
  -8  -3  -4    7.26    1.11
  -8  -3  -4    5.05    0.86
   8   3   4    5.63    1.04
  -9  -3  -4   12.92    1.71
  -9  -3  -4   12.27    1.37
   9   3   4   12.54    1.65
 -10  -3  -4    3.51    0.82
  10   3   4    1.60    0.76
  11   3   4    2.24    0.94
   9  -4  -4   -0.38    0.65
  -9   4   4    0.41    0.93
   8  -4  -4   -0.64    0.59
  -8   4   4   -0.81    0.66
   7  -4  -4    0.69    0.62
  -7   4   4   -0.78    0.57
  -7   4   4    1.50    0.57
   6  -4  -4   12.77    1.65
  -6   4   4   14.84    1.50
  -6   4   4   10.11    1.59
   5  -4  -4   33.90    2.68
  -5   4   4   44.39    2.92
  -5   4   4   36.72    2.46
   4  -4  -4   20.68    1.73
  -4   4   4   18.08    1.75
  -4   4   4   19.97    1.51
   3  -4  -4   27.59    1.98
  -3   4   4   25.82    1.79
  -3   4   4   29.73    2.11
   2  -4  -4    1.46    0.45
   2  -4  -4    1.79    0.38
  -2   4   4    1.28    0.52
  -2   4   4    2.11    0.44
   1  -4  -4   10.07    0.99
   1  -4  -4   12.84    0.89
  -1   4   4   11.18    1.07
  -1   4   4   11.72    0.89
   0  -4  -4   31.24    2.06
   0  -4  -4   31.80    1.97
   0  -4  -4   35.35    1.96
   0   4   4   37.96    2.01
   0   4   4   33.66    2.15
  -1  -4  -4    0.36    0.22
  -1  -4  -4    0.31    0.22
  -1  -4  -4   -0.01    0.27
   1   4   4    0.43    0.33
  -2  -4  -4   98.29    5.05
  -2  -4  -4   97.05    4.95
   2   4   4   93.43    4.95
   2   4   4   88.32    5.09
  -3  -4  -4   12.37    0.88
  -3  -4  -4   12.53    0.99
   3   4   4   12.93    0.98
   3   4   4   14.02    1.08
   3   4   4   12.88    0.91
  -4  -4  -4    9.98    0.89
  -4  -4  -4   10.84    0.80
   4   4   4    9.81    0.80
   4   4   4   10.36    0.92
  -5  -4  -4    3.87    0.55
  -5  -4  -4    2.44    0.57
   5   4   4    4.03    0.55
   5   4   4    4.26    0.66
  -6  -4  -4    3.84    0.58
  -6  -4  -4    4.84    0.79
  -7  -4  -4   -0.22    0.28
  -7  -4  -4    0.32    0.42
   7   4   4    0.28    0.40
  -8  -4  -4    3.94    0.87
  -8  -4  -4    3.11    0.63
   8   4   4    3.21    0.79
  -9  -4  -4    4.66    0.87
   9   4   4    7.75    1.23
  10   4   4    1.10    0.68
  11   4   4    1.50    0.81
   9  -5  -4   16.25    2.28
  -9   5   4   16.71    2.51
   8  -5  -4    0.22    0.71
  -8   5   4   -0.06    0.86
   7  -5  -4    5.14    1.18
  -7   5   4    7.36    1.45
   6  -5  -4   13.51    1.80
  -6   5   4   12.64    1.50
  -6   5   4   11.70    1.73
   5  -5  -4   18.23    1.72
  -5   5   4   17.17    1.49
  -5   5   4   20.42    2.19
   4  -5  -4   16.32    1.49
  -4   5   4   10.35    1.48
  -4   5   4   13.09    1.35
   3  -5  -4   44.01    2.92
  -3   5   4   45.30    2.73
  -3   5   4   46.00    3.04
   2  -5  -4   30.82    1.93
   2  -5  -4   31.61    2.10
  -2   5   4   34.70    2.00
  -2   5   4   27.16    2.14
   1  -5  -4    9.79    1.04
   1  -5  -4    8.68    0.76
  -1   5   4    9.46    1.08
  -1   5   4    8.22    0.84
   0  -5  -4    0.23    0.30
   0  -5  -4    0.35    0.24
   0   5   4    0.11    0.23
   0   5   4    0.00    0.34
  -1  -5  -4    7.37    0.69
  -1  -5  -4    7.75    0.62
  -1  -5  -4    7.73    0.64
   1   5   4    9.08    0.84
  -2  -5  -4    1.11    0.32
  -2  -5  -4    0.90    0.25
  -2  -5  -4    0.75    0.24
   2   5   4    1.35    0.40
  -3  -5  -4   16.01    1.05
  -3  -5  -4   15.74    0.99
   3   5   4   15.37    1.01
   3   5   4   14.02    1.14
  -4  -5  -4   11.48    0.85
  -4  -5  -4   14.43    0.98
   4   5   4   11.04    0.89
   4   5   4   12.59    1.01
  -5  -5  -4   21.91    1.49
  -5  -5  -4   21.62    1.37
   5   5   4   21.25    1.54
   5   5   4   22.26    1.41
  -6  -5  -4    7.35    0.87
  -6  -5  -4    5.77    0.72
   6   5   4    6.78    0.90
   6   5   4    9.77    0.81
  -7  -5  -4    1.95    0.57
  -7  -5  -4    1.67    0.44
   7   5   4    1.14    0.48
  -8  -5  -4   15.00    1.24
   8   5   4   13.77    1.52
   9   5   4    1.11    0.59
  10   5   4    1.18    0.68
  11   5   4   -0.86    0.49
   8  -6  -4    0.04    0.86
  -8   6   4    0.76    1.01
   7  -6  -4    6.25    1.34
  -7   6   4    4.12    1.24
   6  -6  -4    4.81    1.18
  -6   6   4    5.81    1.30
   5  -6  -4    9.77    1.44
  -5   6   4   11.76    1.70
  -5   6   4    9.29    1.24
   4  -6  -4   14.82    1.68
  -4   6   4   17.01    1.40
  -4   6   4   16.68    1.95
   2  -6  -4    0.51    0.44
  -2   6   4   -0.26    0.26
  -2   6   4   -0.27    0.46
   1  -6  -4    0.66    0.42
   1  -6  -4    0.74    0.32
  -1   6   4    0.63    0.32
  -1   6   4    1.64    0.57
   0  -6  -4    2.25    0.48
   0  -6  -4    2.94    0.43
   0   6   4    2.16    0.43
   0   6   4    2.33    0.59
  -1  -6  -4   18.99    1.21
  -1  -6  -4   18.95    1.26
  -1  -6  -4   20.57    1.21
   1   6   4   19.29    1.42
  -2  -6  -4    3.08    0.39
  -2  -6  -4    3.22    0.38
   2   6   4    2.25    0.51
  -3  -6  -4   24.90    1.40
  -3  -6  -4   23.69    1.39
   3   6   4   24.68    1.60
  -4  -6  -4    3.61    0.42
   4   6   4    3.23    0.52
   4   6   4    3.15    0.43
  -5  -6  -4   11.98    0.88
   5   6   4   14.96    1.10
   5   6   4   12.07    0.94
  -6  -6  -4   13.61    1.01
   6   6   4   13.82    1.19
   6   6   4   14.90    1.07
   7   6   4   17.49    1.43
   8   6   4    0.36    0.42
   9   6   4    1.26    0.60
  10   6   4    9.30    1.36
  11   6   4    0.77    0.71
  -7   7   4   -0.07    0.92
  -6   7   4   19.76    2.45
   5  -7  -4    3.97    1.10
  -5   7   4    2.61    0.99
   4  -7  -4    0.94    0.63
  -4   7   4    1.63    0.56
  -4   7   4    1.89    0.85
   3  -7  -4    4.09    0.81
  -3   7   4    4.18    1.00
  -3   7   4    3.89    0.70
   2  -7  -4   48.82    2.98
  -2   7   4   50.30    3.20
  -2   7   4   43.77    2.80
   1  -7  -4    7.67    0.90
  -1   7   4    6.60    1.02
  -1   7   4    5.95    0.74
   0  -7  -4   18.92    1.18
   0  -7  -4   17.60    1.28
   0   7   4   16.03    1.19
   0   7   4   16.74    1.43
  -1  -7  -4    6.25    0.55
  -1  -7  -4    6.29    0.61
   1   7   4    6.17    0.81
  -2  -7  -4    4.20    0.43
  -2  -7  -4    4.73    0.45
   2   7   4    4.85    0.68
  -3  -7  -4   38.82    2.07
   3   7   4   40.22    2.33
  -4  -7  -4    6.63    0.46
   4   7   4    6.76    0.71
  -5  -7  -4   16.05    1.08
   5   7   4   17.33    1.08
   5   7   4   15.79    1.17
   6   7   4   35.28    2.19
   7   7   4   15.78    1.27
   8   7   4    0.85    0.45
   9   7   4   10.81    1.29
  10   7   4    0.49    0.58
  11   7   4    1.31    0.72
  -6   8   4    1.94    1.18
  -5   8   4   17.11    2.23
  -4   8   4    0.62    0.78
  -4   8   4    0.47    0.55
  -3   8   4    3.11    0.91
  -3   8   4    2.73    0.64
  -2   8   4   31.51    2.42
  -2   8   4   30.73    2.04
  -1   8   4    1.63    0.43
  -1   8   4    1.26    0.58
   0  -8  -4   13.73    1.06
   0   8   4   15.48    1.33
   0   8   4   12.27    1.02
   1   8   4    3.23    0.63
   2   8   4   10.06    0.93
   3   8   4    7.61    0.72
   4   8   4    6.98    0.62
   5   8   4    2.12    0.39
   6   8   4   10.52    0.88
   7   8   4    8.91    0.95
   8   8   4    1.27    0.48
   9   8   4    2.59    0.69
  10   8   4    1.83    0.70
  -5   9   4    0.12    0.82
  -4   9   4    4.85    1.27
  -3   9   4   23.89    1.83
  -3   9   4   22.04    2.15
  -2   9   4    2.90    0.89
  -2   9   4    2.19    0.59
  -1   9   4    5.68    0.76
  -1   9   4    5.46    1.00
   0   9   4    7.72    0.85
   0   9   4    8.01    1.09
   1   9   4    3.96    0.74
   2   9   4   -0.14    0.35
  -3  10   4    2.78    1.03
  -2  10   4   -0.21    0.65
  -1  10   4    0.57    0.59
   0  10   4    3.65    0.82
   1  10   4   12.43    1.32
  -1  11   4    0.07    0.71
   2   8  -5    1.51    0.76
   1   8  -5    0.65    0.77
   0   8  -5    6.28    1.23
   5   7  -5    5.27    1.02
   4   7  -5    0.41    0.62
   3   7  -5    7.19    1.11
   2   7  -5    1.63    0.72
   1   7  -5    5.44    1.09
   0   7  -5    7.39    1.27
  -1   7  -5    2.57    0.94
  -2   7  -5    1.04    0.83
  -3   7  -5    2.34    1.02
   8   6  -5   -0.41    0.63
   7   6  -5   10.94    1.48
   6   6  -5   -0.12    0.54
   5   6  -5    1.05    0.63
   4   6  -5    4.48    0.91
   3   6  -5    0.95    0.39
   3   6  -5    1.68    0.66
   2   6  -5    0.00    0.34
   2   6  -5    0.38    0.55
   1   6  -5    9.49    1.31
   1   6  -5    9.82    1.05
   0   6  -5    0.56    0.44
   0   6  -5    1.12    0.67
  -1   6  -5    6.05    1.14
  -1   6  -5    7.34    0.94
  -2   6  -5    8.07    1.21
  -2   6  -5    9.71    1.48
  -3   6  -5    0.10    0.70
  -4   6  -5    0.90    0.88
   9   5  -5    3.41    0.97
   8   5  -5    6.16    1.17
   7   5  -5    1.90    0.76
   7   5  -5    1.96    0.56
   6   5  -5    1.45    0.51
   6   5  -5    2.50    0.74
   5   5  -5    1.37    0.47
   5   5  -5    1.81    0.66
   4   5  -5   16.29    1.55
   4   5  -5   17.24    1.27
   3   5  -5   68.78    3.82
   3   5  -5   66.93    4.10
   2   5  -5   12.00    1.39
   2   5  -5   10.48    1.05
   1   5  -5   11.02    0.96
   1   5  -5    8.88    1.25
   0   5  -5    1.04    0.41
   0   5  -5    0.63    0.57
  -1   5  -5    2.96    0.86
  -1   5  -5    3.44    0.68
  -2   5  -5   10.95    1.20
  -2   5  -5    9.70    1.45
  -3   5  -5    5.28    1.12
  -3   5  -5    3.06    0.70
  -4   5  -5   30.95    2.65
  -5   5  -5    4.91    1.28
  -6   5  -5    0.04    0.76
  10   4  -5    1.80    0.92
   9   4  -5   -0.82    0.62
   8   4  -5    8.40    1.10
   8   4  -5    8.91    1.43
   7   4  -5    4.21    0.95
   7   4  -5    6.11    0.87
   6   4  -5   10.17    1.07
   6   4  -5    8.22    1.24
   5   4  -5   29.43    1.88
   5   4  -5   26.23    2.10
   4   4  -5   43.15    2.61
   4   4  -5   42.36    2.83
   3   4  -5    0.10    0.46
   3   4  -5    0.21    0.29
   2   4  -5   10.81    1.29
   2   4  -5   10.07    1.01
   2   4  -5   11.82    1.12
   1   4  -5    9.06    0.96
   1   4  -5   11.51    1.32
  -1  -4   5   10.43    0.96
   0   4  -5    3.72    0.64
   0   4  -5    4.16    0.85
   0  -4   5    6.24    0.81
  -1   4  -5    6.10    0.83
  -1   4  -5    7.27    1.09
   1  -4   5    7.60    0.98
  -2   4  -5    1.37    0.69
  -2   4  -5    0.81    0.46
   2  -4   5    0.91    0.45
  -3   4  -5   10.78    1.53
  -3   4  -5   11.88    1.24
   3  -4   5   11.63    1.36
  -4   4  -5   -0.34    0.38
  -4   4  -5    1.51    0.79
   4  -4   5    0.42    0.51
  -5   4  -5    7.28    1.41
   5  -4   5   11.03    1.43
  -6   4  -5    2.46    1.05
   6  -4   5    2.06    0.78
  -7   4  -5   10.67    1.76
  10   3  -5    0.28    0.65
   9   3  -5    0.57    0.72
   8   3  -5    4.47    0.99
   7   3  -5    3.09    0.84
   6   3  -5   13.84    1.18
   6   3  -5    9.70    1.38
   5   3  -5   30.93    1.98
   5   3  -5   29.66    2.21
  -5  -3   5   27.18    2.25
   4   3  -5    9.35    1.21
   4   3  -5   10.90    1.14
   4   3  -5    9.03    0.99
  -4  -3   5   11.32    1.21
   3   3  -5    0.11    0.30
   3   3  -5    0.20    0.50
   3   3  -5    0.62    0.37
  -3  -3   5    0.42    0.44
   2   3  -5    3.03    0.57
   2   3  -5    2.35    0.70
   2   3  -5    1.72    0.45
  -2  -3   5    3.12    0.60
   1   3  -5    1.00    0.58
   1   3  -5    1.70    0.43
  -1  -3   5    0.99    0.42
   0   3  -5    2.98    0.56
   0   3  -5    2.27    0.69
   0  -3   5    2.86    0.59
  -1   3  -5   20.33    1.43
  -1   3  -5   16.99    1.60
   1  -3   5   21.63    1.56
  -2   3  -5    4.65    0.98
  -2   3  -5    5.42    0.77
   2  -3   5    5.62    0.90
  -3   3  -5   31.45    2.12
  -3   3  -5   28.62    2.32
   3  -3   5   33.27    2.26
  -4   3  -5   13.49    1.67
  -4   3  -5   11.76    1.26
   4  -3   5   10.80    1.38
  -5   3  -5    1.69    0.77
  -5   3  -5    2.06    0.63
   5  -3   5    1.11    0.61
  -6   3  -5    3.88    1.16
   6  -3   5    3.12    0.92
  -7   3  -5   -0.36    0.65
   7  -3   5   -0.06    0.59
  -8   3  -5   -0.01    0.76
   8  -3   5   -0.25    0.69
  10   2  -5    1.79    0.99
   9   2  -5    1.52    0.77
   8   2  -5    6.09    1.20
  -8  -2   5    4.44    0.85
   7   2  -5   -0.10    0.50
  -7  -2   5   -0.72    0.44
  -7  -2   5    0.43    0.38
   6   2  -5   14.80    1.58
  -6  -2   5   11.26    1.21
  -6  -2   5   12.35    1.48
   5   2  -5   53.79    3.47
   5   2  -5   54.45    3.18
  -5  -2   5   55.36    3.48
   4   2  -5    5.89    0.78
   4   2  -5    7.12    0.83
   4   2  -5    6.08    0.98
  -4  -2   5    7.46    1.02
   3   2  -5    2.08    0.47
   3   2  -5    1.39    0.42
   3   2  -5    1.25    0.55
  -3  -2   5    2.10    0.59
   2   2  -5    0.46    0.35
   2   2  -5    1.04    0.50
   2   2  -5    0.45    0.35
  -2  -2   5    0.73    0.47
   1   2  -5    0.80    0.36
   1   2  -5    0.65    0.47
  -1  -2   5    0.84    0.32
  -1  -2   5    0.47    0.35
   0   2  -5   10.15    1.17
   0   2  -5    9.69    0.97
   0  -2   5   11.37    0.92
   0  -2   5    9.66    1.06
  -1   2  -5   14.87    1.38
  -1   2  -5   15.00    1.16
   1  -2   5   16.73    1.31
  -2   2  -5   45.44    2.82
  -2   2  -5   48.31    3.12
   2  -2   5   50.89    3.02
  -3   2  -5   12.93    1.11
  -3   2  -5   13.90    1.56
   3  -2   5   10.41    1.27
  -4   2  -5    0.11    0.50
  -4   2  -5    0.31    0.35
   4  -2   5   -0.04    0.41
  -5   2  -5    4.46    1.04
  -5   2  -5    5.72    0.93
   5  -2   5    6.32    1.04
  -6   2  -5    2.85    0.93
  -6   2  -5    2.17    0.68
   6  -2   5    1.97    0.73
  -7   2  -5    0.32    0.64
   7  -2   5    0.30    0.59
  -8   2  -5   12.53    1.97
   8  -2   5   12.68    1.78
  10   1  -5    0.16    0.69
   9   1  -5   -0.10    0.66
  -9  -1   5   -0.28    0.52
   8   1  -5   -0.24    0.47
  -8  -1   5   -0.77    0.50
  -8  -1   5    0.58    0.50
   7   1  -5   22.06    2.03
  -7  -1   5   22.80    2.08
  -7  -1   5   24.69    1.83
   6   1  -5   12.95    1.58
  -6  -1   5   12.84    1.62
  -6  -1   5   15.44    1.26
   5   1  -5   19.03    1.47
  -5  -1   5   20.13    1.52
  -5  -1   5   22.11    1.79
   4   1  -5    8.55    0.90
   4   1  -5    7.89    1.07
  -4  -1   5    7.05    1.06
   3   1  -5   23.41    1.87
   3   1  -5   25.54    1.70
   3   1  -5   25.03    1.67
  -3  -1   5   28.96    1.95
   2   1  -5   18.07    1.22
   2   1  -5   15.30    1.35
   2   1  -5   16.42    1.18
  -2  -1   5   14.13    1.28
   1   1  -5    5.56    0.71
   1   1  -5    7.52    0.97
  -1  -1   5    6.40    0.89
   0   1  -5    2.31    0.45
   0   1  -5    3.09    0.63
   0  -1   5    2.93    0.57
   0  -1   5    2.71    0.46
  -1   1  -5   33.82    2.00
  -1   1  -5   29.56    2.17
   1  -1   5   32.20    2.12
   1  -1   5   33.56    2.03
  -2   1  -5   44.24    2.99
  -2   1  -5   46.76    2.77
   2  -1   5   50.84    2.96
  -3   1  -5   -0.52    0.29
  -3   1  -5    0.18    0.32
   3  -1   5   -0.23    0.30
  -4   1  -5   14.47    1.22
  -4   1  -5   13.74    1.61
   4  -1   5   14.43    1.36
  -5   1  -5    3.45    0.69
  -5   1  -5    2.60    0.79
   5  -1   5    2.24    0.67
  -6   1  -5    2.46    0.82
  -6   1  -5    1.75    0.54
   6  -1   5    2.97    0.77
  -7   1  -5    0.34    0.43
  -7   1  -5   -0.22    0.62
   7  -1   5    0.34    0.53
  -8   1  -5    4.62    1.17
   8  -1   5    1.09    0.80
  -9   1  -5    0.13    0.89
   9  -1   5    0.50    0.73
  10   0  -5   15.87    2.20
   9   0  -5    1.42    0.84
  -9   0   5    0.71    0.86
  -9   0   5    1.37    0.67
   8   0  -5    0.99    0.71
  -8   0   5   -0.34    0.63
  -8   0   5    0.35    0.49
   7   0  -5   20.20    2.20
  -7   0   5   22.12    1.70
  -7   0   5   21.56    2.04
   6   0  -5   97.82    6.08
  -6   0   5  105.40    6.19
  -6   0   5  111.99    5.89
   5   0  -5    4.00    0.91
  -5   0   5    6.37    0.88
  -5   0   5    6.06    1.04
   4   0  -5   36.83    2.52
   4   0  -5   39.02    2.34
  -4   0   5   35.85    2.57
  -4   0   5   37.82    2.35
   3   0  -5   25.63    1.68
   3   0  -5   19.39    1.37
  -3   0   5   16.39    1.58
   2   0  -5   63.92    3.66
   2   0  -5   61.76    3.45
   2   0  -5   61.29    3.43
  -2   0   5   57.86    3.63
   1   0  -5   37.65    2.43
   1   0  -5   37.19    2.23
   1   0  -5   39.64    2.26
  -1   0   5   35.52    2.41
   0   0  -5   70.42    3.92
   0   0  -5   66.80    3.70
   0   0   5   64.52    3.67
   0   0   5   65.51    3.86
  -1   0  -5  147.39    8.14
  -1   0  -5  151.94    7.95
   1   0   5  151.43    8.07
   1   0   5  157.09    7.97
  -2   0  -5   55.62    3.23
  -2   0  -5   52.71    3.43
   2   0   5   61.88    3.29
   2   0   5   57.99    3.39
  -3   0  -5    4.47    0.64
  -3   0  -5    3.86    0.79
   3   0   5    5.62    0.84
  -4   0  -5    2.38    0.56
  -4   0  -5    2.02    0.68
   4   0   5    3.02    0.70
  -5   0  -5    9.34    1.09
  -5   0  -5    7.95    1.23
   5   0   5    7.61    1.12
  -6   0  -5    0.72    0.43
  -6   0  -5    1.14    0.70
   6   0   5    0.42    0.44
  -7   0  -5    9.49    1.18
  -7   0  -5    5.82    1.21
   7   0   5    5.73    1.10
  -8   0  -5   17.19    2.12
   8   0   5   13.66    1.81
  -9   0  -5    0.56    0.81
   9   0   5    1.63    0.87
 -10   0  -5   18.42    2.46
  10   0   5   20.24    2.43
  10  -1  -5    5.31    1.42
 -10   1   5    7.40    1.72
   9  -1  -5    9.13    1.57
  -9   1   5    7.29    1.55
   8  -1  -5    2.19    0.80
  -8   1   5    1.53    0.67
  -8   1   5    1.97    0.96
   7  -1  -5   28.45    2.37
  -7   1   5   24.16    2.32
  -7   1   5   30.38    2.09
   6  -1  -5    3.12    0.86
  -6   1   5    2.35    0.85
  -6   1   5    2.27    0.61
   5  -1  -5    1.73    0.69
  -5   1   5    1.60    0.71
  -5   1   5    3.04    0.65
   4  -1  -5    1.69    0.49
   4  -1  -5    1.61    0.57
  -4   1   5    1.36    0.49
  -4   1   5    1.74    0.65
   3  -1  -5    2.18    0.56
   3  -1  -5    1.34    0.36
  -3   1   5    1.07    0.37
  -3   1   5    2.06    0.59
   2  -1  -5   70.58    3.90
   2  -1  -5   67.38    3.72
   2  -1  -5   70.06    3.70
  -2   1   5   57.64    3.88
   1  -1  -5    7.74    0.79
   1  -1  -5    8.41    0.96
   1  -1  -5    6.94    0.77
  -1   1   5    7.33    0.96
   0  -1  -5    6.30    0.85
   0  -1  -5    5.32    0.68
   0   1   5    6.46    0.88
   0   1   5    5.50    0.65
  -1  -1  -5    9.70    1.06
  -1  -1  -5    8.73    0.79
   1   1   5    8.98    0.79
   1   1   5    9.33    1.05
  -2  -1  -5   25.92    1.90
  -2  -1  -5   27.06    1.69
   2   1   5   27.04    1.73
   2   1   5   27.03    1.83
  -3  -1  -5    0.27    0.39
  -3  -1  -5    0.20    0.28
   3   1   5    0.22    0.33
   3   1   5   -0.16    0.26
  -4  -1  -5    4.68    0.69
  -4  -1  -5    3.52    0.78
   4   1   5    3.88    0.74
  -5  -1  -5    1.48    0.51
  -5  -1  -5    2.37    0.73
   5   1   5    0.07    0.37
  -6  -1  -5    4.59    0.98
  -6  -1  -5    6.50    0.88
   6   1   5    4.35    0.88
  -7  -1  -5    3.15    0.71
  -7  -1  -5    1.76    0.79
   7   1   5    1.43    0.60
  -8  -1  -5    0.71    0.50
  -8  -1  -5    1.77    0.83
   8   1   5    0.98    0.66
  -9  -1  -5   17.06    2.18
   9   1   5   16.96    2.09
 -10  -1  -5    1.55    1.03
  10   1   5    1.06    0.79
  10  -2  -5   12.50    2.10
 -10   2   5    7.52    1.75
   9  -2  -5    9.19    1.69
  -9   2   5    7.20    1.62
   8  -2  -5   10.57    1.66
  -8   2   5    9.61    1.35
  -8   2   5    8.45    1.63
   7  -2  -5   -0.22    0.59
  -7   2   5    0.04    0.59
  -7   2   5    0.01    0.40
   6  -2  -5    0.67    0.56
  -6   2   5    0.03    0.53
  -6   2   5    0.41    0.39
   5  -2  -5    0.25    0.55
  -5   2   5    0.78    0.65
  -5   2   5    1.11    0.46
   4  -2  -5    1.28    0.54
  -4   2   5    1.51    0.47
  -4   2   5    1.51    0.66
   3  -2  -5    0.10    0.36
   3  -2  -5    0.78    0.37
  -3   2   5    0.77    0.50
  -3   2   5    1.08    0.38
  -2   2   5   17.94    1.47
  -2   2   5   15.32    1.19
   0  -2  -5   32.29    1.86
   0  -2  -5   31.28    1.86
   0  -2  -5   27.36    1.98
   0   2   5   30.35    2.04
  -1  -2  -5   46.37    2.80
  -1  -2  -5   44.92    2.62
   1   2   5   45.82    2.61
   1   2   5   46.94    2.82
  -2  -2  -5   13.05    0.96
  -2  -2  -5   11.75    1.08
   2   2   5   10.85    0.93
   2   2   5   11.54    1.00
   2   2   5   13.02    1.11
  -3  -2  -5    3.29    0.55
  -3  -2  -5    3.62    0.70
   3   2   5    3.68    0.66
   3   2   5    3.63    0.56
  -4  -2  -5    5.44    0.87
  -4  -2  -5    5.43    0.68
   4   2   5    6.59    0.79
   4   2   5    5.37    0.84
  -5  -2  -5    3.23    0.80
  -5  -2  -5    3.08    0.59
   5   2   5    3.13    0.72
  -6  -2  -5   14.22    1.20
  -6  -2  -5   13.98    1.59
   6   2   5   11.32    1.41
  -7  -2  -5    1.67    0.71
  -7  -2  -5    0.81    0.49
   7   2   5    1.16    0.58
  -8  -2  -5   32.54    2.61
  -8  -2  -5   33.10    2.35
   8   2   5   31.73    2.53
  -9  -2  -5    8.03    1.45
  -9  -2  -5    9.40    1.27
   9   2   5    7.66    1.38
 -10  -2  -5    9.01    1.62
  10   2   5    5.79    1.32
   9  -3  -5   15.72    2.23
  -9   3   5   15.89    2.32
   8  -3  -5    6.19    1.39
  -8   3   5    6.50    1.47
   7  -3  -5    3.77    1.12
  -7   3   5    5.23    1.22
  -7   3   5    4.95    0.92
   6  -3  -5    0.13    0.52
  -6   3   5    1.25    0.71
  -6   3   5    1.47    0.57
   5  -3  -5    0.04    0.49
  -5   3   5   -0.65    0.40
  -5   3   5    0.09    0.34
   4  -3  -5   25.83    2.00
  -4   3   5   24.54    1.77
  -4   3   5   27.56    2.13
   3  -3  -5   66.83    4.20
   3  -3  -5   85.18    4.65
  -3   3   5   74.74    4.07
  -3   3   5   65.77    4.30
   2  -3  -5   12.93    0.99
   2  -3  -5   12.59    1.16
  -2   3   5   11.66    1.31
  -2   3   5   11.29    0.98
   1  -3  -5   74.40    4.00
   1  -3  -5   72.70    3.96
   1  -3  -5   69.52    4.14
  -1   3   5   73.01    4.23
   0  -3  -5  108.15    5.76
   0  -3  -5  114.42    5.78
   0  -3  -5  112.82    5.96
   0   3   5   99.26    5.97
  -1  -3  -5    2.19    0.54
  -1  -3  -5    1.21    0.34
   1   3   5    1.93    0.41
   1   3   5    1.44    0.46
  -2  -3  -5    0.05    0.25
  -2  -3  -5    0.07    0.31
   2   3   5    0.07    0.18
   2   3   5    0.61    0.41
  -3  -3  -5    4.58    0.59
  -3  -3  -5    5.33    0.79
   3   3   5    6.10    0.73
   3   3   5    3.82    0.66
  -4  -3  -5    2.92    0.66
  -4  -3  -5    1.66    0.39
   4   3   5    1.70    0.42
   4   3   5    2.47    0.56
  -5  -3  -5   35.27    2.16
  -5  -3  -5   35.12    2.36
   5   3   5   32.36    2.12
   5   3   5   33.26    2.29
  -6  -3  -5   13.07    1.20
  -6  -3  -5    9.15    1.23
   6   3   5    9.47    1.21
  -7  -3  -5   -0.23    0.51
  -7  -3  -5    0.25    0.39
   7   3   5    0.66    0.49
  -8  -3  -5   16.95    1.64
  -8  -3  -5   17.33    1.91
   8   3   5   14.04    1.74
  -9  -3  -5   -0.03    0.50
  -9  -3  -5    0.93    0.59
   9   3   5    1.42    0.74
 -10  -3  -5    4.86    1.76
  10   3   5    5.09    1.15
  11   3   5    5.44    1.28
   9  -4  -5    0.53    0.97
  -9   4   5   -0.03    0.81
   8  -4  -5    6.70    1.53
  -8   4   5    7.64    1.59
   7  -4  -5    5.74    1.27
  -7   4   5    3.87    1.16
  -7   4   5    7.13    1.67
   6  -4  -5    5.30    1.11
  -6   4   5    4.47    0.87
  -6   4   5    3.08    1.09
   5  -4  -5   -0.07    0.47
  -5   4   5    0.33    0.37
  -5   4   5    0.39    0.58
   4  -4  -5   12.40    1.49
  -4   4   5   12.21    1.25
  -4   4   5   12.42    1.57
   3  -4  -5   11.02    1.32
  -3   4   5   13.46    1.13
  -3   4   5   14.09    1.58
   2  -4  -5    6.61    0.95
   2  -4  -5    5.92    0.74
  -2   4   5    7.28    1.07
  -2   4   5    5.49    0.74
   1  -4  -5   71.29    4.18
   1  -4  -5   73.53    4.03
  -1   4   5   74.22    4.06
  -1   4   5   75.03    4.30
   0  -4  -5   48.66    2.94
   0  -4  -5   49.15    2.82
   0  -4  -5   50.68    2.79
   0   4   5   49.71    3.03
  -1  -4  -5   65.37    3.22
  -1  -4  -5   53.67    3.31
  -1  -4  -5   54.11    3.18
   1   4   5   57.79    3.43
  -2  -4  -5   20.76    1.43
  -2  -4  -5   19.30    1.29
   2   4   5   21.01    1.49
   2   4   5   19.25    1.30
  -3  -4  -5   46.26    2.74
  -3  -4  -5   51.30    2.92
   3   4   5   49.28    2.97
   3   4   5   49.22    2.76
   3   4   5   48.39    2.88
  -4  -4  -5    2.07    0.42
  -4  -4  -5    2.40    0.56
   4   4   5    1.27    0.38
   4   4   5    1.39    0.50
  -5  -4  -5    0.21    0.42
  -5  -4  -5    0.23    0.28
   5   4   5    0.24    0.26
   5   4   5    0.21    0.36
  -6  -4  -5    0.77    0.37
  -6  -4  -5   -0.12    0.40
   6   4   5    0.95    0.41
   6   4   5    1.52    0.55
  -7  -4  -5    6.21    0.84
  -7  -4  -5   10.17    1.28
   7   4   5    7.79    1.15
  -8  -4  -5    3.53    0.71
  -8  -4  -5    2.24    0.75
   8   4   5    3.08    0.75
  -9  -4  -5    0.93    0.56
   9   4   5    0.50    0.61
  10   4   5    0.47    0.73
  11   4   5    6.44    1.35
   8  -5  -5    1.52    0.93
  -8   5   5    0.62    0.84
   7  -5  -5    6.12    1.34
  -7   5   5   10.29    1.75
   6  -5  -5    2.78    0.96
  -6   5   5    1.24    0.89
  -6   5   5    2.29    0.71
   5  -5  -5    0.26    0.54
  -5   5   5    0.09    0.61
  -5   5   5    0.05    0.41
   4  -5  -5   70.66    4.44
  -4   5   5   77.19    4.24
  -4   5   5   68.58    4.56
   3  -5  -5    1.87    0.63
  -3   5   5    3.43    0.90
  -3   5   5    2.18    0.59
   2  -5  -5   37.07    2.52
  -2   5   5   37.71    2.64
  -2   5   5   39.70    2.38
   1  -5  -5   25.75    1.80
   1  -5  -5   25.00    1.63
  -1   5   5   24.93    1.92
  -1   5   5   26.40    1.69
   0  -5  -5   30.21    1.81
   0  -5  -5   28.87    1.93
   0  -5  -5   28.01    1.77
   0   5   5   29.77    2.04
  -1  -5  -5    9.13    0.74
  -1  -5  -5    8.82    0.84
  -1  -5  -5    8.15    0.74
   1   5   5    8.82    1.05
  -2  -5  -5   37.23    2.19
  -2  -5  -5   40.37    2.31
  -2  -5  -5   38.01    2.19
   2   5   5   36.49    2.38
  -3  -5  -5    0.10    0.26
  -3  -5  -5    0.10    0.21
   3   5   5   -0.09    0.38
   3   5   5    0.01    0.22
  -4  -5  -5   10.87    0.97
  -4  -5  -5   10.29    0.83
   4   5   5   10.29    0.87
   4   5   5   10.83    1.00
  -5  -5  -5   18.88    1.47
  -5  -5  -5   19.20    1.34
   5   5   5   18.53    1.48
   5   5   5   20.82    1.39
  -6  -5  -5   -0.04    0.25
  -6  -5  -5    0.63    0.46
   6   5   5   -0.01    0.37
  -7  -5  -5   19.70    1.51
  -7  -5  -5   21.99    1.71
   7   5   5   23.02    1.79
  -8  -5  -5   18.59    1.49
   8   5   5   18.79    1.69
   9   5   5    4.20    0.97
  10   5   5    4.65    1.08
  11   5   5    0.18    0.68
   8  -6  -5    1.21    0.86
  -8   6   5    1.56    1.09
   7  -6  -5    4.73    1.19
  -7   6   5    3.63    1.27
   6  -6  -5    0.75    0.73
  -6   6   5    0.46    0.67
   5  -6  -5   16.05    1.86
  -5   6   5   12.93    1.51
  -5   6   5   14.01    1.99
   4  -6  -5    2.89    0.77
  -4   6   5    1.89    0.60
  -4   6   5    1.35    0.80
   3  -6  -5    1.53    0.63
  -3   6   5    2.04    0.54
  -3   6   5    1.94    0.78
   2  -6  -5    8.84    1.17
  -2   6   5    8.35    1.24
  -2   6   5    8.78    0.98
   1  -6  -5   -0.17    0.39
  -1   6   5    0.09    0.31
  -1   6   5    0.24    0.47
   0  -6  -5    1.24    0.39
   0  -6  -5    1.59    0.49
   0  -6  -5    2.20    0.42
   0   6   5    1.87    0.58
   0   6   5    1.05    0.37
  -1  -6  -5    7.27    0.81
  -1  -6  -5    6.49    0.67
  -1  -6  -5    4.95    0.62
   1   6   5    5.68    0.84
   2   6   5   14.78    1.23
  -3  -6  -5    6.17    0.60
  -3  -6  -5    5.21    0.64
  -3  -6  -5    5.63    0.60
   3   6   5    4.49    0.74
  -4  -6  -5    6.27    0.72
  -4  -6  -5    6.78    0.66
   4   6   5    6.05    0.67
   4   6   5    6.29    0.80
  -5  -6  -5   15.14    1.07
  -5  -6  -5   15.42    1.16
   5   6   5   14.87    1.11
   5   6   5   13.98    1.21
  -6  -6  -5   14.19    1.05
   6   6   5   13.36    1.24
  -7  -6  -5    0.38    0.53
   7   6   5    0.52    0.44
   8   6   5    0.40    0.47
   9   6   5    3.55    0.87
  10   6   5    1.70    0.78
  11   6   5    2.46    0.89
  -7   7   5    0.22    0.74
   6  -7  -5    2.37    1.45
  -6   7   5    3.81    1.21
   5  -7  -5    1.75    0.81
  -5   7   5    3.33    1.03
   4  -7  -5    2.52    0.80
  -4   7   5    3.24    0.73
  -4   7   5    2.73    0.98
   3  -7  -5    4.58    0.86
  -3   7   5    3.75    0.95
  -3   7   5    4.24    0.75
   2  -7  -5   22.31    1.81
  -2   7   5   22.08    1.93
  -2   7   5   23.47    1.65
   1  -7  -5    3.50    0.70
  -1   7   5    3.99    0.85
  -1   7   5    3.48    0.64
   0  -7  -5   -0.12    0.36
   0  -7  -5    0.41    0.32
   0  -7  -5    0.51    0.30
   0   7   5    0.48    0.34
   0   7   5    0.38    0.48
  -1  -7  -5   29.11    1.75
  -1  -7  -5   28.68    1.82
  -1  -7  -5   27.41    1.75
   1   7   5   33.00    2.09
  -2  -7  -5    1.02    0.30
  -2  -7  -5    1.91    0.35
   2   7   5    1.15    0.52
  -3  -7  -5   52.76    2.88
  -3  -7  -5   52.72    2.89
   3   7   5   55.24    3.16
   4   7   5    9.05    0.88
   4   7   5   11.85    1.05
  -5  -7  -5   21.38    1.61
   5   7   5   21.91    1.53
   6   7   5   12.99    1.16
   7   7   5    5.53    0.88
   8   7   5   -0.05    0.40
   9   7   5    8.51    1.21
  10   7   5    0.21    0.60
  -6   8   5   15.31    2.33
  -5   8   5   18.28    2.34
  -4   8   5    2.41    0.97
  -3   8   5    5.70    1.24
  -3   8   5    5.03    0.85
  -2   8   5    6.91    1.21
  -2   8   5    6.82    0.91
  -1   8   5    4.31    0.70
  -1   8   5    5.17    0.98
   0   8   5    9.97    0.98
   0   8   5    9.65    1.21
  -1  -8  -5    0.56    0.27
   1   8   5    0.37    0.43
   2   8   5   31.21    2.12
   3   8   5   31.62    2.05
   4   8   5    3.17    0.53
   4   8   5    4.60    0.67
   5   8   5    3.78    0.57
   6   8   5   14.06    1.14
   7   8   5    0.26    0.39
   8   8   5    0.70    0.46
   9   8   5    1.17    0.58
  10   8   5    2.89    0.80
  -5   9   5    2.20    1.10
  -4   9   5    2.11    1.06
  -3   9   5    4.32    1.16
  -3   9   5    6.46    1.12
  -2   9   5   -0.02    0.54
  -2   9   5    0.28    0.41
  -1   9   5    8.80    1.29
  -1   9   5    7.90    0.96
   0   9   5    3.76    0.62
   0   9   5    4.04    0.85
   1   9   5    1.65    0.57
   2   9   5    0.92    0.50
   3   9   5    2.29    0.54
   4   9   5   -0.29    0.23
   5   9   5   12.73    0.99
   6   9   5    1.29    0.37
   7   9   5    4.07    0.65
   8   9   5    1.95    0.57
   9   9   5    0.23    0.48
  -3  10   5    1.92    0.99
  -2  10   5    1.07    0.54
  -2  10   5    0.41    0.68
  -1  10   5    1.99    0.78
   0  10   5    0.41    0.49
   1  10   5   11.49    1.34
   2  10   5    7.28    1.00
  -2  11   5    4.29    1.21
  -1  11   5    0.52    0.75
   0  11   5    0.58    0.66
   5   7  -6   -0.09    0.74
   4   7  -6    1.12    0.71
   3   7  -6    8.45    1.32
   2   7  -6   -0.19    0.64
   1   7  -6    1.07    0.78
   0   7  -6    1.76    0.91
  -1   7  -6    0.20    0.77
   7   6  -6    2.93    0.94
   6   6  -6    2.98    0.97
   5   6  -6    0.10    0.67
   4   6  -6    6.67    1.15
   3   6  -6    1.50    0.76
   2   6  -6    0.61    0.65
   2   6  -6    0.69    0.46
   1   6  -6    4.44    1.02
   1   6  -6    4.37    0.73
   0   6  -6   24.16    1.84
   0   6  -6   25.08    2.22
  -1   6  -6   13.09    1.76
  -2   6  -6    2.24    1.06
  -3   6  -6   -0.41    0.70
   8   5  -6    0.31    0.67
   7   5  -6   19.05    2.08
   6   5  -6    2.09    0.63
   6   5  -6    3.90    0.97
   5   5  -6    5.48    0.82
   5   5  -6    4.56    1.04
   4   5  -6    5.99    1.09
   4   5  -6    4.55    0.75
   3   5  -6    7.99    1.20
   3   5  -6    5.96    0.81
   2   5  -6   21.08    1.90
   2   5  -6   22.50    1.61
   1   5  -6    8.70    0.96
   1   5  -6    4.12    0.99
   0   5  -6    0.69    0.44
   0   5  -6    0.45    0.57
  -1   5  -6   11.98    1.33
  -1   5  -6   14.31    1.77
  -2   5  -6    4.69    1.12
  -3   5  -6    0.98    0.88
  -4   5  -6    2.49    1.05
  -5   5  -6    2.58    1.14
   9   4  -6   -0.06    0.71
   8   4  -6    4.16    1.08
   7   4  -6    2.75    0.92
   7   4  -6    2.54    0.64
   6   4  -6    1.48    0.75
   6   4  -6    1.05    0.54
   5   4  -6    5.05    0.79
   5   4  -6    3.23    0.91
   4   4  -6    0.52    0.55
   4   4  -6    0.17    0.37
   3   4  -6    1.72    0.69
   3   4  -6    0.88    0.44
   2   4  -6    8.80    0.97
   2   4  -6    7.46    1.16
   1   4  -6    2.02    0.52
   1   4  -6    0.48    0.62
   0   4  -6    0.48    0.58
   0   4  -6    1.28    0.44
  -1   4  -6    3.79    0.70
  -1   4  -6    4.22    0.95
  -2   4  -6    6.02    0.91
  -2   4  -6    3.38    0.96
  -3   4  -6    0.71    0.71
  -3   4  -6   -0.17    0.47
  -4   4  -6    0.94    0.75
  -5   4  -6    4.67    1.23
  -6   4  -6    1.89    1.04
   9   3  -6   14.60    2.01
   8   3  -6    6.21    1.28
   7   3  -6   -0.47    0.40
   7   3  -6    0.30    0.59
   6   3  -6    9.13    1.37
   6   3  -6    9.24    1.14
   5   3  -6   10.87    1.16
   5   3  -6    9.56    1.35
   4   3  -6    2.83    0.80
   4   3  -6    3.17    0.61
   3   3  -6   27.37    2.07
   3   3  -6   25.41    1.80
  -3  -3   6   26.94    1.86
  -3  -3   6   24.92    1.93
   2   3  -6    2.31    0.53
   2   3  -6    3.00    0.77
  -2  -3   6    2.41    0.59
   1   3  -6    3.60    0.82
   1   3  -6    1.76    0.48
  -1  -3   6    1.99    0.56
   0   3  -6   10.15    1.06
   0   3  -6   10.95    1.35
   0  -3   6    9.49    1.11
  -1   3  -6   -0.12    0.30
  -1   3  -6    0.22    0.52
   1  -3   6    0.60    0.46
  -2   3  -6    0.65    0.39
  -2   3  -6    0.26    0.58
   2  -3   6   -0.13    0.35
  -3   3  -6   10.65    1.27
  -3   3  -6   14.38    1.72
   3  -3   6   10.76    1.36
  -4   3  -6    1.84    0.89
  -4   3  -6    2.69    0.70
   4  -3   6    1.64    0.65
  -5   3  -6    6.38    1.35
   5  -3   6    6.57    1.15
  -6   3  -6    6.84    1.43
   6  -3   6    6.70    1.23
  -7   3  -6   -0.44    0.76
   7  -3   6    0.37    0.68
  10   2  -6    2.17    0.94
   9   2  -6    1.68    0.83
   8   2  -6    6.24    1.29
   7   2  -6    1.26    0.74
   6   2  -6    0.27    0.55
   6   2  -6   -0.41    0.37
  -6  -2   6    0.17    0.50
   5   2  -6    2.81    0.82
   5   2  -6    2.37    0.59
  -5  -2   6    4.62    0.91
   4   2  -6    1.12    0.45
   4   2  -6    1.50    0.67
  -4  -2   6    0.92    0.55
   3   2  -6    0.18    0.35
   3   2  -6    0.45    0.56
   3   2  -6    0.58    0.37
  -3  -2   6    0.33    0.48
   2   2  -6    1.79    0.66
   2   2  -6    1.91    0.53
   2   2  -6    2.34    0.54
  -2  -2   6    3.93    0.81
   1   2  -6   12.86    1.05
   1   2  -6   10.25    1.29
  -1  -2   6   10.52    1.19
   0  -2   6   12.72    1.21
  -1   2  -6    0.33    0.35
  -1   2  -6    0.36    0.50
   1  -2   6   -0.36    0.33
  -2   2  -6    0.84    0.39
  -2   2  -6    0.84    0.58
   2  -2   6    0.91    0.48
  -3   2  -6   40.74    2.92
  -3   2  -6   36.58    2.52
   3  -2   6   44.05    2.78
  -4   2  -6    1.55    0.58
  -4   2  -6    2.13    0.73
   4  -2   6    1.48    0.62
  -5   2  -6    8.78    1.14
  -5   2  -6    8.96    1.46
   5  -2   6    6.60    1.12
  -6   2  -6    1.52    0.83
   6  -2   6    0.43    0.58
  -7   2  -6    0.85    0.92
   7  -2   6    1.29    0.79
  -8   2  -6    2.95    1.14
   8  -2   6    1.50    0.95
  10   1  -6    0.86    0.89
   9   1  -6    5.23    1.19
   8   1  -6    0.99    0.76
  -8  -1   6    0.24    0.55
  -8  -1   6   -0.54    1.02
   7   1  -6    3.84    0.98
  -7  -1   6    3.94    1.03
  -7  -1   6    5.07    0.91
   6   1  -6    0.48    0.53
  -6  -1   6    0.84    0.49
  -6  -1   6    0.92    0.67
   5   1  -6   12.07    1.51
  -5  -1   6   15.00    1.72
   4   1  -6   70.57    4.05
   4   1  -6   69.38    4.31
   4   1  -6   67.27    4.00
  -4  -1   6   74.44    4.35
   3   1  -6   15.31    1.27
   3   1  -6   15.37    1.25
   3   1  -6   17.20    1.56
  -3  -1   6   16.78    1.50
   2   1  -6    3.01    0.59
   2   1  -6    3.44    0.63
   2   1  -6    3.76    0.80
  -2  -1   6    2.99    0.75
   1   1  -6    8.57    1.17
   1   1  -6    9.90    1.04
  -1  -1   6    8.98    1.15
   0   1  -6    6.37    0.79
   0   1  -6    8.36    1.12
   0  -1   6    7.08    0.92
  -1   1  -6    5.15    0.73
  -1   1  -6    4.14    0.86
   1  -1   6    4.84    0.82
  -2   1  -6   38.29    2.64
  -2   1  -6   39.91    2.38
   2  -1   6   34.50    2.46
  -3   1  -6    1.58    0.71
  -3   1  -6    1.43    0.46
   3  -1   6    1.89    0.59
  -4   1  -6   34.64    2.67
  -4   1  -6   38.02    2.44
   4  -1   6   37.43    2.60
  -5   1  -6   16.18    1.94
  -5   1  -6   15.78    1.43
   5  -1   6   16.42    1.78
  -6   1  -6    3.04    0.99
  -6   1  -6    1.79    0.64
   6  -1   6    3.52    0.86
  -7   1  -6    4.15    1.15
   7  -1   6    2.75    0.93
  -8   1  -6    1.45    0.88
   8  -1   6    1.32    0.75
  -9   1  -6   -0.63    0.73
   9  -1   6    0.06    0.74
  10   0  -6    1.11    0.91
   9   0  -6   -0.30    0.62
  -9   0   6    1.37    0.92
   8   0  -6    3.12    1.03
  -8   0   6    4.13    1.18
  -8   0   6    3.22    0.84
   7   0  -6   15.44    1.95
  -7   0   6   16.57    2.03
  -7   0   6   18.32    1.78
   6   0  -6   11.57    1.50
  -6   0   6   10.07    1.22
  -6   0   6   11.78    1.58
   5   0  -6   31.57    2.38
  -5   0   6   32.26    2.44
  -5   0   6   29.51    2.10
   4   0  -6    2.91    0.80
  -4   0   6    2.24    0.83
   3   0  -6   10.11    1.06
   3   0  -6    7.86    0.92
   3   0  -6    8.89    1.17
  -3   0   6    8.34    1.18
   2   0  -6    2.11    0.49
   2   0  -6    2.26    0.52
   2   0  -6    2.91    0.73
  -2   0   6    3.31    0.78
   1   0  -6    3.56    0.78
   1   0  -6    4.52    0.65
   1   0  -6    4.81    0.71
  -1   0   6    3.71    0.79
   0   0  -6    2.76    0.52
   0   0  -6    3.38    0.72
   0   0   6    2.33    0.50
   0   0   6    3.00    0.66
  -1   0  -6   31.94    2.23
  -1   0  -6   32.70    1.99
   1   0   6   28.39    2.07
  -2   0  -6   16.52    1.43
  -2   0  -6   14.23    1.14
   2   0   6   10.17    1.26
  -3   0  -6    2.30    0.67
  -3   0  -6    1.10    0.39
   3   0   6    0.81    0.46
  -4   0  -6    4.94    0.73
  -4   0  -6    5.78    1.07
   4   0   6    4.62    0.89
  -5   0  -6   23.31    2.07
  -5   0  -6   25.58    1.82
   5   0   6   22.57    1.91
  -6   0  -6    4.09    1.04
  -6   0  -6    3.48    0.69
   6   0   6    1.71    0.67
  -7   0  -6    0.08    0.53
  -7   0  -6    0.70    0.48
   7   0   6   -0.04    0.49
  -8   0  -6    9.25    1.69
   8   0   6    6.71    1.26
  -9   0  -6    2.93    1.11
   9   0   6    0.50    0.68
  10  -1  -6    9.81    1.84
 -10   1   6   10.51    1.98
   9  -1  -6    0.26    0.78
  -9   1   6    1.14    0.87
   8  -1  -6    4.13    1.18
  -8   1   6    2.63    0.94
  -8   1   6    4.27    0.94
   7  -1  -6   13.77    1.79
  -7   1   6   13.25    1.52
  -7   1   6   13.80    1.92
   6  -1  -6    8.07    1.30
  -6   1   6   10.59    1.28
  -6   1   6    8.41    1.41
   5  -1  -6   10.50    1.40
  -5   1   6    9.87    1.17
  -5   1   6   13.12    1.60
   4  -1  -6    7.20    1.12
  -4   1   6    5.15    1.00
  -4   1   6    5.34    0.86
   3  -1  -6    7.97    0.97
   3  -1  -6    8.13    0.91
   3  -1  -6    6.85    1.03
  -3   1   6    7.58    1.15
   2  -1  -6    2.19    0.54
   2  -1  -6    1.64    0.58
   2  -1  -6    1.85    0.47
  -2   1   6    2.84    0.78
   1  -1  -6    0.24    0.29
   1  -1  -6   -0.22    0.23
   1  -1  -6    0.05    0.44
  -1   1   6   -0.01    0.40
   0  -1  -6   15.63    1.25
   0  -1  -6   16.56    1.43
   0   1   6   18.01    1.25
   0   1   6   17.20    1.44
  -1  -1  -6    0.87    0.50
  -1  -1  -6    1.30    0.41
   1   1   6    1.30    0.40
   1   1   6    1.30    0.51
  -2  -1  -6    0.08    0.31
  -2  -1  -6    0.38    0.53
   2   1   6    0.36    0.34
   2   1   6    0.51    0.39
  -3  -1  -6   24.40    1.91
  -3  -1  -6   24.90    1.66
   3   1   6   23.72    1.83
  -4  -1  -6   27.16    2.00
  -4  -1  -6   19.96    1.55
   4   1   6   21.55    1.76
  -5  -1  -6    1.57    0.49
  -5  -1  -6    1.58    0.65
   5   1   6    0.97    0.51
  -6  -1  -6    4.79    0.82
  -6  -1  -6    4.62    1.08
   6   1   6    4.58    0.94
  -7  -1  -6    1.57    0.81
  -7  -1  -6    0.83    0.47
   7   1   6    1.51    0.68
  -8  -1  -6    1.70    0.81
   8   1   6    1.77    0.73
  -9  -1  -6    3.41    1.08
   9   1   6    2.50    1.00
 -10  -1  -6    1.10    0.91
  10   1   6   -0.36    0.64
  10  -2  -6    0.70    0.91
 -10   2   6   -0.29    0.96
   9  -2  -6   17.70    2.37
  -9   2   6   19.11    2.59
   8  -2  -6    4.07    1.10
  -8   2   6    5.86    1.41
   7  -2  -6    3.09    0.95
  -7   2   6    1.74    0.85
  -7   2   6    1.66    0.62
   6  -2  -6   58.42    3.71
  -6   2   6   48.86    3.30
  -6   2   6   51.69    3.71
   5  -2  -6    4.74    1.02
  -5   2   6    4.37    1.02
  -5   2   6    7.02    0.97
   4  -2  -6    1.58    0.64
  -4   2   6    0.97    0.43
  -4   2   6    1.66    0.77
   3  -2  -6    1.58    0.61
  -3   2   6    0.19    0.52
  -3   2   6    1.85    0.51
   2  -2  -6    1.04    0.38
   2  -2  -6    0.77    0.50
   2  -2  -6    0.55    0.38
  -2   2   6    0.09    0.45
   1  -2  -6    6.87    0.80
   1  -2  -6    7.77    1.05
   1  -2  -6    6.32    0.76
  -1   2   6    5.23    0.91
   0  -2  -6   26.40    1.90
   0  -2  -6   24.43    1.70
   0  -2  -6   26.40    1.71
   0   2   6   27.50    1.97
  -1  -2  -6   19.29    1.54
  -1  -2  -6   18.44    1.36
   1   2   6   18.07    1.34
   1   2   6   21.81    1.63
  -2  -2  -6  122.25    6.49
  -2  -2  -6  123.60    6.74
   2   2   6  127.28    6.50
   2   2   6  118.79    6.63
   2   2   6  115.93    6.72
  -3  -2  -6   64.16    4.05
  -3  -2  -6   65.87    3.85
   3   2   6   71.97    4.06
   3   2   6   71.07    3.90
  -4  -2  -6    1.79    0.46
  -4  -2  -6    2.81    0.72
   4   2   6    2.65    0.64
  -5  -2  -6    0.75    0.62
  -5  -2  -6    0.89    0.41
   5   2   6    0.30    0.41
  -6  -2  -6   14.64    1.74
  -6  -2  -6   16.29    1.40
   6   2   6   17.62    1.57
  -7  -2  -6   -0.03    0.35
  -7  -2  -6    0.71    0.57
   7   2   6    0.83    0.60
  -8  -2  -6   22.99    1.86
  -8  -2  -6   21.42    2.42
   8   2   6   21.38    2.02
  -9  -2  -6    1.66    0.85
   9   2   6    0.69    0.63
 -10  -2  -6    5.80    1.40
  10   2   6    2.73    1.05
   9  -3  -6    3.66    1.29
  -9   3   6    2.83    1.16
   8  -3  -6   -0.24    0.70
  -8   3   6    0.32    0.83
   7  -3  -6    0.17    0.56
  -7   3   6    2.70    1.01
  -7   3   6    2.10    0.69
   6  -3  -6   10.21    1.51
  -6   3   6    6.11    0.99
  -6   3   6    7.80    1.49
   5  -3  -6   16.08    1.84
  -5   3   6   14.19    1.82
  -5   3   6   17.95    1.49
   4  -3  -6    0.85    0.56
  -4   3   6    1.24    0.65
  -4   3   6    0.41    0.39
   3  -3  -6    2.81    0.75
  -3   3   6    3.92    0.86
  -3   3   6    3.37    0.64
   2  -3  -6   95.66    5.22
  -2   3   6   89.86    5.31
  -2   3   6   87.01    4.99
   1  -3  -6   20.78    1.44
   1  -3  -6   22.39    1.68
   1  -3  -6   19.30    1.39
  -1   3   6   18.75    1.68
   0  -3  -6   46.90    2.66
   0  -3  -6   49.54    2.67
   0  -3  -6   38.77    2.77
   0   3   6   44.11    2.90
  -1  -3  -6    0.45    0.30
  -1  -3  -6    0.22    0.41
   1   3   6    0.17    0.43
   1   3   6   -0.09    0.25
  -2  -3  -6   65.14    3.61
  -2  -3  -6   66.54    3.82
   2   3   6   60.40    3.81
   2   3   6   64.52    3.59
  -3  -3  -6   26.57    1.91
  -3  -3  -6   23.00    1.67
   3   3   6   26.22    1.72
   3   3   6   28.33    1.89
  -4  -3  -6   -0.37    0.44
  -4  -3  -6    0.50    0.31
   4   3   6   -0.14    0.31
   4   3   6   -0.28    0.38
  -5  -3  -6   35.17    2.12
  -5  -3  -6   34.18    2.36
   5   3   6   26.58    2.16
  -6  -3  -6   14.25    1.27
  -6  -3  -6   14.65    1.62
   6   3   6   15.28    1.45
  -7  -3  -6   -0.44    0.32
  -7  -3  -6    0.19    0.51
   7   3   6    0.29    0.41
  -8  -3  -6    0.62    0.63
  -8  -3  -6    0.33    0.49
   8   3   6   -0.52    0.32
  -9  -3  -6    7.46    1.42
  -9  -3  -6    8.98    1.22
   9   3   6    9.47    1.47
 -10  -3  -6    0.80    0.96
  10   3   6    1.47    0.75
   9  -4  -6    1.04    1.02
  -9   4   6   -0.55    0.85
   8  -4  -6    0.28    0.79
  -8   4   6    2.91    1.26
   7  -4  -6    7.23    1.40
  -7   4   6   10.41    1.79
   6  -4  -6   26.15    2.35
  -6   4   6   25.03    2.03
  -6   4   6   27.18    2.52
   5  -4  -6   17.03    1.87
  -5   4   6   14.66    1.55
  -5   4   6   18.01    2.14
   4  -4  -6    7.21    1.17
  -4   4   6   10.23    1.19
  -4   4   6    9.86    1.50
   3  -4  -6   19.97    1.75
  -3   4   6   23.26    1.62
  -3   4   6   18.77    1.81
   2  -4  -6    5.00    0.89
  -2   4   6    6.92    1.11
  -2   4   6    8.10    0.94
   1  -4  -6   14.18    1.09
   1  -4  -6   13.98    1.32
   1  -4  -6   14.25    1.12
  -1   4   6   12.74    1.43
   0  -4  -6    3.28    0.52
   0  -4  -6    3.10    0.56
   0  -4  -6    5.66    0.88
   0   4   6    3.51    0.78
  -1  -4  -6   56.06    3.43
  -1  -4  -6   53.37    3.26
  -1  -4  -6   61.40    3.27
   1   4   6   59.01    3.51
  -2  -4  -6   27.16    1.80
  -2  -4  -6   30.66    2.00
   2   4   6   29.09    2.04
   2   4   6   29.30    1.83
  -3  -4  -6   15.42    1.14
  -3  -4  -6   14.08    1.30
   3   4   6   15.62    1.28
   3   4   6   13.90    1.35
   3   4   6   15.06    1.13
  -4  -4  -6    4.85    0.87
  -4  -4  -6    4.79    0.66
   4   4   6    5.10    0.75
   4   4   6    5.98    0.90
  -5  -4  -6    0.31    0.49
  -5  -4  -6   -0.10    0.30
   5   4   6    0.59    0.38
   5   4   6    0.30    0.38
  -6  -4  -6    3.36    0.77
  -6  -4  -6    4.09    0.72
   6   4   6    4.40    0.86
  -7  -4  -6    1.18    0.43
  -7  -4  -6    1.78    0.67
   7   4   6   -0.11    0.43
  -8  -4  -6   11.60    1.33
  -8  -4  -6   13.07    1.64
   8   4   6   12.83    1.63
  -9  -4  -6   11.60    1.38
  -9  -4  -6    8.68    1.99
   9   4   6   10.82    1.54
  10   4   6   -0.63    0.63
   8  -5  -6    3.35    1.07
  -8   5   6    3.60    1.31
   7  -5  -6   10.67    1.69
  -7   5   6   11.30    1.92
   6  -5  -6   -0.33    0.61
  -6   5   6    0.91    0.60
  -6   5   6   -0.38    0.54
   5  -5  -6    0.10    0.59
  -5   5   6    1.51    0.55
  -5   5   6    0.06    0.58
   4  -5  -6   20.30    1.78
  -4   5   6   17.81    1.49
  -4   5   6   16.12    1.97
   3  -5  -6    2.43    0.73
  -3   5   6    2.25    0.76
  -3   5   6    1.37    0.53
   2  -5  -6   21.33    1.67
  -2   5   6   18.68    1.48
  -2   5   6   17.95    1.92
   1  -5  -6    4.36    0.82
   1  -5  -6    4.34    0.68
  -1   5   6    4.23    0.67
  -1   5   6    3.83    0.87
   0  -5  -6    0.08    0.40
   0  -5  -6    0.44    0.28
   0  -5  -6    0.74    0.35
   0   5   6    0.45    0.49
  -1  -5  -6    1.15    0.50
  -1  -5  -6    0.67    0.34
  -1  -5  -6    0.47    0.34
   1   5   6    0.46    0.44
  -2  -5  -6    2.04    0.44
  -2  -5  -6    1.42    0.39
  -2  -5  -6    1.26    0.48
   2   5   6    1.58    0.59
  -3  -5  -6   31.88    1.92
  -3  -5  -6   30.68    2.07
   3   5   6   29.80    1.92
   3   5   6   31.61    2.20
  -4  -5  -6   13.48    1.07
  -4  -5  -6   16.45    1.32
   4   5   6   13.31    1.27
   4   5   6   14.89    1.14
  -5  -5  -6    1.43    0.39
  -5  -5  -6    2.09    0.59
   5   5   6    1.32    0.53
   5   5   6    1.76    0.51
  -6  -5  -6    6.23    0.84
  -6  -5  -6    6.26    0.98
   6   5   6    7.44    1.06
  -7  -5  -6    8.70    1.23
  -7  -5  -6    8.45    0.97
   7   5   6    5.59    0.99
  -8  -5  -6    7.20    0.98
   9   5   6    1.46    0.65
  10   5   6    2.11    0.92
  11   5   6    2.21    0.98
   8  -6  -6    3.57    1.40
  -8   6   6    4.05    1.43
   7  -6  -6    5.61    1.38
  -7   6   6    4.96    1.39
   6  -6  -6    1.40    0.79
  -6   6   6    0.93    0.88
   5  -6  -6   -0.46    0.55
  -5   6   6   -0.47    0.54
  -5   6   6   -0.87    0.36
   4  -6  -6   26.36    2.13
  -4   6   6   19.77    2.40
  -4   6   6   25.68    1.88
   3  -6  -6   23.70    1.99
  -3   6   6   25.85    1.83
  -3   6   6   22.54    2.12
   2  -6  -6   -0.09    0.42
  -2   6   6    0.60    0.37
  -2   6   6    0.74    0.57
   1  -6  -6    0.74    0.51
  -1   6   6   -0.01    0.33
  -1   6   6    0.16    0.51
   0  -6  -6   10.67    0.93
   0  -6  -6    9.21    1.14
   0   6   6    8.80    1.17
  -1  -6  -6   16.40    1.15
  -1  -6  -6   16.63    1.32
  -1  -6  -6   15.18    1.15
   1   6   6   14.79    1.44
  -2  -6  -6    2.51    0.48
  -2  -6  -6    2.31    0.56
  -2  -6  -6    2.12    0.45
   2   6   6    2.23    0.63
  -3  -6  -6   13.40    1.03
  -3  -6  -6   12.75    1.03
  -3  -6  -6   14.24    1.18
   3   6   6   16.56    1.39
  -4  -6  -6    4.37    0.61
  -4  -6  -6    4.87    0.74
   4   6   6    6.24    0.73
   4   6   6    4.84    0.87
   4   6   6    5.08    0.79
  -5  -6  -6    3.98    0.58
  -5  -6  -6    3.77    0.67
   5   6   6    4.97    0.80
   5   6   6    3.87    0.69
  -6  -6  -6   14.13    1.15
   6   6   6   14.25    1.32
  -7  -6  -6   -0.06    0.30
   7   6   6    0.12    0.45
   8   6   6   13.72    1.61
   9   6   6    3.89    0.90
  10   6   6    3.19    0.95
  -7   7   6   -0.01    0.81
   6  -7  -6    3.37    1.04
  -6   7   6    6.12    1.44
   5  -7  -6    0.26    0.69
  -5   7   6    0.33    0.67
   4  -7  -6    8.35    1.29
  -4   7   6    7.83    1.11
  -4   7   6    7.65    1.48
   3  -7  -6   10.63    1.46
  -3   7   6    8.92    1.16
  -3   7   6   11.21    1.58
   2  -7  -6   33.52    2.41
  -2   7   6   34.83    2.64
  -2   7   6   34.19    2.28
   1  -7  -6   14.54    1.41
  -1   7   6   17.79    1.33
  -1   7   6   18.01    1.64
   0  -7  -6   35.85    2.46
   0  -7  -6   39.34    2.35
   0   7   6   39.96    2.68
  -1  -7  -6   10.60    0.88
  -1  -7  -6   10.49    1.09
  -1  -7  -6    9.34    0.93
   1   7   6    9.17    1.21
  -2  -7  -6    0.93    0.34
  -2  -7  -6    1.40    0.44
  -2  -7  -6    1.18    0.35
   2   7   6    1.12    0.52
  -3  -7  -6    8.28    0.80
  -3  -7  -6    7.80    0.79
   3   7   6    8.78    1.08
  -4  -7  -6   -0.01    0.21
  -4  -7  -6    0.05    0.29
   4   7   6   -0.23    0.40
   4   7   6    0.07    0.33
  -5  -7  -6   49.53    2.88
   5   7   6   52.03    3.12
   6   7   6   13.07    1.38
   7   7   6    3.67    0.76
   8   7   6    0.69    0.56
   9   7   6   13.54    1.63
  10   7   6    3.47    0.92
  -6   8   6    3.53    1.33
  -5   8   6   12.91    2.04
  -4   8   6    4.37    1.22
  -3   8   6   19.06    2.19
  -3   8   6   19.46    1.63
  -2   8   6   10.35    1.49
  -2   8   6    8.25    1.05
  -1   8   6   13.37    1.60
  -1   8   6   13.83    1.18
   0  -8  -6   27.23    1.70
   0   8   6   20.72    1.88
  -1  -8  -6   16.25    1.71
   1   8   6   15.04    1.42
  -2  -8  -6   12.29    0.96
   2   8   6   14.77    1.33
   3   8   6    7.14    0.97
   4   8   6    0.90    0.41
   4   8   6    0.95    0.50
   5   8   6    0.36    0.40
   6   8   6   12.29    1.15
   7   8   6    0.57    0.43
   8   8   6    4.59    0.88
   9   8   6    7.71    1.17
  10   8   6    0.37    0.63
  -5   9   6    4.84    1.39
  -4   9   6    3.35    1.19
  -3   9   6   -0.61    0.68
  -2   9   6    3.80    0.75
  -2   9   6    0.64    0.76
  -1   9   6    7.85    0.97
  -1   9   6    6.74    1.20
   0   9   6    8.18    1.23
   1   9   6    0.23    0.51
   2   9   6    0.64    0.54
   3   9   6    0.19    0.45
   4   9   6    1.05    0.43
   4   9   6    2.84    0.65
   5   9   6    0.32    0.37
   6   9   6    0.25    0.35
   7   9   6    8.72    1.06
   8   9   6    5.87    0.94
   9   9   6    3.30    0.80
  -3  10   6    2.09    0.99
  -2  10   6    1.09    0.80
  -1  10   6   10.20    1.17
  -1  10   6   10.26    1.50
   0  10   6    0.53    0.59
   1  10   6    0.08    0.51
   2  10   6    3.45    0.82
   3  10   6    5.27    0.83
   4  10   6    2.52    0.53
   4  10   6    1.76    0.57
  -2  11   6   17.87    2.25
  -1  11   6    0.50    0.77
   0  11   6    2.69    0.90
   1  11   6    6.12    1.10
   6   6  -7    0.94    0.80
   5   6  -7    2.15    0.92
   4   6  -7    0.08    0.68
   3   6  -7    1.77    0.90
   2   6  -7    1.51    0.78
   1   6  -7    4.96    1.19
   0   6  -7    1.60    0.88
  -1   6  -7    4.42    1.16
  -2   6  -7    2.31    1.05
   7   5  -7    4.89    1.17
   6   5  -7   -0.50    0.60
   5   5  -7    2.47    0.94
   4   5  -7    6.44    1.24
   4   5  -7    6.99    0.96
   3   5  -7    0.36    0.69
   3   5  -7    2.11    0.57
   2   5  -7   28.19    2.05
   2   5  -7   30.98    2.50
   1   5  -7    1.94    0.86
   1   5  -7    2.90    0.70
   0   5  -7    1.90    0.63
   0   5  -7    1.91    0.83
  -1   5  -7   15.90    2.02
  -2   5  -7    0.47    0.69
  -3   5  -7    0.71    0.89
  -4   5  -7   12.28    1.95
   8   4  -7    7.55    1.45
   7   4  -7   14.74    1.93
   6   4  -7    7.34    1.05
   6   4  -7    7.94    1.41
   5   4  -7    1.36    0.57
   5   4  -7    3.39    0.92
   4   4  -7    0.04    0.41
   4   4  -7    0.13    0.65
   3   4  -7    9.68    1.41
   3   4  -7   10.41    1.17
   2   4  -7   10.99    1.23
   2   4  -7   11.29    1.54
   1   4  -7    1.53    0.53
   1   4  -7    0.92    0.71
   0   4  -7    3.10    0.71
   0   4  -7    4.06    1.00
  -1   4  -7    9.60    1.47
  -1   4  -7    9.58    1.15
  -2   4  -7    1.30    0.83
  -3   4  -7    1.23    0.85
  -4   4  -7    3.79    1.17
  -5   4  -7    0.48    0.83
   9   3  -7    1.22    0.96
   8   3  -7    3.50    1.07
   7   3  -7    0.75    0.72
   6   3  -7    8.12    1.09
   6   3  -7   10.09    1.50
   5   3  -7    1.48    0.53
   4   3  -7   -0.28    0.52
   4   3  -7   -0.28    0.39
   3   3  -7    5.73    0.84
   3   3  -7    4.61    1.06
   2   3  -7   40.49    2.80
   2   3  -7   36.12    2.44
   1   3  -7    0.76    0.65
   1   3  -7   -0.09    0.38
  -1  -3   7    0.78    0.47
   0   3  -7    4.34    1.00
   0   3  -7    3.10    0.66
   0  -3   7    4.10    0.79
  -1   3  -7    0.14    0.36
  -1   3  -7    0.14    0.60
   1  -3   7    0.08    0.43
  -2   3  -7    1.62    0.78
  -2   3  -7   -0.43    0.36
   2  -3   7   -0.05    0.42
  -3   3  -7    0.78    0.65
  -3   3  -7    1.12    0.54
   3  -3   7    0.33    0.54
  -4   3  -7    1.85    0.90
   4  -3   7    1.36    0.68
  -5   3  -7   13.16    1.98
   5  -3   7   18.61    2.06
  -6   3  -7    4.47    1.26
   6  -3   7    8.12    1.44
   9   2  -7    4.86    1.31
   8   2  -7   -0.23    0.53
   7   2  -7    0.42    0.63
   6   2  -7    0.90    0.65
   6   2  -7    0.75    0.57
   5   2  -7    1.34    0.68
   5   2  -7    0.46    0.43
  -5  -2   7    0.63    0.64
   3   2  -7   12.32    1.55
   3   2  -7   16.68    1.53
  -3  -2   7   12.07    1.50
   2   2  -7    5.86    1.09
   2   2  -7    5.59    0.84
  -2  -2   7    6.30    0.94
  -2  -2   7    4.85    0.96
   1   2  -7   13.45    1.23
   1   2  -7   17.59    1.80
  -1  -2   7   14.12    1.35
   0   2  -7    8.68    1.33
   0   2  -7    9.39    1.09
   0  -2   7   12.90    1.38
  -1   2  -7    0.18    0.33
  -1   2  -7   -0.01    0.53
   1  -2   7   -0.24    0.36
  -2   2  -7   11.31    1.54
  -2   2  -7   12.72    1.28
   2  -2   7   11.16    1.37
  -3   2  -7    0.22    0.54
  -3   2  -7    0.19    0.43
   3  -2   7    0.26    0.45
  -4   2  -7    5.01    1.15
  -4   2  -7    7.03    1.05
   4  -2   7    7.21    1.21
  -5   2  -7    4.43    1.10
   5  -2   7    3.59    0.95
  -6   2  -7    2.86    1.10
   6  -2   7    3.87    1.01
  -7   2  -7    4.54    1.33
   7  -2   7    3.54    1.07
   9   1  -7    0.18    0.80
   8   1  -7    0.44    0.73
   7   1  -7    1.54    0.82
  -7  -1   7    0.52    1.10
   6   1  -7    4.44    0.85
   6   1  -7    4.61    1.05
  -6  -1   7    5.82    1.21
   5   1  -7    4.50    0.82
   5   1  -7    3.11    0.84
  -5  -1   7    4.66    1.07
   4   1  -7   23.12    2.09
   4   1  -7   26.53    1.87
  -4  -1   7   27.32    2.13
   3   1  -7   18.25    1.36
  -3  -1   7   10.96    1.49
   2   1  -7    5.76    1.08
   2   1  -7    5.47    0.86
  -2  -1   7    6.72    1.08
   1   1  -7   15.08    1.27
   1   1  -7   13.36    1.60
  -1  -1   7   16.75    1.53
  -1  -1   7   16.91    1.41
   0   1  -7    0.39    0.39
   0   1  -7   -0.81    0.37
   0  -1   7    0.25    0.35
  -1   1  -7   11.59    1.52
  -1   1  -7   14.32    1.22
   1  -1   7   13.85    1.49
  -2   1  -7    8.61    1.25
  -2   1  -7    6.93    0.93
   2  -1   7    9.97    1.25
  -3   1  -7    0.64    0.42
  -3   1  -7    1.28    0.63
   3  -1   7    1.53    0.63
  -4   1  -7   26.40    2.03
  -4   1  -7   31.83    2.46
   4  -1   7   29.58    2.25
  -5   1  -7   -0.01    0.40
  -5   1  -7    1.42    0.74
   5  -1   7    0.37    0.49
  -6   1  -7    0.34    0.69
   6  -1   7    0.32    0.52
  -7   1  -7    6.94    1.40
   7  -1   7    7.38    1.33
  -8   1  -7   -0.20    0.62
   8  -1   7    0.06    0.58
   9   0  -7    0.49    0.70
   8   0  -7    3.01    1.13
  -8   0   7    6.50    1.36
  -8   0   7    4.54    0.96
   7   0  -7   11.24    1.72
  -7   0   7   10.80    1.63
  -7   0   7    7.70    1.19
   6   0  -7    9.31    1.50
  -6   0   7    8.59    1.44
   5   0  -7   24.06    1.92
   5   0  -7   26.06    2.18
  -5   0   7   27.93    2.28
   4   0  -7  100.87    5.89
   4   0  -7  101.02    5.58
  -4   0   7   95.35    5.90
   3   0  -7   19.16    1.55
   3   0  -7   19.99    1.84
  -3   0   7   21.44    1.86
   2   0  -7   20.94    1.74
   2   0  -7   19.16    1.48
  -2   0   7   15.91    1.81
   1   0  -7   12.89    1.45
   1   0  -7   12.49    1.27
  -1   0   7    9.72    1.35
   0   0  -7    2.26    0.58
   0   0  -7    3.84    0.85
   0   0   7    2.34    0.76
   0   0   7    3.15    0.70
  -1   0  -7   21.60    1.81
  -1   0  -7   17.59    1.44
   1   0   7   20.97    1.66
  -2   0  -7    5.96    1.14
  -2   0  -7    5.51    0.87
   2   0   7    6.74    1.05
  -3   0  -7    1.82    0.67
  -3   0  -7    1.58    0.48
   3   0   7    1.67    0.63
  -4   0  -7    8.89    1.34
  -4   0  -7    6.89    0.95
   4   0   7    9.04    1.22
  -5   0  -7    2.24    0.64
  -5   0  -7    1.73    0.78
   5   0   7    2.13    0.72
  -6   0  -7    0.87    0.70
  -6   0  -7    0.08    0.48
   6   0   7    1.06    0.62
  -7   0  -7    6.50    1.36
   7   0   7    6.91    1.24
  -8   0  -7    1.17    1.02
   8   0   7    0.76    0.71
  -9   0  -7    7.87    1.70
   9   0   7    8.47    1.57
   9  -1  -7    4.23    1.31
  -9   1   7    3.73    1.37
   8  -1  -7    1.75    0.88
  -8   1   7    1.10    0.87
   7  -1  -7    3.96    1.00
  -7   1   7    5.65    1.01
  -7   1   7    4.40    1.19
   6  -1  -7    3.38    1.00
  -6   1   7    8.11    1.11
  -6   1   7    8.23    1.45
   5  -1  -7   13.45    1.70
  -5   1   7   12.11    1.33
  -5   1   7   11.89    1.68
   4  -1  -7    0.80    0.49
   4  -1  -7    0.50    0.53
  -4   1   7    1.30    0.71
   3  -1  -7   10.47    1.16
   3  -1  -7    9.87    1.39
  -3   1   7    9.42    1.37
   2  -1  -7   13.50    1.16
   2  -1  -7   12.44    1.48
  -2   1   7   10.27    1.38
   1  -1  -7    0.48    0.34
  -1   1   7    0.23    0.48
   0  -1  -7    0.59    0.38
   0  -1  -7   -0.21    0.41
   0   1   7   -0.75    0.43
  -1  -1  -7    6.74    1.12
  -1  -1  -7    6.41    0.84
   1   1   7    7.07    1.01
   1   1   7    8.11    1.16
  -2  -1  -7    4.54    0.94
  -2  -1  -7    5.77    0.82
   2   1   7    4.39    0.84
  -3  -1  -7    8.71    1.01
  -3  -1  -7    8.38    1.29
   3   1   7    9.35    1.22
  -4  -1  -7    4.44    1.02
  -4  -1  -7    5.65    0.82
   4   1   7    3.21    0.81
  -5  -1  -7    3.34    0.71
  -5  -1  -7    4.58    1.01
   5   1   7    3.80    0.89
  -6  -1  -7    3.15    0.74
  -6  -1  -7    3.21    0.99
   6   1   7    2.62    0.78
  -7  -1  -7    0.30    0.41
  -7  -1  -7    0.32    0.69
   7   1   7   -0.49    0.43
  -8  -1  -7    0.70    0.87
   8   1   7    0.64    0.63
  -9  -1  -7    3.58    1.25
   9   1   7    6.07    1.40
   9  -2  -7    7.39    1.58
  -9   2   7    9.18    1.83
   8  -2  -7    0.98    0.76
  -8   2   7    0.18    0.78
   7  -2  -7    0.86    0.71
  -7   2   7    0.22    0.48
  -7   2   7    0.09    0.65
   6  -2  -7    5.29    1.21
  -6   2   7    5.23    1.26
  -6   2   7    6.01    1.00
   5  -2  -7   16.29    1.88
  -5   2   7   17.73    2.09
  -5   2   7   15.23    1.58
   4  -2  -7   -0.31    0.50
  -4   2   7    0.41    0.44
  -4   2   7   -0.18    0.51
   3  -2  -7    7.73    1.20
   3  -2  -7    7.89    1.00
  -3   2   7    8.78    1.39
   2  -2  -7   -0.16    0.45
   2  -2  -7   -0.15    0.31
  -2   2   7   -0.01    0.51
   1  -2  -7   17.74    1.38
   1  -2  -7   20.69    1.69
  -1   2   7   14.09    1.66
   0  -2  -7    2.34    0.69
   0  -2  -7    1.90    0.51
   0   2   7    1.87    0.71
  -1  -2  -7   57.07    3.30
  -1  -2  -7   53.44    3.48
   1   2   7   57.31    3.57
  -2  -2  -7   48.54    2.85
  -2  -2  -7   49.68    3.14
   2   2   7   42.03    3.03
   2   2   7   46.42    2.97
  -3  -2  -7   22.88    1.69
  -3  -2  -7   24.65    1.96
   3   2   7   23.47    1.85
  -4  -2  -7    0.54    0.56
  -4  -2  -7    0.81    0.39
   4   2   7    1.47    0.53
  -5  -2  -7    4.75    0.78
  -5  -2  -7    4.11    0.93
   5   2   7    3.36    0.80
  -6  -2  -7    4.00    0.77
  -6  -2  -7    4.34    1.02
   6   2   7    3.81    0.85
  -7  -2  -7    1.75    0.61
  -7  -2  -7    0.64    0.75
   7   2   7    2.07    0.72
  -8  -2  -7   13.51    1.85
   8   2   7    8.05    1.34
  -9  -2  -7    4.43    1.23
   9   2   7    2.45    0.93
 -10  -2  -7    0.52    0.76
  10   2   7    0.67    0.74
   9  -3  -7    5.96    1.52
  -9   3   7    3.95    1.40
   8  -3  -7   -0.30    0.71
  -8   3   7   -0.21    0.78
   7  -3  -7    0.58    0.81
  -7   3   7   -0.03    0.64
   6  -3  -7    7.43    1.36
  -6   3   7    7.82    1.16
  -6   3   7    6.44    1.38
   5  -3  -7    1.99    0.77
  -5   3   7    3.24    0.96
  -5   3   7    2.45    0.69
   4  -3  -7    9.83    1.39
  -4   3   7   12.36    1.33
  -4   3   7    7.05    1.32
   3  -3  -7    4.85    0.95
  -3   3   7    2.27    0.82
  -3   3   7    3.53    0.69
   2  -3  -7    2.61    0.74
   2  -3  -7    1.66    0.54
  -2   3   7    2.56    0.78
   1  -3  -7   46.39    3.06
   1  -3  -7   45.19    2.82
  -1   3   7   50.59    3.26
   0  -3  -7    8.97    1.15
   0  -3  -7    9.67    1.02
   0   3   7    6.17    1.06
  -1  -3  -7    1.08    0.41
  -1  -3  -7    0.67    0.49
   1   3   7    0.63    0.50
   1   3   7    1.21    0.45
  -2  -3  -7   22.39    1.74
  -2  -3  -7   20.19    1.49
   2   3   7   18.12    1.70
   2   3   7   20.93    1.48
  -3  -3  -7    2.97    0.76
  -3  -3  -7    2.92    0.57
   3   3   7    3.49    0.76
  -4  -3  -7    2.06    0.55
  -4  -3  -7    1.84    0.66
   4   3   7    2.95    0.73
  -5  -3  -7    2.33    0.72
  -5  -3  -7    0.95    0.43
   5   3   7    2.12    0.64
  -6  -3  -7    7.41    1.00
  -6  -3  -7    7.65    1.23
   6   3   7    5.34    0.99
  -7  -3  -7    0.39    0.63
  -7  -3  -7    0.55    0.49
   7   3   7    1.02    0.59
  -8  -3  -7   -0.72    0.58
  -8  -3  -7    0.76    0.55
   8   3   7   -0.44    0.40
  -9  -3  -7   12.80    1.88
   9   3   7    9.91    1.57
 -10  -3  -7    4.63    1.60
  10   3   7    5.67    1.27
   8  -4  -7   -0.18    0.75
  -8   4   7    1.27    1.04
   7  -4  -7   16.43    2.19
  -7   4   7   13.09    2.12
   6  -4  -7   11.67    1.69
  -6   4   7   10.37    1.81
  -6   4   7   12.91    1.57
   5  -4  -7    4.60    1.08
  -5   4   7    7.09    1.37
  -5   4   7    4.70    0.91
   4  -4  -7    4.65    1.03
  -4   4   7    4.68    0.81
  -4   4   7    1.82    0.84
   3  -4  -7    0.07    0.48
  -3   4   7    0.52    0.57
  -3   4   7    0.40    0.39
   2  -4  -7    0.80    0.45
   2  -4  -7    0.75    0.57
  -2   4   7    1.45    0.70
   1  -4  -7   29.12    2.10
   1  -4  -7   25.79    1.83
  -1   4   7   26.59    2.14
   0  -4  -7    4.60    0.85
   0  -4  -7    5.87    0.77
   0   4   7    5.28    0.94
  -1  -4  -7   35.63    2.15
  -1  -4  -7   33.65    2.30
   1   4   7   27.67    2.27
  -2  -4  -7    7.13    0.89
  -2  -4  -7   10.68    1.26
   2   4   7   10.42    1.03
   2   4   7    9.45    1.27
  -3  -4  -7    2.23    0.52
  -3  -4  -7    2.04    0.71
   3   4   7    2.22    0.63
   3   4   7    2.47    0.71
  -4  -4  -7    0.44    0.44
  -4  -4  -7    2.10    0.54
   4   4   7    1.12    0.52
  -5  -4  -7    0.41    0.59
  -5  -4  -7    0.38    0.33
   5   4   7    1.00    0.53
  -6  -4  -7    4.48    0.81
  -6  -4  -7    6.42    1.07
   6   4   7    3.82    0.84
  -7  -4  -7    4.35    1.02
  -7  -4  -7    1.55    0.60
   7   4   7    0.60    0.51
  -8  -4  -7   -0.24    0.42
  -8  -4  -7    0.55    0.71
   8   4   7    0.97    0.63
  -9  -4  -7    2.16    0.70
   9   4   7    1.55    0.86
  10   4   7    9.47    1.60
   8  -5  -7   23.80    2.82
  -8   5   7   20.93    2.94
   7  -5  -7   17.69    2.28
  -7   5   7   18.89    2.60
   6  -5  -7   -0.36    0.55
  -6   5   7    0.21    0.70
   5  -5  -7    9.46    1.52
  -5   5   7    9.32    1.59
  -5   5   7    9.61    1.31
   4  -5  -7    6.37    1.21
  -4   5   7    7.61    1.37
  -4   5   7    5.03    0.91
   3  -5  -7   -0.09    0.52
  -3   5   7    0.78    0.48
  -3   5   7    0.99    0.65
   2  -5  -7   29.76    2.27
  -2   5   7   30.46    2.41
  -2   5   7   31.40    2.12
   1  -5  -7    5.72    1.01
   1  -5  -7    6.86    0.91
  -1   5   7    4.83    0.97
   0  -5  -7    1.78    0.47
   0  -5  -7    2.74    0.68
   0   5   7    2.54    0.79
  -1  -5  -7    8.89    1.01
  -1  -5  -7    9.74    1.24
   1   5   7    9.32    1.28
  -2  -5  -7   12.77    1.09
  -2  -5  -7   14.11    1.30
   2   5   7   11.10    1.38
  -3  -5  -7    5.80    0.94
   3   5   7    3.43    0.84
   3   5   7    5.58    0.77
  -4  -5  -7    4.32    0.68
  -4  -5  -7    4.51    0.82
   4   5   7    4.59    0.83
   4   5   7    3.89    0.66
  -5  -5  -7    3.90    0.68
  -5  -5  -7    5.41    0.94
   5   5   7    4.60    0.86
  -6  -5  -7    3.55    0.85
  -6  -5  -7    4.12    0.70
   6   5   7    3.14    0.76
  -7  -5  -7   15.31    1.72
  -7  -5  -7   14.23    1.43
   7   5   7   13.81    1.61
  -8  -5  -7    1.60    0.58
   8   5   7    3.19    0.88
   9   5   7   22.22    2.05
  10   5   7    0.35    0.66
   7  -6  -7    3.89    1.30
  -7   6   7    4.56    1.46
   6  -6  -7    0.93    0.85
  -6   6   7    1.08    0.87
   5  -6  -7    2.19    0.94
  -5   6   7    0.87    0.84
   4  -6  -7   -0.12    0.46
  -4   6   7    0.09    0.45
  -4   6   7   -0.16    0.66
   3  -6  -7   -0.24    0.43
  -3   6   7   -0.16    0.40
  -3   6   7    0.28    0.66
   2  -6  -7    7.10    1.12
  -2   6   7    3.59    0.94
  -2   6   7    3.63    0.70
   1  -6  -7    4.14    0.89
   1  -6  -7    4.42    0.71
  -1   6   7    5.59    1.07
   0  -6  -7    9.16    1.00
   0  -6  -7    9.83    1.21
   0   6   7   11.72    1.47
  -1  -6  -7   17.13    1.55
  -1  -6  -7   18.86    1.39
   1   6   7   19.81    1.73
  -2  -6  -7   17.45    1.50
  -2  -6  -7   18.87    1.35
   2   6   7   17.95    1.65
  -3  -6  -7    6.00    0.73
   3   6   7    5.15    0.96
  -4  -6  -7   34.62    2.29
  -4  -6  -7   35.26    2.13
   4   6   7   34.16    2.44
   4   6   7   30.68    2.27
  -5  -6  -7   -0.22    0.27
  -5  -6  -7   -0.17    0.41
   5   6   7   -0.49    0.38
  -6  -6  -7    8.20    0.98
   6   6   7    7.74    1.14
  -7  -6  -7    2.77    0.63
   7   6   7    0.83    0.57
   8   6   7    9.30    1.39
   9   6   7    0.86    0.66
  10   6   7    1.00    0.72
   7  -7  -7    0.80    0.96
  -7   7   7    1.27    1.12
   6  -7  -7    4.51    1.17
  -6   7   7    3.12    1.23
   5  -7  -7   -0.11    0.70
  -5   7   7   -0.50    0.77
   4  -7  -7    1.53    0.81
  -4   7   7    1.88    0.71
  -4   7   7    2.00    0.88
   3  -7  -7   25.24    2.15
  -3   7   7   28.35    2.40
  -3   7   7   25.49    1.98
   2  -7  -7    2.30    0.76
  -2   7   7    3.44    0.70
  -2   7   7    2.36    0.87
   1  -7  -7   13.35    1.19
   1  -7  -7   12.67    1.50
  -1   7   7   14.86    1.73
   0  -7  -7   13.86    1.15
   0  -7  -7   14.26    1.33
   0   7   7   13.67    1.61
  -1  -7  -7    6.13    0.89
  -1  -7  -7    3.42    0.64
   1   7   7    3.61    0.86
  -2  -7  -7    7.07    0.94
  -2  -7  -7    7.23    0.83
   2   7   7    6.61    1.07
  -3  -7  -7   25.17    1.75
   3   7   7   32.07    2.17
  -4  -7  -7    9.70    0.85
   4   7   7   10.08    1.23
   4   7   7    6.85    0.98
  -5  -7  -7   35.69    2.21
   5   7   7   36.93    2.50
   6   7   7    2.34    0.68
   7   7   7    2.13    0.72
   8   7   7    6.92    1.16
   9   7   7    5.79    1.14
  10   7   7   -0.01    0.63
  -6   8   7    6.54    1.66
  -5   8   7    7.80    1.62
  -4   8   7    8.28    1.60
  -3   8   7    7.36    1.46
  -3   8   7    6.15    1.00
  -2   8   7   -0.05    0.37
  -2   8   7   -0.40    0.60
   1  -8  -7    2.17    0.59
  -1   8   7    1.21    0.66
   0  -8  -7    1.52    0.47
   0   8   7    0.51    0.53
  -1  -8  -7    0.38    0.32
   1   8   7    1.52    0.68
   2   8   7   10.55    1.34
   3   8   7    9.29    1.23
   4   8   7    0.16    0.38
   4   8   7    0.06    0.45
   5   8   7    0.80    0.51
   6   8   7   13.62    1.45
   7   8   7   -0.44    0.38
   8   8   7    0.30    0.53
   9   8   7    1.31    0.65
  10   8   7    1.55    0.76
  -5   9   7    0.51    0.94
  -4   9   7    7.35    1.61
  -3   9   7    1.54    0.93
  -2   9   7    8.07    1.42
  -2   9   7    8.39    1.13
  -1   9   7    1.12    0.75
   0   9   7    0.51    0.61
   1   9   7   -0.19    0.50
   2   9   7    3.47    0.84
   3   9   7    0.37    0.53
   4   9   7    7.29    1.05
   5   9   7    4.95    0.84
   6   9   7    5.67    0.90
   7   9   7    5.37    0.87
   8   9   7   -0.26    0.51
   9   9   7    0.81    0.59
  -3  10   7    0.60    0.83
  -2  10   7   -0.61    0.68
  -1  10   7    5.86    1.24
   0  10   7    2.71    0.89
   1  10   7    3.81    0.96
   2  10   7    5.92    1.05
   3  10   7    7.15    1.08
   4  10   7   22.13    1.77
   5  10   7    0.37    0.46
   6  10   7    4.05    0.74
   7  10   7   10.10    1.28
  -2  11   7    1.19    0.96
  -1  11   7    1.34    0.90
   0  11   7    8.59    1.40
   1  11   7    4.26    1.01
   2  11   7    1.73    0.70
   2   6  -8    1.88    0.95
   6   5  -8   -0.19    0.78
   5   5  -8   14.10    1.92
   4   5  -8    2.00    0.97
   3   5  -8    0.91    0.86
   2   5  -8    8.90    1.53
   1   5  -8    0.19    0.66
   0   5  -8    3.71    1.09
  -1   5  -8    3.44    1.15
  -2   5  -8    0.99    0.92
   7   4  -8    9.24    1.61
   6   4  -8    0.06    0.68
   5   4  -8   14.33    1.90
   4   4  -8   -0.58    0.45
   4   4  -8    0.72    0.68
   3   4  -8    1.32    0.80
   3   4  -8    2.88    0.69
   2   4  -8    1.05    0.53
   2   4  -8    1.11    0.76
   1   4  -8   -0.01    0.45
   1   4  -8   -1.00    0.93
   0   4  -8    0.76    0.72
  -1   4  -8   17.69    2.13
  -2   4  -8    0.38    0.88
  -3   4  -8    1.69    0.94
  -4   4  -8    1.50    1.09
   8   3  -8    0.83    0.88
   7   3  -8    1.73    0.94
   6   3  -8   25.73    2.38
   5   3  -8    2.80    1.13
   5   3  -8    1.87    0.68
   4   3  -8    0.86    0.51
   4   3  -8    1.14    0.74
   3   3  -8    0.22    0.45
   3   3  -8    0.03    0.62
   2   3  -8    0.27    0.68
   2   3  -8    0.71    0.51
   1   3  -8    5.34    0.90
   1   3  -8    5.19    1.17
   0   3  -8    3.91    0.99
   0   3  -8    3.76    0.78
  -1   3  -8    0.26    0.47
  -1   3  -8    0.74    0.63
  -2   3  -8    8.70    1.51
  -3   3  -8    2.58    1.03
  -4   3  -8    0.14    0.79
  -5   3  -8    1.70    0.96
   8   2  -8    1.01    0.86
   7   2  -8    2.41    1.06
   6   2  -8    5.01    1.25
   5   2  -8   -0.01    0.62
   5   2  -8   -0.36    0.48
   4   2  -8    1.22    0.69
   4   2  -8    0.19    0.44
   3   2  -8    1.60    0.74
   3   2  -8    0.60    0.51
  -3  -2   8    0.15    0.52
   2   2  -8    0.05    0.61
   2   2  -8    0.11    0.37
  -2  -2   8   -0.02    0.44
   1   2  -8   18.89    2.11
   1   2  -8   19.98    1.62
  -1  -2   8   21.42    1.80
   0   2  -8    1.11    0.50
   0   2  -8    0.48    0.65
   0  -2   8    0.99    0.59
  -1   2  -8    0.21    0.67
  -1   2  -8    0.89    0.49
   1  -2   8    0.05    0.48
  -2   2  -8   22.21    2.04
  -2   2  -8   20.89    1.66
   2  -2   8   18.67    1.76
  -3   2  -8    2.00    0.84
   3  -2   8    2.47    0.79
  -4   2  -8    0.15    0.69
   4  -2   8    0.65    0.61
  -5   2  -8    1.78    0.97
   5  -2   8    2.53    0.89
  -6   2  -8    0.16    0.86
   6  -2   8    1.10    0.71
   9   1  -8   11.00    1.94
   8   1  -8   11.06    1.80
   7   1  -8    6.32    1.38
   6   1  -8   -0.21    0.84
   6   1  -8    0.00    0.64
   5   1  -8    0.30    0.48
   5   1  -8    0.24    0.65
  -5  -1   8    0.86    0.67
   4   1  -8    9.42    1.46
   4   1  -8    7.87    1.09
  -4  -1   8   10.28    1.48
   3   1  -8   -0.01    0.41
   3   1  -8    0.42    0.55
  -3  -1   8    0.47    0.58
   2   1  -8   39.64    2.86
   2   1  -8   38.30    2.55
  -2  -1   8   36.42    2.75
   1   1  -8   13.07    1.69
   1   1  -8   14.75    1.29
  -1  -1   8   12.18    1.57
  -1  -1   8   14.08    1.53
   0   1  -8    0.69    0.64
   0   1  -8    0.68    0.46
   0  -1   8    0.93    0.50
  -1   1  -8   16.62    1.40
  -1   1  -8   13.68    1.79
   1  -1   8   15.89    1.53
  -2   1  -8   11.35    1.26
   2  -1   8   13.30    1.53
   3  -1   8    1.72    0.64
  -4   1  -8    4.74    1.18
  -4   1  -8    5.86    1.08
   4  -1   8    5.74    1.06
  -5   1  -8    0.48    0.74
   5  -1   8    0.12    0.55
  -6   1  -8   -0.14    0.77
   6  -1   8   -0.41    0.47
  -7   1  -8    7.33    1.53
   7  -1   8    7.44    1.37
   9   0  -8    1.49    1.10
   8   0  -8    8.83    1.67
   7   0  -8   11.03    1.71
  -7   0   8   16.08    2.11
   6   0  -8    0.50    0.64
   6   0  -8    1.09    0.63
  -6   0   8    1.85    0.86
   5   0  -8    5.07    0.96
   5   0  -8    6.25    1.26
  -5   0   8    9.14    1.52
   4   0  -8    0.22    0.44
   4   0  -8    1.45    0.74
  -4   0   8    0.78    0.73
   3   0  -8    0.25    0.44
   3   0  -8    0.22    0.63
  -3   0   8   -0.06    0.57
   2   0  -8    8.99    1.11
   2   0  -8    8.59    1.36
  -2   0   8    9.01    1.37
   1   0  -8   14.45    1.72
   1   0  -8   14.37    1.29
  -1   0   8   14.54    1.69
   0   0  -8    8.36    1.04
   0   0  -8    6.53    1.16
   0   0   8    7.07    1.20
   0   0   8    6.14    1.04
  -1   0  -8   10.47    1.50
  -1   0  -8   13.28    1.36
   1   0   8   13.21    1.55
  -2   0  -8    0.17    0.58
  -2   0  -8    0.50    0.41
   2   0   8    0.01    0.42
  -3   0  -8   15.35    1.81
  -3   0  -8   17.03    1.42
   3   0   8   16.67    1.58
  -4   0  -8   20.87    1.60
  -4   0  -8   17.55    1.99
   4   0   8   13.51    1.69
  -5   0  -8    0.47    0.74
  -5   0  -8    1.10    0.58
   5   0   8    0.48    0.55
  -6   0  -8    5.67    1.35
   6   0   8    6.55    1.22
  -7   0  -8    6.72    1.52
   7   0   8    7.35    1.35
  -8   0  -8    0.22    0.90
   8   0   8   -0.68    0.62
   9  -1  -8   -0.05    0.85
   8  -1  -8   12.86    1.99
  -8   1   8   11.22    1.95
   7  -1  -8    1.66    0.86
  -7   1   8    2.16    1.02
  -7   1   8    1.16    0.72
   6  -1  -8    4.01    1.10
  -6   1   8    3.40    1.12
   5  -1  -8    6.40    1.00
   5  -1  -8    5.88    1.18
  -5   1   8    7.77    1.44
   4  -1  -8   12.04    1.34
   4  -1  -8   11.18    1.58
  -4   1   8   13.31    1.81
   3  -1  -8   30.14    2.46
   3  -1  -8   32.65    2.23
  -3   1   8   32.23    2.53
   2  -1  -8    3.75    0.93
   2  -1  -8    2.99    0.71
  -2   1   8    2.99    0.89
   1  -1  -8    7.81    1.08
   1  -1  -8    6.37    1.12
  -1   1   8    7.41    1.19
   0  -1  -8    0.73    0.49
   0  -1  -8   -0.01    0.56
   0   1   8    0.56    0.61
  -1  -1  -8    0.02    0.40
  -1  -1  -8    0.49    0.55
   1   1   8    0.04    0.46
   1   1   8    0.10    0.56
  -2  -1  -8   11.06    1.19
  -2  -1  -8    9.39    1.43
   2   1   8   11.89    1.44
  -3  -1  -8    4.35    1.03
  -3  -1  -8    3.05    0.64
   3   1   8    3.98    0.88
  -4  -1  -8    5.53    0.83
  -4  -1  -8    5.65    1.05
   4   1   8    5.26    1.02
  -5  -1  -8   14.11    1.85
  -5  -1  -8   17.21    1.44
   5   1   8   13.94    1.69
  -6  -1  -8    8.78    1.53
  -6  -1  -8    8.11    1.55
   6   1   8    8.40    1.39
  -7  -1  -8    4.73    1.29
   7   1   8    5.25    1.15
  -8  -1  -8    2.11    1.07
   8   1   8    2.13    0.89
   9  -2  -8    0.53    1.03
  -9   2   8    2.91    1.27
   8  -2  -8    0.06    0.89
  -8   2   8   -0.48    0.83
   7  -2  -8    3.16    1.15
  -7   2   8    4.84    1.34
   6  -2  -8    7.82    1.49
  -6   2   8    4.96    1.03
  -6   2   8    6.49    1.42
   5  -2  -8    0.29    0.53
  -5   2   8    0.67    0.74
   4  -2  -8   12.46    1.65
   4  -2  -8   16.25    1.59
  -4   2   8   14.16    1.91
   3  -2  -8    4.47    0.80
   3  -2  -8    4.72    0.99
  -3   2   8    4.37    1.08
   2  -2  -8   -0.11    0.32
   2  -2  -8    0.35    0.56
  -2   2   8    0.12    0.57
   1  -2  -8    0.93    0.49
   1  -2  -8   -0.13    0.47
  -1   2   8   -0.09    0.52
   0  -2  -8    7.53    1.18
   0  -2  -8    6.62    0.92
   0   2   8    6.88    1.24
  -1  -2  -8    0.33    0.37
  -1  -2  -8    0.26    0.60
   1   2   8    0.02    0.49
  -2  -2  -8   22.26    1.68
  -2  -2  -8   23.17    2.01
   2   2   8   21.24    1.92
   2   2   8   22.36    1.81
  -3  -2  -8    1.56    0.72
  -3  -2  -8    0.36    0.43
   3   2   8    0.98    0.60
  -4  -2  -8    5.47    0.85
  -4  -2  -8    4.56    1.05
   4   2   8    4.21    0.87
  -5  -2  -8   24.64    1.88
  -5  -2  -8   28.85    2.29
   5   2   8   23.22    2.04
  -6  -2  -8   10.72    1.51
   6   2   8    5.73    1.11
  -7  -2  -8    4.16    1.13
   7   2   8    4.84    1.12
  -8  -2  -8    5.85    1.45
   8   2   8    6.63    1.28
  -9  -2  -8    1.16    0.80
   9   2   8    0.12    0.49
   8  -3  -8    1.48    0.95
  -8   3   8    0.57    0.94
   7  -3  -8   -0.05    0.77
  -7   3   8    1.14    0.87
   6  -3  -8    2.45    0.93
  -6   3   8    2.86    0.79
  -6   3   8    3.01    1.11
   5  -3  -8    1.93    0.82
  -5   3   8    1.82    0.94
  -5   3   8    1.22    0.65
   4  -3  -8   45.65    3.22
  -4   3   8   44.74    3.36
   3  -3  -8   27.06    2.26
   3  -3  -8   28.62    2.05
  -3   3   8   28.33    2.44
   2  -3  -8    2.40    0.63
   2  -3  -8    3.32    0.85
  -2   3   8    2.71    0.92
   1  -3  -8   27.41    2.14
   1  -3  -8   24.63    1.84
  -1   3   8   26.92    2.21
   0  -3  -8    9.82    1.41
   0  -3  -8   13.72    1.36
   0   3   8   12.02    1.54
  -1  -3  -8    3.10    0.64
  -1  -3  -8    3.29    0.85
   1   3   8    3.90    0.92
  -2  -3  -8   19.85    1.50
  -2  -3  -8   18.27    1.75
   2   3   8   18.82    1.76
  -3  -3  -8    0.60    0.63
  -3  -3  -8    0.05    0.36
   3   3   8    0.64    0.49
  -4  -3  -8   24.68    1.83
  -4  -3  -8   25.82    2.08
   4   3   8   25.52    2.07
  -5  -3  -8   31.46    2.09
  -5  -3  -8   26.32    2.33
   5   3   8   28.41    2.25
  -6  -3  -8    1.05    0.74
  -6  -3  -8    1.54    0.56
   6   3   8    0.99    0.64
  -7  -3  -8    2.57    0.74
  -7  -3  -8    2.17    0.90
   7   3   8    2.33    0.78
  -8  -3  -8    2.33    1.04
   8   3   8    1.14    0.80
  -9  -3  -8   11.47    1.90
   9   3   8   15.62    2.04
   8  -4  -8    0.78    0.90
  -8   4   8   -0.62    0.80
   7  -4  -8    3.04    1.10
  -7   4   8    5.17    1.42
   6  -4  -8   13.68    1.89
  -6   4   8    9.14    1.71
   5  -4  -8   39.30    3.06
  -5   4   8   36.13    3.07
  -5   4   8   38.08    2.69
   4  -4  -8   40.14    2.79
  -4   4   8   29.33    2.72
  -4   4   8   35.01    2.48
   3  -4  -8    5.46    0.89
   3  -4  -8    4.95    1.07
  -3   4   8    3.93    0.99
   2  -4  -8    2.26    0.58
   2  -4  -8    2.87    0.87
  -2   4   8    2.63    0.89
   1  -4  -8    3.61    0.69
   1  -4  -8    4.23    0.92
  -1   4   8    3.98    0.95
   0  -4  -8   -0.25    0.45
   0  -4  -8    0.55    0.40
   0   4   8    0.49    0.59
  -1  -4  -8    4.28    0.72
  -1  -4  -8    2.68    0.78
   1   4   8    4.75    0.97
  -2  -4  -8    7.93    1.24
  -2  -4  -8    8.83    1.03
   2   4   8    7.04    1.25
  -3  -4  -8    9.83    1.36
  -3  -4  -8    7.51    0.97
   3   4   8    9.21    1.24
   3   4   8    9.35    1.36
  -4  -4  -8   22.11    1.73
  -4  -4  -8   24.17    1.96
   4   4   8   26.09    2.00
  -5  -4  -8    0.51    0.55
  -5  -4  -8   -0.46    0.23
   5   4   8   -0.08    0.40
  -6  -4  -8    1.81    0.58
  -6  -4  -8    2.50    0.79
   6   4   8    2.07    0.73
  -7  -4  -8    6.97    1.26
  -7  -4  -8    5.79    0.94
   7   4   8    6.66    1.22
  -8  -4  -8    1.11    0.80
  -8  -4  -8    0.82    0.56
   8   4   8    1.15    0.68
   9   4   8    1.83    0.85
   8  -5  -8    7.94    1.69
  -8   5   8    5.66    1.62
   7  -5  -8    0.27    0.82
  -7   5   8    0.67    0.94
   6  -5  -8   -0.32    0.61
  -6   5   8   -0.89    0.59
   5  -5  -8    7.80    1.52
  -5   5   8   12.68    1.89
  -5   5   8    7.30    1.29
   4  -5  -8   10.66    1.54
  -4   5   8    8.56    1.18
  -4   5   8   12.48    1.80
   3  -5  -8    0.31    0.61
  -3   5   8    0.36    0.42
  -3   5   8   -0.29    0.56
   2  -5  -8    2.63    0.64
   2  -5  -8    2.45    0.78
  -2   5   8    2.90    0.90
   1  -5  -8   25.63    1.81
   1  -5  -8   24.63    2.00
  -1   5   8   22.35    2.11
   0  -5  -8    0.41    0.50
   0  -5  -8    0.85    0.46
   0   5   8   -0.06    0.55
  -1  -5  -8   -0.11    0.49
  -1  -5  -8   -0.04    0.36
   1   5   8   -0.10    0.48
  -2  -5  -8   10.09    1.10
  -2  -5  -8    8.02    1.19
   2   5   8    9.51    1.34
  -3  -5  -8   17.06    1.33
  -3  -5  -8   17.35    1.58
   3   5   8   13.93    1.68
  -4  -5  -8    6.58    0.89
  -4  -5  -8    6.45    1.07
   4   5   8    6.18    1.08
  -5  -5  -8    3.35    0.83
  -5  -5  -8    2.94    0.64
   5   5   8    3.22    0.81
  -6  -5  -8   14.04    1.63
  -6  -5  -8    9.82    1.20
   6   5   8   13.54    1.60
  -7  -5  -8    9.28    1.38
  -7  -5  -8    7.20    1.05
   7   5   8    7.57    1.24
  -8  -5  -8    0.09    0.45
   8   5   8    0.45    0.59
   9   5   8    1.22    0.78
  10   5   8    2.26    0.94
   7  -6  -8    5.18    1.43
  -7   6   8    1.19    0.93
   6  -6  -8    3.96    1.16
  -6   6   8    3.34    1.25
   5  -6  -8    6.02    1.36
  -5   6   8    6.50    1.48
   4  -6  -8    0.40    0.66
  -4   6   8    1.09    0.80
  -4   6   8    0.05    0.47
   3  -6  -8   -0.23    0.48
  -3   6   8   -0.36    0.58
  -3   6   8    0.34    0.50
   2  -6  -8   -0.33    0.37
   2  -6  -8    0.31    0.52
  -2   6   8    0.73    0.59
   1  -6  -8    0.91    0.43
   1  -6  -8    1.16    0.58
  -1   6   8    0.90    0.63
   0  -6  -8    5.06    0.97
   0  -6  -8    4.51    0.76
   0   6   8    4.01    0.96
  -1  -6  -8   -0.13    0.32
  -1  -6  -8    0.93    0.57
   1   6   8    0.20    0.48
  -2  -6  -8   11.08    1.16
  -2  -6  -8   14.63    1.35
   2   6   8    9.51    1.42
  -3  -6  -8   25.02    1.77
  -3  -6  -8   25.93    2.00
   3   6   8   26.51    2.14
  -4  -6  -8   -0.03    0.44
  -4  -6  -8    0.15    0.34
   4   6   8    0.95    0.64
   4   6   8    0.48    0.46
  -5  -6  -8    1.51    0.47
  -5  -6  -8    2.52    0.73
   5   6   8    1.18    0.63
  -6  -6  -8    1.26    0.49
   6   6   8    2.63    0.74
   7   6   8    0.02    0.52
   8   6   8    3.75    0.97
   9   6   8    3.77    0.99
  10   6   8    4.12    1.13
   6  -7  -8    7.23    1.54
  -6   7   8    7.93    1.84
   5  -7  -8    0.09    0.74
  -5   7   8   -0.72    0.64
   4  -7  -8    0.77    0.71
  -4   7   8    1.80    0.95
   3  -7  -8    7.40    1.28
  -3   7   8    5.37    1.27
  -3   7   8    5.15    0.95
   2  -7  -8   12.54    1.32
   2  -7  -8    9.69    1.41
  -2   7   8    9.79    1.58
   1  -7  -8   41.91    2.82
   1  -7  -8   35.70    2.51
  -1   7   8   40.62    2.98
   0  -7  -8   21.37    1.58
   0  -7  -8   18.18    1.70
   0   7   8   23.55    2.03
  -1  -7  -8    0.83    0.41
  -1  -7  -8    1.95    0.64
   1   7   8    1.96    0.73
  -2  -7  -8   29.78    1.93
  -2  -7  -8   27.28    2.07
   2   7   8   27.27    2.25
  -3  -7  -8   -0.41    0.44
  -3  -7  -8    0.06    0.32
   3   7   8    0.08    0.53
  -4  -7  -8    2.85    0.58
   4   7   8    2.96    0.75
   4   7   8    2.66    0.80
  -5  -7  -8   31.63    2.12
   5   7   8   32.71    2.41
   6   7   8    0.19    0.43
   7   7   8    0.46    0.52
   8   7   8    5.34    1.08
   9   7   8    2.20    0.88
  -5   8   8    2.12    1.08
  -4   8   8    0.97    0.86
  -3   8   8   43.79    3.44
   2  -8  -8    6.71    1.02
  -2   8   8    6.79    1.38
  -1   8   8   11.38    1.56
   0  -8  -8    4.69    0.75
   0   8   8    4.54    1.07
  -1  -8  -8    8.12    0.99
   1   8   8    7.92    1.29
   2   8   8   18.70    1.75
   3   8   8    5.04    0.99
   4   8   8    0.90    0.52
   4   8   8    1.14    0.64
   5   8   8    1.44    0.62
   6   8   8    4.23    0.87
   7   8   8    0.72    0.56
   8   8   8    1.78    0.70
   9   8   8    0.67    0.66
  -4   9   8   -0.83    0.70
  -3   9   8    0.76    0.91
  -2   9   8    4.35    1.14
  -1   9   8    2.35    0.93
   0   9   8    1.03    0.72
   1   9   8    9.87    1.45
   2   9   8    0.42    0.57
   3   9   8    3.07    0.83
   4   9   8    0.59    0.57
   5   9   8    1.88    0.65
   6   9   8    8.31    1.15
   7   9   8    3.49    0.84
   8   9   8    0.68    0.58
   9   9   8    1.01    0.71
  -3  10   8   -1.16    0.61
  -2  10   8    0.78    0.80
  -1  10   8   -0.42    0.63
   0  10   8    4.03    1.05
   1  10   8    1.69    0.83
   2  10   8    7.24    1.24
   3  10   8    7.87    1.23
   4  10   8    3.99    0.91
   5  10   8   -0.12    0.42
   6  10   8    1.29    0.60
   7  10   8    0.42    0.55
   8  10   8    0.83    0.62
  -1  11   8    2.59    0.98
   0  11   8    6.64    1.31
   1  11   8    4.19    1.08
   2  11   8    0.48    0.63
   3  11   8    6.13    1.09
   4  11   8    0.84    0.63
   4  11   8    0.55    0.54
   2   5  -9    2.44    1.06
   5   4  -9    3.40    1.12
   4   4  -9   -0.07    0.78
   3   4  -9    4.77    1.27
   2   4  -9    0.35    0.74
   1   4  -9   -0.54    0.62
   0   4  -9    5.34    1.28
  -1   4  -9   -0.51    0.77
  -2   4  -9    1.29    0.96
   7   3  -9    1.08    0.89
   6   3  -9    5.18    1.32
   5   3  -9    1.65    0.95
   4   3  -9    4.81    1.26
   3   3  -9    7.91    1.45
   2   3  -9    1.68    0.91
   1   3  -9    3.74    1.07
   0   3  -9    1.93    0.89
  -1   3  -9    0.89    0.80
  -2   3  -9    9.40    1.70
  -3   3  -9    0.62    0.94
  -4   3  -9   -0.09    0.73
   7   2  -9    1.38    1.01
   6   2  -9   10.45    1.70
   5   2  -9    2.78    0.93
   4   2  -9    5.46    1.22
   3   2  -9    1.89    0.64
   3   2  -9    0.60    0.73
   2   2  -9    0.24    0.60
   2   2  -9    0.96    0.55
   1   2  -9    9.82    1.57
   1   2  -9   10.24    1.31
  -1  -2   9   10.57    1.74
   0   2  -9    2.41    0.92
   0   2  -9    3.33    0.83
   0  -2   9    2.56    0.80
  -1   2  -9    1.33    0.86
   1  -2   9    1.32    0.59
  -2   2  -9   18.09    2.16
   2  -2   9   20.60    2.15
  -3   2  -9    0.80    0.82
   3  -2   9    1.59    0.72
  -4   2  -9    2.26    0.99
   4  -2   9    3.39    1.03
  -5   2  -9    0.68    0.91
   5  -2   9   -0.48    0.68
   8   1  -9    1.45    0.99
   7   1  -9    0.76    0.88
   6   1  -9    0.12    0.64
   5   1  -9    5.98    1.36
   4   1  -9    2.16    0.88
   4   1  -9    3.29    0.77
  -4  -1   9    1.90    0.80
   3   1  -9    6.19    1.24
   3   1  -9    5.62    1.01
  -3  -1   9    2.87    0.93
   2   1  -9    5.92    1.23
   2   1  -9    6.10    0.96
  -2  -1   9    6.19    1.22
  -2  -1   9    8.30    1.27
   1   1  -9   14.90    1.90
   1   1  -9   12.84    1.48
  -1  -1   9   16.44    1.77
   0   1  -9    0.89    0.69
   0   1  -9    0.12    0.48
   0  -1   9    0.15    0.55
  -1   1  -9    8.15    1.14
  -1   1  -9    5.90    1.23
   1  -1   9    6.57    1.20
  -2   1  -9    0.87    0.57
  -2   1  -9   -0.03    0.58
   2  -1   9    1.05    0.61
  -3   1  -9    2.43    0.92
   3  -1   9    2.13    0.79
  -4   1  -9    1.19    0.82
   4  -1   9    0.54    0.58
  -5   1  -9    0.80    0.79
   5  -1   9    2.21    0.86
  -6   1  -9    1.23    0.94
   6  -1   9    0.29    0.71
   8   0  -9   14.48    2.16
   7   0  -9    3.34    1.18
   6   0  -9   -0.53    0.64
  -6   0   9   -0.33    0.60
   5   0  -9   28.85    2.65
  -5   0   9   32.41    2.69
   4   0  -9   -0.71    0.54
   4   0  -9   -0.28    0.40
  -4   0   9    0.29    0.66
   3   0  -9    5.76    1.16
   3   0  -9    5.38    0.89
  -3   0   9    4.69    1.04
   2   0  -9   12.29    1.69
   2   0  -9   10.58    1.34
  -2   0   9   10.20    1.58
   1   0  -9    0.74    0.52
   1   0  -9    0.29    0.53
  -1   0   9    1.40    0.72
   0   0  -9   14.41    1.85
   0   0  -9   12.52    1.39
   0   0   9   10.96    1.59
   0   0   9   14.38    1.60
  -1   0  -9   12.71    1.42
  -1   0  -9   15.94    1.92
   1   0   9   13.55    1.64
  -2   0  -9    0.36    0.42
  -2   0  -9    0.51    0.64
   2   0   9    0.68    0.56
  -3   0  -9    7.26    1.38
  -3   0  -9    7.01    1.05
   3   0   9    6.66    1.16
  -4   0  -9    0.52    0.62
   4   0   9   -0.14    0.45
  -5   0  -9    0.95    0.87
   5   0   9    1.39    0.69
  -6   0  -9    0.68    0.85
   6   0   9    2.75    0.92
  -7   0  -9   -0.24    0.84
   7   0   9    0.67    0.82
   8  -1  -9    4.44    1.36
  -8   1   9    3.71    1.45
   7  -1  -9    0.18    0.80
  -7   1   9    0.10    0.87
   6  -1  -9    5.02    1.19
  -6   1   9    4.60    1.22
   5  -1  -9    0.13    0.69
   5  -1  -9    0.17    0.90
  -5   1   9    0.35    0.75
   4  -1  -9   -0.06    0.62
   4  -1  -9    0.92    0.54
  -4   1   9   -0.10    0.58
   3  -1  -9    2.27    0.84
   3  -1  -9    2.87    0.74
  -3   1   9    3.48    0.95
   2  -1  -9    3.21    0.91
   2  -1  -9    2.99    0.72
  -2   1   9    5.36    1.14
   1  -1  -9    2.46    0.86
   1  -1  -9    3.31    0.75
  -1   1   9    2.81    0.83
   0  -1  -9    9.92    1.45
   0  -1  -9   10.10    1.23
   0   1   9   10.68    1.55
  -1  -1  -9    0.41    0.45
  -1  -1  -9    1.11    0.74
   1   1   9    0.59    0.54
  -2  -1  -9    0.31    0.39
  -2  -1  -9    0.45    0.63
   2   1   9    0.54    0.50
  -3  -1  -9   -0.48    0.37
  -3  -1  -9    0.28    0.57
   3   1   9   -0.16    0.45
  -4  -1  -9    5.62    0.93
  -4  -1  -9    6.03    1.26
   4   1   9    3.29    0.85
  -5  -1  -9    9.87    1.60
   5   1   9    7.84    1.37
  -6  -1  -9    1.19    0.83
   6   1   9   -0.33    0.48
  -7  -1  -9    1.19    0.90
   7   1   9   -0.44    0.56
  -8  -1  -9    3.35    1.28
   8   1   9    2.23    0.93
   8  -2  -9    0.44    0.79
  -8   2   9   -0.22    0.89
   7  -2  -9    3.43    1.14
  -7   2   9    2.67    1.27
   6  -2  -9    1.48    0.82
  -6   2   9    1.40    0.91
   5  -2  -9    4.26    1.05
   5  -2  -9    4.74    1.22
  -5   2   9    5.89    1.32
   4  -2  -9   -0.29    0.51
   4  -2  -9   -0.25    0.39
  -4   2   9    1.29    0.82
   3  -2  -9   32.28    2.78
   3  -2  -9   39.21    2.56
  -3   2   9   38.43    2.93
   2  -2  -9   20.54    1.63
   2  -2  -9   19.30    2.12
  -2   2   9   14.96    1.93
   1  -2  -9   13.50    1.46
   1  -2  -9   11.76    1.62
  -1   2   9   19.66    2.06
   0  -2  -9   14.71    1.84
   0  -2  -9   17.96    1.52
   0   2   9   18.07    2.02
  -1  -2  -9    0.94    0.69
  -1  -2  -9    1.42    0.58
   1   2   9    1.63    0.73
  -2  -2  -9   34.46    2.79
  -2  -2  -9   37.83    2.47
   2   2   9   35.90    2.64
  -3  -2  -9    6.46    1.29
  -3  -2  -9    8.04    1.08
   3   2   9    6.13    1.15
  -4  -2  -9    0.48    0.63
  -4  -2  -9    1.46    0.55
   4   2   9    0.37    0.57
  -5  -2  -9   10.41    1.59
  -5  -2  -9    9.12    1.19
   5   2   9    7.45    1.26
  -6  -2  -9    0.65    0.73
   6   2   9   -0.18    0.49
  -7  -2  -9    1.38    0.99
   7   2   9    1.85    0.87
  -8  -2  -9   10.47    1.86
   8   2   9   15.85    2.03
   8  -3  -9    2.75    1.29
  -8   3   9    4.39    1.53
   7  -3  -9    3.84    1.27
  -7   3   9    2.13    1.14
   6  -3  -9    2.63    0.99
  -6   3   9    1.19    0.97
   5  -3  -9   -0.22    0.53
   5  -3  -9    0.19    0.64
  -5   3   9    0.97    0.88
   4  -3  -9    5.86    1.24
   4  -3  -9    8.70    1.17
  -4   3   9   10.76    1.75
   3  -3  -9    3.57    0.94
   3  -3  -9    3.11    0.78
  -3   3   9    2.44    1.01
   2  -3  -9    8.43    1.41
   2  -3  -9    8.93    1.14
  -2   3   9    9.17    1.46
   1  -3  -9   24.56    2.20
   1  -3  -9   28.30    2.03
  -1   3   9   30.11    2.39
   0  -3  -9    2.80    0.83
   0  -3  -9    3.92    0.79
   0   3   9    2.50    0.85
  -1  -3  -9   20.25    1.79
  -1  -3  -9   15.47    1.40
   1   3   9   14.59    1.84
  -2  -3  -9    2.49    0.81
  -2  -3  -9    0.04    0.36
   2   3   9    0.04    0.48
   2   3   9   -0.01    0.46
  -3  -3  -9   10.21    1.48
  -3  -3  -9    9.72    1.17
   3   3   9   10.42    1.45
  -4  -3  -9   -0.34    0.36
  -4  -3  -9    0.55    0.62
   4   3   9    0.56    0.58
  -5  -3  -9   10.43    1.50
  -5  -3  -9    8.06    1.09
   5   3   9    6.28    1.18
  -6  -3  -9    1.19    0.53
  -6  -3  -9   -0.40    0.61
   6   3   9   -0.34    0.48
  -7  -3  -9    0.92    0.81
   7   3   9    0.73    0.63
  -8  -3  -9    1.58    0.94
   8   3   9    0.74    0.76
  -9  -3  -9    4.87    1.42
   9   3   9    4.87    1.23
  -8   4   9    1.27    1.24
   7  -4  -9    8.77    1.80
  -7   4   9   10.41    2.05
   6  -4  -9    1.84    1.00
  -6   4   9    0.90    0.98
   5  -4  -9    3.38    1.01
  -5   4   9    2.90    1.04
   4  -4  -9    6.61    1.05
   4  -4  -9    4.34    1.17
  -4   4   9    6.72    1.42
   3  -4  -9   -0.37    0.37
   3  -4  -9    0.29    0.55
  -3   4   9   -0.87    0.59
   2  -4  -9   15.83    1.88
   2  -4  -9   16.98    1.50
  -2   4   9   17.98    2.11
   1  -4  -9   -0.33    0.51
   1  -4  -9   -0.16    0.35
  -1   4   9   -0.67    0.45
   0  -4  -9    6.02    1.18
   0  -4  -9    4.27    0.84
   0   4   9    4.52    1.10
  -1  -4  -9    1.39    0.74
  -1  -4  -9    1.65    0.60
   1   4   9    1.01    0.64
  -2  -4  -9   13.14    1.43
  -2  -4  -9   14.87    1.76
   2   4   9   13.93    1.77
  -3  -4  -9    1.09    0.45
  -3  -4  -9    0.05    0.59
   3   4   9    0.72    0.55
   3   4   9    1.18    0.73
  -4  -4  -9    1.94    0.64
  -4  -4  -9    1.52    0.71
   4   4   9    1.63    0.72
  -5  -4  -9    0.59    0.59
  -5  -4  -9    0.76    0.46
   5   4   9    0.55    0.61
  -6  -4  -9   -0.12    0.42
  -6  -4  -9    0.14    0.59
   6   4   9   -0.14    0.45
  -7  -4  -9    1.61    0.66
  -7  -4  -9    1.24    0.80
   7   4   9    2.51    0.86
  -8  -4  -9   -0.06    0.73
   8   4   9   -0.45    0.49
   9   4   9    3.40    1.10
   7  -5  -9    4.26    1.42
  -7   5   9    1.38    1.03
   6  -5  -9    0.18    0.80
  -6   5   9    1.12    1.06
   5  -5  -9    6.60    1.42
  -5   5   9    7.17    1.58
   4  -5  -9    1.63    0.63
   4  -5  -9    3.27    0.98
  -4   5   9    1.52    0.87
   3  -5  -9    8.09    1.18
   3  -5  -9   11.39    1.63
  -3   5   9    8.63    1.52
   2  -5  -9    6.10    0.98
   2  -5  -9    6.33    1.22
  -2   5   9    5.37    1.20
   1  -5  -9    0.13    0.57
   1  -5  -9    0.01    0.34
  -1   5   9   -0.35    0.51
   0  -5  -9    4.44    0.98
   0  -5  -9    1.95    0.57
   0   5   9    0.62    0.65
  -1  -5  -9    2.13    0.78
  -1  -5  -9    2.22    0.58
   1   5   9    1.50    0.73
  -2  -5  -9    7.65    0.99
  -2  -5  -9    4.74    1.00
  -3  -5  -9    9.60    1.37
  -3  -5  -9    7.58    0.99
   3   5   9    8.04    1.36
   3   5   9    5.79    1.11
  -4  -5  -9    0.06    0.34
  -4  -5  -9    0.83    0.58
   4   5   9    0.51    0.53
  -5  -5  -9    1.35    0.51
  -5  -5  -9    1.22    0.69
   5   5   9    1.92    0.71
  -6  -5  -9    8.47    1.36
  -6  -5  -9    7.44    1.04
   6   5   9    4.85    1.04
  -7  -5  -9    3.72    0.82
  -7  -5  -9    1.86    0.75
   7   5   9    3.52    1.01
  -8  -5  -9    0.75    0.62
   8   5   9    1.65    0.76
   9   5   9    3.33    1.12
   7  -6  -9    0.50    0.90
  -7   6   9   -0.77    0.93
   6  -6  -9    4.03    1.32
  -6   6   9    2.69    1.26
   5  -6  -9    5.20    1.29
  -5   6   9    2.68    1.13
   4  -6  -9    3.30    0.98
  -4   6   9    2.72    1.09
   3  -6  -9    1.92    0.71
   3  -6  -9    1.40    0.83
  -3   6   9    1.90    0.85
   2  -6  -9    0.57    0.50
   2  -6  -9    0.95    0.64
  -2   6   9   -0.15    0.62
   1  -6  -9    5.34    1.08
   1  -6  -9    4.61    0.82
  -1   6   9    7.18    1.38
   0  -6  -9   20.97    1.88
   0  -6  -9   20.63    1.64
   0   6   9   20.41    1.95
  -1  -6  -9    0.26    0.37
  -1  -6  -9    0.37    0.51
   1   6   9    1.12    0.68
  -2  -6  -9    8.49    1.26
  -2  -6  -9    7.71    1.00
   2   6   9    8.74    1.41
  -3  -6  -9   13.18    1.60
  -3  -6  -9   10.18    1.18
   3   6   9   11.15    1.55
  -4  -6  -9    3.95    0.73
  -4  -6  -9    5.60    1.01
   4   6   9    1.76    0.71
  -5  -6  -9    1.87    0.56
  -5  -6  -9    1.84    0.69
   5   6   9    1.53    0.73
  -6  -6  -9    7.43    1.03
   6   6   9    9.17    1.38
   7   6   9   -0.27    0.52
   8   6   9    5.86    1.22
   9   6   9   -0.50    0.54
   6  -7  -9    2.02    0.99
  -6   7   9    3.42    1.28
   5  -7  -9   -0.67    0.74
  -5   7   9    0.49    0.90
   4  -7  -9   14.33    1.89
  -4   7   9    9.66    1.80
   3  -7  -9    4.37    1.09
   3  -7  -9    7.72    1.12
  -3   7   9    5.46    1.29
   2  -7  -9    3.17    0.76
   2  -7  -9    4.25    1.07
  -2   7   9    3.12    1.01
   1  -7  -9   29.56    2.12
   1  -7  -9   29.48    2.39
  -1   7   9   31.50    2.61
   0  -7  -9   10.31    1.37
   0  -7  -9    8.77    1.10
   0   7   9    7.46    1.34
  -1  -7  -9   -0.34    0.33
  -1  -7  -9   -0.49    0.47
   1   7   9    0.24    0.59
  -2  -7  -9    6.52    0.92
  -2  -7  -9    7.27    1.13
   2   7   9    5.79    1.17
  -3  -7  -9    6.64    1.12
  -3  -7  -9    7.54    0.98
   3   7   9    7.55    1.32
  -4  -7  -9   17.02    1.32
   4   7   9   15.83    1.74
   4   7   9   10.40    1.60
  -5  -7  -9   16.40    2.00
   5   7   9   12.67    1.62
   6   7   9    1.34    0.68
   7   7   9    0.31    0.59
   8   7   9    9.52    1.49
   9   7   9    9.60    1.58
  -5   8   9   -0.68    0.75
  -4   8   9   13.02    2.07
   3  -8  -9    3.27    0.84
  -3   8   9    4.08    1.28
   2  -8  -9    0.46    0.50
  -2   8   9   -0.61    0.64
   1  -8  -9    0.56    0.49
  -1   8   9    0.28    0.54
   0  -8  -9    5.12    0.86
   0   8   9    5.66    1.20
  -1  -8  -9    0.13    0.41
   1   8   9    0.29    0.60
   2   8   9    4.91    1.11
   3   8   9    1.01    0.72
   4   8   9   -0.05    0.57
   4   8   9   -0.15    0.44
   5   8   9    7.32    1.21
   6   8   9   13.88    1.66
   7   8   9    1.26    0.68
   8   8   9    4.28    1.03
   9   8   9   -0.65    0.61
  -4   9   9    0.63    0.89
  -3   9   9    2.12    1.05
  -2   9   9   10.92    1.76
  -1   9   9    0.29    0.69
   0   9   9   -0.64    0.57
   1   9   9   -0.33    0.52
   2   9   9    0.90    0.70
   3   9   9    0.46    0.64
   4   9   9    2.64    0.87
   5   9   9    2.18    0.79
   6   9   9   16.04    1.78
   7   9   9    2.15    0.77
   8   9   9    2.51    0.83
  -3  10   9   -0.08    0.77
  -2  10   9    1.94    1.03
  -1  10   9    0.84    0.80
   0  10   9    1.40    0.86
   1  10   9    0.44    0.62
   2  10   9    1.58    0.84
   3  10   9   14.51    1.78
   4  10   9    6.51    1.20
   5  10   9    0.02    0.55
   6  10   9   17.42    1.82
   7  10   9    1.86    0.76
  -1  11   9    5.56    1.35
   0  11   9    3.69    1.23
   1  11   9    0.93    0.81
   2  11   9    1.24    0.80
   3  11   9   11.76    1.61
   4  11   9    0.93    0.59
   4  11   9    1.39    0.75
   5  11   9    5.88    1.05
   6  11   9    3.33    0.90
   5   3 -10    1.65    0.98
   4   3 -10    4.93    1.31
   3   3 -10    3.17    1.12
   2   3 -10    0.73    0.83
   1   3 -10    0.99    0.89
   0   3 -10    0.12    0.84
  -1   3 -10    5.22    1.33
  -2   3 -10    1.41    0.96
   6   2 -10    1.98    1.01
   5   2 -10   -0.02    0.69
   4   2 -10   16.67    2.29
   3   2 -10    0.25    0.81
   2   2 -10    1.39    0.84
   1   2 -10   -0.69    0.65
   0   2 -10    0.61    0.83
  -1   2 -10    1.14    0.96
  -2   2 -10   11.49    1.86
  -3   2 -10    0.20    0.80
  -4   2 -10    1.27    1.04
   7   1 -10    1.96    1.01
   6   1 -10    0.25    0.77
   5   1 -10   19.78    2.36
   4   1 -10    3.15    1.14
   3   1 -10    0.04    0.72
   2   1 -10    6.93    1.45
  -2  -1  10    6.77    1.23
  -2  -1  10    9.38    1.54
   1   1 -10    0.96    0.82
  -1  -1  10    2.74    0.92
   0   1 -10    2.01    1.01
   0  -1  10    3.18    0.92
  -1   1 -10    3.63    1.15
   1  -1  10    4.79    1.07
  -2   1 -10    0.49    0.73
   2  -1  10    0.16    0.55
  -3   1 -10    9.28    1.63
   3  -1  10    6.98    1.36
  -4   1 -10    4.92    1.27
   4  -1  10    5.19    1.17
  -5   1 -10    0.94    0.86
   5  -1  10    0.18    0.72
   7   0 -10    3.10    1.20
   6   0 -10    1.25    0.97
   5   0 -10   31.45    2.85
  -5   0  10   30.39    2.78
   4   0 -10    0.41    0.74
  -4   0  10   -0.07    0.67
   3   0 -10   -0.43    0.64
  -3   0  10    0.54    0.64
   2   0 -10   -0.43    0.56
  -2   0  10   -0.24    0.65
   1   0 -10    0.01    0.67
   1   0 -10    1.94    0.68
  -1   0  10    0.98    0.72
  -1   0  10    0.53    0.59
   0   0 -10   10.11    1.45
   0   0 -10    9.57    1.61
   0   0  10   10.51    1.52
  -1   0 -10    3.14    1.02
   1   0  10    3.77    0.98
  -2   0 -10    2.04    0.94
   2   0  10    0.23    0.59
  -3   0 -10    9.02    1.54
   3   0  10    6.37    1.16
  -4   0 -10    1.63    0.96
   4   0  10    4.34    1.12
  -5   0 -10    5.07    1.28
   5   0  10    4.17    1.12
  -6   0 -10    5.88    1.47
   6   0  10    5.10    1.23
   7  -1 -10    3.60    1.30
  -7   1  10    5.66    1.61
   6  -1 -10   10.04    1.71
  -6   1  10   10.36    1.82
   5  -1 -10   -0.10    0.60
  -5   1  10    0.13    0.69
   4  -1 -10    0.61    0.78
  -4   1  10    0.52    0.69
   3  -1 -10    0.54    0.69
   3  -1 -10   -0.49    0.57
  -3   1  10   -0.78    0.44
   2  -1 -10    2.69    0.80
   2  -1 -10    1.91    0.82
  -2   1  10    3.76    1.12
   1  -1 -10    2.55    0.76
   1  -1 -10    2.75    0.97
  -1   1  10    1.01    0.87
   0  -1 -10    3.32    0.83
   0  -1 -10    2.72    0.95
   0   1  10    3.51    1.00
   0   1  10    2.81    0.87
  -1  -1 -10    0.53    0.67
  -1  -1 -10    0.17    0.45
   1   1  10    0.46    0.54
  -2  -1 -10    0.58    0.42
  -2  -1 -10   -0.81    0.58
   2   1  10   -0.52    0.49
  -3  -1 -10   14.39    1.95
   3   1  10   11.40    1.57
  -4  -1 -10    1.80    0.92
   4   1  10    2.87    0.91
  -5  -1 -10    1.35    0.97
   5   1  10    1.91    0.81
  -6  -1 -10    1.16    0.86
   6   1  10    2.32    0.91
  -7  -1 -10    0.31    0.84
   7   1  10    0.31    0.78
   7  -2 -10    4.06    1.37
  -7   2  10    2.81    1.28
   6  -2 -10    3.38    1.18
  -6   2  10    2.27    1.15
   5  -2 -10   -0.62    0.48
  -5   2  10   -0.56    0.74
   4  -2 -10    2.25    0.97
  -4   2  10    0.71    0.85
   3  -2 -10    2.53    0.74
   3  -2 -10    2.88    0.94
  -3   2  10    0.39    0.76
   2  -2 -10   -0.05    0.46
   2  -2 -10   -0.13    0.53
  -2   2  10   -0.12    0.71
   1  -2 -10    3.84    1.13
   1  -2 -10    4.15    0.91
  -1   2  10    5.21    1.18
   0  -2 -10    6.54    1.26
   0  -2 -10    8.50    1.22
   0   2  10    6.01    1.29
  -1  -2 -10    3.29    0.98
  -1  -2 -10    2.50    0.70
   1   2  10    4.62    1.10
   1   2  10    2.50    0.81
  -2  -2 -10   24.32    2.35
  -2  -2 -10   24.40    1.94
   2   2  10   26.35    2.23
  -3  -2 -10    1.88    0.84
  -3  -2 -10    1.10    0.53
   3   2  10    0.88    0.67
  -4  -2 -10    1.03    0.72
   4   2  10    0.69    0.57
  -5  -2 -10    6.66    1.42
   5   2  10    6.33    1.28
  -6  -2 -10    2.41    1.03
   6   2  10    1.69    0.84
  -7  -2 -10    3.71    1.27
   7   2  10    4.87    1.16
   7  -3 -10    7.06    1.63
  -7   3  10    8.06    1.73
   6  -3 -10    0.15    0.79
  -6   3  10   -0.21    0.78
   5  -3 -10    1.59    0.95
  -5   3  10    2.47    1.10
   4  -3 -10    3.42    1.08
  -4   3  10    0.95    0.80
   3  -3 -10    7.00    1.09
   3  -3 -10    5.44    1.27
  -3   3  10    5.03    1.25
   2  -3 -10   18.70    1.67
   2  -3 -10   22.76    2.11
  -2   3  10   18.81    2.25
   1  -3 -10   13.63    1.55
   1  -3 -10   16.84    1.97
  -1   3  10   16.06    2.01
   0  -3 -10    3.17    0.99
   0  -3 -10    2.17    0.65
   0   3  10    4.03    1.14
  -1  -3 -10    7.98    1.11
  -1  -3 -10    8.89    1.51
   1   3  10    9.13    1.52
  -2  -3 -10    0.41    0.72
  -2  -3 -10    0.62    0.51
   2   3  10    1.64    0.69
   2   3  10    1.06    0.75
  -3  -3 -10    1.56    0.80
  -3  -3 -10    2.60    0.71
   3   3  10    1.26    0.68
  -4  -3 -10    1.93    0.62
  -4  -3 -10    2.47    0.95
   4   3  10    2.80    0.89
  -5  -3 -10    2.24    0.91
  -5  -3 -10    4.54    1.34
   5   3  10    3.89    1.03
  -6  -3 -10    4.35    1.23
   6   3  10    2.40    0.86
  -7  -3 -10    5.82    1.42
   7   3  10    6.60    1.39
  -8  -3 -10    6.39    1.61
   8   3  10    6.45    1.39
   7  -4 -10    6.89    1.65
  -7   4  10   10.69    2.10
   6  -4 -10   -0.92    0.72
  -6   4  10    1.44    0.97
   5  -4 -10   12.42    1.97
  -5   4  10   13.11    2.15
   4  -4 -10    0.80    0.77
  -4   4  10    1.56    0.94
   3  -4 -10    7.33    1.37
   3  -4 -10    3.56    0.80
  -3   4  10    4.59    1.27
   2  -4 -10   12.84    1.72
   2  -4 -10   11.96    1.40
  -2   4  10   11.33    1.76
   1  -4 -10   -0.42    0.37
   1  -4 -10    1.53    0.75
  -1   4  10    0.69    0.72
   0  -4 -10   -0.70    0.55
   0  -4 -10    0.51    0.54
   0   4  10   -0.36    0.53
  -1  -4 -10   14.96    1.56
  -1  -4 -10   14.30    1.79
   1   4  10   13.62    1.85
  -2  -4 -10    0.29    0.45
  -2  -4 -10   -0.38    0.54
   2   4  10    0.08    0.54
  -3  -4 -10   -0.01    0.45
  -3  -4 -10   -0.70    0.53
   3   4  10    0.05    0.47
  -4  -4 -10    1.72    0.81
  -4  -4 -10    2.17    0.66
   4   4  10    2.23    0.88
  -5  -4 -10    1.25    0.82
  -5  -4 -10   -0.27    0.43
   5   4  10   -0.26    0.44
  -6  -4 -10    1.80    0.99
   6   4  10    5.34    1.15
  -7  -4 -10    3.91    1.13
   7   4  10    2.72    0.98
  -8  -4 -10    3.43    1.24
   8   4  10    0.20    0.73
   6  -5 -10    0.06    0.73
  -6   5  10   -0.60    0.81
   5  -5 -10    0.29    0.82
  -5   5  10   -0.17    0.81
   4  -5 -10    3.24    1.08
  -4   5  10    3.88    1.19
   3  -5 -10   16.48    1.78
  -3   5  10   16.65    2.19
   2  -5 -10   14.15    1.58
   2  -5 -10   19.27    2.10
  -2   5  10   13.24    1.96
   1  -5 -10    0.02    0.50
   1  -5 -10    0.62    0.50
  -1   5  10    1.01    0.85
   0  -5 -10    0.50    0.73
   0  -5 -10    0.66    0.55
   0   5  10    0.57    0.73
  -1  -5 -10    8.49    1.17
  -1  -5 -10    8.28    1.34
   1   5  10    6.26    1.29
  -2  -5 -10   12.60    1.41
  -2  -5 -10   10.62    1.58
   2   5  10   11.58    1.76
  -3  -5 -10    8.92    1.49
  -3  -5 -10   11.56    1.31
   3   5  10   11.00    1.53
   3   5  10    8.11    1.47
  -4  -5 -10    1.55    0.75
  -4  -5 -10    1.17    0.50
   4   5  10    0.23    0.48
  -5  -5 -10    4.42    1.10
  -5  -5 -10    3.57    0.74
   5   5  10    3.88    0.99
  -6  -5 -10   24.21    2.22
  -6  -5 -10   22.14    1.84
   6   5  10   18.94    2.20
  -7  -5 -10    0.52    0.76
   7   5  10   -0.62    0.60
   8   5  10    2.38    0.90
   6  -6 -10    0.81    0.92
  -6   6  10    0.76    1.01
   5  -6 -10    4.14    1.25
  -5   6  10    2.71    1.26
   4  -6 -10    1.87    0.98
  -4   6  10    2.35    1.15
   3  -6 -10    3.90    1.10
   3  -6 -10    4.90    0.99
  -3   6  10    3.61    1.19
   2  -6 -10    0.58    0.71
   2  -6 -10    0.53    0.52
  -2   6  10    0.22    0.68
   1  -6 -10    3.24    0.78
   1  -6 -10    7.09    1.25
  -1   6  10    3.40    1.02
   0  -6 -10    2.08    0.65
   0  -6 -10    4.18    1.04
   0   6  10    4.61    1.10
  -1  -6 -10    1.64    0.81
  -1  -6 -10    0.97    0.59
   1   6  10    0.02    0.66
  -2  -6 -10    4.58    1.05
  -2  -6 -10    5.36    0.89
   2   6  10    3.19    1.03
  -3  -6 -10    7.07    1.04
  -3  -6 -10    8.52    1.41
   3   6  10    8.32    1.44
  -4  -6 -10    0.37    0.65
  -4  -6 -10    0.69    0.50
   4   6  10    0.52    0.54
  -5  -6 -10   11.18    1.54
  -5  -6 -10    8.31    1.11
   5   6  10    7.59    1.34
  -6  -6 -10    0.53    0.51
   6   6  10   -0.14    0.52
   7   6  10    0.43    0.59
   8   6  10    2.78    0.97
   5  -7 -10    0.61    0.95
  -5   7  10    0.08    0.95
   4  -7 -10    8.76    1.63
  -4   7  10    7.50    1.66
   3  -7 -10    4.09    1.17
   3  -7 -10    4.15    0.96
  -3   7  10    4.74    1.26
   2  -7 -10    0.26    0.70
   2  -7 -10    0.62    0.53
  -2   7  10   -0.92    0.64
   1  -7 -10   25.17    2.00
   1  -7 -10   26.64    2.25
  -1   7  10   26.04    2.48
   0  -7 -10    8.43    1.40
   0  -7 -10    7.84    1.09
   0   7  10    7.07    1.38
  -1  -7 -10    2.05    0.58
  -1  -7 -10    2.48    0.86
   1   7  10    4.07    1.10
  -2  -7 -10    2.73    0.86
  -2  -7 -10    1.82    0.61
   2   7  10    2.49    0.92
  -3  -7 -10    3.71    1.07
  -3  -7 -10    4.54    0.83
   3   7  10    4.01    1.07
  -4  -7 -10    8.61    1.11
   4   7  10    8.49    1.34
   4   7  10    9.96    1.60
   5   7  10    6.11    1.23
   6   7  10    0.07    0.52
   7   7  10    0.55    0.73
   8   7  10    3.93    1.08
  -4   8  10   16.09    2.39
  -3   8  10    0.07    0.82
   2  -8 -10    3.46    0.84
  -2   8  10    2.52    1.00
   1  -8 -10    4.50    0.91
  -1   8  10    3.38    1.06
   0  -8 -10    0.76    0.51
   0   8  10   -0.11    0.54
   1   8  10    5.53    1.22
   2   8  10    2.87    0.98
   3   8  10   -0.68    0.60
   4   8  10    8.00    1.43
   4   8  10   11.17    1.48
   5   8  10    0.15    0.58
   6   8  10    1.15    0.74
   7   8  10    2.43    0.85
   8   8  10    0.22    0.67
  -3   9  10    1.70    0.99
  -2   9  10    0.34    0.75
  -1   9  10    3.60    1.14
   0   9  10    2.55    0.95
   1   9  10   10.33    1.64
   2   9  10   -0.29    0.59
   3   9  10    1.77    0.91
   4   9  10   -0.39    0.65
   4   9  10    0.33    0.57
   5   9  10    0.16    0.64
   6   9  10    9.08    1.41
   7   9  10    0.63    0.64
  -2  10  10    5.22    1.38
  -1  10  10   -0.40    0.77
   0  10  10    7.62    1.51
   1  10  10    4.64    1.20
   2  10  10    1.39    0.83
   3  10  10   17.34    2.06
   4  10  10    0.31    0.74
   4  10  10    3.13    0.88
   5  10  10    0.16    0.66
   6  10  10    4.95    1.11
   7  10  10    1.05    0.70
   0  11  10    2.84    1.13
   1  11  10    0.37    0.78
   2  11  10    7.48    1.42
   3  11  10    1.01    0.82
   4  11  10    0.09    0.61
   4  11  10    0.39    0.71
   5  11  10    1.45    0.73
   4   2 -11    6.27    1.53
   3   2 -11    3.13    1.13
   2   2 -11    3.49    1.28
   1   2 -11    4.31    1.37
   0   2 -11   -0.43    0.79
  -1   2 -11    6.77    1.55
   5   1 -11    2.62    1.13
   4   1 -11    3.40    1.31
   3   1 -11    3.95    1.25
   2   1 -11   17.81    2.37
   1   1 -11    1.05    0.94
   0   1 -11   -0.90    0.73
  -1   1 -11    2.18    1.10
   1  -1  11    5.12    1.34
  -2   1 -11    1.14    0.97
   2  -1  11   -0.64    0.62
  -3   1 -11    3.12    1.15
   3  -1  11    0.70    0.87
   6   0 -11    1.16    0.94
   5   0 -11   14.09    2.13
   4   0 -11    4.81    1.31
   3   0 -11    3.96    1.33
  -3   0  11    4.37    1.30
   2   0 -11    3.95    1.11
  -2   0  11    2.99    0.93
  -2   0  11    0.84    0.93
   1   0 -11    0.95    0.75
  -1   0  11    0.34    0.63
   0   0 -11    1.82    0.87
   0   0  11    3.56    0.98
  -1   0 -11    3.05    1.17
   1   0  11    1.89    0.87
  -2   0 -11   -0.17    0.76
   2   0  11    0.53    0.71
  -3   0 -11    7.42    1.55
   3   0  11    7.57    1.47
  -4   0 -11   -0.56    0.72
   4   0  11    0.34    0.71
   6  -1 -11    3.46    1.23
   5  -1 -11    0.10    0.75
  -5   1  11    0.45    0.96
   4  -1 -11    2.54    1.08
  -4   1  11    2.49    1.01
   3  -1 -11    2.12    1.02
  -3   1  11    2.96    1.12
   2  -1 -11    1.68    0.87
  -2   1  11    1.45    0.93
   1  -1 -11   -0.94    0.59
  -1   1  11   -0.21    0.61
   0  -1 -11    2.61    1.04
   0   1  11    3.72    1.09
   0   1  11    2.40    0.83
  -1  -1 -11    1.08    0.80
   1   1  11    0.22    0.60
  -2  -1 -11    0.13    0.76
   2   1  11    0.68    0.73
  -3  -1 -11    2.90    1.10
   3   1  11    3.05    0.91
  -4  -1 -11    3.12    1.12
   4   1  11    4.87    1.21
  -5  -1 -11    3.48    1.24
   5   1  11    2.67    1.08
   6  -2 -11    0.14    0.93
  -6   2  11   -1.26    0.86
   5  -2 -11   -0.31    0.64
  -5   2  11    0.25    0.82
   4  -2 -11   20.70    2.51
  -4   2  11   22.47    2.62
   3  -2 -11    1.36    0.77
  -3   2  11    0.05    0.70
   2  -2 -11    0.68    0.77
  -2   2  11    0.45    0.78
   1  -2 -11    6.98    1.47
  -1   2  11    9.56    1.62
   0  -2 -11    0.19    0.65
   0   2  11   -0.03    0.62
  -1  -2 -11    8.25    1.56
   1   2  11    7.93    1.37
   1   2  11    5.79    1.36
  -2  -2 -11   23.39    2.66
   2   2  11   23.32    2.24
  -3  -2 -11   -0.06    0.69
   3   2  11    0.10    0.65
  -4  -2 -11   20.24    2.46
   4   2  11   20.31    2.31
  -5  -2 -11    1.00    0.92
   5   2  11   -0.31    0.52
  -6  -2 -11    0.71    0.87
   6   2  11    1.41    0.78
   6  -3 -11    3.12    1.23
  -6   3  11    1.48    1.16
   5  -3 -11    1.35    1.04
  -5   3  11    1.68    1.05
   4  -3 -11   13.89    2.00
  -4   3  11   12.85    2.14
   3  -3 -11   -0.27    0.67
  -3   3  11   -0.06    0.79
   2  -3 -11   -0.86    0.48
  -2   3  11    0.56    0.80
   1  -3 -11   17.10    2.09
   1  -3 -11   13.79    1.96
  -1   3  11   17.95    2.25
   0  -3 -11    1.28    0.68
   0  -3 -11    1.73    0.89
   0   3  11    1.35    0.90
  -1  -3 -11    8.41    1.24
  -1  -3 -11    9.53    1.61
   1   3  11   13.49    1.93
   1   3  11   12.04    1.66
  -2  -3 -11    0.26    0.55
  -2  -3 -11    0.24    0.68
   2   3  11    0.00    0.50
  -3  -3 -11    0.93    0.76
   3   3  11    0.70    0.72
  -4  -3 -11    2.54    1.04
   4   3  11    2.05    0.87
  -5  -3 -11    8.38    1.58
   5   3  11    7.33    1.42
  -6  -3 -11    0.41    0.86
   6   3  11    0.35    0.66
  -7  -3 -11    1.81    0.98
   7   3  11    0.63    0.81
   6  -4 -11    2.52    1.16
  -6   4  11    3.48    1.39
   5  -4 -11    9.39    1.75
  -5   4  11   10.03    2.01
   4  -4 -11    1.07    0.82
  -4   4  11    2.02    1.18
   3  -4 -11    2.38    0.96
  -3   4  11    4.67    1.29
   2  -4 -11    9.79    1.65
  -2   4  11    9.59    1.76
   1  -4 -11    6.63    1.41
   1  -4 -11    7.40    1.22
  -1   4  11    5.42    1.36
   0  -4 -11    1.99    0.92
   0  -4 -11    3.65    0.87
   0   4  11    2.59    1.00
  -1  -4 -11    3.99    1.07
  -1  -4 -11    2.96    0.77
   1   4  11    5.12    1.31
  -2  -4 -11    1.34    0.84
  -2  -4 -11    1.21    0.58
   2   4  11    1.13    0.73
   2   4  11    1.72    0.69
  -3  -4 -11    4.91    1.19
  -3  -4 -11    3.69    0.81
   3   4  11    2.32    0.83
  -4  -4 -11    6.42    1.38
   4   4  11    9.58    1.51
  -5  -4 -11    1.23    0.83
   5   4  11    1.15    0.65
  -6  -4 -11    0.31    0.85
   6   4  11   -0.71    0.57
  -7  -4 -11    0.16    0.84
   7   4  11    0.22    0.72
   6  -5 -11    4.66    1.54
  -6   5  11    7.22    1.82
   5  -5 -11    1.53    0.93
  -5   5  11    1.38    1.08
   4  -5 -11    0.65    0.89
  -4   5  11    0.58    0.99
   3  -5 -11    0.81    0.87
  -3   5  11   -0.10    0.81
   2  -5 -11   -0.19    0.68
  -2   5  11    0.72    0.79
   1  -5 -11    2.48    0.95
   1  -5 -11    1.88    0.72
  -1   5  11    3.10    1.12
   0  -5 -11    5.06    1.23
   0  -5 -11    3.58    0.85
   0   5  11    2.40    0.99
  -1  -5 -11    2.96    1.00
  -1  -5 -11    0.90    0.56
   1   5  11    1.51    0.90
  -2  -5 -11    6.31    1.05
  -2  -5 -11    2.62    0.95
   2   5  11    2.68    0.98
  -3  -5 -11    1.78    0.69
  -3  -5 -11    2.60    0.95
   3   5  11    3.40    0.97
   3   5  11    3.11    1.10
  -4  -5 -11    3.84    0.88
  -4  -5 -11    5.66    1.26
   4   5  11    2.36    0.86
  -5  -5 -11   -0.12    1.45
   5   5  11   -0.13    0.57
  -6  -5 -11    3.48    1.18
   6   5  11    7.50    1.46
  -7  -5 -11    2.04    1.16
   7   5  11    0.14    0.63
   5  -6 -11    0.96    0.86
  -5   6  11    0.39    0.95
   4  -6 -11   -0.12    0.80
  -4   6  11    0.38    0.92
   3  -6 -11    0.95    0.77
  -3   6  11    0.27    0.83
   2  -6 -11    1.17    0.98
   2  -6 -11    0.22    0.72
  -2   6  11    2.30    1.06
   1  -6 -11    5.15    1.03
   1  -6 -11    2.78    1.00
  -1   6  11    4.36    1.18
   0  -6 -11    2.31    0.92
   0  -6 -11    1.13    0.64
   0   6  11    1.28    0.79
  -1  -6 -11    2.98    1.00
  -1  -6 -11    3.46    0.82
   1   6  11    2.09    0.98
  -2  -6 -11   14.98    1.64
  -2  -6 -11   14.88    1.92
   2   6  11   16.93    2.19
  -3  -6 -11    1.66    0.61
  -3  -6 -11    2.20    0.89
   3   6  11    2.10    0.89
   3   6  11    0.80    0.65
  -4  -6 -11    0.32    0.49
  -4  -6 -11   -0.57    0.64
   4   6  11    0.34    0.54
  -5  -6 -11    1.16    0.63
  -5  -6 -11    1.19    0.82
   5   6  11    0.41    0.68
   6   6  11    0.42    0.72
   7   6  11    0.97    0.75
   4  -7 -11   10.69    1.84
  -4   7  11    9.43    1.87
   3  -7 -11    0.03    0.75
  -3   7  11    0.35    0.81
   2  -7 -11    4.51    1.15
  -2   7  11    4.69    1.38
   1  -7 -11   32.34    2.72
   1  -7 -11   31.37    2.37
  -1   7  11   32.60    2.93
   0  -7 -11    0.01    0.61
   0  -7 -11   -0.54    0.51
   0   7  11    0.81    0.75
  -1  -7 -11    3.27    1.04
  -1  -7 -11    4.36    0.92
   1   7  11    2.28    0.95
  -2  -7 -11   10.36    1.25
  -2  -7 -11    6.13    1.22
   2   7  11    7.52    1.42
  -3  -7 -11    2.02    0.64
   3   7  11    3.38    1.10
  -4  -7 -11    2.70    0.73
   4   7  11    1.89    0.83
   5   7  11    4.85    1.17
   6   7  11    3.96    1.11
   7   7  11    1.79    0.87
  -4   8  11   14.08    2.27
  -3   8  11   -1.30    0.80
  -2   8  11    2.96    1.13
   1  -8 -11   -0.48    0.50
  -1   8  11   -0.74    0.68
   0   8  11    6.56    1.46
   1   8  11    4.88    1.27
   2   8  11    4.46    1.23
   3   8  11    0.35    0.78
   4   8  11    1.36    0.81
   4   8  11    2.92    1.08
   5   8  11    0.13    0.70
   6   8  11    2.94    0.99
   7   8  11    8.97    1.55
  -2   9  11    0.31    0.94
  -1   9  11    0.45    0.85
   0   9  11    0.78    0.87
   1   9  11    1.80    0.96
   2   9  11    0.10    0.71
   3   9  11    0.09    0.75
   4   9  11    5.07    1.24
   4   9  11    2.56    0.89
   5   9  11    3.82    1.05
   6   9  11    7.37    1.41
  -1  10  11    0.15    0.88
   0  10  11    5.09    1.32
   1  10  11    0.27    0.80
   2  10  11   -0.48    0.77
   3  10  11    7.40    1.51
   4  10  11    2.16    0.98
   4  10  11    0.52    0.72
   5  10  11    4.68    1.15
   1   1 -12   -0.18    0.81
   3   0 -12   11.41    2.02
   2   0 -12    0.76    0.90
   1   0 -12    0.82    0.94
  -1   0  12   -0.54    0.64
   0   0 -12    1.55    1.09
   0   0  12    1.82    0.95
  -1   0 -12   -0.72    0.74
   1   0  12    0.58    0.83
  -2   0 -12    0.31    0.84
   2   0  12   -0.41    0.63
   4  -1 -12    0.34    0.99
  -4   1  12    1.56    1.07
   3  -1 -12    3.19    1.17
  -3   1  12    3.49    1.24
   2  -1 -12   -1.09    0.68
  -2   1  12    0.81    0.84
   1  -1 -12    3.95    1.23
  -1   1  12    1.66    0.87
  -1   1  12    1.57    1.01
   0  -1 -12    0.34    0.78
   0   1  12   -0.08    0.54
  -1  -1 -12   -0.13    0.86
   1   1  12    0.08    0.79
  -2  -1 -12   -0.41    0.84
   2   1  12    0.29    0.68
  -3  -1 -12    1.73    0.97
   3   1  12    2.06    0.93
  -4  -1 -12    2.32    1.15
   4   1  12    1.80    0.89
   5  -2 -12    1.80    1.05
  -5   2  12    3.82    1.44
   4  -2 -12   11.77    1.89
  -4   2  12   10.25    1.88
   3  -2 -12    0.09    0.81
  -3   2  12    1.12    0.99
   2  -2 -12    0.15    0.73
  -2   2  12    0.28    0.85
   1  -2 -12    0.76    0.93
  -1   2  12    1.98    1.05
   0  -2 -12    1.31    0.99
   0   2  12    1.21    0.96
   0   2  12   -0.20    0.62
  -1  -2 -12    3.73    1.25
   1   2  12    5.48    1.22
  -2  -2 -12    8.97    1.76
   2   2  12   11.32    1.76
  -3  -2 -12    0.62    0.93
   3   2  12   -0.23    0.63
  -4  -2 -12    2.84    1.19
   4   2  12    2.39    0.98
  -5  -2 -12    0.35    0.92
   5   2  12   -0.09    0.65
   5  -3 -12    2.08    1.08
  -5   3  12    3.96    1.46
   4  -3 -12    2.05    1.00
  -4   3  12    3.64    1.39
   3  -3 -12    2.34    1.08
  -3   3  12    2.64    1.16
   2  -3 -12    1.36    1.03
  -2   3  12    2.46    1.15
   1  -3 -12    8.58    1.59
  -1   3  12    7.89    1.68
   0  -3 -12   -0.25    0.61
   0   3  12    1.24    0.86
  -1  -3 -12    1.74    0.97
   1   3  12    1.55    0.90
   1   3  12    2.01    1.05
  -2  -3 -12    0.91    0.94
   2   3  12    1.30    0.82
  -3  -3 -12    0.61    0.87
   3   3  12    0.49    0.74
  -4  -3 -12    9.63    1.73
   4   3  12   10.69    1.70
  -5  -3 -12   -0.05    0.97
   5   3  12    0.95    0.76
   5  -4 -12    7.46    1.75
  -5   4  12   10.08    2.01
   4  -4 -12   -0.40    0.68
  -4   4  12   -0.31    0.85
   3  -4 -12    7.58    1.50
  -3   4  12    5.96    1.61
   2  -4 -12    0.00    0.78
  -2   4  12    0.31    0.78
   1  -4 -12   -0.51    0.72
  -1   4  12    1.94    0.99
   0  -4 -12    0.57    0.84
   0   4  12    2.01    0.99
  -1  -4 -12    3.60    1.22
   1   4  12    1.46    0.90
  -2  -4 -12    0.65    0.82
   2   4  12   -0.84    0.49
   2   4  12    0.28    0.78
  -3  -4 -12    5.49    1.33
   3   4  12    5.58    1.34
  -4  -4 -12    0.28    0.73
   4   4  12   -0.09    0.66
  -5  -4 -12   -1.12    0.68
   5   4  12   -0.06    0.56
  -6  -4 -12    0.83    1.02
   6   4  12    0.57    0.71
   4  -5 -12    0.59    0.96
  -4   5  12    0.03    0.83
   3  -5 -12    2.32    0.98
  -3   5  12    3.27    1.31
   2  -5 -12    3.39    1.10
  -2   5  12    6.56    1.55
   1  -5 -12    2.31    1.04
  -1   5  12    3.12    1.22
   0  -5 -12    5.34    1.34
   0   5  12    5.45    1.41
  -1  -5 -12    4.02    1.26
   1   5  12    4.50    1.37
  -2  -5 -12    1.80    0.98
   2   5  12    0.37    0.65
   2   5  12   -0.31    0.69
  -3  -5 -12    5.83    1.43
   3   5  12    5.92    1.25
  -4  -5 -12   -0.38    0.73
   4   5  12    0.07    0.70
  -5  -5 -12    5.62    1.40
   5   5  12    2.40    1.00
  -6  -5 -12    5.71    1.51
   6   5  12    6.09    1.30
   4  -6 -12    3.16    1.20
  -4   6  12    2.57    1.23
   3  -6 -12    0.80    0.85
  -3   6  12    2.23    1.20
   2  -6 -12    0.63    0.80
  -2   6  12   -0.66    0.63
   1  -6 -12    0.72    0.85
  -1   6  12    3.21    1.15
   0  -6 -12    4.16    1.18
   0   6  12    1.78    0.91
  -1  -6 -12    0.30    0.70
   1   6  12   -0.57    0.66
  -2  -6 -12   14.89    2.15
   2   6  12   16.27    2.26
  -3  -6 -12    0.20    0.75
   3   6  12    0.48    0.64
   3   6  12    0.48    0.81
  -4  -6 -12   -0.72    0.69
   4   6  12   -0.44    0.60
   5   6  12    7.59    1.47
   6   6  12    0.54    0.70
   3  -7 -12    6.03    1.48
  -3   7  12    6.78    1.68
   2  -7 -12    6.58    1.45
  -2   7  12    4.22    1.30
   1  -7 -12   22.12    2.66
  -1   7  12   25.71    2.96
   0  -7 -12    0.70    0.79
   0   7  12    1.67    0.95
  -1  -7 -12    1.33    0.74
  -1  -7 -12    1.99    0.95
   1   7  12    1.86    1.01
  -2  -7 -12    4.09    1.17
  -2  -7 -12    2.62    0.82
   2   7  12    2.86    1.08
  -3  -7 -12    0.50    0.58
   3   7  12    0.92    0.75
   3   7  12    0.62    0.91
   4   7  12    4.81    1.21
   5   7  12    4.66    1.22
   6   7  12    1.07    0.82
  -2   8  12    3.94    1.30
  -1   8  12   -0.74    0.79
   0   8  12    0.04    0.77
   1   8  12    2.11    1.08
   2   8  12    2.14    1.10
   3   8  12    0.74    0.90
   4   8  12    4.61    1.20
   5   8  12    0.12    0.76
   6   8  12    0.57    0.79
  -1   9  12    1.71    1.12
   0   9  12    4.26    1.33
   1   9  12    1.09    0.99
   2   9  12    4.53    1.26
   3   9  12    1.82    0.93
   4   9  12    1.20    0.84
   4   9  12    4.16    1.27
   5   9  12    0.66    0.78
   1  10  12   -0.07    0.83
   2  10  12    5.98    1.46
   3  10  12    9.57    1.72
   2  -2 -13   11.27    2.04
  -2   2  13   10.81    1.95
   1  -2 -13    4.68    1.45
  -1   2  13    2.81    1.03
  -1   2  13    3.18    1.20
   0  -2 -13    1.37    1.08
   0   2  13    1.39    0.89
  -1  -2 -13    1.87    1.12
   1   2  13    2.70    1.04
  -2  -2 -13    4.86    1.50
   2   2  13    4.80    1.27
   3  -3 -13    4.69    1.45
  -3   3  13    1.98    1.14
   2  -3 -13   10.47    1.97
  -2   3  13   11.84    2.04
   1  -3 -13    4.38    1.26
  -1   3  13    4.29    1.37
   0  -3 -13    0.43    0.82
   0   3  13    1.29    0.93
   0   3  13    0.27    0.66
  -1  -3 -13    0.73    0.88
   1   3  13    4.17    1.19
  -2  -3 -13    0.96    1.02
   2   3  13    1.26    0.85
  -3  -3 -13   -0.98    0.75
   3   3  13   -0.81    0.63
   3  -4 -13    7.47    1.68
  -3   4  13    6.75    1.68
   2  -4 -13    4.48    1.31
  -2   4  13    3.50    1.39
   1  -4 -13    0.88    0.95
  -1   4  13    0.20    0.79
   0  -4 -13    1.01    0.97
   0   4  13    2.15    1.12
  -1  -4 -13   -0.39    0.73
   1   4  13   -0.11    0.65
   1   4  13   -0.78    0.74
  -2  -4 -13    0.43    0.95
   2   4  13    1.15    0.84
  -3  -4 -13    4.01    1.31
   3   4  13    5.99    1.38
  -4  -4 -13    0.81    0.92
   4   4  13    2.80    1.01
   3  -5 -13    7.24    1.67
  -3   5  13    5.25    1.50
   2  -5 -13    0.02    0.91
  -2   5  13    0.68    1.04
   1  -5 -13    1.96    0.98
  -1   5  13    2.69    1.24
   0  -5 -13    8.27    1.70
   0   5  13    6.03    1.55
  -1  -5 -13   -0.96    0.78
   1   5  13    0.07    0.78
  -2  -5 -13    2.03    1.05
   2   5  13    1.47    0.91
   2   5  13    2.23    1.17
  -3  -5 -13   -0.03    0.87
   3   5  13    2.93    1.09
  -4  -5 -13    3.04    1.15
   4   5  13    1.31    0.91
   2  -6 -13    1.11    0.98
  -2   6  13    1.02    0.98
   1  -6 -13    1.82    1.02
  -1   6  13    1.87    1.11
   0  -6 -13   -0.47    0.71
   0   6  13   -1.03    0.74
  -1  -6 -13    3.51    1.25
   1   6  13    3.64    1.41
  -2  -6 -13    1.53    1.05
   2   6  13    1.93    0.89
   2   6  13    4.67    1.36
  -3  -6 -13    2.21    1.06
   3   6  13    2.40    0.99
  -4  -6 -13    1.85    0.96
   4   6  13    2.38    1.05
   2  -7 -13    3.18    1.24
  -2   7  13    1.17    1.01
   1  -7 -13    9.12    1.78
  -1   7  13    8.83    1.78
   0  -7 -13    2.35    1.13
   0   7  13    2.87    1.17
  -1  -7 -13    3.82    1.25
   1   7  13    4.64    1.34
   2   7  13    2.40    1.01
   3   7  13    2.97    1.24
   3   7  13    3.98    1.23
   4   7  13    1.72    1.02
   0   8  13   -0.88    0.75
   1   8  13    1.34    1.06
   2   8  13   -1.05    0.85
   3   8  13    2.33    1.10
   3   8  13    1.79    0.93
   4   8  13    1.88    0.98
   0   0   0    0.00    0.00
;
_shelx_hkl_checksum              5528
loop_
_space_group_symop_operation_xyz
'x, y, z'
'-x, -y, -z'
loop_
_atom_site_label
_atom_site_type_symbol
_atom_site_fract_x
_atom_site_fract_y
_atom_site_fract_z
_atom_site_U_iso_or_equiv
_atom_site_adp_type
_atom_site_occupancy
_atom_site_site_symmetry_order
_atom_site_calc_flag
_atom_site_refinement_flags_posn
_atom_site_refinement_flags_adp
_atom_site_refinement_flags_occupancy
_atom_site_disorder_assembly
_atom_site_disorder_group
C1 C 0.5498(4) 0.2946(5) 0.2284(4) 0.0135(7) Uani 1 1 d . . . . .
C2 C 0.5252(4) 0.1408(5) 0.3676(4) 0.0148(7) Uani 1 1 d . . . . .
C3 C 0.3698(4) 0.1480(5) 0.4257(4) 0.0183(7) Uani 1 1 d . . . . .
H3 H 0.279693 0.248853 0.374243 0.022 Uiso 1 1 calc R U . . .
C4 C 0.6569(4) -0.0118(5) 0.4432(4) 0.0188(7) Uani 1 1 d . . . . .
C5 C -0.1748(4) 0.7988(5) -0.0328(4) 0.0137(7) Uani 1 1 d . . . . .
C6 C -0.3433(4) 0.9038(5) -0.0173(4) 0.0141(7) Uani 1 1 d . . . . .
C7 C -0.4722(4) 0.8233(5) 0.0277(4) 0.0149(7) Uani 1 1 d . . . . .
H7 H -0.453019 0.702514 0.047478 0.018 Uiso 1 1 calc R U . . .
C8 C 0.3717(4) 0.9186(5) 0.0439(4) 0.0141(7) Uani 1 1 d . . . . .
C9 C -0.0614(4) 0.4995(5) 0.3417(4) 0.0199(8) Uani 1 1 d . . . . .
C10 C -0.2325(6) 0.3448(6) 0.5035(5) 0.0320(10) Uani 1 1 d . . . . .
H10A H -0.198328 0.303083 0.610638 0.038 Uiso 1 1 calc R U . . .
H10B H -0.302141 0.273050 0.496285 0.038 Uiso 1 1 calc R U . . .
C11 C -0.3228(5) 0.5400(6) 0.4328(6) 0.0363(11) Uani 1 1 d . . . . .
H11A H -0.413093 0.566855 0.359529 0.044 Uiso 1 1 calc R U . . .
H11B H -0.369263 0.580844 0.510208 0.044 Uiso 1 1 calc R U . . .
N1 N -0.1911(4) 0.6199(5) 0.3581(4) 0.0274(8) Uani 1 1 d . . . . .
H1 H -0.195867 0.732257 0.327661 0.033 Uiso 1 1 calc R U . . .
N2 N -0.0889(4) 0.3371(4) 0.4126(4) 0.0250(7) Uani 1 1 d . . . . .
H2 H -0.028959 0.241299 0.404840 0.030 Uiso 1 1 calc R U . . .
O1 O 0.4311(3) 0.4303(3) 0.1707(3) 0.0180(5) Uani 1 1 d . . . . .
O2 O 0.3054(3) 0.7216(3) -0.1788(3) 0.0186(5) Uani 1 1 d . . . . .
O3 O 0.8124(3) -0.0289(4) 0.3906(4) 0.0337(8) Uani 1 1 d . . . . .
H3A H 0.813146 0.062536 0.311706 0.050 Uiso 1 1 calc R U . . .
O4 O -0.1511(3) 0.6418(3) -0.0143(3) 0.0203(6) Uani 1 1 d . . . . .
O5 O -0.0566(3) 0.8709(3) -0.0602(3) 0.0208(6) Uani 1 1 d . . . . .
O6 O 0.2484(3) 0.8348(3) 0.0875(3) 0.0187(6) Uani 1 1 d . . . . .
H6 H 0.159325 0.907419 0.088544 0.028 Uiso 1 1 calc R U . . .
O7 O 0.0637(3) 0.5328(4) 0.2726(3) 0.0250(6) Uani 1 1 d . . . . .
Ca1 Ca 0.17820(8) 0.60051(9) 0.04327(8) 0.01170(18) Uani 1 1 d . . . . .
loop_
_atom_site_aniso_label
_atom_site_aniso_U_11
_atom_site_aniso_U_22
_atom_site_aniso_U_33
_atom_site_aniso_U_23
_atom_site_aniso_U_13
_atom_site_aniso_U_12
C1 0.0121(14) 0.0143(17) 0.0136(15) -0.0062(13) 0.0015(12) -0.0025(12)
C2 0.0159(16) 0.0104(16) 0.0144(16) -0.0016(13) 0.0020(12) -0.0047(13)
C3 0.0135(16) 0.0144(17) 0.0198(17) -0.0032(14) 0.0023(13) -0.0002(13)
C4 0.0126(15) 0.0161(18) 0.0221(18) -0.0048(14) 0.0068(13) -0.0026(13)
C5 0.0078(14) 0.0129(16) 0.0194(16) -0.0075(13) -0.0003(12) 0.0000(12)
C6 0.0071(14) 0.0139(17) 0.0216(17) -0.0090(14) -0.0002(12) -0.0008(12)
C7 0.0092(14) 0.0123(16) 0.0243(18) -0.0091(14) 0.0003(12) -0.0025(12)
C8 0.0108(14) 0.0146(17) 0.0187(16) -0.0092(13) 0.0009(12) -0.0028(12)
C9 0.0180(17) 0.028(2) 0.0133(16) -0.0091(15) 0.0014(13) -0.0053(15)
C10 0.035(2) 0.043(3) 0.027(2) -0.014(2) 0.0067(18) -0.025(2)
C11 0.027(2) 0.044(3) 0.055(3) -0.034(2) 0.030(2) -0.022(2)
N1 0.0207(16) 0.0247(18) 0.044(2) -0.0197(16) 0.0176(15) -0.0119(14)
N2 0.0186(15) 0.0201(17) 0.0350(19) -0.0103(15) 0.0026(14) -0.0060(13)
O1 0.0123(11) 0.0135(12) 0.0198(13) -0.0006(10) 0.0006(9) -0.0016(9)
O2 0.0128(11) 0.0185(13) 0.0196(13) -0.0038(10) 0.0045(9) -0.0050(10)
O3 0.0137(13) 0.0189(15) 0.0391(18) 0.0084(12) 0.0129(12) 0.0024(11)
O4 0.0154(12) 0.0126(13) 0.0354(15) -0.0142(11) 0.0020(11) -0.0014(10)
O5 0.0080(11) 0.0150(13) 0.0401(16) -0.0132(12) 0.0038(10) -0.0024(9)
O6 0.0092(11) 0.0144(13) 0.0348(15) -0.0133(11) 0.0064(10) -0.0035(9)
O7 0.0170(13) 0.0331(17) 0.0221(14) -0.0096(12) 0.0076(10) -0.0079(11)
Ca1 0.0099(3) 0.0089(3) 0.0151(3) -0.0044(2) 0.0032(2) -0.0026(2)
loop_
_atom_type_symbol
_atom_type_description
_atom_type_scat_dispersion_real
_atom_type_scat_dispersion_imag
_atom_type_scat_source
C C 0.0033 0.0016 'International Tables Vol C Tables 4.2.6.8 and 6.1.1.4'
H H 0.0000 0.0000 'International Tables Vol C Tables 4.2.6.8 and 6.1.1.4'
N N 0.0061 0.0033 'International Tables Vol C Tables 4.2.6.8 and 6.1.1.4'
O O 0.0106 0.0060 'International Tables Vol C Tables 4.2.6.8 and 6.1.1.4'
Ca Ca 0.2262 0.3064 'International Tables Vol C Tables 4.2.6.8 and 6.1.1.4'
loop_
_geom_angle_atom_site_label_1
_geom_angle_atom_site_label_2
_geom_angle_atom_site_label_3
_geom_angle
_geom_angle_site_symmetry_1
_geom_angle_site_symmetry_3
_geom_angle_publ_flag
O1 C1 O2 124.3(3) . 2_665 ?
O1 C1 C2 119.0(3) . . ?
O2 C1 C2 116.7(3) 2_665 . ?
C3 C2 C4 118.6(3) . . ?
C3 C2 C1 119.7(3) . . ?
C4 C2 C1 121.7(3) . . ?
C4 C3 C2 121.5(3) 2_656 . ?
C4 C3 H3 119.2 2_656 . ?
C2 C3 H3 119.2 . . ?
O3 C4 C3 118.5(3) . 2_656 ?
O3 C4 C2 121.7(3) . . ?
C3 C4 C2 119.8(3) 2_656 . ?
O4 C5 O5 121.3(3) . . ?
O4 C5 C6 120.5(3) . . ?
O5 C5 C6 118.2(3) . . ?
O4 C5 Ca1 68.70(18) . . ?
O5 C5 Ca1 55.88(16) . . ?
C6 C5 Ca1 158.3(2) . . ?
C7 C6 C8 119.6(3) . 2_575 ?
C7 C6 C5 119.8(3) . . ?
C8 C6 C5 120.6(3) 2_575 . ?
C8 C7 C6 120.4(3) 1_455 . ?
C8 C7 H7 119.8 1_455 . ?
C6 C7 H7 119.8 . . ?
O6 C8 C7 118.5(3) . 1_655 ?
O6 C8 C6 121.4(3) . 2_575 ?
C7 C8 C6 120.0(3) 1_655 2_575 ?
O7 C9 N1 125.2(4) . . ?
O7 C9 N2 125.9(4) . . ?
N1 C9 N2 108.9(3) . . ?
N2 C10 C11 102.5(3) . . ?
N2 C10 H10A 111.3 . . ?
C11 C10 H10A 111.3 . . ?
N2 C10 H10B 111.3 . . ?
C11 C10 H10B 111.3 . . ?
H10A C10 H10B 109.2 . . ?
N1 C11 C10 102.1(3) . . ?
N1 C11 H11A 111.4 . . ?
C10 C11 H11A 111.4 . . ?
N1 C11 H11B 111.4 . . ?
C10 C11 H11B 111.4 . . ?
H11A C11 H11B 109.2 . . ?
C9 N1 C11 111.2(3) . . ?
C9 N1 H1 124.4 . . ?
C11 N1 H1 124.4 . . ?
C9 N2 C10 110.1(3) . . ?
C9 N2 H2 125.0 . . ?
C10 N2 H2 125.0 . . ?
C1 O1 Ca1 156.9(2) . . ?
C1 O2 Ca1 139.2(2) 2_665 . ?
C4 O3 H3A 109.5 . . ?
C5 O4 Ca1 160.7(2) . 2_565 ?
C5 O4 Ca1 86.18(19) . . ?
Ca1 O4 Ca1 109.57(9) 2_565 . ?
C5 O5 Ca1 99.0(2) . . ?
C8 O6 Ca1 134.4(2) . . ?
C8 O6 H6 109.5 . . ?
Ca1 O6 H6 107.9 . . ?
C9 O7 Ca1 144.0(3) . . ?
O7 Ca1 O1 88.05(10) . . ?
O7 Ca1 O4 96.36(11) . 2_565 ?
O1 Ca1 O4 88.63(9) . 2_565 ?
O7 Ca1 O2 166.65(10) . . ?
O1 Ca1 O2 91.08(9) . . ?
O4 Ca1 O2 96.94(10) 2_565 . ?
O7 Ca1 O5 87.61(10) . . ?
O1 Ca1 O5 155.04(10) . . ?
O4 Ca1 O5 116.29(9) 2_565 . ?
O2 Ca1 O5 87.58(9) . . ?
O7 Ca1 O6 84.78(10) . . ?
O1 Ca1 O6 83.33(9) . . ?
O4 Ca1 O6 171.84(9) 2_565 . ?
O2 Ca1 O6 81.88(9) . . ?
O5 Ca1 O6 71.80(9) . . ?
O7 Ca1 O4 74.87(9) . . ?
O1 Ca1 O4 150.84(9) . . ?
O4 Ca1 O4 70.43(9) 2_565 . ?
O2 Ca1 O4 110.89(9) . . ?
O5 Ca1 O4 49.44(8) . . ?
O6 Ca1 O4 117.58(8) . . ?
O7 Ca1 C5 75.84(10) . . ?
O1 Ca1 C5 163.76(10) . . ?
O4 Ca1 C5 95.10(10) 2_565 . ?
O2 Ca1 C5 104.10(9) . . ?
O5 Ca1 C5 25.16(9) . . ?
O6 Ca1 C5 93.02(9) . . ?
O4 Ca1 C5 25.13(9) . . ?
O7 Ca1 Ca1 83.61(8) . 2_565 ?
O1 Ca1 Ca1 124.49(7) . 2_565 ?
O4 Ca1 Ca1 38.71(6) 2_565 2_565 ?
O2 Ca1 Ca1 107.70(7) . 2_565 ?
O5 Ca1 Ca1 79.37(6) . 2_565 ?
O6 Ca1 Ca1 149.27(6) . 2_565 ?
O4 Ca1 Ca1 31.72(5) . 2_565 ?
C5 Ca1 Ca1 56.54(7) . 2_565 ?
loop_
_geom_bond_atom_site_label_1
_geom_bond_atom_site_label_2
_geom_bond_distance
_geom_bond_site_symmetry_2
_geom_bond_publ_flag
C1 O1 1.250(4) . ?
C1 O2 1.276(4) 2_665 ?
C1 C2 1.499(5) . ?
C2 C3 1.388(5) . ?
C2 C4 1.411(5) . ?
C3 C4 1.382(5) 2_656 ?
C3 H3 0.9500 . ?
C4 O3 1.368(4) . ?
C5 O4 1.256(4) . ?
C5 O5 1.270(4) . ?
C5 C6 1.500(4) . ?
C5 Ca1 2.951(3) . ?
C6 C7 1.395(5) . ?
C6 C8 1.404(5) 2_575 ?
C7 C8 1.387(4) 1_455 ?
C7 H7 0.9500 . ?
C8 O6 1.369(4) . ?
C9 O7 1.247(4) . ?
C9 N1 1.345(5) . ?
C9 N2 1.358(5) . ?
C10 N2 1.461(5) . ?
C10 C11 1.512(7) . ?
C10 H10A 0.9900 . ?
C10 H10B 0.9900 . ?
C11 N1 1.457(5) . ?
C11 H11A 0.9900 . ?
C11 H11B 0.9900 . ?
N1 H1 0.8800 . ?
N2 H2 0.8800 . ?
O1 Ca1 2.303(2) . ?
O2 Ca1 2.317(3) . ?
O3 H3A 0.8400 . ?
O4 Ca1 2.316(3) 2_565 ?
O4 Ca1 2.755(3) . ?
O5 Ca1 2.473(3) . ?
O6 Ca1 2.480(3) . ?
O6 H6 0.8400 . ?
O7 Ca1 2.294(3) . ?
Ca1 Ca1 4.1516(14) 2_565 ?
