#------------------------------------------------------------------------------
#$Date: 2021-11-06 21:47:43 +0200 (Sat, 06 Nov 2021) $
#$Revision: 270412 $
#$URL: file:///home/coder/svn-repositories/cod/cif/7/24/34/7243497.cif $
#------------------------------------------------------------------------------
#
# This file is available in the Crystallography Open Database (COD),
# http://www.crystallography.net/
#
# All data on this site have been placed in the public domain by the
# contributors.
#
data_7243497
loop_
_publ_author_name
'Ma, Zhi Long'
'Wang, Meng Chen'
'Tian, Li'
'Liu, Zhong Yi'
_publ_section_title
;
 Solvent-controlled metal coordination polymers of Co(ii) with different
 topological structures and properties
;
_journal_issue                   41
_journal_name_full               CrystEngComm
_journal_page_first              7253
_journal_page_last               7261
_journal_paper_doi               10.1039/D1CE01093J
_journal_volume                  23
_journal_year                    2021
_chemical_formula_sum            'C6 H7 Co0.5 N3 O4'
_chemical_formula_weight         214.61
_space_group_crystal_system      triclinic
_space_group_IT_number           2
_space_group_name_Hall           '-P 1'
_space_group_name_H-M_alt        'P -1'
_atom_sites_solution_hydrogens   mixed
_audit_block_doi                 10.5517/ccdc.csd.cc28llyf
_audit_creation_method           SHELXL-2013
_audit_update_record
;
2021-08-15 deposited with the CCDC.	2021-09-07 downloaded from the CCDC.
;
_cell_angle_alpha                65.269(8)
_cell_angle_beta                 89.120(9)
_cell_angle_gamma                70.156(9)
_cell_formula_units_Z            2
_cell_length_a                   7.385(3)
_cell_length_b                   7.980(3)
_cell_length_c                   8.186(3)
_cell_measurement_reflns_used    488
_cell_measurement_temperature    296(2)
_cell_measurement_theta_max      24.78
_cell_measurement_theta_min      2.97
_cell_volume                     407.6(3)
_computing_cell_refinement       'Bruker SMART'
_computing_data_collection       'Bruker SMART'
_computing_data_reduction        'Bruker SAINT'
_computing_molecular_graphics    'Bruker SHELXTL'
_computing_publication_material  'Bruker SHELXTL'
_computing_structure_refinement  'SHELXL-2013 (Sheldrick, 2013)'
_computing_structure_solution    'Bruker SHELXTL'
_diffrn_ambient_temperature      296(2)
_diffrn_measured_fraction_theta_full 0.997
_diffrn_measured_fraction_theta_max 0.998
_diffrn_measurement_device_type  'CCD area detector'
_diffrn_measurement_method       'phi and omega scans'
_diffrn_radiation_type           MoK\a
_diffrn_radiation_wavelength     0.71073
_diffrn_reflns_av_R_equivalents  0.0717
_diffrn_reflns_av_unetI/netI     0.1470
_diffrn_reflns_Laue_measured_fraction_full 0.997
_diffrn_reflns_Laue_measured_fraction_max 0.998
_diffrn_reflns_limit_h_max       6
_diffrn_reflns_limit_h_min       -9
_diffrn_reflns_limit_k_max       5
_diffrn_reflns_limit_k_min       -10
_diffrn_reflns_limit_l_max       10
_diffrn_reflns_limit_l_min       -10
_diffrn_reflns_number            2648
_diffrn_reflns_point_group_measured_fraction_full 0.997
_diffrn_reflns_point_group_measured_fraction_max 0.998
_diffrn_reflns_theta_full        25.242
_diffrn_reflns_theta_max         26.486
_diffrn_reflns_theta_min         2.770
_exptl_absorpt_coefficient_mu    1.112
_exptl_absorpt_correction_type   multi-scan
_exptl_absorpt_process_details   SADABS
_exptl_crystal_colour            PINK
_exptl_crystal_density_diffrn    1.749
_exptl_crystal_density_meas      ?
_exptl_crystal_description       BLOCK
_exptl_crystal_F_000             219
_exptl_crystal_size_max          0.220
_exptl_crystal_size_mid          0.210
_exptl_crystal_size_min          0.180
_exptl_transmission_factor_max   0.825
_exptl_transmission_factor_min   0.792
_refine_diff_density_max         0.924
_refine_diff_density_min         -1.986
_refine_diff_density_rms         0.218
_refine_ls_extinction_method     none
_refine_ls_goodness_of_fit_ref   1.049
_refine_ls_hydrogen_treatment    constr
_refine_ls_matrix_type           full
_refine_ls_number_parameters     124
_refine_ls_number_reflns         1674
_refine_ls_number_restraints     0
_refine_ls_restrained_S_all      1.049
_refine_ls_R_factor_all          0.1023
_refine_ls_R_factor_gt           0.0853
_refine_ls_shift/su_max          0.000
_refine_ls_shift/su_mean         0.000
_refine_ls_structure_factor_coef Fsqd
_refine_ls_weighting_details
; 
 w=1/[\s^2^(Fo^2^)+(0.1322P)^2^] 
 where P=(Fo^2^+2Fc^2^)/3 
;
_refine_ls_weighting_scheme      calc
_refine_ls_wR_factor_gt          0.2255
_refine_ls_wR_factor_ref         0.2435
_reflns_Friedel_coverage         0.000
_reflns_number_gt                1296
_reflns_number_total             1674
_reflns_threshold_expression     'I > 2\s(I)'
_cod_data_source_file            d1ce01093j2.cif
_cod_data_source_block           n191209b
_cod_depositor_comments
;
The following automatic conversions were performed:

data item '_exptl_absorpt_correction_type' value 'MULTI-SCAN' was
changed to 'multi-scan' in accordance with the
/home/data/users/saulius/crontab/automatic-downloads/rss-feeds/RSC/lib/dictionaries/cif_core.dic
dictionary named 'cif_core.dic' version 2.4.2 last updated on
2011-04-26.

data item '_exptl_crystal_density_meas' value 'NONE' was changed to
'?' -- the value is perceived as not measured.

Automatic conversion script
Id: cif_fix_values 7556 2019-12-06 15:28:31Z antanas 

 Adding full bibliography for 7243497--7243499.cif.
;
_cod_original_formula_sum        'C6 H7 Co0.50 N3 O4'
_cod_database_code               7243497
_shelx_space_group_comment
; 
The symmetry employed for this shelxl refinement is uniquely defined 
by the following loop, which should always be used as a source of 
symmetry information in preference to the above space-group names. 
They are only intended as comments. 
;
_shelx_estimated_absorpt_t_min   0.792
_shelx_estimated_absorpt_t_max   0.825
_shelxl_version_number           2013-2
_shelx_res_file
; 
TITL N191209B in P-1 
CELL  0.71073    7.3850    7.9800    8.1860    65.269    89.120    70.156 
ZERR 2           0.0030    0.0030    0.0030     0.008     0.009     0.009 
LATT 1 
SFAC C  H  N  O  Co 
UNIT 12 14 6 8 1 
OMIT  4   3   5 
OMIT   4  -1   7 
OMIT   0.00  53.00 
L.S. 8 
ACTA 
BOND $H 
CONF 
HTAB 
SIZE 0.22 0.21 0.18 
FMAP 2 
PLAN 20 
TEMP 23.000 
WGHT    0.132200 
FVAR       0.45483 
CO1   5    1.000000    0.500000    0.500000    10.50000    0.01666    0.01669 = 
         0.02816   -0.01399   -0.00527   -0.00502 
O1    4    0.823972    0.425761    0.371408    11.00000    0.02329    0.03219 = 
         0.02936   -0.01971   -0.00710   -0.00852 
O2    4    1.010606    0.269715    0.225136    11.00000    0.01983    0.06204 = 
         0.06649   -0.05424   -0.00802    0.00022 
O3    4    1.238462    0.398873    0.371490    11.00000    0.02573    0.03779 = 
         0.05111   -0.03078    0.00665   -0.01248 
AFIX   3 
H3A   2    1.353236    0.340853    0.429978    11.00000   -1.50000 
H3B   2    1.211127    0.315526    0.347596    11.00000   -1.50000 
AFIX   0 
O4    4    0.608239    0.196339    0.580344    11.00000    0.04223    0.06030 = 
         0.05347   -0.01490    0.00087   -0.02803 
AFIX   3 
H4A   2    0.663568    0.106041    0.685936    11.00000   -1.50000 
H4B   2    0.669715    0.275172    0.546476    11.00000   -1.50000 
AFIX   0 
N1    3    0.903042   -0.210799    0.275392    11.00000    0.02626    0.01836 = 
         0.03296   -0.01315   -0.00353   -0.00434 
N2    3    0.743983    0.104206    0.113097    11.00000    0.02137    0.01981 = 
         0.03221   -0.01549   -0.00435   -0.00738 
N3    3    0.771558    0.021524   -0.007529    11.00000    0.02780    0.02007 = 
         0.03275   -0.01750   -0.00229   -0.00852 
C1    1    0.853396    0.362931    0.249638    11.00000    0.02392    0.02398 = 
         0.03083   -0.01678   -0.00884   -0.01007 
C2    1    0.539268    0.614116    0.071542    11.00000    0.02193    0.01689 = 
         0.03939   -0.01686   -0.00141   -0.00849 
AFIX  43 
H2    2    0.562856    0.693006    0.119571    11.00000   -1.20000 
AFIX   0 
C3    1    0.669684    0.422104    0.127134    11.00000    0.01858    0.01985 = 
         0.02099   -0.00906   -0.00861   -0.00681 
C4    1    0.626595    0.307845    0.054691    11.00000    0.02080    0.01340 = 
         0.02890   -0.01006   -0.00319   -0.00474 
C5    1    0.821644   -0.037525    0.280266    11.00000    0.02960    0.01685 = 
         0.02869   -0.00875   -0.00672   -0.00398 
AFIX  43 
H5    2    0.819185   -0.017975    0.384712    11.00000   -1.20000 
AFIX   0 
C6    1    0.868317   -0.163448    0.096562    11.00000    0.02532    0.01918 = 
         0.02951   -0.01468   -0.00002   -0.00758 
AFIX  43 
H6    2    0.911227   -0.257705    0.051868    11.00000   -1.20000 
AFIX   0 
HKLF 4 1  1.0000  0.0000  0.0000  0.0000  1.0000  0.0000  0.0000  0.0000  1.0000 
  
REM  N191209B in P-1 
REM R1 =  0.0853 for    1296 Fo > 4sig(Fo)  and  0.1023 for all    1674 data 
REM    124 parameters refined using      0 restraints 
  
END 
  
WGHT      0.1323      0.0000 
  
REM Instructions for potential hydrogen bonds 
EQIV $1 x+1, y, z 
HTAB O3 O4_$1 
HTAB O3 O2 
EQIV $2 x, y, z+1 
HTAB O4 N3_$2 
HTAB O4 O1 
EQIV $3 -x+2, -y, -z 
HTAB C6 O2_$3 
  
REM Highest difference peak  0.924,  deepest hole -1.986,  1-sigma level  0.218 
Q1    1   0.8338  0.4326  0.5170  11.00000  0.05    0.92 
Q2    1   0.7543  0.3968  0.5737  11.00000  0.05    0.79 
Q3    1   1.1808  0.3653  0.5190  11.00000  0.05    0.70 
Q4    1   1.1225  0.3853  0.5542  11.00000  0.05    0.70 
Q5    1   1.0557 -0.3818  0.2559  11.00000  0.05    0.62 
Q6    1   0.9366  0.0261  0.5285  11.00000  0.05    0.59 
Q7    1   0.7898  0.0872  0.5994  11.00000  0.05    0.58 
Q8    1   0.8934  0.1807  0.5185  11.00000  0.05    0.58 
Q9    1   0.4954  0.9781  0.0941  11.00000  0.05    0.57 
Q10   1   1.3409  0.5745  0.3567  11.00000  0.05    0.56 
Q11   1   0.6418 -0.0389  0.7081  11.00000  0.05    0.55 
Q12   1   1.4510  0.3270  0.5352  11.00000  0.05    0.55 
Q13   1   0.4838  0.7867  0.1250  11.00000  0.05    0.54 
Q14   1   0.7015  0.1554  0.7191  11.00000  0.05    0.54 
Q15   1   0.6537  0.0439 -0.0603  11.00000  0.05    0.53 
Q16   1   0.5806  0.1630  0.7801  11.00000  0.05    0.53 
Q17   1   0.6823  0.5624  0.3019  11.00000  0.05    0.52 
Q18   1   0.5599  0.1347  0.7979  11.00000  0.05    0.52 
Q19   1   0.7539 -0.3019  0.3359  11.00000  0.05    0.52 
Q20   1   0.6608  0.3686  0.6575  11.00000  0.05    0.51 
;
_shelx_res_checksum              42255
_shelx_hkl_file
; 
  -1   0   0  424.13   51.91 
  -2   0   0   10.95    1.67 
  -3   0   0   16.99    2.57 
  -4   0   0   50.19    6.55 
  -5   0   0  139.29   17.51 
  -6   0   0   41.99    5.75 
  -7   0   0   18.11    3.27 
  -8   0   0   47.27    7.23 
  -9   0   0   10.57    2.72 
  -8   1   0   14.10    3.04 
  -7   1   0   13.98    2.82 
  -6   1   0  102.52   13.19 
  -5   1   0    1.55    0.72 
  -4   1   0   18.56    2.94 
   3  -1   0   48.04   12.15 
  -3   1   0   46.86    6.07 
   2  -1   0    0.73    0.70 
   2  -1   0    2.07    2.46 
  -2   1   0    0.04    0.27 
   1  -1   0  164.33   18.80 
   1  -1   0  163.68   26.77 
  -1   1   0  148.25   19.25 
   0  -1   0  123.47   15.20 
  -1  -1   0    0.20    0.45 
  -1  -1   0   -0.29    0.17 
  -2  -1   0  930.73  113.91 
  -3  -1   0  137.75   17.09 
  -4  -1   0   86.47   10.92 
  -5  -1   0  149.03   18.68 
  -6  -1   0   44.83    6.08 
  -7  -1   0   28.07    4.50 
  -8  -1   0    0.08    0.75 
  -9  -1   0    8.42    2.37 
  -8   2   0    1.71    1.35 
  -7   2   0   14.79    2.98 
  -6   2   0   18.22    3.23 
  -5   2   0   13.23    2.45 
   4  -2   0  103.96   27.38 
  -4   2   0  139.26   16.94 
   3  -2   0   33.36    5.42 
   3  -2   0   31.20   10.52 
  -3   2   0   41.04    5.04 
   2  -2   0   15.16    5.88 
   2  -2   0   11.89    2.19 
  -2   2   0   13.52    1.99 
   1  -2   0   80.24   14.86 
   1  -2   0   84.55    9.94 
  -1   2   0   79.66   10.15 
   0  -2   0   18.86    2.54 
  -1  -2   0   43.87    8.31 
  -1  -2   0   50.10    6.05 
  -2  -2   0  534.14   65.61 
  -2  -2   0  537.46   87.07 
  -3  -2   0  116.24   14.11 
  -3  -2   0  109.46   18.97 
  -4  -2   0  204.30   25.30 
  -5  -2   0  407.59   50.25 
  -6  -2   0   61.50    8.09 
  -7  -2   0    0.30    0.62 
  -8  -2   0    0.09    0.65 
  -9  -2   0   15.81    3.23 
  -7   3   0   18.42    3.53 
  -6   3   0    4.63    1.46 
   5  -3   0    2.83    5.51 
  -5   3   0   -0.25    0.60 
   4  -3   0   23.15   10.68 
  -4   3   0   31.14    4.56 
   3  -3   0   69.09   15.43 
   3  -3   0   40.07    6.29 
  -3   3   0   52.38    6.28 
   2  -3   0  222.49   26.48 
   2  -3   0  184.16   38.23 
  -2   3   0  226.38   27.07 
   1  -3   0  221.10   40.77 
   1  -3   0  258.25   28.74 
  -1   3   0  230.12   29.48 
   0  -3   0   13.57    4.08 
  -1  -3   0   10.78    1.66 
  -1  -3   0    8.85    2.64 
  -2  -3   0   19.67    4.03 
  -2  -3   0   17.19    2.33 
  -3  -3   0  140.01   24.45 
  -3  -3   0  150.76   18.16 
  -4  -3   0    8.03    1.43 
  -4  -3   0    7.26    2.35 
  -5  -3   0   20.88    3.16 
  -5  -3   0   20.06    4.84 
  -6  -3   0   20.67    5.07 
  -6  -3   0   18.56    3.13 
  -7  -3   0   15.53    2.85 
  -7  -3   0   14.64    4.39 
  -8  -3   0    6.23    2.84 
  -8  -3   0    7.09    1.82 
  -9  -3   0   11.69    2.66 
  -9  -3   0   10.55    4.02 
  -6   4   0   19.84    3.63 
   5  -4   0   15.32    9.38 
  -5   4   0   15.97    2.95 
   4  -4   0    7.62    7.43 
  -4   4   0   17.36    2.91 
   3  -4   0   48.18    8.48 
   3  -4   0   69.39   17.70 
  -3   4   0   69.15    8.14 
   2  -4   0   56.60    7.26 
   2  -4   0   44.88   13.64 
  -2   4   0   57.58    7.24 
   1  -4   0   78.06   18.03 
   1  -4   0   90.24   10.97 
  -1   4   0   89.69   11.14 
   0  -4   0   23.49    6.49 
  -1  -4   0  105.14   13.19 
  -2  -4   0  241.98   39.65 
  -2  -4   0  236.44   29.43 
  -3  -4   0  113.76   19.51 
  -3  -4   0  114.87   14.25 
  -4  -4   0   81.50   13.64 
  -4  -4   0   75.61    9.78 
  -5  -4   0  176.76   22.36 
  -5  -4   0  184.84   30.34 
  -6  -4   0    9.50    1.75 
  -6  -4   0    6.48    2.83 
  -7  -4   0    6.43    2.98 
  -7  -4   0    6.93    1.62 
  -8  -4   0    1.28    1.85 
  -8  -4   0    1.09    0.77 
  -9  -4   0   19.73    5.88 
  -9  -4   0   24.04    4.08 
   5  -5   0    8.19    9.85 
  -5   5   0   22.37    3.76 
   4  -5   0   11.42    8.70 
  -4   5   0   25.48    3.91 
   3  -5   0   70.37   18.33 
  -3   5   0   63.10    8.33 
   2  -5   0   31.93   11.07 
  -2   5   0   33.61    4.49 
   1  -5   0   26.27    8.71 
   1  -5   0   30.62    4.04 
  -1   5   0   29.05    3.89 
   0  -5   0    2.47    2.44 
   0  -5   0    4.75    1.07 
   0   5   0    5.12    0.92 
  -1  -5   0   17.77    4.92 
  -1  -5   0    7.93    1.62 
  -2  -5   0   97.40   16.67 
  -2  -5   0   91.54   11.81 
  -3  -5   0  215.96   34.52 
  -3  -5   0  199.24   25.35 
  -4  -5   0   80.98    9.80 
  -4  -5   0   69.01   13.69 
  -5  -5   0   21.05    5.24 
  -5  -5   0   21.64    3.26 
  -6  -5   0   30.44    4.12 
  -6  -5   0   25.42    6.72 
  -7  -5   0    9.84    3.81 
  -7  -5   0   15.67    2.62 
  -8  -5   0   39.33    6.19 
  -8  -5   0   47.57    9.94 
  -9  -5   0    1.04    1.01 
  -9  -5   0   -0.95    1.63 
   4  -6   0   -3.91    6.08 
   3  -6   0   19.00   10.90 
   2  -6   0   20.15    8.55 
   1  -6   0   54.52   14.32 
   0  -6   0   12.57    5.86 
   0  -6   0   13.93    2.37 
  -1  -6   0    1.58    2.17 
  -2  -6   0   42.98    9.91 
  -3  -6   0   14.16    4.53 
  -4  -6   0    2.46    1.92 
  -5  -6   0   13.28    4.32 
  -6  -6   0   20.48    3.31 
  -6  -6   0   18.63    5.60 
  -7  -6   0   11.08    3.99 
  -7  -6   0    9.60    2.04 
  -8  -6   0   40.42    6.01 
  -8  -6   0   38.20    9.51 
  -9  -6   0    0.18    2.10 
   3  -7   0    1.31    6.26 
   2  -7   0    4.63    5.96 
   1  -7   0   24.45    9.70 
   0  -7   0    7.67    5.09 
  -1  -7   0   35.42   10.15 
  -2  -7   0  102.39   20.85 
  -3  -7   0    5.64    3.11 
  -4  -7   0   12.50    4.68 
  -5  -7   0    0.04    1.71 
  -6  -7   0   -0.61    1.81 
  -7  -7   0   20.34    6.17 
  -8  -7   0   15.93    5.45 
   1  -8   0   13.57    8.14 
   0  -8   0    3.02    5.37 
  -1  -8   0    5.31    4.52 
  -2  -8   0    9.11    4.95 
  -3  -8   0    3.64    3.19 
  -4  -8   0   82.39   17.55 
  -5  -8   0    4.49    3.49 
  -6  -8   0    4.90    3.55 
  -7  -8   0   16.32    6.09 
  -1  -9   0    5.71    5.17 
  -2  -9   0    1.84    4.02 
  -3  -9   0   -0.13    3.35 
  -4  -9   0    3.66    4.23 
  -5  -9   0    2.79    3.81 
  -6  -9   0   14.73    6.38 
  -4  -9   1    0.86    3.32 
  -3  -9   1   12.73    6.40 
  -7  -8   1    7.68    4.02 
  -6  -8   1    2.62    3.08 
  -5  -8   1    8.25    4.49 
  -4  -8   1    0.30    2.76 
  -3  -8   1   22.62    8.17 
  -2  -8   1    8.10    5.24 
  -1  -8   1    3.23    4.36 
   0  -8   1   11.05    6.93 
   1  -8   1   15.36    8.92 
  -8  -7   1    1.28    2.68 
  -7  -7   1    4.12    2.87 
  -6  -7   1    7.48    3.52 
  -5  -7   1   15.39    5.34 
  -4  -7   1    1.55    2.10 
  -3  -7   1   58.74   13.22 
  -2  -7   1   46.67   11.66 
  -1  -7   1    1.74    3.18 
   0  -7   1    5.12    5.29 
   1  -7   1    0.79    4.52 
   2  -7   1   16.57    9.36 
  -9  -6   1   14.70    4.97 
  -8  -6   1    3.39    2.66 
  -7  -6   1    1.60    1.88 
  -7  -6   1    0.42    1.00 
  -6  -6   1    6.28    3.03 
  -5  -6   1    6.62    3.08 
  -4  -6   1   19.02    5.67 
  -3  -6   1   94.30   17.31 
  -2  -6   1   24.29    7.01 
  -1  -6   1    5.47    4.05 
   0  -6   1   27.50    8.99 
   1  -6   1   16.71    7.42 
   2  -6   1   41.30   13.90 
   3  -6   1    2.93    6.72 
   4  -6   1   11.26   10.97 
  -9  -5   1   49.40   10.47 
  -9  -5   1   43.19    6.82 
  -8  -5   1   -0.37    0.64 
  -8  -5   1   -1.11    1.47 
  -7  -5   1    2.50    1.93 
  -7  -5   1    0.44    0.67 
  -6  -5   1   52.74    6.83 
  -6  -5   1   46.36   10.19 
  -5  -5   1   18.36    6.06 
  -5  -5   1   32.66    4.03 
  -4  -5   1   56.26    7.03 
  -4  -5   1   45.48   10.36 
  -3  -5   1   10.79    3.54 
  -3  -5   1    9.11    1.90 
  -2  -5   1   23.08    6.22 
  -2  -5   1   25.17    4.02 
  -1  -5   1   44.16    9.04 
  -1  -5   1   26.33    4.53 
   0  -5   1    8.14    4.26 
   0  -5   1    3.18    1.29 
  -1   5  -1   18.62    2.83 
   1  -5   1   13.42    6.49 
  -2   5  -1  119.74   14.57 
   2  -5   1   83.53   24.24 
  -3   5  -1   66.94    8.21 
   3  -5   1   32.54   14.88 
  -4   5  -1   46.43    6.69 
   4  -5   1   33.36   14.56 
   5  -5   1   -2.12    8.41 
  -9  -4   1   -0.24    1.64 
  -9  -4   1    0.35    0.80 
  -8  -4   1    3.97    1.36 
  -8  -4   1    3.86    2.44 
  -7  -4   1   25.74    5.83 
  -7  -4   1   18.74    3.49 
  -6  -4   1   57.96   10.96 
  -6  -4   1   60.13    7.82 
  -5  -4   1   50.33    9.14 
  -5  -4   1   48.38    6.45 
  -4  -4   1  121.53   15.33 
  -4  -4   1  122.98   20.86 
  -3  -4   1   -0.12    0.81 
  -3  -4   1    0.33    0.47 
  -2  -4   1   30.71    6.99 
  -2  -4   1   32.25    4.42 
  -1  -4   1    7.72    3.38 
  -1  -4   1    9.34    1.96 
   0  -4   1   41.48    8.31 
   0  -4   1   15.97    3.07 
  -1   4  -1   86.70   11.33 
   1  -4   1   95.32   11.03 
   1  -4   1   78.13   18.91 
  -2   4  -1   27.27    3.80 
   2  -4   1   14.91    7.70 
  -3   4  -1   30.23    4.23 
   3  -4   1   32.22   11.23 
  -4   4  -1    5.60    1.46 
   4  -4   1    4.57    5.79 
  -5   4  -1    8.17    2.12 
   5  -4   1    1.55    6.56 
  -6   4  -1   29.60    5.06 
  -9  -3   1    0.33    1.57 
  -9  -3   1    5.56    1.58 
  -8  -3   1    6.70    1.70 
  -8  -3   1    3.37    2.16 
  -7  -3   1    7.20    1.72 
  -7  -3   1    6.64    2.55 
  -6  -3   1    2.53    0.94 
  -6  -3   1    3.85    1.92 
  -5  -3   1  168.37   27.48 
  -5  -3   1  160.02   20.41 
  -4  -3   1  106.20   13.54 
  -4  -3   1  110.77   18.36 
  -3  -3   1   -0.19    0.26 
  -3  -3   1    0.99    0.82 
  -2  -3   1    3.32    1.52 
  -2  -3   1    2.60    0.75 
  -1  -3   1   71.51   11.26 
  -1  -3   1   55.97    7.89 
   0  -3   1  227.49   28.34 
   1  -3   1    0.16    0.65 
   1  -3   1    2.54    2.61 
   1  -3   1    1.91    0.54 
  -2   3  -1    1.06    0.52 
   2  -3   1    4.36    3.85 
   2  -3   1    1.82    0.69 
  -3   3  -1   86.80   10.97 
   3  -3   1   77.77   20.50 
   4  -3   1    9.12    6.62 
  -5   3  -1    3.96    1.43 
   5  -3   1    2.85    5.34 
  -6   3  -1    1.78    1.17 
  -7   3  -1   13.62    3.09 
  -9  -2   1    4.91    1.64 
  -9  -2   1    2.26    2.20 
  -8  -2   1   25.29    4.38 
  -8  -2   1   29.27    6.76 
  -7  -2   1   41.58    5.63 
  -7  -2   1   37.64    8.37 
  -6  -2   1  203.58   25.32 
  -6  -2   1  201.26   33.89 
  -5  -2   1   12.56    2.31 
  -5  -2   1   15.53    3.57 
  -4  -2   1   -0.01    0.59 
  -4  -2   1    0.43    0.40 
  -3  -2   1    9.53    1.51 
  -3  -2   1    7.80    2.19 
  -2  -2   1    2.22    0.96 
  -2  -2   1    1.48    0.49 
  -1  -2   1  736.61   89.27 
  -1  -2   1  718.20  118.38 
   0  -2   1  382.48   47.21 
   1  -2   1  233.87   27.29 
   1  -2   1  212.39   39.00 
   2  -2   1  140.17   22.27 
   2  -2   1   93.21   11.81 
  -3   2  -1    7.61    1.45 
   3  -2   1    2.70    4.14 
  -4   2  -1    0.02    0.44 
   4  -2   1    0.31    3.73 
  -5   2  -1  105.64   13.57 
  -6   2  -1   28.45    4.68 
  -7   2  -1    9.64    2.39 
  -9  -1   1   10.61    2.57 
  -8  -1   1   22.38    3.93 
  -7  -1   1   40.02    5.61 
  -6  -1   1   49.98    6.71 
  -5  -1   1  100.09   12.70 
  -4  -1   1  572.04   70.26 
  -3  -1   1   16.29    2.26 
  -2  -1   1  199.76   25.20 
  -2  -1   1  209.91   33.43 
  -1  -1   1  664.81  106.56 
  -1  -1   1  649.90   80.49 
   0  -1   1  577.11   86.36 
   0  -1   1  488.96   64.97 
   1  -1   1  200.42   24.92 
  -2   1  -1   -0.05    0.30 
   2  -1   1    1.96    2.90 
  -3   1  -1   79.60    9.93 
   3  -1   1   67.04   17.45 
  -4   1  -1  220.85   27.45 
  -5   1  -1  183.91   23.08 
  -6   1  -1   22.22    3.78 
  -7   1  -1   12.84    2.72 
  -8   1  -1   39.48    6.38 
  -9   0   1    2.42    1.41 
  -8   0   1    1.38    1.13 
  -7   0   1   29.91    4.68 
  -6   0   1    2.07    0.92 
  -5   0   1   13.38    2.32 
  -4   0   1    4.09    1.00 
  -3   0   1  122.82   15.29 
  -2   0   1  551.87   67.62 
   1   0  -1  894.58  113.15 
  -1   0   1 1000.00  116.31 
   0   0  -1    7.91    1.06 
   0   0   1    7.50    2.02 
   0   0   1    6.82    1.26 
   1   0   1   10.41    3.70 
  -2   0  -1   16.51    2.27 
  -3   0  -1    4.50    0.96 
  -4   0  -1   54.89    7.13 
  -5   0  -1  240.63   29.99 
  -6   0  -1   75.75    9.98 
  -7   0  -1    8.83    2.14 
  -8   0  -1    4.18    1.53 
  -8   1   1   16.65    3.33 
  -7   1   1   37.49    5.82 
  -6   1   1    6.59    1.64 
  -5   1   1    1.99    0.78 
  -4   1   1    6.78    1.38 
   3  -1  -1   81.43   12.42 
  -3   1   1  106.89   12.33 
   2  -1  -1    1.91    1.96 
   2  -1  -1    4.01    1.26 
  -2   1   1    3.17    0.68 
   1  -1  -1  133.81   22.65 
   1  -1  -1  140.49   16.30 
  -1   1   1  130.58   16.56 
   0  -1  -1  197.32   32.81 
   0  -1  -1  209.11   24.09 
   0   1   1  199.77   24.77 
   1   1   1  162.52   20.21 
  -2  -1  -1   14.53    2.00 
  -3  -1  -1  272.49   33.58 
  -4  -1  -1  118.82   14.92 
  -5  -1  -1   92.49   11.86 
  -6  -1  -1    5.21    1.45 
  -7  -1  -1    0.55    0.73 
  -8  -1  -1    4.62    1.63 
  -9  -1  -1   11.52    2.74 
  -8   2   1   15.52    3.29 
  -7   2   1   60.81    8.24 
  -6   2   1   17.06    3.02 
  -5   2   1   37.31    5.08 
   4  -2  -1    9.68    5.66 
   4  -2  -1    7.45    2.43 
  -4   2   1   14.43    2.11 
   3  -2  -1   17.78    6.54 
   3  -2  -1    9.04    2.57 
  -3   2   1   17.39    2.20 
   2  -2  -1  326.21   54.06 
   2  -2  -1  314.37   38.52 
  -2   2   1  322.03   39.33 
   1  -2  -1   66.10   11.97 
   1  -2  -1   68.99    8.18 
  -1   2   1   64.55    8.21 
   0  -2  -1  171.39   26.88 
   0  -2  -1  161.37   19.87 
   0   2   1  159.12   19.87 
  -1  -2  -1   41.84    5.01 
  -1  -2  -1   37.09    6.92 
  -2  -2  -1  287.33   35.54 
  -2  -2  -1  292.87   47.34 
  -3  -2  -1  338.80   41.67 
  -4  -2  -1  408.98   50.35 
  -5  -2  -1    3.23    0.95 
  -6  -2  -1   32.50    4.90 
  -7  -2  -1    1.05    0.76 
  -8  -2  -1    1.28    1.03 
  -9  -2  -1    4.21    1.65 
  -7   3   1    7.67    1.98 
  -6   3   1   12.73    2.55 
  -5   3   1   71.98    9.36 
   4  -3  -1   62.92   15.78 
   4  -3  -1   38.08    7.61 
  -4   3   1   60.93    7.14 
   3  -3  -1  184.96   24.01 
   3  -3  -1  162.91   34.94 
  -3   3   1  211.13   24.30 
   2  -3  -1  488.64   56.65 
   2  -3  -1  478.63   79.20 
  -2   3   1  457.95   57.99 
   1  -3  -1    9.30    1.64 
   1  -3  -1   14.10    4.24 
  -1   3   1    9.23    1.32 
   0  -3  -1   39.56    8.26 
   0   3   1   41.91    5.18 
  -1  -3  -1  125.03   20.95 
  -2  -3  -1  288.38   47.51 
  -2  -3  -1  290.87   35.54 
  -3  -3  -1  117.97   19.35 
  -3  -3  -1  112.95   14.22 
  -4  -3  -1   87.12   14.69 
  -4  -3  -1   83.15   10.64 
  -5  -3  -1  202.10   33.49 
  -5  -3  -1  197.70   24.78 
  -6  -3  -1   91.82   11.78 
  -7  -3  -1    4.31    1.30 
  -8  -3  -1   25.69    4.26 
  -9  -3  -1   19.32    3.80 
  -7   4   1    4.81    1.69 
  -6   4   1   15.40    2.91 
   5  -4  -1    0.54    5.76 
  -5   4   1    0.32    0.60 
   4  -4  -1    0.54    1.28 
   4  -4  -1    3.97    5.29 
  -4   4   1    0.03    0.46 
   3  -4  -1   54.23    7.87 
   3  -4  -1  103.22   19.44 
  -3   4   1   59.96    7.63 
   2  -4  -1  199.59   23.41 
   2  -4  -1  171.91   34.09 
  -2   4   1  191.45   23.70 
   1  -4  -1  148.11   16.16 
   1  -4  -1  115.56   23.47 
  -1   4   1  126.62   16.31 
   0  -4  -1  130.34   14.11 
   0  -4  -1  118.21   20.47 
   0   4   1  107.65   14.23 
  -1  -4  -1    2.75    1.48 
  -2  -4  -1  342.31   41.33 
  -2  -4  -1  328.49   55.42 
  -3  -4  -1   95.36   11.81 
  -3  -4  -1   94.47   16.30 
  -4  -4  -1   62.46    7.94 
  -4  -4  -1   62.80   11.24 
  -5  -4  -1    4.59    1.11 
  -5  -4  -1    7.34    2.54 
  -6  -4  -1    1.39    1.31 
  -6  -4  -1    1.50    0.76 
  -7  -4  -1  103.99   13.70 
  -7  -4  -1  112.43   19.11 
  -8  -4  -1   40.50    5.97 
  -8  -4  -1   36.74    8.76 
  -9  -4  -1   14.07    4.87 
  -9  -4  -1   12.91    2.75 
   5  -5  -1    3.62    7.23 
  -5   5   1   13.35    2.51 
   4  -5  -1   17.52    9.23 
  -4   5   1   10.29    2.10 
   3  -5  -1    1.92    4.78 
   3  -5  -1    0.97    1.19 
  -3   5   1    3.98    0.98 
   2  -5  -1    7.35    1.64 
   2  -5  -1    4.20    4.29 
  -2   5   1    3.09    0.85 
   1  -5  -1   12.82    5.67 
   1  -5  -1   21.24    2.94 
  -1   5   1   15.36    2.21 
   0  -5  -1    6.80    3.43 
   0  -5  -1    8.47    1.61 
   0   5   1    7.95    1.19 
  -1  -5  -1  101.09   18.03 
  -2  -5  -1  167.54   28.39 
  -3  -5  -1   50.98    9.56 
  -3  -5  -1   44.98    5.80 
  -4  -5  -1   40.12    5.30 
  -4  -5  -1   46.54    8.87 
  -5  -5  -1    3.46    0.90 
  -5  -5  -1    3.46    1.88 
  -6  -5  -1    8.75    3.42 
  -6  -5  -1    8.80    1.76 
  -7  -5  -1   58.36    7.13 
  -7  -5  -1   40.30   10.63 
  -8  -5  -1    0.58    1.75 
  -8  -5  -1    0.58    0.69 
  -9  -5  -1   13.34    2.78 
  -9  -5  -1   14.58    4.86 
   5  -6  -1    4.94    8.81 
   4  -6  -1   -0.39    5.72 
   3  -6  -1   24.66   11.61 
   2  -6  -1   79.90   19.78 
   1  -6  -1    6.47    1.49 
   1  -6  -1    0.85    3.37 
   0  -6  -1    1.14    0.67 
   0  -6  -1    0.40    2.29 
  -1  -6  -1   18.24    5.76 
  -2  -6  -1    1.14    1.49 
  -3  -6  -1  122.41   21.38 
  -4  -6  -1   60.47   12.33 
  -5  -6  -1    3.90    2.37 
  -6  -6  -1   19.59    3.15 
  -6  -6  -1   20.47    5.75 
  -7  -6  -1   34.39    4.79 
  -7  -6  -1   32.92    8.45 
  -8  -6  -1    5.40    1.58 
  -8  -6  -1   10.58    4.20 
  -9  -6  -1    4.44    3.31 
   4  -7  -1    4.15    9.14 
   3  -7  -1   20.25   10.65 
   2  -7  -1   29.69   11.15 
   1  -7  -1   26.37    9.55 
   0  -7  -1  108.50   24.29 
   0  -7  -1  121.82   14.86 
  -1  -7  -1   33.10    9.19 
  -2  -7  -1    0.98    1.68 
  -3  -7  -1   38.29    9.03 
  -4  -7  -1    3.22    2.28 
  -5  -7  -1   14.28    4.80 
  -6  -7  -1   34.68    8.74 
  -8  -7  -1   11.04    4.83 
  -9  -7  -1    6.88    3.98 
   2  -8  -1    6.11    8.38 
   1  -8  -1   15.06    8.13 
   0  -8  -1   10.42    6.15 
  -1  -8  -1   21.76    3.53 
  -1  -8  -1   22.34    8.10 
  -2  -8  -1   48.41   12.09 
  -3  -8  -1  107.18   21.65 
  -4  -8  -1    5.43    3.42 
  -5  -8  -1    3.20    2.86 
  -6  -8  -1    5.14    3.40 
  -7  -8  -1    8.00    4.44 
  -8  -8  -1   12.18    5.23 
   0  -9  -1   27.05   11.23 
  -1  -9  -1    9.84    5.86 
  -2  -9  -1   -1.52    2.53 
  -3  -9  -1   11.37    5.56 
  -4  -9  -1   21.61    7.39 
  -5  -9  -1   32.83    9.27 
  -6  -9  -1    7.95    4.48 
  -7  -9  -1    0.50    2.79 
  -6  -8   2   14.05    6.03 
  -5  -8   2   -1.45    2.67 
  -4  -8   2    8.50    4.73 
  -3  -8   2    7.86    4.88 
  -2  -8   2    5.54    4.95 
  -1  -8   2    5.59    5.52 
  -7  -7   2    8.97    4.11 
  -6  -7   2    3.44    2.92 
  -5  -7   2    3.24    3.15 
  -4  -7   2   47.84   11.55 
  -3  -7   2   24.01    7.80 
  -2  -7   2    5.06    4.10 
  -1  -7   2    9.47    5.88 
   0  -7   2    0.17    3.88 
   1  -7   2    5.57    6.86 
   2  -7   2    6.91    8.72 
  -8  -6   2    1.49    2.20 
  -7  -6   2    0.80    2.08 
  -6  -6   2   11.56    4.24 
  -5  -6   2   71.92   14.61 
  -4  -6   2    9.08    3.90 
  -3  -6   2   -0.03    1.75 
  -2  -6   2    9.69    4.56 
  -1  -6   2   58.42   14.14 
   0  -6   2   18.09    7.34 
   1  -6   2    3.49    5.67 
   2  -6   2   21.76   10.62 
   3  -6   2   10.90    9.17 
  -9  -5   2   -0.58    0.86 
  -9  -5   2   -1.22    1.98 
  -8  -5   2    2.87    1.18 
  -8  -5   2    0.73    1.88 
  -7  -5   2    4.98    2.64 
  -7  -5   2    3.73    1.37 
  -6  -5   2    9.64    3.45 
  -6  -5   2    8.11    2.00 
  -5  -5   2   28.49    6.75 
  -5  -5   2   28.64    4.56 
  -4  -5   2   15.06    2.81 
  -4  -5   2   17.10    4.74 
  -3  -5   2   32.97    7.95 
  -3  -5   2   34.42    5.45 
  -2  -5   2    0.01    0.97 
  -2  -5   2    0.08    1.74 
  -1  -5   2   16.87    5.35 
  -1  -5   2    6.12    1.97 
   0  -5   2   20.40    7.03 
   0  -5   2    8.59    2.34 
  -1   5  -2   86.62   10.65 
   1  -5   2   58.61   18.26 
  -2   5  -2   61.27    7.83 
   2  -5   2   41.49   14.94 
  -3   5  -2   12.48    2.44 
   3  -5   2    7.69    7.81 
  -4   5  -2    2.05    1.24 
   4  -5   2   -0.07    6.40 
  -9  -4   2   10.17    2.40 
  -9  -4   2    9.51    3.79 
  -8  -4   2   12.48    3.98 
  -8  -4   2    9.32    2.14 
  -7  -4   2   11.09    3.72 
  -7  -4   2   14.34    2.59 
  -6  -4   2   21.73    3.33 
  -6  -4   2   14.59    4.39 
  -5  -4   2   84.24   11.39 
  -5  -4   2   96.21   15.71 
  -4  -4   2   15.99    4.32 
  -4  -4   2   17.54    2.94 
  -3  -4   2   18.21    5.06 
  -3  -4   2   22.89    3.47 
  -2  -4   2    1.69    0.95 
  -2  -4   2    1.84    1.61 
  -1  -4   2  177.68   24.31 
  -1  -4   2  217.34   33.38 
   0  -4   2   40.06    6.76 
   0  -4   2   68.43   12.38 
   1  -4   2    1.96    1.24 
   1  -4   2    3.16    3.99 
  -2   4  -2    0.19    0.49 
   2  -4   2    1.06    3.89 
  -3   4  -2   16.54    2.84 
   3  -4   2    7.15    6.42 
  -4   4  -2   34.46    5.36 
   4  -4   2   35.17   14.77 
  -5   4  -2   13.66    2.87 
   5  -4   2   12.82    9.30 
  -9  -3   2    1.05    1.02 
  -9  -3   2   -0.61    1.76 
  -8  -3   2    2.62    1.91 
  -8  -3   2    2.18    1.06 
  -7  -3   2   42.52    6.14 
  -7  -3   2   49.41    9.34 
  -6  -3   2   37.87    5.17 
  -6  -3   2   36.17    7.75 
  -5  -3   2  116.02   19.27 
  -5  -3   2  110.58   14.29 
  -4  -3   2   24.54    5.55 
  -4  -3   2   27.99    3.77 
  -3  -3   2   30.13    4.34 
  -3  -3   2   37.43    6.83 
  -2  -3   2   52.40    6.91 
  -2  -3   2   51.32    9.54 
  -1  -3   2   88.54   11.39 
  -1  -3   2   85.06   15.62 
   0  -3   2  101.83   16.25 
   0  -3   2   77.88   11.13 
   1  -3   2  120.52   13.92 
   1  -3   2   82.58   22.15 
  -2   3  -2   88.65   10.82 
   2  -3   2   60.12   18.07 
  -3   3  -2    6.86    1.54 
   3  -3   2    4.05    5.86 
  -4   3  -2    8.86    1.93 
   4  -3   2    6.31    6.59 
  -5   3  -2   43.11    6.12 
   5  -3   2   18.33   12.87 
  -6   3  -2   36.94    6.04 
  -9  -2   2    7.48    3.40 
  -9  -2   2   11.70    2.52 
  -8  -2   2   15.67    3.29 
  -8  -2   2   28.04    5.63 
  -7  -2   2   14.41    3.84 
  -7  -2   2   14.12    2.68 
  -6  -2   2    0.17    0.50 
  -6  -2   2   -0.09    0.81 
  -5  -2   2   19.54    4.60 
  -5  -2   2   22.81    3.34 
  -4  -2   2  101.87   13.11 
  -4  -2   2  106.72   17.55 
  -3  -2   2   59.26    7.62 
  -3  -2   2   59.35   10.23 
  -2  -2   2   57.51   10.45 
  -2  -2   2   62.37    7.77 
  -1  -2   2  471.67   78.77 
  -1  -2   2  488.79   59.33 
   0  -2   2  363.41   48.27 
   0  -2   2  426.36   64.71 
   1  -2   2   50.35   11.72 
   2  -2   2    0.14    0.82 
   2  -2   2    3.76    4.24 
  -3   2  -2   -0.37    0.34 
   3  -2   2    1.68    4.74 
  -4   2  -2  345.12   42.12 
   4  -2   2  316.91   60.97 
  -5   2  -2   65.38    8.71 
  -6   2  -2    0.35    0.71 
  -7   2  -2    9.03    2.45 
  -9  -1   2    9.74    2.37 
  -8  -1   2   11.46    2.57 
  -7  -1   2   29.26    4.66 
  -6  -1   2   10.12    2.03 
  -5  -1   2    2.01    0.79 
  -5  -1   2    1.71    1.02 
  -4  -1   2   12.42    2.08 
  -4  -1   2   11.26    2.70 
  -3  -1   2   18.54    3.26 
  -3  -1   2   12.54    2.23 
  -2  -1   2  362.94   59.23 
  -2  -1   2  364.80   44.78 
  -1  -1   2   35.48    6.54 
  -1  -1   2   36.94    4.84 
   0  -1   2   21.31    4.99 
   0  -1   2   16.12    2.99 
   1  -1   2  104.12   13.38 
   2  -1   2    4.72    1.55 
   2  -1   2   14.99    6.12 
  -3   1  -2    5.67    1.22 
   3  -1   2   -3.83    3.66 
  -4   1  -2  104.21   13.28 
  -5   1  -2   35.42    4.97 
  -6   1  -2   85.90   11.31 
  -7   1  -2   17.42    3.64 
  -8   1  -2    2.25    1.42 
  -9   0   2    1.09    0.98 
  -8   0   2   21.32    3.76 
  -7   0   2   25.36    4.14 
  -6   0   2    5.04    1.32 
  -5   0   2   10.80    1.98 
  -4   0   2   26.17    3.60 
  -3   0   2   92.17   11.58 
   2   0  -2  312.73   41.55 
  -2   0   2  357.72   42.26 
  -2   0   2  348.94   55.78 
   1   0  -2  556.11   66.25 
  -1   0   2  551.10   67.94 
  -1   0   2  553.82   89.73 
   0   0  -2   95.70   11.01 
   0   0   2   81.49   11.47 
   0   0   2   93.72   15.83 
  -1   0  -2   58.07    7.07 
   1   0   2   70.67   13.42 
   2   0   2   84.53   13.68 
   2   0   2   33.57    5.61 
  -3   0  -2   90.21   11.41 
  -4   0  -2   93.49   11.92 
  -5   0  -2   93.54   12.04 
  -6   0  -2   -0.17    0.59 
  -7   0  -2    3.17    1.34 
  -8   0  -2    4.29    1.81 
  -8   1   2   11.73    2.57 
  -7   1   2    1.66    1.02 
  -6   1   2   47.94    6.49 
  -5   1   2   23.35    3.58 
  -4   1   2   14.55    2.35 
   3  -1  -2  375.98   48.17 
  -3   1   2  410.45   48.89 
   2  -1  -2  347.69   41.92 
  -2   1   2  346.39   42.62 
   1  -1  -2   54.09    7.03 
  -1   1   2   56.28    6.99 
   0  -1  -2  145.36   17.02 
   0   1   2  137.25   17.62 
   1   1   2    1.61    0.82 
   2   1   2   69.83    9.10 
  -3  -1  -2  250.27   30.93 
  -4  -1  -2    7.23    1.52 
  -5  -1  -2   59.48    7.82 
  -6  -1  -2    8.44    1.89 
  -7  -1  -2   42.57    6.47 
  -8  -1  -2    0.73    0.94 
  -9  -1  -2    7.39    2.21 
  -8   2   2   16.37    3.25 
  -7   2   2   13.64    2.81 
  -6   2   2   53.88    7.23 
  -5   2   2   -0.22    0.40 
   4  -2  -2   15.06    3.53 
  -4   2   2   17.26    2.69 
   3  -2  -2  213.23   40.25 
   3  -2  -2  222.15   28.77 
  -3   2   2  249.00   29.00 
   2  -2  -2  225.36   27.13 
   2  -2  -2  218.60   37.80 
  -2   2   2  222.90   27.47 
   1  -2  -2  412.14   47.77 
   1  -2  -2  402.84   65.39 
  -1   2   2  386.71   48.93 
   0  -2  -2    2.48    1.04 
   0  -2  -2    2.88    0.77 
   0   2   2    3.40    0.75 
   1   2   2  399.44   49.13 
  -2  -2  -2  727.55   89.15 
  -3  -2  -2  277.24   34.19 
  -4  -2  -2  110.41   13.89 
  -5  -2  -2   42.59    5.72 
  -6  -2  -2   34.37    5.28 
  -7  -2  -2   43.15    6.59 
  -8  -2  -2    7.24    1.92 
  -7   3   2   26.96    4.53 
  -6   3   2   55.10    7.41 
   5  -3  -2   12.29    3.29 
  -5   3   2   14.29    2.52 
   4  -3  -2   12.77    6.28 
   4  -3  -2    5.79    2.24 
  -4   3   2    7.26    1.48 
   3  -3  -2   16.19    3.47 
   3  -3  -2   16.90    6.90 
  -3   3   2   21.42    2.80 
   2  -3  -2   28.58    4.63 
   2  -3  -2   38.41    8.87 
  -2   3   2   32.06    4.12 
   1  -3  -2   49.10    9.89 
   1  -3  -2   50.78    6.20 
  -1   3   2   47.11    6.06 
   0  -3  -2    0.01    0.33 
   0  -3  -2   -0.21    0.75 
   0   3   2    0.26    0.26 
   1   3   2  112.06   13.86 
  -2  -3  -2   99.94   18.08 
  -2  -3  -2  112.41   13.36 
  -3  -3  -2  584.91   93.75 
  -3  -3  -2  566.71   70.45 
  -4  -3  -2   54.28    7.00 
  -5  -3  -2    1.77    0.75 
  -6  -3  -2   53.79    7.21 
  -7  -3  -2   47.58    6.56 
  -8  -3  -2   29.74    4.90 
  -9  -3  -2   12.81    2.97 
  -7   4   2    2.22    1.36 
  -6   4   2    0.21    0.73 
   5  -4  -2   12.84    4.04 
   5  -4  -2   16.49    9.13 
  -5   4   2   28.50    3.72 
   4  -4  -2   10.01    6.67 
   4  -4  -2   16.88    3.52 
  -4   4   2   15.48    2.56 
   3  -4  -2   59.88    8.35 
   3  -4  -2   70.95   15.77 
  -3   4   2   62.29    7.95 
   2  -4  -2   47.68   10.82 
   2  -4  -2   39.29    5.58 
  -2   4   2   36.34    4.83 
   1  -4  -2   34.14    8.41 
   1  -4  -2   39.03    4.76 
  -1   4   2   34.06    4.48 
   0  -4  -2    1.02    1.36 
   0  -4  -2   -0.12    0.33 
   0   4   2    0.47    0.22 
  -1  -4  -2   29.35    6.24 
  -2  -4  -2   27.89    3.54 
  -2  -4  -2   31.75    6.01 
  -3  -4  -2  202.47   32.54 
  -3  -4  -2  191.30   24.02 
  -4  -4  -2    0.09    0.72 
  -4  -4  -2    0.97    0.45 
  -5  -4  -2    1.57    0.62 
  -5  -4  -2    1.10    1.29 
  -6  -4  -2   54.22    6.68 
  -6  -4  -2   39.61    9.97 
  -7  -4  -2   28.40    7.21 
  -7  -4  -2   28.92    4.51 
  -8  -4  -2   20.52    6.11 
  -8  -4  -2   20.94    3.73 
  -9  -4  -2    3.75    1.52 
  -9  -4  -2    5.93    3.49 
   5  -5  -2    0.07    5.73 
  -5   5   2    3.02    1.18 
   4  -5  -2   -3.68    3.92 
   4  -5  -2   -0.50    1.41 
  -4   5   2    0.97    0.64 
   3  -5  -2   29.29    5.12 
   3  -5  -2   20.90    9.24 
  -3   5   2   32.28    4.18 
   2  -5  -2   55.80   13.92 
   2  -5  -2   53.13    7.02 
  -2   5   2   51.18    6.63 
   1  -5  -2  157.99   17.69 
   1  -5  -2  141.61   25.88 
  -1   5   2  136.92   17.71 
   0  -5  -2   85.70   17.52 
   0  -5  -2   98.54   12.00 
   0   5   2   98.24   11.94 
  -1  -5  -2   20.34    5.15 
  -2  -5  -2   37.36    7.87 
  -3  -5  -2   34.28    4.28 
  -3  -5  -2   30.50    7.02 
  -4  -5  -2   12.11    3.54 
  -4  -5  -2   11.67    1.84 
  -5  -5  -2    0.60    0.44 
  -5  -5  -2    0.30    1.29 
  -6  -5  -2   54.98   11.38 
  -6  -5  -2   53.78    7.10 
  -7  -5  -2    9.83    2.05 
  -7  -5  -2   11.80    3.98 
  -8  -5  -2   27.49    7.42 
  -8  -5  -2   27.53    4.43 
  -9  -5  -2    2.71    2.37 
  -9  -5  -2    5.16    1.60 
   5  -6  -2   27.74   13.00 
   4  -6  -2   52.97   16.74 
   3  -6  -2   19.60    9.81 
   3  -6  -2   20.99    4.10 
   2  -6  -2    0.21    0.87 
   2  -6  -2   -0.72    3.56 
   1  -6  -2   17.23    6.18 
   1  -6  -2   12.77    2.57 
   0  -6  -2  125.64   24.01 
   0  -6  -2  119.41   14.88 
  -1  -6  -2   32.04    7.95 
  -2  -6  -2  104.36   18.49 
  -3  -6  -2  174.24   29.69 
  -4  -6  -2   55.57   11.21 
  -5  -6  -2   12.36    3.99 
  -6  -6  -2   34.61    7.72 
  -6  -6  -2   25.99    4.01 
  -7  -6  -2    2.43    2.30 
  -7  -6  -2    2.72    1.00 
  -8  -6  -2   46.71    6.41 
  -8  -6  -2   44.45   10.74 
  -9  -6  -2    1.64    1.24 
  -9  -6  -2    4.72    3.29 
   4  -7  -2   26.63   13.15 
   3  -7  -2   15.94   10.40 
   2  -7  -2   39.70   13.55 
   1  -7  -2   24.56    4.06 
   1  -7  -2   18.78    8.58 
   0  -7  -2   15.06    6.28 
   0  -7  -2   10.00    2.18 
  -1  -7  -2    4.74    1.27 
  -1  -7  -2    2.60    2.44 
  -2  -7  -2   75.86   15.59 
  -3  -7  -2   22.47    6.12 
  -4  -7  -2   48.11   10.65 
  -5  -7  -2   84.76   16.87 
  -6  -7  -2   13.48    4.73 
  -7  -7  -2   10.64    4.50 
  -8  -7  -2   12.52    4.95 
  -9  -7  -2    4.11    3.48 
   3  -8  -2    0.21    7.16 
   2  -8  -2   -0.90    6.19 
   1  -8  -2    8.87    7.32 
   0  -8  -2   29.40   11.32 
   0  -8  -2   49.29    6.57 
  -1  -8  -2   25.39    9.50 
  -1  -8  -2   39.72    5.38 
  -2  -8  -2   21.22    7.26 
  -3  -8  -2    7.25    4.04 
  -4  -8  -2   18.48    5.83 
  -5  -8  -2   22.48    6.96 
  -6  -8  -2    6.74    4.08 
  -7  -8  -2   16.58    5.88 
  -8  -8  -2   16.85    6.13 
   1  -9  -2    9.06    7.32 
   0  -9  -2    1.10    4.70 
  -1  -9  -2   27.85    4.67 
  -1  -9  -2   36.06   10.62 
  -2  -9  -2   30.55    4.68 
  -2  -9  -2   26.03    9.03 
  -3  -9  -2   13.41    5.61 
  -4  -9  -2    3.71    3.07 
  -5  -9  -2    0.53    2.31 
  -6  -9  -2    1.63    2.98 
  -7  -9  -2    7.26    4.80 
  -2 -10  -2    3.89    4.11 
  -3 -10  -2    2.13    3.87 
  -4 -10  -2    2.20    3.71 
  -5 -10  -2   57.52   14.53 
  -6  -7   3    9.43    4.80 
  -5  -7   3   51.16   12.26 
  -4  -7   3    7.60    4.23 
  -3  -7   3    0.22    3.06 
  -2  -7   3    7.98    5.23 
  -1  -7   3   -0.17    3.56 
   0  -7   3    5.62    6.34 
  -8  -6   3    5.45    3.29 
  -7  -6   3    2.28    2.68 
  -6  -6   3    9.70    4.12 
  -5  -6   3    4.48    2.92 
  -4  -6   3    3.14    2.93 
  -3  -6   3   18.28    6.28 
  -2  -6   3   19.21    7.09 
  -1  -6   3   -1.25    2.75 
   0  -6   3   15.10    7.29 
   1  -6   3    0.98    5.51 
   2  -6   3    4.06    6.87 
  -8  -5   3    6.23    3.37 
  -8  -5   3    4.78    1.68 
  -7  -5   3    1.24    2.13 
  -7  -5   3    0.72    0.87 
  -6  -5   3   39.99    7.79 
  -6  -5   3   24.98    4.65 
  -5  -5   3   32.74    7.81 
  -5  -5   3   33.13    5.30 
  -4  -5   3   11.35    2.52 
  -4  -5   3    9.38    3.85 
  -3  -5   3    7.95    3.45 
  -3  -5   3    6.03    1.96 
  -2  -5   3    1.03    1.28 
  -2  -5   3    3.04    3.15 
  -1  -5   3   66.81   10.29 
  -1  -5   3   75.04   15.98 
   0  -5   3   55.48    9.21 
   0  -5   3   83.64   16.47 
   1  -5   3   19.62    8.44 
  -2   5  -3    0.46    0.81 
   2  -5   3   -2.33    4.15 
  -3   5  -3    0.16    0.94 
   3  -5   3    2.22    6.71 
   4  -5   3    5.60    9.10 
  -9  -4   3    7.54    2.12 
  -8  -4   3    7.40    2.03 
  -7  -4   3   14.22    2.77 
  -7  -4   3   12.92    4.07 
  -6  -4   3   51.09    8.33 
  -6  -4   3   26.29    5.01 
  -5  -4   3    0.24    0.61 
  -5  -4   3    1.15    1.41 
  -4  -4   3   28.64    6.31 
  -4  -4   3   21.72    3.86 
  -3  -4   3   12.69    4.11 
  -3  -4   3   11.40    2.49 
  -2  -4   3   80.71   11.07 
  -2  -4   3   86.64   16.52 
  -1  -4   3   15.56    3.49 
  -1  -4   3   16.08    5.52 
   0  -4   3    9.27    4.69 
   0  -4   3    4.37    1.72 
   1  -4   3   69.60   14.34 
   1  -4   3   33.25    6.17 
  -2   4  -3   13.08    2.19 
   2  -4   3    4.97    2.06 
   2  -4   3   16.97    8.40 
  -3   4  -3   30.36    4.77 
   3  -4   3   25.70   12.34 
  -4   4  -3   48.48    6.96 
   4  -4   3   29.10   15.04 
  -5   4  -3   20.39    3.91 
   5  -4   3   11.19   11.45 
  -9  -3   3    2.91    1.41 
  -8  -3   3   24.82    4.28 
  -7  -3   3    9.81    3.39 
  -7  -3   3   14.53    2.58 
  -6  -3   3    3.58    1.81 
  -6  -3   3    6.58    1.60 
  -5  -3   3   33.16    5.39 
  -5  -3   3   42.54    7.73 
  -4  -3   3   44.66    8.68 
  -4  -3   3   42.94    5.92 
  -3  -3   3   16.80    3.05 
  -3  -3   3   18.77    4.57 
  -2  -3   3   48.89    6.44 
  -2  -3   3   40.06    9.38 
  -1  -3   3   35.24    8.38 
  -1  -3   3   35.83    5.79 
   0  -3   3  176.22   29.29 
   0  -3   3  156.61   21.04 
   1  -3   3   18.63    3.91 
   1  -3   3   29.43    8.95 
   2  -3   3   22.09    4.62 
   2  -3   3   52.00   12.60 
  -3   3  -3   55.51    6.96 
   3  -3   3   25.69   13.23 
  -4   3  -3   95.91   11.89 
   4  -3   3   55.67   21.59 
  -5   3  -3   83.64   10.76 
   5  -3   3   56.23   21.41 
  -6   3  -3   33.06    5.61 
  -9  -2   3   -0.18    0.99 
  -8  -2   3   11.46    2.46 
  -7  -2   3    2.69    1.55 
  -7  -2   3    1.68    0.83 
  -6  -2   3    7.76    2.60 
  -6  -2   3   10.11    1.95 
  -5  -2   3    5.93    1.97 
  -5  -2   3    4.66    1.25 
  -4  -2   3    0.47    0.78 
  -4  -2   3    1.70    0.69 
  -3  -2   3  250.60   30.75 
  -3  -2   3  243.84   40.75 
  -2  -2   3   61.40    8.20 
  -2  -2   3   63.31   11.09 
  -1  -2   3   21.57    3.80 
  -1  -2   3   22.42    5.56 
   0  -2   3   17.15    3.48 
   0  -2   3   15.10    5.14 
   1  -2   3    2.94    1.37 
   1  -2   3    5.33    4.06 
   2  -2   3   13.28    3.15 
   2  -2   3   19.92    8.10 
  -3   2  -3   81.66   10.41 
   3  -2   3   68.42   20.12 
  -4   2  -3   -0.36    0.49 
   4  -2   3   -0.77    5.40 
  -5   2  -3   12.77    2.78 
  -6   2  -3   14.21    3.10 
  -7   2  -3    3.91    1.79 
  -9  -1   3    1.85    1.17 
  -8  -1   3    1.34    1.00 
  -7  -1   3   16.15    3.72 
  -7  -1   3   10.16    2.30 
  -6  -1   3   28.08    5.37 
  -6  -1   3   21.13    3.71 
  -5  -1   3    0.33    0.78 
  -5  -1   3   -0.03    0.40 
  -4  -1   3   10.97    2.74 
  -4  -1   3   13.99    2.28 
  -3  -1   3  218.49   35.99 
  -3  -1   3  220.66   27.27 
  -2  -1   3    7.10    1.91 
  -2  -1   3    5.72    1.35 
  -1  -1   3   43.41    8.21 
  -1  -1   3   45.49    6.10 
   0  -1   3   31.60    5.28 
   0  -1   3   37.51    8.22 
   1  -1   3   92.97   15.59 
   1  -1   3   52.99    8.04 
   2  -1   3   13.27    7.14 
   2  -1   3    9.14    2.41 
  -3   1  -3   18.17    3.03 
   3  -1   3   19.93    9.43 
  -4   1  -3   63.13    8.36 
  -5   1  -3   44.90    6.22 
  -6   1  -3   -0.46    0.54 
  -7   1  -3   12.94    3.02 
  -9   0   3   12.77    2.89 
  -8   0   3    3.83    1.54 
  -7   0   3   52.56    7.20 
  -6   0   3   20.41    3.40 
  -5   0   3    9.78    1.97 
  -4   0   3   46.09    7.96 
  -4   0   3   46.39    6.11 
  -3   0   3  209.23   25.95 
  -3   0   3  209.31   34.15 
   2   0  -3  127.30   17.71 
  -2   0   3  153.34   17.68 
  -2   0   3  137.98   23.10 
   1   0  -3   46.01    6.40 
  -1   0   3   48.66    8.46 
  -1   0   3   47.95    6.31 
   0   0  -3    1.14    0.68 
   0   0   3    0.33    2.12 
   0   0   3    2.23    0.95 
  -1   0  -3   42.66    5.24 
   1   0   3   38.91    6.41 
   1   0   3   52.38   11.83 
  -2   0  -3  388.73   45.54 
   2   0   3  359.23   65.79 
   3   0   3   87.95   11.75 
  -4   0  -3   32.77    4.92 
  -5   0  -3    2.48    1.01 
  -6   0  -3   47.00    6.57 
  -7   0  -3   16.35    3.38 
  -8   0  -3   21.33    4.33 
  -8   1   3    0.50    0.93 
  -7   1   3   53.80    7.36 
  -6   1   3   52.44    7.07 
  -5   1   3   39.80    5.40 
   4  -1  -3   18.47    4.53 
  -4   1   3   26.91    3.75 
   3  -1  -3  138.76   17.13 
  -3   1   3  131.05   16.63 
   2  -1  -3  243.79   29.11 
  -2   1   3  233.86   29.33 
   1  -1  -3  212.49   24.18 
  -1   1   3  188.56   24.61 
   0  -1  -3  159.08   19.01 
   0   1   3  154.37   19.81 
  -1  -1  -3   36.64    4.19 
   1   1   3   22.96    4.89 
   2   1   3  216.95   27.28 
   3   1   3   31.59    5.26 
  -4  -1  -3   48.84    6.49 
  -5  -1  -3   69.14    9.08 
  -6  -1  -3   64.42    8.64 
  -7  -1  -3   18.70    3.53 
  -8  -1  -3   36.91    6.21 
  -8   2   3   -0.22    0.70 
  -7   2   3    8.93    2.08 
  -6   2   3    1.13    0.81 
  -5   2   3    0.46    0.50 
   4  -2  -3   33.51    7.49 
  -4   2   3   56.27    6.66 
   3  -2  -3   49.69    8.06 
  -3   2   3   56.60    7.11 
   2  -2  -3  116.72   21.68 
   2  -2  -3  141.51   16.04 
  -2   2   3  126.79   15.88 
   1  -2  -3  100.25   16.16 
   1  -2  -3   99.73   12.00 
  -1   2   3   91.56   12.07 
   0  -2  -3    1.75    0.60 
   0  -2  -3    1.02    0.54 
   0   2   3    1.00    0.69 
  -1  -2  -3   39.99    4.80 
   1   2   3   32.80    5.53 
   2   2   3  231.46   28.94 
  -3  -2  -3   82.69   10.46 
  -4  -2  -3   42.14    5.63 
  -5  -2  -3    5.49    1.37 
  -6  -2  -3   30.60    4.75 
  -7  -2  -3   57.00    7.88 
  -8  -2  -3   33.66    5.55 
  -9  -2  -3   14.13    3.24 
  -7   3   3    1.01    0.89 
  -6   3   3    0.93    0.83 
   5  -3  -3    1.14    2.00 
  -5   3   3    7.06    1.47 
   4  -3  -3    2.54    1.97 
  -4   3   3    4.89    1.15 
   3  -3  -3   19.90    3.70 
   3  -3  -3   12.02    5.59 
  -3   3   3   18.35    2.76 
   2  -3  -3  119.56   20.13 
   2  -3  -3  101.63   13.98 
  -2   3   3  114.90   13.95 
   1  -3  -3   96.07   16.14 
   1  -3  -3   91.89   11.58 
  -1   3   3   92.16   11.62 
   0  -3  -3   31.96    5.46 
   0  -3  -3   28.50    3.91 
   0   3   3   28.86    3.97 
  -1  -3  -3    8.17    1.85 
   1   3   3    4.13    1.25 
   2   3   3   14.13    2.53 
  -3  -3  -3  159.53   19.81 
  -4  -3  -3   14.06    2.35 
  -5  -3  -3   10.46    2.00 
  -6  -3  -3   25.35    4.04 
  -7  -3  -3    5.56    1.64 
  -8  -3  -3   13.24    2.84 
  -9  -3  -3    2.26    1.30 
  -7   4   3    2.56    1.17 
  -6   4   3   28.22    4.47 
   5  -4  -3   17.72    4.45 
  -5   4   3   22.93    3.46 
   4  -4  -3   31.57   10.08 
   4  -4  -3   28.97    5.27 
  -4   4   3   25.43    3.92 
   3  -4  -3   37.24    9.92 
   3  -4  -3   33.62    5.31 
  -3   4   3   29.93    4.15 
   2  -4  -3   39.87    9.76 
   2  -4  -3   42.07    6.06 
  -2   4   3   38.70    5.10 
   1  -4  -3    0.30    1.46 
   1  -4  -3    0.68    0.60 
  -1   4   3    0.63    0.38 
   0  -4  -3   39.45    5.59 
   0  -4  -3   37.70    8.49 
   0   4   3   48.18    5.61 
  -1  -4  -3   11.06    2.53 
   1   4   3    6.06    1.31 
  -2  -4  -3  271.90   47.03 
  -2  -4  -3  294.88   35.12 
  -3  -4  -3  115.64   18.54 
  -3  -4  -3  104.76   13.46 
  -4  -4  -3    0.28    0.34 
  -4  -4  -3    1.02    1.05 
  -5  -4  -3   89.93   11.53 
  -5  -4  -3   91.40   16.15 
  -6  -4  -3    5.62    1.49 
  -7  -4  -3   60.59    8.18 
  -8  -4  -3   31.74    5.07 
  -9  -4  -3   -0.51    0.84 
   5  -5  -3   13.29    4.01 
   5  -5  -3   -0.24    6.05 
  -5   5   3   23.08    3.10 
   4  -5  -3  117.19   26.95 
   4  -5  -3  101.07   15.79 
  -4   5   3  132.04   15.41 
   3  -5  -3   51.78    8.56 
   3  -5  -3   48.22   14.11 
  -3   5   3   61.34    7.54 
   2  -5  -3   22.82    7.51 
   2  -5  -3   16.51    3.33 
  -2   5   3   20.41    2.74 
   1  -5  -3  166.16   20.39 
   1  -5  -3  160.84   29.12 
  -1   5   3  167.30   20.51 
   0  -5  -3   78.03   10.07 
   0  -5  -3   81.92   14.80 
   0   5   3   81.21   10.03 
  -1  -5  -3   19.77    4.89 
  -2  -5  -3   75.06    8.85 
  -2  -5  -3   59.32   12.51 
  -3  -5  -3   73.20   13.44 
  -3  -5  -3   77.08    9.50 
  -4  -5  -3  207.72   35.74 
  -4  -5  -3  215.14   26.30 
  -5  -5  -3  100.19   12.55 
  -5  -5  -3   96.82   17.59 
  -6  -5  -3    1.60    0.72 
  -6  -5  -3    1.46    1.50 
  -7  -5  -3   85.60   10.63 
  -7  -5  -3   69.33   15.88 
  -8  -5  -3   20.37    3.77 
  -8  -5  -3   27.21    7.01 
  -9  -5  -3   10.04    2.46 
  -9  -5  -3   11.14    4.52 
   5  -6  -3    1.18    7.39 
   4  -6  -3    9.31    3.20 
   4  -6  -3   13.86    8.54 
   3  -6  -3   -0.73    3.43 
   3  -6  -3    1.68    1.54 
   2  -6  -3   28.12    9.48 
   2  -6  -3   31.83    5.20 
   1  -6  -3   65.79   15.67 
   1  -6  -3   72.65    9.27 
   0  -6  -3   12.94    4.78 
   0  -6  -3   12.67    2.38 
  -1  -6  -3  251.40   44.96 
  -1  -6  -3  277.68   32.33 
  -2  -6  -3   63.39   11.72 
  -3  -6  -3   26.69    6.29 
  -4  -6  -3   21.62    5.54 
  -5  -6  -3   16.77    2.61 
  -5  -6  -3   13.83    4.68 
  -6  -6  -3   31.60    7.63 
  -6  -6  -3   29.22    4.12 
  -7  -6  -3   54.23   12.06 
  -7  -6  -3   56.03    7.43 
  -8  -6  -3    7.12    1.79 
  -8  -6  -3    4.63    3.24 
  -9  -6  -3    6.56    3.78 
  -9  -6  -3    9.99    2.41 
   4  -7  -3   21.65   10.70 
   3  -7  -3    3.69    6.02 
   3  -7  -3    1.82    1.77 
   2  -7  -3    2.31    1.63 
   2  -7  -3    3.16    5.29 
   1  -7  -3    1.78    1.03 
   1  -7  -3   -0.48    3.46 
   0  -7  -3   31.27    9.16 
   0  -7  -3   30.40    4.76 
  -1  -7  -3  184.87   21.89 
  -1  -7  -3  166.39   31.23 
  -2  -7  -3    1.02    1.58 
  -3  -7  -3   20.26    5.72 
  -4  -7  -3   56.09   12.05 
  -5  -7  -3   20.99    6.04 
  -6  -7  -3    1.63    1.81 
  -7  -7  -3    3.81    2.73 
  -8  -7  -3   17.19    5.82 
   3  -8  -3    4.28    7.54 
   2  -8  -3    3.89    6.67 
   1  -8  -3    9.19    6.16 
   1  -8  -3    8.72    2.35 
   0  -8  -3    5.95    4.43 
   0  -8  -3   13.38    2.56 
  -1  -8  -3   18.24    6.88 
  -1  -8  -3   23.04    3.72 
  -2  -8  -3    5.91    3.36 
  -3  -8  -3   11.45    4.51 
  -4  -8  -3    8.63    3.70 
  -5  -8  -3    8.28    3.84 
  -6  -8  -3   55.02   12.66 
  -7  -8  -3   24.17    7.29 
  -8  -8  -3    1.88    2.87 
   1  -9  -3    2.58    6.24 
   0  -9  -3   46.68    6.69 
   0  -9  -3   34.75   11.97 
  -1  -9  -3   46.87    6.98 
  -1  -9  -3   51.47   13.20 
  -2  -9  -3    8.03    4.36 
  -2  -9  -3    9.12    2.16 
  -3  -9  -3   -0.33    1.91 
  -4  -9  -3    7.41    3.97 
  -5  -9  -3   21.73    7.01 
  -6  -9  -3   37.35   10.25 
  -7  -9  -3    1.16    2.82 
  -1 -10  -3    4.33    4.90 
  -1 -10  -3    5.08    1.81 
  -2 -10  -3   15.22    3.09 
  -2 -10  -3   11.64    6.53 
  -3 -10  -3   10.80    5.78 
  -4 -10  -3   17.94    7.30 
  -5 -10  -3    5.19    4.00 
  -5  -7   4    0.36    3.45 
  -3  -7   4    1.40    3.79 
  -2  -7   4   -1.97    3.91 
  -6  -6   4   -0.01    2.43 
  -5  -6   4   31.12    8.49 
  -4  -6   4   12.83    5.19 
  -3  -6   4    1.69    3.24 
  -2  -6   4    0.13    3.48 
  -1  -6   4    8.47    6.46 
   0  -6   4    8.70    6.49 
   1  -6   4    5.58    6.72 
  -8  -5   4    4.09    1.76 
  -7  -5   4   10.13    2.54 
  -6  -5   4    2.49    1.31 
  -6  -5   4    6.48    3.16 
  -5  -5   4    5.10    1.92 
  -5  -5   4    5.27    2.97 
  -4  -5   4    0.16    2.05 
  -4  -5   4    0.40    1.18 
  -3  -5   4   39.90   10.19 
  -3  -5   4   47.57    7.40 
  -2  -5   4   34.71    9.21 
  -2  -5   4   30.25    5.94 
  -1  -5   4   16.52    6.56 
  -1  -5   4   12.32    3.44 
   0  -5   4   19.40    7.90 
   1  -5   4   -0.88    1.26 
   1  -5   4   -1.35    4.52 
  -2   5  -4    1.79    1.22 
   2  -5   4   -0.79    5.76 
   3  -5   4   -0.08    7.48 
  -8  -4   4    6.10    1.91 
  -7  -4   4    8.60    2.22 
  -6  -4   4    1.18    0.96 
  -6  -4   4    1.10    1.92 
  -5  -4   4    2.17    2.22 
  -5  -4   4    1.52    0.99 
  -4  -4   4   23.42    6.15 
  -4  -4   4   24.81    4.38 
  -3  -4   4   26.00    4.51 
  -3  -4   4   22.65    6.42 
  -2  -4   4    0.42    2.04 
  -2  -4   4    3.36    1.61 
  -1  -4   4   57.76   11.45 
  -1  -4   4   25.73    5.65 
   0  -4   4   74.93   15.73 
   0  -4   4   54.76    9.16 
   1  -4   4   10.40    2.98 
   1  -4   4   12.53    6.42 
   2  -4   4    7.40    7.14 
   2  -4   4    4.17    2.04 
  -3   4  -4   13.34    2.73 
   3  -4   4    5.55    7.94 
  -4   4  -4   24.45    4.20 
   4  -4   4    7.88    9.14 
  -8  -3   4   -0.13    0.78 
  -7  -3   4   23.24    4.07 
  -6  -3   4    5.92    1.69 
  -5  -3   4    0.53    0.71 
  -5  -3   4    0.94    1.30 
  -4  -3   4   10.92    3.35 
  -4  -3   4   10.60    2.33 
  -3  -3   4   21.11    3.62 
  -3  -3   4   17.81    5.00 
  -2  -3   4   19.38    6.10 
  -2  -3   4   32.44    4.93 
  -1  -3   4    5.58    2.05 
  -1  -3   4    6.43    3.51 
   0  -3   4    1.95    1.50 
   0  -3   4    1.85    3.12 
   1  -3   4   -2.41    2.91 
   1  -3   4    0.20    0.98 
   2  -3   4   42.49    7.98 
   2  -3   4  101.02   19.03 
  -3   3  -4   52.13    6.79 
   3  -3   4   26.92   13.56 
  -4   3  -4   26.09    4.38 
   4  -3   4   16.26   10.63 
  -5   3  -4   24.49    4.45 
  -9  -2   4   -0.54    0.86 
  -8  -2   4    3.72    1.45 
  -7  -2   4   10.76    2.37 
  -6  -2   4    7.38    1.81 
  -5  -2   4    1.83    1.30 
  -5  -2   4    3.53    1.22 
  -4  -2   4   79.85    9.72 
  -4  -2   4   67.90   12.75 
  -3  -2   4   73.23    9.48 
  -3  -2   4   70.21   12.66 
  -2  -2   4   19.71    5.26 
  -2  -2   4   22.39    3.89 
  -1  -2   4    1.69    1.17 
  -1  -2   4    0.92    2.03 
   0  -2   4   10.01    2.85 
   0  -2   4   12.73    5.12 
   1  -2   4    0.33    1.25 
   1  -2   4    2.27    3.66 
   2  -2   4   43.92   12.66 
   2  -2   4   27.65    5.48 
   3  -2   4    1.77    5.73 
   3  -2   4    0.09    1.12 
  -4   2  -4   28.04    4.45 
   4  -2   4   10.80   10.29 
  -5   2  -4   63.08    8.70 
  -6   2  -4    1.34    1.27 
  -8  -1   4   15.06    2.99 
  -7  -1   4   29.81    4.80 
  -6  -1   4   20.46    3.49 
  -5  -1   4    0.95    0.84 
  -5  -1   4    0.29    0.68 
  -4  -1   4   47.31    6.81 
  -4  -1   4   54.44    8.93 
  -3  -1   4   35.32    6.52 
  -3  -1   4   36.86    5.01 
  -2  -1   4  198.78   34.01 
  -2  -1   4  210.92   25.72 
  -1  -1   4  180.78   23.15 
  -1  -1   4  183.14   30.97 
   0  -1   4   -1.29    2.24 
   0  -1   4    5.23    1.86 
   1  -1   4   61.68   10.49 
   1  -1   4  104.53   18.97 
   2  -1   4  114.02   21.74 
   2  -1   4   74.13   11.88 
   3  -1   4    7.82    2.45 
   3  -1   4   16.98    8.67 
  -4   1  -4   16.65    3.04 
  -5   1  -4    1.38    1.08 
  -6   1  -4    3.58    1.47 
  -7   1  -4   54.96    8.56 
  -8   0   4    4.24    1.65 
  -7   0   4   14.87    2.94 
  -6   0   4   18.16    3.16 
  -5   0   4   31.69    4.76 
  -4   0   4   33.32    4.89 
  -4   0   4   37.19    6.22 
  -3   0   4    0.41    0.52 
  -3   0   4    2.57    0.82 
   2   0  -4  210.39   26.80 
  -2   0   4  216.57   26.97 
  -2   0   4  218.71   35.48 
   1   0  -4   22.20    4.82 
  -1   0   4   52.81    8.30 
  -1   0   4   37.92    5.29 
   0   0  -4   12.47    2.35 
   0   0   4   16.29    5.47 
   0   0   4   11.73    2.75 
  -1   0  -4  462.61   57.16 
   1   0   4  537.23   81.51 
  -2   0  -4  153.86   18.49 
   2   0   4  165.05   32.63 
   3   0   4   65.70    9.98 
  -4   0  -4   10.64    2.18 
  -5   0  -4   27.89    4.63 
  -6   0  -4   26.56    4.63 
  -7   0  -4   16.56    3.41 
  -8   1   4   19.16    3.62 
  -7   1   4    3.73    1.35 
  -6   1   4    0.62    0.71 
  -5   1   4   13.90    2.57 
   4  -1  -4    1.45    1.82 
  -4   1   4    0.00    0.45 
  -4   1   4    0.07    0.48 
   3  -1  -4   85.75   11.99 
  -3   1   4   79.91   10.42 
  -3   1   4   81.68   13.35 
   2  -1  -4  160.06   20.48 
  -2   1   4  165.69   20.49 
   1  -1  -4    0.54    0.75 
  -1   1   4    1.81    0.83 
   0  -1  -4    4.80    1.18 
   0   1   4    4.08    1.56 
  -1  -1  -4    0.41    0.30 
   1   1   4   -0.15    0.83 
  -2  -1  -4   46.83    5.78 
   3   1   4   80.34   10.97 
  -4  -1  -4   18.98    3.19 
  -5  -1  -4   52.36    7.14 
  -6  -1  -4    8.09    2.05 
  -7  -1  -4   43.15    6.73 
  -8  -1  -4   31.98    5.76 
  -8   2   4    7.55    2.11 
  -7   2   4    3.66    1.44 
  -6   2   4    9.85    2.11 
   5  -2  -4   40.97    9.32 
  -5   2   4   69.97    8.29 
   4  -2  -4    9.88    3.09 
  -4   2   4   10.62    1.97 
   3  -2  -4   14.47    3.54 
  -3   2   4   18.55    2.80 
   2  -2  -4   -0.02    0.70 
  -2   2   4    0.49    0.44 
   1  -2  -4  253.44   29.56 
  -1   2   4  235.29   30.20 
   0  -2  -4    6.51    1.51 
   0  -2  -4    8.94    1.78 
   0   2   4   10.06    2.11 
  -1  -2  -4   -0.14    0.24 
   1   2   4   -0.48    0.77 
   2   2   4   11.91    2.66 
   3   2   4   -1.08    0.92 
  -4  -2  -4    6.18    1.44 
  -5  -2  -4    6.87    1.68 
  -6  -2  -4   16.37    3.07 
  -7  -2  -4   73.37    9.89 
  -8  -2  -4   14.48    3.25 
  -7   3   4    2.19    1.10 
  -6   3   4    4.61    1.38 
   5  -3  -4    9.13    3.57 
  -5   3   4   20.64    3.00 
   4  -3  -4   43.37    7.22 
  -4   3   4   40.49    5.50 
   3  -3  -4   96.82   12.12 
  -3   3   4   88.99   11.54 
   2  -3  -4   88.74   11.78 
   2  -3  -4   88.00   16.15 
  -2   3   4   95.04   11.61 
   1  -3  -4   77.18    9.98 
   1  -3  -4   83.58   13.51 
  -1   3   4   75.83   10.02 
   0  -3  -4    2.68    1.12 
   0  -3  -4    3.40    0.97 
   0   3   4    4.56    1.22 
  -1  -3  -4  307.54   49.02 
  -1  -3  -4  321.51   36.02 
   1   3   4  262.25   37.41 
   2   3   4   88.31   11.59 
   3   3   4   37.43    5.87 
  -4  -3  -4  114.98   14.53 
  -5  -3  -4    2.23    0.85 
  -6  -3  -4    4.74    1.42 
  -7  -3  -4   26.04    4.45 
  -8  -3  -4   15.78    3.25 
  -7   4   4    1.16    1.10 
  -6   4   4    0.82    0.90 
   5  -4  -4   52.52    9.64 
  -5   4   4   63.65    8.12 
   4  -4  -4   56.20   10.14 
  -4   4   4   73.35    9.02 
   3  -4  -4   13.43    3.10 
   3  -4  -4   17.59    6.03 
  -3   4   4   11.63    2.08 
   2  -4  -4    6.12    1.73 
   2  -4  -4    4.67    3.04 
  -2   4   4    3.64    0.94 
   1  -4  -4   60.13   10.54 
   1  -4  -4   53.82    7.35 
  -1   4   4   56.07    7.25 
   0  -4  -4  384.06   47.77 
   0  -4  -4  408.38   65.30 
   0   4   4  403.16   49.17 
  -1  -4  -4  240.28   38.14 
  -1  -4  -4  240.67   27.93 
   1   4   4  211.28   28.92 
  -2  -4  -4    9.78    2.40 
   2   4   4    4.51    1.43 
  -3  -4  -4  187.75   30.54 
  -3  -4  -4  179.03   22.60 
  -4  -4  -4  317.53   52.37 
  -4  -4  -4  314.59   39.03 
  -5  -4  -4   43.69    5.88 
  -6  -4  -4   60.97    8.12 
  -7  -4  -4   36.38    5.83 
  -8  -4  -4   21.32    4.00 
  -9  -4  -4    2.00    1.35 
   6  -5  -4    5.83    3.61 
   5  -5  -4   29.02    6.05 
  -5   5   4   27.90    4.36 
   4  -5  -4    9.58    3.01 
  -4   5   4    9.18    1.86 
   3  -5  -4   21.55    7.74 
   3  -5  -4   19.53    4.03 
  -3   5   4   20.02    3.10 
   2  -5  -4   12.81    3.09 
   2  -5  -4   12.19    5.86 
  -2   5   4   20.70    2.77 
   1  -5  -4    0.24    1.94 
   1  -5  -4    0.34    0.58 
  -1   5   4   -0.41    0.38 
   0  -5  -4   56.69    7.11 
   0  -5  -4   58.55   11.28 
   0   5   4   51.87    7.09 
  -1  -5  -4   85.52   12.82 
  -1  -5  -4   82.73    9.07 
   1   5   4   56.81    9.11 
  -3  -5  -4   54.51    6.65 
  -3  -5  -4   43.79    9.90 
  -4  -5  -4   32.04    4.31 
  -4  -5  -4   32.83    7.22 
  -5  -5  -4    1.20    1.34 
  -5  -5  -4    2.35    0.82 
  -6  -5  -4   95.14   17.43 
  -6  -5  -4   96.89   12.42 
  -7  -5  -4   46.03   11.27 
  -7  -5  -4   54.25    7.20 
  -8  -5  -4   29.68    7.77 
  -8  -5  -4   24.98    4.34 
  -9  -5  -4   24.86    7.48 
  -9  -5  -4   25.26    4.52 
   5  -6  -4    3.09    2.81 
   4  -6  -4   15.83    4.15 
   3  -6  -4    1.67    4.37 
   3  -6  -4    7.82    2.40 
   2  -6  -4   -1.84    2.72 
   2  -6  -4    1.55    1.18 
   1  -6  -4    0.83    0.85 
   1  -6  -4    1.23    2.10 
   0  -6  -4  237.56   28.85 
   0  -6  -4  236.38   40.47 
  -1  -6  -4   73.81   13.28 
  -1  -6  -4   71.32    9.17 
  -2  -6  -4    7.17    2.68 
  -3  -6  -4    6.29    2.46 
  -4  -6  -4   38.31    8.59 
  -5  -6  -4   27.10    6.71 
  -5  -6  -4   26.32    3.68 
  -6  -6  -4   25.60    7.15 
  -6  -6  -4   31.74    4.28 
  -7  -6  -4    0.34    0.54 
  -7  -6  -4   -0.70    1.17 
  -8  -6  -4   11.41    4.28 
  -8  -6  -4    8.08    2.06 
  -9  -6  -4   19.37    6.55 
   4  -7  -4    0.99    2.28 
   3  -7  -4    1.27    5.17 
   3  -7  -4    4.25    2.16 
   2  -7  -4   14.79    3.41 
   2  -7  -4   19.30    7.89 
   1  -7  -4   23.52    4.04 
   1  -7  -4   17.03    7.42 
   0  -7  -4   92.50   11.72 
   0  -7  -4   89.16   18.90 
  -1  -7  -4    7.98    1.90 
  -1  -7  -4   12.27    4.29 
  -2  -7  -4   40.50    9.19 
  -3  -7  -4   28.08    7.00 
  -4  -7  -4    0.50    1.31 
  -5  -7  -4   19.52    5.80 
  -6  -7  -4   43.34   10.20 
  -7  -7  -4   27.80    8.09 
  -8  -7  -4    5.29    3.23 
   3  -8  -4   11.62    3.57 
   2  -8  -4    7.47    2.55 
   2  -8  -4    7.81    7.31 
   1  -8  -4   15.99    3.51 
   1  -8  -4   31.36    9.54 
   0  -8  -4   62.01    8.12 
   0  -8  -4   53.58   14.01 
  -1  -8  -4   53.83   12.62 
  -1  -8  -4   48.33    6.67 
  -2  -8  -4   31.59    4.96 
  -2  -8  -4   34.03    8.80 
  -3  -8  -4    1.19    2.03 
  -4  -8  -4   21.69    6.62 
  -5  -8  -4  185.83   32.50 
  -6  -8  -4   39.64    9.93 
  -7  -8  -4   17.09    6.18 
  -8  -8  -4   -1.43    1.97 
   1  -9  -4   30.16    5.14 
   1  -9  -4   21.75    9.93 
   0  -9  -4    3.75    4.36 
   0  -9  -4    1.33    1.31 
  -1  -9  -4    4.61    1.56 
  -1  -9  -4    2.83    3.81 
  -2  -9  -4    8.01    2.16 
  -2  -9  -4   18.20    5.99 
  -3  -9  -4   39.05   10.36 
  -4  -9  -4   16.00    5.69 
  -5  -9  -4   21.40    6.93 
  -6  -9  -4   31.91    9.34 
  -7  -9  -4   35.00    9.89 
  -1 -10  -4    5.38    1.80 
  -1 -10  -4    0.52    4.18 
  -2 -10  -4    1.85    1.17 
  -2 -10  -4   -1.06    3.19 
  -3 -10  -4   10.52    2.53 
  -3 -10  -4   14.96    6.64 
  -4 -10  -4    3.17    3.76 
  -5 -10  -4   38.55   10.85 
  -6 -10  -4   25.68    8.74 
  -4  -6   5    1.53    3.60 
  -3  -6   5    1.20    4.03 
  -2  -6   5    7.12    5.64 
  -1  -6   5    7.55    6.41 
  -7  -5   5    3.79    1.81 
  -6  -5   5    5.68    2.11 
  -5  -5   5    3.94    1.93 
  -4  -5   5   17.16    6.19 
  -4  -5   5   20.98    4.37 
  -3  -5   5    7.20    4.35 
  -3  -5   5    9.19    2.94 
  -2  -5   5   -1.19    1.49 
  -2  -5   5    2.33    3.17 
  -1  -5   5    2.69    1.98 
  -1  -5   5    4.14    4.86 
   0  -5   5    1.76    1.83 
   0  -5   5    3.26    5.24 
   1  -5   5   -0.05    1.56 
   1  -5   5   -0.92    4.50 
  -7  -4   5    3.00    1.43 
  -6  -4   5    5.30    1.78 
  -5  -4   5    2.63    1.31 
  -4  -4   5   24.48    4.45 
  -4  -4   5   20.02    6.11 
  -3  -4   5    9.65    2.70 
  -3  -4   5   17.08    5.53 
  -2  -4   5   16.81    4.35 
  -2  -4   5   26.11    7.37 
  -1  -4   5   20.48    4.84 
  -1  -4   5   20.86    7.94 
   0  -4   5   -0.64    3.14 
   0  -4   5    1.62    1.69 
   1  -4   5   16.68    8.07 
   2  -4   5   12.54    8.64 
   2  -4   5    4.98    2.34 
  -3   4  -5    0.44    1.17 
   3  -4   5   -0.05    6.24 
  -8  -3   5    5.26    1.82 
  -7  -3   5   16.56    3.39 
  -6  -3   5    0.22    0.77 
  -5  -3   5    1.39    1.03 
  -4  -3   5    2.97    1.41 
  -4  -3   5    5.84    3.07 
  -3  -3   5   13.23    4.63 
  -3  -3   5   13.77    3.13 
  -2  -3   5   36.09    9.21 
  -2  -3   5   40.44    6.72 
  -1  -3   5   13.15    3.71 
  -1  -3   5   16.87    5.92 
   0  -3   5    2.09    1.83 
   0  -3   5    1.40    3.82 
   1  -3   5   61.27   10.49 
   1  -3   5   84.28   18.41 
   2  -3   5    3.65    2.16 
   2  -3   5    3.91    5.80 
  -3   3  -5   19.17    3.07 
   3  -3   5    1.10    1.96 
   3  -3   5    0.67    6.16 
  -4   3  -5   18.00    3.62 
   4  -3   5    7.07    8.64 
  -8  -2   5    8.27    2.16 
  -7  -2   5   15.65    3.24 
  -6  -2   5    7.97    2.01 
  -5  -2   5   48.04    6.75 
  -4  -2   5   -0.12    0.54 
  -3  -2   5   26.54    4.41 
  -3  -2   5   20.93    5.58 
  -2  -2   5   33.80    7.57 
  -2  -2   5   24.87    4.85 
  -1  -2   5   -1.26    2.10 
  -1  -2   5    2.07    1.27 
   0  -2   5   26.53    7.78 
   0  -2   5   12.10    3.53 
   1  -2   5   55.75   12.93 
   1  -2   5   28.64    6.01 
   2  -2   5   42.08   12.47 
   2  -2   5   19.98    4.73 
   3  -2   5   75.17   21.02 
  -4   2  -5   12.09    2.83 
  -5   2  -5    2.02    1.43 
  -8  -1   5    2.30    1.21 
  -7  -1   5    0.09    0.72 
  -6  -1   5   12.26    2.61 
  -5  -1   5   27.68    4.49 
  -4  -1   5    3.05    1.12 
  -3  -1   5  126.40   21.82 
  -3  -1   5  131.18   16.53 
  -2  -1   5   89.03   15.39 
  -2  -1   5   83.24   11.42 
  -1  -1   5   25.18    4.91 
  -1  -1   5   31.81    7.97 
   0  -1   5   -0.61    1.16 
   0  -1   5    2.12    3.44 
   1  -1   5    0.42    1.08 
   1  -1   5    2.39    4.71 
   2  -1   5   30.66    6.41 
   2  -1   5   68.99   15.57 
   3  -1   5   49.39   17.00 
  -4   1  -5   47.42    7.27 
  -5   1  -5   16.48    3.41 
  -6   1  -5   64.20    9.78 
  -8   0   5    1.70    1.44 
  -7   0   5    2.33    1.18 
  -6   0   5    6.99    1.86 
  -5   0   5    0.29    0.62 
  -4   0   5    1.59    0.85 
  -3   0   5   36.59    5.50 
   2   0  -5   67.40   10.75 
  -2   0   5   67.71   10.06 
  -2   0   5   96.83   13.90 
   1   0  -5   36.60    6.86 
  -1   0   5   69.75   11.85 
  -1   0   5   52.88    7.51 
   0   0  -5   52.26    7.16 
   0   0   5   50.18    8.43 
   0   0   5   78.36   14.56 
  -1   0  -5   24.52    3.77 
   1   0   5   35.12   10.71 
   1   0   5   27.48    5.37 
   2   0   5    9.22    2.83 
   3   0   5    3.56    1.91 
  -4   0  -5   17.28    2.85 
   4   0   5    7.46    3.03 
  -5   0  -5    0.65    0.84 
  -6   0  -5   29.60    5.12 
  -7   0  -5   26.88    5.02 
  -8   1   5    0.22    0.89 
  -7   1   5    0.94    0.93 
  -6   1   5    3.41    1.32 
  -5   1   5   42.21    5.89 
   4  -1  -5   39.62    7.85 
  -4   1   5   47.10    6.26 
   3  -1  -5   -0.98    1.14 
  -3   1   5    0.60    0.69 
   2  -1  -5    4.48    1.92 
  -2   1   5    4.13    1.28 
   1  -1  -5    0.04    0.68 
  -1   1   5    0.24    0.77 
   0  -1  -5   60.29    7.62 
   0   1   5   55.04    8.74 
  -1  -1  -5    7.99    1.56 
   1   1   5    9.08    2.61 
  -2  -1  -5  108.48   12.15 
   2   1   5   71.20   13.70 
   3   1   5   64.26    9.98 
   4   1   5    4.21    2.09 
  -5  -1  -5    2.56    1.07 
  -6  -1  -5    2.34    1.10 
  -7  -1  -5   14.14    3.08 
  -7   2   5    2.88    1.23 
  -6   2   5   26.40    4.30 
   5  -2  -5   12.81    4.56 
  -5   2   5   19.39    3.17 
   4  -2  -5   60.29   10.47 
  -4   2   5   67.61    8.73 
   3  -2  -5   66.17   10.72 
  -3   2   5   74.67    9.49 
   2  -2  -5   59.74    8.61 
  -2   2   5   55.22    7.48 
   1  -2  -5    9.45    2.40 
  -1   2   5   16.90    2.89 
   0  -2  -5   36.26    5.25 
   0   2   5   52.42    6.89 
  -1  -2  -5   14.11    2.27 
   1   2   5   13.02    3.22 
  -2  -2  -5  101.30   11.29 
   2   2   5   72.28   12.25 
  -3  -2  -5   81.46    9.99 
   4   2   5   48.17    8.00 
  -5  -2  -5   48.99    6.74 
  -6  -2  -5   49.48    7.45 
  -7  -2  -5   22.15    4.09 
  -8  -2  -5    0.51    1.09 
  -7   3   5    0.36    0.89 
  -6   3   5    2.28    1.05 
   5  -3  -5   31.36    7.27 
  -5   3   5   45.49    5.88 
   4  -3  -5  132.30   18.29 
  -4   3   5  142.82   17.67 
   3  -3  -5   12.44    3.28 
  -3   3   5   12.84    2.36 
   2  -3  -5    0.37    0.80 
  -2   3   5    0.78    0.64 
   1  -3  -5   74.70    9.81 
  -1   3   5   77.19    9.94 
   0  -3  -5  463.80   72.76 
   0  -3  -5  430.17   53.70 
   0   3   5  444.87   55.62 
  -1  -3  -5  216.98   25.29 
  -1  -3  -5  215.45   34.34 
   1   3   5  184.84   26.59 
  -2  -3  -5    9.73    1.48 
   2   3   5    1.76    1.51 
   3   3   5   39.77    6.61 
  -4  -3  -5   42.28    4.14 
   4   3   5   11.16    4.16 
  -5  -3  -5   11.25    2.34 
  -6  -3  -5   47.01    6.55 
  -7  -3  -5   59.31    8.21 
  -8  -3  -5   65.38    9.15 
  -7   4   5    1.49    1.20 
   6  -4  -5   13.74    4.63 
  -6   4   5   10.47    2.29 
   5  -4  -5    7.07    3.26 
  -5   4   5    8.70    1.89 
   4  -4  -5    4.64    2.21 
  -4   4   5    2.53    1.04 
   3  -4  -5    2.49    1.47 
  -3   4   5    1.62    0.81 
   2  -4  -5   11.12    2.65 
  -2   4   5   12.55    2.26 
   1  -4  -5   12.28    2.73 
   1  -4  -5   25.33    4.57 
  -1   4   5   13.32    2.58 
   0  -4  -5  121.36   16.58 
   0  -4  -5  152.57   22.63 
   0   4   5  130.21   17.25 
  -1  -4  -5  101.17   16.18 
  -1  -4  -5  101.03   11.93 
   1   4   5   79.66   12.59 
  -2  -4  -5   80.81   15.24 
  -2  -4  -5   98.12   11.17 
   3   4   5   53.29    8.01 
  -4  -4  -5   10.79    2.03 
  -5  -4  -5   61.53    8.17 
  -6  -4  -5   22.58    3.83 
  -7  -4  -5    1.90    1.10 
  -8  -4  -5   29.93    5.29 
   6  -5  -5   -1.95    2.87 
   5  -5  -5   -1.62    1.80 
  -5   5   5    3.76    1.23 
   4  -5  -5   11.33    3.77 
  -4   5   5   24.74    3.44 
   3  -5  -5   12.86    3.20 
  -3   5   5   15.19    2.56 
   2  -5  -5   42.99    6.84 
  -2   5   5   44.63    5.93 
   1  -5  -5    9.59    2.14 
   1  -5  -5    4.60    2.81 
  -1   5   5    9.54    1.82 
   0  -5  -5  142.57   18.83 
   0  -5  -5  165.35   26.10 
   0   5   5  154.61   19.44 
  -1  -5  -5   74.05   12.06 
  -1  -5  -5   69.85    8.70 
   1   5   5   59.47    9.12 
  -2  -5  -5    2.23    0.77 
  -2  -5  -5    0.59    0.99 
   2   5   5    0.85    0.95 
  -3  -5  -5    5.37    2.19 
   3   5   5    0.87    1.12 
  -4  -5  -5    8.64    1.70 
  -4  -5  -5    9.15    3.17 
  -5  -5  -5  201.39   34.87 
  -5  -5  -5  207.78   25.68 
  -6  -5  -5    4.83    1.43 
  -6  -5  -5    6.02    3.00 
  -7  -5  -5    4.19    2.99 
  -7  -5  -5    4.91    1.50 
  -8  -5  -5   14.16    3.04 
  -8  -5  -5   14.50    5.23 
   5  -6  -5    1.54    2.55 
   4  -6  -5    5.40    2.50 
   3  -6  -5    5.59    2.14 
   2  -6  -5   20.25    3.98 
   1  -6  -5  179.03   22.77 
   1  -6  -5  191.51   32.13 
   0  -6  -5    7.42    3.26 
   0  -6  -5    6.46    1.76 
  -1  -6  -5   20.37    5.56 
  -1  -6  -5   23.48    3.72 
  -2  -6  -5   23.33    5.20 
  -2  -6  -5   16.49    2.95 
  -3  -6  -5    1.47    1.37 
  -4  -6  -5   21.08    5.65 
  -5  -6  -5   51.39    6.87 
  -5  -6  -5   55.31   11.23 
  -6  -6  -5   61.64   12.72 
  -6  -6  -5   57.99    7.83 
  -7  -6  -5   46.41    6.81 
  -7  -6  -5   42.68   10.68 
  -8  -6  -5    6.71    1.94 
  -8  -6  -5    8.12    3.90 
   4  -7  -5   19.40    4.94 
   3  -7  -5   13.21    3.56 
   2  -7  -5   27.87    5.24 
   1  -7  -5   45.66    7.41 
   1  -7  -5   57.38   12.71 
   0  -7  -5   41.30    9.78 
   0  -7  -5   33.11    5.47 
  -1  -7  -5  163.90   26.14 
  -1  -7  -5  139.63   18.33 
  -2  -7  -5   28.01    4.23 
  -2  -7  -5   22.98    6.53 
  -3  -7  -5    0.41    1.43 
  -4  -7  -5   49.82   10.87 
  -5  -7  -5  105.53   19.17 
  -6  -7  -5   89.24   18.02 
  -7  -7  -5    2.96    2.75 
  -8  -7  -5    7.34    3.85 
   3  -8  -5    0.59    1.81 
   2  -8  -5   45.30    7.47 
   1  -8  -5   36.96    6.22 
   1  -8  -5   39.48   11.61 
   0  -8  -5    2.70    1.19 
   0  -8  -5    3.02    3.64 
  -1  -8  -5    0.21    0.65 
  -1  -8  -5   -0.82    2.25 
  -2  -8  -5   20.74    6.44 
  -2  -8  -5   20.86    3.61 
  -3  -8  -5   66.70   13.99 
  -4  -8  -5   99.98   18.37 
  -5  -8  -5   25.84    7.27 
  -6  -8  -5   19.22    6.25 
  -7  -8  -5    5.33    3.59 
  -8  -8  -5   11.37    5.26 
   1  -9  -5    2.01    1.52 
   0  -9  -5    5.40    4.91 
   0  -9  -5    2.70    1.39 
  -1  -9  -5    9.48    4.66 
  -1  -9  -5    2.34    1.19 
  -2  -9  -5   24.41    7.88 
  -2  -9  -5   23.76    4.11 
  -3  -9  -5    0.26    2.17 
  -3  -9  -5    1.40    0.93 
  -4  -9  -5   14.94    5.40 
  -5  -9  -5   24.30    7.75 
  -6  -9  -5   35.71    9.80 
  -7  -9  -5    3.00    2.93 
  -1 -10  -5    6.34    4.97 
  -1 -10  -5   -0.06    1.00 
  -2 -10  -5   30.53    8.97 
  -2 -10  -5   16.93    3.49 
  -3 -10  -5   21.70    8.41 
  -3 -10  -5   40.03    5.66 
  -4 -10  -5   44.07   11.71 
  -5 -10  -5    3.32    3.10 
  -5  -5   6    4.95    2.32 
  -4  -5   6   -0.28    1.75 
  -3  -5   6    2.88    2.39 
  -2  -5   6   17.94    4.56 
  -2  -5   6    6.77    5.85 
  -1  -5   6   -0.97    5.08 
  -1  -5   6    0.82    1.99 
   0  -5   6    4.18    2.50 
  -6  -4   6    9.30    2.60 
  -5  -4   6    4.57    1.92 
  -4  -4   6    2.29    1.66 
  -3  -4   6   10.76    3.17 
  -2  -4   6    1.65    4.06 
  -2  -4   6    7.22    2.85 
  -1  -4   6   -0.63    3.60 
  -1  -4   6    1.52    1.83 
   0  -4   6    9.42    3.38 
   0  -4   6   23.45    9.11 
   1  -4   6    1.05    5.50 
   1  -4   6    1.66    2.06 
   2  -4   6    4.67    7.44 
   2  -4   6    1.94    2.27 
  -7  -3   6    0.57    1.18 
  -6  -3   6    4.13    1.69 
  -5  -3   6    2.15    1.28 
  -4  -3   6   16.02    3.45 
  -3  -3   6   32.78    5.87 
  -2  -3   6   37.07    6.49 
  -2  -3   6   25.91    8.21 
  -1  -3   6    4.90    2.49 
  -1  -3   6    5.42    4.59 
   0  -3   6    6.95    2.78 
   0  -3   6    8.23    5.67 
   1  -3   6   -2.51    4.33 
   1  -3   6    1.50    1.75 
   2  -3   6    6.02    2.82 
   2  -3   6   13.87    8.69 
   3  -3   6    7.28    3.20 
   3  -3   6   18.41   10.04 
  -7  -2   6    2.25    1.40 
  -6  -2   6   11.71    2.68 
  -5  -2   6    0.90    0.93 
  -4  -2   6    0.18    0.83 
  -3  -2   6    8.27    2.45 
  -2  -2   6   40.77    7.06 
  -1  -2   6   29.15    6.07 
  -1  -2   6   39.29    9.69 
   0  -2   6   24.68    5.64 
   0  -2   6   39.83   10.73 
   1  -2   6    1.01    4.59 
   1  -2   6    1.86    1.85 
   2  -2   6   13.49    7.96 
   2  -2   6    9.72    3.26 
   3  -2   6    9.80    3.49 
   3  -2   6   20.64   10.71 
  -4   2  -6    2.79    1.57 
  -8  -1   6    1.18    1.26 
  -7  -1   6    3.44    1.38 
  -6  -1   6   16.99    3.46 
  -5  -1   6    1.40    1.03 
  -4  -1   6   25.43    4.37 
  -3  -1   6   13.86    3.05 
  -2  -1   6    2.17    1.50 
  -1  -1   6    3.70    1.99 
  -1  -1   6    4.92    4.08 
   0  -1   6   -0.54    4.32 
   0  -1   6    1.52    1.56 
   1  -1   6   21.43    9.08 
   1  -1   6   11.00    3.52 
   2  -1   6   33.88    7.04 
   2  -1   6   48.89   15.31 
   3  -1   6    8.39    3.06 
  -4   1  -6   10.70    2.34 
   4  -1   6   -0.24    1.34 
  -5   1  -6   13.74    3.22 
  -8   0   6   -0.06    1.06 
  -7   0   6    0.93    1.07 
  -6   0   6    3.05    1.29 
  -5   0   6   24.78    4.28 
  -4   0   6   59.18    8.11 
  -3   0   6    6.51    1.81 
  -2   0   6   13.45    2.95 
  -1   0   6   83.44   11.55 
   0   0  -6    2.87    1.30 
   0   0   6    0.96    1.71 
   0   0   6    2.74    4.54 
   1   0   6   -0.19    1.44 
   1   0   6   -1.24    3.89 
   2   0   6    2.61    1.97 
   3   0   6   31.33    6.28 
   4   0   6    7.30    2.95 
  -5   0  -6   10.38    2.68 
  -6   0  -6   16.77    3.77 
  -7   1   6   10.18    2.61 
  -6   1   6    3.22    1.32 
  -5   1   6   26.81    4.48 
  -4   1   6   21.41    3.76 
   3  -1  -6   17.85    4.44 
  -3   1   6   22.32    3.74 
   2  -1  -6   24.46    4.61 
  -2   1   6   23.71    4.27 
   1  -1  -6   39.38    5.32 
  -1   1   6   21.90    4.77 
   0  -1  -6   90.42   11.70 
   0   1   6   94.46   12.79 
  -1  -1  -6  159.76   19.39 
   1   1   6  155.86   21.16 
   2   1   6   30.11    6.15 
   3   1   6   10.38    3.14 
   4   1   6    3.83    2.20 
  -5  -1  -6   20.05    3.75 
  -6  -1  -6   31.45    5.48 
  -7   2   6    2.64    1.38 
  -6   2   6    4.72    1.50 
   5  -2  -6   43.44    9.12 
  -5   2   6   55.61    7.33 
   4  -2  -6   28.66    5.86 
  -4   2   6   30.97    4.84 
   3  -2  -6    5.19    2.23 
  -3   2   6    5.63    1.60 
   2  -2  -6   25.46    4.84 
  -2   2   6   28.63    4.59 
   1  -2  -6   47.79    7.23 
  -1   2   6   52.24    7.66 
   0  -2  -6  209.77   26.57 
   0   2   6  231.20   28.06 
  -1  -2  -6   58.26    7.35 
   1   2   6   52.92    9.42 
  -2  -2  -6  107.99   12.26 
   2   2   6   71.53   14.09 
   3   2   6   31.43    5.96 
   4   2   6   21.88    4.95 
  -5  -2  -6   52.64    7.31 
  -6  -2  -6    0.42    0.78 
  -7  -2  -6    9.62    2.57 
  -7   3   6    4.26    1.58 
  -6   3   6   11.81    2.57 
   5  -3  -6   19.20    5.22 
  -5   3   6   19.79    3.54 
   4  -3  -6    7.88    3.26 
  -4   3   6   13.07    2.48 
   3  -3  -6    8.16    2.59 
  -3   3   6    4.83    1.48 
   2  -3  -6    0.87    0.86 
  -2   3   6    1.36    0.91 
   1  -3  -6   56.31    7.79 
  -1   3   6   59.45    8.02 
   0  -3  -6    7.17    1.64 
   0   3   6    4.92    2.04 
  -1  -3  -6   39.19    5.06 
   1   3   6   31.86    6.52 
  -2  -3  -6   64.96    7.50 
   2   3   6   41.07    8.82 
  -3  -3  -6   17.38    2.31 
   3   3   6    5.34    2.63 
   4   3   6   13.19    3.49 
  -5  -3  -6   61.08    8.26 
  -6  -3  -6   76.37   10.30 
  -7  -3  -6   30.51    5.18 
   6  -4  -6   -0.74    2.44 
  -6   4   6    1.34    1.08 
   5  -4  -6    0.10    2.06 
  -5   4   6    0.37    0.84 
   4  -4  -6   11.14    3.56 
  -4   4   6   13.43    2.58 
   3  -4  -6    2.65    1.82 
  -3   4   6    4.39    1.34 
   2  -4  -6   15.26    3.36 
  -2   4   6   17.28    3.05 
   1  -4  -6   35.64    5.51 
  -1   4   6   33.87    5.45 
   0  -4  -6  111.98   14.64 
   0   4   6  124.07   15.48 
  -1  -4  -6   97.40   15.94 
  -1  -4  -6   97.53   11.85 
   1   4   6   81.91   12.79 
  -2  -4  -6   12.79    2.27 
  -2  -4  -6   11.93    3.24 
   2   4   6   13.73    3.34 
  -3  -4  -6   69.21    8.75 
   4   4   6   25.02    5.14 
  -5  -4  -6   34.85    5.30 
  -6  -4  -6   10.66    2.36 
  -7  -4  -6    6.44    1.88 
  -8  -4  -6   27.64    4.98 
   6  -5  -6    3.05    3.51 
   5  -5  -6    8.52    3.80 
  -5   5   6   14.57    2.72 
   4  -5  -6    2.64    2.18 
  -4   5   6    0.39    0.83 
   3  -5  -6   -0.18    1.10 
  -3   5   6    0.07    0.69 
   2  -5  -6   76.91    9.93 
  -2   5   6   69.97    9.52 
   1  -5  -6   58.43    7.85 
  -1   5   6   47.26    6.96 
   0  -5  -6   77.75    9.88 
   0   5   6   73.94   10.33 
  -1  -5  -6   64.21   10.22 
  -1  -5  -6   49.63    7.36 
   1   5   6   58.83    8.85 
  -2  -5  -6   64.59    9.76 
  -2  -5  -6   54.17    6.92 
   2   5   6   34.65    7.68 
  -3  -5  -6   11.59    2.02 
  -3  -5  -6   18.42    3.97 
   3   5   6    4.21    2.13 
  -4  -5  -6   57.69   10.06 
  -4  -5  -6   42.25    6.07 
  -5  -5  -6   26.26    6.66 
  -5  -5  -6   25.00    4.02 
  -6  -5  -6   42.21    6.09 
  -6  -5  -6   35.62    9.31 
  -7  -5  -6   19.44    3.66 
  -8  -5  -6    1.60    1.32 
   5  -6  -6   -3.46    1.90 
   4  -6  -6   11.96    3.83 
   3  -6  -6   45.72    7.66 
   2  -6  -6   86.27   11.63 
   1  -6  -6    1.29    1.06 
   0  -6  -6   18.18    3.38 
  -1  -6  -6   51.74    7.31 
  -1  -6  -6   60.35   10.37 
  -2  -6  -6   26.91    4.20 
  -2  -6  -6   25.89    6.10 
  -3  -6  -6   32.90    5.10 
  -3  -6  -6   39.46    8.01 
  -4  -6  -6  169.35   30.21 
  -4  -6  -6  181.99   22.19 
  -5  -6  -6  171.32   21.09 
  -5  -6  -6  160.91   28.85 
  -6  -6  -6   36.50    9.48 
  -6  -6  -6   45.55    6.01 
  -7  -6  -6    4.52    3.13 
  -7  -6  -6    4.24    1.48 
  -8  -6  -6    0.25    2.01 
   4  -7  -6   -3.16    1.78 
   3  -7  -6    7.64    2.67 
   2  -7  -6   64.33    9.80 
   1  -7  -6   26.86    4.86 
   0  -7  -6   19.26    3.56 
  -1  -7  -6    0.31    0.65 
  -1  -7  -6   -0.49    1.25 
  -2  -7  -6    1.34    1.60 
  -2  -7  -6    0.08    0.57 
  -3  -7  -6   68.97   13.35 
  -3  -7  -6   64.80    8.60 
  -4  -7  -6   26.23    6.67 
  -5  -7  -6   25.74    6.77 
  -6  -7  -6   22.59    6.66 
  -7  -7  -6   43.92   10.68 
   3  -8  -6   10.10    3.52 
   2  -8  -6    6.92    2.58 
   1  -8  -6    1.03    1.22 
   0  -8  -6   -0.19    0.87 
  -1  -8  -6   18.71    5.91 
  -1  -8  -6   12.38    2.77 
  -2  -8  -6   48.94   11.14 
  -2  -8  -6   51.24    7.40 
  -3  -8  -6   61.46   11.87 
  -3  -8  -6   49.25    7.01 
  -4  -8  -6    0.32    1.40 
  -5  -8  -6    3.37    2.33 
  -6  -8  -6    2.11    2.47 
  -7  -8  -6    4.97    3.31 
   1  -9  -6    9.38    2.73 
   0  -9  -6   -0.25    0.81 
  -1  -9  -6    3.44    1.46 
  -2  -9  -6    9.69    2.41 
  -2  -9  -6    9.88    4.64 
  -3  -9  -6   58.78    7.85 
  -3  -9  -6   54.64   12.76 
  -4  -9  -6   58.52   13.07 
  -5  -9  -6    5.71    3.40 
  -6  -9  -6    0.27    2.11 
  -1 -10  -6   14.83    3.30 
  -2 -10  -6    6.05    1.99 
  -2 -10  -6   11.06    5.96 
  -3 -10  -6   26.80    8.34 
  -3 -10  -6   26.43    4.62 
  -4 -10  -6    4.13    3.84 
  -4 -10  -6    7.91    2.24 
  -5 -10  -6   -0.31    2.68 
  -4  -4   7    3.10    2.05 
  -3  -4   7   14.02    4.10 
  -2  -4   7    0.76    2.08 
  -1  -4   7    9.57    3.58 
   0  -4   7    0.04    2.16 
  -6  -3   7    3.62    1.87 
  -5  -3   7    8.83    2.79 
  -4  -3   7    7.39    2.69 
  -3  -3   7    2.49    1.62 
  -2  -3   7    2.04    1.97 
  -1  -3   7   15.22    4.23 
   0  -3   7   -0.27    4.58 
   0  -3   7   -0.99    1.55 
   1  -3   7   11.45    8.39 
   1  -3   7    6.12    2.94 
   2  -3   7    7.47    3.09 
   2  -3   7    0.36    7.22 
  -6  -2   7    1.59    1.34 
  -5  -2   7    8.39    2.59 
  -4  -2   7   10.18    2.62 
  -3  -2   7   15.78    3.74 
  -2  -2   7   23.99    5.14 
  -1  -2   7    1.80    2.04 
   0  -2   7   -0.22    5.08 
   0  -2   7    1.67    1.98 
   1  -2   7    6.54    6.60 
   1  -2   7    0.66    1.82 
   2  -2   7    4.89    2.65 
   2  -2   7   17.63    9.84 
   3  -2   7    1.52    2.02 
  -7  -1   7    1.31    1.28 
  -6  -1   7    0.12    0.94 
  -5  -1   7   37.72    6.19 
  -4  -1   7    2.58    1.34 
  -3  -1   7    0.99    1.07 
  -2  -1   7    5.16    2.29 
  -1  -1   7   19.37    4.65 
   0  -1   7   52.14    9.35 
   1  -1   7    3.45    2.52 
   1  -1   7    7.39    6.67 
   2  -1   7   14.83    4.19 
   3  -1   7    1.47    2.04 
  -4   1  -7   15.39    3.16 
   4  -1   7   -1.40    1.84 
  -7   0   7    4.58    1.89 
  -6   0   7   16.47    3.52 
  -5   0   7   20.74    4.00 
  -4   0   7   14.94    3.14 
  -3   0   7    7.52    2.17 
  -2   0   7    3.12    1.74 
  -1   0   7    2.77    1.71 
   0   0   7   12.83    3.81 
   1   0   7   47.18    8.71 
   2   0   7   51.43    9.35 
   3   0   7    0.37    1.64 
   4   0   7    7.63    3.10 
  -5   0  -7   13.07    3.23 
  -7   1   7   -0.20    1.14 
  -6   1   7    5.69    1.89 
  -5   1   7   32.12    5.42 
  -4   1   7   43.88    6.79 
   3  -1  -7   -0.67    1.62 
  -3   1   7    1.65    1.06 
   2  -1  -7    7.46    2.40 
  -2   1   7    4.22    1.79 
   1  -1  -7   37.84    6.31 
  -1   1   7   40.25    7.00 
   0  -1  -7   96.19   13.13 
   0   1   7  118.00   14.76 
   1   1   7   28.70    6.23 
   2   1   7   -0.08    2.03 
   3   1   7    1.02    1.59 
   4   1   7   16.02    4.79 
  -5  -1  -7   42.85    6.91 
  -6  -1  -7   10.52    2.83 
  -7   2   7    1.51    1.25 
  -6   2   7    8.74    2.32 
  -5   2   7   -0.94    0.76 
   4  -2  -7    2.32    2.13 
  -4   2   7    0.03    0.91 
   3  -2  -7    2.76    1.85 
  -3   2   7    2.29    1.24 
   2  -2  -7   35.22    6.48 
  -2   2   7   42.76    6.45 
   1  -2  -7   12.47    3.04 
  -1   2   7   23.18    4.16 
   0  -2  -7   39.29    6.46 
   0   2   7   55.33    8.30 
  -1  -2  -7   53.16    7.11 
   1   2   7   59.04    9.64 
   2   2   7   10.03    3.34 
   3   2   7   -0.99    1.35 
   4   2   7   -0.72    1.56 
  -5  -2  -7   15.17    3.30 
  -6  -2  -7   22.33    4.40 
  -6   3   7    8.52    2.25 
   5  -3  -7    1.94    2.19 
  -5   3   7    3.58    1.48 
   4  -3  -7    3.05    2.37 
  -4   3   7    2.21    1.31 
   3  -3  -7    2.65    1.64 
  -3   3   7    0.52    0.90 
   2  -3  -7   -0.78    1.05 
  -2   3   7    1.21    1.16 
   1  -3  -7    8.86    2.34 
  -1   3   7   10.61    2.74 
   0  -3  -7   73.61   10.24 
   0   3   7   90.74   11.45 
  -1  -3  -7   81.48   10.59 
   1   3   7   91.18   13.33 
  -2  -3  -7   18.78    2.90 
   2   3   7   10.77    4.03 
  -3  -3  -7    1.07    0.57 
   3   3   7    0.72    1.49 
   4   3   7   26.23    5.60 
  -5  -3  -7   59.10    8.17 
  -6  -3  -7    8.30    2.20 
  -7  -3  -7    1.47    1.32 
   6  -4  -7   -1.32    2.63 
  -6   4   7    8.45    2.22 
   5  -4  -7   14.78    4.42 
  -5   4   7   11.71    2.62 
   4  -4  -7    9.41    3.41 
  -4   4   7    9.05    2.24 
   3  -4  -7   42.24    8.28 
  -3   4   7   58.30    7.46 
   2  -4  -7   87.04   11.47 
  -2   4   7   82.50   11.22 
   1  -4  -7   17.43    3.69 
  -1   4   7   20.04    3.95 
   0  -4  -7    3.78    1.42 
   0   4   7    4.09    1.89 
  -1  -4  -7   14.06    2.77 
   1   4   7   17.89    4.22 
  -2  -4  -7    2.26    1.29 
  -2  -4  -7    2.24    0.92 
   2   4   7    3.35    2.21 
  -3  -4  -7  133.96   16.51 
  -4  -4  -7   20.75    2.88 
   4   4   7    6.78    3.40 
  -5  -4  -7   42.30    6.45 
  -6  -4  -7  109.63   14.41 
  -7  -4  -7    9.78    2.57 
   5  -5  -7    3.37    2.83 
  -5   5   7   -0.76    0.78 
   4  -5  -7    0.34    1.48 
  -4   5   7    1.74    1.13 
   3  -5  -7   64.25   11.15 
  -3   5   7   80.81   10.21 
   2  -5  -7   46.30    8.13 
  -2   5   7   57.49    7.55 
   1  -5  -7   49.89    7.22 
  -1   5   7   41.95    7.04 
   0  -5  -7   61.79    8.60 
   0   5   7   70.07   10.00 
  -1  -5  -7   25.48    4.11 
   1   5   7   20.61    4.89 
  -2  -5  -7    4.30    1.94 
  -2  -5  -7    6.13    1.47 
   2   5   7    2.18    1.95 
  -3  -5  -7   37.28    5.03 
  -3  -5  -7   40.78    7.46 
   3   5   7   19.04    5.29 
  -4  -5  -7   31.63    6.47 
  -4  -5  -7   29.29    3.91 
   4   5   7   10.93    4.19 
  -5  -5  -7  139.12   25.42 
  -5  -5  -7  150.67   18.64 
  -6  -5  -7   43.59    6.67 
  -7  -5  -7    1.06    1.03 
   4  -6  -7    0.29    1.77 
   3  -6  -7   17.24    4.37 
   2  -6  -7    1.75    1.29 
   1  -6  -7   20.79    4.11 
   0  -6  -7    3.76    1.48 
  -1  -6  -7    6.14    1.75 
  -2  -6  -7  121.26   15.24 
  -3  -6  -7  101.29   16.94 
  -3  -6  -7   91.45   12.09 
  -4  -6  -7   34.43    4.80 
  -4  -6  -7   30.77    7.45 
  -4  -6  -7   27.98    4.74 
  -5  -6  -7   -0.15    1.30 
  -5  -6  -7   -0.10    0.61 
  -6  -6  -7    2.52    1.05 
  -6  -6  -7    0.50    1.63 
  -7  -6  -7   11.83    2.76 
  -7  -6  -7    8.39    4.15 
   4  -7  -7    4.54    2.85 
   3  -7  -7   12.40    3.78 
   2  -7  -7    5.12    2.23 
   1  -7  -7    6.26    2.15 
   0  -7  -7    5.76    1.88 
  -1  -7  -7    1.09    1.00 
  -2  -7  -7   37.35    5.72 
  -3  -7  -7   31.74    8.03 
  -3  -7  -7   41.84    5.80 
  -4  -7  -7   39.51    6.10 
  -4  -7  -7   48.02    9.77 
  -5  -7  -7    5.60    2.76 
  -6  -7  -7   13.05    4.96 
  -7  -7  -7    2.51    2.45 
   2  -8  -7   20.44    4.69 
   1  -8  -7   12.00    3.14 
   0  -8  -7   20.45    4.03 
  -1  -8  -7    5.99    1.83 
  -2  -8  -7   28.44    4.75 
  -3  -8  -7   14.32    4.84 
  -3  -8  -7   14.11    2.91 
  -4  -8  -7    2.00    2.03 
  -4  -8  -7    3.32    1.32 
  -5  -8  -7    1.00    2.15 
  -6  -8  -7   20.09    6.38 
   1  -9  -7   12.42    3.37 
   0  -9  -7   33.16    5.75 
  -1  -9  -7    9.14    2.44 
  -2  -9  -7   44.23    6.83 
  -3  -9  -7   36.26    5.78 
  -3  -9  -7   37.42    9.46 
  -4  -9  -7    6.94    1.86 
  -4  -9  -7    4.42    3.42 
  -5  -9  -7    1.87    2.78 
  -6  -9  -7    5.36    3.72 
  -2 -10  -7   21.66    4.18 
  -3 -10  -7   16.18    3.47 
  -4 -10  -7    6.63    4.19 
  -4 -10  -7    5.28    1.77 
  -3  -3   8    7.79    3.12 
  -2  -3   8    4.01    2.55 
  -1  -3   8    0.67    2.19 
  -5  -2   8   12.67    3.24 
  -4  -2   8    6.19    2.44 
  -3  -2   8   -0.78    1.36 
  -2  -2   8   -1.24    1.32 
  -1  -2   8    1.69    2.27 
   0  -2   8    6.06    3.18 
   1  -2   8   -0.86    1.84 
  -6  -1   8    9.67    2.77 
  -5  -1   8    3.40    1.94 
  -4  -1   8    0.87    1.24 
  -3  -1   8    9.86    2.84 
  -2  -1   8    1.95    1.68 
  -1  -1   8   10.84    3.64 
   0  -1   8   11.94    4.04 
   1  -1   8   12.89    4.31 
   2  -1   8    4.68    2.54 
   3  -1   8    6.34    3.35 
  -6   0   8    1.76    1.60 
  -5   0   8    3.55    1.94 
  -4   0   8    9.43    2.86 
  -3   0   8    3.16    1.81 
  -2   0   8    2.86    1.94 
  -1   0   8   33.77    6.95 
   0   0   8   40.48    8.21 
   1   0   8   23.83    6.10 
   2   0   8   -2.58    1.48 
   3   0   8   -0.21    2.35 
   4   0   8   14.09    4.69 
  -6   1   8    3.38    1.68 
  -5   1   8    2.77    1.63 
  -4   1   8   -0.57    1.01 
  -3   1   8    3.99    1.86 
   2  -1  -8   19.22    4.38 
  -2   1   8   19.35    4.32 
   1  -1  -8    8.54    2.71 
  -1   1   8   10.55    3.40 
   0   1   8   12.18    4.16 
   1   1   8    6.50    3.47 
   2   1   8    0.88    2.18 
   3   1   8    6.34    2.81 
   4   1   8   -0.27    2.27 
  -5  -1  -8   14.36    3.43 
  -6   2   8   -0.15    1.16 
  -5   2   8    4.30    1.73 
   4  -2  -8    4.60    2.89 
  -4   2   8    8.29    2.40 
   3  -2  -8   25.48    5.81 
  -3   2   8   32.00    5.40 
   2  -2  -8    3.49    2.09 
  -2   2   8    5.86    2.22 
   1  -2  -8    3.52    1.79 
  -1   2   8    2.19    1.96 
   0  -2  -8   61.50    9.95 
   0   2   8  110.48   13.29 
   1   2   8   -0.29    1.80 
   2   2   8    1.47    2.26 
   3   2   8    0.71    2.18 
   4   2   8    5.41    2.87 
  -5  -2  -8   50.62    8.00 
  -6   3   8    4.47    1.94 
   5  -3  -8    2.72    2.80 
  -5   3   8    0.57    0.99 
   4  -3  -8   -1.23    1.83 
  -4   3   8    0.06    0.93 
   3  -3  -8   36.35    6.06 
  -3   3   8   22.11    4.44 
   2  -3  -8   40.06    7.30 
  -2   3   8   49.94    7.53 
   1  -3  -8   56.37    9.19 
  -1   3   8   72.37   10.26 
   0  -3  -8   16.65    3.49 
   0   3   8   25.77    5.32 
  -1  -3  -8    2.72    1.07 
   1   3   8    1.23    2.32 
   2   3   8   49.44    8.92 
   3   3   8   24.83    6.16 
   4   3   8    4.25    2.97 
  -5  -3  -8   41.22    6.69 
  -6  -3  -8   12.95    3.12 
   5  -4  -8    0.70    2.59 
  -5   4   8    0.31    1.06 
   4  -4  -8    9.96    3.65 
  -4   4   8   14.66    3.18 
   3  -4  -8    5.01    2.38 
  -3   4   8    8.53    2.39 
   2  -4  -8    5.65    2.11 
  -2   4   8    5.17    1.96 
   1  -4  -8    9.09    2.64 
  -1   4   8    9.55    2.93 
   0  -4  -8    7.03    2.13 
   0   4   8   10.31    3.21 
  -1  -4  -8   32.20    4.79 
   1   4   8   22.45    5.80 
  -2  -4  -8   74.13    9.59 
   2   4   8   74.06   12.26 
  -3  -4  -8   10.08    2.00 
   3   4   8    2.85    2.65 
   4   4   8   24.74    5.71 
  -5  -4  -8   69.93    9.57 
  -6  -4  -8   10.50    2.55 
   5  -5  -8    3.36    3.16 
  -5   5   8   -0.20    1.12 
   4  -5  -8   12.81    4.14 
  -4   5   8   14.79    3.11 
   3  -5  -8    7.37    2.91 
  -3   5   8    5.85    2.07 
   2  -5  -8   30.57    6.29 
  -2   5   8   40.50    6.26 
   1  -5  -8   10.51    2.82 
  -1   5   8    8.28    2.72 
   0  -5  -8    7.84    2.35 
   0   5   8   11.84    3.38 
  -1  -5  -8    1.33    1.01 
   1   5   8    1.23    2.18 
  -2  -5  -8   48.22    6.67 
   2   5   8   36.92    7.66 
  -3  -5  -8   68.79    7.56 
   3   5   8   33.50    8.48 
  -4  -5  -8   26.74    4.07 
  -4  -5  -8   26.94    6.36 
   4   5   8   18.36    5.10 
  -5  -5  -8    2.99    1.20 
  -5  -5  -8    0.04    1.62 
  -6  -5  -8    0.24    0.91 
   4  -6  -8    3.60    2.40 
   3  -6  -8    0.04    1.31 
   2  -6  -8   16.53    4.02 
   1  -6  -8   16.78    3.66 
   0  -6  -8    2.49    1.27 
  -1  -6  -8   13.90    2.99 
  -2  -6  -8   17.61    3.36 
  -3  -6  -8    5.41    1.61 
  -4  -6  -8    0.86    0.86 
  -4  -6  -8    1.26    1.68 
  -5  -6  -8    5.13    3.17 
  -5  -6  -8    8.66    1.97 
  -5  -6  -8    8.22    2.08 
  -6  -6  -8    3.54    2.82 
   3  -7  -8    1.21    1.80 
   2  -7  -8    9.98    3.08 
   1  -7  -8   15.15    3.62 
   0  -7  -8    7.83    2.33 
  -1  -7  -8   38.28    6.11 
  -2  -7  -8   50.05    7.48 
  -3  -7  -8   74.77    9.86 
  -4  -7  -8    7.18    1.88 
  -5  -7  -8    2.48    2.23 
  -5  -7  -8    1.34    1.02 
  -6  -7  -8    0.66    1.00 
  -6  -7  -8   -1.16    1.59 
   2  -8  -8    2.24    2.05 
   1  -8  -8   22.11    4.68 
   0  -8  -8   11.51    2.92 
  -1  -8  -8   10.65    2.66 
  -2  -8  -8    5.68    1.80 
  -3  -8  -8   36.87    5.97 
  -4  -8  -8   32.37    5.20 
  -5  -8  -8   36.92    6.05 
  -5  -8  -8   47.52   10.13 
  -6  -8  -8   15.41    5.37 
   0  -9  -8    1.77    1.56 
  -1  -9  -8    7.14    2.27 
  -2  -9  -8   10.16    2.64 
  -3  -9  -8    1.21    1.13 
  -4  -9  -8   10.39    2.58 
  -5  -9  -8    5.44    1.77 
  -4  -1   9    4.61    2.12 
  -3  -1   9   -0.50    1.29 
  -2  -1   9    7.98    3.24 
  -1  -1   9   12.31    4.37 
  -4   0   9    1.57    1.68 
  -3   0   9    2.52    1.74 
  -2   0   9    8.61    3.09 
  -1   0   9    4.83    2.87 
   0   0   9    7.77    3.96 
   1   0   9    0.16    2.39 
   2   0   9   10.03    3.78 
  -5   1   9    2.21    1.76 
  -4   1   9    9.65    3.03 
  -3   1   9    7.82    2.92 
  -2   1   9    4.76    2.37 
  -1   1   9    7.16    3.10 
   0   1   9    6.70    3.45 
   1   1   9    1.19    2.68 
   2   1   9    0.82    2.78 
   3   1   9    0.43    2.11 
  -5   2   9   -0.20    1.14 
  -4   2   9    1.41    1.62 
   3  -2  -9    2.30    2.39 
  -3   2   9    5.92    2.53 
   2  -2  -9   14.12    3.57 
  -2   2   9   12.72    3.49 
   1  -2  -9   16.19    3.73 
   0   2   9   -1.28    1.71 
   1   2   9    1.76    2.88 
   2   2   9   11.05    4.52 
   3   2   9    2.37    3.53 
   4   2   9    7.22    3.91 
  -5   3   9    1.85    1.57 
   4  -3  -9    1.24    2.50 
  -4   3   9    6.23    2.22 
   3  -3  -9   16.66    4.28 
  -3   3   9   11.16    3.04 
   2  -3  -9   18.17    4.22 
  -2   3   9   16.68    4.27 
   1  -3  -9    7.46    2.44 
  -1   3   9    5.89    2.57 
   0  -3  -9    1.73    1.38 
   0   3   9    0.78    2.37 
   1   3   9   38.49    8.16 
   2   3   9   23.09    5.93 
   3   3   9   11.04    4.22 
   4   3   9   11.75    4.16 
   4  -4  -9   -0.56    2.01 
  -4   4   9    0.59    1.40 
   3  -4  -9    0.53    1.91 
  -3   4   9    1.75    1.69 
   2  -4  -9   17.25    4.22 
  -2   4   9   16.09    3.90 
   1  -4  -9   14.20    3.23 
  -1   4   9    8.60    3.07 
   0  -4  -9   -1.20    0.75 
   0   4   9   -0.89    1.96 
  -1  -4  -9   21.09    3.84 
   1   4   9   14.29    4.80 
   2   4   9    6.32    3.05 
   3   4   9   11.88    4.31 
   4   4   9    2.29    2.70 
  -5  -4  -9    3.34    1.59 
   4  -5  -9   -0.85    2.29 
  -4   5   9   -1.81    1.21 
   3  -5  -9    4.16    2.54 
  -3   5   9    2.98    2.02 
   2  -5  -9    4.73    2.31 
  -2   5   9    6.34    2.47 
   1  -5  -9   -0.84    1.19 
  -1   5   9    4.07    2.55 
   0  -5  -9    3.69    1.66 
   0   5   9   12.73    3.76 
  -1  -5  -9   10.57    2.62 
   1   5   9   13.78    4.47 
  -2  -5  -9   21.58    3.63 
   2   5   9   10.11    4.22 
   3   5   9    7.01    3.34 
   4   5   9   -2.03    1.97 
  -5  -5  -9    1.20    1.16 
   3  -6  -9   16.70    4.50 
   2  -6  -9   10.66    3.21 
   1  -6  -9    6.61    2.47 
   0  -6  -9   12.96    3.29 
  -1  -6  -9    1.14    0.99 
  -2  -6  -9   17.57    3.47 
  -3  -6  -9   19.16    3.63 
  -4  -6  -9   29.44    4.86 
   2  -7  -9    2.60    2.18 
   1  -7  -9   22.00    4.77 
   0  -7  -9   42.49    7.17 
  -1  -7  -9   13.64    3.30 
  -2  -7  -9   19.13    3.82 
  -3  -7  -9   10.27    2.54 
  -4  -7  -9   30.52    5.05 
  -5  -7  -9    1.48    1.09 
   1  -8  -9   -0.53    1.37 
   0  -8  -9    6.28    2.27 
  -1  -8  -9   10.07    2.78 
  -2  -8  -9   15.59    3.37 
  -3  -8  -9   13.19    2.94 
  -4  -8  -9   22.81    4.22 
  -2  -9  -9    0.27    1.05 
  -2   1  10    8.29    3.44 
  -1   1  10    0.02    2.54 
   0   1  10    1.52    2.90 
  -3   2  10    1.56    2.09 
  -2   2  10   15.48    4.26 
  -1   2  10   -0.09    2.20 
   0   2  10    2.11    2.57 
   1   2  10    3.27    2.81 
   2   2  10    1.77    2.81 
   3  -3 -10    6.21    2.89 
  -3   3  10    1.59    1.90 
   2  -3 -10    3.61    2.39 
  -2   3  10    4.76    2.70 
  -1   3  10   -0.77    2.09 
   0   3  10   16.17    5.09 
   1   3  10    0.66    2.85 
   2   3  10    6.46    3.73 
   3   3  10   12.15    4.96 
   3  -4 -10    0.12    2.22 
  -3   4  10    3.21    1.97 
   2  -4 -10    2.69    2.23 
  -2   4  10    3.17    2.42 
   1  -4 -10    8.56    2.79 
  -1   4  10    8.94    3.49 
   0  -4 -10   10.60    2.83 
   0   4  10   10.00    4.19 
   1   4  10    1.23    2.92 
   2   4  10   13.88    4.96 
   3   4  10   10.00    4.32 
   2  -5 -10    3.99    2.25 
  -2   5  10    1.72    2.22 
   1  -5 -10   10.28    3.09 
  -1   5  10    8.98    3.66 
   0  -5 -10    7.34    2.55 
   0   5  10    9.02    3.71 
  -1  -5 -10   14.56    3.26 
   1   5  10    9.01    4.24 
   2   5  10    2.00    2.92 
   3   5  10   18.35    5.55 
   2  -6 -10    2.19    2.25 
   1  -6 -10   24.06    5.26 
   0  -6 -10    6.78    2.37 
  -1  -6 -10    5.46    2.15 
  -2  -6 -10    1.35    1.26 
   0  -7 -10    0.89    1.55 
  -1  -7 -10   12.91    3.28 
  -2  -7 -10    7.69    2.40 
  -3  -7 -10    9.08    2.45 
   0   0   0    0.00    0.00 
;
_shelx_hkl_checksum              27176
loop_
_space_group_symop_operation_xyz
'x, y, z'
'-x, -y, -z'
loop_
_atom_site_label
_atom_site_type_symbol
_atom_site_fract_x
_atom_site_fract_y
_atom_site_fract_z
_atom_site_U_iso_or_equiv
_atom_site_adp_type
_atom_site_occupancy
_atom_site_site_symmetry_order
_atom_site_calc_flag
_atom_site_refinement_flags_posn
_atom_site_refinement_flags_adp
_atom_site_refinement_flags_occupancy
_atom_site_disorder_assembly
_atom_site_disorder_group
Co1 Co 1.0000 0.5000 0.5000 0.0192(4) Uani 1 2 d S . P . .
O1 O 0.8240(6) 0.4258(7) 0.3714(6) 0.0263(10) Uani 1 1 d . . . . .
O2 O 1.0106(6) 0.2697(8) 0.2251(7) 0.0441(14) Uani 1 1 d . . . . .
O3 O 1.2385(6) 0.3989(7) 0.3715(6) 0.0338(11) Uani 1 1 d . . . . .
H3A H 1.3532 0.3409 0.4300 0.051 Uiso 1 1 d R U . . .
H3B H 1.2111 0.3155 0.3476 0.051 Uiso 1 1 d R U . . .
O4 O 0.6082(8) 0.1963(9) 0.5803(8) 0.0530(15) Uani 1 1 d . . . . .
H4A H 0.6636 0.1060 0.6859 0.079 Uiso 1 1 d R U . . .
H4B H 0.6697 0.2752 0.5465 0.079 Uiso 1 1 d R U . . .
N1 N 0.9030(7) -0.2108(7) 0.2754(7) 0.0262(11) Uani 1 1 d . . . . .
N2 N 0.7440(6) 0.1042(7) 0.1131(7) 0.0229(11) Uani 1 1 d . . . . .
N3 N 0.7716(7) 0.0215(8) -0.0075(7) 0.0247(11) Uani 1 1 d . . . . .
C1 C 0.8534(8) 0.3629(9) 0.2496(8) 0.0240(13) Uani 1 1 d . . . . .
C2 C 0.5393(8) 0.6141(9) 0.0715(9) 0.0240(13) Uani 1 1 d . . . . .
H2 H 0.5629 0.6930 0.1196 0.029 Uiso 1 1 calc R U . . .
C3 C 0.6697(7) 0.4221(9) 0.1271(8) 0.0197(12) Uani 1 1 d . . . . .
C4 C 0.6266(7) 0.3078(8) 0.0547(8) 0.0211(12) Uani 1 1 d . . . . .
C5 C 0.8216(8) -0.0375(9) 0.2803(8) 0.0267(13) Uani 1 1 d . . . . .
H5 H 0.8192 -0.0180 0.3847 0.032 Uiso 1 1 calc R U . . .
C6 C 0.8683(8) -0.1634(8) 0.0966(8) 0.0233(13) Uani 1 1 d . . . . .
H6 H 0.9112 -0.2577 0.0519 0.028 Uiso 1 1 calc R U . . .
loop_
_atom_site_aniso_label
_atom_site_aniso_U_11
_atom_site_aniso_U_22
_atom_site_aniso_U_33
_atom_site_aniso_U_23
_atom_site_aniso_U_13
_atom_site_aniso_U_12
Co1 0.0167(6) 0.0167(7) 0.0282(7) -0.0140(5) -0.0053(4) -0.0050(4)
O1 0.0233(19) 0.032(3) 0.029(2) -0.020(2) -0.0071(16) -0.0085(18)
O2 0.020(2) 0.062(4) 0.066(4) -0.054(3) -0.008(2) 0.000(2)
O3 0.026(2) 0.038(3) 0.051(3) -0.031(3) 0.007(2) -0.012(2)
O4 0.042(3) 0.060(4) 0.053(3) -0.015(3) 0.001(2) -0.028(3)
N1 0.026(2) 0.018(3) 0.033(3) -0.013(2) -0.004(2) -0.004(2)
N2 0.021(2) 0.020(3) 0.032(3) -0.015(2) -0.004(2) -0.007(2)
N3 0.028(2) 0.020(3) 0.033(3) -0.018(2) -0.002(2) -0.009(2)
C1 0.024(3) 0.024(3) 0.031(3) -0.017(3) -0.009(2) -0.010(2)
C2 0.022(2) 0.017(3) 0.039(3) -0.017(3) -0.001(2) -0.008(2)
C3 0.019(2) 0.020(3) 0.021(3) -0.009(2) -0.009(2) -0.007(2)
C4 0.021(2) 0.013(3) 0.029(3) -0.010(3) -0.003(2) -0.005(2)
C5 0.030(3) 0.017(3) 0.029(3) -0.009(3) -0.007(2) -0.004(2)
C6 0.025(3) 0.019(3) 0.030(3) -0.015(3) 0.000(2) -0.008(2)
loop_
_atom_type_symbol
_atom_type_description
_atom_type_scat_dispersion_real
_atom_type_scat_dispersion_imag
_atom_type_scat_source
C C 0.0033 0.0016 'International Tables Vol C Tables 4.2.6.8 and 6.1.1.4'
H H 0.0000 0.0000 'International Tables Vol C Tables 4.2.6.8 and 6.1.1.4'
N N 0.0061 0.0033 'International Tables Vol C Tables 4.2.6.8 and 6.1.1.4'
O O 0.0106 0.0060 'International Tables Vol C Tables 4.2.6.8 and 6.1.1.4'
Co Co 0.3494 0.9721 'International Tables Vol C Tables 4.2.6.8 and 6.1.1.4'
loop_
_geom_angle_atom_site_label_1
_geom_angle_atom_site_label_2
_geom_angle_atom_site_label_3
_geom_angle
_geom_angle_site_symmetry_1
_geom_angle_site_symmetry_3
_geom_angle_publ_flag
O1 Co1 O1 180.0 2_766 . ?
O1 Co1 O3 91.22(16) 2_766 2_766 ?
O1 Co1 O3 88.78(16) . 2_766 ?
O1 Co1 O3 88.78(16) 2_766 . ?
O1 Co1 O3 91.22(16) . . ?
O3 Co1 O3 180.0 2_766 . ?
O1 Co1 N1 88.54(19) 2_766 2_756 ?
O1 Co1 N1 91.46(19) . 2_756 ?
O3 Co1 N1 90.58(19) 2_766 2_756 ?
O3 Co1 N1 89.42(19) . 2_756 ?
O1 Co1 N1 91.46(19) 2_766 1_565 ?
O1 Co1 N1 88.54(19) . 1_565 ?
O3 Co1 N1 89.42(19) 2_766 1_565 ?
O3 Co1 N1 90.58(19) . 1_565 ?
N1 Co1 N1 180.0 2_756 1_565 ?
C1 O1 Co1 131.1(4) . . ?
Co1 O3 H3A 119.6 . . ?
Co1 O3 H3B 102.8 . . ?
H3A O3 H3B 107.4 . . ?
H4A O4 H4B 107.4 . . ?
C5 N1 C6 103.1(5) . . ?
C5 N1 Co1 127.6(4) . 1_545 ?
C6 N1 Co1 127.7(4) . 1_545 ?
C5 N2 N3 109.4(5) . . ?
C5 N2 C4 129.6(5) . . ?
N3 N2 C4 120.6(5) . . ?
C6 N3 N2 102.4(5) . . ?
O2 C1 O1 125.8(5) . . ?
O2 C1 C3 120.8(5) . . ?
O1 C1 C3 113.4(5) . . ?
C3 C2 C4 121.5(5) . 2_665 ?
C3 C2 H2 119.2 . . ?
C4 C2 H2 119.2 2_665 . ?
C2 C3 C4 117.3(5) . . ?
C2 C3 C1 116.1(5) . . ?
C4 C3 C1 126.4(5) . . ?
C2 C4 C3 121.1(5) 2_665 . ?
C2 C4 N2 117.2(5) 2_665 . ?
C3 C4 N2 121.6(5) . . ?
N1 C5 N2 109.7(5) . . ?
N1 C5 H5 125.2 . . ?
N2 C5 H5 125.2 . . ?
N3 C6 N1 115.4(5) . . ?
N3 C6 H6 122.3 . . ?
N1 C6 H6 122.3 . . ?
loop_
_geom_bond_atom_site_label_1
_geom_bond_atom_site_label_2
_geom_bond_distance
_geom_bond_site_symmetry_2
_geom_bond_publ_flag
Co1 O1 2.058(4) 2_766 ?
Co1 O1 2.058(4) . ?
Co1 O3 2.133(4) 2_766 ?
Co1 O3 2.133(4) . ?
Co1 N1 2.142(5) 2_756 ?
Co1 N1 2.142(5) 1_565 ?
O1 C1 1.277(7) . ?
O2 C1 1.214(7) . ?
O3 H3A 0.8501 . ?
O3 H3B 0.8501 . ?
O4 H4A 0.8504 . ?
O4 H4B 0.8502 . ?
N1 C5 1.325(7) . ?
N1 C6 1.354(8) . ?
N1 Co1 2.142(5) 1_545 ?
N2 C5 1.330(8) . ?
N2 N3 1.378(6) . ?
N2 C4 1.424(7) . ?
N3 C6 1.291(8) . ?
C1 C3 1.510(7) . ?
C2 C3 1.382(8) . ?
C2 C4 1.392(8) 2_665 ?
C2 H2 0.9300 . ?
C3 C4 1.393(7) . ?
C4 C2 1.392(8) 2_665 ?
C5 H5 0.9300 . ?
C6 H6 0.9300 . ?
loop_
_geom_torsion_atom_site_label_1
_geom_torsion_atom_site_label_2
_geom_torsion_atom_site_label_3
_geom_torsion_atom_site_label_4
_geom_torsion
_geom_torsion_site_symmetry_1
_geom_torsion_site_symmetry_2
_geom_torsion_site_symmetry_3
_geom_torsion_site_symmetry_4
_geom_torsion_publ_flag
C5 N2 N3 C6 -1.5(6) . . . . ?
C4 N2 N3 C6 -174.5(5) . . . . ?
Co1 O1 C1 O2 27.1(10) . . . . ?
Co1 O1 C1 C3 -150.8(4) . . . . ?
C4 C2 C3 C4 -1.3(10) 2_665 . . . ?
C4 C2 C3 C1 174.0(5) 2_665 . . . ?
O2 C1 C3 C2 -136.2(7) . . . . ?
O1 C1 C3 C2 41.8(8) . . . . ?
O2 C1 C3 C4 38.6(10) . . . . ?
O1 C1 C3 C4 -143.4(6) . . . . ?
C2 C3 C4 C2 1.3(10) . . . 2_665 ?
C1 C3 C4 C2 -173.4(5) . . . 2_665 ?
C2 C3 C4 N2 -175.4(5) . . . . ?
C1 C3 C4 N2 9.9(9) . . . . ?
C5 N2 C4 C2 -133.9(6) . . . 2_665 ?
N3 N2 C4 C2 37.5(7) . . . 2_665 ?
C5 N2 C4 C3 42.9(9) . . . . ?
N3 N2 C4 C3 -145.7(5) . . . . ?
C6 N1 C5 N2 -0.3(6) . . . . ?
Co1 N1 C5 N2 -166.6(4) 1_545 . . . ?
N3 N2 C5 N1 1.2(6) . . . . ?
C4 N2 C5 N1 173.3(5) . . . . ?
N2 N3 C6 N1 1.5(6) . . . . ?
C5 N1 C6 N3 -0.8(6) . . . . ?
Co1 N1 C6 N3 165.5(4) 1_545 . . . ?
