#------------------------------------------------------------------------------
#$Date: 2021-10-06 17:47:52 +0300 (Wed, 06 Oct 2021) $
#$Revision: 269667 $
#$URL: file:///home/coder/svn-repositories/cod/cif/7/24/33/7243369.cif $
#------------------------------------------------------------------------------
#
# This file is available in the Crystallography Open Database (COD),
# http://www.crystallography.net/
#
# All data on this site have been placed in the public domain by the
# contributors.
#
data_7243369
loop_
_publ_author_name
'Deng, Liming'
'Zhao, Huihui'
'Liu, Kang'
'Ma, Dingxuan'
_publ_section_title
;
 Efficient luminescence sensing in two lanthanide metal--organic
 frameworks with rich uncoordinated Lewis basic sites
;
_journal_issue                   37
_journal_name_full               CrystEngComm
_journal_page_first              6591
_journal_page_last               6598
_journal_paper_doi               10.1039/D1CE00923K
_journal_volume                  23
_journal_year                    2021
_chemical_formula_moiety         'C15 H10 N4 O7 Tb'
_chemical_formula_sum            'C15 H10 N4 O7 Tb'
_chemical_formula_weight         517.19
_space_group_crystal_system      triclinic
_space_group_IT_number           2
_space_group_name_Hall           '-P 1'
_space_group_name_H-M_alt        'P -1'
_atom_sites_solution_hydrogens   mixed
_atom_sites_solution_primary     iterative
_audit_creation_date             2019-01-17
_audit_creation_method
;
Olex2 1.2
(compiled 2013.09.17 svn.r2790 for OlexSys, GUI svn.r4601)
;
_audit_update_record
;
2020-05-11 deposited with the CCDC.	2021-08-12 downloaded from the CCDC.
;
_cell_angle_alpha                101.681(5)
_cell_angle_beta                 102.242(5)
_cell_angle_gamma                107.250(6)
_cell_formula_units_Z            2
_cell_length_a                   8.2132(5)
_cell_length_b                   9.9550(7)
_cell_length_c                   11.4034(6)
_cell_measurement_reflns_used    3572
_cell_measurement_temperature    293(2)
_cell_measurement_theta_max      29.1930
_cell_measurement_theta_min      2.8260
_cell_volume                     834.27(10)
_computing_cell_refinement
;
CrysAlisPro, Agilent Technologies,
Version 1.171.36.28 (release 01-02-2013 CrysAlis171 .NET)
(compiled Feb  1 2013,16:14:44)
;
_computing_data_collection
;
CrysAlisPro, Agilent Technologies,
Version 1.171.36.28 (release 01-02-2013 CrysAlis171 .NET)
(compiled Feb  1 2013,16:14:44)
;
_computing_data_reduction
;
CrysAlisPro, Agilent Technologies,
Version 1.171.36.28 (release 01-02-2013 CrysAlis171 .NET)
(compiled Feb  1 2013,16:14:44)
;
_computing_molecular_graphics
;
O. V. Dolomanov, L. J. Bourhis, R. J. Gildea, J. A. K. Howard and H. Puschmann,
OLEX2: a complete structure solution, refinement and analysis program.
J. Appl. Cryst. (2009). 42, 339-341.
;
_computing_publication_material
;
O. V. Dolomanov, L. J. Bourhis, R. J. Gildea, J. A. K. Howard and H. Puschmann,
OLEX2: a complete structure solution, refinement and analysis program.
J. Appl. Cryst. (2009). 42, 339-341.
;
_computing_structure_refinement
;
SHELX, G.M. Sheldrick, Acta Cryst.
(2008). A64, 112-122
;
_computing_structure_solution
'SUPERFLIP, J. Appl. Cryst. (2007) 40, 786-790'
_diffrn_ambient_temperature      293(2)
_diffrn_detector_area_resol_mean 10.5095
_diffrn_measured_fraction_theta_full 0.9994
_diffrn_measured_fraction_theta_max 0.5627
_diffrn_measurement_device_type  'Xcalibur, Atlas, Gemini ultra'
_diffrn_measurement_method       '\w scans'
_diffrn_orient_matrix_UB_11      -0.0438338000
_diffrn_orient_matrix_UB_12      -0.0110332000
_diffrn_orient_matrix_UB_13      -0.0637309000
_diffrn_orient_matrix_UB_21      0.0058962000
_diffrn_orient_matrix_UB_22      -0.0707624000
_diffrn_orient_matrix_UB_23      -0.0153389000
_diffrn_orient_matrix_UB_31      -0.0835298000
_diffrn_orient_matrix_UB_32      -0.0304385000
_diffrn_orient_matrix_UB_33      0.0105078000
_diffrn_radiation_monochromator  graphite
_diffrn_radiation_type           'Mo K\a'
_diffrn_radiation_wavelength     0.7107
_diffrn_reflns_av_R_equivalents  0.0343
_diffrn_reflns_av_unetI/netI     0.0549
_diffrn_reflns_Laue_measured_fraction_full 0.981
_diffrn_reflns_Laue_measured_fraction_max 1.000
_diffrn_reflns_limit_h_max       9
_diffrn_reflns_limit_h_min       -9
_diffrn_reflns_limit_k_max       11
_diffrn_reflns_limit_k_min       -10
_diffrn_reflns_limit_l_max       12
_diffrn_reflns_limit_l_min       -13
_diffrn_reflns_number            5814
_diffrn_reflns_point_group_measured_fraction_full 0.981
_diffrn_reflns_point_group_measured_fraction_max 1.000
_diffrn_reflns_theta_full        25.214
_diffrn_reflns_theta_max         24.999
_diffrn_reflns_theta_min         2.232
_diffrn_source                   'Enhance (Mo) X-ray Source'
_exptl_absorpt_coefficient_mu    4.287
_exptl_absorpt_correction_T_max  1.00000
_exptl_absorpt_correction_T_min  0.73364
_exptl_absorpt_correction_type   multi-scan
_exptl_absorpt_process_details
;
CrysAlisPro, Agilent Technologies,
Version 1.171.36.28 (release 01-02-2013 CrysAlis171 .NET)
(compiled Feb  1 2013,16:14:44)
Empirical absorption correction using spherical harmonics,
 implemented in SCALE3 ABSPACK scaling algorithm.
;
_exptl_crystal_colour            colorless
_exptl_crystal_density_diffrn    2.059
_exptl_crystal_description       block
_exptl_crystal_F_000             498
_exptl_crystal_size_max          0.34
_exptl_crystal_size_mid          0.25
_exptl_crystal_size_min          0.23
_refine_diff_density_max         1.204
_refine_diff_density_min         -0.806
_refine_diff_density_rms         0.153
_refine_ls_extinction_method     none
_refine_ls_goodness_of_fit_ref   1.076
_refine_ls_hydrogen_treatment    mixed
_refine_ls_matrix_type           full
_refine_ls_number_parameters     249
_refine_ls_number_reflns         2945
_refine_ls_number_restraints     0
_refine_ls_restrained_S_all      1.076
_refine_ls_R_factor_all          0.0382
_refine_ls_R_factor_gt           0.0322
_refine_ls_shift/su_max          0.001
_refine_ls_shift/su_mean         0.000
_refine_ls_structure_factor_coef Fsqd
_refine_ls_weighting_details
;
 w=1/[\s^2^(Fo^2^)+(0.0347P)^2^]
 where P=(Fo^2^+2Fc^2^)/3
;
_refine_ls_weighting_scheme      calc
_refine_ls_wR_factor_gt          0.0716
_refine_ls_wR_factor_ref         0.0751
_reflns_Friedel_coverage         0.000
_reflns_number_gt                2665
_reflns_number_total             2945
_reflns_threshold_expression     'I > 2\s(I)'
_cod_data_source_file            d1ce00923k2.cif
_cod_data_source_block           ab-hnsf-09
_cod_depositor_comments
'Adding full bibliography for 7243368--7243369.cif.'
_cod_database_code               7243369
_shelxl_version_number           2013-2
_chemical_oxdiff_formula         'C1 O1 Zn1'
_shelx_space_group_comment
;
The symmetry employed for this shelxl refinement is uniquely defined
by the following loop, which should always be used as a source of
symmetry information in preference to the above space-group names.
They are only intended as comments.
;
_reflns_odcompleteness_completeness 99.94
_reflns_odcompleteness_iscentric 1
_reflns_odcompleteness_theta     26.32
_olex2_refinement_description
;
1. Fixed Uiso
 At 1.2 times of:
  All C(H) groups
 At 1.5 times of:
  All O(H) groups
2.a Rotating group:
 O6(H6A)
2.b Aromatic/amide H refined with riding coordinates:
 C3(H3), C4(H4), C5(H5), C7(H7), C9(H9), C10(H10), C11(H11), C13(H13)
;
_shelx_res_file
;
TITL AB-HNSF-09 in P1
CELL 0.71 8.213168 9.955004 11.403367 101.681 102.2418 107.2498
ZERR 2 0.000504 0.000714 0.000646 0.0054 0.005 0.0059
LATT 1
 
SFAC C H N O Tb
UNIT 30 20 8 14 2
 
L.S. 20 0 0
PLAN  5
omit-3 50
fmap 2 53
acta
MORE -1
BOND $H
CONF
REM <HKL>C:/Users/dlm/Desktop/Ln-DTA/Tb+H2dta/tmp1/AB-HNSF-09.hkl</HKL>
 
WGHT    0.034700
FVAR       2.68103
TB1   5    0.116699    0.486532    0.272514    11.00000    0.01677    0.01726 =
         0.01797    0.00004    0.00536    0.00636
O1    4    0.095759    0.384673    0.058889    11.00000    0.04775    0.04250 =
         0.02049    0.00588    0.00635    0.02881
O2    4   -0.136138    0.301004    0.241430    11.00000    0.02077    0.02993 =
         0.04905   -0.01341    0.01114   -0.00403
O3    4   -0.005895    0.607241    0.136942    11.00000    0.06592    0.05328 =
         0.02137    0.00698    0.01366    0.04171
O4    4   -0.054417    0.610884    0.375377    11.00000    0.02748    0.01366 =
         0.03498    0.00016    0.01297    0.00544
O5    4    0.209896    0.748808    0.376665    11.00000    0.02284    0.01999 =
         0.04022    0.00527    0.01557    0.01015
O6    4    0.251509    0.518915    0.487180    11.00000    0.03691    0.02659 =
         0.02325    0.00225    0.00839    0.00705
AFIX   7
H6A   2    0.180786    0.458268    0.515631    11.00000   -1.50000
AFIX   0
H6B   2    0.279696    0.592712    0.530661    11.00000    0.01720
O7    4   -0.344367    0.222038    0.331108    11.00000    0.03715    0.04358 =
         0.02925   -0.00454    0.00732    0.00224
N1    3    0.215334    0.265118    0.255196    11.00000    0.02199    0.02783 =
         0.03266    0.00221    0.00684    0.01143
N2    3    0.425724    0.605924    0.263625    11.00000    0.01958    0.02463 =
         0.03109   -0.00203    0.01129    0.00293
N3    3    0.315030    0.105311    0.156099    11.00000    0.01854    0.02519 =
         0.02920   -0.00001    0.01071    0.00935
N4    3    0.702427    0.765413    0.333389    11.00000    0.01394    0.01942 =
         0.02989   -0.00134    0.00836    0.00030
C1    1   -0.287752    0.220012    0.240794    11.00000    0.01712    0.01812 =
         0.03119   -0.00249    0.00245    0.00760
C2    1    0.061367    0.734209    0.396404    11.00000    0.02395    0.02663 =
         0.01530    0.00097    0.00799    0.01196
C3    1    0.551762    0.700804    0.361520    11.00000    0.02547    0.02471 =
         0.03378   -0.00244    0.01368    0.00231
AFIX  43
H3    2    0.539070    0.721504    0.441637    11.00000   -1.20000
AFIX   0
C4    1    0.499846    0.608493    0.165591    11.00000    0.03091    0.04307 =
         0.02536   -0.00161    0.00423    0.00478
AFIX  43
H4    2    0.441610    0.551847    0.083171    11.00000   -1.20000
AFIX   0
C5    1    0.670656    0.706067    0.207193    11.00000    0.02461    0.04336 =
         0.03421    0.00153    0.01422    0.00239
AFIX  43
H5    2    0.749319    0.727948    0.160062    11.00000   -1.20000
AFIX   0
C6    1    0.856024    0.882185    0.417569    11.00000    0.01977    0.01754 =
         0.02940    0.00172    0.01252    0.00122
C7    1    0.833663    1.009311    0.473164    11.00000    0.01671    0.01919 =
         0.03296    0.00271    0.00541    0.00783
AFIX  43
H7    2    0.719965    1.014052    0.456148    11.00000   -1.20000
AFIX   0
C8    1    0.975267    1.129782    0.553382    11.00000    0.02082    0.01748 =
         0.02725    0.00612    0.01025    0.00752
C9    1    0.130470    0.127344    0.263382    11.00000    0.05485    0.03578 =
         0.04673    0.01875    0.03970    0.02720
AFIX  43
H9    2    0.044313    0.105055    0.304855    11.00000   -1.20000
AFIX   0
C10   1    0.324138    0.244435    0.189318    11.00000    0.02730    0.02330 =
         0.04482    0.00973    0.01875    0.01017
AFIX  43
H10   2    0.399858    0.319436    0.168054    11.00000   -1.20000
AFIX   0
C11   1    0.189322    0.029084    0.203048    11.00000    0.05288    0.02672 =
         0.06402    0.01535    0.04208    0.01768
AFIX  43
H11   2    0.151724   -0.071007    0.194959    11.00000   -1.20000
AFIX   0
C12   1    0.412559    0.049617    0.080221    11.00000    0.02151    0.02074 =
         0.02303   -0.00182    0.00910    0.00766
C13   1    0.317365   -0.056983   -0.031333    11.00000    0.01493    0.02332 =
         0.03049   -0.00457    0.00321    0.00143
AFIX  43
H13   2    0.193649   -0.094548   -0.052289    11.00000   -1.20000
AFIX   0
C14   1    0.402320   -0.109475   -0.113100    11.00000    0.01756    0.01961 =
         0.02655   -0.00115    0.00502    0.00423
C15   1    0.028956    0.435046   -0.022319    11.00000    0.02522    0.02708 =
         0.02064    0.00048    0.00461    0.01188
HKLF 4
 
REM  AB-HNSF-09 in P1
REM R1 =  0.0322 for    2665 Fo > 4sig(Fo)  and  0.0382 for all    2945 data
REM    249 parameters refined using      0 restraints
 
END  
     
WGHT      0.0347      0.0000 

REM Highest difference peak  1.204,  deepest hole -0.806,  1-sigma level  0.153
Q1    1   0.1697  0.5542  0.3760  11.00000  0.05    1.20
Q2    1   0.0761  0.4191  0.1602  11.00000  0.05    1.06
Q3    1   0.1799  0.4105  0.2398  11.00000  0.05    0.85
Q4    1   0.0448  0.4907  0.1797  11.00000  0.05    0.80
Q5    1   0.0426  0.5409  0.1219  11.00000  0.05    0.72

REM The information below was added by Olex2.
REM
REM R1 = 0.0322 for 2665 Fo > 4sig(Fo) and 0.0382 for all 6946 data
REM n/a parameters refined using n/a restraints
REM Highest difference peak 1.20, deepest hole -0.81
REM Mean Shift 0, Max Shift 0.

REM +++ Tabular Listing of Refinement Information +++
REM R1_all = 0.0382
REM R1_gt = 0.0322
REM wR_ref = 0.0751
REM GOOF = 1.076
REM Shift_max = 0
REM Shift_mean = 0
REM Reflections_all = 6946
REM Reflections_gt = 2665
REM Parameters = n/a
REM Hole = -0.81
REM Peak = 1.20
REM Flack = n/a

;
loop_
_space_group_symop_operation_xyz
'x, y, z'
'-x, -y, -z'
loop_
_atom_site_label
_atom_site_type_symbol
_atom_site_fract_x
_atom_site_fract_y
_atom_site_fract_z
_atom_site_U_iso_or_equiv
_atom_site_adp_type
_atom_site_occupancy
_atom_site_site_symmetry_order
_atom_site_calc_flag
_atom_site_refinement_flags_posn
_atom_site_refinement_flags_adp
_atom_site_refinement_flags_occupancy
_atom_site_disorder_assembly
_atom_site_disorder_group
Tb1 Tb 0.11670(3) 0.48653(3) 0.27251(2) 0.01799(11) Uani 1 1 d . . . . .
O1 O 0.0958(6) 0.3847(5) 0.0589(3) 0.0350(10) Uani 1 1 d . . . . .
O2 O -0.1361(5) 0.3010(5) 0.2414(4) 0.0400(12) Uani 1 1 d . . . . .
O3 O -0.0059(6) 0.6072(5) 0.1369(3) 0.0424(12) Uani 1 1 d . . . . .
O4 O -0.0544(5) 0.6109(4) 0.3754(3) 0.0262(9) Uani 1 1 d . . . . .
O5 O 0.2099(5) 0.7488(4) 0.3767(4) 0.0265(9) Uani 1 1 d . . . . .
O6 O 0.2515(6) 0.5189(5) 0.4872(4) 0.0307(10) Uani 1 1 d . . . . .
H6A H 0.1808 0.4583 0.5156 0.046 Uiso 1 1 d R U . . .
H6B H 0.280(8) 0.593(6) 0.531(5) 0.017(18) Uiso 1 1 d . . . . .
O7 O -0.3444(6) 0.2220(5) 0.3311(4) 0.0422(12) Uani 1 1 d . . . . .
N1 N 0.2153(6) 0.2651(5) 0.2552(4) 0.0281(11) Uani 1 1 d . . . . .
N2 N 0.4257(6) 0.6059(5) 0.2636(4) 0.0272(12) Uani 1 1 d . . . . .
N3 N 0.3150(6) 0.1053(5) 0.1561(4) 0.0245(11) Uani 1 1 d . . . . .
N4 N 0.7024(6) 0.7654(5) 0.3334(4) 0.0234(11) Uani 1 1 d . . . . .
C1 C -0.2878(7) 0.2200(6) 0.2408(5) 0.0241(13) Uani 1 1 d . . . . .
C2 C 0.0614(7) 0.7342(6) 0.3964(5) 0.0217(13) Uani 1 1 d . . . . .
C3 C 0.5518(8) 0.7008(6) 0.3615(5) 0.0304(15) Uani 1 1 d . . . . .
H3 H 0.5391 0.7215 0.4416 0.036 Uiso 1 1 calc R U . . .
C4 C 0.4998(8) 0.6085(7) 0.1656(6) 0.0375(16) Uani 1 1 d . . . . .
H4 H 0.4416 0.5518 0.0832 0.045 Uiso 1 1 calc R U . . .
C5 C 0.6707(8) 0.7061(7) 0.2072(6) 0.0369(16) Uani 1 1 d . . . . .
H5 H 0.7493 0.7279 0.1601 0.044 Uiso 1 1 calc R U . . .
C6 C 0.8560(7) 0.8822(6) 0.4176(5) 0.0234(13) Uani 1 1 d . . . . .
C7 C 0.8337(7) 1.0093(6) 0.4732(5) 0.0236(13) Uani 1 1 d . . . . .
H7 H 0.7200 1.0141 0.4561 0.028 Uiso 1 1 calc R U . . .
C8 C 0.9753(7) 1.1298(6) 0.5534(5) 0.0212(12) Uani 1 1 d . . . . .
C9 C 0.1305(9) 0.1273(7) 0.2634(6) 0.0379(16) Uani 1 1 d . . . . .
H9 H 0.0443 0.1051 0.3049 0.046 Uiso 1 1 calc R U . . .
C10 C 0.3241(8) 0.2444(7) 0.1893(5) 0.0302(14) Uani 1 1 d . . . . .
H10 H 0.3999 0.3194 0.1681 0.036 Uiso 1 1 calc R U . . .
C11 C 0.1893(9) 0.0291(7) 0.2030(6) 0.0425(18) Uani 1 1 d . . . . .
H11 H 0.1517 -0.0710 0.1950 0.051 Uiso 1 1 calc R U . . .
C12 C 0.4126(7) 0.0496(6) 0.0802(5) 0.0226(13) Uani 1 1 d . . . . .
C13 C 0.3174(7) -0.0570(6) -0.0313(5) 0.0267(13) Uani 1 1 d . . . . .
H13 H 0.1936 -0.0945 -0.0523 0.032 Uiso 1 1 calc R U . . .
C14 C 0.4023(7) -0.1095(6) -0.1131(5) 0.0232(13) Uani 1 1 d . . . . .
C15 C 0.0290(8) 0.4350(6) -0.0223(5) 0.0250(13) Uani 1 1 d . . . . .
loop_
_atom_site_aniso_label
_atom_site_aniso_U_11
_atom_site_aniso_U_22
_atom_site_aniso_U_33
_atom_site_aniso_U_23
_atom_site_aniso_U_13
_atom_site_aniso_U_12
Tb1 0.01677(16) 0.01726(17) 0.01797(16) 0.00004(11) 0.00536(11) 0.00636(12)
O1 0.048(3) 0.042(3) 0.020(2) 0.0059(18) 0.006(2) 0.029(2)
O2 0.021(2) 0.030(3) 0.049(3) -0.013(2) 0.011(2) -0.004(2)
O3 0.066(3) 0.053(3) 0.021(2) 0.007(2) 0.014(2) 0.042(3)
O4 0.027(2) 0.014(2) 0.035(2) 0.0002(16) 0.0130(18) 0.0054(19)
O5 0.023(2) 0.020(2) 0.040(2) 0.0053(17) 0.0156(19) 0.0101(18)
O6 0.037(3) 0.027(3) 0.023(2) 0.002(2) 0.008(2) 0.007(2)
O7 0.037(3) 0.044(3) 0.029(2) -0.005(2) 0.007(2) 0.002(2)
N1 0.022(3) 0.028(3) 0.033(3) 0.002(2) 0.007(2) 0.011(2)
N2 0.020(3) 0.025(3) 0.031(3) -0.002(2) 0.011(2) 0.003(2)
N3 0.019(2) 0.025(3) 0.029(3) 0.000(2) 0.011(2) 0.009(2)
N4 0.014(2) 0.019(3) 0.030(3) -0.001(2) 0.008(2) 0.000(2)
C1 0.017(3) 0.018(3) 0.031(3) -0.002(2) 0.002(3) 0.008(3)
C2 0.024(3) 0.027(3) 0.015(3) 0.001(2) 0.008(2) 0.012(3)
C3 0.025(3) 0.025(3) 0.034(3) -0.002(3) 0.014(3) 0.002(3)
C4 0.031(4) 0.043(4) 0.025(3) -0.002(3) 0.004(3) 0.005(3)
C5 0.025(3) 0.043(4) 0.034(3) 0.002(3) 0.014(3) 0.002(3)
C6 0.020(3) 0.018(3) 0.029(3) 0.002(2) 0.013(3) 0.001(2)
C7 0.017(3) 0.019(3) 0.033(3) 0.003(2) 0.005(2) 0.008(3)
C8 0.021(3) 0.017(3) 0.027(3) 0.006(2) 0.010(2) 0.008(2)
C9 0.055(4) 0.036(4) 0.047(4) 0.019(3) 0.040(4) 0.027(3)
C10 0.027(3) 0.023(3) 0.045(4) 0.010(3) 0.019(3) 0.010(3)
C11 0.053(5) 0.027(4) 0.064(4) 0.015(3) 0.042(4) 0.018(3)
C12 0.022(3) 0.021(3) 0.023(3) -0.002(2) 0.009(2) 0.008(2)
C13 0.015(3) 0.023(3) 0.030(3) -0.005(2) 0.003(2) 0.001(3)
C14 0.018(3) 0.020(3) 0.027(3) -0.001(2) 0.005(2) 0.004(2)
C15 0.025(3) 0.027(3) 0.021(3) 0.000(2) 0.005(2) 0.012(3)
loop_
_atom_type_symbol
_atom_type_description
_atom_type_scat_dispersion_real
_atom_type_scat_dispersion_imag
_atom_type_scat_source
C C 0.0033 0.0016 'International Tables Vol C Tables 4.2.6.8 and 6.1.1.4'
H H 0.0000 0.0000 'International Tables Vol C Tables 4.2.6.8 and 6.1.1.4'
N N 0.0061 0.0033 'International Tables Vol C Tables 4.2.6.8 and 6.1.1.4'
O O 0.0106 0.0060 'International Tables Vol C Tables 4.2.6.8 and 6.1.1.4'
Tb Tb -0.1723 4.1537 'International Tables Vol C Tables 4.2.6.8 and 6.1.1.4'
loop_
_geom_angle_atom_site_label_1
_geom_angle_atom_site_label_2
_geom_angle_atom_site_label_3
_geom_angle
_geom_angle_site_symmetry_1
_geom_angle_site_symmetry_3
_geom_angle_publ_flag
O1 Tb1 O4 133.82(14) . . ?
O1 Tb1 O5 124.82(14) . . ?
O1 Tb1 N1 70.93(15) . . ?
O1 Tb1 N2 77.40(15) . . ?
O1 Tb1 C2 132.97(15) . . ?
O2 Tb1 O1 86.72(15) . . ?
O2 Tb1 O3 96.92(18) . . ?
O2 Tb1 O4 77.93(14) . . ?
O2 Tb1 O5 131.07(14) . . ?
O2 Tb1 O6 99.30(16) . . ?
O2 Tb1 N1 76.95(16) . . ?
O2 Tb1 N2 156.40(16) . . ?
O2 Tb1 C2 104.35(16) . . ?
O3 Tb1 O1 67.47(14) . . ?
O3 Tb1 O4 71.51(13) . . ?
O3 Tb1 O5 69.16(14) . . ?
O3 Tb1 N1 138.23(14) . . ?
O3 Tb1 N2 93.02(17) . . ?
O3 Tb1 C2 65.89(14) . . ?
O4 Tb1 N1 143.03(14) . . ?
O4 Tb1 N2 125.62(14) . . ?
O4 Tb1 C2 26.54(13) . . ?
O5 Tb1 O4 53.15(12) . . ?
O5 Tb1 N1 143.77(14) . . ?
O5 Tb1 N2 72.51(14) . . ?
O5 Tb1 C2 26.75(14) . . ?
O6 Tb1 O1 147.90(16) . . ?
O6 Tb1 O3 141.47(15) . . ?
O6 Tb1 O4 78.06(14) . . ?
O6 Tb1 O5 73.83(15) . . ?
O6 Tb1 N1 79.73(16) . . ?
O6 Tb1 N2 85.78(15) . . ?
O6 Tb1 C2 76.28(16) . . ?
N1 Tb1 C2 155.87(16) . . ?
N2 Tb1 N1 81.37(16) . . ?
N2 Tb1 C2 99.25(15) . . ?
C15 O1 Tb1 119.0(4) . . ?
C1 O2 Tb1 165.9(4) . . ?
C15 O3 Tb1 120.3(4) 2_565 . ?
C2 O4 Tb1 92.1(3) . . ?
C2 O5 Tb1 92.2(3) . . ?
Tb1 O6 H6A 110.2 . . ?
Tb1 O6 H6B 118(5) . . ?
H6A O6 H6B 107.4 . . ?
C9 N1 Tb1 130.1(4) . . ?
C10 N1 Tb1 122.0(4) . . ?
C10 N1 C9 103.5(5) . . ?
C3 N2 Tb1 122.0(4) . . ?
C3 N2 C4 104.8(5) . . ?
C4 N2 Tb1 132.7(4) . . ?
C10 N3 C11 106.0(5) . . ?
C10 N3 C12 125.7(5) . . ?
C11 N3 C12 128.2(5) . . ?
C3 N4 C5 106.7(5) . . ?
C3 N4 C6 125.5(4) . . ?
C5 N4 C6 127.6(4) . . ?
O2 C1 C14 114.7(5) . 2 ?
O7 C1 O2 125.4(5) . . ?
O7 C1 C14 119.9(5) . 2 ?
O4 C2 Tb1 61.4(3) . . ?
O4 C2 O5 121.9(5) . . ?
O4 C2 C8 119.8(5) . 2_676 ?
O5 C2 Tb1 61.0(3) . . ?
O5 C2 C8 118.2(5) . 2_676 ?
C8 C2 Tb1 172.6(4) 2_676 . ?
N2 C3 N4 112.6(5) . . ?
N2 C3 H3 123.7 . . ?
N4 C3 H3 123.7 . . ?
N2 C4 H4 124.9 . . ?
C5 C4 N2 110.2(5) . . ?
C5 C4 H4 124.9 . . ?
N4 C5 H5 127.2 . . ?
C4 C5 N4 105.7(5) . . ?
C4 C5 H5 127.2 . . ?
C7 C6 N4 117.6(5) . . ?
C7 C6 C8 120.0(5) . 2_776 ?
C8 C6 N4 122.4(5) 2_776 . ?
C6 C7 H7 119.1 . . ?
C6 C7 C8 121.9(5) . . ?
C8 C7 H7 119.1 . . ?
C6 C8 C2 124.1(5) 2_776 2_676 ?
C7 C8 C2 117.8(5) . 2_676 ?
C7 C8 C6 118.1(5) . 2_776 ?
N1 C9 H9 124.7 . . ?
C11 C9 N1 110.6(5) . . ?
C11 C9 H9 124.7 . . ?
N1 C10 N3 113.4(5) . . ?
N1 C10 H10 123.3 . . ?
N3 C10 H10 123.3 . . ?
N3 C11 H11 126.8 . . ?
C9 C11 N3 106.5(6) . . ?
C9 C11 H11 126.8 . . ?
C13 C12 N3 118.1(5) . . ?
C13 C12 C14 120.6(5) . 2_655 ?
C14 C12 N3 121.1(5) 2_655 . ?
C12 C13 H13 119.3 . . ?
C12 C13 C14 121.3(5) . . ?
C14 C13 H13 119.3 . . ?
C12 C14 C1 123.0(5) 2_655 2 ?
C13 C14 C1 118.7(5) . 2 ?
C13 C14 C12 118.1(5) . 2_655 ?
O1 C15 O3 126.9(5) . 2_565 ?
O1 C15 C15 117.3(6) . 2_565 ?
O3 C15 C15 115.8(6) 2_565 2_565 ?
loop_
_geom_bond_atom_site_label_1
_geom_bond_atom_site_label_2
_geom_bond_distance
_geom_bond_site_symmetry_2
_geom_bond_publ_flag
Tb1 O1 2.390(4) . ?
Tb1 O2 2.235(4) . ?
Tb1 O3 2.379(4) . ?
Tb1 O4 2.455(4) . ?
Tb1 O5 2.447(4) . ?
Tb1 O6 2.375(4) . ?
Tb1 N1 2.550(5) . ?
Tb1 N2 2.497(4) . ?
Tb1 C2 2.794(5) . ?
O1 C15 1.243(7) . ?
O2 C1 1.265(7) . ?
O3 C15 1.244(6) 2_565 ?
O4 C2 1.249(6) . ?
O5 C2 1.259(6) . ?
O6 H6A 0.8709 . ?
O6 H6B 0.74(6) . ?
O7 C1 1.216(7) . ?
N1 C9 1.374(8) . ?
N1 C10 1.318(7) . ?
N2 C3 1.309(7) . ?
N2 C4 1.383(7) . ?
N3 C10 1.335(7) . ?
N3 C11 1.365(7) . ?
N3 C12 1.436(6) . ?
N4 C3 1.352(7) . ?
N4 C5 1.376(7) . ?
N4 C6 1.424(7) . ?
C1 C14 1.540(7) 2 ?
C2 C8 1.501(7) 2_676 ?
C3 H3 0.9300 . ?
C4 H4 0.9300 . ?
C4 C5 1.364(8) . ?
C5 H5 0.9300 . ?
C6 C7 1.378(8) . ?
C6 C8 1.401(8) 2_776 ?
C7 H7 0.9300 . ?
C7 C8 1.380(7) . ?
C8 C2 1.501(7) 2_676 ?
C8 C6 1.401(8) 2_776 ?
C9 H9 0.9300 . ?
C9 C11 1.346(8) . ?
C10 H10 0.9300 . ?
C11 H11 0.9300 . ?
C12 C13 1.377(7) . ?
C12 C14 1.392(8) 2_655 ?
C13 H13 0.9300 . ?
C13 C14 1.387(7) . ?
C14 C1 1.540(7) 2 ?
C14 C12 1.392(8) 2_655 ?
C15 O3 1.244(6) 2_565 ?
C15 C15 1.536(11) 2_565 ?
loop_
_geom_torsion_atom_site_label_1
_geom_torsion_atom_site_label_2
_geom_torsion_atom_site_label_3
_geom_torsion_atom_site_label_4
_geom_torsion
_geom_torsion_site_symmetry_1
_geom_torsion_site_symmetry_2
_geom_torsion_site_symmetry_3
_geom_torsion_site_symmetry_4
_geom_torsion_publ_flag
Tb1 O1 C15 O3 -178.7(5) . . . 2_565 ?
Tb1 O1 C15 C15 2.4(8) . . . 2_565 ?
Tb1 O2 C1 O7 -42(2) . . . . ?
Tb1 O2 C1 C14 139.6(16) . . . 2 ?
Tb1 O4 C2 O5 -8.3(5) . . . . ?
Tb1 O4 C2 C8 171.6(4) . . . 2_676 ?
Tb1 O5 C2 O4 8.4(5) . . . . ?
Tb1 O5 C2 C8 -171.6(4) . . . 2_676 ?
Tb1 N1 C9 C11 156.1(5) . . . . ?
Tb1 N1 C10 N3 -158.9(4) . . . . ?
Tb1 N2 C3 N4 -172.5(4) . . . . ?
Tb1 N2 C4 C5 171.7(5) . . . . ?
N1 C9 C11 N3 0.4(8) . . . . ?
N2 C4 C5 N4 -0.2(8) . . . . ?
N3 C12 C13 C14 176.0(5) . . . . ?
N4 C6 C7 C8 -178.2(5) . . . . ?
C3 N2 C4 C5 -0.1(8) . . . . ?
C3 N4 C5 C4 0.5(7) . . . . ?
C3 N4 C6 C7 -57.3(8) . . . . ?
C3 N4 C6 C8 121.4(6) . . . 2_776 ?
C4 N2 C3 N4 0.4(7) . . . . ?
C5 N4 C3 N2 -0.5(7) . . . . ?
C5 N4 C6 C7 116.1(7) . . . . ?
C5 N4 C6 C8 -65.2(8) . . . 2_776 ?
C6 N4 C3 N2 174.0(5) . . . . ?
C6 N4 C5 C4 -173.9(6) . . . . ?
C6 C7 C8 C2 176.7(5) . . . 2_676 ?
C6 C7 C8 C6 -3.0(9) . . . 2_776 ?
C8 C6 C7 C8 3.1(9) 2_776 . . . ?
C9 N1 C10 N3 -0.3(7) . . . . ?
C10 N1 C9 C11 -0.1(8) . . . . ?
C10 N3 C11 C9 -0.6(8) . . . . ?
C10 N3 C12 C13 -119.1(6) . . . . ?
C10 N3 C12 C14 55.9(8) . . . 2_655 ?
C11 N3 C10 N1 0.6(7) . . . . ?
C11 N3 C12 C13 57.1(9) . . . . ?
C11 N3 C12 C14 -128.0(7) . . . 2_655 ?
C12 N3 C10 N1 177.4(5) . . . . ?
C12 N3 C11 C9 -177.3(6) . . . . ?
C12 C13 C14 C1 -175.3(5) . . . 2 ?
C12 C13 C14 C12 -1.0(10) . . . 2_655 ?
C14 C12 C13 C14 1.0(10) 2_655 . . . ?
loop_
_refln_index_h
_refln_index_k
_refln_index_l
_refln_F_squared_meas
_refln_F_squared_sigma
_refln_scale_group_code
-11 2 3 6942.59 981.587 2
-11 2 4 -370.52 267.186 2
-11 3 3 7032.59 991.129 2
-11 3 4 21.6702 176.375 2
-11 4 3 12976.6 1356.43 2
-11 4 4 313.026 284.096 2
-11 5 3 9400.53 1147.1 2
-11 5 4 5.557 156.634 2
-11 6 3 5763.57 921.596 2
-11 6 4 208.131 285.638 2
-10 1 0 87.6456 252.44 2
-10 1 1 5941.57 929.389 2
-10 1 2 3888.57 715.954 2
-10 1 3 4434.31 768.083 2
-10 1 4 6885.96 899.042 2
-10 1 5 1058.85 375.844 2
-10 2 0 2218.34 604.971 2
-10 2 1 7133.38 985.174 2
-10 2 2 9925.49 1149.13 2
-10 2 3 5528.49 816.721 2
-10 2 4 7143.94 923.371 2
-10 2 5 2501.09 532.074 2
-10 3 -1 13829.8 1432.25 2
-10 3 0 1181.88 468.202 2
-10 3 1 12122.5 1297.72 2
-10 3 2 5425.6 843.27 2
-10 3 3 5524.29 826.193 2
-10 3 4 7390.19 906.956 2
-10 3 5 5475.45 777.993 2
-10 4 -1 11534.8 1322.56 2
-10 4 0 1258.57 448.704 2
-10 4 1 4243.97 754.011 2
-10 4 2 4585.01 760.318 2
-10 4 3 7012.46 927.639 2
-10 4 4 3811.96 665.609 2
-10 4 5 5772.46 789.562 2
-10 5 -1 4982 880.975 2
-10 5 0 157.081 233.139 2
-10 5 1 10403.1 1206.02 2
-10 5 2 892.253 365.939 2
-10 5 3 6535.92 905.703 2
-10 5 4 1907.66 469.534 2
-10 5 5 4529.18 689.349 2
-10 6 -1 10918.4 1315.23 2
-10 6 0 -12.238 175.962 2
-10 6 1 7668.32 1041.01 2
-10 6 2 853.285 396.575 2
-10 6 3 4946.33 788.907 2
-10 6 4 1942.24 498.377 2
-10 6 5 2912.81 596.743 2
-10 7 0 -249.048 275.581 2
-10 7 1 12411.3 1369.48 2
-10 7 2 1440.82 475.746 2
-10 7 3 11659.5 1277.49 2
-10 7 4 2692.64 598.38 2
-10 7 5 5215.48 835.65 2
-10 8 2 1017.27 457.155 2
-10 8 3 12629.3 1373.02 2
-10 8 4 21.7008 158.975 2
-10 8 5 8030.78 1087.8 2
-9 0 -2 7533.97 1108.24 2
-9 0 -1 250.504 286.371 2
-9 0 0 10585.7 1211.19 2
-9 0 1 -383.576 302.858 2
-9 0 2 16342.5 1419.04 2
-9 0 3 -128.674 218.054 2
-9 0 4 15312.6 1288.43 2
-9 1 -2 6354.63 984.964 2
-9 1 -1 3659.49 741.668 2
-9 1 0 14663.1 1382.37 2
-9 1 1 1414.18 465.457 2
-9 1 2 14470.9 1302.87 2
-9 1 3 71.519 225.206 2
-9 1 4 13016.5 1149.7 2
-9 1 5 4564.24 646.588 2
-9 1 6 10293.9 939.534 2
-9 2 -3 7357.24 1049.44 2
-9 2 -2 6003.18 917.479 2
-9 2 -1 3167.08 696.505 2
-9 2 0 5204.76 805.831 2
-9 2 1 2661.25 571.414 2
-9 2 2 14654.9 1292.9 2
-9 2 3 419.913 333.993 2
-9 2 4 15337.7 1243.79 2
-9 2 5 936.485 309.357 2
-9 2 6 15745 1159.13 2
-9 3 -3 6128.22 972.813 2
-9 3 -2 2639.11 582.922 2
-9 3 -1 10988.4 1196.98 2
-9 3 0 6564.52 918.304 2
-9 3 1 2290.96 533.519 2
-9 3 2 10536 1081.07 2
-9 3 3 1776.21 438.431 2
-9 3 4 11274.3 1062.33 2
-9 3 5 12.6677 158.182 2
-9 3 6 8378.94 839.064 2
-9 4 -4 624.319 363.694 2
-9 4 -3 9133.94 1140.25 2
-9 4 -2 3601.29 707.837 2
-9 4 -1 9380.55 1105.59 2
-9 4 0 6037.89 876.772 2
-9 4 1 2658.69 578.68 2
-9 4 2 13480.9 1219.24 2
-9 4 3 29.4993 191.847 2
-9 4 4 9830.57 978.57 2
-9 4 5 251.918 181.755 2
-9 4 6 8977.88 872.803 2
-9 5 -4 1145.1 449.639 2
-9 5 -3 7440.32 1022.41 2
-9 5 -2 6276.03 930.279 2
-9 5 -1 10146.9 1165.82 2
-9 5 0 11792.1 1233.04 2
-9 5 1 4424.91 741.822 2
-9 5 2 15899.7 1362.38 2
-9 5 3 1851.13 467.234 2
-9 5 4 17576.4 1371.93 2
-9 5 5 246.846 230.979 2
-9 5 6 13440.7 1116.89 2
-9 6 -4 -144.539 234.093 2
-9 6 -3 7512.04 1037.84 2
-9 6 -2 2506.68 610.679 2
-9 6 -1 11027 1245.85 2
-9 6 0 4539.87 795.296 2
-9 6 1 6133 906.115 2
-9 6 2 12718.3 1252.03 2
-9 6 3 3213.8 642.566 2
-9 6 4 10894.6 1109.06 2
-9 6 5 1440.64 401.949 2
-9 6 6 16198.7 1311.76 2
-9 7 -3 9964.15 1238.97 2
-9 7 -2 1417.37 506.352 2
-9 7 -1 10185.2 1213.44 2
-9 7 0 5964.48 930.255 2
-9 7 1 3416.91 669.284 2
-9 7 2 6543.53 943.917 2
-9 7 3 4107.92 751.35 2
-9 7 4 11085.1 1187.35 2
-9 7 5 448.616 301.74 2
-9 7 6 15671.8 1355.5 2
-9 8 -2 1292.87 524.935 2
-9 8 -1 6804.71 1034.31 2
-9 8 0 3798.41 769.188 2
-9 8 1 7267.37 1067.18 2
-9 8 2 8579.74 1139.97 2
-9 8 3 3985.94 767.818 2
-9 8 4 11032.6 1233.73 2
-9 8 5 1436.08 528.51 2
-9 8 6 11904.3 1261.53 2
-9 9 -1 6521.6 1101.9 2
-9 9 0 6530.22 1068.85 2
-9 9 1 9397.22 1265.16 2
-9 9 2 4396.99 886.476 2
-9 9 3 7455.22 1106.4 2
-9 9 4 11323 1339.21 2
-9 9 5 790.773 376.476 2
-9 9 6 7656.23 1079.84 2
-8 0 -4 11563.6 1306.28 2
-8 0 -3 144.408 266.737 2
-8 0 -2 13295.1 1330.81 2
-8 0 -1 3404.88 664.427 2
-8 0 0 7172.07 924.547 2
-8 0 1 7400.21 899.947 2
-8 0 2 7351.4 865.776 2
-8 0 3 5553.63 726.021 2
-8 0 4 9032.84 896.264 2
-8 0 5 23243.8 1422.36 2
-8 1 -5 1333.19 472.837 2
-8 1 -4 19618.5 1688.81 2
-8 1 -3 -116.787 250.394 2
-8 1 -2 7198.66 969.783 2
-8 1 -1 1146.61 432.013 2
-8 1 0 24258.2 1673.46 2
-8 1 1 462.941 298.147 2
-8 1 2 24418.4 1573.51 2
-8 1 3 1757.83 419.294 2
-8 1 4 16818.3 1198.01 2
-8 1 5 15527.7 1100.57 2
-8 1 6 1942.21 383.52 2
-8 1 7 8455.04 713.61 2
-8 2 -5 3670.34 763.388 2
-8 2 -4 9917.82 1162.86 2
-8 2 -3 1267.28 444.952 2
-8 2 -2 17372.2 1464.49 2
-8 2 -1 740.119 353.371 2
-8 2 0 24166.6 1642.66 2
-8 2 1 1599.52 452.414 2
-8 2 2 20459.6 1408.98 2
-8 2 3 9593.91 925.485 2
-8 2 4 7559.65 799.009 2
-8 2 5 11331.7 921.53 2
-8 2 6 1161.72 295.451 2
-8 2 7 7735.25 674.159 2
-8 3 -6 3026.71 703.156 2
-8 3 -5 5774.13 894.13 2
-8 3 -4 8284.64 1057.42 2
-8 3 -3 2099.28 553.849 2
-8 3 -2 10702.9 1131.24 2
-8 3 -1 -182.456 260.789 2
-8 3 0 24280.4 1632.6 2
-8 3 1 7661.29 875.032 2
-8 3 2 15062 1201.42 2
-8 3 3 5309.31 686.229 2
-8 3 4 9949.51 901.369 2
-8 3 5 10172.7 867.717 2
-8 3 6 6021.47 642.337 2
-8 3 7 10447.4 812.373 2
-8 4 -6 5412.79 903.678 2
-8 4 -5 3112.46 669.197 2
-8 4 -4 8552.05 1067.6 2
-8 4 -3 -653.856 335.286 2
-8 4 -2 19326.1 1520.19 2
-8 4 -1 -643.15 318.713 2
-8 4 0 11577 1110.38 2
-8 4 1 1975.01 483.053 2
-8 4 2 9995.44 979.118 2
-8 4 3 10422.7 974.637 2
-8 4 4 23983.3 1477.75 2
-8 4 5 15766.4 1145.47 2
-8 4 6 8478.71 803.427 2
-8 4 7 17383.6 1122.65 2
-8 5 -6 7098.04 1031.75 2
-8 5 -5 5020.87 839.845 2
-8 5 -4 17078.4 1511.29 2
-8 5 -3 1174.89 402.715 2
-8 5 -2 15677.7 1372.97 2
-8 5 -1 2529.86 572.039 2
-8 5 0 17424.9 1402.37 2
-8 5 1 1909.43 483.475 2
-8 5 2 33378.7 1920.01 2
-8 5 3 3945.23 634.42 2
-8 5 4 24263 1546.47 2
-8 5 5 10422 965.819 2
-8 5 6 12277 1028.83 2
-8 5 7 13726.8 1055.52 2
-8 6 -6 3008.95 684.589 2
-8 6 -5 5073.1 852.209 2
-8 6 -4 6717.67 949.29 2
-8 6 -3 3731.24 703.388 2
-8 6 -2 19709.2 1590.43 2
-8 6 -1 6246.2 873.052 2
-8 6 0 31174.8 1973.78 2
-8 6 1 747.425 383.513 2
-8 6 2 18428.7 1461.23 2
-8 6 3 2852.21 566.382 2
-8 6 4 10479.4 1052.79 2
-8 6 5 5308 729.214 2
-8 6 6 3936.9 616.046 2
-8 6 7 5109.94 686.214 2
-8 7 -6 1096.11 421.484 2
-8 7 -5 4220.21 791.609 2
-8 7 -4 4192.84 791.617 2
-8 7 -3 4779.3 807.147 2
-8 7 -2 16757.7 1514.77 2
-8 7 -1 4880.35 810.829 2
-8 7 0 13238.2 1317.98 2
-8 7 1 1689.06 488.137 2
-8 7 2 10974 1162.49 2
-8 7 3 1504.8 491.865 2
-8 7 4 6435.44 880.622 2
-8 7 5 4208.54 692.353 2
-8 7 6 7542.44 921.763 2
-8 7 7 6825.39 857.922 2
-8 8 -5 8829.04 1157.24 2
-8 8 -4 4203.48 817.712 2
-8 8 -3 4899.48 853.17 2
-8 8 -2 9728.08 1203.55 2
-8 8 -1 899.789 393.811 2
-8 8 0 13588 1416.34 2
-8 8 1 271.399 316.471 2
-8 8 2 9852.72 1180.93 2
-8 8 3 47.8447 221.779 2
-8 8 4 13565.4 1369.1 2
-8 8 5 2876.13 636.313 2
-8 8 6 13311 1320.53 2
-8 8 7 13013.7 1271.95 2
-8 9 -4 4264.43 816.675 2
-8 9 -3 2672.15 672.575 2
-8 9 -2 7446.97 1101.39 2
-8 9 -1 2268.69 647.937 2
-8 9 0 12389 1416.33 2
-8 9 1 2194.97 637.351 2
-8 9 2 11441.5 1336.67 2
-8 9 3 1089.89 475.515 2
-8 9 4 16024.8 1577.36 2
-8 9 5 3838.54 749.665 2
-8 9 6 4871.92 854.239 2
-8 9 7 4067.98 770.984 2
-8 10 -2 4111.92 855.601 2
-8 10 -1 2885.42 769.371 2
-8 10 0 11088.3 1411.09 2
-8 10 1 3484.52 790.549 2
-8 10 2 16055.8 1690.68 2
-8 10 3 568.77 429.683 2
-8 10 4 7928.7 1170.71 2
-8 10 5 1721.1 533.829 2
-8 10 6 2884.13 705.353 2
-7 -1 -1 22258.4 1627.45 2
-7 -1 0 2597.49 560.283 2
-7 -1 1 24519.7 1600.97 2
-7 -1 2 3876.64 619.076 2
-7 -1 3 18632.4 1286.98 2
-7 0 -5 1772.51 554.325 2
-7 0 -4 20554.2 1674.09 2
-7 0 -3 7067.92 932.607 2
-7 0 -2 11242.5 1139.1 2
-7 0 -1 18822.4 1429.38 2
-7 0 0 6895.56 814.409 2
-7 0 1 22538.5 1466.76 2
-7 0 2 66.8559 179.924 2
-7 0 3 17087.2 1192.09 2
-7 0 4 610.433 227.718 2
-7 0 5 39742 1764.05 2
-7 1 -7 441.973 324.538 2
-7 1 -6 16257.2 1540.65 2
-7 1 -5 3230.8 709.662 2
-7 1 -4 17664.4 1484.2 2
-7 1 -3 3262.39 614.745 2
-7 1 -2 9094.61 992.934 2
-7 1 -1 14913.2 1246.66 2
-7 1 0 1309.7 399.623 2
-7 1 1 23841.3 1473.35 2
-7 1 2 461.916 237.99 2
-7 1 3 31650.6 1620.81 2
-7 1 4 -13.2664 142.052 2
-7 1 5 24495.3 1292.53 2
-7 1 8 5238.9 418.679 2
-7 2 -7 986.851 448.248 2
-7 2 -6 14201 1395.08 2
-7 2 -5 3016.43 610.495 2
-7 2 -4 13007.1 1248.1 2
-7 2 -3 5510.93 790.29 2
-7 2 -2 5686.84 772.635 2
-7 2 -1 15164.2 1207.52 2
-7 2 0 7437.08 808.819 2
-7 2 1 18971.1 1279.82 2
-7 2 2 4464.16 620.163 2
-7 2 3 19422.6 1219.1 2
-7 2 4 2347.58 413.789 2
-7 2 5 46544 1900.73 2
-7 2 8 9338.91 600.479 2
-7 3 -8 7407.51 1046.86 2
-7 3 -7 -47.4326 195.886 2
-7 3 -6 14894.6 1415.02 2
-7 3 -5 1354.87 444.677 2
-7 3 -4 13699.6 1249.52 2
-7 3 -3 5381.83 757.072 2
-7 3 -2 18848 1391.96 2
-7 3 -1 9933.75 979.273 2
-7 3 0 11635.6 1017.07 2
-7 3 1 19072.7 1308.75 2
-7 3 2 2498.94 461.213 2
-7 3 3 36783.7 1764.26 2
-7 3 4 2746.35 447.88 2
-7 3 5 28659.3 1445.89 2
-7 3 6 5.73825 100.004 2
-7 4 -8 5256.58 884.175 2
-7 4 -7 527.975 358.27 2
-7 4 -6 15658.5 1414.61 2
-7 4 -5 215.462 255.321 2
-7 4 -4 15162.4 1321.32 2
-7 4 -3 2505.83 542.492 2
-7 4 -2 20606 1463.42 2
-7 4 -1 13746.1 1163.29 2
-7 4 0 6981.2 799.091 2
-7 4 1 17690.4 1265.91 2
-7 4 2 9838.72 916.077 2
-7 4 3 18021.4 1222.55 2
-7 4 4 4.46395 190.041 2
-7 4 5 28774 1510.14 2
-7 4 6 5609.07 610.133 2
-7 4 7 8834.61 744.794 2
-7 5 -8 5290.7 862.865 2
-7 5 -7 719.634 396.968 2
-7 5 -6 13506.9 1317.91 2
-7 5 -5 180.165 330.958 2
-7 5 -4 11754.7 1180.91 2
-7 5 -3 5166.69 762.875 2
-7 5 -2 13264.9 1180.15 2
-7 5 -1 6227.87 786.093 2
-7 5 0 15006.9 1212.53 2
-7 5 1 12710.4 1098.49 2
-7 5 2 6056.58 758.555 2
-7 5 3 50933.4 2319.01 2
-7 5 4 -13.6261 198.905 2
-7 5 5 23918.4 1449.8 2
-7 5 6 311.976 249.81 2
-7 5 7 14958.5 1085.52 2
-7 5 8 818.709 253.393 2
-7 6 -8 7379.1 1043.15 2
-7 6 -7 1806.78 546.91 2
-7 6 -6 13235.8 1316.77 2
-7 6 -5 -442.005 339.037 2
-7 6 -4 8389.5 1008.78 2
-7 6 -3 -11.5423 182.465 2
-7 6 -2 22919.9 1650.97 2
-7 6 -1 1263.92 421.32 2
-7 6 0 12564.7 1160.62 2
-7 6 1 22930.5 1586.8 2
-7 6 2 9963.74 1022.74 2
-7 6 3 16478.5 1293.75 2
-7 6 4 6556.21 800.689 2
-7 6 5 13989.4 1174.42 2
-7 6 6 295.821 241.588 2
-7 6 7 19626.7 1361.26 2
-7 6 8 427.635 224.736 2
-7 7 -8 6246.06 983.049 2
-7 7 -7 2489.83 616.193 2
-7 7 -6 7948.95 1037.41 2
-7 7 -5 1062.45 446.775 2
-7 7 -4 11331.3 1207.04 2
-7 7 -3 273.65 246.141 2
-7 7 -2 25014.2 1800.38 2
-7 7 -1 6091.86 871.463 2
-7 7 0 15859.3 1396.31 2
-7 7 1 4778.13 770.756 2
-7 7 2 7738.22 955.386 2
-7 7 3 8821.58 1008.41 2
-7 7 4 1915.01 504.712 2
-7 7 5 12305.2 1180.25 2
-7 7 6 1472.85 447.767 2
-7 7 7 20015.5 1499.84 2
-7 7 8 323.706 325.987 2
-7 8 -8 2025.46 584.078 2
-7 8 -7 4395.7 826.033 2
-7 8 -6 8284.53 1105.56 2
-7 8 -5 1015.22 429.942 2
-7 8 -4 16556.3 1531.76 2
-7 8 -3 299.722 342.812 2
-7 8 -2 28253.6 2007.66 2
-7 8 -1 876.77 435.986 2
-7 8 0 9906.79 1162.26 2
-7 8 1 3648.37 720.132 2
-7 8 2 6708.13 964.037 2
-7 8 3 7128.9 992.155 2
-7 8 4 2800.61 632.428 2
-7 8 5 13000.9 1303.56 2
-7 8 6 484.873 335.517 2
-7 8 7 19013.3 1574.76 2
-7 8 8 -762.534 322.014 2
-7 9 -7 3112.53 696.386 2
-7 9 -6 7590.97 1104.04 2
-7 9 -5 1562.17 535.894 2
-7 9 -4 8960.03 1195.76 2
-7 9 -3 690.777 445.581 2
-7 9 -2 5900.54 966.963 2
-7 9 -1 3133.56 737.263 2
-7 9 0 11431 1326.95 2
-7 9 1 3603.8 745.732 2
-7 9 2 12674.1 1403.24 2
-7 9 3 10754.8 1295.95 2
-7 9 4 3695.38 754.694 2
-7 9 5 15902.2 1559.63 2
-7 9 6 2127.68 608.103 2
-7 9 7 13677.8 1421.18 2
-7 10 -5 133.778 273.019 2
-7 10 -4 6643.53 1062.14 2
-7 10 -3 202.944 291.421 2
-7 10 -2 13742.2 1538.12 2
-7 10 -1 2619.54 698.914 2
-7 10 0 17435.5 1734.64 2
-7 10 1 2246.45 716.801 2
-7 10 2 13548 1541.43 2
-7 10 3 9499.92 1263.92 2
-7 10 4 5519.3 1031.36 2
-7 10 5 8557.18 1212.5 2
-7 10 6 2607.66 706.363 2
-7 10 7 13437 1489.29 2
-7 11 -3 3459.94 864.14 2
-7 11 -2 10148.7 1385.39 2
-7 11 -1 2413.82 719.533 2
-7 11 0 13079.2 1569.96 2
-7 11 1 2615.76 747.359 2
-7 11 2 6222.12 1080.89 2
-7 11 3 3844.17 883.047 2
-7 11 4 5990.88 1077.28 2
-6 -1 -3 20014.8 1515.38 2
-6 -1 -2 1307.91 452.534 2
-6 -1 -1 50296.4 2382.96 2
-6 -1 0 14414.1 1145.66 2
-6 -1 1 11257.2 976.724 2
-6 -1 2 10756.4 911.334 2
-6 -1 3 9450.25 822.792 2
-6 0 -6 1280.92 365.475 2
-6 0 -5 16400.9 1409.22 2
-6 0 -4 2510.85 536.274 2
-6 0 -3 26475.6 1702.32 2
-6 0 -2 198.065 244.841 2
-6 0 -1 20708.3 1377.19 2
-6 0 0 627.078 282.764 2
-6 0 1 14991.1 1079.42 2
-6 0 2 1178.66 311.978 2
-6 0 3 9393.03 767.662 2
-6 0 6 54004.9 1863.29 2
-6 1 -8 6132.14 914.804 2
-6 1 -7 4914.63 813.902 2
-6 1 -6 3524.38 663.055 2
-6 1 -5 24167 1694.79 2
-6 1 -4 115.431 213.882 2
-6 1 -3 13659.6 1169.84 2
-6 1 -2 45.8371 182.104 2
-6 1 -1 31268.1 1710 2
-6 1 0 3251.14 498.769 2
-6 1 1 25628.3 1419.4 2
-6 1 2 6888.06 676.037 2
-6 1 6 28477.5 1193.95 2
-6 1 7 1967.16 243.222 2
-6 1 8 29309.8 959.141 2
-6 2 -9 3263.9 711.364 2
-6 2 -8 11193.4 1221.14 2
-6 2 -7 4433.53 760.824 2
-6 2 -6 4062.72 703.638 2
-6 2 -5 14771.1 1263.71 2
-6 2 -4 4040.77 648.994 2
-6 2 -3 24672.6 1544.56 2
-6 2 -2 -89.1089 205.133 2
-6 2 -1 60269.8 2468.33 2
-6 2 0 7413.76 740.327 2
-6 2 1 47579 2007.77 2
-6 2 2 10797.9 831.956 2
-6 2 6 16411.2 873.199 2
-6 2 7 4379.06 393.042 2
-6 2 8 31361.4 1119.48 2
-6 2 9 4487.94 258.581 2
-6 3 -10 10946 1254.44 2
-6 3 -9 911.789 392.519 2
-6 3 -8 5784.75 873.84 2
-6 3 -7 4014.83 716.055 2
-6 3 -6 16893.5 1379.92 2
-6 3 -5 8310.41 925.896 2
-6 3 -5 8778.48 658.225 3
-6 3 -4 7858.21 867 2
-6 3 -3 18437.5 1310.95 2
-6 3 -2 1888.95 429.916 2
-6 3 -1 53220.7 2299.8 2
-6 3 0 1706.06 382.418 2
-6 3 1 41845.1 1872.96 2
-6 3 2 170.648 212.124 2
-6 3 3 18091 1100.53 2
-6 3 7 13408.7 807.222 2
-6 3 8 29191.4 1205.46 2
-6 3 9 628.655 143.791 2
-6 4 -10 6238.19 941.986 2
-6 4 -9 367.937 335.248 2
-6 4 -8 9875.75 1118.82 2
-6 4 -7 2647.53 568.193 2
-6 4 -6 14777.3 1279.96 2
-6 4 -6 13843.9 952.981 3
-6 4 -5 8905.08 947.733 2
-6 4 -5 8960.81 744.391 3
-6 4 -4 7767.3 686.893 3
-6 4 -4 8087.01 882.566 2
-6 4 -3 15218.8 1182.31 2
-6 4 -2 3110.41 508.083 2
-6 4 -1 14607.8 1129.52 2
-6 4 0 -91.1466 250.131 2
-6 4 1 11165.5 924.339 2
-6 4 2 52.709 236.655 2
-6 4 3 34131.3 1655.6 2
-6 4 4 1120.82 321.317 2
-6 4 5 24561.5 1330.8 2
-6 5 -10 7150.21 990.904 2
-6 5 -9 -1620.87 480.741 2
-6 5 -8 7423.48 969.153 2
-6 5 -7 4623.96 750.18 2
-6 5 -6 17805 1432.66 2
-6 5 -5 9946.59 854.412 3
-6 5 -5 11681.7 1118.94 2
-6 5 -4 5872.72 647.976 3
-6 5 -4 7079.22 834.193 2
-6 5 -3 16788.2 1107.98 3
-6 5 -3 16662 1274.18 2
-6 5 -2 3468.86 594.176 2
-6 5 -1 15608 1194.17 2
-6 5 0 -46.301 217.272 2
-6 5 1 27826.5 1605.86 2
-6 5 2 -8.1706 206.958 2
-6 5 3 62197.2 2549.32 2
-6 5 4 16892.9 1183.57 2
-6 5 5 11547.2 953.603 2
-6 5 6 14260.9 1053.61 2
-6 5 7 7121.96 737.896 2
-6 5 8 16853.9 1120 2
-6 5 9 4287.2 533.052 2
-6 6 -10 6977.71 992.292 2
-6 6 -9 489.842 369.574 2
-6 6 -8 13192.3 1313.1 2
-6 6 -7 2731.63 604.217 2
-6 6 -6 20392.7 1545.62 2
-6 6 -5 9376.36 1037.21 2
-6 6 -4 7003.43 870.858 2
-6 6 -3 20021.2 1460.52 2
-6 6 -2 15498 1263.29 2
-6 6 -1 19927.7 1429.37 2
-6 6 0 4306.52 685.94 2
-6 6 1 47547.1 2309.97 2
-6 6 2 4591.35 675.793 2
-6 6 3 32574.8 1857.58 2
-6 6 4 3084.63 568.577 2
-6 6 5 20342.3 1424.34 2
-6 6 6 1539.17 398.793 2
-6 6 7 13241.6 1120.82 2
-6 6 8 7367.46 819.479 2
-6 6 9 5016.34 682.92 2
-6 7 -10 9370.71 1169.22 2
-6 7 -9 70.252 293.743 2
-6 7 -8 12286.6 1253.13 2
-6 7 -7 2672.52 600.8 2
-6 7 -6 9877.16 1080.42 2
-6 7 -5 4332.52 726.81 2
-6 7 -4 5389.02 803.949 2
-6 7 -3 9179.07 1027.76 2
-6 7 -2 18513 1463.3 2
-6 7 -1 26547.3 1781.08 2
-6 7 0 319.151 293.287 2
-6 7 1 26239.4 1758.14 2
-6 7 2 -154.841 255.592 2
-6 7 3 34818.6 2063.67 2
-6 7 4 1860.74 481.684 2
-6 7 5 15991.9 1358.12 2
-6 7 6 4875.67 737.436 2
-6 7 7 17000.2 1396.54 2
-6 7 8 6376.4 854.015 2
-6 8 -10 7474.68 1028.05 2
-6 8 -9 11.2746 217.693 2
-6 8 -8 6394.88 964.754 2
-6 8 -7 475.007 347.903 2
-6 8 -6 10424.3 1164.57 2
-6 8 -5 3225.99 673.714 2
-6 8 -4 9255.6 1082.27 2
-6 8 -3 19901.3 1607.47 2
-6 8 -2 8056.25 1033.25 2
-6 8 -1 16489.2 1451.33 2
-6 8 0 5145.02 824.57 2
-6 8 1 19182.3 1595.55 2
-6 8 2 638.728 364.94 2
-6 8 3 18492.9 1587.55 2
-6 8 4 1718.94 543.486 2
-6 8 5 17479 1531.2 2
-6 8 6 3984.89 729.4 2
-6 8 7 20429.9 1648.16 2
-6 8 8 9991.59 1137.61 2
-6 9 -9 -2.99585 368.825 2
-6 9 -8 9428.93 1158.6 2
-6 9 -7 -331.018 301.79 2
-6 9 -6 13279 1381.48 2
-6 9 -5 2660.13 641.513 2
-6 9 -4 10623.7 1237.75 2
-6 9 -3 5742.94 938.52 2
-6 9 -2 14031.5 1425.82 2
-6 9 -1 12457 1359.78 2
-6 9 0 2509.48 686.919 2
-6 9 1 13915.2 1442.43 2
-6 9 2 -39.5027 424.195 2
-6 9 3 14700.2 1507.3 2
-6 9 4 148.253 286.533 2
-6 9 5 13141.6 1421.13 2
-6 9 6 2409.88 686.974 2
-6 9 7 16712.4 1586.7 2
-6 9 8 1750.73 555.8 2
-6 10 -8 8403.16 1149.2 2
-6 10 -7 38.1785 280.809 2
-6 10 -6 8304.71 1133.34 2
-6 10 -5 -373.198 367.291 2
-6 10 -4 10555.5 1312.54 2
-6 10 -3 6134.51 1016.49 2
-6 10 -2 6806.36 1069.47 2
-6 10 -1 15575.4 1625.65 2
-6 10 0 3059.89 813.549 2
-6 10 1 11928 1431.49 2
-6 10 2 1470.55 508.457 2
-6 10 3 8021.72 1181.95 2
-6 10 4 542.657 388.198 2
-6 10 5 8752.43 1239.61 2
-6 10 6 1357.47 518.531 2
-6 10 7 4868.72 892.343 2
-6 11 -6 7471.31 1143.06 2
-6 11 -5 -178.158 360.021 2
-6 11 -4 12138.3 1470.08 2
-6 11 -3 2451.02 781.768 2
-6 11 -2 4269.08 958.652 2
-6 11 -1 7659.09 1215.1 2
-6 11 0 5658.42 1044.04 2
-6 11 1 7983.96 1276.96 2
-6 11 2 388.283 422.85 2
-6 11 3 9435.42 1327.65 2
-6 11 4 125.546 301.889 2
-6 11 5 7037.61 1167.84 2
-5 -1 -4 4322.47 667.16 2
-5 -1 -3 3104.99 547.208 2
-5 -1 -2 8825.81 874.733 2
-5 -1 -1 10039.3 900.01 2
-5 -1 0 32375.3 1675.35 2
-5 -1 1 1480.7 334.141 2
-5 0 -7 14074.7 1320.41 2
-5 0 -6 1033.13 428.712 2
-5 0 -5 8907.49 950.206 2
-5 0 -4 5883.84 757.097 2
-5 0 -3 22828.2 1445.09 2
-5 0 -2 28887 1593.43 2
-5 0 -1 7852.02 759.846 2
-5 0 0 35677.1 1675.35 2
-5 0 4 56053.2 1897.85 2
-5 0 5 5584.83 447.668 2
-5 0 6 16415.3 725.893 2
-5 1 -9 11539.2 1230.2 2
-5 1 -8 1342.9 453.74 2
-5 1 -7 8598.04 986.504 2
-5 1 -6 1686.61 460.357 2
-5 1 -6 1232 185.796 3
-5 1 -5 35918.2 1936.51 2
-5 1 -5 34532.9 1132.62 3
-5 1 -4 3059.68 520.923 2
-5 1 -3 17230.8 1193.53 2
-5 1 -2 9349.26 843.714 2
-5 1 -1 21302 1248.15 2
-5 1 0 37359.7 1660.65 2
-5 1 3 2265.92 325.344 2
-5 1 4 37617.8 1420.24 2
-5 1 5 1848.82 252.934 2
-5 1 6 24360.4 941.257 2
-5 1 7 408.349 95.3482 2
-5 2 -11 3866.44 751.426 2
-5 2 -10 869.73 388.536 2
-5 2 -9 12705.9 1262.05 2
-5 2 -8 339.132 267.845 2
-5 2 -7 28708.3 1806.56 2
-5 2 -6 365.945 302.69 2
-5 2 -6 570.242 162.96 3
-5 2 -5 17329.6 846.888 3
-5 2 -5 18626.1 1302.96 2
-5 2 -4 -83.4717 101.867 3
-5 2 -4 -27.5904 236.149 2
-5 2 -3 30973.3 1636.82 2
-5 2 -2 9017.05 807.365 2
-5 2 -1 43932.8 1876.34 2
-5 2 0 30100.5 1448.62 2
-5 2 4 51376.5 1794.07 2
-5 2 5 1669.81 265.262 2
-5 2 6 38303.7 1368.69 2
-5 2 7 2118.27 247.743 2
-5 2 8 35891.1 1162.34 2
-5 2 9 13831.1 502.709 2
-5 2 9 13681.1 509.455 2
-5 3 -12 3808.64 744.454 2
-5 3 -11 5619.37 857.201 2
-5 3 -10 2939.59 624.432 2
-5 3 -9 14737.5 1336.5 2
-5 3 -8 3101.1 615.368 2
-5 3 -7 11162.9 1056.41 2
-5 3 -6 392.938 278.056 2
-5 3 -5 32386.7 1741.04 2
-5 3 -5 29434.1 1306.75 3
-5 3 -4 -87.4982 110.765 3
-5 3 -4 -61.5946 239.79 2
-5 3 -3 41835.5 1608.24 3
-5 3 -3 43704.3 1973.74 2
-5 3 -2 18475.5 1174.48 2
-5 3 -1 29891.4 1514.94 2
-5 3 0 25076 1324.89 2
-5 3 5 10662.2 725.516 2
-5 3 6 39702.1 1543.83 2
-5 3 7 870.615 197.65 2
-5 3 8 43404.2 1568.58 2
-5 3 9 3200.58 332.589 2
-5 4 -12 7020.17 1002.51 2
-5 4 -11 3417.47 682.648 2
-5 4 -10 3881.67 714.868 2
-5 4 -9 1698.05 468.909 2
-5 4 -8 1856.05 463.457 2
-5 4 -7 24479.3 1605.87 2
-5 4 -6 787.764 327.322 2
-5 4 -5 31981.6 1774.8 2
-5 4 -5 33576.3 1505.77 3
-5 4 -4 -41.8201 230.828 2
-5 4 -4 238.038 148.544 3
-5 4 -3 34930.2 1528.84 3
-5 4 -3 35140.5 1774.61 2
-5 4 -2 14036.6 903.042 3
-5 4 -2 14164 1045.19 2
-5 4 -1 28405.9 1503.93 2
-5 4 0 14274.4 1012.34 2
-5 4 1 18955.7 1165.15 2
-5 5 -12 5460.98 894.035 2
-5 5 -11 2592.7 597.06 2
-5 5 -10 2667.8 601.501 2
-5 5 -9 6656.03 877.989 2
-5 5 -8 3713.84 641.971 2
-5 5 -7 18152.6 1371.63 2
-5 5 -6 1443.59 388.362 2
-5 5 -5 17664.1 1299.29 2
-5 5 -5 19112.7 1152.32 3
-5 5 -4 583.962 255.024 3
-5 5 -4 35.7439 232.862 2
-5 5 -3 30511.7 1517.12 3
-5 5 -3 32947.9 1735.17 2
-5 5 -2 5419.1 591.205 3
-5 5 -2 4473.79 612.875 2
-5 5 -1 19602 1293.4 2
-5 5 0 18130.4 1222.85 2
-5 5 1 18756.4 1232.99 2
-5 5 2 28249.8 1558.3 2
-5 5 3 11211.7 942.662 2
-5 5 4 48541 2155.74 2
-5 5 5 -166.775 256.784 2
-5 5 6 31692.8 1682.43 2
-5 5 7 4018.87 561.553 2
-5 5 8 30719.7 1636.04 2
-5 5 9 356.701 177.117 2
-5 6 -12 6743.5 958.145 2
-5 6 -11 3779.68 691.363 2
-5 6 -10 5854.2 840.412 2
-5 6 -9 2776 574.922 2
-5 6 -8 1832.46 488.684 2
-5 6 -7 15924.5 1297.38 2
-5 6 -6 -3.94605 230.335 2
-5 6 -5 19418.9 1387.98 2
-5 6 -4 468.466 312.379 2
-5 6 -3 37836.9 1979.16 2
-5 6 -2 3397.43 651.403 2
-5 6 -1 19294.5 1350.91 2
-5 6 0 3528.24 599.263 2
-5 6 1 30143 1741.31 2
-5 6 2 41534.9 2128.89 2
-5 6 3 8002.15 899.39 2
-5 6 4 32289.9 1840.24 2
-5 6 5 1373.73 407.523 2
-5 6 6 34159.9 1916.57 2
-5 6 7 29.6434 260.574 2
-5 6 8 33683.2 1904.66 2
-5 6 9 1195.98 369.321 2
-5 7 -12 5028.71 771.191 2
-5 7 -11 1711.02 506.344 2
-5 7 -10 2526.51 607.139 2
-5 7 -9 2993.63 623.051 2
-5 7 -8 5742.54 818.165 2
-5 7 -7 16899 1374.17 2
-5 7 -6 3021.33 610.645 2
-5 7 -5 16641.7 1339.27 2
-5 7 -4 -66.6812 300.485 2
-5 7 -3 33119.1 1940.3 2
-5 7 -2 871.845 411.575 2
-5 7 -1 21132.2 1530.27 2
-5 7 0 16741.3 1349.87 2
-5 7 1 16058 1346.19 2
-5 7 2 18826 1465.28 2
-5 7 3 13377.6 1238.78 2
-5 7 4 21444.5 1585.03 2
-5 7 5 7465.02 932.022 2
-5 7 6 26547 1797.75 2
-5 7 7 240.491 244.367 2
-5 7 8 16085.7 1378.18 2
-5 7 9 40.2692 192.84 2
-5 8 -11 892.803 394.259 2
-5 8 -10 6304.25 898.076 2
-5 8 -9 2479.75 620.464 2
-5 8 -8 11174.1 1172.1 2
-5 8 -7 9760.98 1092.97 2
-5 8 -6 704.827 361.028 2
-5 8 -5 11102.3 1165.53 2
-5 8 -4 410.552 393.216 2
-5 8 -3 45697.5 2451.45 2
-5 8 -2 2601.58 643.475 2
-5 8 -1 21888.3 1675.87 2
-5 8 0 1388.7 489.813 2
-5 8 1 26086.4 1864.16 2
-5 8 2 6822.06 947.707 2
-5 8 3 17535.7 1530.94 2
-5 8 4 9234.87 1134.18 2
-5 8 5 4119.41 783.44 2
-5 8 6 11353 1232.47 2
-5 8 7 1200.44 396.066 2
-5 8 8 7311.06 994.998 2
-5 8 9 1654.94 483.624 2
-5 9 -11 48.2451 195.756 2
-5 9 -10 5046.54 844.536 2
-5 9 -9 1377.43 463.523 2
-5 9 -8 5273.22 841.172 2
-5 9 -7 4220.61 782.313 2
-5 9 -6 5682.34 875.844 2
-5 9 -5 9875.44 1158.5 2
-5 9 -4 635.252 408.843 2
-5 9 -3 12728 1312.59 2
-5 9 -2 3255.68 724.142 2
-5 9 -1 13428.3 1377.88 2
-5 9 0 552.625 411.589 2
-5 9 1 18499.6 1647.84 2
-5 9 2 5369.93 934.697 2
-5 9 3 5429.52 946.947 2
-5 9 4 8209.15 1123.64 2
-5 9 5 2336.94 641.606 2
-5 9 6 11716.8 1355.1 2
-5 9 7 692.745 416.368 2
-5 9 8 7007.76 1034.59 2
-5 10 -10 4044.34 781.028 2
-5 10 -9 1183.49 447.103 2
-5 10 -8 5228.94 897.391 2
-5 10 -7 4434.15 822.649 2
-5 10 -6 1027.47 498.777 2
-5 10 -5 3847.9 784.018 2
-5 10 -4 3832.32 784.602 2
-5 10 -3 6581.76 1065.21 2
-5 10 -2 15.8968 399.599 2
-5 10 -1 16064.9 1603.94 2
-5 10 0 2317.93 702.072 2
-5 10 1 14277.6 1563.19 2
-5 10 2 5009.52 977.835 2
-5 10 3 3071.18 775.789 2
-5 10 4 8573.15 1208.54 2
-5 10 5 5057.91 939.59 2
-5 10 6 13241.1 1502.65 2
-5 10 7 1790.55 606.107 2
-5 10 8 8818.65 1207.17 2
-5 11 -8 3179.92 776.918 2
-5 11 -7 2729.76 717.431 2
-5 11 -6 5185.97 947.776 2
-5 11 -5 7963.57 1198.31 2
-5 11 -4 2980.5 718.564 2
-5 11 -3 18252.5 1800.54 2
-5 11 -2 202.055 466.622 2
-5 11 -1 15488.4 1679.93 2
-5 11 0 -149.351 354.628 2
-5 11 1 10798.3 1420.67 2
-5 11 2 4001.21 859.268 2
-5 11 3 5847.46 1024.25 2
-5 11 4 6627.21 1128.38 2
-5 11 5 7318.03 1166.59 2
-5 12 -5 6105.05 1111.16 2
-5 12 -4 6424.96 1175.69 2
-5 12 -3 7597.65 1265.24 2
-5 12 -2 267.046 486.335 2
-5 12 -1 13271.6 1649.22 2
-5 12 0 603.129 463.823 2
-4 -6 7 25800.3 1457.59 1
-4 -6 8 212.675 145.723 1
-4 -5 5 12434.9 962.993 1
-4 -5 6 5308.97 589.311 1
-4 -5 6 5183.67 660.454 4
-4 -5 7 27847.3 1382.11 1
-4 -5 8 92.0294 128.546 1
-4 -4 6 56.0055 182.001 4
-4 -3 6 571.187 263.607 4
-4 -2 6 2581.77 475.994 4
-4 -1 -4 54363.9 2386.34 2
-4 -1 -3 4716.87 642.949 2
-4 -1 -2 38428.6 1801.29 2
-4 -1 2 54174.9 1958.26 2
-4 -1 3 30908.9 1266.36 2
-4 0 -7 9949.68 1016.98 2
-4 0 -6 35182.1 1901.95 2
-4 0 -5 11067 981.436 2
-4 0 -4 18718.3 1216.5 2
-4 0 -4 16253 536.34 3
-4 0 -3 10516.8 887.564 2
-4 0 1 485.985 227.437 2
-4 0 2 89353.6 2652.64 2
-4 0 3 12578.4 683.234 2
-4 0 4 60480 1815.84 2
-4 0 5 32259.9 1052.3 2
-4 1 -9 17277.2 1403.87 2
-4 1 -8 3305.8 595.675 2
-4 1 -7 9437.98 940.066 2
-4 1 -6 18504.1 1314.72 2
-4 1 -5 3403.78 537.542 2
-4 1 -4 31440.6 1598.68 2
-4 1 -4 31696.9 1070.46 3
-4 1 -3 1931.8 379.967 2
-4 1 -3 2358.66 222.043 3
-4 1 1 3901.37 413.716 2
-4 1 2 92885.4 2688.87 2
-4 1 3 39533.8 1380.1 2
-4 1 4 22638.3 901.135 2
-4 1 5 33834.1 1112.23 2
-4 1 6 24334.3 817.447 2
-4 1 7 21673.8 661.91 2
-4 2 -11 9801.72 1102.46 2
-4 2 -10 1044.8 403.494 2
-4 2 -9 13205.3 1193.6 2
-4 2 -8 615.275 287.79 2
-4 2 -7 14632 1155.87 2
-4 2 -6 38202.6 1877.11 2
-4 2 -5 8724.99 812.711 2
-4 2 -4 38751.7 1771.34 2
-4 2 -3 7846.45 503.459 3
-4 2 -2 71302.1 2118.88 3
-4 2 1 3071.36 402.766 2
-4 2 2 25757 1124.61 2
-4 2 3 54694.4 1807.34 2
-4 2 4 28305.6 1120.9 2
-4 2 5 16265.7 776.079 2
-4 2 6 23289.1 943.695 2
-4 2 7 26677.4 1010.45 2
-4 2 8 13222.2 637.471 2
-4 2 9 31017.2 1035.88 2
-4 2 9 30989.2 1058.27 2
-4 2 10 688.617 115.412 2
-4 3 -12 354.038 303.735 2
-4 3 -11 8977.3 1033.56 2
-4 3 -10 176.573 232.179 2
-4 3 -9 21923.6 1520.6 2
-4 3 -8 5830.81 747.85 2
-4 3 -7 29931.2 1682.3 2
-4 3 -6 11270.8 939.685 2
-4 3 -5 20683.1 1256.58 2
-4 3 -4 8389.83 744.774 2
-4 3 -3 10491.4 828.171 2
-4 3 -3 11092.2 683.532 3
-4 3 -2 92980.6 2758.25 3
-4 3 -1 848.869 210.366 3
-4 3 2 59022 2067.4 2
-4 3 3 21620.9 1076.31 2
-4 3 4 28453.4 1266.72 2
-4 3 5 13928.8 837.167 2
-4 3 6 28921.2 1288.39 2
-4 3 7 42378.6 1652.83 2
-4 3 8 16539.3 931.13 2
-4 3 9 20122.5 1033.75 2
-4 3 10 3248.02 381.764 2
-4 4 -12 14.8743 243.878 2
-4 4 -11 15147.2 1319.18 2
-4 4 -10 408.027 286.665 2
-4 4 -9 14129 1189.15 2
-4 4 -8 1282.57 372.64 2
-4 4 -7 13280.3 1055.95 2
-4 4 -6 4170.29 593.75 2
-4 4 -5 11117.2 926.688 2
-4 4 -4 10622.8 880.478 2
-4 4 -3 10714.1 733.321 3
-4 4 -3 9394.16 803.654 2
-4 4 -2 36440.6 1524.11 3
-4 4 -1 5005.43 512.263 3
-4 5 -12 1046.67 388.803 2
-4 5 -11 7102.62 881.71 2
-4 5 -10 -123.087 221.993 2
-4 5 -9 6632.64 807.386 2
-4 5 -8 1681.95 423.295 2
-4 5 -7 19368.3 1315.7 2
-4 5 -6 5148.66 651.905 2
-4 5 -5 17449.3 1184.45 2
-4 5 -4 7884.95 789.649 2
-4 5 -4 7528.63 669.904 3
-4 5 -3 6690.66 731.089 2
-4 5 -3 6327.46 604.11 3
-4 5 -2 52819.7 2079.22 3
-4 5 -2 56840.2 2287.24 2
-4 5 -1 -129.416 189.827 3
-4 5 0 53732.8 2236.07 2
-4 5 1 2572.09 481.849 2
-4 5 4 26402.3 1524.01 2
-4 5 9 19796.1 1258.41 1
-4 6 -12 1288.72 421.664 2
-4 6 -11 6742.47 861.146 2
-4 6 -10 352.161 235.535 2
-4 6 -9 7520.93 864.183 2
-4 6 -8 860.471 329.858 2
-4 6 -7 25125.7 1556.06 2
-4 6 -6 1293.63 380.192 2
-4 6 -5 18614 1293.3 2
-4 6 -4 25504.4 1540.28 2
-4 6 -3 18827 1318.14 2
-4 6 -3 17936.8 1141.91 3
-4 6 -2 50219.5 2308.34 2
-4 6 -2 51583.8 2128.65 3
-4 6 -1 223.177 332.15 2
-4 6 -1 -260.945 254.1 3
-4 6 0 46367.9 2191.08 2
-4 6 1 4494.81 675.869 2
-4 6 2 37672.4 1986.13 2
-4 6 3 723.094 333.695 2
-4 6 4 22884.2 1511.54 1
-4 6 5 1235.82 389.297 1
-4 6 6 21352.6 1471.73 1
-4 6 7 11195.4 1038.43 1
-4 6 8 11736.9 1076.39 1
-4 6 9 11669.9 1058.08 1
-4 7 -12 393.915 278.669 2
-4 7 -11 6449.02 859.158 2
-4 7 -10 317.527 249.113 2
-4 7 -9 8148.67 913.31 2
-4 7 -8 -292.083 252.132 2
-4 7 -7 23435.7 1561.88 2
-4 7 -6 2260.63 500.784 2
-4 7 -5 26112.8 1638.8 2
-4 7 -4 12613.5 1120.01 2
-4 7 -3 20342.7 1445.62 2
-4 7 -2 5093.71 750.313 2
-4 7 -1 7900.83 919.322 2
-4 7 0 9867.74 1037.79 2
-4 7 1 1526.85 504.701 2
-4 7 2 38709.6 2167.78 2
-4 7 3 212.52 328.366 1
-4 7 4 35425.4 2108.96 1
-4 7 5 510.786 423.389 1
-4 7 6 21794.8 1610.32 1
-4 7 7 9736.08 1050.05 1
-4 7 8 3347.81 621.424 1
-4 7 9 5048.63 768.732 1
-4 8 -12 3413.28 666.776 2
-4 8 -11 6010.78 846.108 2
-4 8 -10 1560.71 450.912 2
-4 8 -9 12476.3 1183.3 2
-4 8 -8 -251.734 287.521 2
-4 8 -7 23204.7 1628.94 2
-4 8 -6 936.055 398.88 2
-4 8 -5 9343.27 1022.41 2
-4 8 -4 2682.07 585.395 2
-4 8 -3 25890.3 1760.94 2
-4 8 -2 4583.48 746.885 2
-4 8 -1 4428.6 734.157 2
-4 8 0 18933.1 1544.73 2
-4 8 1 4869.35 805.852 2
-4 8 2 40253 2361.23 2
-4 8 3 887.498 414.954 1
-4 8 4 26823 1917.43 1
-4 8 5 3229.8 685.079 1
-4 8 6 18516 1580.36 1
-4 8 7 2892.98 658.808 1
-4 8 8 5367.49 858.764 1
-4 9 -12 2732.51 593.262 2
-4 9 -11 4949.78 780.597 2
-4 9 -10 1575.52 466.738 2
-4 9 -9 9391.41 1091.41 2
-4 9 -8 1114.91 418.709 2
-4 9 -7 8003.5 1000.47 2
-4 9 -6 165.145 322.24 2
-4 9 -5 14458 1366.54 2
-4 9 -4 6293.59 916.809 2
-4 9 -3 17504 1535.97 2
-4 9 -2 7655.86 1037.11 2
-4 9 -1 13778.7 1383.87 2
-4 9 0 11066.4 1260.98 2
-4 9 1 4699.81 876.925 2
-4 9 2 16738.6 1595.85 1
-4 9 3 292.774 365.154 1
-4 9 4 17290.7 1632.65 1
-4 9 5 135.455 255.468 1
-4 9 6 18403.8 1676.26 1
-4 9 7 1076.84 442.298 1
-4 9 8 7702.77 1101.41 1
-4 10 -11 3862.84 720.394 2
-4 10 -10 236.108 278.687 2
-4 10 -9 3143.09 680.014 2
-4 10 -8 109.303 299.875 2
-4 10 -7 10067.1 1170.81 2
-4 10 -6 1374.2 500.176 2
-4 10 -5 9431.03 1180.11 2
-4 10 -4 5731.86 926.021 2
-4 10 -3 15736.8 1547.98 2
-4 10 -2 6952.92 1109.77 2
-4 10 -1 7008.73 1104.09 2
-4 10 0 12067.7 1412.42 2
-4 10 1 1624.24 565.632 2
-4 10 2 17448.7 1735.34 1
-4 10 3 1821.64 604.402 1
-4 10 4 11416.6 1417.12 1
-4 10 5 97.7882 392.214 1
-4 10 6 15501.6 1634.52 1
-4 10 7 651.438 408.805 1
-4 10 8 9513.1 1253.17 1
-4 11 -10 2076.91 579.787 2
-4 11 -9 11019.5 1285.4 2
-4 11 -8 823.486 408.695 2
-4 11 -7 7356.45 1079.64 2
-4 11 -6 -289.819 344.37 2
-4 11 -5 13180.2 1487.9 2
-4 11 -4 1244.61 617.851 2
-4 11 -3 8453.36 1238.84 2
-4 11 -2 5697.29 1067.27 2
-4 11 -1 7710.95 1192.56 2
-4 11 0 12871.3 1546.42 2
-4 11 1 11967.6 1462.63 2
-4 11 2 9888.56 1379.33 1
-4 11 3 549.24 534.62 1
-4 11 4 14157.3 1659.76 1
-4 11 5 423.039 383.304 1
-4 11 6 14768.4 1672.21 1
-4 12 -8 3273.61 887.252 2
-4 12 -7 7397.31 1145.62 2
-4 12 -6 561.91 533.572 2
-4 12 -5 5908.8 1074.48 2
-4 12 -4 409.648 409.26 2
-4 12 -3 6985.49 1168.17 2
-4 12 -2 4257.37 952.101 2
-4 12 -1 9563.32 1369.93 2
-4 12 0 4311.25 990.244 2
-4 12 1 2969.8 836.797 2
-4 12 2 13673.8 1736.2 1
-3 -7 6 5825.59 694.396 4
-3 -6 4 6344.73 604.194 4
-3 -6 5 22537.2 1436.66 1
-3 -6 6 8152.02 812.231 1
-3 -6 6 8648.67 844.787 4
-3 -6 7 6986.97 718.526 1
-3 -6 8 15029.4 1045.57 1
-3 -6 9 3243.97 451.679 1
-3 -5 2 674.789 273.355 1
-3 -5 3 59126.7 2446.42 1
-3 -5 4 3792.82 467.867 4
-3 -5 4 5240.2 622.1 1
-3 -5 5 15545.2 1066.64 1
-3 -5 6 5692.39 684.342 4
-3 -5 6 4804.79 549.863 1
-3 -5 7 11143.6 826.092 1
-3 -5 8 11670.1 814.902 1
-3 -5 9 1614.41 277.968 1
-3 -4 1 33408.3 1662.52 1
-3 -4 2 1327.46 309.265 1
-3 -4 3 14166.6 964.64 1
-3 -4 4 11738.2 831.546 4
-3 -4 4 14147.8 910.943 1
-3 -4 5 17981.3 1022.97 1
-3 -4 6 8636.57 659.289 1
-3 -4 6 10759.6 957.376 4
-3 -4 7 18107.9 945.63 1
-3 -4 7 19037.7 1307.68 4
-3 -4 8 18206 883.068 1
-3 -4 9 6744.18 463.374 1
-3 -4 10 6881.94 402.331 1
-3 -3 -7 282.022 110.298 3
-3 -3 -6 18331.6 764.37 3
-3 -3 2 905.013 231.156 1
-3 -3 3 60702.9 2108.6 1
-3 -3 4 5921.77 505.979 1
-3 -3 4 4764.35 510.881 4
-3 -3 5 27879 1153.45 1
-3 -3 6 1925.08 244.261 1
-3 -3 6 1776.58 365.572 4
-3 -3 7 44377.2 2057.43 4
-3 -3 7 38206.7 1287.08 1
-3 -3 8 5849.96 347.104 1
-3 -2 -5 4057.7 294.07 3
-3 -2 -4 41797.3 1101.73 3
-3 -2 4 -97.3229 166.531 4
-3 -2 6 1868.48 391.656 4
-3 -2 7 37283.2 1893.17 4
-3 -1 -4 41877.8 1887.47 2
-3 -1 -3 33261.2 1590.77 2
-3 -1 1 53884.4 1821.9 2
-3 -1 2 38797 1363.63 2
-3 -1 4 585.671 241.998 4
-3 -1 7 71347 2791.53 4
-3 0 -7 132.905 213.295 2
-3 0 -6 53996.4 2284.22 2
-3 0 -5 7535.83 728.451 2
-3 0 -4 71519.6 2584.65 2
-3 0 1 105871 2919.14 2
-3 0 2 26080.6 975.088 2
-3 0 3 66062.8 1826.96 2
-3 0 4 445.6 93.4831 2
-3 0 7 26852.7 1534.95 4
-3 1 -10 13777.8 1300 4
-3 1 -9 8327.35 900.968 2
-3 1 -9 7404.27 915.525 4
-3 1 -8 22273.4 1424.65 2
-3 1 -7 524.659 276.231 2
-3 1 -6 36954.3 1763.48 2
-3 1 -5 147.798 212.788 2
-3 1 -4 36105.8 1585.39 2
-3 1 -2 21545.8 759.813 3
-3 1 1 43627.9 1445.18 2
-3 1 2 9929.28 535.83 2
-3 1 3 82535.3 2217.21 2
-3 1 4 21.3812 79.4354 2
-3 1 5 27704.1 884.855 2
-3 1 6 1354.34 152.141 2
-3 1 6 1610.21 358.519 4
-3 1 7 21824.9 733.153 2
-3 1 7 20976.7 700.286 2
-3 1 8 12792.9 486.383 2
-3 1 8 12081.9 510.1 2
-3 1 9 17604.4 615.607 2
-3 1 9 18070 663.373 2
-3 1 10 5180.8 283.345 2
-3 1 10 5095.24 305.217 2
-3 2 -11 3304.13 615.159 2
-3 2 -11 2916.42 686.777 4
-3 2 -10 15632.4 1238.26 2
-3 2 -10 12858 1273.71 4
-3 2 -9 3616.82 562.885 2
-3 2 -9 3519.53 671.325 4
-3 2 -8 8115.91 827.837 2
-3 2 -8 9202.91 948.055 4
-3 2 -7 100.827 223.711 2
-3 2 -6 18497.7 1139.87 2
-3 2 -5 883.575 276.109 2
-3 2 -4 35247.6 1536.93 2
-3 2 -3 21288.2 1088.16 2
-3 2 -2 50577.3 1571.07 3
-3 2 -1 9686.47 556.12 3
-3 2 1 47998.8 1602.87 2
-3 2 2 4658.69 397.086 2
-3 2 3 60558 1868.22 2
-3 2 4 1608.86 256.771 2
-3 2 5 71564.2 2153.95 2
-3 2 7 25692.6 997.722 1
-3 2 7 25654.7 1484.61 4
-3 2 8 8085.05 510.961 1
-3 2 8 7791.27 503.657 2
-3 2 9 13787.4 697.049 1
-3 2 9 12905.3 686.279 2
-3 2 10 20277.6 909.267 2
-3 2 10 21476.2 907.774 1
-3 3 -12 3026.28 731.672 4
-3 3 -12 3111.19 572.952 2
-3 3 -11 3591.16 595.588 2
-3 3 -11 3284.99 748.314 4
-3 3 -10 4292.26 774.024 4
-3 3 -10 5059.7 683.958 2
-3 3 -9 9269.04 890.151 2
-3 3 -9 10990 1118.01 4
-3 3 -8 19401.1 1246.11 2
-3 3 -8 17924 1353.7 4
-3 3 -7 1623.48 415.605 2
-3 3 -6 41217 1800.5 2
-3 3 -5 151.729 165.389 2
-3 3 -4 35486.4 1540.53 2
-3 3 -3 6975.3 618.51 2
-3 3 -2 38754.3 1414.5 3
-3 3 -1 31001.3 1236.4 3
-3 3 1 36955.9 1466.82 2
-3 3 2 7090.16 577.435 2
-3 3 3 126498 3613.3 2
-3 3 4 7898.04 606.368 1
-3 3 5 44290.3 1681.82 1
-3 3 6 1524.02 293.428 1
-3 3 7 42308.3 1671.92 1
-3 3 8 4241.72 469.065 1
-3 3 9 34184.1 1466.9 1
-3 3 9 30434.7 1349.08 2
-3 3 10 7472.44 637.263 1
-3 4 -12 169.786 260.887 2
-3 4 -12 298.773 364.44 4
-3 4 -11 5306.73 909.18 4
-3 4 -11 7459.73 852.683 2
-3 4 -10 6578.95 938.968 4
-3 4 -10 5817.81 720.008 2
-3 4 -9 12634 1218.74 4
-3 4 -9 12201.2 1012.15 2
-3 4 -8 22200 1341.32 2
-3 4 -7 1914.63 378.574 2
-3 4 -6 30449.3 1532.17 2
-3 4 -5 3063.88 449.048 2
-3 4 -4 33789.8 1568.81 2
-3 4 -3 16155.2 991.995 2
-3 4 -2 44755.4 1669.53 3
-3 4 -1 11610 753.146 3
-3 4 0 67587.6 2286.92 3
-3 4 1 39280.7 1691.78 2
-3 4 2 15649.7 1004.31 2
-3 4 3 25686.2 1329.54 1
-3 4 4 18692.7 1127.05 1
-3 4 5 24894.4 1328.14 1
-3 4 6 944.57 311.266 1
-3 4 9 14865 972.706 2
-3 5 -12 1619.02 411.893 2
-3 5 -11 9711.36 1212.3 4
-3 5 -11 9866.22 976.509 2
-3 5 -10 5999.73 741.376 2
-3 5 -10 7846.95 1042.54 4
-3 5 -9 6575.66 737.682 2
-3 5 -8 23875.8 1415.91 2
-3 5 -7 6282.54 692.881 2
-3 5 -6 23470.7 1342.1 2
-3 5 -5 6371.57 668.498 2
-3 5 -4 32739.6 1599.01 2
-3 5 -3 1268.57 357.98 2
-3 5 -2 59753.1 2161.83 3
-3 5 -1 1977.86 342.157 3
-3 5 0 60426 2246.58 3
-3 5 7 26590.8 1569.29 1
-3 5 8 211.004 194.197 1
-3 5 9 14126.7 1140.02 1
-3 5 10 2580.6 486.023 1
-3 6 -12 736.056 318.902 2
-3 6 -11 8789.94 927.742 2
-3 6 -10 3834.9 588.294 2
-3 6 -9 6199.81 744.01 2
-3 6 -8 13860.3 1087.61 2
-3 6 -7 5506.76 676.796 2
-3 6 -6 9998.51 895.106 2
-3 6 -5 10554.2 923.163 2
-3 6 -4 34683.2 1783.11 2
-3 6 -3 788.985 262.194 3
-3 6 -3 635.312 318.74 2
-3 6 -2 49235.7 2006.81 3
-3 6 -2 48087.1 2201.93 2
-3 6 -1 557.895 206.13 3
-3 6 0 49434.5 2073.65 3
-3 6 1 12857 1112.47 1
-3 6 2 28284.7 1705.3 1
-3 6 3 7887.07 886.215 1
-3 6 4 19759.9 1414.92 1
-3 6 5 10400.4 1018.36 1
-3 6 6 99.5229 282.207 1
-3 6 7 32284.6 1898.96 1
-3 6 8 -21.2264 242.9 1
-3 6 9 17133.1 1382.12 1
-3 6 10 1560.49 440.212 1
-3 7 -12 6.30141 186.713 2
-3 7 -11 9076.81 954.936 2
-3 7 -10 1067.28 353.384 2
-3 7 -9 4079.75 620.392 2
-3 7 -8 8264.06 882.545 2
-3 7 -7 8626.4 878.545 2
-3 7 -6 16105.3 1231.28 2
-3 7 -5 3206.52 580.742 2
-3 7 -4 53019.7 2412.88 2
-3 7 -3 -97.4405 320.441 2
-3 7 -2 28002.5 1723.82 2
-3 7 -1 2636.3 594.233 2
-3 7 0 21903.8 1579.1 1
-3 7 1 4381.58 730.533 1
-3 7 2 16220.6 1368.8 1
-3 7 3 6926.18 902.067 1
-3 7 4 3068.46 633.985 1
-3 7 5 28796.1 1886.19 1
-3 7 6 2089.12 543.493 1
-3 7 7 26664 1834.54 1
-3 7 8 -87.2664 245.581 1
-3 7 9 21496.1 1651.29 1
-3 8 -12 -118.207 211.246 2
-3 8 -11 5807.66 777.68 2
-3 8 -10 113.568 201.939 2
-3 8 -9 11533.7 1076.97 2
-3 8 -8 11900.9 1114.98 2
-3 8 -7 9965.83 1015.09 2
-3 8 -6 17324.8 1350.8 2
-3 8 -5 1469.31 469.362 2
-3 8 -4 43393.3 2285.11 2
-3 8 -3 39.9264 371.486 2
-3 8 -2 23466 1687.09 2
-3 8 -1 1690.04 487.418 2
-3 8 0 27356.5 1933.15 1
-3 8 1 14966.5 1394.04 1
-3 8 2 17782 1553.06 1
-3 8 3 15904.6 1451.15 1
-3 8 4 29228.6 2021.89 1
-3 8 5 16564.4 1506.78 1
-3 8 6 6273.6 940.295 1
-3 8 7 18917.8 1635.75 1
-3 8 8 800.543 399.202 1
-3 8 9 19950.1 1698.51 1
-3 9 -11 8754.57 993.206 2
-3 9 -10 907.393 424.968 2
-3 9 -9 11250.8 1132.18 2
-3 9 -8 4608.95 743.742 2
-3 9 -7 6845.88 895.547 2
-3 9 -6 5749.86 839.299 2
-3 9 -5 7221.59 950.096 2
-3 9 -4 21000.6 1673.4 2
-3 9 -3 3444.38 729.93 2
-3 9 -2 15998.2 1485.45 2
-3 9 -1 -20.3816 319.793 1
-3 9 0 25693.1 1967.93 1
-3 9 1 1363.38 538.198 1
-3 9 2 32519.8 2275.87 1
-3 9 3 2888.21 729.149 1
-3 9 4 10695.5 1282.29 1
-3 9 5 17756 1660.49 1
-3 9 6 5762.4 968.032 1
-3 9 7 11510.6 1364.08 1
-3 9 8 -1073.66 495.43 1
-3 10 -11 6780.36 919.32 2
-3 10 -10 152.003 242.157 2
-3 10 -9 6136.43 874.947 2
-3 10 -8 1319.69 487.667 2
-3 10 -7 7289.33 987.887 2
-3 10 -6 4106.78 779.08 2
-3 10 -5 2775.98 653.711 2
-3 10 -4 15527.5 1513.54 2
-3 10 -3 831.779 480.667 2
-3 10 -2 9833.22 1233.86 2
-3 10 -1 402.203 402.733 1
-3 10 0 20447.3 1904.76 1
-3 10 1 1176.54 583.5 1
-3 10 2 9337.24 1286.99 1
-3 10 3 9095.07 1259.29 1
-3 10 4 10923.4 1385.41 1
-3 10 5 11681.7 1439.14 1
-3 10 6 2088.2 630.436 1
-3 10 7 3670.4 793.188 1
-3 10 8 -250.138 345.232 1
-3 11 -11 1631.87 534.881 2
-3 11 -10 305.225 274.643 2
-3 11 -9 9133.32 1138.91 2
-3 11 -8 1193.7 437.218 2
-3 11 -7 5484.43 936.097 2
-3 11 -6 7674.71 1099.61 2
-3 11 -5 3403.17 796.989 2
-3 11 -4 8991.33 1237.18 2
-3 11 -3 2225.13 687.77 2
-3 11 -2 14370.8 1604.23 2
-3 11 -1 1225.8 594.725 1
-3 11 0 16573.1 1776.77 1
-3 11 1 217.975 359.136 1
-3 11 2 13135.9 1590.96 1
-3 11 3 3262.23 788.673 1
-3 11 4 5521.6 1044.2 1
-3 11 5 4741.93 1024.72 1
-3 12 -10 -599.249 351.516 2
-3 12 -9 5717.73 950.047 2
-3 12 -8 1187.52 497.749 2
-3 12 -7 4311.09 884.693 2
-3 12 -6 3158.63 777.431 2
-3 12 -5 4622.08 939.168 2
-3 12 -4 3935.51 862.925 2
-3 12 -3 3023.84 802.443 2
-3 12 -2 9529.86 1434.56 2
-3 12 -1 1620.97 632.826 1
-3 12 0 16270.5 1850.62 1
-3 12 1 -385.091 473.055 1
-2 -8 4 22015.8 1147.82 4
-2 -8 6 23148.6 1423.47 4
-2 -7 3 7088.32 526.277 4
-2 -7 4 26467.6 1306.39 4
-2 -7 6 11235.5 952.679 4
-2 -7 8 8948.4 901.551 1
-2 -7 9 2350.02 456.587 1
-2 -6 3 4497.84 439.082 4
-2 -6 3 6734.37 786.644 1
-2 -6 4 20631.4 1142.19 4
-2 -6 4 22530.5 1444.08 1
-2 -6 5 806.889 312.533 1
-2 -6 6 31787.6 1673.51 4
-2 -6 6 32335.7 1732.44 1
-2 -6 7 1098.46 299.994 1
-2 -6 8 22355.1 1350.9 1
-2 -6 9 1946.24 391.874 1
-2 -5 0 887.494 275.485 1
-2 -5 1 22301.3 1376.56 1
-2 -5 2 16190.8 740.581 4
-2 -5 2 19619.8 1271.82 1
-2 -5 3 13776.6 805.566 4
-2 -5 3 14167.8 1038.66 1
-2 -5 4 40940.7 1704.92 4
-2 -5 4 43333.3 1932.96 1
-2 -5 5 7925.95 745.623 1
-2 -5 6 26197.3 1454.41 4
-2 -5 6 22676.6 1305.39 1
-2 -5 7 815.823 270.713 1
-2 -5 7 226.414 203.112 4
-2 -5 8 21235.7 1198.13 1
-2 -5 9 883.392 247.15 1
-2 -5 10 19136.9 1071 1
-2 -4 -6 646.867 179.261 3
-2 -4 -5 17612.3 862.618 3
-2 -4 -1 50884.6 2160.01 1
-2 -4 0 568.789 229.857 1
-2 -4 1 77771.6 2768.11 1
-2 -4 2 40502.4 1445.07 4
-2 -4 2 49715.3 1935.37 1
-2 -4 3 17572.6 1048.28 1
-2 -4 3 16961.4 892.031 4
-2 -4 4 28904.5 1384.92 1
-2 -4 4 30596.6 1390.34 4
-2 -4 5 1591.81 296.493 1
-2 -4 6 37789 1764.4 4
-2 -4 6 34274.6 1492.54 1
-2 -4 7 1926.21 314.401 1
-2 -4 7 2813.83 478.974 4
-2 -4 8 29377.8 1287.69 1
-2 -4 9 610.424 176.301 1
-2 -4 10 12420.9 729.721 1
-2 -3 -9 8966.48 869.056 4
-2 -3 -8 10749 875.572 4
-2 -3 -7 14334.6 938.134 4
-2 -3 -5 11713.7 670.01 3
-2 -3 -4 577.379 156.347 3
-2 -3 -3 49057.1 1447.51 3
-2 -3 -1 80587.3 2735.91 1
-2 -3 0 23452.4 1217.02 1
-2 -3 1 97558.9 3033.2 1
-2 -3 2 36315.5 1473.3 1
-2 -3 2 36254.8 1277.01 4
-2 -3 3 22989.2 1085.51 1
-2 -3 3 23596.3 1080.54 4
-2 -3 4 57222.9 2009.42 4
-2 -3 4 50816.9 1829.71 1
-2 -3 5 18912.9 904.293 1
-2 -3 6 79667.2 2374.49 1
-2 -3 7 1061.73 201.692 1
-2 -3 7 1188.67 345.571 4
-2 -3 8 31111.6 1163.76 1
-2 -3 9 1808.76 234.27 1
-2 -3 10 18084.6 779.361 1
-2 -2 -11 -104.034 422.807 4
-2 -2 -10 7355.13 871.777 4
-2 -2 -9 7818.59 865.555 4
-2 -2 -8 20119.8 1291.33 4
-2 -2 -7 19097.1 1165.18 4
-2 -2 -6 7276.64 633.785 4
-2 -2 -5 28329.5 1223.31 4
-2 -2 -3 88596.8 2269.77 3
-2 -2 1 113396 3181.47 1
-2 -2 2 19350.1 843.476 4
-2 -2 2 18827.5 859.946 1
-2 -2 3 30035.5 1112.95 1
-2 -2 3 32080.2 1271.07 4
-2 -2 4 16509.3 943.707 4
-2 -2 4 17429.3 721.459 1
-2 -2 5 12793.8 569.613 1
-2 -2 6 40716.1 1223.39 1
-2 -2 7 10290.4 466.39 1
-2 -2 8 42477 1241.81 1
-2 -2 9 -22.3194 52.0611 1
-2 -2 10 33260.6 1006.37 1
-2 -2 10 32363.7 937.04 1
-2 -2 11 3170.01 191.366 1
-2 -2 11 3351.38 218.357 1
-2 -1 -12 6171.5 966.167 4
-2 -1 -11 711.94 394.439 4
-2 -1 -10 11493.1 1135.72 4
-2 -1 -9 6774.62 813.473 4
-2 -1 -8 15562.4 1157.14 4
-2 -1 -7 20432.5 1243.21 4
-2 -1 -6 16686.9 1021.14 4
-2 -1 -5 41329.8 1616.32 4
-2 -1 -4 2724.87 343.081 4
-2 -1 -3 77994.1 2543.19 2
-2 -1 1 210462 5172.54 2
-2 -1 9 147.864 58.3732 1
-2 -1 9 108.807 45.9516 1
-2 -1 10 41565.8 1199.1 1
-2 -1 10 41741.3 1173.14 1
-2 -1 11 74.6537 48.0692 1
-2 0 -13 419.07 342.162 4
-2 0 -12 12730.9 1389.21 4
-2 0 -11 313.855 334.496 4
-2 0 -10 9000.61 1027.73 4
-2 0 -9 2882.09 583.745 4
-2 0 -8 16591.9 1224.7 4
-2 0 -7 18862.2 1179.33 2
-2 0 -7 18408.6 1199.55 4
-2 0 -6 8458 735.851 2
-2 0 -6 7351.93 694.688 4
-2 0 -5 24689.9 1203.9 4
-2 0 -5 24848 1251.52 2
-2 0 -4 57615.8 1976.91 4
-2 0 -4 63471.2 2135.93 2
-2 0 -3 70550.7 2270.63 2
-2 0 2 8623.96 381.899 2
-2 0 3 42236.2 1083.03 2
-2 0 7 626.144 93.1196 1
-2 0 7 940.953 101.995 2
-2 0 7 632.213 258.939 4
-2 0 8 24987.6 809.936 2
-2 0 8 26510.2 857.082 1
-2 0 9 624.045 126.825 1
-2 0 9 745.611 129.073 2
-2 0 10 21646.3 841.266 1
-2 0 10 19830.7 779.789 2
-2 0 11 927.573 165.752 1
-2 1 -13 1347.28 588.676 4
-2 1 -12 8335.09 1121.13 4
-2 1 -11 -98.1499 435.206 4
-2 1 -10 17888.3 1473.77 4
-2 1 -9 382.601 313.38 4
-2 1 -9 288.179 212.662 2
-2 1 -8 13169 987.84 2
-2 1 -8 14039.7 1131.81 4
-2 1 -7 8811.34 854.591 4
-2 1 -7 7208.93 694.618 2
-2 1 -6 29253.7 1501.72 4
-2 1 -6 31417.4 1438.19 2
-2 1 -5 5593.09 588.085 4
-2 1 -5 5618.73 545.336 2
-2 1 -4 44075.9 1660.55 4
-2 1 -4 46340.4 1679.41 2
-2 1 -3 21262.7 981.226 2
-2 1 -1 7286.82 362.261 3
-2 1 2 29347.6 935.131 2
-2 1 3 40343.1 1189.79 2
-2 1 4 14512.7 547.195 1
-2 1 4 14474.7 854.322 4
-2 1 5 75534.7 2026.86 1
-2 1 5 79716.5 2624.19 4
-2 1 6 15415.6 630.114 2
-2 1 6 14965 659.289 1
-2 1 6 15487 1017.09 4
-2 1 7 5307.84 389.501 1
-2 1 7 5174.22 357.8 2
-2 1 7 5121.81 604.342 4
-2 1 8 23860.3 933.935 2
-2 1 8 23884.8 990.904 1
-2 1 8 24954.3 1464.03 4
-2 1 9 245.822 146.395 1
-2 1 9 337.709 113.532 2
-2 1 10 32258.9 1234.2 2
-2 1 10 32892.5 1308.77 1
-2 1 11 -172.31 119.69 1
-2 2 -13 828.24 509.337 4
-2 2 -12 9164.34 1213.89 4
-2 2 -11 -101.85 243.57 2
-2 2 -11 279.813 331.594 4
-2 2 -10 13444.6 1281.18 4
-2 2 -10 16314.1 1158.19 2
-2 2 -9 766.486 298.473 2
-2 2 -9 1529.95 490.174 4
-2 2 -8 22039 1250.28 2
-2 2 -8 22191.8 1466.43 4
-2 2 -7 4848.91 551.205 2
-2 2 -7 6351.03 732.948 4
-2 2 -6 17187.4 1125.42 4
-2 2 -6 18766.4 1045.14 2
-2 2 -5 36611.4 1617.54 4
-2 2 -5 39152.6 1540.67 2
-2 2 -4 12589.5 758.286 2
-2 2 -4 12384.4 800.444 4
-2 2 -3 120937 3337.66 2
-2 2 -1 20563.2 801.102 3
-2 2 0 3062.98 296.187 3
-2 2 3 69274.7 2065.95 1
-2 2 4 4301.07 398.503 1
-2 2 5 87988.5 2589.92 1
-2 2 5 90039.5 2889.28 4
-2 2 6 33000.8 1330.28 1
-2 2 6 33075.8 1563.73 4
-2 2 7 4880.36 436.295 2
-2 2 7 6165.4 659.155 4
-2 2 7 5129.01 491.367 1
-2 2 8 32439.5 1322.18 2
-2 2 8 36182.1 1792.6 4
-2 2 8 33864.1 1428.04 1
-2 2 9 6710.86 552.414 2
-2 2 9 7847.24 641.176 1
-2 2 10 21179.4 1128.79 1
-2 2 10 19945.5 1041.32 2
-2 3 -13 574.114 471.222 4
-2 3 -12 8347.42 849.28 2
-2 3 -12 6780.07 1054.83 4
-2 3 -11 -119.348 208.849 2
-2 3 -11 745.395 481.377 4
-2 3 -10 19619.4 1249.73 2
-2 3 -10 17115.8 1470.85 4
-2 3 -9 535.688 258.218 2
-2 3 -9 265.088 344.105 4
-2 3 -8 22195.5 1234.45 2
-2 3 -8 20354.7 1430.42 4
-2 3 -7 19647.4 1107.33 2
-2 3 -7 20138.6 1310.13 4
-2 3 -6 47307 1801.35 2
-2 3 -6 44241.9 1968.08 4
-2 3 -5 48143.1 1947.87 4
-2 3 -5 49514.1 1812.43 2
-2 3 -4 22414.2 1150.84 4
-2 3 -4 24005.2 1118.29 2
-2 3 -3 73129.1 2310.12 2
-2 3 -1 59270.3 1862.81 3
-2 3 0 66812.1 2072.38 3
-2 3 1 89572.7 2732.45 1
-2 3 2 3410.87 414.453 1
-2 3 3 123486 3580.26 1
-2 3 4 28136.8 1304.98 1
-2 3 5 54496.1 2025.71 1
-2 3 6 27452.4 1341.78 1
-2 3 7 22260 1316.19 4
-2 3 7 23367.2 1245.03 1
-2 3 8 4178.47 469.151 2
-2 3 8 3858.41 546.779 4
-2 3 9 8881.54 716.854 2
-2 3 10 21606.3 1197.72 2
-2 3 11 852.184 280.642 1
-2 4 -13 885.321 511.834 4
-2 4 -12 9220.74 897.371 2
-2 4 -12 10052.6 1293.6 4
-2 4 -11 288.7 406.469 4
-2 4 -11 553.019 266.313 2
-2 4 -10 23824.6 1380.58 2
-2 4 -10 21101.7 1642.99 4
-2 4 -9 -53.0841 327.667 4
-2 4 -9 242.331 213.66 2
-2 4 -8 36863.8 1675.18 2
-2 4 -8 36658.3 1984.33 4
-2 4 -7 11282.4 818.131 2
-2 4 -7 11249.9 1001.1 4
-2 4 -6 20355.5 1270.24 4
-2 4 -6 20746.3 1131.18 2
-2 4 -5 4668.13 506.402 2
-2 4 -5 4367.23 559.229 4
-2 4 -4 24500 1213.23 2
-2 4 -3 50526.4 1884.18 2
-2 4 -1 56990.1 1931.76 3
-2 4 0 134975 3768.16 3
-2 4 1 114714 3595.16 1
-2 4 2 4362.09 549.088 1
-2 4 3 46735.2 1969.95 1
-2 4 4 1660.77 371.469 1
-2 4 8 15547.3 1126.59 1
-2 4 8 13474.2 962.777 2
-2 4 9 6250.47 654.193 2
-2 4 9 7583.78 802.728 1
-2 4 10 10416 952.896 1
-2 5 -13 2727.04 776.739 4
-2 5 -12 10855.5 973.686 2
-2 5 -12 11280.2 1353.49 4
-2 5 -11 1118.75 283.791 2
-2 5 -11 875.365 474.984 4
-2 5 -10 27925.4 1523.15 2
-2 5 -10 29402 1964.44 4
-2 5 -9 -123.905 188.897 2
-2 5 -9 25.9555 426.802 4
-2 5 -8 24738.8 1345.89 2
-2 5 -8 23437.4 1559.32 4
-2 5 -7 1235.32 440.208 4
-2 5 -7 970.801 304.389 2
-2 5 -6 28481.6 1400.45 2
-2 5 -6 24660.9 1458.44 4
-2 5 -5 3689.58 515.394 2
-2 5 -4 37415.1 1672.72 2
-2 5 -3 28409.2 1456.72 2
-2 5 -2 36357.3 1704.74 2
-2 5 -2 36154.7 1518.07 3
-2 5 -1 70077 2372.45 3
-2 5 0 7986.08 672.518 3
-2 5 5 23591 1495.66 1
-2 5 6 24790.4 1536.77 1
-2 5 7 31084.7 1776.34 1
-2 5 8 5421.83 739.996 1
-2 5 9 11553.4 1088.38 1
-2 5 10 19709.4 1458.64 1
-2 6 -12 8078.24 837.074 2
-2 6 -12 8633.76 1173.01 4
-2 6 -11 2824.66 497.859 2
-2 6 -11 1066.01 485.952 4
-2 6 -10 8732.18 826.367 2
-2 6 -10 8229.79 1054.54 4
-2 6 -9 488.218 277.334 2
-2 6 -9 -101.621 345.551 4
-2 6 -8 26232.6 1454.19 2
-2 6 -8 27083 1704.88 4
-2 6 -7 -404.109 386.448 4
-2 6 -7 364.896 263.654 2
-2 6 -6 28845.2 1510.19 2
-2 6 -5 526.822 273.516 2
-2 6 -4 16626.9 1151.97 2
-2 6 -3 45590.7 2088.31 2
-2 6 -2 1023.43 396.077 2
-2 6 -2 1747.07 349.313 3
-2 6 -1 42928 1815.91 3
-2 6 0 1220.26 311.586 3
-2 6 1 44189.9 2234.38 1
-2 6 2 -68.6233 307.38 1
-2 6 3 35508.9 1974.12 1
-2 6 4 129.766 228.982 1
-2 6 5 35409.9 2004.75 1
-2 6 6 4509.99 704.893 1
-2 6 7 24034.7 1659.42 1
-2 6 8 10859.3 1111.01 1
-2 6 9 6201.24 868.653 1
-2 6 10 21458.8 1625.4 1
-2 7 -12 3631.6 774.517 4
-2 7 -12 4013.03 595.051 2
-2 7 -11 1580.01 549.056 4
-2 7 -11 1261.01 355.87 2
-2 7 -10 8233.53 843.206 2
-2 7 -10 9814.54 1146.33 4
-2 7 -9 -245.633 233.589 2
-2 7 -9 -221.487 397.568 4
-2 7 -8 19572.4 1437.91 4
-2 7 -8 18768.5 1273.8 2
-2 7 -7 37.1696 223.668 2
-2 7 -6 14600 1117.46 2
-2 7 -5 10575.3 963.664 2
-2 7 -4 16912.8 1261.89 2
-2 7 -3 15042.2 1213.06 2
-2 7 -2 9276.36 1011.71 1
-2 7 -1 29588.8 1849.65 1
-2 7 0 7399.36 928.336 1
-2 7 1 50099.3 2534.47 1
-2 7 2 688.831 362.74 1
-2 7 3 35513 2105.58 1
-2 7 4 -301.915 377.663 1
-2 7 5 20013.3 1571.9 1
-2 7 6 14829.1 1359.36 1
-2 7 7 15123.5 1390.97 1
-2 7 8 8537.95 1055.41 1
-2 7 9 10279.6 1184.57 1
-2 7 10 5489.83 883.358 1
-2 8 -12 4871.34 915.109 4
-2 8 -11 2461.08 615.283 4
-2 8 -11 2600.55 518.42 2
-2 8 -10 8416.71 1063.98 4
-2 8 -10 7326.39 835.758 2
-2 8 -9 -600.237 295.416 2
-2 8 -8 16878.6 1267.36 2
-2 8 -7 1678 473.845 2
-2 8 -6 20451.4 1447.58 2
-2 8 -5 2234.83 561.542 2
-2 8 -4 29733.7 1867.56 2
-2 8 -3 5137.93 808.519 2
-2 8 -2 16479.3 1463.68 1
-2 8 -1 19308.8 1572.6 1
-2 8 0 10793.6 1213.78 1
-2 8 1 44281.1 2505.69 1
-2 8 2 1139.87 487.768 1
-2 8 3 27528.7 1972.76 1
-2 8 4 695.875 384.049 1
-2 8 5 24119.8 1861.59 1
-2 8 6 2005.7 584.106 1
-2 8 7 12411.7 1336.17 1
-2 8 8 2157.94 607.002 1
-2 8 9 4836.61 872.923 1
-2 9 -11 3520.65 613.32 2
-2 9 -10 6825.31 858.85 2
-2 9 -9 124.235 262.203 2
-2 9 -8 17841.7 1397.27 2
-2 9 -7 807.224 375.648 2
-2 9 -6 15561.9 1349.29 2
-2 9 -5 484.816 369.471 2
-2 9 -4 25953.2 1853.36 2
-2 9 -3 2545.04 667.057 1
-2 9 -2 14493.3 1456.16 1
-2 9 -1 11781.2 1295.52 1
-2 9 0 3441.03 747.687 1
-2 9 1 10656.9 1268.11 1
-2 9 2 1993.91 628.208 1
-2 9 3 9562.03 1223.67 1
-2 9 4 2669.17 673.13 1
-2 9 5 15427.7 1568.44 1
-2 9 6 1026.59 545.853 1
-2 9 7 11257.3 1359.45 1
-2 9 8 5260.62 917.555 1
-2 10 -11 3802.1 655.592 2
-2 10 -10 4797.86 775.195 2
-2 10 -9 2044.97 518.834 2
-2 10 -8 3057.9 635.514 2
-2 10 -7 1585 485.573 2
-2 10 -6 10901.9 1239.73 2
-2 10 -5 105.756 328.778 2
-2 10 -4 17895 1622.56 2
-2 10 -3 4660.86 910.012 1
-2 10 -2 4320.3 911.015 1
-2 10 -1 6710.92 1082.05 1
-2 10 0 4321.22 872.679 1
-2 10 1 8721.07 1213.84 1
-2 10 2 4374.05 923.469 1
-2 10 3 10625.9 1351.69 1
-2 10 4 1985.76 604.048 1
-2 10 5 19226.2 1862.27 1
-2 10 6 -70.9198 267.928 1
-2 11 -10 2035.46 527.44 2
-2 11 -9 2130.3 574.73 2
-2 11 -8 6299.94 950.459 2
-2 11 -7 435.094 410.293 2
-2 11 -6 12894.1 1421.09 2
-2 11 -5 970.156 523.367 2
-2 11 -4 11388.7 1390.3 2
-2 11 -3 755.518 534.62 1
-2 11 -2 9664.8 1373.11 1
-2 11 -1 4335.29 949.101 1
-2 11 0 9950.72 1380.14 1
-2 11 1 6085.84 1049.45 1
-2 11 2 3721.71 895.089 1
-2 11 3 16326.3 1783.75 1
-2 11 4 -233.402 413.449 1
-2 12 -10 3370.49 720.14 2
-2 12 -9 4134.59 842.664 2
-2 12 -8 4310.74 858.713 2
-2 12 -7 580.038 296.094 2
-2 12 -6 7767.34 1180.58 2
-2 12 -5 -162.818 523.909 2
-2 12 -4 7795.57 1190.28 2
-2 12 -3 2456.72 749.949 1
-2 12 -2 10288.6 1445.57 1
-2 12 -1 2104.67 755.383 1
-2 12 0 10817.6 1510.72 1
-1 -9 5 4865.66 591.968 4
-1 -8 2 10415.5 559.717 4
-1 -8 3 828.815 196.832 4
-1 -8 5 3544.19 508.965 4
-1 -8 6 8985.93 847.87 4
-1 -7 2 19666.8 869.884 4
-1 -7 3 1652.38 280.246 4
-1 -7 4 14532.9 933.808 4
-1 -7 6 20364.7 1295.78 4
-1 -7 7 13156.9 1110.68 1
-1 -7 8 6053.99 767.067 1
-1 -7 9 14557.8 1185.95 1
-1 -6 -7 12567.3 951.103 3
-1 -6 -6 2017.1 372.43 3
-1 -6 1 101.972 58.5141 4
-1 -6 1 398.605 234.287 1
-1 -6 2 47846.4 1579.89 4
-1 -6 2 46725.5 2242.49 1
-1 -6 3 2171.97 318.69 4
-1 -6 3 1427.1 350.972 1
-1 -6 4 45361.2 2165.06 1
-1 -6 4 46622.7 1822.09 4
-1 -6 5 6188.32 717.413 1
-1 -6 6 24607.5 1506.89 1
-1 -6 6 27711.3 1486.34 4
-1 -6 7 28069.6 1600.62 1
-1 -6 8 7323.45 768.287 1
-1 -6 9 15136 1124.63 1
-1 -6 10 1362.5 346.038 1
-1 -5 -8 -258.336 192.52 3
-1 -5 -7 18415.9 966.049 4
-1 -5 -7 20278 1198.56 3
-1 -5 -6 6882.22 641.676 3
-1 -5 -6 6011.39 469.457 4
-1 -5 -5 19432.4 770.916 4
-1 -5 -2 54082.2 2364.76 1
-1 -5 -1 14164.5 1072.41 1
-1 -5 0 29226.8 1579.43 1
-1 -5 1 3305.9 506.372 1
-1 -5 1 3431.15 253.283 4
-1 -5 2 97758.5 3365.89 1
-1 -5 2 97456.8 2703.14 4
-1 -5 3 241.51 202.984 1
-1 -5 3 -50.9368 139.354 4
-1 -5 4 90389.5 2785.74 4
-1 -5 4 79848.3 2985.2 1
-1 -5 5 7949.07 750.372 1
-1 -5 6 33152 1651.19 1
-1 -5 6 37765.7 1730.75 4
-1 -5 7 26360.1 1472.75 4
-1 -5 7 21193.4 1280.28 1
-1 -5 8 5416.32 609.794 1
-1 -5 9 4370.33 552.524 1
-1 -5 10 7100.31 696.016 1
-1 -4 -9 19635 1273.95 4
-1 -4 -8 147.063 202.198 4
-1 -4 -7 40058.5 1672.9 4
-1 -4 -6 7533.79 603.747 4
-1 -4 -5 23687.2 1000.92 4
-1 -4 -4 30734.5 1029.16 4
-1 -4 -4 28745.1 1248.24 3
-1 -4 -3 21312.9 1275.86 1
-1 -4 -3 20007.4 932.389 3
-1 -4 -2 19647.3 1206.16 1
-1 -4 -1 10986.8 859.573 1
-1 -4 0 21816.5 1244.09 1
-1 -4 1 12019.4 863.148 1
-1 -4 1 10092.9 460.507 4
-1 -4 2 88195.1 2873.21 1
-1 -4 2 81801 2349.83 4
-1 -4 3 537.409 173.207 4
-1 -4 3 552.061 251.493 1
-1 -4 4 36793 1648.14 1
-1 -4 4 42519.9 1622.69 4
-1 -4 5 5414.51 549.861 1
-1 -4 6 20339.4 1196.36 4
-1 -4 6 18744.4 1070.05 1
-1 -4 7 8894.22 713.603 1
-1 -4 7 11883.2 940.601 4
-1 -4 8 22111.9 1162.52 1
-1 -4 9 15214.6 951.262 1
-1 -4 10 4207.07 504.019 1
-1 -3 -11 7635.33 912.181 4
-1 -3 -10 158.802 283.8 4
-1 -3 -9 30950.9 1725.1 4
-1 -3 -8 -108.695 238.39 4
-1 -3 -7 27882 1408.68 4
-1 -3 -6 1887.77 347.415 4
-1 -3 -5 24189.6 1076.32 4
-1 -3 -4 13504.4 673.033 4
-1 -3 -3 28080.7 1383.31 1
-1 -3 -3 28412.6 915.196 4
-1 -3 -3 26927.7 1067.79 3
-1 -3 -2 32389.3 1461.1 1
-1 -3 -2 32570.9 1119.8 3
-1 -3 -1 34744.5 1497.49 1
-1 -3 0 66389.2 2242.72 1
-1 -3 1 4475.58 285.581 4
-1 -3 1 4562.78 458.23 1
-1 -3 2 68167.8 2003.44 4
-1 -3 2 70286.4 2264.27 1
-1 -3 3 8177.19 549.724 4
-1 -3 3 7250.84 568.36 1
-1 -3 4 27100.2 1186.47 4
-1 -3 4 22704.4 1092.9 1
-1 -3 5 103.974 167.067 4
-1 -3 5 362.028 170.309 1
-1 -3 6 66163.1 2135.82 1
-1 -3 7 16375.5 1095.09 4
-1 -3 7 14104.2 816.281 1
-1 -3 8 14938.5 847.344 1
-1 -3 9 7001.28 571.332 1
-1 -3 10 7756.29 612.029 1
-1 -3 11 24789.1 1187.48 1
-1 -2 -12 6604.89 944.21 4
-1 -2 -11 7331.1 944.106 4
-1 -2 -10 905.38 379.716 4
-1 -2 -9 16897.9 1275.26 4
-1 -2 -8 156.084 262.26 4
-1 -2 -7 23314.7 1399.98 4
-1 -2 -6 284.841 250.567 4
-1 -2 -5 22778.4 1079.25 4
-1 -2 -4 4640.31 407.884 4
-1 -2 -3 103860 2699.94 4
-1 -2 -2 15601.6 549.399 4
-1 -2 -2 16528.4 872.519 1
-1 -2 -2 14577 612.724 3
-1 -2 -1 25643.5 1108.73 1
-1 -2 0 74481 2219.09 1
-1 -2 1 21171.9 733.227 4
-1 -2 1 23342.5 935.347 1
-1 -2 2 75853.8 2174.79 4
-1 -2 2 79824.4 2237.1 1
-1 -2 3 5296.42 400.036 1
-1 -2 4 73112.8 2093.76 1
-1 -2 5 10611.3 569.777 1
-1 -2 6 21696 885.834 1
-1 -2 7 2824.92 301.665 1
-1 -2 8 11670.7 662.37 1
-1 -2 8 11029.5 564.804 2
-1 -2 9 4983.44 382.094 2
-1 -2 10 6059.19 445.569 2
-1 -2 11 15087.7 783.235 1
-1 -2 11 14853.9 758.133 2
-1 -1 -13 3566.38 815.161 4
-1 -1 -12 4847.28 836.104 4
-1 -1 -11 4911.79 789.546 4
-1 -1 -10 3070.43 632.138 4
-1 -1 -9 23870 1553.35 4
-1 -1 -8 2648.29 544.743 4
-1 -1 -7 31199.5 1575.45 4
-1 -1 -6 925.475 302.582 4
-1 -1 -5 52084.9 1872.33 4
-1 -1 -4 1980.86 294.626 4
-1 -1 -3 11531.9 591.017 4
-1 -1 -2 7432.61 389.44 4
-1 -1 0 116340 2951.51 1
-1 -1 1 101739 2554.21 1
-1 -1 2 102462 2502.53 1
-1 -1 3 12172 463.109 1
-1 -1 4 41981.5 1163.4 1
-1 -1 5 273.643 74.4428 2
-1 -1 6 58034 1565.94 2
-1 -1 7 6002.93 365.496 2
-1 -1 7 6599.82 680.129 4
-1 -1 8 30730.9 1592.19 4
-1 -1 8 26142.5 979.799 2
-1 -1 9 10622.6 587.435 2
-1 -1 9 10092.3 587.519 1
-1 -1 10 8423.95 551.953 2
-1 -1 10 9455.03 598.698 1
-1 -1 11 17808.5 904.221 1
-1 0 -14 4852.18 948.3 4
-1 0 -13 1556.09 611.902 4
-1 0 -12 7915.06 1100.13 4
-1 0 -11 4000.58 750.225 4
-1 0 -10 13317.2 1266.06 4
-1 0 -9 22413.3 1534.73 4
-1 0 -8 2958.12 564.983 4
-1 0 -7 55315.1 2259.9 4
-1 0 -6 1340.82 276.164 2
-1 0 -6 1423.37 372.471 4
-1 0 -5 42860.6 1589.54 2
-1 0 -5 42715.8 1680.84 4
-1 0 -4 13305.7 732.429 2
-1 0 -4 13074.8 751.304 4
-1 0 -3 83257.4 2358.09 2
-1 0 -3 83319.9 2339.34 4
-1 0 -2 20759.7 830.83 2
-1 0 -2 21505.9 779.856 4
-1 0 4 65473.7 1628.07 2
-1 0 4 64438 1629.18 1
-1 0 5 5032.62 297.07 1
-1 0 5 4752.75 284.305 2
-1 0 5 5097.6 498.014 4
-1 0 6 76575.1 2086.67 2
-1 0 6 79377.3 2662.98 4
-1 0 6 77555.4 2099.68 1
-1 0 7 2812.53 274.435 2
-1 0 7 2391.22 421.293 4
-1 0 7 2450.81 264.717 1
-1 0 8 56809.3 1796.97 2
-1 0 8 56918.4 1820.37 1
-1 0 8 62425 2450.95 4
-1 0 9 12042.6 687.508 2
-1 0 9 11996 701.944 1
-1 0 10 33543.3 1373.33 1
-1 0 10 33714 1349.07 2
-1 1 -14 8114.04 1219.65 4
-1 1 -13 25.9372 347.321 4
-1 1 -12 9399.71 1190.71 4
-1 1 -11 4540.02 829.032 4
-1 1 -10 10134.3 1089.3 4
-1 1 -9 22106.8 1538.1 4
-1 1 -9 22571.5 1252.45 2
-1 1 -8 -96.1256 325.679 4
-1 1 -8 93.812 163.178 2
-1 1 -7 24258.9 1404.68 4
-1 1 -7 25181.8 1194.64 2
-1 1 -6 20.6465 140.586 2
-1 1 -6 85.7916 251.815 4
-1 1 -5 124732 3418.68 2
-1 1 -5 125553 3663.01 4
-1 1 -4 4698.85 395.939 2
-1 1 -4 4314.42 447.51 4
-1 1 -3 171261 4213.06 2
-1 1 -3 166017 4287.35 4
-1 1 -2 1419.84 222.137 4
-1 1 -2 1324.13 205.198 2
-1 1 0 61531.9 1599.61 3
-1 1 2 31175.6 1042.46 4
-1 1 2 28472.9 934.755 1
-1 1 3 5876.06 450.338 4
-1 1 3 5949.81 367.577 1
-1 1 4 69614.2 1942.76 1
-1 1 4 68960.3 2197.28 4
-1 1 5 11620.2 580.505 2
-1 1 5 12066.6 783.815 4
-1 1 5 11612.1 605.398 1
-1 1 6 63139.9 1888.14 2
-1 1 6 60332.6 2235.58 4
-1 1 6 60827.2 1900.05 1
-1 1 7 1379.61 242.427 1
-1 1 7 1633.04 253.259 2
-1 1 7 1473.66 320.125 4
-1 1 8 43279.1 1605.55 2
-1 1 8 46426.4 2051.1 4
-1 1 8 46264.2 1675.07 1
-1 1 9 2477.06 336.971 2
-1 1 9 2349.72 343.788 1
-1 1 10 19456.8 1040.57 2
-1 2 -14 9921.53 1350 4
-1 2 -13 2247.4 707.305 4
-1 2 -12 6426.42 1026.15 4
-1 2 -11 13951.2 1372.44 4
-1 2 -10 7291.39 693.095 2
-1 2 -10 6977.18 948.793 4
-1 2 -9 10755.4 795.546 2
-1 2 -9 10587.1 1066.74 4
-1 2 -8 1374.04 455.253 4
-1 2 -8 1337.32 290.351 2
-1 2 -7 28020.8 1242.44 2
-1 2 -7 27283.8 1533.68 4
-1 2 -6 10121.8 645.847 2
-1 2 -6 9372.64 797.588 4
-1 2 -5 82040.9 2405.61 2
-1 2 -5 80561.1 2652.83 4
-1 2 -4 369.495 228.893 4
-1 2 -4 299.097 146.577 2
-1 2 -3 79296.2 2215.04 2
-1 2 -3 77598 2310.85 4
-1 2 -2 53438.5 1589.33 2
-1 2 -2 50840.4 1588.14 4
-1 2 0 61945 1747.8 3
-1 2 2 52650.2 1719.79 1
-1 2 3 42138.7 1487.75 1
-1 2 3 42268.8 1436.26 4
-1 2 4 73234.6 2307.48 4
-1 2 4 75797 2306.93 1
-1 2 5 7843.17 586.182 1
-1 2 5 8564.33 645.294 4
-1 2 6 32832.1 1351.56 2
-1 2 6 35675.1 1442.68 1
-1 2 6 35747.7 1555.62 4
-1 2 7 3866.8 418.135 2
-1 2 7 4760.87 564.254 4
-1 2 7 3677.36 446.194 1
-1 2 8 14756.2 892.06 2
-1 2 8 14752.5 1066.49 4
-1 2 9 5959.1 576.981 2
-1 2 10 14501.5 965.966 2
-1 2 10 16631.4 1083.71 1
-1 2 11 1480.73 350.181 1
-1 3 -13 2570.75 684.931 4
-1 3 -12 8554.43 787.163 2
-1 3 -12 8200.41 1135.82 4
-1 3 -11 7523.33 1046.52 4
-1 3 -11 8706.05 756.83 2
-1 3 -10 23319.5 1242.7 2
-1 3 -10 20266.5 1581.18 4
-1 3 -9 11771 822.358 2
-1 3 -9 12216.1 1137.38 4
-1 3 -8 12030.4 803.464 2
-1 3 -8 13099.9 1196.26 4
-1 3 -7 28960 1590.68 4
-1 3 -7 29382.1 1271.11 2
-1 3 -6 6008.86 503.946 2
-1 3 -6 5910.27 662.809 4
-1 3 -5 80450.5 2721.26 4
-1 3 -5 84780 2489.06 2
-1 3 -4 12200.1 693.661 2
-1 3 -4 11426.6 762.235 4
-1 3 -3 105297 2920.27 2
-1 3 -3 102719 2933.58 4
-1 3 -2 2814.59 360.518 2
-1 3 0 14589.4 718.144 3
-1 3 2 43122.2 1685.25 1
-1 3 3 52204.1 1937.37 1
-1 3 4 72174.5 2456.2 1
-1 3 5 6182.25 602.199 1
-1 3 5 5863.03 533.498 4
-1 3 6 34380.2 1522.43 4
-1 3 7 1339.42 295.966 2
-1 3 7 1180.1 295.077 4
-1 3 8 23871.4 1280.04 2
-1 3 8 26162.4 1431.84 4
-1 3 8 22163.8 1323.73 1
-1 3 9 707.464 276.778 1
-1 3 9 581.739 207.184 2
-1 3 10 26552.7 1543.42 1
-1 3 11 10559.4 959.766 1
-1 4 -13 1026.93 591.331 4
-1 4 -12 7079.45 707.025 2
-1 4 -12 7251.22 1043.77 4
-1 4 -11 2997.59 684.116 4
-1 4 -11 2470.41 387.127 2
-1 4 -10 24440 1749.13 4
-1 4 -10 26258.7 1333.35 2
-1 4 -9 8815.53 703.834 2
-1 4 -9 8441.7 966.683 4
-1 4 -8 9075.52 934.592 4
-1 4 -8 10312 736.902 2
-1 4 -7 41148.2 1958.75 4
-1 4 -7 43599.3 1664.82 2
-1 4 -6 4550.29 596.315 4
-1 4 -6 4283.24 458.72 2
-1 4 -5 53152.8 2029.43 4
-1 4 -5 53674.9 1884.14 2
-1 4 -4 2227.43 373.147 4
-1 4 -4 2243.08 335.633 2
-1 4 -3 16309.9 933.411 2
-1 4 -3 15916.4 841.874 4
-1 4 -1 47519.5 1657.3 3
-1 4 0 10387 661.032 3
-1 4 2 47961.5 2015.9 1
-1 4 6 34083.4 1728.19 1
-1 4 7 1849.1 351.414 2
-1 4 7 2857.67 511.41 1
-1 4 8 40479.5 1849.31 4
-1 4 8 36598.8 1919.44 1
-1 4 9 5015.48 681.008 1
-1 4 10 18462 1378 1
-1 4 11 6607.91 821.003 1
-1 5 -13 265.434 384.075 4
-1 5 -12 6294.29 655.413 2
-1 5 -12 5364.04 921.83 4
-1 5 -11 2456.9 405.846 2
-1 5 -11 2448.52 635.021 4
-1 5 -10 13716.4 937.175 2
-1 5 -10 12198.4 1227.38 4
-1 5 -9 18104.3 1074.32 2
-1 5 -9 19760.4 1470.95 4
-1 5 -8 5626.13 779.199 4
-1 5 -8 6395.45 600.97 2
-1 5 -7 23373.1 1202.3 2
-1 5 -7 22931.9 1411.64 4
-1 5 -6 12160.9 940.62 4
-1 5 -6 12350.9 838.18 2
-1 5 -5 26671.2 1316.59 4
-1 5 -5 21641.1 1205.52 2
-1 5 -4 2880.62 452.57 2
-1 5 -4 2288.18 376.757 4
-1 5 -3 68987.1 2584.66 1
-1 5 -1 98040.2 2973.98 3
-1 5 0 10536.9 738.184 3
-1 5 1 16448.5 963.119 3
-1 5 3 15577.9 1179.5 1
-1 5 4 34525 1835.53 1
-1 5 5 4421.87 663.943 1
-1 5 6 56599.6 2537.89 1
-1 5 7 -1.98141 247.095 1
-1 5 8 19044.1 1422.76 1
-1 5 9 -210.886 245.885 1
-1 5 10 17923.2 1456.08 1
-1 6 -13 -703.151 451.105 4
-1 6 -12 10179.5 856.365 2
-1 6 -12 7373.44 1106.73 4
-1 6 -11 549.729 405.767 4
-1 6 -11 1742.27 370.276 2
-1 6 -10 10362.8 837.901 2
-1 6 -10 8755.43 1050.44 4
-1 6 -9 6665.9 673.125 2
-1 6 -9 5961.88 829.972 4
-1 6 -8 10165.4 1019.59 4
-1 6 -8 10858.3 840.474 2
-1 6 -7 9728.46 918.086 4
-1 6 -7 11936.5 880.07 2
-1 6 -6 8295.02 767.863 2
-1 6 -6 8177.77 785.183 4
-1 6 -5 32817.9 1548.79 4
-1 6 -5 33010.5 1647.71 2
-1 6 -4 6735.92 728.199 2
-1 6 -3 36399.9 1877.65 1
-1 6 -2 -41.4675 295.846 1
-1 6 -1 43798.6 1794.04 3
-1 6 0 3452.27 469.752 3
-1 6 1 36947.1 2009.38 1
-1 6 2 17850 1349.14 1
-1 6 3 35455.1 1979.76 1
-1 6 4 39225.1 2134.68 1
-1 6 5 809.468 332.15 1
-1 6 6 17550.7 1419.27 1
-1 6 7 2363.64 570.578 1
-1 6 8 9895.22 1100.39 1
-1 6 9 -72.8146 300.766 1
-1 6 10 8451.44 1050.57 1
-1 7 -13 342.838 528.811 4
-1 7 -12 6102.2 960.986 4
-1 7 -11 -484.772 235.562 2
-1 7 -11 1178.55 532.973 4
-1 7 -10 10166 870.517 2
-1 7 -10 7992.24 1042.49 4
-1 7 -9 7850.63 763.718 2
-1 7 -9 6817.92 889.992 4
-1 7 -8 8323.81 912.431 4
-1 7 -8 10347.6 884.228 2
-1 7 -7 11326.6 1013.02 4
-1 7 -7 12700.1 1015.93 2
-1 7 -6 11709.4 992.289 2
-1 7 -6 12971.6 998.931 4
-1 7 -5 17868.4 1258.63 2
-1 7 -4 120.315 296.581 1
-1 7 -3 14274.5 1239.95 1
-1 7 -2 474.11 451.512 1
-1 7 -2 65.0223 182.941 3
-1 7 -1 37366.1 2137.72 1
-1 7 -1 41800.5 1844.73 3
-1 7 0 1053.39 477.397 1
-1 7 0 521.317 257.391 3
-1 7 1 36559.4 2116.21 1
-1 7 2 11237 1162.94 1
-1 7 3 11326 1176.31 1
-1 7 4 5341.45 815.333 1
-1 7 5 3744.54 722.741 1
-1 7 6 12491.9 1296.74 1
-1 7 7 3625.19 746.69 1
-1 7 8 11725.1 1305.38 1
-1 7 9 -464.595 336.816 1
-1 7 10 13804.7 1449.14 1
-1 8 -12 6275.06 994.371 4
-1 8 -11 -63.7006 208.697 2
-1 8 -11 -670.638 436.37 4
-1 8 -10 11191.1 1228.63 4
-1 8 -10 11820.4 1007.61 2
-1 8 -9 5905.61 725.538 2
-1 8 -9 3999.45 723.965 4
-1 8 -8 14364.3 1194.89 4
-1 8 -8 12465.5 1069.23 2
-1 8 -7 4954.42 696.507 2
-1 8 -7 5058.09 691.042 4
-1 8 -6 1069.55 412.985 2
-1 8 -5 15659 1315.72 2
-1 8 -4 4093.96 720.757 1
-1 8 -3 25861.9 1818.31 1
-1 8 -2 1347.7 506.534 1
-1 8 -1 38068.5 2285.23 1
-1 8 0 7028.35 969.654 1
-1 8 1 19392.7 1629.31 1
-1 8 2 4218.09 777.587 1
-1 8 3 14443.6 1407.4 1
-1 8 4 6704.36 989.445 1
-1 8 5 9251.79 1151.07 1
-1 8 6 11006.9 1289.41 1
-1 8 7 6367.53 1017.95 1
-1 8 8 17255.3 1655.08 1
-1 8 9 1900.9 595.024 1
-1 9 -12 6572.57 1040.24 4
-1 9 -11 -362.487 224.48 2
-1 9 -11 -220.981 395.785 4
-1 9 -10 8556.56 925.676 2
-1 9 -10 7574.95 1017.19 4
-1 9 -9 3196.57 685.611 4
-1 9 -9 3484.79 617.701 2
-1 9 -8 4997.02 733.037 2
-1 9 -7 4350.93 724.586 2
-1 9 -6 15264.2 1339.6 2
-1 9 -5 16062.8 1389.01 2
-1 9 -4 15858.7 1496.38 1
-1 9 -3 18547.6 1614.05 1
-1 9 -2 1883.26 607.339 1
-1 9 -1 29587.1 2117.74 1
-1 9 0 249.997 305.661 1
-1 9 1 17184.8 1619.85 1
-1 9 2 885.391 496.034 1
-1 9 3 15336.8 1563.57 1
-1 9 4 2825.75 718.926 1
-1 9 5 9229.81 1244.8 1
-1 9 6 7984.72 1174.46 1
-1 9 7 3637.2 788.271 1
-1 9 8 9431.13 1290.84 1
-1 10 -10 8115.66 964.042 2
-1 10 -9 1529.27 495.975 2
-1 10 -8 11161.6 1173.08 2
-1 10 -7 526.177 343.61 2
-1 10 -6 12034.6 1275.46 2
-1 10 -5 9315.88 1154.7 2
-1 10 -5 9460.93 1228.31 1
-1 10 -4 7227.51 1094.53 1
-1 10 -3 11959 1399.71 1
-1 10 -2 1687.96 582.951 1
-1 10 -1 12117.7 1433.96 1
-1 10 0 -27.1699 423.113 1
-1 10 1 12107.8 1463.04 1
-1 10 2 -463.922 421.148 1
-1 10 3 11649.7 1454.81 1
-1 10 4 3002.33 746.612 1
-1 10 5 6866.75 1099.8 1
-1 11 -10 7609.14 980.351 2
-1 11 -9 42.9998 206.159 2
-1 11 -8 6937.61 1020.84 2
-1 11 -7 1369.34 522.904 2
-1 11 -6 5358.42 930.02 2
-1 11 -5 14025.7 1563.97 1
-1 11 -5 11470.1 1356.2 2
-1 11 -4 1761.88 663.332 1
-1 11 -3 7266.51 1172.22 1
-1 11 -2 527.419 513.471 1
-1 11 -1 13541.5 1597.63 1
-1 11 0 -699.23 462.022 1
-1 11 1 10074.9 1396.58 1
-1 11 2 -676.881 497.141 1
-1 11 3 14274.7 1688.15 1
-1 12 -9 343.035 370.143 2
-1 12 -8 6599.02 1041.19 2
-1 12 -7 2750.19 722.855 2
-1 12 -6 4965.02 966.72 2
-1 12 -5 2994.47 758.68 2
-1 12 -5 2734.68 825.616 1
-1 12 -4 3389.1 926.648 1
-1 12 -3 6803.31 1186.89 1
-1 12 -2 1704.72 709.076 1
-1 12 -1 9442.79 1423.18 1
0 -9 2 8856.32 614.83 4
0 -9 3 21547.2 1127.28 4
0 -9 4 392.805 169.148 4
0 -9 5 17550.6 1160.5 4
0 -8 0 31394 907.705 4
0 -8 1 34715.9 1225.32 4
0 -8 2 8400.85 600.397 4
0 -8 3 13773.6 862.578 4
0 -8 5 13085.7 970.144 4
0 -7 -8 9356.69 919.973 3
0 -7 -7 770.71 320.2 3
0 -7 -6 11148.7 947.267 3
0 -7 -5 1922.33 404.756 3
0 -7 0 17713.1 667.978 4
0 -7 1 18246.9 803.977 4
0 -7 2 4749.12 449.618 4
0 -7 3 19192.6 1009.59 4
0 -7 5 32060.7 1560.23 4
0 -7 6 577.104 254.426 4
0 -6 -9 2961.33 504.206 3
0 -6 -8 14449.9 1137.3 3
0 -6 -7 531.08 228.507 4
0 -6 -7 392.515 194.091 3
0 -6 -6 30991 1597.35 3
0 -6 -6 29000.1 1197.72 4
0 -6 -5 8256.92 504.508 4
0 -6 -5 7406.12 713.99 3
0 -6 -4 47498.3 1393.42 4
0 -6 -4 48183.3 1954.01 3
0 -6 -3 9138.5 363.858 4
0 -6 -1 3789.72 610.222 1
0 -6 -1 2752.68 179.626 4
0 -6 -1 3231.27 186.061 4
0 -6 0 6124.57 346.699 4
0 -6 0 6308.24 752.875 1
0 -6 1 28823.9 1669.05 1
0 -6 1 29632.4 1058.02 4
0 -6 2 16064.7 1214.58 1
0 -6 2 17256.4 831.349 4
0 -6 3 29857.5 1688.12 1
0 -6 3 31397.6 1311.95 4
0 -6 4 20346.9 1355.09 1
0 -6 5 24128.1 1491.26 1
0 -6 6 168.81 166.901 4
0 -6 6 -262.913 237.856 1
0 -6 7 38153.1 1909.6 1
0 -6 8 1586.92 378.132 1
0 -6 9 22821.6 1434.61 1
0 -6 10 4328.11 605.016 1
0 -5 -10 1754.74 420.445 3
0 -5 -9 8692.72 832.581 4
0 -5 -9 9791.62 957.588 3
0 -5 -8 12900.4 1053.78 3
0 -5 -8 12826.3 956.552 4
0 -5 -7 8600.66 729.587 4
0 -5 -7 8913.7 846.436 3
0 -5 -6 34015.5 1644.69 3
0 -5 -6 32050.4 1388.56 4
0 -5 -5 -8.25332 142.662 4
0 -5 -5 209.066 161.764 3
0 -5 -4 35019.7 1229.98 4
0 -5 -3 2464.03 232.873 4
0 -5 -3 3776.14 551.346 1
0 -5 -2 28899.3 889.276 4
0 -5 -2 34208.6 1679.87 1
0 -5 -1 4050.2 559.453 1
0 -5 -1 4014.07 233.776 4
0 -5 -1 4170.39 220.406 4
0 -5 0 45771.5 2032.87 1
0 -5 0 45695.3 1282.74 4
0 -5 1 31943 1756.75 1
0 -5 1 30104.9 1038.91 4
0 -5 2 44471.9 1475.4 4
0 -5 2 41143 1915.56 1
0 -5 3 25456.4 1117.98 4
0 -5 3 25125.2 1413.38 1
0 -5 4 28515.4 1297.17 4
0 -5 4 28808.7 1517.16 1
0 -5 5 43435.4 1924.02 1
0 -5 6 5205 606.228 4
0 -5 6 4609.31 571.552 1
0 -5 7 33121.4 1649.44 1
0 -5 8 349.861 193.226 1
0 -5 9 18085.3 1185.46 1
0 -5 10 2097.94 399.836 1
0 -4 -10 1482.59 456.012 4
0 -4 -9 12922.4 1078.83 4
0 -4 -8 8815.67 828.179 4
0 -4 -7 1526.26 352.221 4
0 -4 -6 15213.6 946.012 4
0 -4 -5 9777.95 835.018 1
0 -4 -5 8728.11 640.006 4
0 -4 -4 63177.5 2377.74 1
0 -4 -4 57874.4 1856.8 4
0 -4 -3 1448.91 327.628 1
0 -4 -3 921.265 170.449 4
0 -4 -3 1063.86 247.119 3
0 -4 -2 94877.3 2464.92 4
0 -4 -2 100354 3205.13 1
0 -4 -2 105265 2885.44 3
0 -4 -1 6343.41 298.819 4
0 -4 -1 6905.5 653.853 1
0 -4 0 71150.7 2534.38 1
0 -4 0 71949.5 1816.97 4
0 -4 1 28307.4 936.33 4
0 -4 1 25882.8 1341.75 1
0 -4 2 31097.8 1114.69 4
0 -4 2 29921.6 1418.79 1
0 -4 3 45577.1 1834.14 1
0 -4 3 46867.5 1610.46 4
0 -4 4 48892.8 1774.91 4
0 -4 4 47695.4 1880.05 1
0 -4 5 21097.6 1130.99 1
0 -4 6 3102.51 420.309 1
0 -4 6 3073.7 448.933 4
0 -4 7 13238.6 891.889 1
0 -4 7 13340.2 988.763 4
0 -4 8 1736.24 321.175 1
0 -4 9 13281.3 939.034 1
0 -4 10 3494.51 486.691 1
0 -4 11 15914.7 1077.36 1
0 -3 -12 844.964 435.059 4
0 -3 -11 12936.7 1244.76 4
0 -3 -10 3411.45 613.065 4
0 -3 -9 17764 1305 4
0 -3 -8 7219.55 770.886 4
0 -3 -7 22549.7 1302.59 4
0 -3 -6 12066.6 855.073 4
0 -3 -5 20919 1053.43 4
0 -3 -4 72005.7 2223.89 4
0 -3 -4 76490.7 2521.8 1
0 -3 -3 16819.5 737.399 4
0 -3 -3 16813.3 964.217 1
0 -3 -2 44162.8 1694.4 1
0 -3 -2 45181.3 1504.38 3
0 -3 -2 42506.2 1256.19 4
0 -3 -1 3548.68 419.028 1
0 -3 -1 3345.28 196.172 4
0 -3 -1 3020.2 309.02 3
0 -3 0 47330.8 1211.81 4
0 -3 0 43783.1 1705.21 1
0 -3 1 16104 896.99 1
0 -3 1 17636 643.046 4
0 -3 2 49089.7 1507.7 4
0 -3 2 50524.8 1773.27 1
0 -3 3 4725.88 462.188 1
0 -3 3 5226.42 433.66 4
0 -3 4 16674.7 875.462 1
0 -3 5 47179.1 1695.45 1
0 -3 6 13789.5 814.448 1
0 -3 7 44905.1 1598.14 2
0 -3 8 3513.09 401.574 2
0 -3 9 14258.1 835.635 2
0 -3 10 963.444 246.833 2
0 -3 11 10585.5 760.372 2
0 -2 -13 10275.4 1260.5 4
0 -2 -12 538.367 370.6 4
0 -2 -11 9231.9 1085.02 4
0 -2 -10 207.813 308.106 4
0 -2 -9 33962.7 1894.33 4
0 -2 -8 5036.99 677.397 4
0 -2 -7 25784.4 1424.63 4
0 -2 -6 18524.9 1092.49 4
0 -2 -5 10749.6 745.783 4
0 -2 -4 72971.3 2246.88 4
0 -2 -3 814.25 201.038 1
0 -2 -3 825.405 189.699 4
0 -2 -2 24445.1 828.635 4
0 -2 -2 25131.9 1035.89 1
0 -2 -1 5473.2 250.705 4
0 -2 -1 5677.56 441.008 1
0 -2 -1 5782.63 363.082 3
0 -2 0 46731.5 1542.79 1
0 -2 1 27648.8 1060.64 1
0 -2 2 1338.83 226.177 1
0 -2 3 2089.07 255.954 1
0 -2 4 72618.1 2026.42 2
0 -2 5 119664 3118.29 2
0 -2 6 10354.4 581.787 2
0 -2 7 38288.1 1387.73 2
0 -2 7 38995.2 1763.32 4
0 -2 8 3732 380.929 2
0 -2 9 19162.1 978.037 2
0 -2 10 104.393 155.255 2
0 -2 11 22169.6 1150.73 2
0 -2 12 1365.87 300.392 1
0 -1 -14 2339.34 701.601 4
0 -1 -13 5313.9 948.272 4
0 -1 -12 326.278 447.974 4
0 -1 -11 9959.71 1126.32 4
0 -1 -10 946.513 426.84 4
0 -1 -9 30428.8 1794.85 4
0 -1 -8 12931.3 1082.03 4
0 -1 -7 20916.3 1272.44 4
0 -1 -6 22464.3 1225.96 4
0 -1 -5 4420.03 493.284 4
0 -1 -4 90584.3 2665.55 4
0 -1 -3 502.178 183.335 4
0 -1 -2 21036.7 786.255 1
0 -1 -2 21552.8 762.041 4
0 -1 -1 73.6326 57.637 4
0 -1 -1 101.509 81.34 1
0 -1 2 218913 5030.35 2
0 -1 3 98020.5 2431.63 2
0 -1 4 28105.1 929.27 2
0 -1 5 76311.6 2153.52 2
0 -1 5 81952.4 2534.1 4
0 -1 6 7540.75 486.483 2
0 -1 6 8972.16 710.335 4
0 -1 7 25243.3 1352.58 4
0 -1 7 24660.6 1041.71 2
0 -1 8 15036.4 817.814 2
0 -1 8 14131.3 1054.56 4
0 -1 9 38348.6 1526.56 2
0 -1 10 320.249 191.453 2
0 -1 11 25998.5 1311.56 1
0 -1 12 819.156 235.739 1
0 0 -14 666.534 499.451 4
0 0 -13 8880.6 1237.1 4
0 0 -12 420.329 406.065 4
0 0 -11 13653.7 1345.74 4
0 0 -10 2046.6 537.297 4
0 0 -9 34431.3 1928.51 4
0 0 -8 12645.7 1063.07 4
0 0 -7 18700.9 1208.38 4
0 0 -6 24551.5 1302.23 4
0 0 -5 17121.6 973.858 4
0 0 -4 52515.8 1570.42 2
0 0 -4 54579.7 1818.99 4
0 0 -3 9613.54 451.633 2
0 0 -3 9770.95 571.435 4
0 0 -2 149026 3483.93 2
0 0 -2 147275 3626.79 4
0 0 2 148799 3487.48 2
0 0 3 9513.13 441.456 2
0 0 3 10547.7 562.028 4
0 0 4 54518.1 1578.78 2
0 0 4 52158.2 1757.11 4
0 0 5 17122.2 766.281 2
0 0 5 17729.9 946.092 4
0 0 6 22389.5 980.881 2
0 0 6 24146.2 1214.62 4
0 0 7 19982.3 966.568 1
0 0 7 19606 952.17 2
0 0 7 20971.8 1198.37 4
0 0 8 13633.8 816.359 2
0 0 8 14820.1 1050.4 4
0 0 9 32417.9 1429.27 2
0 0 10 3102.49 432.33 1
0 0 10 2584.48 394.279 2
0 0 11 17425.4 1097.29 1
0 0 12 -83.4798 135.901 1
0 1 -14 3520.19 826.904 4
0 1 -13 13470.3 1486.56 4
0 1 -12 893.867 465.01 4
0 1 -11 21952.9 1690.92 4
0 1 -10 563.465 436.544 4
0 1 -9 35919.6 1991.57 4
0 1 -8 15472.7 1193.37 4
0 1 -8 14953.6 824.265 2
0 1 -7 25190 1051.89 2
0 1 -7 24667.4 1423.08 4
0 1 -6 8060.91 503.726 2
0 1 -6 7766.62 719.936 4
0 1 -5 77971.5 2142.32 2
0 1 -5 76783.9 2534.8 4
0 1 -4 28114.5 916.231 2
0 1 -4 27165.7 1181.2 4
0 1 -3 101152 2479.7 2
0 1 -3 99316.6 2757.09 4
0 1 -2 219740 5014.28 2
0 1 -2 217344 5194.79 4
0 1 -1 10192.6 386.636 4
0 1 0 118192 2765.34 3
0 1 1 178.519 63.6367 4
0 1 2 21363.4 748.185 4
0 1 3 660.263 177.009 1
0 1 3 226.437 122.349 2
0 1 3 536.438 158.759 4
0 1 4 90962.6 2605.21 2
0 1 4 97522.8 2716.42 4
0 1 4 94942.6 2647.95 1
0 1 5 3358.43 355.055 2
0 1 5 3784.76 379.741 1
0 1 5 3657.17 404.794 4
0 1 6 24898 1125.91 2
0 1 6 25680.2 1250.36 4
0 1 6 26529.3 1169.58 1
0 1 7 19636 1037.19 2
0 1 7 23285.4 1253.58 4
0 1 8 13249 852.478 2
0 1 8 12387.2 954.537 4
0 1 9 34126.9 1545.42 2
0 1 9 32660.4 1543.46 1
0 1 10 766.965 224.575 2
0 1 10 724.281 237.63 1
0 1 11 9969.6 863.415 1
0 1 12 204.349 161.069 1
0 2 -14 5041.29 1005.39 4
0 2 -13 6326.32 1081.8 4
0 2 -12 1573.8 512.962 4
0 2 -11 20940.8 1675.41 4
0 2 -10 -199.134 365.326 4
0 2 -10 -5.6301 133.863 2
0 2 -9 21241.2 1025.86 2
0 2 -9 21864.7 1511.37 4
0 2 -8 3850.14 389.122 2
0 2 -8 4245.6 667.692 4
0 2 -7 38569.9 1353.5 2
0 2 -7 38727 1844.17 4
0 2 -6 9683.57 538.13 2
0 2 -6 9408.09 807.286 4
0 2 -5 122198 3110.14 2
0 2 -5 120268 3586.31 4
0 2 -4 75272.8 2382.49 4
0 2 -4 75995 2043.6 2
0 2 -3 1984.62 302.342 4
0 2 -3 2234.63 234.345 2
0 2 -2 1861.92 239.849 4
0 2 -2 1843.78 266.629 1
0 2 -1 29426.6 874.18 4
0 2 0 51619.4 1451.35 3
0 2 2 22500.6 772.041 4
0 2 3 547.644 188.349 1
0 2 3 968.803 178.179 4
0 2 4 73719.6 2198.64 4
0 2 4 75224.6 2351.15 1
0 2 4 69791.4 2281.99 2
0 2 5 11312.7 740.601 2
0 2 5 10274.7 678.46 4
0 2 5 10291.6 722.978 1
0 2 6 18503.5 1025.88 2
0 2 6 19732.4 1075.66 4
0 2 7 31639.1 1447.11 2
0 2 7 29455.1 1452.93 4
0 2 8 5110.03 566.558 2
0 2 8 5248.82 604.109 4
0 2 8 5232.4 595.486 1
0 2 9 40013.3 1825.21 2
0 2 9 41304.3 1903.79 1
0 2 10 760.424 283.344 1
0 2 11 15255.6 1170.2 1
0 3 -14 2870.62 800.371 4
0 3 -13 11311.7 1405.24 4
0 3 -12 798.852 525.426 4
0 3 -11 11026.5 752.247 2
0 3 -11 11177.7 1233.65 4
0 3 -10 1834.11 568.424 4
0 3 -10 1543.83 278.629 2
0 3 -9 16533.4 863.449 2
0 3 -9 14557.8 1239.97 4
0 3 -8 3997.42 405.365 2
0 3 -8 3787.09 671.714 4
0 3 -7 45414.3 1510.69 2
0 3 -7 41498.9 1955.11 4
0 3 -6 13348.9 682.191 2
0 3 -6 13290.8 962.339 4
0 3 -5 47557 1849.31 4
0 3 -5 47958.7 1542.8 2
0 3 -4 16235.7 772.213 2
0 3 -4 16304.5 882.287 4
0 3 -3 5424.27 481.944 1
0 3 -3 5245.88 439.459 4
0 3 -2 50440 1755.4 1
0 3 -2 48066.8 1492.16 4
0 3 -1 17395.2 628.815 4
0 3 0 49287.4 1526.01 3
0 3 3 16794.1 1006.97 1
0 3 3 15954.3 699.318 4
0 3 4 70176.2 2112.2 4
0 3 5 21139.7 1157.96 2
0 3 5 22454.8 1041.44 4
0 3 6 11871.5 872.954 2
0 3 6 13389 844.44 4
0 3 6 12728.6 959.434 1
0 3 7 24357.1 1345.78 2
0 3 7 25549.2 1308.31 4
0 3 7 23517.1 1382.62 1
0 3 8 8896.26 798.639 4
0 3 8 9762.13 903.003 1
0 3 9 18417.7 1288.91 1
0 3 10 3973.72 605.027 1
0 3 11 15359.1 1260.63 1
0 4 -14 3533.98 837.845 4
0 4 -13 4597.2 908.148 4
0 4 -12 1471.38 286.563 2
0 4 -12 661.203 439.396 4
0 4 -11 15154.5 895.258 2
0 4 -11 14430.6 1383.34 4
0 4 -10 3423.92 402.749 2
0 4 -10 2963.99 680.226 4
0 4 -9 13111.5 772.687 2
0 4 -9 12416.7 1163.15 4
0 4 -8 1548.59 520.38 4
0 4 -8 1835.42 280.235 2
0 4 -7 12163.6 722.932 2
0 4 -7 14103.9 1061.64 4
0 4 -6 2739.43 480.954 4
0 4 -6 3066.77 359.65 2
0 4 -5 21288.3 1159.41 4
0 4 -5 22977.3 1048.94 2
0 4 -4 46105.1 1789.7 1
0 4 -4 46784 1698.79 4
0 4 -3 45222.7 1802.16 1
0 4 -3 46124.1 1559.26 4
0 4 -2 31012.1 1071.26 4
0 4 -2 26939 1375.76 1
0 4 0 71339.7 2188.79 3
0 4 1 7865.02 567.501 3
0 4 4 59596.5 2404.65 1
0 4 5 8299.97 815.919 1
0 4 6 17812.7 1249.39 1
0 4 6 16661.9 948.474 4
0 4 7 1897.5 345.663 4
0 4 7 1696.96 434.01 1
0 4 8 10239.5 834.608 4
0 4 8 10389.7 1008.68 1
0 4 9 16248.6 1307.97 1
0 4 10 1604.04 434.563 1
0 4 11 10022.3 1084.3 1
0 5 -13 6444.37 1036.71 4
0 5 -12 2687.94 674.221 4
0 5 -11 17500.6 984.83 2
0 5 -11 17501.2 1534.27 4
0 5 -10 2793.33 383.243 2
0 5 -10 2208.02 605.849 4
0 5 -9 18063.8 980.808 2
0 5 -9 17389.2 1364.32 4
0 5 -8 605.248 401.311 4
0 5 -8 560.404 202.779 2
0 5 -7 31903.4 1670.07 4
0 5 -7 33211.8 1410.83 2
0 5 -6 4742.84 513.035 2
0 5 -6 4776.4 591.615 4
0 5 -5 43950 1775.21 2
0 5 -5 44594.4 1782.93 4
0 5 -4 27472 1475.66 1
0 5 -4 29774.2 1278.5 4
0 5 -3 22847.1 1365.86 1
0 5 -3 25960 1076.11 4
0 5 -2 39513.3 1860.19 1
0 5 -1 42206.1 1769.17 3
0 5 0 48089 1769.68 3
0 5 1 4224.29 458.741 3
0 5 2 31110.5 1719.46 1
0 5 3 3175.11 561.856 1
0 5 4 35385.9 1908.44 1
0 5 5 218.448 283.873 1
0 5 6 32475.5 1886.69 1
0 5 7 9059.92 973.701 1
0 5 8 12697.3 1208.68 1
0 5 9 9117.99 1045.29 1
0 5 10 2651.8 605.2 1
0 5 11 4688.96 819.552 1
0 6 -13 4605.12 897.383 4
0 6 -12 4804.12 868.449 4
0 6 -11 12766.6 876.256 2
0 6 -11 13755.5 1365.09 4
0 6 -10 5091.95 554.694 2
0 6 -10 4760.22 794.598 4
0 6 -9 21658.8 1174.17 2
0 6 -9 21766.6 1545.25 4
0 6 -8 2684.13 558.914 4
0 6 -8 2136.56 373.981 2
0 6 -7 40178.4 1733.48 2
0 6 -7 38851.3 1881.08 4
0 6 -6 -139.462 263.43 4
0 6 -6 245.577 268.028 2
0 6 -5 25132 1474.13 1
0 6 -5 25925.8 1308.51 4
0 6 -4 21117.1 1384.91 1
0 6 -4 19709.3 1033.97 4
0 6 -3 30923.1 1735.45 1
0 6 -3 32602.4 1286.52 4
0 6 -2 16563.2 1259.45 1
0 6 -1 26629 1657.01 1
0 6 -1 30425.7 1385.42 3
0 6 0 5810.38 775.63 1
0 6 0 6488.45 617.143 3
0 6 1 3797.45 685.72 1
0 6 2 20332.5 1461.5 1
0 6 3 8060.47 932.275 1
0 6 4 44199.3 2342.93 1
0 6 5 6993.19 908.881 1
0 6 6 28610 1893.9 1
0 6 7 822.386 387.521 1
0 6 8 11632.8 1241.39 1
0 6 9 3397.27 686.492 1
0 6 10 5210.31 884.023 1
0 7 -13 2650.71 769.84 4
0 7 -12 2678.58 705.122 4
0 7 -11 5225.87 589 2
0 7 -11 4125.71 794.193 4
0 7 -10 2842.37 446.921 2
0 7 -10 2442.67 632.26 4
0 7 -9 13991.1 1235.41 4
0 7 -9 15016.1 1028.5 2
0 7 -8 1465.97 379.672 2
0 7 -8 1455.45 402.254 4
0 7 -7 22236.5 1378.02 4
0 7 -7 21528.6 1343.09 2
0 7 -6 167.716 293.81 2
0 7 -6 344.312 313.992 4
0 7 -5 30415.5 1784.25 1
0 7 -5 29455.3 1439.84 4
0 7 -4 4639.62 714.583 1
0 7 -4 5068.79 515.652 4
0 7 -3 17715.1 1398.04 1
0 7 -2 5389.04 915.248 1
0 7 -2 5127.4 700.424 3
0 7 -1 16535 1404.61 1
0 7 -1 18076.9 1117.15 3
0 7 0 18678.8 1163.81 3
0 7 0 17427.4 1422.91 1
0 7 1 15277.8 1350.33 1
0 7 2 42351.3 2405.15 1
0 7 3 -72.246 288.642 1
0 7 4 19476.6 1601.43 1
0 7 5 2290.16 608.699 1
0 7 6 11572 1265.3 1
0 7 7 775.936 404.495 1
0 7 8 9685.63 1228.06 1
0 7 9 6458.64 1007.68 1
0 7 10 6389.38 1013.28 1
0 8 -12 2913.27 731.699 4
0 8 -11 5550.35 890.634 4
0 8 -11 6506.26 713.335 2
0 8 -10 1447.84 521.739 4
0 8 -10 1270.19 360.21 2
0 8 -9 19156 1465.57 4
0 8 -9 20845.2 1343.46 2
0 8 -8 1572.35 451.612 4
0 8 -8 1078.22 373.061 2
0 8 -7 23408.6 1433.91 4
0 8 -7 22300.9 1480.43 2
0 8 -6 158.617 260.359 2
0 8 -6 287.27 294.474 1
0 8 -6 126.541 252.487 4
0 8 -5 13948.5 1285.37 1
0 8 -4 1092.09 496.99 1
0 8 -3 13821.6 1329.38 1
0 8 -2 7522.84 983.205 1
0 8 -1 37248.5 2277.44 1
0 8 0 38593.4 2341.51 1
0 8 1 4240.77 760.715 1
0 8 2 21750 1766.39 1
0 8 3 2127.97 578.546 1
0 8 4 12529.1 1371.36 1
0 8 5 1090.21 456.43 1
0 8 6 10995.6 1338.89 1
0 8 7 1663.62 587.276 1
0 8 8 11575.2 1411.18 1
0 9 -12 6782.88 1033.82 4
0 9 -11 2688.64 637.892 4
0 9 -10 3566.24 591.614 2
0 9 -10 3561.26 708.111 4
0 9 -9 14168.8 1184.22 2
0 9 -9 14513.5 1278.9 4
0 9 -8 788.849 369.262 4
0 9 -8 187.46 280.78 2
0 9 -7 8168.18 970.489 2
0 9 -7 8855.71 887.895 4
0 9 -6 31.4432 271.731 1
0 9 -5 14720.3 1438.26 1
0 9 -4 536.704 415.704 1
0 9 -3 26089.9 1952.81 1
0 9 -2 8977.46 1156.1 1
0 9 -1 9880.58 1229.81 1
0 9 0 10744.8 1279.28 1
0 9 1 8330.33 1131.64 1
0 9 2 8907.25 1216.74 1
0 9 3 2432.28 709.935 1
0 9 4 13931.4 1554.85 1
0 9 5 1041.64 571.17 1
0 9 6 12930.8 1510.87 1
0 10 -11 2909.56 674.394 4
0 10 -10 585.606 357.518 4
0 10 -10 1453.22 482.958 2
0 10 -9 4895.25 776.889 4
0 10 -9 5463.42 813.731 2
0 10 -8 1238.73 429.624 2
0 10 -7 8393.36 1041.89 2
0 10 -6 -130.784 350.511 1
0 10 -5 16016.3 1578.16 1
0 10 -4 -57.4366 389.6 1
0 10 -3 7819.56 1160.28 1
0 10 -2 4352.38 890.434 1
0 10 -1 8251.63 1201.91 1
0 10 0 10150.8 1353.04 1
0 10 1 2336.47 720.887 1
0 10 2 11222.5 1425.55 1
0 10 3 4186.72 887.111 1
0 10 4 13773 1615.97 1
0 11 -9 4274.55 745.144 2
0 11 -8 2052.02 638.938 2
0 11 -7 5183.74 910.198 2
0 11 -6 -177.765 319.173 1
0 11 -5 10643.3 1379.75 1
0 11 -4 142.198 412.482 1
0 11 -3 10280.8 1404.28 1
0 11 -2 3445.21 880.155 1
0 11 -1 8060.92 1260.38 1
0 11 0 7296.54 1175.62 1
0 11 1 6491.41 1158.54 1
0 12 -9 1591.97 567.48 2
0 12 -8 2771.9 672.905 2
0 12 -7 3165.24 769.282 2
0 12 -6 27.7531 388.148 1
0 12 -5 9591.3 1398.5 1
0 12 -4 997.664 518.79 1
0 12 -3 10985.2 1544.41 1
1 -9 -1 16675.7 737.281 4
1 -9 0 97.9975 97.1339 4
1 -9 1 32861.8 1343.94 4
1 -9 3 20311.1 1145.81 4
1 -9 4 17521.1 1116.74 4
1 -8 -8 17524.7 1379.25 3
1 -8 -7 5773.68 762.656 3
1 -8 -6 10857.2 1016.26 3
1 -8 -5 9541.71 939.339 3
1 -8 -4 7781.8 477.13 4
1 -8 -3 15098.4 634.788 4
1 -8 -3 14665.3 687.593 4
1 -8 -2 3378.5 315.199 4
1 -8 -2 3656.44 299.543 4
1 -8 -1 21613.8 881.447 4
1 -8 0 6385.56 475.947 4
1 -8 1 41223.3 1519.74 4
1 -8 2 1592.67 279.657 4
1 -8 4 4759.21 556.375 4
1 -8 5 18202.3 1167.86 4
1 -7 -9 -833.063 288.675 3
1 -7 -8 10770 1051.17 3
1 -7 -7 3491.36 606.762 3
1 -7 -6 11453.9 774.782 4
1 -7 -6 12743.5 1066.56 3
1 -7 -5 3993.25 421.922 4
1 -7 -5 3601.13 552.169 3
1 -7 -4 4568.31 414.681 4
1 -7 -4 4883.62 612.339 3
1 -7 -3 11269.1 637.448 4
1 -7 -2 10719.3 602.85 4
1 -7 -1 34646.3 1201.19 4
1 -7 0 1378.53 219.759 4
1 -7 1 39593.5 1449.04 4
1 -7 2 348.79 179.262 4
1 -7 4 276.437 219.145 4
1 -7 5 19889.6 1196.23 4
1 -6 -10 8064.59 970.185 3
1 -6 -9 -114.71 208.802 3
1 -6 -8 10724.3 898.089 4
1 -6 -8 8631.2 930.095 3
1 -6 -7 3167.73 472.499 4
1 -6 -7 3815.09 606.657 3
1 -6 -6 17191.3 1032.31 4
1 -6 -6 18113.3 1246.65 3
1 -6 -5 898.585 318.299 3
1 -6 -5 1140.25 273.405 4
1 -6 -4 37235.5 1448.64 4
1 -6 -4 39420.4 1791.25 3
1 -6 -3 35066.8 1316.95 4
1 -6 -3 36528.6 1663.66 3
1 -6 -2 17340.6 796.952 4
1 -6 -2 18506.2 1287.14 1
1 -6 -2 18624.3 1084.96 3
1 -6 -1 40055.7 1987.88 1
1 -6 0 2462.89 484.108 1
1 -6 0 2999.34 299.164 4
1 -6 1 41533 2038.55 1
1 -6 1 39591.9 1403.81 4
1 -6 2 213.831 192.082 1
1 -6 2 235.957 148.954 4
1 -6 3 40377.7 1940.43 1
1 -6 3 36780.1 1502.06 4
1 -6 4 6890.25 754.685 1
1 -6 5 33916.1 1589.27 4
1 -6 5 34715.2 1793.7 1
1 -6 6 9377.47 896.355 1
1 -6 6 9709.5 838.408 4
1 -6 7 11601.3 992.299 1
1 -6 8 11054.6 980.4 1
1 -5 -10 15816 1276.95 4
1 -5 -9 166.11 278.313 4
1 -5 -8 17069.8 1194.97 4
1 -5 -7 -70.4809 206.477 4
1 -5 -6 53923.5 2119.34 4
1 -5 -6 59435.1 2385.5 3
1 -5 -5 3358.47 511.045 1
1 -5 -5 2778.49 391.718 4
1 -5 -5 3686.6 513.574 3
1 -5 -4 34283 1694.35 1
1 -5 -4 36723.7 1641.67 3
1 -5 -4 31463.7 1340.34 4
1 -5 -3 14072.1 740.939 4
1 -5 -3 15102.5 1072.92 1
1 -5 -2 37347.9 1290.61 4
1 -5 -2 38729.2 1817.64 1
1 -5 -1 16317 1114.67 1
1 -5 0 10599.5 881.768 1
1 -5 1 95714 3231 1
1 -5 1 92676.5 2582.6 4
1 -5 2 656.774 202.442 4
1 -5 2 88.8251 213.457 1
1 -5 3 74950.4 2682.83 1
1 -5 3 71283.3 2298.37 4
1 -5 4 3834.06 529.159 1
1 -5 5 24129.7 1377.21 1
1 -5 5 26369.8 1312.17 4
1 -5 6 14360.8 996.907 4
1 -5 6 13921.4 1010.26 1
1 -5 7 22587.7 1342.07 1
1 -5 8 7392.33 756.264 1
1 -5 9 18438 1238.79 1
1 -5 10 11876.3 1007.6 1
1 -4 -12 10013.4 1149.39 4
1 -4 -11 5796.47 884.335 4
1 -4 -10 15876.7 1315.06 4
1 -4 -9 4306.71 649.02 4
1 -4 -8 35033.6 1824.98 4
1 -4 -7 1894.69 408.961 4
1 -4 -6 30941.7 1518.34 1
1 -4 -6 29774.5 1468.45 4
1 -4 -5 4400.33 524.101 1
1 -4 -5 4989.61 527.503 4
1 -4 -4 35809.9 1416.67 4
1 -4 -4 35289 1594.13 1
1 -4 -3 23398.5 1000.83 4
1 -4 -3 23630.7 1248.83 1
1 -4 -2 52052.2 1599.03 4
1 -4 -2 49649.5 1998.2 1
1 -4 -2 51887.1 1859.62 3
1 -4 -1 27859.5 1371.86 1
1 -4 -1 27377.8 1175.48 3
1 -4 0 9840.19 757.4 1
1 -4 1 47790.8 1502.06 4
1 -4 1 49161.7 1915.47 1
1 -4 2 19608.7 873.746 4
1 -4 2 20279.7 1098.44 1
1 -4 3 15604 831.781 4
1 -4 3 15954.3 947.139 1
1 -4 4 2321.06 372.625 1
1 -4 4 2264.37 342.743 4
1 -4 5 56583 2115.96 1
1 -4 6 4818.1 542.228 1
1 -4 6 4794.69 501.211 2
1 -4 7 43508.2 1753.68 2
1 -4 8 9208.73 741.235 2
1 -4 9 7905.55 712.498 2
1 -4 10 24151.2 1325.51 2
1 -3 -13 7576.14 1065.44 4
1 -3 -12 4050.11 800.815 4
1 -3 -11 8049.82 1007.13 4
1 -3 -10 21065 1557.68 4
1 -3 -9 299.227 291.665 4
1 -3 -8 22861.2 1448.59 4
1 -3 -7 972.62 337.495 4
1 -3 -6 34137.6 1589.65 4
1 -3 -5 5174.62 504.552 1
1 -3 -5 5979.78 562.705 4
1 -3 -4 73235.3 2301.52 4
1 -3 -4 69828.8 2318.92 1
1 -3 -3 49154.2 1633.85 4
1 -3 -3 49167.1 1788.42 1
1 -3 -2 47197.7 1464.38 4
1 -3 -2 45060.9 1689.53 1
1 -3 -1 41870.5 1593.72 1
1 -3 0 15576 850.567 1
1 -3 1 60980.7 1975.1 1
1 -3 1 58603.7 1708.59 4
1 -3 2 2608.02 333.544 1
1 -3 3 104729 3045.99 1
1 -3 4 11705.4 697.898 2
1 -3 5 83299.6 2532.24 2
1 -3 6 6674.45 557.081 2
1 -3 7 33216.9 1619.56 4
1 -3 7 30405.4 1360.01 2
1 -3 8 14477.2 940.897 2
1 -3 9 10837.7 811.745 2
1 -3 10 21590.4 1226.86 2
1 -3 11 8907.04 789.894 2
1 -2 -14 1293.31 532.887 4
1 -2 -13 7063.74 1059.36 4
1 -2 -12 6540.11 988.684 4
1 -2 -11 1522.03 548.028 4
1 -2 -10 12756.8 1209.58 4
1 -2 -9 5522.89 759.169 4
1 -2 -8 14473.5 1141.52 4
1 -2 -7 3661.23 546.931 4
1 -2 -6 35337.4 1630.67 4
1 -2 -5 7713.78 649.091 4
1 -2 -4 74752.7 2216.55 1
1 -2 -4 75298.8 2359.22 4
1 -2 -3 42352.8 1464.47 4
1 -2 -3 42155.9 1422.07 1
1 -2 -2 57894.4 1685.68 4
1 -2 -2 55674.8 1750.78 1
1 -2 -1 82865.5 2338.03 1
1 -2 0 62076.6 1839.86 1
1 -2 1 212380 5179.58 1
1 -2 2 51202.5 1569.63 2
1 -2 3 77933.8 2230.4 2
1 -2 4 605.641 171.062 2
1 -2 5 78661.3 2375.19 2
1 -2 6 9734.93 649.523 2
1 -2 6 10985.1 809.458 4
1 -2 7 28627.5 1465.05 4
1 -2 7 27466.8 1250.34 2
1 -2 8 1212.7 280.977 2
1 -2 9 9132.13 738.879 2
1 -2 10 6774.74 655.617 2
1 -2 12 7697.69 756.691 1
1 -1 -14 3400.05 796.424 4
1 -1 -13 5240.73 934.733 4
1 -1 -12 4101.23 797.815 4
1 -1 -11 3791.77 735.142 4
1 -1 -10 18492 1460.99 4
1 -1 -9 1847.31 487.7 4
1 -1 -8 44101.5 2103.52 4
1 -1 -7 648.972 287.448 4
1 -1 -6 62097 2325.5 4
1 -1 -5 12167.1 835.335 4
1 -1 -4 70262.4 2253.6 4
1 -1 -3 5498.55 438.852 4
1 -1 -3 5958.44 329.27 1
1 -1 -2 31552.1 960.194 1
1 -1 -2 32160.4 1084.36 4
1 -1 -1 67315.4 1743.38 1
1 -1 0 64315.1 1680.92 2
1 -1 1 24553.5 824.393 2
1 -1 2 1482.37 190.916 2
1 -1 3 172662 4306.97 4
1 -1 3 167918 4241.53 2
1 -1 4 4958.08 453.187 4
1 -1 4 4677.89 394.818 2
1 -1 5 127193 3451.28 2
1 -1 5 124375 3604.75 4
1 -1 6 202.233 206.381 4
1 -1 6 399.709 166.466 2
1 -1 7 25495.8 1211.29 2
1 -1 7 26718.3 1386.52 4
1 -1 8 13.1368 116.427 2
1 -1 9 21790.7 1205.58 2
1 -1 10 11587.9 888.896 2
1 -1 11 5653.24 648.309 1
1 -1 12 11143.1 955.058 1
1 0 -14 871.95 547.121 4
1 0 -13 8579.39 1204.47 4
1 0 -12 2813.62 698.057 4
1 0 -11 6913.8 951.38 4
1 0 -10 31703.3 1954.92 4
1 0 -9 11718.2 1092.84 4
1 0 -8 57627.4 2483.82 4
1 0 -7 1189.94 371.666 4
1 0 -6 75775.4 2676.46 4
1 0 -5 4978.68 535.3 4
1 0 -4 64893.4 2123.51 4
1 0 -3 7532.21 521.725 4
1 0 -2 13672.9 624.153 4
1 0 -1 16198.7 590.372 4
1 0 0 112274 2697.71 2
1 0 1 101314 2596.77 2
1 0 1 104094 2513.55 4
1 0 2 21281.3 814.755 2
1 0 2 21139.2 770.828 4
1 0 3 83680.5 2349.85 2
1 0 3 83529.1 2326.49 4
1 0 4 12722.5 693.671 2
1 0 4 11693.2 675.995 4
1 0 5 42239.7 1555.98 2
1 0 5 42119 1609 4
1 0 6 1276.97 250.32 2
1 0 6 1526.7 310.12 4
1 0 7 54293.3 2030.66 2
1 0 7 57428.1 2190.19 4
1 0 8 4333.36 512.138 2
1 0 8 4272.76 516.327 1
1 0 8 4492.48 575.354 4
1 0 9 22315 1281.72 1
1 0 9 23547.4 1295.88 2
1 0 10 16432.7 1133.2 1
1 0 11 6142.92 710.748 1
1 0 12 9624.38 925.697 1
1 1 -14 213.965 367.011 4
1 1 -13 8465.88 1193.56 4
1 1 -12 2725.05 679.332 4
1 1 -11 15319.7 1411.02 4
1 1 -10 7646.03 928.939 4
1 1 -9 7979.6 896.813 4
1 1 -8 25882.8 1558.87 4
1 1 -7 5033.32 649.884 4
1 1 -6 57026.5 2229.08 4
1 1 -6 58319.5 1554.96 2
1 1 -5 189.845 63.6794 2
1 1 -5 522.692 250.997 4
1 1 -4 41834.8 1581.28 4
1 1 -3 14589 756.601 4
1 1 -2 107327 2706.35 4
1 1 -2 100506 2529.04 1
1 1 -1 104825 2646.18 1
1 1 -1 106588 2602.99 4
1 1 0 117938 2955.69 2
1 1 1 1763.85 141.306 4
1 1 1 1781.1 224.969 2
1 1 2 7936.34 505.254 2
1 1 2 7540.52 387.503 4
1 1 3 10102.4 626.06 2
1 1 3 10735 653.367 1
1 1 3 10820.5 554.164 4
1 1 4 1948.86 295.765 1
1 1 4 1882.61 295.266 2
1 1 4 2020.03 271.202 4
1 1 5 49679 1850.61 2
1 1 5 52535.8 1811.89 4
1 1 6 1321.19 289.46 4
1 1 6 904.02 235.911 2
1 1 7 30761.6 1500.4 1
1 1 7 31239.1 1480.12 2
1 1 7 31791.4 1510.61 4
1 1 8 3209.43 477.766 1
1 1 8 2703.17 448.818 4
1 1 8 2483.66 413.64 2
1 1 9 26757.4 1494.66 1
1 1 10 1830.97 397.196 1
1 1 11 4569.66 656.798 1
1 1 12 7013.81 827.405 1
1 2 -14 1181.48 559.928 4
1 2 -13 14222.5 1539.33 4
1 2 -12 -44.794 359.878 4
1 2 -11 15981.5 1445.52 4
1 2 -10 5263.19 809.177 4
1 2 -9 4025.83 686.574 4
1 2 -8 11591.7 540.854 2
1 2 -8 10432.8 989.917 4
1 2 -7 2954.65 237.478 2
1 2 -7 2815.89 509.431 4
1 2 -6 22614.2 747.303 2
1 2 -6 22309.3 1264.98 4
1 2 -5 10472 440.635 2
1 2 -5 11170.7 799.599 4
1 2 -4 84687.1 2142.76 2
1 2 -4 78607.5 2516.51 4
1 2 -3 5845 466.488 4
1 2 -3 5984.24 439.849 1
1 2 -2 84651.2 2331.38 1
1 2 -2 77938 2182.18 4
1 2 -1 23505.7 746.5 4
1 2 -1 23051.4 1017.77 1
1 2 2 15421.5 557.649 4
1 2 2 15749.9 837.14 2
1 2 3 99609.1 2985.42 2
1 2 3 98034.9 2597.05 4
1 2 3 101438 3044.63 1
1 2 4 4999.92 499.564 2
1 2 4 4800.56 398.209 4
1 2 5 23888.2 1077.03 4
1 2 5 22822.2 1201.09 2
1 2 6 793.91 244.258 2
1 2 6 106.808 155.786 4
1 2 6 621.188 256.143 1
1 2 7 19678.8 1211.47 2
1 2 7 21654.7 1185.98 4
1 2 7 22741.8 1322.64 1
1 2 8 358.825 227.312 4
1 2 8 29.8691 199.623 1
1 2 9 14299.1 1137.45 1
1 2 10 377.211 204.932 1
1 2 11 8288.21 925.295 1
1 2 12 5156.8 761.87 1
1 3 -14 -118.183 524.505 4
1 3 -13 8382.02 1176.74 4
1 3 -12 2676.02 711.002 4
1 3 -11 25819.2 1863.91 4
1 3 -10 8387.68 497.831 2
1 3 -10 7692.76 966.317 4
1 3 -9 7532.01 455.596 2
1 3 -9 6788.24 857.693 4
1 3 -8 15630.3 676.051 2
1 3 -8 15257.7 1187.98 4
1 3 -7 14262.6 630.789 2
1 3 -7 13759.5 1057.24 4
1 3 -6 69697.6 1961.07 2
1 3 -6 70276.7 2538.72 4
1 3 -5 201.169 258.872 4
1 3 -5 276.396 134.52 2
1 3 -4 27509.3 1142.56 1
1 3 -4 24377.3 1129.41 4
1 3 -3 8575 627.65 1
1 3 -3 7463.22 518.343 4
1 3 -2 71203 2322.44 1
1 3 -2 70978.4 1969.99 4
1 3 -1 5502.2 291.059 4
1 3 -1 5036 522.09 1
1 3 0 70709.6 1968.28 3
1 3 2 28148.5 794.467 4
1 3 3 25568.2 884.735 4
1 3 3 27088.1 1307.49 2
1 3 4 12225 882.833 2
1 3 4 13237.3 666.351 4
1 3 5 23735.5 1312.39 2
1 3 5 24374.2 1072.98 4
1 3 5 24287.3 1383.27 1
1 3 6 2184.56 335.941 4
1 3 6 3010.37 489.414 1
1 3 7 29899.3 1423.07 4
1 3 7 30969.8 1698.52 1
1 3 8 115.375 187.35 1
1 3 8 -451.995 232.692 4
1 3 9 31224.8 1845.16 1
1 3 10 1106.78 340.054 1
1 3 11 7822.84 976.092 1
1 4 -14 1123.85 537.035 4
1 4 -13 10605.6 1316.3 4
1 4 -12 2046.58 597.028 4
1 4 -11 24845.2 998.472 2
1 4 -11 24692.9 1810.98 4
1 4 -10 3630.5 342.509 2
1 4 -10 4184.92 735.95 4
1 4 -9 15229.3 738.421 2
1 4 -9 16148.4 1297.85 4
1 4 -8 20213.9 1400.1 4
1 4 -8 22641.8 939.951 2
1 4 -7 8856.14 852.189 4
1 4 -7 10075.2 589.009 2
1 4 -6 19783.9 926.934 2
1 4 -6 20314.6 1193.4 4
1 4 -5 6857.12 593.763 1
1 4 -5 5072.18 559.974 4
1 4 -4 42780.3 1730.07 1
1 4 -4 39644.5 1550.51 4
1 4 -3 493.008 253.975 1
1 4 -3 655.569 206.358 4
1 4 -2 83155.8 2904.11 1
1 4 -2 90475.9 2367.81 4
1 4 -1 11898.8 901.555 1
1 4 -1 12093.4 465.405 4
1 4 0 25064.1 1021.34 3
1 4 1 10146.9 611.542 3
1 4 3 20103.2 1297.48 1
1 4 4 30055.3 1542.65 2
1 4 4 27310.6 995.949 4
1 4 4 28383.2 1591.71 1
1 4 5 23861.6 1011.53 4
1 4 5 23634.1 1479.01 1
1 4 6 7233.68 571.351 4
1 4 6 10709.4 1065.4 1
1 4 7 41352.2 1672.15 4
1 4 7 37034 2057.58 1
1 4 8 684.563 336.485 1
1 4 9 20537.7 1570.4 1
1 4 10 1540.38 438.668 1
1 4 11 5973.47 882.128 1
1 5 -13 5711.54 1047.9 4
1 5 -12 1733.12 649.964 4
1 5 -11 16566.4 830.31 2
1 5 -11 17054 1499.06 4
1 5 -10 6685.82 509.726 2
1 5 -10 7425.6 941.729 4
1 5 -9 6004.12 817.483 4
1 5 -9 6279.8 500.925 2
1 5 -8 6581.58 532.733 2
1 5 -8 7556.26 862.549 4
1 5 -7 22001.3 1346.41 4
1 5 -7 23844 1121.23 2
1 5 -6 36933.5 1653.73 1
1 5 -6 37004 1693.72 4
1 5 -6 36244.9 1529.52 2
1 5 -5 8655.61 782.344 1
1 5 -5 9708.94 760.82 4
1 5 -4 86760 3082.97 1
1 5 -4 89679 2688.59 4
1 5 -3 119.132 174.307 4
1 5 -3 -13.0562 285.004 1
1 5 -2 99154 3521.66 1
1 5 -2 104532 2711.05 4
1 5 -1 4433.73 636.324 1
1 5 0 32291.1 1324.12 3
1 5 2 54310.2 2421.6 1
1 5 3 10405.4 994.488 1
1 5 4 20675.4 1456.73 1
1 5 5 17068.6 1366.97 1
1 5 6 7806.92 924.817 1
1 5 7 21673.3 1616.06 1
1 5 8 -20.4203 228.095 1
1 5 9 14695.8 1405.53 1
1 5 10 672.62 326.514 1
1 5 11 10510.3 1287.29 1
1 6 -13 7382.42 1110.45 4
1 6 -12 924.108 455.458 4
1 6 -11 14601.6 837.744 2
1 6 -11 13657.2 1359.94 4
1 6 -10 1045.79 455.744 4
1 6 -10 1430.91 275.691 2
1 6 -9 15817.8 925.302 2
1 6 -9 14058.5 1226.44 4
1 6 -8 7295.51 648.291 2
1 6 -8 7400.31 850.428 4
1 6 -7 31030.9 1631.73 4
1 6 -7 31048.8 1490.22 2
1 6 -6 27677.3 1535.04 1
1 6 -6 26579.3 1401.06 4
1 6 -5 5551.89 704.472 1
1 6 -5 4942.51 552.264 4
1 6 -4 41723.2 2089.06 1
1 6 -4 47552.2 1704.12 4
1 6 -3 2161.78 304.294 4
1 6 -3 2056.8 481.962 1
1 6 -2 52815.2 2450.28 1
1 6 -1 308.809 185.31 3
1 6 -1 36.7981 323.566 1
1 6 0 43313.2 2251.44 1
1 6 0 43880.6 1748.92 3
1 6 1 911.459 363.596 1
1 6 2 37824.4 2124.96 1
1 6 3 4240.25 706.706 1
1 6 4 18864.6 1497.95 1
1 6 5 18569.5 1527.25 1
1 6 6 2683.36 634.394 1
1 6 7 12748.5 1331.7 1
1 6 8 61.9314 215.406 1
1 6 9 8475.27 1149.73 1
1 6 10 621.924 393.43 1
1 7 -13 5864.09 1000.36 4
1 7 -12 347.127 365.448 4
1 7 -11 12665.3 1317.7 4
1 7 -10 1373.76 493.538 4
1 7 -10 1476.01 313.576 2
1 7 -9 12582.8 1160.35 4
1 7 -9 15451.2 1027.2 2
1 7 -8 6867.42 700.935 2
1 7 -8 5387.45 739.873 4
1 7 -7 12947.9 1094.63 1
1 7 -7 10849.7 946.644 4
1 7 -7 13704.5 1036.72 2
1 7 -6 18839.9 1365.58 1
1 7 -6 17874.9 1133.92 4
1 7 -5 1455.4 451.552 1
1 7 -5 1374.04 334.121 4
1 7 -4 15269.8 1305.51 1
1 7 -4 16237.4 904.865 4
1 7 -3 1553.17 501.899 1
1 7 -2 22560.2 1634.3 1
1 7 -2 22776.6 1261.71 3
1 7 -1 335.335 345.21 1
1 7 -1 760.205 268.25 3
1 7 0 11717.4 1195.76 1
1 7 0 12886.7 921.082 3
1 7 1 78.6429 323.5 1
1 7 2 34038.4 2134.62 1
1 7 3 9047.09 1107.38 1
1 7 4 3840.46 759.965 1
1 7 5 16333.1 1534.1 1
1 7 6 3389.21 755.466 1
1 7 7 7022.49 1071.88 1
1 7 8 1489.88 584.34 1
1 8 -13 3156.36 803.867 4
1 8 -12 823.002 506.827 4
1 8 -11 7471.26 1010.42 4
1 8 -10 2898.12 630.08 4
1 8 -10 1457.84 338.085 2
1 8 -9 11390 958.657 2
1 8 -9 10141.5 1045.32 4
1 8 -8 2824.14 573.524 4
1 8 -8 4392.87 641.421 2
1 8 -7 13758.1 1243.4 1
1 8 -7 13555.5 1059.75 4
1 8 -6 9962.18 828.774 4
1 8 -6 6249.75 882.052 1
1 8 -5 4488.01 777.558 1
1 8 -5 3300.38 454.209 4
1 8 -4 8720.01 1078.83 1
1 8 -3 1871.3 579.122 1
1 8 -2 7109.63 986.315 1
1 8 -1 -259.023 459.483 1
1 8 0 24645.6 1901.39 1
1 8 1 8381.72 1117.9 1
1 8 2 14361 1478.68 1
1 8 3 12722.7 1398.17 1
1 8 4 8954.31 1189.07 1
1 8 5 9441.19 1237.86 1
1 8 6 10398.6 1347.39 1
1 8 7 8701.38 1266.42 1
1 9 -12 433.705 398.892 4
1 9 -11 4433.19 819.221 4
1 9 -10 776.628 422.104 4
1 9 -10 596.204 308.515 2
1 9 -9 8455.76 919.885 2
1 9 -9 7096.26 891.337 4
1 9 -8 769.145 354.273 2
1 9 -8 596.385 347.703 4
1 9 -7 7353.49 1000.01 1
1 9 -7 5055.71 656.015 4
1 9 -6 6583.33 951.678 1
1 9 -6 7694.3 738.735 4
1 9 -5 4521.46 838.458 1
1 9 -4 7844.42 1078.89 1
1 9 -3 5795.76 950.303 1
1 9 -2 33371.9 2302.09 1
1 9 -1 -149.503 303.326 1
1 9 0 17582.3 1689.96 1
1 9 1 560.98 401.768 1
1 9 2 16237.8 1679.17 1
1 9 3 1465.79 574.26 1
1 9 4 6390.24 1113.81 1
1 9 5 10509.3 1433.32 1
1 10 -12 321.473 360.263 4
1 10 -11 5243.86 867.254 4
1 10 -10 522.2 416.688 4
1 10 -9 6835.03 856.404 4
1 10 -9 6159.28 842.904 2
1 10 -8 458.962 362.646 2
1 10 -8 1941.49 479.032 4
1 10 -7 10013.1 1251.16 1
1 10 -6 4890.51 868.399 1
1 10 -5 10411.2 1307.27 1
1 10 -4 10362.3 1309.73 1
1 10 -3 2622.59 736.091 1
1 10 -2 9238.14 1298.65 1
1 10 -1 1947.99 642.077 1
1 10 0 10259 1372.5 1
1 10 1 -637.964 488.668 1
1 10 2 12202.4 1539.67 1
1 11 -11 4484.99 813.601 4
1 11 -10 -212.282 311.995 4
1 11 -9 7124.33 963.486 2
1 11 -8 1018.55 436.065 2
1 11 -7 7159 1151.39 1
1 11 -6 4862.69 945.936 1
1 11 -5 3168.49 742.913 1
1 11 -4 1705.94 639.556 1
1 11 -3 6509.48 1111.91 1
1 11 -2 7634.93 1219.24 1
1 11 -1 2795.69 823.263 1
1 12 -8 314.967 372.631 2
1 12 -7 3176.45 823.814 1
1 12 -6 1996.55 725.839 1
2 -10 2 4050.56 495.252 4
2 -9 -8 4804.36 774.949 3
2 -9 -7 8991.41 1019.26 3
2 -9 -6 516.561 302.228 3
2 -9 -3 14583.9 847.803 4
2 -9 -2 2149.4 312.643 4
2 -9 -1 10240.1 680.291 4
2 -9 2 14681.5 957.682 4
2 -9 3 2035.44 374.785 4
2 -8 -10 9411.14 1097.94 3
2 -8 -9 6896.17 926.38 3
2 -8 -8 2304.96 546.814 3
2 -8 -7 11368.5 1121.48 3
2 -8 -6 2048.57 473.646 3
2 -8 -5 26787 1312.61 4
2 -8 -5 25076.2 1607.72 3
2 -8 -4 321.271 155.411 4
2 -8 -4 -158.603 209.95 3
2 -8 -3 26769.4 1254.62 4
2 -8 2 17697.3 1026.39 4
2 -8 3 4671.18 539.031 4
2 -8 4 33301.2 1615.53 4
2 -7 -11 3958.54 729.495 3
2 -7 -10 8899.41 1076.7 3
2 -7 -9 9659.6 1081.93 3
2 -7 -8 7669.76 798.604 4
2 -7 -8 9749.13 1044.14 3
2 -7 -7 14221.4 1048.25 4
2 -7 -7 16159.2 1297.49 3
2 -7 -6 16200.6 1055.9 4
2 -7 -6 14175.8 1192.13 3
2 -7 -5 19757.4 1130.59 4
2 -7 -5 21152.1 1404.36 3
2 -7 -4 351.824 188.18 4
2 -7 -4 -26.3915 191.231 3
2 -7 -3 37442.6 1535.82 4
2 -7 -3 38341.7 1851.97 3
2 -7 3 14650.8 943.348 4
2 -7 4 17993.9 1098.96 4
2 -6 -12 9807.14 1154.3 3
2 -6 -11 1383.16 460.634 3
2 -6 -10 20519.3 1612.61 3
2 -6 -9 6661.02 806.386 4
2 -6 -9 7108.23 900.544 3
2 -6 -8 10153.4 946.631 4
2 -6 -8 10788.8 1070.63 3
2 -6 -7 22276.8 1356.81 4
2 -6 -7 24741.7 1602.88 3
2 -6 -6 3763.15 510.799 4
2 -6 -6 4686.21 672.714 3
2 -6 -5 37640 1645.88 4
2 -6 -5 36747.8 1867.55 3
2 -6 -4 -156.551 206.321 1
2 -6 -4 139.585 158.955 4
2 -6 -4 -42.3427 229.266 3
2 -6 -3 37050.7 1486.31 4
2 -6 -3 36897.1 1864.57 1
2 -6 -3 35514.9 1727.56 3
2 -6 -2 65.9189 196.903 1
2 -6 -2 154.01 201.677 3
2 -6 -1 55293 2389.01 1
2 -6 0 1490.18 365.644 1
2 -6 1 42664.6 1607.29 4
2 -6 1 46008.2 2087.16 1
2 -6 2 853.728 272.08 1
2 -6 3 51413.4 2263.8 1
2 -6 4 18794 1268 1
2 -6 4 16816.1 1035.03 4
2 -6 5 468.347 224.936 1
2 -6 5 325.02 240.267 4
2 -6 6 30275.3 1689.88 1
2 -5 -11 93.9317 288.551 4
2 -5 -10 16158.9 1344.81 4
2 -5 -9 10873.5 1041.47 4
2 -5 -8 4416.04 654.696 4
2 -5 -7 29633 1550.58 1
2 -5 -7 29867.5 1609.29 4
2 -5 -6 23718.1 1331.74 4
2 -5 -6 23013.1 1334.49 1
2 -5 -5 23927.1 1352.21 1
2 -5 -5 24117.7 1401.47 3
2 -5 -5 22329.8 1214.86 4
2 -5 -4 303.404 172.085 4
2 -5 -4 -74.4545 214.967 1
2 -5 -4 -102.655 220.401 3
2 -5 -3 23242.4 1106.48 4
2 -5 -3 24207 1354.54 1
2 -5 -3 24942.4 1324.73 3
2 -5 -2 1288.25 324.613 1
2 -5 -1 37215.2 1745.84 1
2 -5 0 9688.49 833.116 1
2 -5 1 79738.4 2807.71 1
2 -5 2 39153.2 1763.19 1
2 -5 2 37892 1490.97 4
2 -5 3 30665.5 1538.59 1
2 -5 4 33034.5 1638.17 1
2 -5 5 4924.38 576.573 4
2 -5 5 3728.9 530.564 1
2 -5 6 30072.9 1597.39 1
2 -5 6 29394.3 1502.95 2
2 -5 7 1067.13 312.588 2
2 -5 8 24002.8 1411.44 2
2 -4 -13 289.251 306.576 4
2 -4 -12 9540.47 1147.13 4
2 -4 -11 875.093 385.089 4
2 -4 -10 10386.8 1084.12 4
2 -4 -9 5889.69 791.054 4
2 -4 -8 11590.7 1023.67 4
2 -4 -7 8873.72 731.924 1
2 -4 -7 10279.8 888.279 4
2 -4 -6 7665.55 742.536 4
2 -4 -6 8284.18 693.476 1
2 -4 -5 22633.9 1215.47 4
2 -4 -5 22662.7 1192.2 1
2 -4 -4 1816.83 322.671 4
2 -4 -4 1783.19 330.592 1
2 -4 -3 54023.6 2047.24 1
2 -4 -3 53748.3 1869.41 4
2 -4 -2 4621.47 522.341 1
2 -4 -1 131452 3849.87 1
2 -4 0 135957 3942.38 1
2 -4 1 63018.2 2226.22 1
2 -4 2 89908.8 2915.41 1
2 -4 2 93254.7 2734.64 4
2 -4 3 52030.4 1990.41 1
2 -4 3 49823.9 1894.68 2
2 -4 4 26263.8 1275.82 2
2 -4 5 3522.25 463.657 2
2 -4 6 22932.4 1287.6 4
2 -4 6 21789.5 1206.27 2
2 -4 7 12266.7 902.178 2
2 -4 8 38037.5 1766.02 2
2 -4 9 -406.378 230.168 2
2 -3 -14 8088.88 1149.8 4
2 -3 -13 1567.26 548.328 4
2 -3 -12 12815 1344.11 4
2 -3 -11 692.586 358.26 4
2 -3 -10 19806.3 1529.25 4
2 -3 -9 8806.04 961.165 4
2 -3 -8 4265.56 628.075 4
2 -3 -7 20178.5 1292.2 4
2 -3 -6 25227.7 1145.46 1
2 -3 -6 26637.4 1399.24 4
2 -3 -5 56797.2 2129.74 4
2 -3 -5 55846.8 1911.16 1
2 -3 -4 29616.7 1313.65 4
2 -3 -4 29343 1248.87 1
2 -3 -3 136171 3787.7 1
2 -3 -3 139180 3792.77 4
2 -3 -2 3955.45 429.289 1
2 -3 -1 93080.2 2761.18 1
2 -3 0 67966.8 2178.39 1
2 -3 1 58258.9 1930.06 2
2 -3 2 22580.8 1053.12 2
2 -3 3 73505.2 2345.43 2
2 -3 4 22249.8 1103.14 2
2 -3 5 53512.8 1966.86 2
2 -3 6 43209.7 1777.14 2
2 -3 6 47094.9 1942.58 4
2 -3 7 22042.5 1213.52 2
2 -3 8 25518.7 1370.54 2
2 -3 9 796.399 276.511 2
2 -2 -14 9495.87 1254.94 4
2 -2 -13 2121.51 662.683 4
2 -2 -12 17071.6 1562.44 4
2 -2 -11 -82.3744 386.317 4
2 -2 -10 17002.2 1419.45 4
2 -2 -9 5908.77 787.66 4
2 -2 -8 33464 1835.39 4
2 -2 -7 5695.89 676.643 4
2 -2 -6 32665.6 1580.38 4
2 -2 -5 88800.6 2868.43 4
2 -2 -5 86063.4 2407.73 1
2 -2 -4 4521.28 486.206 4
2 -2 -4 4341.71 361.065 1
2 -2 -3 69125.9 2057.54 1
2 -2 -3 73092.5 2238.3 4
2 -2 -2 16920.3 765.125 1
2 -2 -1 39020.7 1326.97 1
2 -2 0 3157.24 323.312 2
2 -2 0 3299.37 314.788 3
2 -2 1 22378.5 935.571 2
2 -2 2 23223.7 995.555 2
2 -2 3 114933 3245.92 2
2 -2 4 14540.4 843.887 4
2 -2 4 13467.3 801.537 2
2 -2 5 39955 1638.77 4
2 -2 5 38783.3 1569.96 2
2 -2 6 19598.1 1085.5 2
2 -2 6 20568.7 1166.2 4
2 -2 7 5161.14 561.338 2
2 -2 7 5127.45 615.906 4
2 -2 8 22437.9 1277.64 2
2 -1 -14 8136.43 1162.28 4
2 -1 -13 977.191 452.125 4
2 -1 -12 7821.15 1080.74 4
2 -1 -11 182.227 332.954 4
2 -1 -10 27764.5 1812.32 4
2 -1 -9 -23.5406 383.222 4
2 -1 -8 23723.7 1509.3 4
2 -1 -7 4906.41 631 4
2 -1 -6 15816.3 1061.08 4
2 -1 -5 78756.9 2659.11 4
2 -1 -4 14671.4 855.649 4
2 -1 -4 12644.5 481.381 1
2 -1 -3 37426.4 1433.99 4
2 -1 -3 39262.7 1119.83 1
2 -1 -2 29936.7 956.899 2
2 -1 -1 47876.4 1396.08 2
2 -1 0 16515.6 693.226 2
2 -1 0 16227.6 632.526 3
2 -1 1 7285.03 470.356 2
2 -1 2 146.929 119.406 2
2 -1 2 355.298 158.096 4
2 -1 3 19257.7 930.466 2
2 -1 3 19260.8 903.366 4
2 -1 4 46875.3 1676.4 4
2 -1 4 44718.3 1673.54 2
2 -1 5 5099.24 514.219 2
2 -1 5 6221.67 569.257 4
2 -1 6 30488.8 1430.53 2
2 -1 6 33053.7 1501.66 4
2 -1 7 5682.83 599.174 2
2 -1 7 7279.79 714.933 4
2 -1 8 13636.7 979.853 2
2 -1 11 171.592 198.33 1
2 -1 12 10020.1 1004.57 1
2 0 -14 7639.26 1174.43 4
2 0 -13 2030.51 637.882 4
2 0 -12 12473.1 1326.48 4
2 0 -11 1330.54 510.747 4
2 0 -10 20056.1 1560.92 4
2 0 -9 621.133 351.652 4
2 0 -8 26121.8 1577.69 4
2 0 -7 743.77 371.043 4
2 0 -6 35662.1 1672.24 4
2 0 -5 28327.3 1363.86 4
2 0 -4 18725.3 992.696 4
2 0 -3 41621.8 1079.2 2
2 0 -3 41483.1 1533.58 4
2 0 -2 8455.59 376.422 2
2 0 -2 7452.75 497.648 4
2 0 -1 195088 4649.58 2
2 0 0 270.763 113.741 2
2 0 1 75047.7 2193.22 2
2 0 2 20232.7 915.152 2
2 0 2 18567.8 797.832 4
2 0 3 69115.2 2200.62 2
2 0 3 67418.7 2048.69 4
2 0 4 60416 2093.26 2
2 0 4 60428 1976.32 4
2 0 5 23658.3 1204.31 2
2 0 5 23847.4 1149.69 4
2 0 6 8481.5 719.681 2
2 0 6 9275.16 734.694 4
2 0 7 19167.3 1170.77 2
2 0 7 21131.4 1217.9 4
2 0 8 18114.2 1197.15 1
2 0 9 3673.87 557.38 1
2 0 10 10630.2 999.597 1
2 0 11 467.652 282.501 1
2 0 12 13778.3 1227.88 1
2 1 -14 8202.2 1210.95 4
2 1 -13 3271.79 749.756 4
2 1 -12 8197.3 1109.7 4
2 1 -11 477.701 457.725 4
2 1 -10 39810.8 2221.99 4
2 1 -9 -180.209 333.403 4
2 1 -8 45786.4 2185.32 4
2 1 -7 454.416 295.562 4
2 1 -6 48194.3 2011.92 4
2 1 -5 32237.4 1478.5 4
2 1 -4 13067.6 829.7 4
2 1 -4 12772.3 464.93 1
2 1 -3 10490 414.644 2
2 1 -3 10271.1 648.003 4
2 1 -3 10069.2 462.867 1
2 1 -2 15305.3 610.265 2
2 1 -2 14631.2 724.431 4
2 1 -2 14298.3 637.497 1
2 1 -1 211077 5154.73 2
2 1 -1 214693 5218.3 1
2 1 0 26556.6 1041.52 2
2 1 1 57824.9 1867.11 2
2 1 2 124.031 126.549 2
2 1 2 225.401 129.212 4
2 1 3 75677.3 2437.51 2
2 1 3 73465.6 2134.57 4
2 1 4 3510.04 438.962 2
2 1 4 3186.04 356.607 4
2 1 5 40124.8 1727.58 2
2 1 5 39654.4 1749.71 1
2 1 5 40740.6 1563.33 4
2 1 6 17553.9 1126.8 1
2 1 6 16800.4 1082.12 2
2 1 6 16831 982.225 4
2 1 7 21052.1 1319.26 1
2 1 7 23784.6 1272.71 4
2 1 8 17909.1 1258.55 1
2 1 8 17862.6 1170.75 4
2 1 9 6271.04 761.83 1
2 1 10 11683.4 1091.51 1
2 1 11 804.867 329.204 1
2 1 12 8625.74 1004.37 1
2 2 -14 4465.11 906.964 4
2 2 -13 1547.44 571.791 4
2 2 -12 16924.6 1555.64 4
2 2 -11 3303.4 665.63 4
2 2 -10 33349.5 2008.01 4
2 2 -9 -382.555 422.191 4
2 2 -8 42195.7 2089.91 4
2 2 -7 10026.7 899.882 4
2 2 -6 42895.1 1892.31 4
2 2 -5 12915.4 579.344 1
2 2 -5 12755.1 867.104 4
2 2 -4 17549.4 955.443 4
2 2 -4 17296.1 773.168 1
2 2 -3 29687.5 1221.39 4
2 2 -3 30747.6 1180.14 1
2 2 -2 19576.3 836.196 4
2 2 -2 19778.6 924.18 1
2 2 -2 19125.5 820.897 2
2 2 -1 116256 3175.52 2
2 2 -1 113218 2948.22 4
2 2 -1 120390 3259.24 1
2 2 0 17451.7 889.358 2
2 2 1 35024.1 1431.89 2
2 2 1 36350.9 1045.11 4
2 2 2 12742.2 815.667 2
2 2 2 12422.9 537.31 4
2 2 3 93385.8 2970.43 2
2 2 3 91512.2 2481.72 4
2 2 4 5694.98 616.914 1
2 2 4 4379.68 524.048 2
2 2 4 4534.08 398.334 4
2 2 5 24692.5 1366.93 2
2 2 5 27486.5 1171.97 4
2 2 5 26235.6 1463.93 1
2 2 6 8094.31 648.609 4
2 2 6 7428.93 773.686 1
2 2 7 19872.9 1131.12 4
2 2 7 17937 1285 1
2 2 8 23653.3 1335.22 4
2 2 8 22554.3 1498.28 1
2 2 9 7395.25 862.916 1
2 2 10 7196.23 898.804 1
2 2 11 423.645 257.437 1
2 2 12 8444.87 1049.19 1
2 3 -14 3680.01 875.998 4
2 3 -13 5732.25 993.721 4
2 3 -12 7379.06 1041.31 4
2 3 -11 2799.89 638.944 4
2 3 -10 18870.3 1498.66 4
2 3 -9 2104.63 551.716 4
2 3 -8 30752.4 867.716 2
2 3 -8 32211.5 1787.61 4
2 3 -7 1175.77 444.177 4
2 3 -7 892.692 131.442 2
2 3 -6 85568.7 2427 1
2 3 -6 81758.2 2902.13 4
2 3 -6 82813.9 2246.58 2
2 3 -5 20886.4 993.281 1
2 3 -5 20528.5 1120.54 4
2 3 -4 56572.2 1958.09 1
2 3 -4 56372.6 1962.86 4
2 3 -3 27553.4 1239.53 1
2 3 -3 25969 1094.59 4
2 3 -2 33408.3 1188.44 4
2 3 -2 36187.9 1531.46 1
2 3 -1 96989 2504.34 4
2 3 -1 101226 3092.33 1
2 3 0 26034.6 867.706 3
2 3 0 22086.5 699.119 4
2 3 1 77462.5 2563.8 2
2 3 1 73306.9 1766.49 4
2 3 2 326.907 203.762 2
2 3 2 100.2 60.6868 4
2 3 3 48753.6 2021.41 2
2 3 3 49746 1446.88 4
2 3 3 50013.4 2118.73 1
2 3 4 919.452 286.58 2
2 3 4 513.331 143.508 4
2 3 4 735.222 277.678 1
2 3 5 12449.8 706.88 4
2 3 5 9871.38 926.951 1
2 3 6 4256.62 449.213 4
2 3 6 3761.33 590.197 1
2 3 7 14245 1190.81 1
2 3 7 13286.8 885.424 4
2 3 8 10864.1 1096.27 1
2 3 9 8435.66 992.329 1
2 3 10 11302.5 1197.67 1
2 3 11 619.381 344.895 1
2 4 -14 1285.03 495.994 4
2 4 -13 3022.05 788.438 4
2 4 -12 12595.6 1339.48 4
2 4 -11 1758.88 591.81 4
2 4 -10 10884.4 421.856 2
2 4 -10 13024.9 1236.12 4
2 4 -9 775.883 424.083 4
2 4 -9 625.127 122.662 2
2 4 -8 30734.7 1060.11 2
2 4 -8 28103.5 1663.75 4
2 4 -7 1672.96 405.449 4
2 4 -7 2346.56 292.922 2
2 4 -6 39983.6 1586.77 1
2 4 -6 37205 1723.08 4
2 4 -5 2137.51 378.518 1
2 4 -5 2373.88 405.622 4
2 4 -4 32114.6 1493.34 1
2 4 -4 28754.4 1274.99 4
2 4 -3 18392.7 876.648 4
2 4 -3 18037.8 1142.42 1
2 4 -2 46297.2 1464.43 4
2 4 -2 51030.9 2046.76 1
2 4 -1 75511.6 1942.33 4
2 4 -1 79662.9 2796.77 1
2 4 0 265.776 220.58 1
2 4 0 783.192 176.837 3
2 4 2 94.5385 234.733 1
2 4 2 -82.1642 177.259 2
2 4 3 48061.5 2229.94 1
2 4 4 821.873 337.788 1
2 4 4 558.995 126.17 4
2 4 5 16349.7 785.075 4
2 4 5 20174.9 1419.1 1
2 4 6 384.292 296.003 1
2 4 6 596.287 167.372 4
2 4 7 16637.7 1399.08 1
2 4 8 9962.86 1111.91 1
2 4 9 6603.1 929.311 1
2 4 10 8422.16 1094.41 1
2 4 11 2064.71 592.65 1
2 5 -13 4339.49 840.939 4
2 5 -12 11131.2 1304.4 4
2 5 -11 9630.25 1158.92 4
2 5 -10 16123.5 724.39 2
2 5 -10 17547.1 1440.25 4
2 5 -9 664.538 376.901 4
2 5 -9 408.984 136.606 2
2 5 -8 21353.9 1007.36 2
2 5 -8 21560.6 1421.95 4
2 5 -7 1241.49 339.063 1
2 5 -7 1216.58 414.651 4
2 5 -6 25896.1 1375.5 1
2 5 -6 24192.4 1346.47 4
2 5 -5 7439.45 751.588 1
2 5 -5 8086.64 705.48 4
2 5 -4 42331.6 2000.48 1
2 5 -4 43630.5 1633.46 4
2 5 -3 15636.8 1147.81 1
2 5 -3 14972.2 766.889 4
2 5 -2 19551.8 762.588 4
2 5 -2 17680 1283.26 1
2 5 -1 21414 631.862 4
2 5 -1 21935.7 1406.95 1
2 5 0 1424.55 446.127 1
2 5 0 1331.56 250.809 3
2 5 1 37786.1 1994.3 1
2 5 2 3130.88 577.949 1
2 5 3 43486.2 2271.07 1
2 5 4 243.854 288.056 1
2 5 5 29637.8 1915.7 1
2 5 6 2264.54 558.988 1
2 5 7 16837.4 1517.5 1
2 5 8 5222.93 871.995 1
2 5 9 3937.5 762.3 1
2 5 10 4889.91 909.274 1
2 6 -13 8097.47 1149.81 4
2 6 -12 12785.1 1381.72 4
2 6 -11 4254.07 792.927 4
2 6 -10 12728 1232.65 4
2 6 -10 14307.9 802.444 2
2 6 -9 1927.53 492.865 4
2 6 -9 2075.55 329.563 2
2 6 -8 20395.6 1390.65 4
2 6 -8 21891.3 1166.43 2
2 6 -7 959.753 360.799 4
2 6 -7 882.956 310.432 1
2 6 -6 31793.6 1712.83 1
2 6 -6 32992.7 1576.31 4
2 6 -5 2062.51 512.553 1
2 6 -5 1346.42 336.799 4
2 6 -4 21330.2 1447.5 1
2 6 -4 22422.3 1062.12 4
2 6 -3 7267 856.1 1
2 6 -3 5749.13 449.151 4
2 6 -2 17722.9 1370.27 1
2 6 -2 19838.4 737.256 4
2 6 -1 11101.4 1121.98 1
2 6 -1 12182.6 794.028 3
2 6 0 4808.36 752.438 1
2 6 0 4247.17 465.109 3
2 6 1 17813.2 1448.35 1
2 6 2 2815.84 605.053 1
2 6 3 23950.1 1733.23 1
2 6 4 -379.517 349.082 1
2 6 5 25040.7 1870.54 1
2 6 6 11.6257 335.087 1
2 6 7 13876.5 1467.38 1
2 6 8 5293.29 956.516 1
2 7 -13 4557.72 904.307 4
2 7 -12 3309.83 728.13 4
2 7 -11 4327.91 823.902 4
2 7 -10 2912.42 644.357 4
2 7 -10 3541.8 447.471 2
2 7 -9 2458.97 546.83 4
2 7 -9 3094.92 479.294 2
2 7 -8 7616.81 835.211 1
2 7 -8 8108.89 859.082 4
2 7 -8 7704.06 757.51 2
2 7 -7 1860.37 471.335 1
2 7 -7 1117.53 386.794 4
2 7 -6 11708.1 1094.55 1
2 7 -6 12156.5 909.082 4
2 7 -5 3585.73 659.781 1
2 7 -5 3059.62 429.643 4
2 7 -4 29846.3 1872.09 1
2 7 -4 29686.7 1257.93 4
2 7 -3 7304.77 492.456 4
2 7 -3 7989.1 973.912 1
2 7 -2 27167.3 1855.49 1
2 7 -2 28625.7 1415.32 3
2 7 -1 9688.08 1119.06 1
2 7 -1 10073.8 783.766 3
2 7 0 3066.03 653.262 1
2 7 0 1931.19 362.862 3
2 7 1 10429.2 1184.21 1
2 7 2 995.721 519.716 1
2 7 3 13158.6 1389.06 1
2 7 4 658.634 407.244 1
2 7 5 14801.4 1521.58 1
2 7 6 719.391 471.484 1
2 7 7 10106.2 1360.07 1
2 8 -12 1921.66 631.161 4
2 8 -11 2518.27 601.818 4
2 8 -10 6142.95 877.333 4
2 8 -10 5166.65 623.72 2
2 8 -9 2579.66 568.89 4
2 8 -9 2144.67 441.545 2
2 8 -8 10288.6 1080.92 1
2 8 -8 11351.1 1016.96 4
2 8 -7 229.868 329.457 1
2 8 -7 402.589 300.083 4
2 8 -6 19186 1545.11 1
2 8 -6 21939.7 1242.19 4
2 8 -5 32.5892 315.725 1
2 8 -5 479.825 228.209 4
2 8 -4 19285.3 1620.52 1
2 8 -4 24776.5 1099.88 4
2 8 -3 3001.44 675.144 1
2 8 -2 8889.75 1125.24 1
2 8 -1 6683.74 995.71 1
2 8 0 8403.54 1123.98 1
2 8 1 9422.6 1246.51 1
2 8 2 5551.3 914.567 1
2 8 3 13498.5 1504.74 1
2 8 4 245.231 296.728 1
2 8 5 15689.6 1690.96 1
2 9 -12 1536.04 545.711 4
2 9 -11 4377.44 802.348 4
2 9 -10 4641.08 770.803 4
2 9 -9 4790.78 744.282 4
2 9 -9 5321.58 739.076 2
2 9 -8 12841.8 1295.56 1
2 9 -8 13471.8 1122.01 4
2 9 -7 2347.44 607.379 1
2 9 -7 1519.92 387.21 4
2 9 -6 13940.3 1401.97 1
2 9 -6 13457.8 962.503 4
2 9 -5 429.574 346.451 1
2 9 -4 5472.86 955.916 1
2 9 -3 928.173 497.564 1
2 9 -2 16570.9 1637.21 1
2 9 -1 2516.99 678.636 1
2 9 0 12893 1492.53 1
2 9 1 6180.62 1071.31 1
2 9 2 10453.3 1367.62 1
2 9 3 7739.7 1199.96 1
2 10 -12 -163.495 326.719 4
2 10 -11 4626.57 811.051 4
2 10 -10 4033.61 721.708 4
2 10 -9 5181.4 790.132 2
2 10 -9 5327.06 757.013 4
2 10 -8 7387.42 821.521 4
2 10 -8 7720.1 1059.84 1
2 10 -7 -368.357 393.681 1
2 10 -6 7708.74 1147.86 1
2 10 -5 57.1608 349.794 1
2 10 -4 12915.6 1505.01 1
2 10 -3 232.171 343.322 1
2 10 -2 10526.9 1386.31 1
2 10 -1 2087.2 651.503 1
2 10 0 8181.82 1247.97 1
2 10 1 4346.33 981.893 1
2 11 -8 2388.33 692.873 1
2 11 -7 2670.95 691.152 1
2 11 -6 9595.93 1312.88 1
2 11 -5 180.393 380.318 1
2 11 -4 6033.45 1114.41 1
2 11 -3 624.139 480.284 1
3 -10 -7 3833.65 714.619 3
3 -10 -2 9243.06 763.684 4
3 -9 -9 8034.55 1055.48 3
3 -9 -8 -184.842 270.503 3
3 -9 -7 12042.4 1222.08 3
3 -9 -6 5641.29 838.47 3
3 -9 -5 15580.7 1047.21 4
3 -9 -5 15106.1 1317.56 3
3 -9 -4 11738.6 883.622 4
3 -9 -4 9682.68 1035 3
3 -9 -3 3384.5 455.931 4
3 -9 0 28451.8 1411.59 4
3 -9 1 -613.494 248.197 4
3 -8 -10 -32.6267 348.018 3
3 -8 -9 21525.7 1720.43 3
3 -8 -8 1260.18 420.726 3
3 -8 -7 16258.5 1178.11 4
3 -8 -7 16631.8 1412.7 3
3 -8 -6 8372.57 788.427 4
3 -8 -6 6180.14 838.153 3
3 -8 -5 17833.6 1145.18 4
3 -8 -5 16495.1 1331.29 3
3 -8 -4 32813.6 1577.2 4
3 -8 -4 31268.7 1836.02 3
3 -8 -3 14931.4 1193.48 3
3 -8 -3 15085 979.602 4
3 -8 1 1861.79 360.953 4
3 -8 2 25398 1355.5 4
3 -7 -11 16907.1 1573.1 3
3 -7 -10 331.772 282.14 3
3 -7 -9 22414.8 1519.27 4
3 -7 -9 18989.5 1612.46 3
3 -7 -8 265.796 233.312 4
3 -7 -8 -401.755 310.107 3
3 -7 -7 33953.5 1788.76 4
3 -7 -7 32333.9 1988.43 3
3 -7 -6 3777.23 539.947 4
3 -7 -6 2928.49 551.988 3
3 -7 -5 33026 1632 4
3 -7 -5 32648.5 1860.4 3
3 -7 -4 3647.4 476.522 4
3 -7 -4 3676.83 586.996 3
3 -7 -3 7793.88 823.1 3
3 -7 -2 17209.3 1193.91 3
3 -7 2 30690.1 1478.23 4
3 -7 3 259.364 213.94 4
3 -6 -11 7875.34 996.089 4
3 -6 -10 1587.31 491.098 4
3 -6 -9 14406.7 1226.75 4
3 -6 -8 14.8939 188.081 4
3 -6 -7 31921.2 1737.22 4
3 -6 -7 34093.7 1965.21 3
3 -6 -6 163.302 187.498 4
3 -6 -6 183.646 256.962 3
3 -6 -5 12551.6 947.307 4
3 -6 -5 11906.2 977.08 1
3 -6 -5 10123.7 972.288 3
3 -6 -4 18508.8 1109.88 4
3 -6 -4 18657.8 1286.59 3
3 -6 -3 11620.5 971.87 1
3 -6 -3 9660.5 877.673 3
3 -6 -2 31202 1688.28 1
3 -6 -2 30684.8 1570.78 3
3 -6 -1 15349.1 1128.1 1
3 -6 -1 15216.2 1034.51 3
3 -6 0 53209.7 2302.26 1
3 -6 1 551.354 260.849 1
3 -6 2 52237.7 2253.48 1
3 -6 2 51032.7 1989.81 4
3 -6 3 1727.7 392.722 1
3 -6 3 1250.71 314.184 4
3 -6 4 37392.3 1892.97 1
3 -6 4 37052.5 1721.16 4
3 -5 -12 4142.45 785.192 4
3 -5 -11 7235.47 956.999 4
3 -5 -10 2288.79 559.266 4
3 -5 -9 12380 1140.45 4
3 -5 -8 286.525 181.64 1
3 -5 -8 686.03 286.596 4
3 -5 -7 23042.1 1430.55 4
3 -5 -7 23691.8 1306.32 1
3 -5 -6 5253.75 644.693 4
3 -5 -6 5836.46 607.831 1
3 -5 -5 29950.1 1504.68 4
3 -5 -5 30474.4 1517.98 1
3 -5 -4 11262.8 883.241 1
3 -5 -4 11487.4 839.857 4
3 -5 -4 11143.9 935.731 3
3 -5 -3 43589.7 1896.4 1
3 -5 -3 41328.5 1882.15 3
3 -5 -2 14328.2 1003.83 1
3 -5 -1 15862.8 1063.48 1
3 -5 0 60106.5 2362.62 1
3 -5 1 2248.18 414.525 1
3 -5 2 63635.4 2444.05 1
3 -5 3 1252.25 318.809 1
3 -5 3 1738.33 352.7 4
3 -5 4 34351.8 1662.26 2
3 -5 4 36258.2 1643.18 4
3 -5 5 7175.36 724.828 2
3 -5 6 25739.3 1454.63 2
3 -4 -13 3510.48 772.23 4
3 -4 -12 5914.79 936.095 4
3 -4 -11 8290.04 1041.9 4
3 -4 -10 1398.87 465.585 4
3 -4 -9 15133 1260.32 4
3 -4 -8 2867.15 393.823 1
3 -4 -8 2598.86 534.449 4
3 -4 -7 52807.5 2273.52 4
3 -4 -7 48118.9 1868.54 1
3 -4 -6 925.468 240.573 1
3 -4 -6 835.861 320.703 4
3 -4 -5 25913.5 1259.09 1
3 -4 -5 25342.5 1359.6 4
3 -4 -4 18820.9 1083.22 4
3 -4 -4 18203.5 1039.73 1
3 -4 -3 28312.8 1358.18 1
3 -4 -2 18300.2 1030.82 1
3 -4 -1 41189.4 1694.2 1
3 -4 0 65265.9 2335.19 1
3 -4 0 68273.4 2246.66 3
3 -4 1 10495.3 762.392 2
3 -4 2 45269.9 1820.67 2
3 -4 3 16444.5 1015.12 2
3 -4 4 34986.9 1624.98 2
3 -4 5 2989.97 487.016 4
3 -4 5 3249.49 462.895 2
3 -4 6 31585.1 1599.51 2
3 -3 -14 7062.49 1066.2 4
3 -3 -13 3472.21 713.898 4
3 -3 -12 6401.18 989.239 4
3 -3 -11 11590.1 1223.96 4
3 -3 -10 6259.32 875.649 4
3 -3 -9 30870.5 1852.83 4
3 -3 -8 3993.59 619.161 4
3 -3 -7 41262 1487.48 1
3 -3 -7 42243 1995.73 4
3 -3 -6 1174.79 214.645 1
3 -3 -6 1671.97 396.127 4
3 -3 -5 45561.9 1928.9 4
3 -3 -5 46553.3 1647.17 1
3 -3 -4 7421.11 661.923 4
3 -3 -4 7460.94 569.241 1
3 -3 -3 129475 3590.17 1
3 -3 -2 7747.6 578.658 1
3 -3 -1 32964.2 1364.13 1
3 -3 -1 36069.7 1423.88 3
3 -3 0 44323.7 1666.23 2
3 -3 0 46910.6 1620.11 3
3 -3 1 31275.2 1342.35 2
3 -3 2 38197.6 1562.13 2
3 -3 3 6401.17 591.06 2
3 -3 4 35482.4 1570.99 2
3 -3 4 35372.5 1564.09 4
3 -3 5 -86.3547 209.771 4
3 -3 5 231.433 140.08 2
3 -3 6 41090 1837.5 2
3 -2 -14 7851.8 1181.57 4
3 -2 -13 1420.87 547.8 4
3 -2 -12 17148.4 1574.48 4
3 -2 -11 12841 1306.71 4
3 -2 -10 18709.8 1478.67 4
3 -2 -9 11750.8 1111.3 4
3 -2 -8 7446.55 841.223 4
3 -2 -7 24150.9 1453.15 4
3 -2 -6 9050.86 477.504 1
3 -2 -6 9783.46 843.437 4
3 -2 -5 80248 2718.29 4
3 -2 -5 74363.2 2113.35 1
3 -2 -4 1540.8 319.841 4
3 -2 -4 2039.62 242.857 1
3 -2 -3 61104.3 1845.96 1
3 -2 -2 4610.38 390.576 2
3 -2 -1 46773.9 1577.5 2
3 -2 0 70257.8 2237.28 2
3 -2 0 77551.2 2189.12 3
3 -2 1 10362.3 681.493 2
3 -2 2 51377 1873.46 2
3 -2 3 21788.4 1081.61 4
3 -2 3 21082.3 1094.39 2
3 -2 4 38109.6 1582.63 4
3 -2 4 36349.7 1588.12 2
3 -2 5 812.715 270.593 4
3 -2 5 974.866 267.962 2
3 -2 6 19424 1205.84 2
3 -2 6 22981.8 1281.97 4
3 -2 12 3937.89 673.925 1
3 -2 13 8366.93 993.382 1
3 -1 -14 9096.43 1254.25 4
3 -1 -13 2157.58 662.843 4
3 -1 -12 10610.6 1239.74 4
3 -1 -11 12886.4 1300.55 4
3 -1 -10 5666.23 839.681 4
3 -1 -9 17496.7 1364.47 4
3 -1 -8 12452.9 1076.38 4
3 -1 -7 23446.3 1429.19 4
3 -1 -6 1168.73 323.529 4
3 -1 -5 26624.7 1353.23 4
3 -1 -5 24583.3 737.706 1
3 -1 -4 50.8468 69.2861 1
3 -1 -4 -2.08909 178.33 4
3 -1 -3 80212.6 2592.38 4
3 -1 -3 83879.7 2241.62 2
3 -1 -2 9652.1 527.381 2
3 -1 -1 44439.6 1470.12 2
3 -1 0 30412.2 1189.81 2
3 -1 0 30395.1 1033.04 3
3 -1 1 42555.3 1559.82 2
3 -1 2 23699.6 1127.15 2
3 -1 3 2818.12 384.705 2
3 -1 3 3116.68 396.889 4
3 -1 4 35635.1 1580.57 2
3 -1 4 37563.9 1530.28 4
3 -1 5 112.34 192.854 4
3 -1 5 124.432 163.684 2
3 -1 6 34171.2 1676.66 2
3 -1 6 35986.4 1660.73 4
3 -1 11 3945.62 649.453 1
3 -1 12 4333.72 736.378 1
3 0 -14 9781.24 1292.3 4
3 0 -13 1151.57 512.381 4
3 0 -12 9867.63 1213.06 4
3 0 -11 18139 1537.12 4
3 0 -10 12564.7 1219.62 4
3 0 -9 18900.9 1413.95 4
3 0 -8 7080.36 822.262 4
3 0 -7 25250.1 1493.44 4
3 0 -6 94.6415 267.889 4
3 0 -5 97838.2 3205.17 4
3 0 -4 286.033 75.6085 1
3 0 -4 283.784 225.03 4
3 0 -4 523.664 105.817 2
3 0 -3 66226.2 2212.63 4
3 0 -3 66559.2 1830.46 2
3 0 -2 25776.7 964.21 2
3 0 -1 102443 2829.86 2
3 0 0 11205.4 665.72 2
3 0 1 15198.6 839.858 2
3 0 2 30308.6 1347.19 2
3 0 2 31347 1214.47 4
3 0 3 21399.8 1123.03 2
3 0 3 19715.1 956.728 4
3 0 4 77342.9 2648.53 2
3 0 4 74625.2 2427.06 4
3 0 5 8468 745.991 2
3 0 5 8690.45 690.121 4
3 0 6 54253.1 2111.46 4
3 0 7 71.7981 193.265 4
3 0 8 26725.9 1610.73 1
3 0 9 7809.53 883.466 1
3 0 10 9772.73 1031.73 1
3 0 11 2966.16 608.161 1
3 0 12 4406.27 761.12 1
3 1 -14 9466.34 1285.32 4
3 1 -13 71.4523 345.426 4
3 1 -12 7481.35 1056.5 4
3 1 -11 6372.74 907.499 4
3 1 -10 7616.17 950.596 4
3 1 -9 11976.1 1134.43 4
3 1 -8 15745.5 1226.12 4
3 1 -7 65450.6 2651.79 4
3 1 -6 8545.07 799.277 4
3 1 -5 99471.9 2372.53 2
3 1 -5 96665.4 2464.16 1
3 1 -4 36.8653 90.2374 1
3 1 -4 213.6 223.274 4
3 1 -4 119.224 76.4912 2
3 1 -3 94571.4 2441.39 2
3 1 -3 87067.4 2759.65 4
3 1 -3 87467.1 2477.56 1
3 1 -2 35257.9 1325.5 1
3 1 -2 38652.4 1313.84 2
3 1 -2 38451.7 1466.59 4
3 1 -1 52342.9 1742.12 2
3 1 -1 53579.3 1806.93 1
3 1 0 17604.2 907.687 2
3 1 1 52460 1894.88 2
3 1 2 35857.2 1552 2
3 1 2 37137 1309.27 4
3 1 3 33080.8 1520.87 2
3 1 3 30744.8 1221.74 4
3 1 4 44855.4 1893.78 2
3 1 4 41781.6 1898.11 1
3 1 4 43144.4 1596.48 4
3 1 5 4775.68 492.46 4
3 1 5 5189.86 632.857 1
3 1 6 35397.4 1834.78 1
3 1 6 33244.5 1526.92 4
3 1 7 447.895 242.403 1
3 1 7 244.305 230.114 4
3 1 8 18707.8 1397.17 1
3 1 9 1161.05 371.137 1
3 1 10 11176.1 1149.65 1
3 1 11 2943.06 628.672 1
3 1 12 6754.94 961.876 1
3 2 -14 7147.65 1128.24 4
3 2 -13 -112.068 367.438 4
3 2 -12 7796.13 1063.54 4
3 2 -11 4585.53 794.66 4
3 2 -10 16792.3 1425.82 4
3 2 -9 13158.6 1185.43 4
3 2 -8 31620.2 1776.3 4
3 2 -7 38082.9 1875.35 4
3 2 -6 1896.46 145.385 2
3 2 -6 1680.86 204.712 1
3 2 -6 2035.73 421.078 4
3 2 -5 53880.2 1500.69 2
3 2 -5 51166.1 2067.94 4
3 2 -5 50839.6 1656.92 1
3 2 -4 -28.1658 97.0392 2
3 2 -4 -128.776 167.75 1
3 2 -4 -12.0778 208.338 4
3 2 -3 38897.4 1375.35 2
3 2 -3 39341.7 1572.27 4
3 2 -3 39925.2 1486.63 1
3 2 -2 37443 1401.6 4
3 2 -2 41245.4 1563.41 1
3 2 -1 122001 3504.91 2
3 2 -1 126160 3625.13 1
3 2 -1 123836 3310.47 4
3 2 0 11661 841.284 1
3 2 0 10393.2 734.824 2
3 2 1 49236.7 1909.38 2
3 2 2 38490.8 1681.7 2
3 2 2 37189.9 1253.95 4
3 2 3 19089.2 1169.06 2
3 2 3 18954 861.283 4
3 2 4 51653.6 2237.13 1
3 2 4 49907.5 1718.3 4
3 2 5 4441.54 677.245 1
3 2 5 3929.99 440.842 4
3 2 6 21193.5 1123.66 4
3 2 6 20380.5 1428.73 1
3 2 7 1537.89 421.029 1
3 2 7 1868.8 362.641 4
3 2 8 14099.2 1269.05 1
3 2 9 653.594 328.07 1
3 2 10 8939.61 1067.24 1
3 2 11 1135.36 414.669 1
3 3 -14 8447.08 1238.19 4
3 3 -13 237.712 340.578 4
3 3 -12 22680.1 1813.78 4
3 3 -11 2612.45 673.635 4
3 3 -10 18006 1479.13 4
3 3 -9 11535.4 1119.09 4
3 3 -8 6202.01 765.74 4
3 3 -7 38684 1130.99 2
3 3 -7 39990.3 1348.64 1
3 3 -7 39142.7 1899.88 4
3 3 -7 37844.1 1159.36 2
3 3 -6 2125.98 234.884 2
3 3 -6 1982.08 312.688 1
3 3 -6 2019.4 464.563 4
3 3 -5 27831.9 1081.98 2
3 3 -5 29071.3 1417.82 4
3 3 -5 28486.8 1278.47 1
3 3 -4 5631.71 468.278 2
3 3 -4 5464.83 548.14 4
3 3 -4 5974.69 578.364 1
3 3 -3 59097.2 2017.43 2
3 3 -3 61718.6 2045.15 4
3 3 -3 63397 2237.97 1
3 3 -2 1153.2 278.383 1
3 3 -2 1084.43 262.308 2
3 3 -2 727.025 197.681 4
3 3 -1 49709.3 1606.5 4
3 3 -1 49040.9 2119.46 1
3 3 0 185.564 97.8015 4
3 3 0 154.47 188.383 1
3 3 0 313.008 207.652 2
3 3 0 101.047 79.7487 3
3 3 1 46839 1932.45 2
3 3 1 45119.3 1310.35 4
3 3 1 42912.1 1962.4 1
3 3 2 31268.7 1580.07 2
3 3 2 31385.2 1029.05 4
3 3 2 32488.7 1680.77 1
3 3 3 24391.4 934.301 4
3 3 3 27067 1568.14 1
3 3 4 15307 1215.28 1
3 3 4 16296.4 780.369 4
3 3 5 4433.28 423.227 4
3 3 5 4559.66 683.634 1
3 3 6 18781.1 1006.27 4
3 3 6 19140.9 1440.69 1
3 3 7 506.525 325.686 1
3 3 8 13959.3 1328.95 1
3 3 9 -341.646 274.51 1
3 3 10 7138.11 999.719 1
3 4 -14 5370.99 1031.43 4
3 4 -13 -210.698 459.251 4
3 4 -12 18676.6 1647.06 4
3 4 -11 1774.97 575.671 4
3 4 -10 4998.97 798.43 4
3 4 -9 6262.63 272.037 2
3 4 -9 5675.43 263.171 2
3 4 -9 6379.33 826.934 4
3 4 -8 16677.9 705.843 2
3 4 -8 18979.6 1351.37 4
3 4 -8 18559.5 752.493 2
3 4 -7 18373.1 998.518 1
3 4 -7 18115.9 1238.35 4
3 4 -6 9977.98 769.954 1
3 4 -6 9817.92 872.621 4
3 4 -5 19017.8 1149.96 1
3 4 -5 19072.4 1110.34 4
3 4 -4 12722.7 811.08 4
3 4 -4 11193.7 883.231 1
3 4 -3 14785.5 815.788 4
3 4 -3 15029.4 1068.62 1
3 4 -3 13780.1 896.883 2
3 4 -2 1190.38 295.946 2
3 4 -2 1116.42 211.85 4
3 4 -2 739.557 321.961 1
3 4 -1 30958.3 1526.57 2
3 4 -1 31329.6 1057.3 4
3 4 -1 31003.8 1668.4 1
3 4 0 1927.89 448.189 1
3 4 0 2080.29 173.056 4
3 4 0 2264.02 414.709 2
3 4 0 2383.3 252.469 3
3 4 1 20572.4 1378.47 1
3 4 2 5173.09 684.165 1
3 4 3 6419.84 782.195 1
3 4 3 5062.29 280.105 4
3 4 4 12075.4 561.271 4
3 4 4 13336.8 1184.78 1
3 4 5 1943.71 692.044 1
3 4 5 2074.69 258.681 4
3 4 6 17339.3 1464.27 1
3 4 7 1637.64 516.879 1
3 4 8 19510.4 1681.45 1
3 4 9 -550.784 363.929 1
3 5 -13 -85.5061 398.455 4
3 5 -12 6735.25 1035.92 4
3 5 -11 -174.024 384.116 4
3 5 -10 8665.69 418.415 2
3 5 -10 7085.91 935.489 4
3 5 -9 1974.32 525.919 4
3 5 -9 1180.03 203.278 2
3 5 -8 13990.1 923.73 1
3 5 -8 11737.2 1059.67 4
3 5 -7 11994.8 907.354 1
3 5 -7 11814.6 999.037 4
3 5 -6 5676.69 661.278 1
3 5 -6 4594.54 603.665 4
3 5 -5 17778.3 1207.94 1
3 5 -5 13976.6 948.199 4
3 5 -4 4713.81 658.29 1
3 5 -4 3989.94 456.405 4
3 5 -3 60616.4 1945 4
3 5 -3 57925.8 2555.05 1
3 5 -2 1124.19 435.035 1
3 5 -2 738.577 192.383 4
3 5 -1 28772.1 854.899 4
3 5 -1 25725.2 1648.31 1
3 5 -1 29354.6 1190.79 3
3 5 0 2048.03 486.679 1
3 5 0 2146.88 276.788 3
3 5 1 10461 1056.33 1
3 5 2 16795.9 1375.55 1
3 5 3 6871.11 897.07 1
3 5 4 8242.37 1026.71 1
3 5 5 5437.25 866.03 1
3 5 6 16460.5 1540.02 1
3 5 7 1679.74 534.636 1
3 5 8 16480.5 1616.3 1
3 6 -13 821.012 539.483 4
3 6 -12 16342.5 1564.31 4
3 6 -11 283.96 431.377 4
3 6 -10 10258.4 636.94 2
3 6 -10 10077.3 1108.78 4
3 6 -9 3676.84 672.013 4
3 6 -9 2801.56 384.021 2
3 6 -8 16132.5 1131.52 1
3 6 -8 15577.4 1223.3 4
3 6 -7 7245.39 794.882 1
3 6 -7 6956.75 761.752 4
3 6 -6 9663.25 960.713 1
3 6 -6 8366.52 766.235 4
3 6 -5 23571.1 1570.1 1
3 6 -5 25660.4 1288.09 4
3 6 -4 8441.43 938.096 1
3 6 -4 8010.92 623.711 4
3 6 -3 32141.8 1206.04 4
3 6 -3 27664.5 1839.5 1
3 6 -2 757.081 373.685 1
3 6 -2 769.926 139.435 4
3 6 -1 20877.3 1558.97 1
3 6 -1 21626.9 1074.44 3
3 6 0 5339.15 818.831 1
3 6 0 4807.92 464.072 3
3 6 1 32691.3 2078.89 1
3 6 2 1774.08 515.811 1
3 6 3 21223 1709.6 1
3 6 4 6770.15 979.96 1
3 6 5 9805.8 1212.49 1
3 6 6 8732.05 1195.4 1
3 6 7 2629.8 685.804 1
3 7 -13 443.318 493.105 4
3 7 -12 15798.6 1527.23 4
3 7 -11 -243.848 407.825 4
3 7 -10 13574.4 1283.83 4
3 7 -9 1429.5 355.084 2
3 7 -9 749.179 364.332 4
3 7 -8 13595.4 1158.43 1
3 7 -8 17201.8 1265.32 4
3 7 -7 4936.35 718.457 1
3 7 -7 4397.71 609.526 4
3 7 -6 5287.16 766.203 1
3 7 -6 5016.79 588.269 4
3 7 -5 6294.6 609.234 4
3 7 -5 6807.03 903.919 1
3 7 -4 4927.05 472.117 4
3 7 -4 4411.4 753.494 1
3 7 -3 31417.5 2018.21 1
3 7 -3 22361.8 919.15 4
3 7 -2 1601.13 555.174 1
3 7 -2 690.408 217.158 3
3 7 -1 29781.4 2020.53 1
3 7 -1 29318.7 1393.76 3
3 7 0 943.242 475.415 1
3 7 1 30223.1 2151.78 1
3 7 2 96.8433 334.367 1
3 7 3 16239.1 1596.99 1
3 7 4 2216.35 675.663 1
3 7 5 11266 1397.09 1
3 8 -12 6263.06 974.659 4
3 8 -11 -70.5503 275.065 4
3 8 -10 10051.1 1099.36 4
3 8 -9 630.341 335.05 1
3 8 -9 1103.98 459.07 4
3 8 -8 13749.6 1247.43 1
3 8 -8 10830.7 1014.49 4
3 8 -7 1854.8 518.45 1
3 8 -7 2396.16 451.007 4
3 8 -6 10007.6 1137.1 1
3 8 -6 10593 843.215 4
3 8 -5 9056.92 692.549 4
3 8 -5 9101.92 1114.25 1
3 8 -4 11488.2 670.945 4
3 8 -4 10495.9 1221.92 1
3 8 -3 16852.3 1624.05 1
3 8 -2 6026.37 979.612 1
3 8 -1 8255.61 1147.92 1
3 8 0 -766.011 442.733 1
3 8 1 15060.2 1598.19 1
3 8 2 326.065 357.734 1
3 8 3 8845.67 1279.91 1
3 9 -12 4023.18 809.986 4
3 9 -11 147.493 304.886 4
3 9 -10 4603.28 765.297 4
3 9 -9 233.645 356.619 1
3 9 -9 158.353 308.635 4
3 9 -8 12212.5 1275.62 1
3 9 -8 11345.7 1010.67 4
3 9 -7 813.297 462.396 1
3 9 -7 1228.49 361.096 4
3 9 -6 15198.7 1500.33 1
3 9 -5 6166.09 1001.89 1
3 9 -4 5336.88 954.976 1
3 9 -3 5213.6 969.439 1
3 9 -2 38.4761 359.139 1
3 9 -1 8537.81 1249.89 1
3 9 0 -195.213 354.752 1
3 9 1 13193.6 1573.73 1
3 10 -11 -510.707 369.721 4
3 10 -9 932.777 429.022 1
3 10 -8 7624.66 1111.61 1
3 10 -7 2242.04 714.252 1
3 10 -6 3292.38 772.942 1
3 10 -5 5411.81 997.504 1
3 10 -4 3694.83 891.084 1
3 10 -3 11439.4 1460.53 1
3 10 -2 2926.59 811.984 1
3 10 -1 8684 1313.57 1
3 11 -8 2530.16 763.416 1
3 11 -7 1249.16 582.736 1
3 11 -6 4041 928.211 1
3 11 -5 2013.47 645.748 1
4 -10 -7 798.124 380.349 3
4 -10 -6 17427.6 1533.81 3
4 -10 -4 15125.8 1118.61 4
4 -10 -3 921.525 291.237 4
4 -9 -8 6262.65 947.513 3
4 -9 -7 815.419 395.89 3
4 -9 -6 18705.8 1287.11 4
4 -9 -6 15460.4 1409.08 3
4 -9 -5 -338.094 200.489 4
4 -9 -5 221.847 231.124 3
4 -9 -4 18987.8 1246.11 4
4 -9 -4 15667.4 1356.98 3
4 -8 -9 5165.16 858.7 3
4 -8 -8 3860.22 642.969 4
4 -8 -8 3398.74 720.74 3
4 -8 -7 2642.62 513.126 4
4 -8 -7 3181.17 664.863 3
4 -8 -6 15804.8 1199.22 4
4 -8 -6 16633.6 1412.19 3
4 -8 -5 3053.51 502.469 4
4 -8 -5 4241.18 700.799 3
4 -8 -4 27837.3 1534.36 4
4 -8 -4 27631.5 1756.42 3
4 -8 -3 1436.83 427.164 3
4 -8 -2 44917.8 2213.59 3
4 -7 -10 2818.37 581.293 4
4 -7 -10 2136.56 618.35 3
4 -7 -9 5293.26 776.907 4
4 -7 -9 5802.83 903.403 3
4 -7 -8 4637.26 702.642 4
4 -7 -8 5124.43 814.321 3
4 -7 -7 11488.5 1046.63 4
4 -7 -7 9839.7 1106.51 3
4 -7 -6 23173.9 1446.66 4
4 -7 -6 21499 1583.51 3
4 -7 -5 370.534 254.52 4
4 -7 -5 398.252 279.327 3
4 -7 -4 38509.6 1832.51 4
4 -7 -4 37832.6 2024.66 3
4 -7 -3 601.114 344.236 3
4 -7 -2 44193.8 2088.4 3
4 -6 -12 -97.5094 244.593 4
4 -6 -11 12437.9 1278.74 4
4 -6 -10 4120.03 723.348 4
4 -6 -9 10491.1 1101.39 4
4 -6 -8 11607.9 1084.93 4
4 -6 -7 8756.89 905.231 4
4 -6 -7 9794.31 849.35 1
4 -6 -6 21612.7 1404.46 4
4 -6 -6 23148.5 1372.32 1
4 -6 -6 23454.1 1591.32 3
4 -6 -5 1400.17 351.32 1
4 -6 -5 790.222 287.185 4
4 -6 -5 1507.26 439.871 3
4 -6 -4 26365.1 1493.98 1
4 -6 -4 24571.6 1408.88 4
4 -6 -4 26186.8 1579.61 3
4 -6 -3 1482.64 382.897 1
4 -6 -3 1240.48 381.221 3
4 -6 -2 39454.7 1927.39 1
4 -6 -2 40836 1926.95 3
4 -6 -1 4626.33 611.07 1
4 -6 -1 4067.29 558.868 3
4 -6 0 44876.4 2069.79 1
4 -6 1 296.777 282.593 1
4 -5 -13 7720.5 1071.5 4
4 -5 -12 -545.88 384.915 4
4 -5 -11 22530.9 1751.08 4
4 -5 -10 2145.82 528.365 4
4 -5 -9 15783.8 1330.25 4
4 -5 -8 7031.98 850.121 4
4 -5 -8 8878.1 726.311 1
4 -5 -7 37158.6 1936.58 4
4 -5 -7 34434.6 1581.62 1
4 -5 -6 15929.3 1169.72 4
4 -5 -6 15222.3 1012.52 1
4 -5 -5 1493.37 328.735 1
4 -5 -5 2702.46 501.462 4
4 -5 -4 31276.6 1547.42 1
4 -5 -4 30284.8 1555.02 4
4 -5 -4 30266.7 1657.94 3
4 -5 -3 1568.32 361.873 1
4 -5 -3 1506.62 424.032 3
4 -5 -2 65081.8 2450.21 1
4 -5 -2 63175.7 2457.64 3
4 -5 -1 3077.24 476.557 1
4 -5 -1 2707.61 459.184 3
4 -5 0 56887.4 2274.11 1
4 -5 1 355.806 221.798 1
4 -5 2 56358.4 2279.88 2
4 -5 3 7823.39 773.724 2
4 -5 3 7754.31 739.683 4
4 -4 -13 10005.2 1263.92 4
4 -4 -12 159.051 295.17 4
4 -4 -11 16940.4 1503.31 4
4 -4 -10 31.1611 266.01 4
4 -4 -9 17635 1405.51 4
4 -4 -8 5169.23 479.608 1
4 -4 -8 4890.65 727.783 4
4 -4 -7 36891.6 1912.68 4
4 -4 -7 33676.8 1415.96 1
4 -4 -6 13751.8 1069.96 4
4 -4 -6 12887.9 824.455 1
4 -4 -5 12610.4 977.827 4
4 -4 -5 12593.2 845.896 1
4 -4 -4 34175.1 1646.09 4
4 -4 -4 34569.6 1512.62 1
4 -4 -3 13972.7 896.993 1
4 -4 -2 38309.2 1628.46 1
4 -4 -2 36524.3 1660.65 3
4 -4 -1 5247.44 561.219 1
4 -4 -1 4400.87 517.129 3
4 -4 0 58984 2206.89 2
4 -4 0 58693 2087.96 3
4 -4 1 5419.82 570.098 2
4 -4 2 38170.9 1723.48 2
4 -4 3 10983.9 883.062 2
4 -4 3 11975 891.719 4
4 -4 4 12126.3 916.464 4
4 -4 4 10817.9 895.968 2
4 -3 -13 7958.56 1113.81 4
4 -3 -12 406.94 335.738 4
4 -3 -11 15834.1 1455.37 4
4 -3 -10 2936.77 623.885 4
4 -3 -9 19463 1470.61 4
4 -3 -8 15330.1 719.436 1
4 -3 -8 15657.9 1260.46 4
4 -3 -7 44595.8 2130.1 4
4 -3 -7 43279.4 1471.81 1
4 -3 -6 29658.4 1648.98 4
4 -3 -6 31166.6 1231.11 1
4 -3 -5 12578.1 972.284 4
4 -3 -5 14312 788.997 1
4 -3 -4 29290.6 1234.27 1
4 -3 -4 27188.1 1431.98 4
4 -3 -3 20705.6 1020.36 1
4 -3 -2 56462 1988.65 2
4 -3 -1 104.928 198.283 2
4 -3 -1 -1.86727 187.789 3
4 -3 0 69673 2375.47 2
4 -3 0 68909.9 2222 3
4 -3 1 497.573 204.848 2
4 -3 2 99275.2 3190.08 2
4 -3 3 10967.7 844.741 2
4 -3 3 12098.4 872.629 4
4 -3 4 8896.86 788.368 2
4 -3 4 9756.01 816.847 4
4 -2 -14 3096.95 724.208 4
4 -2 -13 11328.9 1348 4
4 -2 -12 1754.06 570.148 4
4 -2 -11 21987.1 1716.6 4
4 -2 -10 881.471 391.583 4
4 -2 -9 28300.3 1810.57 4
4 -2 -8 14752.8 1222.34 4
4 -2 -7 23898.9 1493 4
4 -2 -7 23517 768.843 1
4 -2 -6 22910.3 1395.3 4
4 -2 -6 21917.8 834.664 1
4 -2 -5 16575.4 750.5 1
4 -2 -5 16447.7 1110.67 4
4 -2 -4 29683.5 1138.51 1
4 -2 -4 29410.2 1471.12 4
4 -2 -3 54621.3 1818.61 2
4 -2 -2 27834.3 1182.16 2
4 -2 -1 3680.1 432.806 2
4 -2 -1 3269.42 429.868 3
4 -2 0 96522.1 2939.34 2
4 -2 0 94492.1 2703.19 3
4 -2 1 434.882 188.347 2
4 -2 2 74538.1 2569.92 2
4 -2 3 8357.58 729.24 2
4 -2 3 9240.87 732.981 4
4 -2 4 41361.8 1777.51 4
4 -2 4 41635.4 1855.64 2
4 -2 5 10323.6 853.912 4
4 -2 12 -416.359 306.501 1
4 -1 -14 2260.44 669.925 4
4 -1 -13 11370 1351.17 4
4 -1 -12 2129.64 604.232 4
4 -1 -11 20209.3 1657.73 4
4 -1 -10 -32.9068 320.911 4
4 -1 -9 15410.4 1302.27 4
4 -1 -8 1413.62 440.105 4
4 -1 -7 20535.9 1375.71 4
4 -1 -6 24672.2 1448.64 4
4 -1 -5 32738.5 1053.77 1
4 -1 -5 30509.8 1596.11 4
4 -1 -4 23211.5 1262.14 4
4 -1 -4 22775.1 927.549 2
4 -1 -3 40473.6 1412.19 2
4 -1 -2 94724.1 2750.66 2
4 -1 -1 3502.1 386.652 2
4 -1 0 45823.1 1719.94 2
4 -1 0 43431.6 1408.53 3
4 -1 1 2896.77 407.005 2
4 -1 2 67492.7 2407.89 2
4 -1 3 2109.37 378.065 2
4 -1 3 2508.71 377.431 4
4 -1 4 33541.9 1660.69 2
4 -1 4 35601.1 1579.18 4
4 -1 5 3239.58 459.186 4
4 -1 10 769.832 348.605 1
4 -1 11 10662.2 1166.98 1
4 -1 12 491.719 311.982 1
4 0 -14 4018.82 873.858 4
4 0 -13 10358.8 1304.64 4
4 0 -12 276.292 360.284 4
4 0 -11 20772.9 1660.08 4
4 0 -10 777.374 428.456 4
4 0 -9 17225.1 1383.25 4
4 0 -8 707.514 382.502 4
4 0 -7 20131.6 1355.62 4
4 0 -6 13330.5 1037.96 4
4 0 -5 30117.2 1001.44 1
4 0 -5 31861.9 1039.39 2
4 0 -4 64974.8 2356.89 4
4 0 -4 60911.4 1836.62 2
4 0 -3 13872.8 903.624 4
4 0 -3 14192.9 721.766 2
4 0 -2 87290.4 2586.76 2
4 0 -1 313.187 157.566 2
4 0 0 55738.2 2007.46 2
4 0 0 56001.3 1558.4 3
4 0 1 153.388 139.013 2
4 0 2 46971.5 1923.18 2
4 0 3 10526.9 841.49 2
4 0 3 11651.7 775.441 4
4 0 4 19972.6 1097.15 4
4 0 5 9575.66 772.749 4
4 0 6 37513.1 1738.89 4
4 0 8 4516.19 715.656 1
4 0 9 13440.3 1256.46 1
4 0 10 2528.37 576.733 1
4 0 11 8527.27 1075.44 1
4 1 -14 5473.43 971.778 4
4 1 -13 8677.7 1184.53 4
4 1 -12 2511.4 703.114 4
4 1 -11 17686.6 1542.09 4
4 1 -10 -231.41 313.147 4
4 1 -9 18104 1421 4
4 1 -8 480.647 366.933 4
4 1 -7 26313.9 1573.31 4
4 1 -6 29347.4 888.455 2
4 1 -6 28674.2 949.953 1
4 1 -6 29420.2 1591.96 4
4 1 -5 27015.4 949.457 2
4 1 -5 25042.8 1405.5 4
4 1 -5 25179.8 982.66 1
4 1 -4 18315 816.222 2
4 1 -4 17633.8 1089.15 4
4 1 -4 17767.1 854.167 1
4 1 -3 31624.6 1298.63 1
4 1 -3 33861.6 1277.71 2
4 1 -3 30877.9 1460.11 4
4 1 -2 58357.8 2022.32 1
4 1 -2 56255.7 1936.04 2
4 1 -1 26085.5 1238.52 2
4 1 -1 27506 1301.54 1
4 1 0 17165 995.462 2
4 1 1 2428.5 393.437 2
4 1 2 40631.8 1806.13 2
4 1 2 41236 1534.48 4
4 1 3 5775.92 516.323 4
4 1 4 56749.3 2412.29 1
4 1 4 51443.3 1927.56 4
4 1 5 5522.42 715.696 1
4 1 5 4955.23 537.556 4
4 1 6 21797.3 1495.24 1
4 1 6 20797.9 1198.17 4
4 1 7 11676.8 1126.42 1
4 1 8 4706.74 752.666 1
4 1 9 8810.97 1072.18 1
4 1 10 2431.42 578.575 1
4 1 11 6984.89 1016.4 1
4 2 -14 4243.44 869.564 4
4 2 -13 6342.6 1031.29 4
4 2 -12 101.428 417.852 4
4 2 -11 23021.3 1773.1 4
4 2 -10 363.932 375.168 4
4 2 -9 36081.9 2047.88 4
4 2 -8 -11.365 313.821 4
4 2 -7 32684 1048.4 1
4 2 -7 30854.8 866.053 2
4 2 -7 32714.4 1766.97 4
4 2 -6 3402.49 276.125 2
4 2 -6 3180.07 338.496 1
4 2 -6 2431.53 472.646 4
4 2 -5 28944.9 1089.47 2
4 2 -5 26378.2 1430.63 4
4 2 -5 28352.5 1206.01 1
4 2 -4 5441.44 450.4 2
4 2 -4 4896.3 567.627 4
4 2 -4 4490.75 461.839 1
4 2 -3 21463.3 1077.73 2
4 2 -3 23159.1 1187.21 4
4 2 -3 25373.3 1217.33 1
4 2 -2 29900.8 1322.64 2
4 2 -2 28129 1301.31 4
4 2 -2 30037.8 1415.82 1
4 2 -1 21014.1 1210.61 1
4 2 -1 19119.2 1076.9 2
4 2 0 19397.3 1221.23 1
4 2 0 22006.8 1211.03 2
4 2 1 6034.65 675.196 1
4 2 1 6531.54 657.453 2
4 2 2 43508.9 2090.91 1
4 2 2 44083.7 1542.21 4
4 2 3 177.854 173.28 4
4 2 3 73.9303 216.628 1
4 2 4 15363.8 1233.23 1
4 2 4 16037.3 890.716 4
4 2 5 4732.93 499.722 4
4 2 5 4521.33 700.689 1
4 2 6 19175.3 1490.9 1
4 2 6 17676.4 1080.36 4
4 2 7 9399.71 1068.15 1
4 2 8 7304.85 979.218 1
4 2 9 6517.17 964.106 1
4 2 10 2054.75 599 1
4 3 -13 6776.26 1091 4
4 3 -12 5011.59 898.843 4
4 3 -11 12567.1 1314.11 4
4 3 -10 3662.11 739.255 4
4 3 -9 20282.1 1503.96 4
4 3 -8 3101.63 178.356 2
4 3 -8 3199.33 173.32 2
4 3 -8 3589.52 628.051 4
4 3 -7 33930 1123.52 2
4 3 -7 33258.4 1333.43 1
4 3 -7 32579.7 1766.1 4
4 3 -6 298.412 170.94 1
4 3 -6 338.683 151.556 2
4 3 -6 205.334 255.052 4
4 3 -5 33907.7 1334.51 2
4 3 -5 36708.3 1681.21 4
4 3 -4 9292.7 667.282 2
4 3 -4 7750.96 697.572 4
4 3 -4 8671.13 729.559 1
4 3 -3 23134.6 1186.12 2
4 3 -3 24056.7 1230.52 4
4 3 -2 60895.3 2218.32 2
4 3 -2 58208.1 2032.32 4
4 3 -2 58709.2 2334.21 1
4 3 -1 17706.4 1091.87 2
4 3 -1 15893.8 859.204 4
4 3 0 16274.6 801.487 4
4 3 0 13916.7 503.731 3
4 3 1 7456.42 480.491 4
4 3 1 7471.87 812.631 1
4 3 2 14060.7 698.752 4
4 3 2 16346.8 1242.42 1
4 3 3 276.783 168.326 4
4 3 3 474.084 273.093 1
4 3 4 14809.9 789.566 4
4 3 4 13310.4 1217.8 1
4 3 5 167.897 260.943 1
4 3 6 12682.7 1261.02 1
4 3 7 4686.78 777.054 1
4 3 8 4624.29 809.957 1
4 3 9 5400.99 886.55 1
4 4 -13 1066.25 467.722 4
4 4 -12 6465.16 1009.12 4
4 4 -11 5335.38 863.119 4
4 4 -10 3337.03 698.844 4
4 4 -9 12224.5 427.936 2
4 4 -9 11294.7 425.782 2
4 4 -9 11556.9 1128.68 4
4 4 -8 3537.95 313.284 2
4 4 -8 3592.49 416.182 1
4 4 -8 3494.79 612.628 4
4 4 -7 26368.7 1113.76 2
4 4 -7 28674.4 1391.82 1
4 4 -7 27927.8 1602.81 4
4 4 -6 248.435 151.91 2
4 4 -6 -77.9465 260.155 4
4 4 -6 96.1015 214.184 1
4 4 -5 29821.9 1330.55 2
4 4 -5 25965.9 1422.87 4
4 4 -5 28140.3 1520.54 1
4 4 -4 7739.02 669.052 2
4 4 -4 7484.3 665.354 4
4 4 -4 8257.19 801.957 1
4 4 -3 10547.7 826.03 2
4 4 -3 11945 782.188 4
4 4 -3 10854.8 957.044 1
4 4 -2 18138.4 1143.77 2
4 4 -2 16805.1 888.177 4
4 4 -2 18587.6 1286.34 1
4 4 -1 7388.78 510.317 4
4 4 -1 7468.51 838.855 1
4 4 0 11966.8 1079.69 1
4 4 0 11443.4 516.232 3
4 4 0 11939.9 596.037 4
4 4 1 2000.83 214.491 4
4 4 1 1790.35 434.863 1
4 4 1 1811.07 195.662 4
4 4 2 35455.6 1157.33 4
4 4 2 38810.1 1140.71 4
4 4 2 41256.7 2189.37 1
4 4 3 2194.11 214.015 4
4 4 3 1989.36 516.784 1
4 4 4 17009.2 1451.02 1
4 4 5 5529.36 843.096 1
4 4 6 8426.89 1092.99 1
4 4 7 3490.41 766.843 1
4 4 8 7760 1118.03 1
4 5 -13 4136.94 887.121 4
4 5 -12 3414.25 764.084 4
4 5 -11 5050.1 872.245 4
4 5 -10 2302.62 586.029 4
4 5 -9 16441.9 979.028 1
4 5 -9 15303.2 1310.29 4
4 5 -9 15660.1 795.436 2
4 5 -8 121.465 216.61 1
4 5 -8 87.2984 105.271 2
4 5 -8 -311.598 329.312 4
4 5 -7 28413.6 1297.09 2
4 5 -7 26116.5 1506.95 1
4 5 -7 29742.2 1656.03 4
4 5 -6 4570.58 523.802 2
4 5 -6 5684.69 672.779 4
4 5 -6 5263.18 682.391 1
4 5 -5 10786.8 836.785 2
4 5 -5 10937.6 848.948 4
4 5 -5 12342.2 1055.47 1
4 5 -4 2273.34 516.58 1
4 5 -4 2273.03 398.569 2
4 5 -4 2480.22 387.857 4
4 5 -3 12393.1 765.062 4
4 5 -3 12857.7 1131.84 1
4 5 -2 9285.16 580.225 4
4 5 -2 10332.8 1052.43 1
4 5 -1 13622.3 597.056 4
4 5 -1 14841.8 1262.57 1
4 5 -1 13807 718.364 3
4 5 0 25688.1 1738.32 1
4 5 1 20739.4 1591.57 1
4 5 2 37572 2250.65 1
4 5 3 172.196 283.467 1
4 5 4 18712.9 1649.86 1
4 5 5 161.775 268.963 1
4 5 6 19073.7 1753.55 1
4 6 -13 2701.04 727.399 4
4 6 -12 6343.21 1007.34 4
4 6 -11 6823.98 978.615 4
4 6 -10 1341.87 421.304 4
4 6 -9 28487.6 1529.82 1
4 6 -9 26444.4 1732.98 4
4 6 -8 -158.872 190.71 1
4 6 -8 -104.786 183.933 2
4 6 -8 -359 367.49 4
4 6 -7 22223.2 1256.08 2
4 6 -7 26682.7 1616.15 1
4 6 -7 23224.9 1448.54 4
4 6 -6 248.699 167.433 2
4 6 -6 -313.24 267.102 4
4 6 -6 344.79 297.186 1
4 6 -5 28111.7 1790.73 1
4 6 -5 28483.5 1407.58 4
4 6 -4 133.453 335.431 1
4 6 -4 142.71 186.474 4
4 6 -3 31525.1 1247.16 4
4 6 -3 34460.5 2053.98 1
4 6 -2 2486.89 588.058 1
4 6 -2 3059.28 262.105 4
4 6 -1 27737.1 1895.03 1
4 6 -1 24868.5 1123.45 3
4 6 0 12437.1 1302.13 1
4 6 1 4317.11 792.731 1
4 6 2 23369.9 1872.65 1
4 6 3 1003.23 464.842 1
4 6 4 17399.2 1676.6 1
4 6 5 1729.54 593.099 1
4 7 -12 5920.55 970.314 4
4 7 -11 5537.79 878.683 4
4 7 -10 2667.21 629.461 4
4 7 -9 9273.23 925.768 1
4 7 -9 6519.04 860.355 4
4 7 -8 3344.52 605.038 1
4 7 -8 3797.45 638.184 4
4 7 -7 13425.5 1232.04 1
4 7 -7 11624.9 1012.33 4
4 7 -6 856.847 327.11 4
4 7 -6 902.855 412.484 1
4 7 -5 23345.4 1745.76 1
4 7 -5 22711.3 1203.43 4
4 7 -4 -150.652 283.809 1
4 7 -4 72.6159 145.097 4
4 7 -3 28540.4 2015.62 1
4 7 -3 27862 1013.74 4
4 7 -2 5504.38 918.612 1
4 7 -1 4810.09 880.181 1
4 7 0 13972 1506.18 1
4 7 1 5307.24 927.204 1
4 7 2 6967.33 1103.71 1
4 7 3 2385.74 676.58 1
4 8 -12 5593.18 927.57 4
4 8 -11 1837.29 576.543 4
4 8 -10 2978.58 642.251 4
4 8 -9 6179.64 858.758 1
4 8 -9 5366.05 777.184 4
4 8 -8 1713.51 528.818 1
4 8 -8 2016.67 478.795 4
4 8 -7 6724.76 737.558 4
4 8 -7 5744.37 885.929 1
4 8 -6 1242.25 473.654 1
4 8 -6 346.68 242.125 4
4 8 -5 16795 1579.59 1
4 8 -4 763.933 377.004 1
4 8 -3 9815.52 1256.97 1
4 8 -2 3507.29 771.67 1
4 8 -1 8891.08 1240.18 1
4 8 0 4350.5 895.536 1
4 8 1 3573.6 841.704 1
4 8 2 5155.52 1040 1
4 9 -12 2785.04 677.374 4
4 9 -11 748.58 438.152 4
4 9 -10 2380.33 576.297 4
4 9 -8 2509.8 622.98 1
4 9 -7 5431.88 905.819 1
4 9 -6 389.39 384.384 1
4 9 -5 8594.95 1236.78 1
4 9 -4 218.439 269.614 1
4 9 -3 10134 1345.87 1
4 9 -2 -1021.02 528.786 1
4 9 -1 3405.14 816.109 1
4 10 -8 812.794 454.765 1
4 10 -7 5605.11 1000.9 1
4 10 -6 936.612 479.787 1
4 10 -5 7344.59 1194.7 1
4 10 -4 -520.083 396.547 1
5 -11 -3 9188.35 925.73 4
5 -10 -6 14082.6 1425.74 3
5 -10 -5 4248.95 641.086 4
5 -10 -5 4879.83 812.387 3
5 -10 -4 8239.93 883.274 4
5 -9 -8 7271.67 1051.61 3
5 -9 -7 1343.88 402.486 4
5 -9 -7 -262.373 267.329 3
5 -9 -6 14007.3 1192.32 4
5 -9 -6 12914.8 1331.98 3
5 -9 -5 2009.88 445.377 4
5 -9 -5 2263.78 597.369 3
5 -9 -4 7826.02 854.321 4
5 -9 -4 9934.28 1104.11 3
5 -9 -3 6256.83 870.941 3
5 -8 -9 -128.782 240.091 4
5 -8 -9 501.373 397.984 3
5 -8 -8 5511.38 796.147 4
5 -8 -8 4874.9 857.376 3
5 -8 -7 911.899 342.919 4
5 -8 -7 1897.89 528.094 3
5 -8 -6 10226.4 1007.72 4
5 -8 -6 10473.2 1162.13 3
5 -8 -5 4438.55 656.761 4
5 -8 -5 4602.36 751.876 3
5 -8 -4 9806.85 1053.57 3
5 -8 -3 16295.6 1315.53 3
5 -8 -2 6249.25 796.745 3
5 -7 -11 2966.92 648.054 4
5 -7 -10 12702.8 1285.02 4
5 -7 -10 14052.5 1458.67 3
5 -7 -9 139.878 269.834 4
5 -7 -9 1303.1 503.17 3
5 -7 -8 15960.2 1351.87 4
5 -7 -8 18415.1 1588.15 3
5 -7 -7 820.67 368.993 4
5 -7 -7 582.396 399.846 3
5 -7 -6 28743 1736.78 4
5 -7 -6 27714.8 1856.05 3
5 -7 -5 9504.04 928.433 4
5 -7 -5 10568.3 1079.02 3
5 -7 -4 23241.2 1577.25 3
5 -7 -3 15932 1259.97 3
5 -7 -2 22059.6 1436.66 3
5 -7 -1 19350.7 1315.39 3
5 -6 -12 8471.95 1115.41 4
5 -6 -11 2006.98 561.542 4
5 -6 -10 17187.1 1489.47 4
5 -6 -9 1627.89 468.274 4
5 -6 -8 34282.4 2010.82 4
5 -6 -7 30.6415 235.461 4
5 -6 -7 22.168 140.369 1
5 -6 -6 38186.3 2012.78 4
5 -6 -6 39285.7 1863.9 1
5 -6 -6 37662.4 2134.91 3
5 -6 -5 1298.45 348.044 1
5 -6 -5 2019.6 460.916 4
5 -6 -5 763.336 349.381 3
5 -6 -4 37932.4 1874.39 1
5 -6 -4 36256.5 1962.4 3
5 -6 -3 9292.07 872.567 1
5 -6 -3 8984.71 902.676 3
5 -6 -2 40941.2 1989.5 1
5 -6 -2 42161.7 2010.59 3
5 -6 -1 29547.1 1592.71 3
5 -5 -13 6467.26 1055.11 4
5 -5 -12 9925.24 1212.1 4
5 -5 -11 5549.93 890.782 4
5 -5 -10 19851.4 1622.4 4
5 -5 -9 174.149 271.679 4
5 -5 -8 28018.1 1815.01 4
5 -5 -8 30398.9 1389.07 1
5 -5 -7 3950.62 650.721 4
5 -5 -7 3599.98 464.976 1
5 -5 -6 33198.3 1830.18 4
5 -5 -6 31672.4 1541.33 1
5 -5 -5 -107.732 244.748 4
5 -5 -5 71.0373 191.926 1
5 -5 -4 53364.5 2165.76 1
5 -5 -4 52418.3 2363.63 3
5 -5 -3 12386.7 944.151 1
5 -5 -3 11561.7 987.775 3
5 -5 -2 31684.3 1595.37 1
5 -5 -2 30956.5 1608.07 3
5 -5 -1 18496.1 1205.72 1
5 -5 -1 18559.1 1159.76 3
5 -5 0 17574.3 1180.32 2
5 -4 -13 13362.6 1468.33 4
5 -4 -12 5736.54 949.53 4
5 -4 -11 3014.89 630.129 4
5 -4 -10 7247.23 966.423 4
5 -4 -9 2107.77 538.014 4
5 -4 -8 18758.3 1454.82 4
5 -4 -8 20779.3 973.912 1
5 -4 -7 2174.69 521.893 4
5 -4 -7 2083.92 316.058 1
5 -4 -6 27687.2 1304.43 1
5 -4 -6 28849 1678.04 4
5 -4 -5 5038.59 655.831 4
5 -4 -5 4222.36 491.879 1
5 -4 -4 24742.3 1260.99 1
5 -4 -3 7695.08 681.911 1
5 -4 -3 8567.2 810.107 3
5 -4 -2 24014.2 1275.51 1
5 -4 -2 20116.1 1233.99 3
5 -4 -1 20036.8 1182.33 2
5 -4 -1 20224.8 1161.16 3
5 -4 0 14346.6 1004.87 2
5 -4 0 13313.3 880.89 3
5 -4 1 30635.8 1566.51 2
5 -3 -13 7472.07 1108.71 4
5 -3 -12 2053.53 593.241 4
5 -3 -11 6552.25 965.806 4
5 -3 -10 6616.93 935.789 4
5 -3 -9 3084.43 607.321 4
5 -3 -8 41745 2222.13 4
5 -3 -8 40942.7 1297.2 1
5 -3 -7 865.926 189.094 1
5 -3 -7 1374.06 406.765 4
5 -3 -6 40102.2 2022.94 4
5 -3 -6 40364.1 1501.92 1
5 -3 -5 10636.7 705.688 1
5 -3 -5 10159.3 914.945 4
5 -3 -4 44667.5 1703.22 1
5 -3 -3 14484.6 907.865 2
5 -3 -2 24706 1244.89 2
5 -3 -2 22904.8 1241.74 3
5 -3 -1 30996.5 1467.56 2
5 -3 -1 30997.9 1408.8 3
5 -3 0 26350.4 1363.46 2
5 -3 0 24890.5 1179 3
5 -3 1 29965 1510.91 2
5 -3 2 17603.4 1150.42 2
5 -2 -13 10271 1303.83 4
5 -2 -12 1940.1 587.71 4
5 -2 -11 13089.9 1354.19 4
5 -2 -10 11420.6 1190.95 4
5 -2 -9 13651.2 1251.21 4
5 -2 -8 32479.2 1929.45 4
5 -2 -7 1929.11 199.545 1
5 -2 -7 2789.12 529.187 4
5 -2 -6 37302.9 1300.81 1
5 -2 -6 38680.1 1971.31 4
5 -2 -5 1633.29 261.026 1
5 -2 -5 1955.75 433.9 4
5 -2 -4 53919 2240.94 4
5 -2 -4 49772.6 1808.07 2
5 -2 -3 833.152 236.684 2
5 -2 -2 32303.5 1427.52 2
5 -2 -1 16556.7 987.196 2
5 -2 -1 15254.5 872.78 3
5 -2 0 31445.2 1503.6 2
5 -2 0 32785.9 1277.62 3
5 -2 1 48268.9 2001.88 2
5 -2 2 10572.3 869.064 2
5 -2 3 32198.6 1576.99 4
5 -1 -13 11739.7 1387.36 4
5 -1 -12 3232.98 717.921 4
5 -1 -11 13240.3 1354 4
5 -1 -10 10874.6 1171.43 4
5 -1 -9 2558.02 579.41 4
5 -1 -8 24064.1 1616.54 4
5 -1 -7 959.107 353.699 4
5 -1 -6 24922.5 917.604 1
5 -1 -6 24531.4 1524.15 4
5 -1 -5 1028.07 338.252 4
5 -1 -5 1722.62 263.627 2
5 -1 -4 38278.6 1819.51 4
5 -1 -4 37288 1429.89 2
5 -1 -3 2849.36 360.537 2
5 -1 -2 51648.6 1910.03 2
5 -1 -1 12894.8 868.634 2
5 -1 -1 12600.5 730.134 3
5 -1 0 39826.8 1683.94 2
5 -1 0 34602.2 1246.62 3
5 -1 1 25090.9 1352.94 2
5 -1 3 19006.4 1130.96 4
5 -1 4 3072.44 476.472 4
5 -1 10 1200.03 465.962 1
5 0 -13 14671.7 1559.17 4
5 0 -12 5555.59 942.37 4
5 0 -11 11721.9 1278.48 4
5 0 -10 13504.8 1310.63 4
5 0 -9 12184 1199.59 4
5 0 -8 15190.8 1274.47 4
5 0 -7 5815.65 772.119 4
5 0 -6 17194 1243.05 4
5 0 -6 16946 740.749 2
5 0 -6 16294.7 705.682 1
5 0 -5 4512.75 403.348 1
5 0 -5 4956.47 411.72 2
5 0 -5 4536.88 616.221 4
5 0 -4 49379.6 2178.96 4
5 0 -4 53360.5 1800.54 2
5 0 -3 148.47 124.213 2
5 0 -2 44322.4 1742.17 2
5 0 -1 4338.6 498.887 2
5 0 0 37932.9 1658.49 2
5 0 0 33986.8 1093.76 3
5 0 1 7768.6 730.407 2
5 0 3 24203.9 1265.86 4
5 0 4 5636.56 603.264 4
5 0 5 7554.71 732.35 4
5 0 7 14573.1 1326.5 1
5 0 8 899.467 377.284 1
5 0 9 13228.3 1364.19 1
5 0 10 592.42 321.987 1
5 1 -13 11045 1358.64 4
5 1 -12 720.493 366.448 4
5 1 -11 19575.3 1666.59 4
5 1 -10 684.398 407.485 4
5 1 -9 18241.7 1472.88 4
5 1 -8 6087.69 831.405 4
5 1 -7 7403.59 848.858 4
5 1 -7 7851.91 426.473 1
5 1 -7 7725.24 394.744 2
5 1 -6 42520.7 2076.34 4
5 1 -6 44538.7 1425.45 2
5 1 -6 40308.7 1451.76 1
5 1 -5 3703.79 375.888 2
5 1 -5 3694.63 544.331 4
5 1 -5 3441.93 386.183 1
5 1 -4 42971.1 1708.77 1
5 1 -4 46816.7 1681.91 2
5 1 -4 46143.5 2022.17 4
5 1 -3 236.631 203.129 1
5 1 -3 240.961 219.457 4
5 1 -3 159.933 141.815 2
5 1 -2 47684.4 1951.85 1
5 1 -2 47112.6 1856.46 2
5 1 -1 927.017 280.853 1
5 1 -1 1383.76 301.616 2
5 1 0 33602.4 1580.93 2
5 1 0 29169.1 826.897 3
5 1 1 9615.98 893.14 1
5 1 2 9361.57 912.28 1
5 1 2 9065.12 703.129 4
5 1 3 4232.61 644.163 1
5 1 3 3598.21 462.646 4
5 1 4 4195.62 658.929 1
5 1 4 5291.95 560.062 4
5 1 5 13570 1240.25 1
5 1 5 15810 1028.23 4
5 1 6 1931.21 507.212 1
5 1 7 13081.9 1291.25 1
5 1 8 22.4784 249.546 1
5 1 9 12901.5 1391.47 1
5 2 -13 7091.05 1131.75 4
5 2 -12 1434.88 545.447 4
5 2 -11 10352 1191.42 4
5 2 -10 3086.57 699.339 4
5 2 -9 19986.4 1551.14 4
5 2 -8 17762.3 646.145 1
5 2 -8 21224.6 1514.51 4
5 2 -7 11352.6 568.64 2
5 2 -7 11347.3 1040.99 4
5 2 -7 11338.8 667.746 1
5 2 -6 15523.2 785.82 2
5 2 -6 16786.7 1217.91 4
5 2 -6 15414.5 893.872 1
5 2 -5 11107.5 702.63 2
5 2 -5 9980.86 921.558 4
5 2 -5 10395.1 757.852 1
5 2 -4 24818.9 1190.06 2
5 2 -4 24949 1394.96 4
5 2 -4 25581 1301.2 1
5 2 -3 -1.2709 232.712 4
5 2 -3 146.046 149.233 2
5 2 -3 97.8782 197.393 1
5 2 -2 42534.3 1812.1 2
5 2 -2 42848 1791.59 4
5 2 -2 44254.9 1956.98 1
5 2 -1 5841.11 624.133 2
5 2 -1 4451.01 599.957 1
5 2 0 13666.6 1102.83 1
5 2 1 9386.29 921.191 1
5 2 2 10043.4 1002.58 1
5 2 2 10830.6 727.493 4
5 2 3 20432.5 1493.57 1
5 2 3 21199.5 1078.16 4
5 2 4 13507.3 1247.69 1
5 2 4 14301.8 889.25 4
5 2 5 14023.2 1314.29 1
5 2 6 4227.87 769.444 1
5 2 7 12462.2 1328.27 1
5 2 8 83.1041 200.749 1
5 3 -13 9826.8 1296.82 4
5 3 -12 2219.08 641.992 4
5 3 -11 16769.8 1554.28 4
5 3 -10 7908.47 1023.74 4
5 3 -9 14717.1 1297.82 4
5 3 -8 7312.94 538.267 1
5 3 -8 6813.76 861.913 4
5 3 -8 7618.81 431.29 2
5 3 -7 7906.26 532.135 2
5 3 -7 7260.41 860.051 4
5 3 -7 7129.47 616.701 1
5 3 -6 17281.2 908.706 2
5 3 -6 16342.9 1230.32 4
5 3 -6 16652.6 1042.24 1
5 3 -5 10815 748.62 2
5 3 -5 10267.4 915.217 4
5 3 -5 10398.7 841.077 1
5 3 -4 31392.9 1463.14 2
5 3 -4 33641.1 1646.55 4
5 3 -4 31883.6 1622.27 1
5 3 -3 232.896 200.319 1
5 3 -3 120.799 185.403 4
5 3 -3 18.861 169.532 2
5 3 -2 34417.4 1547.38 4
5 3 -2 37692.7 1883.14 1
5 3 -1 4.03419 137.846 4
5 3 -1 194.28 248.5 1
5 3 0 28721.2 1305.29 4
5 3 0 32459.4 1825.71 1
5 3 1 8220.8 578.75 4
5 3 1 6901.28 859.734 1
5 3 2 36189.2 1375.49 4
5 3 2 35030.2 2058.1 1
5 3 3 9526 1068.77 1
5 3 4 12578 1279.73 1
5 3 5 20952.4 1709.98 1
5 3 6 3817.68 762.894 1
5 3 7 16888.2 1629.43 1
5 4 -13 12354.9 1460.48 4
5 4 -12 158.489 420.916 4
5 4 -11 7038.82 1023.31 4
5 4 -10 828.868 420.976 4
5 4 -9 10729.9 686.705 1
5 4 -9 9265.61 1058.46 4
5 4 -8 11517.9 671.92 2
5 4 -8 12838.6 878.586 1
5 4 -8 11624.2 1122.44 4
5 4 -7 15862.6 889.283 2
5 4 -7 16808.4 1263.11 4
5 4 -7 16243.2 1090.14 1
5 4 -6 18826.9 1056.43 2
5 4 -6 19942.7 1324.38 4
5 4 -6 21194.4 1315.11 1
5 4 -5 12224.3 861.652 2
5 4 -5 11656.3 944.992 4
5 4 -5 10486.5 957.461 1
5 4 -4 28370.8 1460.13 2
5 4 -4 27385.4 1423.75 4
5 4 -4 26830 1618.66 1
5 4 -3 659.04 225.206 4
5 4 -3 918.383 358.268 1
5 4 -2 31902.8 1400.73 4
5 4 -2 31110.4 1832.97 1
5 4 -1 591.585 360.892 1
5 4 -1 605.136 209.821 4
5 4 -1 386.629 109.343 3
5 4 0 25295 1097.65 4
5 4 0 26643.7 1809.02 1
5 4 1 729.489 359.029 1
5 4 1 665.285 157.968 4
5 4 1 1003.87 180.748 4
5 4 2 17520.9 811.944 4
5 4 2 18390.3 1530.57 1
5 4 3 5764.58 901.729 1
5 4 4 14071.4 1429.16 1
5 4 5 14343 1476.36 1
5 4 6 3977.29 807.938 1
5 5 -13 7311.09 1136.72 4
5 5 -12 -213.819 442.808 4
5 5 -11 4332.98 821.094 4
5 5 -10 517.433 350.126 4
5 5 -9 16847.8 1065.02 1
5 5 -9 18565.3 1464.6 4
5 5 -8 3740.25 557.18 1
5 5 -8 4559.29 720.813 4
5 5 -7 11221.4 813.931 2
5 5 -7 12252.8 1035 1
5 5 -7 10632.5 990.609 4
5 5 -6 17831.8 1116.63 2
5 5 -6 20118.7 1296.76 4
5 5 -6 18886.4 1359.65 1
5 5 -5 3691.22 636.143 1
5 5 -5 5060.2 604.397 4
5 5 -4 25171.8 1327.51 4
5 5 -4 26716.5 1735.78 1
5 5 -3 680.765 418.876 1
5 5 -3 59.6714 161.925 4
5 5 -2 24358 1101.72 4
5 5 -2 20673.9 1587.18 1
5 5 -1 210.775 122.722 4
5 5 -1 457.582 338.127 1
5 5 -1 254.508 106.883 3
5 5 0 17540.5 1523.56 1
5 5 1 1119.08 398.49 1
5 5 2 18690 1643.45 1
5 5 3 2570.18 654.919 1
5 5 4 7900.65 1129.38 1
5 5 5 4394.44 909.261 1
5 6 -12 -890.822 470.737 4
5 6 -11 8440.55 1075.9 4
5 6 -10 -196.174 391.956 4
5 6 -9 11522.2 993.306 1
5 6 -9 11847.2 1175.76 4
5 6 -8 7647.77 853.965 1
5 6 -8 6485.26 827.026 4
5 6 -7 6145.43 760.314 4
5 6 -7 7355.82 875.934 1
5 6 -6 10253.3 1110.28 1
5 6 -6 8983.07 856.965 4
5 6 -5 6446.85 885.725 1
5 6 -5 5709.48 636.977 4
5 6 -4 15245.1 936.982 4
5 6 -4 13499.2 1327.05 1
5 6 -3 2409.54 631.79 1
5 6 -3 2175.36 326.144 4
5 6 -2 13503.8 1360.54 1
5 6 -1 583.494 316.371 1
5 6 0 20048.5 1752.03 1
5 6 1 279.595 298.515 1
5 6 2 8235.47 1181.34 1
5 6 3 3031.83 801.956 1
5 7 -12 1037.44 500.175 4
5 7 -11 5116.86 861.574 4
5 7 -10 447.275 352.863 4
5 7 -9 9442.25 1044.71 4
5 7 -8 1530.63 465.98 1
5 7 -8 1471.77 420.976 4
5 7 -7 5808.54 714.1 4
5 7 -7 5554.97 824.836 1
5 7 -6 1600.65 374.574 4
5 7 -6 2073.83 588.168 1
5 7 -5 4658.06 826.808 1
5 7 -4 4935.4 926.683 1
5 7 -3 3415.1 740.898 1
5 7 -2 6855.12 1043.64 1
5 7 -1 275.62 389.201 1
5 7 0 12000.8 1456.63 1
5 7 1 976.434 517.928 1
5 8 -12 -1163.06 488.663 4
5 8 -11 5317.48 892.181 4
5 8 -10 653.413 397.549 4
5 8 -9 9903.14 1044.35 4
5 8 -8 -258.499 313.622 1
5 8 -7 5797.12 908.923 1
5 8 -6 2015.71 593.21 1
5 8 -5 7215.22 1106.94 1
5 8 -4 6859.66 1089.6 1
5 8 -3 2300.78 654.556 1
5 8 -2 7636.09 1192.65 1
5 8 -1 599.696 414.658 1
5 9 -7 7925.03 1137.61 1
5 9 -6 1072.46 535.776 1
5 9 -5 3453.35 771.995 1
5 9 -4 2903.19 821.023 1
5 9 -3 4025.76 942.497 1
6 -11 -4 485.953 291.658 4
6 -10 -6 1439.14 438.039 4
6 -10 -5 8384.62 969.287 4
6 -10 -5 8045.58 1087.42 3
6 -10 -4 149.723 235.377 4
6 -10 -4 -5.56352 304.143 3
6 -9 -8 2665.56 573.362 4
6 -9 -7 17229.7 1439.89 4
6 -9 -7 16967.1 1595.63 3
6 -9 -6 3450.25 655.786 4
6 -9 -6 3642.39 724.821 3
6 -9 -5 14055.4 1232.91 4
6 -9 -5 14157.8 1384.15 3
6 -9 -4 1445.68 465.443 3
6 -9 -3 18133 1495.09 3
6 -8 -10 8152.54 1061.78 4
6 -8 -9 3974.68 738.758 4
6 -8 -8 8961.22 1063.89 4
6 -8 -8 10460.5 1270.87 3
6 -8 -7 20036.5 1570.24 4
6 -8 -7 21966.5 1779.35 3
6 -8 -6 4826.18 756.66 4
6 -8 -6 5809.98 896.624 3
6 -8 -5 21496.9 1547.76 4
6 -8 -5 19739.3 1600.07 3
6 -8 -4 3670 663.001 3
6 -8 -3 18459.3 1447.9 3
6 -8 -2 1272.91 390.549 3
6 -7 -11 2072.33 583.83 4
6 -7 -10 13101.7 1346 4
6 -7 -9 2667 601.375 4
6 -7 -9 2087.11 581.731 3
6 -7 -8 5899.51 859.778 4
6 -7 -8 6869.05 999.032 3
6 -7 -7 19047.3 1507.73 4
6 -7 -7 18310.3 1579.53 3
6 -7 -6 5235.4 769.721 4
6 -7 -6 5336.96 836.078 3
6 -7 -5 18715.5 1411.62 4
6 -7 -5 16555.8 1432.5 3
6 -7 -4 1258.79 449.952 3
6 -7 -3 37939.4 2086.04 3
6 -7 -2 87.8473 245.921 3
6 -6 -11 1279.36 491.283 4
6 -6 -10 9348.33 1167.37 4
6 -6 -9 5118.17 814.29 4
6 -6 -8 6263.75 876.178 4
6 -6 -7 12510.9 1188.78 4
6 -6 -6 1801.15 394.767 1
6 -6 -6 1288.63 409.875 4
6 -6 -6 1007.19 296.966 3
6 -6 -5 22122.5 1528.88 4
6 -6 -5 21776 1364.92 1
6 -6 -5 20039.9 1508.3 3
6 -6 -4 4586.38 706.035 3
6 -6 -3 33725.4 1876.17 3
6 -6 -2 4743.49 656.948 3
6 -6 -1 45729.8 2114.71 3
6 -5 -12 14225.7 1508.22 4
6 -5 -11 1301.72 517.642 4
6 -5 -10 13812.5 1388.34 4
6 -5 -9 3933.5 701.551 4
6 -5 -8 16007.4 1393.51 4
6 -5 -7 8548.11 982.186 4
6 -5 -7 8332.01 720.2 1
6 -5 -6 15872.1 1303.53 4
6 -5 -6 13336.8 968.414 1
6 -5 -5 11696.5 1078.44 4
6 -5 -5 10058.4 850.921 1
6 -5 -4 16015.6 1109.25 1
6 -5 -4 18390.9 1319.49 3
6 -5 -3 63350 2524.02 1
6 -5 -3 64178.5 2652.87 3
6 -5 -2 444.319 257.124 1
6 -5 -2 18.7833 211.746 3
6 -5 -1 29800.7 1567.84 3
6 -4 -12 17171.1 1646.93 4
6 -4 -11 518.686 408.846 4
6 -4 -10 12221.8 1285.84 4
6 -4 -9 -76.1758 326.024 4
6 -4 -8 31710 2024.72 4
6 -4 -7 100.875 138.689 1
6 -4 -7 -59.1949 243.502 4
6 -4 -6 19271.9 1425.39 4
6 -4 -6 18354.5 1056.9 1
6 -4 -5 24482.6 1283.61 1
6 -4 -5 25305.5 1615.7 4
6 -4 -4 1181.66 306.177 1
6 -4 -3 37744.4 1746.3 1
6 -4 -3 36329.4 1814.17 3
6 -4 -2 128.642 272.199 3
6 -4 -2 65.0896 209.358 2
6 -4 -1 10887.6 855.785 3
6 -4 0 -3.46557 182.524 3
6 -3 -12 8802.98 1179.47 4
6 -3 -11 432.967 368.623 4
6 -3 -10 8267.61 1075.45 4
6 -3 -9 340.946 261.492 4
6 -3 -8 27554 1832.55 4
6 -3 -8 27683.2 1007.66 1
6 -3 -7 14728.3 1285.21 4
6 -3 -7 15433.4 817.854 1
6 -3 -6 4822.3 476.207 1
6 -3 -6 3782.59 639.924 4
6 -3 -5 19942.3 1084.56 1
6 -3 -5 22040.7 1465.35 4
6 -3 -4 8709.61 726.691 2
6 -3 -3 18746.9 1128.52 2
6 -3 -2 507.64 242.204 2
6 -3 -2 772.232 283.401 3
6 -3 -1 42017.6 1877.27 2
6 -3 -1 40050 1702.36 3
6 -3 0 1241.51 284.389 3
6 -2 -12 16138 1602.07 4
6 -2 -11 -416.366 318.328 4
6 -2 -10 20508.5 1671.12 4
6 -2 -9 4557.02 836.396 4
6 -2 -8 26089.1 1788.3 4
6 -2 -7 3916.36 348.106 1
6 -2 -7 4369.5 704.513 4
6 -2 -6 16693.9 860.528 1
6 -2 -6 15451.3 1263.6 4
6 -2 -5 8148.22 887.595 4
6 -2 -5 6342.18 575.691 2
6 -2 -4 17019.2 1006.32 2
6 -2 -3 32748.2 1517.53 2
6 -2 -2 9830.44 802.318 2
6 -2 -2 10256.7 772.901 3
6 -2 -1 54413 2195.11 2
6 -2 -1 53814.3 1949.04 3
6 -2 0 7325.93 556.74 3
6 -1 -13 2963.11 773.081 4
6 -1 -12 12439.4 1418.05 4
6 -1 -11 1282.49 515.084 4
6 -1 -10 14743 1413.43 4
6 -1 -9 348.118 361.657 4
6 -1 -8 29565.3 1915.2 4
6 -1 -7 2650.14 248.675 1
6 -1 -7 1990.62 229.447 1
6 -1 -7 2076.08 533.265 4
6 -1 -6 27908 1713.53 4
6 -1 -6 27609.3 1194.15 2
6 -1 -5 18719.6 1356.37 4
6 -1 -5 20218.4 1036.6 2
6 -1 -4 50487.6 2318.18 4
6 -1 -4 50460.2 1913.7 2
6 -1 -3 20262.7 1134.88 2
6 -1 -2 6584.46 655.09 2
6 -1 -1 27946 1455.85 2
6 -1 -1 27567.2 1187.32 3
6 -1 0 3226.85 323.233 3
6 -1 9 3560.2 702.24 1
6 0 -13 3059.04 790.332 4
6 0 -12 14024.1 1507.33 4
6 0 -11 2691.22 663.359 4
6 0 -10 17002.6 1532.66 4
6 0 -9 990.741 438.412 4
6 0 -8 44253.1 2372.63 4
6 0 -7 2036 244.664 1
6 0 -7 2265.54 522.073 4
6 0 -7 2584.49 294.395 2
6 0 -6 51481.3 2431.53 4
6 0 -6 50813 1763.09 2
6 0 -6 50633.6 1762.31 1
6 0 -5 1215.74 404.312 4
6 0 -5 1102.01 252.991 1
6 0 -5 809.562 220.873 2
6 0 -4 24540.2 1494.89 4
6 0 -4 25183.2 1239.46 2
6 0 -3 10983.5 819.421 2
6 0 -2 1322.9 301.553 2
6 0 -1 14941.8 752.595 3
6 0 6 1330.74 428.332 1
6 0 7 4399.64 775.867 1
6 0 8 3918.49 784.874 1
6 1 -13 4939.66 951.223 4
6 1 -12 8863.24 1206.01 4
6 1 -11 4724.38 825.962 4
6 1 -10 18858.6 1618.14 4
6 1 -9 81.4422 377.241 4
6 1 -8 17299.6 651.7 1
6 1 -8 20011.2 1506.77 4
6 1 -7 1216.64 373.896 4
6 1 -7 856.729 208.417 1
6 1 -7 871.553 190.998 2
6 1 -6 9443.75 965.767 4
6 1 -6 9058.5 637.047 2
6 1 -6 9042.35 669.983 1
6 1 -5 7388 606.725 2
6 1 -5 7459.19 839.83 4
6 1 -5 6585.55 622.485 1
6 1 -4 14741.5 986.715 1
6 1 -4 15445 958.834 2
6 1 -4 14026.2 1126.8 4
6 1 -3 9553.48 844.831 1
6 1 -3 9815.68 785.998 2
6 1 -3 10046.5 894.457 4
6 1 -2 11563.4 965.773 1
6 1 -1 13226.6 1051.45 1
6 1 -1 11200.4 566.836 3
6 1 0 13621.7 1126.51 1
6 1 1 47733.4 2362.82 1
6 1 2 1489.53 433.355 1
6 1 2 1378.4 325.87 4
6 1 3 22076.1 1622.18 1
6 1 3 24674.7 1315.08 4
6 1 4 2278.25 519.484 1
6 1 5 14217.2 1345.56 1
6 1 6 2661.07 604.864 1
6 1 7 5352.88 904.356 1
6 2 -13 5129.5 949.29 4
6 2 -12 8194.85 1177.1 4
6 2 -11 1077.56 496.989 4
6 2 -10 12199.6 1289.95 4
6 2 -9 94.2163 275.056 4
6 2 -8 9859.16 1083.93 4
6 2 -8 8712.18 582.794 1
6 2 -8 10835.7 554.513 2
6 2 -7 14363.1 781.593 2
6 2 -7 12395.7 1171.41 4
6 2 -7 13594.9 861.758 1
6 2 -6 18845.1 998.514 2
6 2 -6 19449.9 1396.19 4
6 2 -6 16992.5 1056.58 1
6 2 -5 3114.74 473.496 1
6 2 -5 3159.05 543.598 4
6 2 -5 3711.71 451.173 2
6 2 -4 24305.2 1291.4 2
6 2 -4 25420.8 1494.02 4
6 2 -4 23129.6 1363.66 1
6 2 -3 14879 1125.54 4
6 2 -3 14819.3 1135.09 1
6 2 -2 32996.8 1675.66 4
6 2 -2 35020.3 1861.88 1
6 2 -1 38248.3 2025.47 1
6 2 0 1881.16 482.807 1
6 2 1 28823.3 1831.89 1
6 2 2 -30.5888 244.527 1
6 2 2 -3.40721 168.194 4
6 2 3 18925.3 1567.6 1
6 2 4 626.215 403.593 1
6 2 5 22090.9 1800.92 1
6 2 6 2460.51 623.136 1
6 3 -12 7719.77 1133.38 4
6 3 -11 1824.67 562.703 4
6 3 -10 14379.5 1416.85 4
6 3 -9 49.3348 305.958 4
6 3 -8 20802.2 1110.4 1
6 3 -8 19077 1501.94 4
6 3 -7 -193.921 184.651 1
6 3 -7 35.1791 312.313 4
6 3 -7 121.854 147.893 2
6 3 -6 20696.2 1129.47 2
6 3 -6 21534.6 1476.66 4
6 3 -6 23527.1 1360.92 1
6 3 -5 1101.83 372.047 4
6 3 -5 804.655 264.379 2
6 3 -5 713.036 309.564 1
6 3 -4 38108.2 1907.48 4
6 3 -4 43850.2 2099.86 1
6 3 -3 38907.1 1850.02 4
6 3 -3 38246.8 2007.8 1
6 3 -2 14978.4 1034 4
6 3 -2 14496.9 1210.1 1
6 3 -1 17254.8 1098.57 4
6 3 -1 18456.8 1420.09 1
6 3 0 4884.92 548.594 4
6 3 0 5081.83 777.446 1
6 3 1 14314.5 1334.72 1
6 3 2 2366.3 611.953 1
6 3 3 10877.5 1228.52 1
6 3 4 812.964 448.073 1
6 3 5 16014.7 1577.78 1
6 4 -12 9257.33 1211.53 4
6 4 -11 920.739 455.901 4
6 4 -10 7915.7 1059.42 4
6 4 -9 8907.06 1061.34 4
6 4 -8 9795.77 827.755 1
6 4 -8 8099.55 956.697 4
6 4 -7 2117.47 443.494 1
6 4 -7 2145.73 519.768 4
6 4 -6 28073.7 1415.78 2
6 4 -6 26398.9 1637.36 4
6 4 -6 27452.2 1651.97 1
6 4 -5 1194.79 368.342 1
6 4 -5 1197.63 357.441 4
6 4 -4 16464.6 1155.36 4
6 4 -4 17724.2 1360.99 1
6 4 -3 6360.47 681.667 4
6 4 -3 6922.14 895.87 1
6 4 -2 10087.5 800.402 4
6 4 -2 9388.04 1041.24 1
6 4 -1 3503.35 674.229 1
6 4 -1 3544.02 456.977 4
6 4 0 5085.05 508.494 4
6 4 0 5681.17 866.542 1
6 4 1 6599.44 961.243 1
6 4 2 1994.56 605.313 1
6 4 3 9859.59 1260.21 1
6 4 4 728.877 367.086 1
6 5 -12 1820.01 588.73 4
6 5 -11 4962.11 921.055 4
6 5 -10 3935.68 773.56 4
6 5 -9 3342.42 658.633 4
6 5 -8 12511.8 1052.32 1
6 5 -8 11386.7 1127.57 4
6 5 -7 -24.0074 223.07 1
6 5 -7 581.509 306.27 4
6 5 -6 10145.2 961.299 4
6 5 -6 8635.48 973.359 1
6 5 -5 -165.39 262.424 1
6 5 -5 113.975 214.991 4
6 5 -4 5820.84 857.006 1
6 5 -4 5288.55 631.128 4
6 5 -3 1979.74 377.139 4
6 5 -3 2218.55 584.279 1
6 5 -2 7872.24 636.688 4
6 5 -2 5860.39 929.982 1
6 5 -1 3347.5 704.528 1
6 5 0 5716.13 954.038 1
6 5 1 11689.5 1345.27 1
6 5 2 3402.99 793.195 1
6 5 3 12809.6 1486.42 1
6 6 -12 373.027 396.091 4
6 6 -11 755.14 410.686 4
6 6 -10 6128.4 927.493 4
6 6 -9 2911.17 632.421 4
6 6 -8 9870.17 1011.23 1
6 6 -8 7692.3 963.666 4
6 6 -7 289.476 285.77 4
6 6 -7 123.858 190.187 1
6 6 -6 6822.76 957.521 1
6 6 -6 9986.42 936.179 4
6 6 -5 714.871 439.772 1
6 6 -5 242.826 211.884 4
6 6 -4 11185.4 1263.22 1
6 6 -3 2334.32 643.485 1
6 6 -2 9178.07 1194.78 1
6 6 -1 2759.36 723.859 1
6 6 0 7638.14 1154.84 1
6 6 1 6011.08 1029.01 1
6 7 -11 5153.02 891.314 4
6 7 -10 2320.85 602.785 4
6 7 -9 2654.81 568.479 4
6 7 -7 -213.522 315.24 1
6 7 -6 11773.3 1321.95 1
6 7 -5 100.484 418.027 1
6 7 -4 10276.5 1352.86 1
6 7 -3 346.273 378.434 1
6 7 -2 8805.17 1264.99 1
6 7 -1 605.751 465.597 1
6 8 -7 1117.72 474.544 1
6 8 -6 9173.75 1254.25 1
6 8 -5 -39.8067 343.783 1
6 8 -4 8360.58 1280.09 1
6 8 -3 82.9085 429.376 1
6 9 -6 5166.8 967.26 1
7 -11 -5 6279.53 899.822 4
7 -11 -4 6649.66 900.846 4
7 -10 -7 13955.9 1377.96 4
7 -10 -6 4119.88 873.53 4
7 -10 -5 7913.52 1020.03 4
7 -10 -4 5619.39 908.793 3
7 -9 -9 9955.69 1191.64 4
7 -9 -8 311.376 242.06 4
7 -9 -7 14081.7 1382.52 4
7 -9 -6 1626.7 526.331 4
7 -9 -6 1244.26 451.462 3
7 -9 -5 19862.2 1602.91 4
7 -9 -5 18887.7 1662.83 3
7 -9 -4 6854.02 957.544 3
7 -9 -3 9247.4 1077.09 3
7 -8 -10 1055.15 390.922 4
7 -8 -9 5622.04 909.437 4
7 -8 -8 -449.975 284.045 4
7 -8 -7 20380.9 1662.76 4
7 -8 -7 21752.7 1815.07 3
7 -8 -6 15.3437 280.421 4
7 -8 -6 371.028 346.476 3
7 -8 -5 16292.6 1418.51 4
7 -8 -5 14714.6 1413.82 3
7 -8 -4 4388.01 782.326 3
7 -8 -3 8640.9 996.661 3
7 -8 -2 7317.52 922.045 3
7 -7 -10 3066.4 682.251 4
7 -7 -9 13514.7 1388.16 4
7 -7 -9 15011.1 1538.55 3
7 -7 -8 102.225 214.475 4
7 -7 -8 -625.229 369.822 3
7 -7 -7 21668.9 1692.53 4
7 -7 -7 20054.8 1710.36 3
7 -7 -6 2490.92 579.576 4
7 -7 -6 1346.42 457.939 3
7 -7 -5 12883 1241.93 4
7 -7 -5 14741.3 1354.57 3
7 -7 -4 1496.87 476.926 3
7 -7 -3 8374.46 954.857 3
7 -7 -2 9470.21 994.822 3
7 -6 -11 10732.3 1315.79 4
7 -6 -10 7376.18 1062.32 4
7 -6 -9 17775.8 1592.76 4
7 -6 -8 585.276 324.939 4
7 -6 -7 18915 1564.55 4
7 -6 -7 20141 1658.33 3
7 -6 -6 312.65 276.582 4
7 -6 -6 489.568 344.89 3
7 -6 -5 15326.4 1345.58 4
7 -6 -5 14045.6 1291.83 3
7 -6 -4 6612.11 860.758 3
7 -6 -3 16806.4 1296.55 3
7 -6 -2 10992.6 1018.78 3
7 -6 -1 21164.9 1384.8 3
7 -5 -11 6769.92 996.353 4
7 -5 -10 2577.5 638.144 4
7 -5 -9 15145.7 1468.85 4
7 -5 -8 207.635 239.916 4
7 -5 -7 21565.6 1666.64 4
7 -5 -6 -47.3374 233.068 4
7 -5 -6 -383.625 213.809 1
7 -5 -5 21592.8 1329.68 1
7 -5 -5 20067.3 1497.06 3
7 -5 -4 319.755 319.31 3
7 -5 -3 50951.9 2370.37 3
7 -5 -2 5938.07 726.035 3
7 -5 -1 11845.8 967.974 3
7 -4 -11 7265.51 1075.48 4
7 -4 -10 3900.25 789.502 4
7 -4 -9 11257.7 1257.65 4
7 -4 -8 2681.49 605.091 4
7 -4 -7 8977.52 1051.88 4
7 -4 -6 5139.07 570.99 1
7 -4 -6 7136.05 899.75 4
7 -4 -5 29881.2 1521.73 1
7 -4 -5 30339.9 1897.77 4
7 -4 -4 574.05 251.532 1
7 -4 -4 286.115 279.074 3
7 -4 -3 18925.1 1296.12 3
7 -4 -2 10823.3 924.638 3
7 -4 -1 19058 1179.67 3
7 -3 -11 4054.58 811.509 4
7 -3 -10 2925.88 666.249 4
7 -3 -9 11153.8 1239.88 4
7 -3 -8 14821.7 1385.54 4
7 -3 -7 28269.6 1261.66 1
7 -3 -7 26294.7 1838.83 4
7 -3 -6 267.577 160.372 1
7 -3 -6 118.977 329.078 4
7 -3 -5 31128.5 1908.28 4
7 -3 -4 3323.01 485.965 2
7 -3 -3 36032.6 1781.49 3
7 -3 -2 2833.6 474.982 3
7 -3 -1 19476.1 1128.95 3
7 -2 -12 8471.9 1219.69 4
7 -2 -11 2679.29 684.822 4
7 -2 -10 13489.9 1404.32 4
7 -2 -9 28581 2018.41 4
7 -2 -8 8144.84 452.051 1
7 -2 -8 9458.57 1118.42 4
7 -2 -7 27101.8 1169.71 1
7 -2 -7 24938.5 1782.14 4
7 -2 -6 2814.22 615.569 4
7 -2 -5 49481.9 2455.13 4
7 -2 -5 47944.5 1969.91 2
7 -2 -4 2899.75 446.02 2
7 -2 -2 6278.63 623.608 3
7 -2 -1 19643.2 1058.05 3
7 -1 -12 11173.4 1380.07 4
7 -1 -11 4038.31 857.067 4
7 -1 -10 6514.69 987.753 4
7 -1 -9 8739.46 1104.85 4
7 -1 -8 5565.96 880.937 4
7 -1 -8 5663.91 358.056 1
7 -1 -7 11451.1 693.946 1
7 -1 -7 11952.6 1219.37 4
7 -1 -6 2690.61 568.888 4
7 -1 -6 3299.22 426.263 2
7 -1 -5 23715.8 1636.42 4
7 -1 -5 24185.5 1277.9 2
7 -1 -4 4.02892 264.46 4
7 -1 -4 430.743 167.624 2
7 -1 -2 864.116 252.512 3
7 -1 -1 27288.8 1182.4 3
7 0 -12 5690.79 964.581 4
7 0 -11 2003.27 669.294 4
7 0 -10 7267.9 1038.96 4
7 0 -9 8237.39 1087.23 4
7 0 -8 5033.19 817.22 4
7 0 -8 5504.38 397.258 1
7 0 -7 16245.4 1400.77 4
7 0 -7 16236.2 900.883 2
7 0 -7 16614.7 897.908 1
7 0 -6 173.047 159.458 1
7 0 -6 772.358 373.181 4
7 0 -6 485.592 204.645 2
7 0 -5 41378.1 1788.8 1
7 0 -5 37019.4 2091.53 4
7 0 -5 38267.4 1704.79 2
7 0 -4 1216.31 394.365 4
7 0 -4 1648.06 372.273 2
7 0 -4 678.908 275.189 1
7 0 -1 22126.2 932.858 3
7 0 5 1529.94 518.505 1
7 0 6 11144.3 1283.61 1
7 1 -12 10370.3 1316.99 4
7 1 -11 -198.705 352.549 4
7 1 -10 16756.8 1597.45 4
7 1 -9 3862.95 749.535 4
7 1 -8 6858.45 522.758 1
7 1 -8 7518.19 972.185 4
7 1 -7 14823.8 1352.4 4
7 1 -7 14355.7 863.518 2
7 1 -7 16198.2 969.972 1
7 1 -6 4960.15 530.086 2
7 1 -6 4786.01 551.795 1
7 1 -6 4801.58 742.505 4
7 1 -5 15832.2 1028.46 2
7 1 -5 14903.7 1252.04 4
7 1 -5 15394.2 1075.97 1
7 1 -4 -3.2292 160.591 1
7 1 -4 -150.799 274.573 4
7 1 -3 20224.2 1351.63 1
7 1 -3 19323.9 1372.62 4
7 1 -2 3960.45 621.481 1
7 1 -1 22767.4 1552.09 1
7 1 -1 22743.8 800.959 3
7 1 0 2094.38 464.753 1
7 1 1 24958.4 1731.64 1
7 1 2 8137.42 1017.45 1
7 1 3 7793.88 1016.27 1
7 1 4 5867.05 942.949 1
7 1 5 3357.59 726.592 1
7 2 -12 10783.8 1373.27 4
7 2 -11 1058.24 496.61 4
7 2 -10 12670.3 1393.93 4
7 2 -9 3912.07 744.331 4
7 2 -8 8868.65 1072.43 4
7 2 -7 4478.21 752.169 4
7 2 -7 5636.64 614.67 1
7 2 -6 2775.18 464.204 1
7 2 -6 2697.63 583.374 4
7 2 -6 2798.17 430.744 2
7 2 -5 13884.4 1249.86 4
7 2 -5 15022.5 1128.78 1
7 2 -4 -71.1397 273.943 4
7 2 -4 52.604 206.268 1
7 2 -3 18065.6 1313.1 4
7 2 -3 18223.1 1364.03 1
7 2 -2 1179.68 406.187 1
7 2 -2 1529.34 409.996 4
7 2 -1 21012.9 1396.82 4
7 2 -1 27232.7 1775.88 1
7 2 0 2678.12 593.144 1
7 2 1 10659.9 1185.43 1
7 2 2 3418.48 730.438 1
7 2 3 3502.9 708.584 1
7 2 4 4203.02 785.008 1
7 3 -12 7097.47 1094.43 4
7 3 -11 1564.23 553.927 4
7 3 -10 14462.1 1475.74 4
7 3 -9 2771.71 663.041 4
7 3 -8 5035.77 825.545 4
7 3 -7 7169.13 763.681 1
7 3 -7 6605.91 897.551 4
7 3 -6 6178.03 830.898 4
7 3 -6 7988.21 839.855 1
7 3 -5 6608.27 856.304 4
7 3 -5 5774.73 788.711 1
7 3 -4 9015.08 916.952 4
7 3 -4 7731.3 911.275 1
7 3 -3 18737.7 1310.48 4
7 3 -3 19757 1499.47 1
7 3 -2 55.4626 194.875 4
7 3 -2 529.54 358.556 1
7 3 -1 13460.1 1029.97 4
7 3 -1 14205.9 1364.14 1
7 3 0 295.134 216.432 4
7 3 0 103.216 234.448 1
7 3 1 10547.7 1235.27 1
7 3 2 2090.54 604.455 1
7 3 3 12060.3 1385.01 1
7 4 -11 -746.644 439.791 4
7 4 -10 8579.06 1127.42 4
7 4 -9 2944.9 668.856 4
7 4 -8 7349.35 973.248 4
7 4 -7 2070.68 489.866 1
7 4 -7 1734.99 500.837 4
7 4 -6 16226.8 1312.3 4
7 4 -6 15047.1 1277.64 1
7 4 -5 11911.2 1090.19 4
7 4 -5 11378.2 1160.79 1
7 4 -4 949.606 339.681 4
7 4 -4 876.872 393.811 1
7 4 -3 13816.6 1069.99 4
7 4 -3 14374.6 1360.26 1
7 4 -2 1541.66 472.862 1
7 4 -2 2505.59 435.387 4
7 4 -1 8511.09 1118.6 1
7 4 0 104.358 288.278 1
7 4 1 16378.7 1617.78 1
7 4 2 758.853 450.258 1
7 5 -11 243.094 464.402 4
7 5 -10 8482.1 1104.58 4
7 5 -9 -47.6455 270.295 4
7 5 -8 10942.4 1167.95 4
7 5 -7 2851.31 589.975 1
7 5 -7 4035.51 681.227 4
7 5 -6 4837.6 795.291 1
7 5 -6 4542.25 679.877 4
7 5 -5 6042.2 909.241 1
7 5 -5 5935.79 741.375 4
7 5 -4 2786.64 639.339 1
7 5 -3 7158.69 1065.19 1
7 5 -2 1262.94 470.939 1
7 5 -1 11576.4 1384.91 1
7 5 0 -843.732 461.433 1
7 5 1 9299.85 1289.17 1
7 6 -11 -216.645 444.75 4
7 6 -10 8780.95 1143.06 4
7 6 -9 1427.09 488.815 4
7 6 -8 3937.55 711.199 4
7 6 -7 1277.11 545.587 1
7 6 -6 10152.4 1213.17 1
7 6 -5 2918.26 706.557 1
7 6 -4 3196.82 758.571 1
7 6 -3 7157.78 1098.34 1
7 6 -2 1301.38 539.283 1
7 6 -1 6319.85 1073.98 1
7 7 -6 6271.5 988.825 1
7 7 -5 4743.49 895.802 1
7 7 -4 3394.45 824.525 1
7 7 -3 6482.43 1113.15 1
8 -11 -4 15558.3 1518.07 4
8 -10 -6 5133.88 873.636 4
8 -10 -5 59.5553 210.846 4
8 -9 -7 4556.13 837.78 4
8 -9 -6 6706.52 1011.74 4
8 -9 -5 4244.77 754.875 4
8 -9 -5 4345.38 792.001 3
8 -9 -4 19054 1644.54 3
8 -8 -8 5159.48 889.212 4
8 -8 -7 15021.2 1496.34 4
8 -8 -6 16775.9 1553.05 4
8 -8 -6 15636.4 1514.81 3
8 -8 -5 4691.57 801.88 4
8 -8 -5 4054.16 790.483 3
8 -8 -4 14276.5 1379.08 3
8 -8 -3 -116.498 220.417 3
8 -7 -9 11921.8 1393.4 4
8 -7 -8 9653.6 1213.52 4
8 -7 -8 9195.92 1227.71 3
8 -7 -7 9072.83 1152.25 4
8 -7 -7 7704.55 1073.53 3
8 -7 -6 9671.38 1167.91 4
8 -7 -6 7916.95 1063.59 3
8 -7 -5 3144.74 664.581 3
8 -7 -4 8002.03 1011.52 3
8 -7 -3 1408.85 445.75 3
8 -7 -2 11127.4 1091.88 3
8 -6 -9 9672.47 1221.07 4
8 -6 -8 6280.5 949.82 4
8 -6 -8 5436.51 908.763 3
8 -6 -7 4966.52 861.894 4
8 -6 -7 5203.83 871.99 3
8 -6 -6 4610.69 771.263 4
8 -6 -6 5116.62 843.09 3
8 -6 -5 5975.66 867.029 3
8 -6 -4 9602.83 1045.98 3
8 -6 -3 2127.67 480.631 3
8 -6 -2 18571.1 1356.03 3
8 -5 -10 -843.297 396.509 4
8 -5 -9 12307.6 1386.96 4
8 -5 -8 4852.96 882.703 4
8 -5 -7 13032.4 1399.58 4
8 -5 -6 12496 1287.51 4
8 -5 -6 11631.1 1201.87 3
8 -5 -5 11349.8 1223.71 4
8 -5 -5 11615.7 1151.37 3
8 -5 -4 25068.5 1668.81 3
8 -5 -3 4323.4 665.962 3
8 -5 -2 30645.7 1721.65 3
8 -5 -1 2660.93 486.579 3
8 -4 -10 405.962 328.565 4
8 -4 -9 27034.1 2056.87 4
8 -4 -8 3655.62 732.014 4
8 -4 -7 18015.2 1593.99 4
8 -4 -6 10155.2 1148.23 4
8 -4 -5 19888.9 1629.57 4
8 -4 -5 17417.1 1377.38 3
8 -4 -4 21183 1479.29 3
8 -4 -3 8638.91 886.007 3
8 -4 -2 10200.5 918.967 3
8 -4 -1 1879.44 390.578 3
8 -3 -10 -512.093 400.699 4
8 -3 -9 14041.5 1458.69 4
8 -3 -8 225.981 320.078 4
8 -3 -7 11542.3 1247.64 4
8 -3 -6 5280.06 858.392 4
8 -3 -5 11085.3 1185.54 4
8 -3 -4 9489.76 922.697 3
8 -3 -3 3715.34 571.24 3
8 -3 -2 13562.2 1005.37 3
8 -3 -1 9116.32 758.843 3
8 -2 -11 7287.36 1123.96 4
8 -2 -10 -910.628 454.129 4
8 -2 -9 18501.4 1692.5 4
8 -2 -8 640.66 358.946 4
8 -2 -7 6942.26 987.333 4
8 -2 -6 1195.78 430.696 4
8 -2 -5 10270.3 1116.3 4
8 -2 -3 8941.56 813.003 3
8 -2 -2 21353.7 1212.98 3
8 -2 -1 1496.48 308.755 3
8 -1 -11 10162.4 1328.5 4
8 -1 -10 -134.606 326.385 4
8 -1 -9 12247.4 1352.6 4
8 -1 -8 -752.447 408.354 4
8 -1 -7 8355.51 675.904 1
8 -1 -7 8864.46 1116.85 4
8 -1 -6 2000.08 359.414 1
8 -1 -6 1031.05 452.889 4
8 -1 -5 15289.2 1405.88 4
8 -1 -4 16260.9 1381.16 4
8 -1 -3 2012.24 388.325 3
8 -1 -2 24617.6 1229.63 3
8 -1 -1 332.175 163.769 3
8 0 -11 3781.86 846.553 4
8 0 -10 -611.363 430.419 4
8 0 -9 12933.3 1411.32 4
8 0 -8 -133.501 461.803 4
8 0 -7 26178.5 1912 4
8 0 -7 25862.6 1326.27 1
8 0 -6 3122.02 484.609 1
8 0 -6 3400.32 709.763 4
8 0 -5 24827.4 1457.58 1
8 0 -5 20154.2 1594.58 4
8 0 -4 8734.31 895.061 1
8 0 -4 10014.6 1090.3 4
8 0 -3 6495.25 854.306 4
8 0 -3 5223.61 724.527 1
8 0 -2 7584.38 897.601 1
8 0 -2 7711.29 588.921 3
8 0 -1 7652.93 932.799 1
8 0 1 2587.94 598.921 1
8 0 2 11668.1 1266.44 1
8 0 3 166.992 287.176 1
8 0 4 10928.8 1301.25 1
8 1 -11 5039.28 949.27 4
8 1 -10 2445.32 666.235 4
8 1 -9 17565.8 1648.65 4
8 1 -8 616.048 412.017 4
8 1 -7 17927.1 1564.23 4
8 1 -7 17469.6 1140.16 1
8 1 -6 340.701 340.476 4
8 1 -6 145.207 167.941 1
8 1 -5 16011.2 1386.09 4
8 1 -5 14847.2 1170.7 1
8 1 -4 396.29 261.119 1
8 1 -4 464.428 296.205 4
8 1 -3 10623.9 1059.81 1
8 1 -3 10230.6 1092.05 4
8 1 -2 1817.41 461.422 4
8 1 -2 1792.57 506.324 1
8 1 -1 5415.5 816.019 1
8 1 0 11319.2 1216.49 1
8 1 1 2304.06 589.863 1
8 1 2 11964.9 1319.42 1
8 1 3 -549.184 383.89 1
8 2 -11 5915.54 997.888 4
8 2 -10 2431.99 688.111 4
8 2 -9 9776.13 1199.54 4
8 2 -8 -389.883 414.761 4
8 2 -7 8504.77 1074.35 4
8 2 -7 10610.1 921.476 1
8 2 -6 134.578 193.067 1
8 2 -6 385.849 278.119 4
8 2 -5 12894.6 1255.05 4
8 2 -5 13297.7 1166.04 1
8 2 -4 892.87 421.748 4
8 2 -4 1510.45 446.727 1
8 2 -3 6150.52 834.037 4
8 2 -3 6284.42 890.672 1
8 2 -2 3107.72 666.568 1
8 2 -2 4108.66 657.446 4
8 2 -1 9058.73 1111.46 1
8 2 -1 9308.42 966.787 4
8 2 0 8584.87 1107.41 1
8 2 1 1614.67 515.38 1
8 2 2 12162.6 1404.76 1
8 3 -11 5500.94 956.228 4
8 3 -10 4279.43 864.736 4
8 3 -9 7132.99 1041.22 4
8 3 -8 -1164.15 476.218 4
8 3 -7 15271 1408.05 4
8 3 -6 694.561 367.255 4
8 3 -6 778.337 324.772 1
8 3 -5 7850.01 963.335 1
8 3 -5 9861.66 1058.55 4
8 3 -4 1757 500.87 1
8 3 -4 2199.29 503.539 4
8 3 -3 11922.5 1111.36 4
8 3 -3 11905.3 1252.54 1
8 3 -2 4206.59 805.974 1
8 3 -2 4704.65 705.193 4
8 3 -1 4784.3 833.447 1
8 3 0 10684.8 1321.73 1
8 3 1 1308.09 492.031 1
8 4 -10 3056.81 717.604 4
8 4 -9 9083.25 1134.15 4
8 4 -8 -49.2859 290.61 4
8 4 -7 6479.35 917.658 4
8 4 -6 516.749 389.088 1
8 4 -6 454.068 332.449 4
8 4 -5 12937.1 1193.04 4
8 4 -5 12478.3 1308.18 1
8 4 -4 1355.52 462.378 1
8 4 -3 10080.6 1229.71 1
8 4 -2 1931.3 588.984 1
8 4 -1 7052.44 1064.87 1
8 4 0 2932.45 753.943 1
8 5 -10 1106.31 441.935 4
8 5 -9 2623.47 671.98 4
8 5 -8 2875.09 654.37 4
8 5 -6 614.319 399.47 1
8 5 -5 8402 1118.9 1
8 5 -4 438.129 394.142 1
8 5 -3 10760.4 1348.99 1
8 5 -2 403.741 389.486 1
8 6 -5 7998.25 1167.43 1
8 6 -4 863.411 469.002 1
9 -8 -5 -300.01 325.751 4
9 -8 -5 458.2 412.859 3
9 -8 -4 13515.5 1373.64 3
9 -8 -3 3730.99 702.211 3
9 -7 -7 -711.841 426.577 3
9 -7 -6 17002.9 1634.5 4
9 -7 -6 18916.1 1660.34 3
9 -7 -5 431.774 329.24 3
9 -7 -4 13252 1310.92 3
9 -7 -3 5827.34 864.525 3
9 -6 -8 22837.3 1896.29 3
9 -6 -7 -77.7614 261.825 4
9 -6 -7 876.135 420.559 3
9 -6 -6 19675.3 1749.77 4
9 -6 -6 18626.6 1609.58 3
9 -6 -5 1365.58 470.319 4
9 -6 -5 1520.66 494.315 3
9 -6 -4 11434.5 1171.33 3
9 -6 -3 3462.97 619.735 3
9 -6 -2 10514.4 1033.4 3
9 -5 -8 12264.4 1430.05 4
9 -5 -7 95.8236 289.769 4
9 -5 -7 948.24 386.131 3
9 -5 -6 16986.9 1585.84 4
9 -5 -6 14255.4 1362.82 3
9 -5 -5 -712.127 427.524 4
9 -5 -5 -168.266 286.492 3
9 -5 -4 18798 1461.29 3
9 -5 -3 4105.34 654.26 3
9 -5 -2 15863.5 1232.06 3
9 -4 -8 9466.92 1257.92 4
9 -4 -7 2203.94 649.958 4
9 -4 -6 9631.88 1200.95 4
9 -4 -6 9368.88 1076.34 3
9 -4 -5 660.898 398.832 4
9 -4 -5 159.565 300.491 3
9 -4 -4 11555.7 1095.93 3
9 -4 -3 -211.188 264.349 3
9 -4 -2 13430.5 1060.67 3
9 -3 -9 6007.14 1019.66 4
9 -3 -8 6627.84 1048.19 4
9 -3 -7 561.448 445.806 4
9 -3 -6 7475.8 1068.04 4
9 -3 -5 421.041 327.128 4
9 -3 -5 -807.911 345.476 3
9 -3 -4 11009.4 1025.01 3
9 -3 -3 1371.1 379.798 3
9 -3 -2 10831.4 891.5 3
9 -2 -9 6345.94 1051.09 4
9 -2 -8 9854.97 1266.75 4
9 -2 -7 3505.98 768.011 4
9 -2 -6 17461.4 1607.43 4
9 -2 -5 513.409 302.858 4
9 -2 -4 15943.2 1505.24 4
9 -2 -4 15041.5 1151.86 3
9 -2 -3 -44.8133 232.225 3
9 -2 -2 15325.9 994.545 3
9 -1 -9 6866.02 1092.86 4
9 -1 -8 5827.71 988.479 4
9 -1 -7 3363.79 774.975 4
9 -1 -6 10321.5 925.935 1
9 -1 -6 10877.7 1257.74 4
9 -1 -5 5297 687.628 1
9 -1 -5 4112.76 790.529 4
9 -1 -4 15205.4 1424.1 4
9 -1 -4 13647.3 1057.95 3
9 -1 -3 -202.079 198.032 3
9 0 -9 7074.91 1070.19 4
9 0 -8 1506.55 582.924 4
9 0 -7 5986.45 984.505 4
9 0 -6 13380.1 1406.11 4
9 0 -6 14036.6 1123.56 1
9 0 -5 1586.24 561.661 4
9 0 -5 1258.08 349.938 1
9 0 -4 16341.5 1349.49 1
9 0 -4 15617.1 1448.84 4
9 0 -3 260.182 250.228 1
9 0 -3 163.286 345.544 4
9 0 -2 15639.7 1420.44 1
9 0 -1 -126.836 298.249 1
9 0 0 11892.4 1280.13 1
9 0 1 27.4086 263.159 1
9 0 2 8055.35 1129.95 1
9 1 -9 9840.31 1275.1 4
9 1 -8 2915.23 741.688 4
9 1 -7 4265.9 803.614 4
9 1 -6 10414 1210.1 4
9 1 -6 10965.5 1042.06 1
9 1 -5 3906.37 765.658 4
9 1 -5 3454.5 626.707 1
9 1 -4 8093.5 1041.56 4
9 1 -4 12087.4 1190.51 1
9 1 -3 293.928 312.049 1
9 1 -3 373.166 283.252 4
9 1 -2 9765.7 1155.99 1
9 1 -2 7643.29 962.428 4
9 1 -1 -145.176 282.997 4
9 1 -1 -540.923 346.4 1
9 1 0 8750.79 1158.81 1
9 1 1 -384.254 330.952 1
9 2 -9 4247.81 875.404 4
9 2 -8 2259.27 643.465 4
9 2 -7 8960.81 1135.52 4
9 2 -6 4669.75 812.798 4
9 2 -5 3366.03 645.161 1
9 2 -5 3475.43 708.16 4
9 2 -4 6621.14 928.458 4
9 2 -4 6629.33 938.657 1
9 2 -3 550.336 365.117 4
9 2 -3 -399.056 346.438 1
9 2 -2 11238.7 1163.79 4
9 2 -2 12154.1 1336.64 1
9 2 -1 1027.75 499.122 1
9 2 0 6026.49 1007.19 1
9 3 -9 6945.01 1063.49 4
9 3 -8 -129.812 308.344 4
9 3 -7 3996.13 805.212 4
9 3 -6 6924.2 978.088 4
9 3 -5 2175.47 537.215 4
9 3 -5 1027.44 420.019 1
9 3 -4 8997.67 1134.5 1
9 3 -3 500.58 375.886 1
9 3 -2 6959.44 1034.42 1
9 4 -9 5617.69 910.188 4
9 4 -8 3775.72 757.299 4
9 4 -5 1446.97 518.037 1
9 4 -4 3680.05 813.377 1
9 4 -3 -877.546 436.319 1
10 -8 -4 340.453 282.582 3
10 -7 -5 7521.1 1027.82 3
10 -7 -4 3703.28 713.402 3
10 -7 -3 12621.8 1248.96 3
10 -6 -6 11122.4 1254.17 3
10 -6 -5 5132.23 827.894 3
10 -6 -4 2138.39 541.483 3
10 -6 -3 5637.8 806.413 3
10 -5 -7 1234.96 498.379 3
10 -5 -6 5743.89 886.145 3
10 -5 -5 6120.46 1062.09 4
10 -5 -5 4186.62 715.866 3
10 -5 -4 1790.1 453.662 3
10 -5 -3 6537.16 828.065 3
10 -4 -7 3223.84 696.438 3
10 -4 -6 13693.9 1524.56 4
10 -4 -6 11145 1203.4 3
10 -4 -5 7743.97 1134.37 4
10 -4 -5 6335.37 858.501 3
10 -4 -4 4707.23 710.411 3
10 -4 -3 7211.58 826.926 3
10 -3 -6 9344.18 1237.57 4
10 -3 -6 8645.42 999.985 3
10 -3 -5 5157.36 922.912 4
10 -3 -5 4761.1 702.477 3
10 -3 -4 10333.6 1261.36 4
10 -3 -4 7577.14 849.846 3
10 -2 -7 534.1 395.95 4
10 -2 -6 11624.1 1387.69 4
10 -2 -6 12411.5 1171.31 3
10 -2 -5 4117.11 837.551 4
10 -2 -5 3017.08 568.565 3
10 -2 -4 8392.83 1154.55 4
10 -1 -7 419.736 378.757 4
10 -1 -6 6884.31 1077.02 4
10 -1 -5 1670.8 635.303 4
10 -1 -4 5995.32 979.565 4
10 -1 -4 6746.58 900.714 1
10 -1 -3 2010.01 519.221 1
10 -1 -3 3077.68 676.655 4
10 -1 -2 4951.52 831.351 1
10 -1 -1 5421.67 872.815 1
10 -1 0 526.932 342.604 1
10 0 -7 -774.497 416.543 4
10 0 -6 13058 1462.59 4
10 0 -5 -455.576 361.614 4
10 0 -4 5424.99 820.553 1
10 0 -4 6237.16 1000.65 4
10 0 -3 4147.44 778.532 4
10 0 -3 2734.74 607.476 1
10 0 -2 6883.36 1019.9 4
10 0 -2 6608.25 975.876 1
10 0 -1 11151.8 1299.82 1
10 1 -7 2403.04 708.171 4
10 1 -6 7276.77 1074.61 4
10 1 -5 1388.14 534.682 4
10 1 -4 9197.64 1175.98 4
10 1 -4 8567.22 1088.84 1
10 1 -3 4420.44 772.395 1
10 1 -3 3581.06 731.425 4
10 1 -2 5789.38 944.281 1
10 1 -2 5109.48 842.037 4
10 2 -7 -612.159 400.247 4
10 2 -6 11310.4 1320.57 4
10 2 -5 1056.91 445.708 4
10 2 -4 5387.9 953.741 1
10 2 -3 1525.69 562.619 1
11 -7 -4 16.6055 129.891 3
11 -6 -5 12132.2 1266.25 3
11 -6 -4 1512.35 443.83 3
11 -5 -6 -2.81726 224.35 3
11 -5 -5 10015.8 1126.37 3
11 -2 -3 9110.76 1125.47 1
11 -1 -3 7244.72 1019.39 1
