#------------------------------------------------------------------------------
#$Date: 2022-02-04 21:23:32 +0200 (Fri, 04 Feb 2022) $
#$Revision: 272624 $
#$URL: file:///home/coder/svn-repositories/cod/cif/7/24/37/7243734.cif $
#------------------------------------------------------------------------------
#
# This file is available in the Crystallography Open Database (COD),
# http://www.crystallography.net/
#
# All data on this site have been placed in the public domain by the
# contributors.
#
data_7243734
loop_
_publ_author_name
'Garc\'ia-Santos, Isabel'
'Casti\~neiras, Alfonso'
'Mahmoudi, Ghodrat'
'Babashkina, Maria G.'
'Zangrando, Ennio'
'Gomila, Rosa M.'
'Frontera, Antonio'
'Safin, Damir A.'
_publ_section_title
;
 Lead(ii) supramolecular structures formed through a cooperative influence
 of the hydrazinecarbothioamide derived and ancillary ligands
;
_journal_issue                   2
_journal_name_full               CrystEngComm
_journal_page_first              368
_journal_page_last               378
_journal_paper_doi               10.1039/D1CE01251G
_journal_volume                  24
_journal_year                    2022
_chemical_formula_moiety         'C14 H16 N10 Pb2 S2, 2(N O3),2(C H4 O)'
_chemical_formula_sum            'C16 H24 N12 O8 Pb2 S2'
_chemical_formula_weight         990.97
_space_group_crystal_system      triclinic
_space_group_IT_number           2
_space_group_name_Hall           '-P 1'
_space_group_name_H-M_alt        'P -1'
_atom_sites_solution_hydrogens   mixed
_audit_creation_method           SHELXL-2018/3
_audit_update_record
;
2021-08-28 deposited with the CCDC.	2021-10-13 downloaded from the CCDC.
;
_cell_angle_alpha                61.1550(10)
_cell_angle_beta                 87.596(2)
_cell_angle_gamma                71.4330(10)
_cell_formula_units_Z            1
_cell_length_a                   7.0314(3)
_cell_length_b                   10.5042(4)
_cell_length_c                   10.5476(4)
_cell_measurement_reflns_used    9426
_cell_measurement_temperature    100(2)
_cell_measurement_theta_max      30.55
_cell_measurement_theta_min      3.08
_cell_volume                     640.99(4)
_computing_cell_refinement       'APEX3 Software (Bruker, 2019)'
_computing_data_collection       'APEX3 Software (Bruker, 2019)'
_computing_data_reduction        'APEX3 Software (Bruker, 2019)'
_computing_structure_refinement  'SHELXL-2018/3 (Sheldrick, 2018)'
_computing_structure_solution    'SHELXS-2013 (Sheldrick, 2013)'
_diffrn_ambient_temperature      100(2)
_diffrn_measured_fraction_theta_full 0.999
_diffrn_measured_fraction_theta_max 0.999
_diffrn_measurement_device_type  'Bruker D8 VENTURE PHOTON III-14'
_diffrn_measurement_method       'omega and phi'
_diffrn_radiation_type           MoK\a
_diffrn_radiation_wavelength     0.71073
_diffrn_reflns_av_R_equivalents  0.0293
_diffrn_reflns_av_unetI/netI     0.0202
_diffrn_reflns_Laue_measured_fraction_full 0.999
_diffrn_reflns_Laue_measured_fraction_max 0.999
_diffrn_reflns_limit_h_max       10
_diffrn_reflns_limit_h_min       -10
_diffrn_reflns_limit_k_max       14
_diffrn_reflns_limit_k_min       -14
_diffrn_reflns_limit_l_max       15
_diffrn_reflns_limit_l_min       -15
_diffrn_reflns_number            23477
_diffrn_reflns_point_group_measured_fraction_full 0.999
_diffrn_reflns_point_group_measured_fraction_max 0.999
_diffrn_reflns_theta_full        25.242
_diffrn_reflns_theta_max         30.502
_diffrn_reflns_theta_min         2.225
_diffrn_source                   'microfocus sealed tube'
_exptl_absorpt_coefficient_mu    13.348
_exptl_absorpt_correction_T_max  1.000
_exptl_absorpt_correction_T_min  0.770
_exptl_absorpt_correction_type   multi-scan
_exptl_absorpt_process_details   SADABS
_exptl_crystal_colour            Yellow
_exptl_crystal_density_diffrn    2.567
_exptl_crystal_description       prism
_exptl_crystal_F_000             464
_exptl_crystal_size_max          0.060
_exptl_crystal_size_mid          0.050
_exptl_crystal_size_min          0.030
_refine_diff_density_max         1.408
_refine_diff_density_min         -1.875
_refine_diff_density_rms         0.125
_refine_ls_extinction_method     none
_refine_ls_goodness_of_fit_ref   1.062
_refine_ls_hydrogen_treatment    mixed
_refine_ls_matrix_type           full
_refine_ls_number_parameters     196
_refine_ls_number_reflns         3898
_refine_ls_number_restraints     2
_refine_ls_restrained_S_all      1.066
_refine_ls_R_factor_all          0.0178
_refine_ls_R_factor_gt           0.0161
_refine_ls_shift/su_max          0.001
_refine_ls_shift/su_mean         0.000
_refine_ls_structure_factor_coef Fsqd
_refine_ls_weighting_details
'w=1/[\s^2^(Fo^2^)+(0.0165P)^2^+0.9826P] where P=(Fo^2^+2Fc^2^)/3'
_refine_ls_weighting_scheme      calc
_refine_ls_wR_factor_gt          0.0375
_refine_ls_wR_factor_ref         0.0381
_reflns_Friedel_coverage         0.000
_reflns_number_gt                3714
_reflns_number_total             3898
_reflns_threshold_expression     'I > 2\s(I)'
_cod_data_source_file            d1ce01251g1.cif
_cod_data_source_block           1
_cod_depositor_comments
'Adding full bibliography for 7243734--7243737.cif.'
_cod_database_code               7243734
_shelx_shelxl_version_number     2018/3
_shelx_space_group_comment
;
The symmetry employed for this shelxl refinement is uniquely defined
by the following loop, which should always be used as a source of
symmetry information in preference to the above space-group names.
They are only intended as comments.
;
_shelx_estimated_absorpt_t_min   0.501
_shelx_estimated_absorpt_t_max   0.690
_shelx_res_file
;
TITL 21gsgm02 = 21GSG001 = DHPbNO3 in P -1, Mo, -173 K, 02/06/2021
    shelx.res
    created by SHELXL-2018/3 at 20:06:24 on 16-Jun-2021
CELL  0.71073   7.0314  10.5042  10.5476   61.155   87.596   71.433
ZERR     1.00   0.0003   0.0004   0.0004    0.001    0.002    0.001
LATT   1
SFAC  C    H    N    O    PB   S
UNIT  16 24 12 8 2 2
omit 1 0 0
MERG   2
OMIT     0   1   0
EQIV $2    2-x,  -y,  1-z
EQIV $1    x,  y-1,  1+z

MPLA  3 O1 O2 O3 N6
MPLA  6 N1 C1 C2 C3 C4 C5 PB
MPLA  4 C5 C6 C7 N2 N3 N4 N5 PB S1
bind Pb O4_$1
bind Pb O1_$1
bind Pb N3_$2

eadp o4 c8 o5 c9
HTAB

dfix 1.45 o4 c8 o5 c9

FMAP   2
PLAN   -5
SIZE     0.030   0.050   0.060
ACTA
BOND   $H
CONF
L.S.  40
TEMP  -173.00

WGHT    0.016500    0.982600
FVAR       0.13331   0.83242
PB    5    0.729631   -0.049709    0.662463    11.00000    0.01461    0.01224 =
         0.01209   -0.00596    0.00412   -0.00748
S1    6    0.691898   -0.128044    0.443257    11.00000    0.01442    0.01384 =
         0.01661   -0.00901    0.00517   -0.00769
N1    3    0.706092    0.204034    0.642435    11.00000    0.01386    0.01391 =
         0.01755   -0.00833    0.00473   -0.00683
N2    3    0.790730    0.136599    0.427864    11.00000    0.01475    0.01519 =
         0.01391   -0.00822    0.00465   -0.00829
N3    3    0.842787    0.110843    0.310404    11.00000    0.02211    0.01904 =
         0.01413   -0.01068    0.00772   -0.01273
N4    3    0.824380   -0.013671    0.187659    11.00000    0.02954    0.02634 =
         0.02060   -0.01623    0.01182   -0.01904
H14A  2    0.805425   -0.089511    0.184438    11.00000   -1.20000
H14B  2    0.877090    0.043667    0.125502    11.00000   -1.20000
N5    3    0.853940    0.365939    0.280008    11.00000    0.02297    0.01439 =
         0.01452   -0.00625    0.00484   -0.01053
H15A  2    0.871809    0.351041    0.206614    11.00000   -1.20000
H15B  2    0.856395    0.447366    0.268239    11.00000   -1.20000
C1    1    0.660394    0.231472    0.753661    11.00000    0.01894    0.01633 =
         0.01886   -0.00955    0.00590   -0.00742
AFIX   3
H1    2    0.620813    0.154852    0.838885    11.00000   -1.20000
AFIX   0
C2    1    0.670306    0.362087    0.750997    11.00000    0.02259    0.01699 =
         0.02063   -0.01173    0.00578   -0.00625
AFIX   3
H2    2    0.630325    0.376588    0.829287    11.00000   -1.20000
AFIX   0
C3    1    0.729898    0.467532    0.629348    11.00000    0.02290    0.01634 =
         0.02613   -0.01321    0.00435   -0.00735
AFIX   3
H3    2    0.734232    0.556830    0.633349    11.00000   -1.20000
AFIX   0
C4    1    0.775375    0.440571    0.513149    11.00000    0.01930    0.01486 =
         0.01877   -0.00730    0.00444   -0.00921
AFIX   3
H4    2    0.811792    0.511747    0.431406    11.00000   -1.20000
AFIX   0
C5    1    0.760897    0.306578    0.523410    11.00000    0.01024    0.01193 =
         0.01532   -0.00669    0.00111   -0.00377
C6    1    0.803358    0.267767    0.404588    11.00000    0.01153    0.01222 =
         0.01423   -0.00608    0.00175   -0.00522
C7    1    0.794250    0.001607    0.307194    11.00000    0.01484    0.01591 =
         0.01389   -0.00765    0.00391   -0.00738
N6    3    0.900415    0.731182    0.054986    11.00000    0.03127    0.01622 =
         0.01567   -0.00845    0.00527   -0.01222
O1    4    0.875584    0.871479   -0.028226    11.00000    0.03465    0.01464 =
         0.01799   -0.00826    0.00955   -0.01310
O2    4    0.829698    0.690935    0.174023    11.00000    0.04373    0.02472 =
         0.01627   -0.00971    0.01240   -0.02245
PART 1
O3    4    1.003863    0.632055    0.020057    21.00000    0.03295    0.01868 =
         0.02603   -0.01539    0.00247   -0.00445
PART 2
O3B   4    0.928416    0.644421    0.002630   -21.00000    0.02740

PART    1
O4    4    0.653640    0.652612   -0.183691    21.00000    0.04984
AFIX 147
H4A   2    0.771990    0.588571   -0.153299    21.00000   -1.50000
AFIX   0
C8    1    0.553409    0.640346   -0.069719    21.00000    0.04984
AFIX 137
H8A   2    0.591996    0.531322    0.005933    21.00000   -1.50000
H8B   2    0.407375    0.681989   -0.101774    21.00000   -1.50000
H8C   2    0.587554    0.698756   -0.029965    21.00000   -1.50000
AFIX   0
PART  -2
O5    4    0.643283    0.454627   -0.000927   -21.00000    0.04984
AFIX   3
H5    2    0.758905    0.427861   -0.024343   -21.00000   -1.50000
AFIX   0
C9    1    0.506272    0.544804   -0.141693   -21.00000    0.04984
AFIX 137
H9A   2    0.455808    0.654492   -0.169763   -21.00000   -1.50000
H9B   2    0.391856    0.507697   -0.130488   -21.00000   -1.50000
H9C   2    0.580866    0.531647   -0.217589   -21.00000   -1.50000
PART    0
AFIX   0
HKLF    4




REM  21gsgm02 = 21GSG001 = DHPbNO3 in P -1, Mo, -173 K, 02/06/2021
REM wR2 = 0.0381, GooF = S = 1.062, Restrained GooF = 1.066 for all data
REM R1 = 0.0161 for 3714 Fo > 4sig(Fo) and 0.0178 for all 3898 data
REM 196 parameters refined using 2 restraints

END

WGHT      0.0168      0.9644

REM Instructions for potential hydrogen bonds
EQIV $4 x, y-1, z
HTAB N4 O1_$4
HTAB N4 O2_$4
EQIV $5 -x+2, -y+1, -z
HTAB N4 O1_$5
HTAB N5 O3_$5
HTAB N5 O3B_$5
HTAB N5 O5
HTAB N5 O2
HTAB C1 O1_$1
EQIV $6 x, y, z+1
HTAB C2 O5_$6
HTAB C4 O2
HTAB O4 O3_$5
EQIV $7 -x+1, -y+1, -z
HTAB C8 N3_$7
HTAB C8 N6
HTAB O5 N6_$5
HTAB C9 N3_$7
HTAB C9 N5_$7

REM Highest difference peak  1.408,  deepest hole -1.875,  1-sigma level  0.125
Q1    1   0.5529  0.5770 -0.0685  11.00000  0.05    0.99
Q2    1   0.5661  0.6870 -0.0601  11.00000  0.05    0.85
Q3    1   0.7807 -0.1211  0.7552  11.00000  0.05    0.72
Q4    1   0.7160  0.0151  0.5627  11.00000  0.05    0.60
Q5    1   0.7968  0.2779  0.4630  11.00000  0.05    0.53
;
_shelx_res_checksum              46527
_shelx_hkl_file
;
  -1   0   0    5.48    0.28
  -1   0   0    4.91    0.28
  -1   0   0    5.02    0.29
   1   0   0    4.95    0.21
   1   0   0    5.39    0.32
   1   0   0    5.29    0.27
   1   0   0    5.29    0.28
   1   0   0    4.68    0.27
   2   0   0  889.71   20.53
  -3   0   0   24.63    1.03
  -3   0   0   22.75    1.17
  -3   0   0   23.06    1.10
  -3   0   0   23.91    1.10
   3   0   0   25.88    1.08
   3   0   0   22.81    1.05
   3   0   0   22.44    1.08
   3   0   0   24.62    1.05
   3   0   0   21.66    1.13
   3   0   0   23.48    1.09
  -4   0   0  141.16    4.14
  -4   0   0  140.49    4.08
  -4   0   0  140.59    4.29
  -4   0   0  139.00    3.91
   4   0   0  133.47    3.99
   4   0   0  133.77    3.91
   4   0   0  136.94    4.07
   4   0   0  134.41    4.07
   4   0   0  135.28    4.24
  -5   0   0   58.63    2.43
  -5   0   0   60.24    2.63
   5   0   0   64.55    2.38
   5   0   0   62.85    2.48
   5   0   0   58.61    2.34
  -6   0   0   24.30    1.67
  -6   0   0   25.08    1.79
   6   0   0   26.96    1.71
   6   0   0   23.76    1.54
  -7   0   0   59.67    2.90
  -7   0   0   55.16    2.94
   7   0   0   55.85    2.64
   7   0   0   55.41    2.74
  -8   0   0    6.24    1.27
  -8   0   0    5.35    1.13
  -8   0   0    4.06    0.99
   8   0   0    5.25    1.15
   8   0   0    6.71    1.14
   8   0   0    6.60    1.27
  -9   0   0   21.10    2.12
  -9   0   0   22.84    2.29
  -9   0   0   25.29    2.06
   9   0   0   18.97    1.80
   9   0   0   26.83    2.40
   9   0   0   22.34    2.17
   9  -1   0   21.56    2.43
   9  -1   0   23.63    2.03
   9  -1   0   27.66    2.41
  -9   1   0   24.64    2.47
  -9   1   0   26.08    2.30
  -9   1   0   21.81    2.05
   8  -1   0   15.35    1.50
   8  -1   0   17.86    1.84
   8  -1   0   17.29    2.02
  -8   1   0   18.54    1.60
  -8   1   0   15.91    1.97
  -8   1   0   19.50    1.91
   7  -1   0   22.01    1.55
   7  -1   0   24.41    1.81
  -7   1   0   28.46    1.80
  -7   1   0   22.31    1.95
  -7   1   0   22.54    1.78
   6  -1   0   89.89    3.24
   6  -1   0   88.86    3.50
  -6   1   0   88.24    3.38
  -6   1   0   86.72    3.51
  -6   1   0   89.18    3.73
   5  -1   0   23.70    1.31
   5  -1   0   23.34    1.45
  -5   1   0   25.31    1.62
  -5   1   0   21.22    1.36
  -5   1   0   23.53    1.74
   4  -1   0  192.58    5.62
   4  -1   0  193.35    5.20
   4  -1   0  194.82    5.44
   4  -1   0  186.59    5.18
  -4   1   0  189.23    5.35
  -4   1   0  194.93    5.66
  -4   1   0  192.38    5.39
  -4   1   0  187.71    5.15
   3  -1   0    6.43    0.51
   3  -1   0    6.02    0.56
   3  -1   0    6.38    0.60
   3  -1   0    6.74    0.66
   3  -1   0    5.93    0.48
  -3   1   0    6.85    0.59
  -3   1   0    6.94    0.65
  -3   1   0    6.42    0.59
  -3   1   0    6.58    0.50
  -3   1   0    6.70    0.59
   2  -1   0  399.09    8.97
   2  -1   0  383.39    8.99
   2  -1   0  386.04    9.29
   2  -1   0  381.29    9.18
  -2   1   0  371.61    8.94
  -2   1   0  379.55    9.29
  -2   1   0  378.97    8.98
  -2   1   0  382.70    9.20
  -2   1   0  382.73    9.14
  -2   1   0  375.21    8.90
  -2   1   0  372.34    9.13
   1  -1   0    3.89    0.21
   1  -1   0    3.55    0.23
   1  -1   0    4.26    0.31
   1  -1   0    3.45    0.29
   1  -1   0    4.26    0.34
  -1   1   0    3.76    0.21
  -1   1   0    3.95    0.29
  -1   1   0    3.20    0.31
  -1   1   0    4.22    0.30
  -1   1   0    3.59    0.30
  -1   1   0    4.15    0.25
  -1   1   0    3.97    0.25
   0  -1   0   -0.01    0.03
   0   1   0    0.02    0.03
   0   1   0    0.03    0.04
  -1  -1   0   22.49    0.72
  -1  -1   0   22.15    0.74
  -1  -1   0   23.16    0.73
  -1  -1   0   22.61    0.74
   1   1   0   24.23    0.70
   1   1   0   22.61    0.72
   1   1   0   23.00    0.79
   1   1   0   23.06    0.77
   1   1   0   23.48    0.76
  -2  -1   0  362.18    8.44
  -2  -1   0  350.40    8.34
  -2  -1   0  350.44    8.42
  -2  -1   0  356.40    8.57
   2   1   0  358.99    8.36
   2   1   0  352.02    8.40
   2   1   0  350.31    8.46
   2   1   0  353.06    8.41
   2   1   0  361.36    8.54
  -3  -1   0   30.29    1.25
  -3  -1   0   31.62    1.18
  -3  -1   0   31.08    1.25
   3   1   0   27.94    1.20
   3   1   0   27.50    1.22
   3   1   0   28.78    0.88
   3   1   0   29.86    1.22
   3   1   0   31.79    1.37
   3   1   0   28.79    1.16
  -4  -1   0   52.76    1.99
  -4  -1   0   51.39    2.01
  -4  -1   0   52.78    1.88
  -4  -1   0   52.08    2.13
   4   1   0   50.15    1.98
   4   1   0   55.34    2.41
   4   1   0   50.34    1.88
   4   1   0   48.94    1.94
   4   1   0   52.56    1.98
   4   1   0   52.89    1.50
  -5  -1   0  112.90    3.91
  -5  -1   0  115.01    3.67
   5   1   0  107.71    3.59
   5   1   0  111.89    3.56
   5   1   0  109.57    3.70
  -6  -1   0    4.51    0.78
  -6  -1   0    3.56    0.75
   6   1   0    4.85    0.72
   6   1   0    7.31    0.99
   6   1   0    6.23    0.92
  -7  -1   0   80.43    3.57
  -7  -1   0   73.38    3.26
   7   1   0   72.64    3.32
   7   1   0   74.82    3.19
  -8  -1   0    0.55    0.73
  -8  -1   0    0.49    0.64
   8   1   0   -0.04    0.55
   8   1   0    0.15    0.54
   8   1   0   -0.34    0.45
  -9  -1   0   33.93    2.36
  -9  -1   0   31.79    2.42
  -9  -1   0   43.34    2.90
   9   1   0   33.60    2.54
   9   1   0   39.61    2.64
   9   1   0   35.94    2.47
   8  -2   0   29.28    2.39
   8  -2   0   37.08    2.25
   8  -2   0   42.97    3.05
  -8   2   0   36.67    2.74
  -8   2   0   39.25    2.73
  -8   2   0   37.25    2.36
   7  -2   0    4.97    0.96
   7  -2   0    6.63    0.95
  -7   2   0    5.59    1.09
  -7   2   0    5.73    1.00
  -7   2   0    5.05    1.22
   6  -2   0  113.22    4.19
   6  -2   0  112.76    4.22
  -6   2   0  113.81    4.02
  -6   2   0  111.12    4.25
  -6   2   0  109.23    4.39
   5  -2   0    0.36    0.30
  -5   2   0    0.18    0.39
  -5   2   0    0.13    0.35
  -5   2   0    0.57    0.37
   4  -2   0  246.02    6.33
   4  -2   0  243.01    6.77
   4  -2   0  245.08    6.78
  -4   2   0  242.15    6.62
  -4   2   0  241.96    6.72
  -4   2   0  250.20    6.87
  -4   2   0  244.05    6.41
   3  -2   0   32.64    1.24
   3  -2   0   34.79    1.54
   3  -2   0   33.30    1.31
   3  -2   0   35.32    1.55
  -3   2   0   35.60    1.48
  -3   2   0   31.82    1.52
  -3   2   0   31.28    1.59
  -3   2   0   33.18    1.48
  -3   2   0   32.47    1.26
  -3   2   0   34.47    1.32
   2  -2   0  262.61    6.55
   2  -2   0  264.17    6.27
   2  -2   0  266.87    6.74
  -2   2   0  263.17    6.26
  -2   2   0  253.53    6.43
  -2   2   0  253.78    6.70
  -2   2   0  252.01    6.29
  -2   2   0  248.61    6.48
   1  -2   0  142.77    3.33
   1  -2   0  139.29    3.84
   1  -2   0  140.76    3.73
   1  -2   0  142.52    3.68
  -1   2   0  138.77    3.64
  -1   2   0  142.58    3.31
  -1   2   0  140.93    3.59
  -1   2   0  147.78    3.45
  -1   2   0  141.04    3.68
  -1   2   0  143.66    3.75
   0  -2   0  163.62    4.03
   0  -2   0  159.41    4.00
   0  -2   0  159.81    3.96
   0  -2   0  163.16    3.96
   0   2   0  157.56    4.02
   0   2   0  158.90    4.04
   0   2   0  160.17    3.63
   0   2   0  156.29    3.95
   0   2   0  162.88    4.05
  -1  -2   0  268.80    6.46
  -1  -2   0  267.78    6.43
  -1  -2   0  274.94    6.49
  -1  -2   0  273.16    6.26
   1   2   0  268.73    6.49
   1   2   0  258.51    6.42
   1   2   0  272.88    6.21
   1   2   0  279.73    6.50
   1   2   0  284.77    6.27
  -2  -2   0  128.49    3.28
  -2  -2   0  132.37    3.38
  -2  -2   0  131.23    3.40
  -2  -2   0  128.96    3.40
  -2  -2   0  131.03    3.55
   2   2   0  130.44    3.38
   2   2   0  124.19    3.33
   2   2   0  131.13    3.50
   2   2   0  133.31    3.30
   2   2   0  128.75    3.44
   2   2   0  128.04    3.53
  -3  -2   0  189.42    4.96
  -3  -2   0  190.23    4.84
  -3  -2   0  197.16    5.19
  -3  -2   0  188.04    4.98
  -3  -2   0  193.33    4.95
   3   2   0  198.81    4.90
   3   2   0  184.25    5.05
   3   2   0  184.10    5.10
   3   2   0  190.94    4.93
   3   2   0  184.15    4.90
  -4  -2   0   23.30    1.19
  -4  -2   0   21.97    1.14
  -4  -2   0   21.71    1.26
  -4  -2   0   21.23    1.19
   4   2   0   20.82    1.16
   4   2   0   20.52    1.06
   4   2   0   21.24    1.11
   4   2   0   22.39    1.27
   4   2   0   21.33    0.75
  -5  -2   0  115.94    3.98
  -5  -2   0  111.86    3.61
   5   2   0  111.96    2.84
   5   2   0  114.88    3.61
   5   2   0  106.71    3.70
  -6  -2   0    0.24    0.30
  -6  -2   0   -0.04    0.25
   6   2   0    0.73    0.33
   6   2   0    0.90    0.43
   6   2   0    0.20    0.32
  -7  -2   0   90.76    3.66
  -7  -2   0   84.81    3.70
   7   2   0   90.50    3.60
   7   2   0   90.59    3.48
   7   2   0   83.09    2.66
  -8  -2   0    2.76    0.89
  -8  -2   0    0.13    0.57
   8   2   0    0.18    0.46
   8   2   0    0.98    0.60
   8   2   0   -0.84    0.42
  -9  -2   0   42.58    2.89
  -9  -2   0   44.58    2.77
   9   2   0   42.32    2.67
   9   2   0   37.39    2.66
   9   2   0   40.69    2.58
   8  -3   0   36.24    2.15
   8  -3   0   41.05    2.81
   8  -3   0   39.63    2.82
  -8   3   0   38.59    2.98
  -8   3   0   40.45    2.47
  -8   3   0   36.79    2.80
   7  -3   0   -0.72    0.67
   7  -3   0    0.93    0.54
  -7   3   0   -0.51    0.53
  -7   3   0   -0.51    0.59
  -7   3   0    0.76    0.74
   6  -3   0   78.53    3.46
   6  -3   0   75.42    3.86
  -6   3   0   74.04    3.12
  -6   3   0   72.15    3.62
  -6   3   0   78.17    3.45
   5  -3   0   22.49    1.57
   5  -3   0   23.01    1.23
  -5   3   0   23.06    1.46
  -5   3   0   23.38    1.74
   4  -3   0  136.39    4.39
   4  -3   0  133.44    4.39
   4  -3   0  134.92    3.79
  -4   3   0  142.13    4.49
  -4   3   0  140.97    4.65
  -4   3   0  138.06    4.21
  -4   3   0  127.35    3.91
   3  -3   0   90.57    3.29
   3  -3   0   95.07    2.62
   3  -3   0   91.41    3.12
   3  -3   0   95.23    3.16
  -3   3   0   93.56    2.76
  -3   3   0   93.35    2.84
  -3   3   0   93.29    2.99
  -3   3   0   95.31    3.36
  -3   3   0   93.05    3.17
  -3   3   0   89.83    3.05
   2  -3   0  172.08    4.89
   2  -3   0  168.85    4.05
   2  -3   0  166.06    4.63
   2  -3   0  170.73    4.63
   2  -3   0  162.25    4.63
  -2   3   0  174.59    4.88
  -2   3   0  165.45    4.23
  -2   3   0  166.71    4.51
  -2   3   0  164.06    4.57
  -2   3   0  159.25    4.65
  -2   3   0  165.93    4.42
   1  -3   0  220.80    5.93
   1  -3   0  228.31    5.69
   1  -3   0  222.45    5.73
   1  -3   0  226.69    5.71
  -1   3   0  222.33    5.56
  -1   3   0  219.40    5.62
  -1   3   0  221.82    5.66
  -1   3   0  227.70    5.28
  -1   3   0  216.22    5.92
   0  -3   0  149.56    4.11
   0  -3   0  147.35    4.15
   0  -3   0  158.29    4.09
   0  -3   0  159.31    4.09
   0   3   0  159.24    3.60
   0   3   0  163.80    3.71
   0   3   0  158.74    4.20
   0   3   0  161.13    4.23
   0   3   0  160.82    4.04
   0   3   0  157.64    4.08
  -1  -3   0  203.66    4.79
  -1  -3   0  208.69    5.19
  -1  -3   0  200.09    5.22
  -1  -3   0  210.99    5.25
  -1  -3   0  203.79    5.23
   1   3   0  210.39    4.80
   1   3   0  207.13    5.24
   1   3   0  213.71    5.16
   1   3   0  208.85    5.05
  -2  -3   0    1.52    0.29
  -2  -3   0    1.06    0.19
  -2  -3   0    1.36    0.32
  -2  -3   0    1.03    0.24
   2   3   0    0.88    0.17
   2   3   0    1.12    0.24
   2   3   0    0.95    0.24
   2   3   0    1.19    0.26
   2   3   0    0.88    0.25
   2   3   0    1.57    0.19
  -3  -3   0  203.12    5.15
  -3  -3   0  204.36    5.29
  -3  -3   0  201.77    5.55
  -3  -3   0  203.36    5.31
  -3  -3   0  198.48    5.30
   3   3   0  204.91    5.17
   3   3   0  202.74    5.54
   3   3   0  204.09    5.28
   3   3   0  209.44    5.26
   3   3   0  209.34    5.47
  -4  -3   0    3.21    0.57
  -4  -3   0    3.64    0.49
  -4  -3   0    3.52    0.54
  -4  -3   0    2.62    0.47
   4   3   0    3.13    0.49
   4   3   0    2.42    0.42
   4   3   0    2.83    0.48
   4   3   0    2.39    0.51
   4   3   0    3.04    0.54
  -5  -3   0   95.43    3.22
  -5  -3   0   97.98    3.32
   5   3   0   95.28    3.18
   5   3   0   93.93    2.68
   5   3   0   98.43    3.15
  -6  -3   0    9.51    0.96
  -6  -3   0    8.98    1.01
  -6  -3   0    7.23    0.96
   6   3   0    8.94    0.62
   6   3   0   10.05    0.91
   6   3   0    9.31    0.47
   6   3   0    8.52    0.97
   6   3   0    8.29    1.03
  -7  -3   0   54.86    2.63
  -7  -3   0   52.52    2.56
  -7  -3   0   53.57    2.77
   7   3   0   56.20    2.72
   7   3   0   51.31    1.72
   7   3   0   52.77    2.58
   7   3   0   54.76    2.47
  -8  -3   0    7.31    1.21
  -8  -3   0    7.83    1.39
   8   3   0    8.73    1.30
   8   3   0    7.18    0.60
   8   3   0    5.67    1.05
  -9  -3   0   23.89    2.00
  -9  -3   0   22.67    2.15
   9   3   0   24.49    2.07
   9   3   0   26.78    2.13
   9   3   0   24.38    1.97
   7  -4   0   10.13    1.12
   7  -4   0   11.18    1.65
   7  -4   0    9.68    1.60
  -7   4   0   11.98    1.71
  -7   4   0   11.64    1.52
  -7   4   0    7.89    1.49
   6  -4   0   65.62    3.22
   6  -4   0   64.84    2.45
  -6   4   0   68.33    3.33
  -6   4   0   62.45    3.42
  -6   4   0   65.68    2.93
   5  -4   0   40.92    1.64
   5  -4   0   40.96    2.25
  -5   4   0   33.82    2.30
  -5   4   0   41.05    2.30
  -5   4   0   39.98    2.02
   4  -4   0   72.18    2.25
   4  -4   0   77.24    3.01
  -4   4   0   71.68    3.01
  -4   4   0   76.26    2.79
  -4   4   0   69.06    2.48
  -4   4   0   72.82    3.16
   3  -4   0  121.93    3.97
   3  -4   0  118.83    3.95
   3  -4   0  123.19    3.19
  -3   4   0  122.76    3.79
  -3   4   0  126.03    4.07
  -3   4   0  120.91    3.46
   2  -4   0   58.82    2.44
   2  -4   0   61.85    2.30
   2  -4   0   60.75    2.24
   2  -4   0   60.27    2.27
  -2   4   0   57.12    2.05
  -2   4   0   65.63    2.39
  -2   4   0   60.37    1.83
  -2   4   0   57.23    2.17
  -2   4   0   58.40    2.15
   1  -4   0  252.17    6.51
   1  -4   0  255.19    6.47
   1  -4   0  248.38    6.47
   1  -4   0  246.89    6.78
  -1   4   0  254.92    6.43
  -1   4   0  254.00    6.32
  -1   4   0  236.30    6.68
  -1   4   0  246.80    6.38
  -1   4   0  245.42    6.55
  -1   4   0  249.10    5.87
   0  -4   0    0.98    0.28
   0  -4   0    0.64    0.22
   0  -4   0    1.50    0.32
   0  -4   0    0.96    0.27
   0   4   0    0.81    0.25
   0   4   0    0.68    0.26
   0   4   0    1.29    0.28
   0   4   0    0.89    0.13
   0   4   0    1.10    0.29
  -1  -4   0  400.22    9.67
  -1  -4   0  389.39    9.70
  -1  -4   0  385.16    8.98
  -1  -4   0  403.49    9.65
  -1  -4   0  397.01    9.61
   1   4   0  397.50    9.61
   1   4   0  401.10    9.32
   1   4   0  405.52    8.96
   1   4   0  397.02    9.73
   1   4   0  383.54    9.61
   1   4   0  393.83    9.48
  -2  -4   0    0.75    0.26
  -2  -4   0    1.35    0.31
  -2  -4   0    1.19    0.26
  -2  -4   0    1.39    0.31
  -2  -4   0    1.51    0.40
   2   4   0    1.12    0.25
   2   4   0    1.78    0.37
   2   4   0    1.47    0.20
   2   4   0    1.98    0.37
   2   4   0    1.09    0.28
   2   4   0    1.29    0.18
  -3  -4   0  187.73    5.12
  -3  -4   0  184.80    5.40
  -3  -4   0  203.94    5.17
  -3  -4   0  198.40    4.89
   3   4   0  196.88    4.92
   3   4   0  192.85    5.42
   3   4   0  193.38    5.25
   3   4   0  191.44    5.24
   3   4   0  192.56    5.13
   3   4   0  194.00    5.03
   3   4   0  186.28    4.82
  -4  -4   0    3.10    0.60
  -4  -4   0    2.95    0.53
  -4  -4   0    2.62    0.42
  -4  -4   0    3.74    0.57
   4   4   0    3.33    0.51
   4   4   0    2.80    0.55
   4   4   0    2.66    0.52
   4   4   0    2.99    0.50
   4   4   0    4.52    0.56
   4   4   0    2.74    0.46
  -5  -4   0  104.84    3.46
  -5  -4   0  102.32    3.41
  -5  -4   0   99.99    3.69
   5   4   0  106.58    3.63
   5   4   0  104.58    3.30
   5   4   0   99.40    3.29
   5   4   0  104.93    3.37
  -6  -4   0    8.87    0.93
  -6  -4   0    9.68    1.25
  -6  -4   0    9.00    0.95
   6   4   0   10.37    0.89
   6   4   0    8.34    0.35
   6   4   0    7.44    0.96
   6   4   0    9.59    1.19
   6   4   0    9.20    0.87
  -7  -4   0   34.22    2.23
  -7  -4   0   40.06    2.18
  -7  -4   0   39.49    2.18
   7   4   0   39.66    2.02
   7   4   0   38.34    2.26
   7   4   0   40.54    2.05
   7   4   0   39.01    2.11
  -8  -4   0   23.36    1.80
  -8  -4   0   22.08    1.95
   8   4   0   23.89    1.82
   8   4   0   22.78    1.87
   8   4   0   24.67    1.72
  -9  -4   0   21.31    1.96
  -9  -4   0   29.01    2.40
   9   4   0   24.34    2.06
   9   4   0   26.67    2.04
   9   4   0   24.63    2.05
 -10  -4   0   25.12    2.32
 -10  -4   0   23.12    2.42
  10   4   0   26.86    2.42
   7  -5   0   17.87    2.17
   7  -5   0   15.73    2.02
  -7   5   0   14.09    1.93
  -7   5   0   20.30    1.75
   6  -5   0   16.92    1.77
   6  -5   0   18.43    1.09
  -6   5   0   18.11    1.91
  -6   5   0   19.05    1.56
   5  -5   0   47.58    2.60
   5  -5   0   47.84    1.71
  -5   5   0   51.43    2.69
  -5   5   0   48.02    2.36
   4  -5   0   15.82    1.35
  -4   5   0   12.57    1.08
  -4   5   0   12.59    1.24
   3  -5   0   76.45    2.97
  -3   5   0   78.02    3.05
  -3   5   0   72.67    3.20
  -3   5   0   71.11    2.34
  -3   5   0   73.62    2.75
   2  -5   0    0.30    0.25
   2  -5   0    0.12    0.32
  -2   5   0    0.16    0.20
  -2   5   0    0.35    0.31
  -2   5   0    0.21    0.26
  -2   5   0    0.52    0.30
   1  -5   0  120.13    3.63
   1  -5   0  114.26    3.58
   1  -5   0  110.19    3.56
   1  -5   0  113.59    3.87
  -1   5   0  112.86    2.83
  -1   5   0  114.31    3.82
  -1   5   0  112.25    3.48
  -1   5   0  111.41    3.37
  -1   5   0  112.67    3.47
  -1   5   0  117.63    3.68
   0  -5   0    4.54    0.62
   0  -5   0    3.50    0.53
   0  -5   0    4.07    0.56
   0   5   0    4.13    0.56
   0   5   0    4.14    0.56
   0   5   0    4.46    0.25
   0   5   0    3.82    0.59
   0   5   0    3.97    0.61
  -1  -5   0  185.03    5.09
  -1  -5   0  181.35    5.04
  -1  -5   0  182.31    5.15
   1   5   0  185.03    4.63
   1   5   0  182.82    5.15
   1   5   0  183.70    5.04
   1   5   0  183.71    5.07
   1   5   0  186.12    4.86
  -2  -5   0    7.00    0.75
  -2  -5   0    8.19    0.41
  -2  -5   0    8.17    0.68
  -2  -5   0    6.56    0.64
  -2  -5   0    7.83    0.68
   2   5   0    7.65    0.63
   2   5   0    7.76    0.60
   2   5   0    7.09    0.65
   2   5   0    8.69    0.42
   2   5   0    8.25    0.62
  -3  -5   0  195.29    5.56
  -3  -5   0  196.02    5.40
  -3  -5   0  199.34    4.98
  -3  -5   0  192.05    5.74
  -3  -5   0  195.79    5.37
   3   5   0  201.39    5.45
   3   5   0  206.59    5.01
   3   5   0  199.46    5.24
   3   5   0  194.79    5.39
   3   5   0  199.30    5.52
  -4  -5   0   15.34    1.37
  -4  -5   0   12.86    0.92
  -4  -5   0   13.39    1.09
  -4  -5   0   14.57    0.82
   4   5   0   14.89    0.91
   4   5   0   15.88    0.85
   4   5   0   14.75    0.84
   4   5   0   14.74    1.10
   4   5   0   15.33    1.05
   4   5   0   14.35    1.05
  -5  -5   0   86.26    3.02
  -5  -5   0   77.13    3.22
   5   5   0   88.85    3.24
   5   5   0   89.16    3.71
   5   5   0   81.93    2.79
  -6  -5   0   50.67    2.27
  -6  -5   0   47.62    2.49
  -6  -5   0   45.43    2.18
   6   5   0   47.52    2.40
   6   5   0   48.69    2.17
   6   5   0   46.24    2.05
   6   5   0   48.92    2.30
  -7  -5   0   41.86    2.24
  -7  -5   0   43.93    2.53
  -7  -5   0   43.92    2.29
   7   5   0   45.33    2.27
   7   5   0   46.47    2.50
   7   5   0   46.22    2.20
  -8  -5   0   55.84    3.09
  -8  -5   0   57.72    2.87
   8   5   0   50.06    2.88
   8   5   0   52.72    2.70
   8   5   0   50.35    2.58
  -9  -5   0   15.20    1.96
  -9  -5   0   17.55    1.72
   9   5   0   14.00    1.74
   9   5   0   15.14    1.81
   9   5   0   16.87    1.80
 -10  -5   0   40.52    3.03
 -10  -5   0   39.89    2.73
  10   5   0   31.21    2.59
  10   5   0   36.90    2.79
   6  -6   0   -0.12    0.74
   6  -6   0   -0.04    0.75
  -6   6   0   -0.10    0.87
  -6   6   0    0.06    0.88
  -6   6   0    0.96    0.79
   5  -6   0   72.65    3.43
  -5   6   0   68.07    3.04
  -5   6   0   71.61    3.50
  -5   6   0   70.29    3.72
   4  -6   0    0.08    0.47
  -4   6   0    0.16    0.55
  -4   6   0    0.26    0.48
  -4   6   0    0.44    0.49
   3  -6   0  102.96    3.91
   3  -6   0  111.94    3.99
  -3   6   0  106.54    4.26
  -3   6   0  102.06    3.11
  -3   6   0  112.73    4.05
  -3   6   0  107.96    3.71
   2  -6   0    0.29    0.38
   2  -6   0    0.32    0.29
  -2   6   0    0.58    0.24
  -2   6   0    0.38    0.40
  -2   6   0    0.74    0.38
  -2   6   0    0.49    0.33
   1  -6   0  114.60    3.71
   1  -6   0  110.86    3.69
  -1   6   0  110.25    3.60
  -1   6   0  107.66    3.81
  -1   6   0  110.41    2.72
  -1   6   0  105.45    3.88
   0  -6   0    3.81    0.59
   0  -6   0    5.04    0.76
   0   6   0    3.82    0.67
   0   6   0    5.88    0.91
   0   6   0    3.35    0.57
  -1  -6   0  109.38    3.60
  -1  -6   0  112.94    3.61
  -1  -6   0  111.29    3.57
   1   6   0  110.57    3.58
   1   6   0  114.97    3.56
   1   6   0  112.99    3.71
   1   6   0  109.64    3.33
  -2  -6   0   29.82    1.56
  -2  -6   0   31.00    1.53
  -2  -6   0   28.97    1.51
  -2  -6   0   30.43    0.94
   2   6   0   31.47    1.32
   2   6   0   29.95    1.37
   2   6   0   28.92    1.53
   2   6   0   33.70    1.45
  -3  -6   0  132.69    4.60
  -3  -6   0  141.71    4.31
  -3  -6   0  136.84    3.63
  -3  -6   0  145.86    4.29
   3   6   0  139.03    4.15
   3   6   0  135.32    4.00
   3   6   0  151.01    4.87
   3   6   0  139.90    4.36
   3   6   0  142.44    3.67
  -4  -6   0   32.00    1.56
  -4  -6   0   30.62    1.77
  -4  -6   0   30.72    1.27
  -4  -6   0   28.47    1.50
   4   6   0   30.78    1.77
   4   6   0   28.14    1.37
   4   6   0   30.69    1.29
   4   6   0   32.06    1.68
  -5  -6   0   77.54    2.90
  -5  -6   0   79.97    3.33
  -5  -6   0   78.94    2.65
  -5  -6   0   82.03    2.99
   5   6   0   71.56    3.01
   5   6   0   83.28    2.68
   5   6   0   82.54    2.82
  -6  -6   0   48.26    2.31
  -6  -6   0   48.74    2.31
  -6  -6   0   48.50    2.63
   6   6   0   56.10    2.64
   6   6   0   51.22    2.16
   6   6   0   52.03    2.21
   6   6   0   52.77    2.20
  -7  -6   0   29.28    1.83
  -7  -6   0   27.57    2.06
   7   6   0   26.79    1.82
   7   6   0   26.92    1.95
   7   6   0   31.48    1.78
  -8  -6   0   56.18    2.94
  -8  -6   0   56.15    3.22
  -8  -6   0   62.11    2.99
   8   6   0   57.57    2.87
   8   6   0   61.52    2.79
   8   6   0   61.08    3.20
  -9  -6   0    4.15    1.05
  -9  -6   0    3.18    1.10
   9   6   0    4.02    1.06
   9   6   0    3.68    0.96
   9   6   0    3.99    1.11
   6  -7   0    0.18    0.84
   6  -7   0   -1.24    0.77
  -6   7   0   -0.82    0.82
  -6   7   0    0.66    1.04
  -6   7   0    0.32    1.23
   5  -7   0   32.64    2.42
   5  -7   0   33.25    2.31
  -5   7   0   34.91    2.52
  -5   7   0   36.17    2.21
   4  -7   0    2.77    0.74
  -4   7   0    1.90    0.73
  -4   7   0    3.06    0.96
  -4   7   0    3.24    1.00
   3  -7   0   86.46    3.55
  -3   7   0   83.73    3.28
  -3   7   0   79.09    2.56
  -3   7   0   85.79    3.64
  -3   7   0   92.03    3.95
   2  -7   0    5.56    0.91
   2  -7   0    5.05    0.84
  -2   7   0    5.35    0.46
  -2   7   0    6.07    0.91
  -2   7   0    6.27    1.15
  -2   7   0    7.09    1.09
   1  -7   0   95.56    3.52
   1  -7   0   98.25    3.56
  -1   7   0   94.72    3.37
  -1   7   0   93.61    3.75
  -1   7   0  100.97    3.92
   0  -7   0   21.83    1.38
   0  -7   0   22.11    1.41
   0   7   0   22.23    1.36
   0   7   0   21.10    1.43
   0   7   0   20.89    1.50
  -1  -7   0   58.16    2.46
   1   7   0   56.47    2.40
   1   7   0   61.40    2.01
   1   7   0   57.42    2.38
   1   7   0   61.54    2.61
  -2  -7   0   34.07    1.81
  -2  -7   0   33.73    1.78
   2   7   0   32.27    1.41
   2   7   0   32.90    1.77
   2   7   0   35.97    1.63
  -3  -7   0   12.88    0.63
  -3  -7   0   12.45    1.19
  -3  -7   0   14.15    1.09
  -3  -7   0   14.41    1.14
   3   7   0   12.08    1.05
   3   7   0   13.70    0.97
  -4  -7   0   63.72    2.56
  -4  -7   0   58.68    2.49
  -4  -7   0   59.37    2.83
  -4  -7   0   61.57    1.85
  -4  -7   0   62.62    2.02
   4   7   0   64.75    1.98
   4   7   0   58.91    2.27
   4   7   0   62.29    2.89
   4   7   0   66.15    2.73
  -5  -7   0    2.97    0.65
  -5  -7   0    2.02    0.53
  -5  -7   0    1.94    0.60
  -5  -7   0    2.19    0.41
   5   7   0    2.21    0.48
   5   7   0    1.26    0.35
   5   7   0    3.18    0.73
   5   7   0    2.81    0.47
   5   7   0    1.42    0.61
  -6  -7   0   67.56    2.87
  -6  -7   0   71.91    2.93
  -6  -7   0   69.68    3.31
   6   7   0   66.53    2.66
   6   7   0   70.80    2.60
   6   7   0   68.34    3.09
  -7  -7   0    2.02    0.74
  -7  -7   0    0.91    0.64
  -7  -7   0    1.53    0.87
   7   7   0    2.02    0.58
   7   7   0    2.80    0.64
  -8  -7   0   94.47    4.44
  -8  -7   0   93.28    3.88
   8   7   0   92.81    3.73
   8   7   0   86.62    4.05
   8   7   0   94.68    3.66
  -9  -7   0    2.37    1.03
  -9  -7   0    2.32    0.82
   9   7   0    1.91    0.93
   9   7   0    1.37    0.89
   5  -8   0   19.85    1.93
   5  -8   0   16.49    2.03
  -5   8   0   17.31    2.23
  -5   8   0   22.42    1.81
  -5   8   0   19.87    2.39
   4  -8   0    6.85    1.20
   4  -8   0    7.31    1.31
  -4   8   0    7.89    1.44
  -4   8   0    6.95    1.15
  -4   8   0    7.48    1.46
   3  -8   0   37.27    2.31
  -3   8   0   37.82    2.40
  -3   8   0   36.61    2.10
  -3   8   0   37.65    2.57
  -3   8   0   34.79    1.44
   2  -8   0   23.36    1.80
   2  -8   0   21.07    1.64
  -2   8   0   21.46    1.81
  -2   8   0   22.18    0.98
  -2   8   0   22.97    1.60
  -2   8   0   21.14    1.73
   1  -8   0   70.36    3.09
   1  -8   0   75.87    3.18
  -1   8   0   77.34    3.05
  -1   8   0   76.75    3.44
  -1   8   0   72.88    3.26
   0  -8   0   25.79    1.03
   0  -8   0   21.39    1.51
   0  -8   0   21.67    1.55
   0   8   0   20.41    1.58
   0   8   0   23.30    1.49
  -1  -8   0   39.54    2.07
  -1  -8   0   39.26    2.05
   1   8   0   33.36    2.05
   1   8   0   39.59    2.00
   1   8   0   38.38    1.95
  -2  -8   0   91.88    3.46
   2   8   0   87.59    2.80
   2   8   0   86.60    3.44
   2   8   0   88.65    3.15
  -3  -8   0   12.46    1.15
  -3  -8   0   12.61    1.55
  -3  -8   0   11.70    1.16
   3   8   0   12.22    1.15
   3   8   0   13.26    0.97
  -4  -8   0  188.99    6.26
  -4  -8   0  188.36    5.72
  -4  -8   0  183.92    6.26
  -4  -8   0  188.15    4.89
  -4  -8   0  173.84    4.76
   4   8   0  207.59    7.79
   4   8   0  181.02    5.55
  -5  -8   0    0.57    0.32
  -5  -8   0    0.66    0.49
  -5  -8   0    0.93    0.52
  -5  -8   0    0.31    0.30
   5   8   0    0.16    0.22
   5   8   0   -0.33    0.42
   5   8   0   -0.41    0.27
   5   8   0    0.14    0.35
  -6  -8   0  178.93    5.83
  -6  -8   0  186.66    6.48
  -6  -8   0  191.36    5.91
   6   8   0  184.77    5.50
   6   8   0  180.62    6.07
   6   8   0  190.74    5.23
  -7  -8   0    2.34    0.88
  -7  -8   0    3.11    0.97
  -7  -8   0    4.10    0.89
   7   8   0    2.20    0.74
   7   8   0    3.31    0.73
   7   8   0    3.73    0.42
  -8  -8   0   90.27    4.40
  -8  -8   0   90.74    3.88
   8   8   0   92.14    4.23
   8   8   0   96.45    3.67
   8   8   0   92.13    3.63
  -9  -8   0   18.49    2.31
  -9  -8   0   17.61    1.75
   9   8   0   15.56    1.99
   9   8   0   13.58    1.76
   4  -9   0    9.32    1.63
   4  -9   0    7.50    1.20
  -4   9   0   12.76    2.00
  -4   9   0    9.45    1.39
  -4   9   0    7.93    1.64
   3  -9   0   19.76    1.55
   3  -9   0   15.97    1.72
  -3   9   0   15.43    2.00
  -3   9   0   17.94    2.17
  -3   9   0   18.29    1.62
   2  -9   0   21.78    1.38
   2  -9   0   20.27    1.77
  -2   9   0   18.97    1.75
  -2   9   0   23.19    2.09
   1  -9   0   14.95    2.59
   1  -9   0   16.50    1.01
   1  -9   0   17.35    1.56
  -1   9   0   15.53    1.40
  -1   9   0   14.55    1.79
  -1   9   0   16.10    1.60
   0  -9   0   42.34    2.39
   0  -9   0   39.89    2.30
   0  -9   0   44.49    1.50
   0  -9   0   39.72    1.65
   0   9   0   45.24    2.62
   0   9   0   45.31    2.45
   0   9   0   43.40    2.27
  -1  -9   0    8.10    1.09
  -1  -9   0   10.47    1.35
   1   9   0    7.78    1.19
   1   9   0   10.93    1.30
   1   9   0    9.53    0.57
  -2  -9   0   85.90    3.54
  -2  -9   0   85.56    3.48
   2   9   0   85.22    3.59
   2   9   0   85.58    3.22
   2   9   0   82.56    2.71
  -3  -9   0   -0.33    0.48
  -3  -9   0   -0.22    0.53
  -3  -9   0   -0.11    0.42
   3   9   0   -0.20    0.32
   3   9   0   -0.29    0.44
  -4  -9   0  142.44    3.85
  -4  -9   0  146.07    5.10
  -4  -9   0  148.67    5.54
  -4  -9   0  144.86    4.21
  -4  -9   0  155.69    5.06
   4   9   0  138.62    4.84
   4   9   0  156.54    5.30
   4   9   0  147.74    4.73
  -5  -9   0    4.46    0.46
  -5  -9   0    4.26    1.09
  -5  -9   0    5.25    0.61
  -5  -9   0    4.48    0.90
  -5  -9   0    5.23    0.62
  -5  -9   0    4.69    0.94
   5   9   0    4.67    0.94
   5   9   0    4.94    0.86
   5   9   0    5.42    0.91
  -6  -9   0  122.71    4.40
  -6  -9   0  125.52    5.08
  -6  -9   0  113.32    4.42
   6   9   0  112.87    3.41
   6   9   0  122.01    4.59
   6   9   0  122.74    4.70
  -7  -9   0   19.78    1.96
  -7  -9   0   21.03    1.68
   7   9   0   18.43    1.74
   7   9   0   16.51    1.23
  -8  -9   0   47.41    3.16
  -8  -9   0   50.26    2.74
   8   9   0   46.70    2.39
   8   9   0   46.34    2.96
  -9  -9   0   34.87    2.94
  -9  -9   0   30.74    2.34
   9   9   0   31.44    2.33
   9   9   0   34.52    2.75
   3 -10   0    8.66    1.18
  -3  10   0    9.98    1.46
  -3  10   0   10.06    1.76
   2 -10   0   42.22    2.67
   2 -10   0   36.64    1.89
  -2  10   0   32.85    3.10
  -2  10   0   36.54    2.31
  -2  10   0   38.41    2.79
   1 -10   0    6.45    0.74
   1 -10   0    5.14    1.18
  -1  10   0    5.77    1.22
  -1  10   0    3.46    0.89
  -1  10   0    5.52    1.16
   0 -10   0   78.12    3.54
   0 -10   0   74.55    2.33
   0 -10   0   71.59    3.42
   0  10   0   71.08    3.61
   0  10   0   77.37    3.53
  -1 -10   0    0.56    0.52
  -1 -10   0    0.80    0.72
   1  10   0    0.17    0.58
   1  10   0   -0.92    0.52
  -2 -10   0   85.89    4.74
  -2 -10   0   76.72    3.46
   2  10   0   84.50    3.74
   2  10   0   80.47    2.63
  -3 -10   0   16.58    1.61
   3  10   0   17.76    1.39
   3  10   0   19.06    1.71
  -4 -10   0   83.40    3.54
  -4 -10   0   77.25    3.87
  -4 -10   0   78.95    2.85
  -4 -10   0   73.43    3.48
   4  10   0   76.55    3.59
   4  10   0   80.64    3.14
  -5 -10   0   41.58    2.59
  -5 -10   0   46.94    1.74
  -5 -10   0   53.14    2.66
  -5 -10   0   44.87    1.72
  -5 -10   0   50.46    3.05
   5  10   0   50.21    2.84
   5  10   0   47.08    2.45
  -6 -10   0   63.87    3.04
  -6 -10   0   65.74    3.60
  -6 -10   0   62.44    4.40
   6  10   0   62.80    3.33
  -7 -10   0   49.22    2.70
  -7 -10   0   55.45    3.43
   7  10   0   50.53    2.91
  -8 -10   0   29.55    2.12
  -8 -10   0   30.13    2.69
   8  10   0   27.30    2.30
   2 -11   0   41.64    2.96
  -2  11   0   43.10    3.06
  -2  11   0   37.65    2.57
   1 -11   0    0.80    0.56
   1 -11   0   -0.46    0.71
  -1  11   0   -0.09    0.68
  -1  11   0    0.77    0.84
   0 -11   0   51.08    3.01
   0  11   0   50.13    3.30
   0  11   0   42.11    3.04
  -1 -11   0   11.75    1.59
   1  11   0   16.07    2.02
   1  11   0   14.72    1.69
  -2 -11   0   65.43    3.24
   2  11   0   55.81    1.96
   2  11   0   51.86    2.68
   2  11   0   58.11    3.23
  -3 -11   0   40.76    2.52
  -3 -11   0   32.69    2.45
  -3 -11   0   36.74    2.65
   3  11   0   37.88    2.58
   3  11   0   37.65    1.83
  -4 -11   0   33.56    2.28
  -4 -11   0   30.84    2.42
   4  11   0   34.23    1.95
   4  11   0   32.33    1.92
   4  11   0   35.97    2.49
  -5 -11   0   68.01    3.79
  -5 -11   0   68.69    3.30
   5  11   0   67.48    3.09
   5  11   0   68.02    3.55
  -6 -11   0   10.38    1.41
  -6 -11   0   15.23    2.16
   6  11   0   15.81    1.62
   6  11   0   16.53    1.90
  -7 -11   0   68.39    3.38
  -7 -11   0   69.66    4.02
   7  11   0   69.97    3.59
  -8 -11   0    1.58    1.10
  -8 -11   0    0.20    0.69
   8  11   0    0.07    1.06
   0 -12   0   56.38    4.35
   0  12   0   48.64    3.40
  -1 -12   0   25.43    2.24
   1  12   0   22.06    2.51
  -2 -12   0   38.50    2.64
   2  12   0   41.65    2.93
  -3 -12   0   53.34    3.48
  -3 -12   0   58.91    3.28
  -4 -12   0   13.74    1.90
  -4 -12   0   13.04    1.76
   4  12   0   16.51    1.51
  -5 -12   0   68.78    3.49
  -5 -12   0   70.76    3.97
   5  12   0   67.33    3.72
   5  12   0   63.64    3.11
  -6 -12   0    0.47    0.96
  -6 -12   0   -1.15    1.56
   6  12   0   -1.12    0.66
   6  12   0    0.09    0.83
  -2 -13   0    4.58    1.27
  -2 -13   0    5.20    1.18
   2  13   0    3.15    1.14
  -3 -13   0   46.42    3.42
  -3 -13   0   44.15    2.97
   3  13   0   39.54    3.01
  -4 -13   0   -0.19    1.02
  -4 -13   0    0.61    0.87
   4  13   0    1.40    1.36
   4  13   0    2.00    1.08
   6  12  -1   39.12    2.73
   6  12  -1   37.31    2.80
  -6 -12   1   41.03    3.17
  -6 -12   1   37.72    2.68
   5  12  -1   40.30    2.53
   5  12  -1   39.26    2.81
  -5 -12   1   45.98    3.74
   4  12  -1   14.51    1.52
   4  12  -1   15.11    1.95
  -4 -12   1   16.56    2.29
  -4 -12   1   16.05    2.07
   3  12  -1   51.26    3.26
  -3 -12   1   48.69    3.12
  -3 -12   1   49.94    3.37
   2  12  -1    0.44    0.96
  -2 -12   1    1.07    0.93
  -2 -12   1   -0.11    0.96
   1  12  -1   52.81    3.39
  -1 -12   1   51.36    3.28
   7  11  -1   41.01    2.78
  -7 -11   1   39.91    3.37
  -7 -11   1   36.89    2.66
   6  11  -1   14.18    2.11
   6  11  -1    9.87    1.44
  -6 -11   1   13.25    1.75
  -6 -11   1   10.99    1.75
   5  11  -1   58.55    2.95
   5  11  -1   54.74    3.24
  -5 -11   1   61.46    3.59
  -5 -11   1   59.29    2.36
  -5 -11   1   60.73    3.27
   4  11  -1    0.97    0.66
   4  11  -1    0.85    0.78
  -4 -11   1    0.76    0.70
  -4 -11   1    0.78    0.70
   3  11  -1   70.66    3.69
   3  11  -1   73.58    2.82
  -3 -11   1   70.13    3.81
  -3 -11   1   69.95    3.63
   2  11  -1    1.11    0.47
   2  11  -1    1.10    0.75
   2  11  -1    3.99    1.70
  -2 -11   1    0.16    0.63
   1  11  -1   58.04    3.32
  -1 -11   1   58.93    3.30
   0  11  -1    4.23    1.12
   0 -11   1    3.76    1.04
  -1  11  -1   36.49    2.89
   8  10  -1    5.41    1.35
  -8 -10   1    8.38    1.67
  -8 -10   1    8.23    1.41
   7  10  -1   47.68    2.91
  -7 -10   1   47.36    2.82
  -7 -10   1   53.61    3.33
   6  10  -1    0.61    0.69
   6  10  -1    0.11    0.66
   6  10  -1    1.17    0.78
  -6 -10   1    1.10    0.58
  -6 -10   1    0.78    0.70
   5  10  -1   58.20    2.69
   5  10  -1   55.85    3.08
   5  10  -1   59.83    2.89
  -5 -10   1   50.75    3.75
  -5 -10   1   58.57    2.16
  -5 -10   1   60.73    3.11
  -5 -10   1   56.76    3.26
   4  10  -1   11.72    1.12
   4  10  -1    9.45    1.44
   4  10  -1   10.12    1.26
  -4 -10   1    8.44    1.33
  -4 -10   1    9.56    1.52
  -4 -10   1   10.16    1.60
   3  10  -1   64.57    3.30
   3  10  -1   68.61    2.84
  -3 -10   1   65.66    3.33
  -3 -10   1   57.08    3.18
  -3 -10   1   62.49    3.38
   2  10  -1   14.26    1.49
   2  10  -1   14.53    1.82
   2  10  -1   13.04    0.94
  -2 -10   1   14.79    1.72
  -2 -10   1   13.76    1.70
   1  10  -1   51.09    3.00
  -1 -10   1   57.55    3.08
   0  10  -1   11.59    1.64
   0  10  -1   12.31    1.75
   0 -10   1   11.61    1.69
  -1  10  -1   29.59    2.48
  -1  10  -1   24.13    2.30
  -1  10  -1   29.91    2.05
   1 -10   1   28.37    2.34
   1 -10   1   29.03    1.37
  -2  10  -1   16.41    2.31
  -2  10  -1   16.64    1.66
  -2  10  -1   11.50    1.88
   2 -10   1   15.84    2.00
   2 -10   1   15.75    1.27
   8   9  -1    1.22    0.85
  -8  -9   1    0.03    0.61
  -8  -9   1   -0.37    0.85
   7   9  -1   69.71    2.31
   7   9  -1   70.44    3.23
   7   9  -1   67.86    3.48
  -7  -9   1   66.01    3.65
  -7  -9   1   76.69    3.49
   6   9  -1    3.69    0.94
   6   9  -1    3.35    0.95
   6   9  -1    1.89    0.87
  -6  -9   1    2.72    0.78
  -6  -9   1    2.42    0.83
  -6  -9   1    2.51    0.99
   5   9  -1   51.49    2.79
   5   9  -1   54.35    2.69
   5   9  -1   55.42    2.50
  -5  -9   1   53.71    1.85
  -5  -9   1   55.59    2.83
  -5  -9   1   55.52    2.04
  -5  -9   1   57.13    1.83
  -5  -9   1   55.14    3.15
  -5  -9   1   57.84    2.96
   4   9  -1   21.51    1.73
   4   9  -1   21.92    1.49
   4   9  -1   23.40    1.55
  -4  -9   1   20.88    1.02
  -4  -9   1   24.98    1.94
  -4  -9   1   26.33    2.05
  -4  -9   1   20.69    1.72
   3   9  -1   33.48    1.99
   3   9  -1   33.87    1.76
   3   9  -1   35.64    2.19
  -3  -9   1   34.59    2.17
  -3  -9   1   31.23    2.21
  -3  -9   1   34.59    2.26
   2   9  -1   47.14    2.46
   2   9  -1   51.64    1.97
   2   9  -1   49.06    2.67
  -2  -9   1   53.53    2.77
  -2  -9   1   48.29    2.64
   1   9  -1   35.54    2.29
  -1  -9   1   29.26    2.11
  -1  -9   1   37.37    2.31
   0   9  -1   34.69    2.01
   0   9  -1   33.48    2.28
   0   9  -1   32.02    2.23
   0  -9   1   30.02    2.46
   0  -9   1   34.57    1.18
   0  -9   1   35.72    2.69
  -1   9  -1   16.71    1.77
  -1   9  -1   20.49    1.60
  -1   9  -1   20.83    1.84
   1  -9   1   20.72    1.76
   1  -9   1   19.48    1.12
  -2   9  -1   22.67    2.13
  -2   9  -1   22.35    2.11
  -2   9  -1   20.14    1.66
   2  -9   1   21.89    1.39
   2  -9   1   19.51    1.87
  -3   9  -1    7.74    1.62
  -3   9  -1    6.95    1.51
  -3   9  -1    8.74    1.21
   3  -9   1    9.95    1.24
   3  -9   1    9.90    1.59
  -4   9  -1   13.53    2.12
  -4   9  -1   16.51    1.62
   4  -9   1   20.01    1.77
   4  -9   1   15.07    2.78
   9   8  -1   33.16    2.27
   9   8  -1   25.23    3.87
  -9  -8   1   26.75    3.82
   8   8  -1   11.04    1.43
   8   8  -1    9.96    1.18
   8   8  -1   13.41    1.77
  -8  -8   1   11.61    1.72
  -8  -8   1   11.33    1.47
   7   8  -1   62.99    3.33
   7   8  -1   58.22    3.44
   7   8  -1   58.68    2.40
  -7  -8   1   60.33    2.96
  -7  -8   1   59.34    3.28
   6   8  -1   37.85    1.80
   6   8  -1   42.00    2.40
   6   8  -1   39.79    2.05
   6   8  -1   39.56    2.32
   6   8  -1   38.47    1.52
  -6  -8   1   30.88    2.45
  -6  -8   1   37.25    2.27
   5   8  -1   70.05    2.47
   5   8  -1   70.60    3.13
   5   8  -1   75.71    3.10
  -5  -8   1   68.80    2.41
  -5  -8   1   67.41    3.08
  -5  -8   1   67.46    3.07
  -5  -8   1   69.01    3.37
   4   8  -1   86.37    3.22
   4   8  -1   83.73    3.18
   4   8  -1   83.43    3.45
   4   8  -1   85.18    2.55
  -4  -8   1   81.92    2.55
  -4  -8   1   82.90    3.50
  -4  -8   1   84.06    3.71
  -4  -8   1   86.34    3.49
   3   8  -1   66.11    2.89
   3   8  -1   73.76    3.32
  -3  -8   1   64.60    3.04
  -3  -8   1   66.86    2.00
  -3  -8   1   69.95    3.09
  -3  -8   1   73.47    3.32
   2   8  -1   97.29    3.64
   2   8  -1  100.17    3.11
  -2  -8   1   95.09    3.81
  -2  -8   1   99.14    3.85
   1   8  -1   33.18    2.00
   1   8  -1   37.27    2.49
   1   8  -1   34.88    1.33
  -1  -8   1   35.83    2.10
  -1  -8   1   33.50    2.05
   0   8  -1   80.72    3.46
   0   8  -1   75.72    3.45
   0   8  -1   84.00    3.18
   0  -8   1   77.46    3.37
   0  -8   1   81.86    3.42
  -1   8  -1   15.33    1.28
  -1   8  -1   16.05    1.58
  -1   8  -1   16.15    1.51
   1  -8   1   15.52    1.44
   1  -8   1   13.65    1.38
   1  -8   1   15.41    0.95
  -2   8  -1   35.00    2.40
  -2   8  -1   39.85    2.57
  -2   8  -1   43.07    2.19
   2  -8   1   39.78    1.89
   2  -8   1   40.25    2.63
  -3   8  -1   -0.09    0.51
  -3   8  -1    0.75    0.84
  -3   8  -1   -0.33    0.74
   3  -8   1    0.42    0.62
   3  -8   1   -0.57    0.43
  -4   8  -1   38.33    2.24
  -4   8  -1   35.67    2.72
  -4   8  -1   37.60    2.91
   4  -8   1   39.31    2.68
  -5   8  -1    1.02    1.07
  -5   8  -1   -0.41    0.84
  -5   8  -1    1.07    1.56
   5  -8   1    0.92    1.32
   5  -8   1    0.49    0.88
   9   7  -1   31.16    2.49
   9   7  -1   29.21    2.54
  -9  -7   1   23.65    2.15
  -9  -7   1   27.45    2.51
   8   7  -1   21.29    1.76
   8   7  -1   24.05    1.80
   8   7  -1   21.57    1.93
  -8  -7   1   29.20    2.36
  -8  -7   1   25.50    1.91
   7   7  -1   29.96    2.13
   7   7  -1   29.92    1.86
   7   7  -1   27.67    1.70
   7   7  -1   30.62    1.92
  -7  -7   1   33.79    2.10
  -7  -7   1   28.70    2.22
   6   7  -1   56.21    2.31
   6   7  -1   59.59    2.60
   6   7  -1   59.18    2.84
   6   7  -1   61.66    2.25
  -6  -7   1   53.82    2.63
  -6  -7   1   61.56    2.80
  -6  -7   1   53.65    2.95
   5   7  -1   74.76    3.07
   5   7  -1   73.46    3.12
   5   7  -1   74.21    2.84
  -5  -7   1   76.18    3.39
  -5  -7   1   74.43    3.06
  -5  -7   1   70.76    3.00
   4   7  -1   41.92    2.03
   4   7  -1   40.97    2.10
   4   7  -1   40.37    1.55
  -4  -7   1   43.58    2.17
  -4  -7   1   41.11    2.11
  -4  -7   1   41.20    2.33
  -4  -7   1   38.78    1.52
   3   7  -1   72.22    2.68
   3   7  -1   75.65    2.14
   3   7  -1   70.90    2.94
  -3  -7   1   76.45    3.08
  -3  -7   1   73.77    3.06
  -3  -7   1   76.00    3.25
  -3  -7   1   72.43    2.16
   2   7  -1   46.75    1.82
   2   7  -1   46.72    1.24
   2   7  -1   47.01    2.18
   2   7  -1   43.66    2.16
  -2  -7   1   43.16    2.21
  -2  -7   1   46.38    2.28
   1   7  -1   34.31    1.93
   1   7  -1   38.68    1.41
   1   7  -1   35.88    1.97
  -1  -7   1   35.87    1.97
  -1  -7   1   40.83    2.09
   0   7  -1   70.77    1.86
   0   7  -1   70.44    2.72
   0   7  -1   69.62    3.02
   0   7  -1   75.31    3.11
   0  -7   1   73.15    2.98
   0  -7   1   66.91    2.91
  -1   7  -1    4.24    0.74
  -1   7  -1    4.77    0.87
   1  -7   1    4.43    0.82
   1  -7   1    5.43    0.88
   1  -7   1    4.55    0.56
  -2   7  -1   80.04    3.08
  -2   7  -1   85.96    3.59
  -2   7  -1   78.98    3.60
  -2   7  -1   80.54    2.33
   2  -7   1   88.43    3.37
   2  -7   1   83.68    3.48
   2  -7   1   75.16    3.37
  -3   7  -1    2.23    0.88
  -3   7  -1    1.24    0.44
  -3   7  -1    1.84    0.80
  -3   7  -1    2.21    0.68
   3  -7   1    1.62    0.53
   3  -7   1    2.15    0.74
  -4   7  -1   36.93    2.53
  -4   7  -1   41.93    2.23
  -4   7  -1   40.50    2.76
   4  -7   1   40.62    2.29
   4  -7   1   39.75    2.56
  -5   7  -1   16.57    1.49
  -5   7  -1   19.43    2.29
  -5   7  -1   15.39    2.06
   5  -7   1   19.90    1.99
   5  -7   1   16.66    1.64
   9   6  -1   22.19    1.96
   9   6  -1   22.48    1.92
   9   6  -1   20.49    2.07
  -9  -6   1   25.14    2.36
  -9  -6   1   23.01    1.97
   8   6  -1   27.12    1.77
   8   6  -1   24.46    1.81
   8   6  -1   27.90    1.86
   8   6  -1   21.33    1.86
  -8  -6   1   24.47    2.10
  -8  -6   1   27.39    1.99
   7   6  -1   18.26    1.65
   7   6  -1   17.07    1.33
   7   6  -1   15.66    1.35
   7   6  -1   18.07    1.33
  -7  -6   1   17.79    2.21
  -7  -6   1   16.05    1.48
  -7  -6   1   16.96    1.44
   6   6  -1   62.86    2.61
   6   6  -1   60.20    2.83
   6   6  -1   65.19    2.43
   6   6  -1   63.81    2.47
  -6  -6   1   58.27    2.97
  -6  -6   1   59.40    2.69
  -6  -6   1   56.81    2.63
   5   6  -1   10.90    0.94
   5   6  -1    9.46    1.02
   5   6  -1    9.34    1.13
   5   6  -1   10.03    0.75
   5   6  -1   11.15    0.85
  -5  -6   1   10.67    1.05
  -5  -6   1   10.19    1.00
  -5  -6   1   11.42    1.14
   4   6  -1  104.24    3.41
   4   6  -1  106.49    3.10
   4   6  -1  101.68    2.78
   4   6  -1  101.30    3.60
  -4  -6   1  106.30    3.03
  -4  -6   1  108.63    3.67
  -4  -6   1  100.81    3.84
  -4  -6   1  103.83    3.57
  -4  -6   1  101.80    3.05
   3   6  -1    3.69    0.65
   3   6  -1    4.04    0.39
   3   6  -1    4.67    0.79
   3   6  -1    3.71    0.61
  -3  -6   1    4.22    0.41
  -3  -6   1    5.45    0.92
  -3  -6   1    4.79    0.77
  -3  -6   1    4.08    0.74
   2   6  -1  114.15    2.82
   2   6  -1  112.30    3.71
   2   6  -1  108.88    3.33
  -2  -6   1  101.64    3.32
  -2  -6   1  113.47    3.85
  -2  -6   1  116.62    4.02
   1   6  -1    3.13    0.62
   1   6  -1    3.63    0.67
   1   6  -1    3.72    0.45
  -1  -6   1    2.57    0.56
  -1  -6   1    3.01    0.59
   0   6  -1  157.01    4.59
   0   6  -1  158.97    4.92
   0  -6   1  148.74    4.73
   0  -6   1  149.18    3.87
   0  -6   1  145.16    4.75
   0  -6   1  149.69    4.57
  -1   6  -1   13.61    1.21
  -1   6  -1   15.99    1.30
  -1   6  -1   16.08    0.72
  -1   6  -1   16.23    0.88
  -1   6  -1   16.54    1.08
   1  -6   1   16.37    1.27
   1  -6   1   17.59    0.94
   1  -6   1   15.52    1.20
  -2   6  -1  112.03    4.35
  -2   6  -1  111.14    4.11
  -2   6  -1  111.41    3.12
  -2   6  -1  119.48    3.81
   2  -6   1  111.95    4.07
   2  -6   1  121.88    4.17
   2  -6   1  118.25    3.67
  -3   6  -1   23.16    1.73
  -3   6  -1   23.25    1.80
  -3   6  -1   22.93    1.42
  -3   6  -1   21.48    1.23
   3  -6   1   23.29    1.70
   3  -6   1   25.58    1.51
  -4   6  -1   45.63    2.68
  -4   6  -1   50.57    2.35
  -4   6  -1   48.53    2.87
   4  -6   1   49.10    2.70
   4  -6   1   50.28    2.49
  -5   6  -1   32.12    1.97
  -5   6  -1   32.17    2.45
  -5   6  -1   34.95    2.59
   5  -6   1   33.78    2.38
   5  -6   1   32.02    2.16
  -6   6  -1   12.08    1.82
  -6   6  -1   13.91    1.53
  -6   6  -1   13.91    2.08
   6  -6   1   11.51    1.63
   6  -6   1   13.95    1.94
   9   5  -1    9.56    1.59
   9   5  -1   10.10    1.49
  -9  -5   1   10.49    1.59
  -9  -5   1    5.63    1.45
   8   5  -1   39.10    2.52
   8   5  -1   41.73    2.27
   8   5  -1   37.67    2.26
   8   5  -1   41.43    2.34
  -8  -5   1   39.30    2.66
  -8  -5   1   43.21    2.50
   7   5  -1   10.75    1.12
   7   5  -1   13.03    1.12
   7   5  -1   11.70    1.14
   7   5  -1   13.09    1.27
  -7  -5   1   13.39    1.28
  -7  -5   1   13.01    1.66
   6   5  -1  110.59    3.64
   6   5  -1  107.71    3.62
   6   5  -1  112.51    4.10
   6   5  -1  110.54    3.75
  -6  -5   1  105.86    4.19
  -6  -5   1  110.43    3.94
  -6  -5   1  100.46    3.72
   5   5  -1    4.49    0.62
   5   5  -1    5.10    0.85
   5   5  -1    5.19    0.55
   5   5  -1    4.53    1.08
  -5  -5   1    4.27    0.74
  -5  -5   1    5.26    0.94
  -5  -5   1    4.07    0.72
   4   5  -1  230.29    5.80
   4   5  -1  231.44    5.98
   4   5  -1  232.54    6.27
   4   5  -1  233.49    6.99
   4   5  -1  232.60    6.44
  -4  -5   1  224.88    6.34
  -4  -5   1  227.04    5.93
   3   5  -1    2.75    0.51
   3   5  -1    2.05    0.44
   3   5  -1    2.18    0.68
   3   5  -1    1.79    0.40
   3   5  -1    2.87    0.37
   3   5  -1    2.10    0.22
  -3  -5   1    2.19    0.50
  -3  -5   1    2.82    0.57
  -3  -5   1    2.18    0.51
  -3  -5   1    1.97    0.31
   2   5  -1  198.84    5.57
   2   5  -1  196.83    5.53
   2   5  -1  208.12    5.64
   2   5  -1  194.61    5.34
   2   5  -1  200.77    4.90
  -2  -5   1  201.00    5.74
  -2  -5   1  208.89    5.66
  -2  -5   1  204.72    5.90
  -2  -5   1  203.85    4.93
   1   5  -1   25.44    1.43
   1   5  -1   27.52    0.80
   1   5  -1   27.89    1.34
   1   5  -1   27.98    1.44
  -1  -5   1   27.37    1.46
  -1  -5   1   27.23    1.35
  -1  -5   1   26.33    1.46
   0   5  -1  136.66    3.30
   0   5  -1  130.97    3.99
   0   5  -1  136.72    4.35
   0   5  -1  140.98    4.02
   0   5  -1  131.22    3.46
   0   5  -1  128.14    4.21
   0  -5   1  144.01    3.52
   0  -5   1  133.89    4.24
   0  -5   1  144.79    4.27
   0  -5   1  136.25    4.04
  -1   5  -1   83.62    3.09
  -1   5  -1   83.64    2.23
  -1   5  -1   80.24    3.12
  -1   5  -1   85.11    2.77
   1  -5   1   84.46    2.56
   1  -5   1   82.70    3.35
   1  -5   1   82.64    2.85
   1  -5   1   78.03    2.96
  -2   5  -1   78.94    2.78
  -2   5  -1   85.81    3.19
  -2   5  -1   80.88    2.36
  -2   5  -1   73.83    3.18
   2  -5   1   78.73    2.92
   2  -5   1   78.43    3.05
   2  -5   1   88.24    3.15
  -3   5  -1   78.73    3.20
  -3   5  -1   77.17    2.79
  -3   5  -1   76.26    3.35
  -3   5  -1   74.94    2.45
   3  -5   1   70.96    3.02
   3  -5   1   76.81    3.44
  -4   5  -1   35.34    1.82
  -4   5  -1   37.36    2.55
   4  -5   1   34.04    2.10
   4  -5   1   40.58    2.08
  -5   5  -1   45.37    2.65
  -5   5  -1   43.63    2.22
   5  -5   1   47.79    2.65
   5  -5   1   43.71    2.44
  -6   5  -1   -0.21    0.77
  -6   5  -1    1.78    0.69
   6  -5   1    0.94    0.81
   6  -5   1    1.65    0.76
  -7   5  -1   27.54    2.01
  -7   5  -1   30.58    2.79
   7  -5   1   31.39    2.66
   7  -5   1   34.64    2.57
   9   4  -1    4.68    1.10
   9   4  -1    3.79    1.05
   9   4  -1    1.76    0.96
  -9  -4   1    3.08    0.83
  -9  -4   1    3.32    1.11
   8   4  -1   66.43    2.99
   8   4  -1   61.07    3.04
   8   4  -1   65.67    3.04
   8   4  -1   69.65    3.35
  -8  -4   1   60.92    4.18
  -8  -4   1   70.32    3.55
   7   4  -1    0.41    0.46
   7   4  -1    0.67    0.39
   7   4  -1    0.20    0.42
  -7  -4   1    0.55    0.40
  -7  -4   1    0.85    0.58
  -7  -4   1    0.13    0.50
   6   4  -1  147.26    4.57
   6   4  -1  145.65    4.93
   6   4  -1  144.44    4.66
  -6  -4   1  148.59    4.79
  -6  -4   1  151.99    4.86
  -6  -4   1  151.27    5.18
   5   4  -1    0.96    0.36
   5   4  -1    0.97    0.34
   5   4  -1    1.11    0.45
  -5  -4   1    0.81    0.40
  -5  -4   1    0.27    0.25
  -5  -4   1    0.63    0.36
   4   4  -1  204.95    5.83
   4   4  -1  210.30    5.64
   4   4  -1  201.25    5.68
   4   4  -1  198.85    5.87
   4   4  -1  208.07    5.77
  -4  -4   1  212.89    5.44
  -4  -4   1  196.66    5.64
  -4  -4   1  207.22    6.00
  -4  -4   1  204.11    5.74
   3   4  -1   33.75    1.53
   3   4  -1   34.34    1.29
   3   4  -1   35.80    1.57
  -3  -4   1   34.88    1.12
  -3  -4   1   36.22    1.71
  -3  -4   1   35.21    1.29
  -3  -4   1   37.37    1.77
  -3  -4   1   35.33    1.57
   2   4  -1  273.23    7.16
   2   4  -1  281.72    7.09
   2   4  -1  275.66    7.07
   2   4  -1  274.32    6.60
  -2  -4   1  276.67    7.15
  -2  -4   1  277.94    6.97
  -2  -4   1  279.60    6.61
  -2  -4   1  276.46    7.23
  -2  -4   1  268.82    7.31
  -2  -4   1  280.03    7.20
   1   4  -1   73.13    1.83
   1   4  -1   68.76    2.46
   1   4  -1   70.22    2.34
   1   4  -1   69.80    2.38
  -1  -4   1   69.75    2.31
  -1  -4   1   70.03    2.30
  -1  -4   1   69.57    1.89
  -1  -4   1   68.02    2.43
  -1  -4   1   72.07    2.53
   0   4  -1  119.36    3.75
   0   4  -1  120.41    3.43
   0   4  -1  113.61    2.97
   0   4  -1  119.79    3.96
   0   4  -1  118.96    3.50
   0  -4   1  129.04    3.67
   0  -4   1  117.46    3.66
   0  -4   1  120.25    3.21
   0  -4   1  124.49    3.48
  -1   4  -1  194.66    4.57
  -1   4  -1  193.23    4.70
  -1   4  -1  195.85    5.60
  -1   4  -1  198.86    5.51
  -1   4  -1  179.84    5.35
  -1   4  -1  194.62    5.14
   1  -4   1  184.92    5.40
   1  -4   1  197.39    5.25
   1  -4   1  201.00    5.43
  -2   4  -1   50.70    2.17
  -2   4  -1   48.70    2.26
  -2   4  -1   49.91    1.62
  -2   4  -1   47.30    1.84
  -2   4  -1   44.76    1.82
  -2   4  -1   51.14    2.06
   2  -4   1   48.01    2.06
   2  -4   1   53.05    2.02
   2  -4   1   47.74    2.22
   2  -4   1   47.22    2.06
  -3   4  -1  179.96    5.50
  -3   4  -1  181.84    5.07
  -3   4  -1  177.33    4.75
   3  -4   1  170.86    5.35
  -4   4  -1    0.84    0.38
  -4   4  -1    0.27    0.34
   4  -4   1   -0.11    0.35
   4  -4   1    0.82    0.30
  -5   4  -1  106.67    4.35
  -5   4  -1  108.28    3.73
  -5   4  -1  107.24    4.23
   5  -4   1  102.62    3.24
   5  -4   1  101.24    4.07
   5  -4   1  109.03    4.09
  -6   4  -1    2.97    0.94
  -6   4  -1    4.67    1.02
  -6   4  -1    4.52    0.90
   6  -4   1    4.89    1.13
   6  -4   1    4.99    1.12
   6  -4   1    4.17    0.70
  -7   4  -1   38.31    2.28
  -7   4  -1   38.05    2.80
  -7   4  -1   35.99    2.74
   7  -4   1   38.32    2.70
   7  -4   1   34.83    2.54
   7  -4   1   37.47    2.04
   9   3  -1    0.46    0.70
   9   3  -1    1.47    0.80
   9   3  -1    0.87    0.74
  -9  -3   1    0.30    0.69
  -9  -3   1    0.14    0.67
   8   3  -1   47.03    2.42
   8   3  -1   47.96    2.54
   8   3  -1   43.83    2.61
  -8  -3   1   47.25    2.67
  -8  -3   1   45.30    2.86
   7   3  -1    0.64    0.41
   7   3  -1    1.37    0.55
   7   3  -1    1.63    0.52
   7   3  -1    0.98    0.24
  -7  -3   1    1.32    0.67
  -7  -3   1    1.25    0.63
   6   3  -1   95.99    3.41
   6   3  -1   91.63    3.52
   6   3  -1   93.43    3.28
  -6  -3   1   90.28    3.44
  -6  -3   1   90.16    3.67
  -6  -3   1   96.09    3.49
   5   3  -1   35.35    1.67
   5   3  -1   32.75    1.78
   5   3  -1   35.34    1.79
  -5  -3   1   33.21    1.66
  -5  -3   1   31.12    1.78
   4   3  -1  232.59    6.29
   4   3  -1  222.97    6.43
   4   3  -1  235.24    6.45
   4   3  -1  244.91    6.15
   4   3  -1  231.61    6.27
  -4  -3   1  245.00    6.80
  -4  -3   1  234.30    6.29
  -4  -3   1  231.98    6.54
  -4  -3   1  235.51    6.34
   3   3  -1  111.94    3.43
   3   3  -1  112.27    3.32
   3   3  -1  112.24    3.35
   3   3  -1  118.93    3.38
   3   3  -1  114.12    3.15
  -3  -3   1  112.59    3.54
  -3  -3   1  113.28    3.13
  -3  -3   1  112.62    3.38
  -3  -3   1  113.40    3.38
   2   3  -1  328.32    7.77
   2   3  -1  325.21    8.13
   2   3  -1  328.77    8.02
  -2  -3   1  326.76    8.14
  -2  -3   1  320.35    7.72
  -2  -3   1  335.11    8.28
  -2  -3   1  329.93    8.16
  -2  -3   1  324.24    8.08
   1   3  -1  226.91    5.78
   1   3  -1  218.73    5.27
   1   3  -1  223.26    5.70
   1   3  -1  220.90    5.81
  -1  -3   1  229.98    5.72
  -1  -3   1  223.28    5.31
  -1  -3   1  220.61    5.84
  -1  -3   1  228.56    5.65
  -1  -3   1  229.58    5.90
   0   3  -1  197.16    5.27
   0   3  -1  195.54    5.05
   0   3  -1  198.18    5.17
   0   3  -1  198.65    4.78
   0   3  -1  201.70    5.51
   0  -3   1  203.85    4.79
   0  -3   1  200.63    5.34
   0  -3   1  200.45    5.25
   0  -3   1  201.51    5.09
  -1   3  -1  188.05    5.06
  -1   3  -1  179.87    5.23
  -1   3  -1  184.44    5.21
  -1   3  -1  192.12    4.89
   1  -3   1  191.64    5.17
   1  -3   1  191.25    5.30
   1  -3   1  196.92    4.99
   1  -3   1  191.43    5.12
  -2   3  -1    0.65    0.22
  -2   3  -1    0.49    0.24
  -2   3  -1    0.33    0.19
  -2   3  -1    0.22    0.20
  -2   3  -1    0.63    0.21
  -2   3  -1    0.64    0.17
   2  -3   1    0.59    0.26
   2  -3   1    0.47    0.26
   2  -3   1    0.53    0.37
   2  -3   1    0.28    0.25
  -3   3  -1  175.76    5.18
  -3   3  -1  175.95    4.86
  -3   3  -1  180.09    4.57
  -3   3  -1  177.23    4.93
  -3   3  -1  172.41    5.87
  -3   3  -1  188.30    5.40
  -3   3  -1  175.74    4.76
   3  -3   1  177.33    5.26
   3  -3   1  191.68    5.60
  -4   3  -1   19.25    1.44
  -4   3  -1   16.70    1.09
  -4   3  -1   19.84    1.40
   4  -3   1   19.57    1.03
  -5   3  -1   90.95    3.26
  -5   3  -1   95.71    3.89
  -5   3  -1   88.43    3.66
   5  -3   1   94.22    3.05
   5  -3   1   92.44    3.63
  -6   3  -1   20.94    1.47
  -6   3  -1   19.53    2.03
  -6   3  -1   22.98    1.86
   6  -3   1   22.87    1.80
   6  -3   1   19.42    2.03
  -7   3  -1   36.05    2.79
  -7   3  -1   38.05    2.71
   7  -3   1   30.33    1.83
   7  -3   1   34.54    2.41
   7  -3   1   33.20    2.44
  -8   3  -1   14.78    1.64
  -8   3  -1   12.18    2.23
  -8   3  -1   11.88    1.85
   8  -3   1   13.75    1.96
   8  -3   1   11.08    1.35
   8  -3   1   14.44    2.68
   9   2  -1    2.11    0.86
   9   2  -1    2.48    1.09
   9   2  -1    2.09    0.89
  -9  -2   1    2.80    1.03
  -9  -2   1    2.54    0.94
   8   2  -1   53.95    1.91
   8   2  -1   53.43    2.87
   8   2  -1   56.40    2.68
   8   2  -1   52.65    2.75
  -8  -2   1   53.05    3.01
   7   2  -1   32.74    2.02
   7   2  -1   29.73    1.87
   7   2  -1   31.58    1.82
   7   2  -1   29.08    1.21
  -7  -2   1   32.27    2.01
  -7  -2   1   30.07    2.03
   6   2  -1   84.36    3.19
   6   2  -1   83.04    2.40
   6   2  -1   85.00    3.09
   6   2  -1   83.94    3.26
   6   2  -1   84.58    2.40
  -6  -2   1   88.89    3.33
  -6  -2   1   82.50    3.20
  -6  -2   1   90.16    3.55
   5   2  -1  160.69    5.37
   5   2  -1  165.37    4.84
   5   2  -1  160.69    4.01
  -5  -2   1  160.66    4.82
  -5  -2   1  169.28    5.79
  -5  -2   1  156.20    5.59
   4   2  -1  120.88    3.01
   4   2  -1  117.56    3.43
   4   2  -1  113.88    3.63
   4   2  -1  114.62    3.52
   4   2  -1  115.36    3.68
  -4  -2   1  113.35    3.72
  -4  -2   1  114.64    3.57
  -4  -2   1  114.89    3.53
   3   2  -1  312.04    7.74
   3   2  -1  315.88    7.87
   3   2  -1  311.95    7.76
   3   2  -1  307.63    7.86
   3   2  -1  307.74    7.10
   3   2  -1  306.99    7.60
  -3  -2   1  314.58    7.58
  -3  -2   1  311.35    7.93
  -3  -2   1  306.58    7.62
  -3  -2   1  313.17    7.80
  -3  -2   1  309.02    7.75
   2   2  -1   79.39    2.36
   2   2  -1   79.79    2.39
   2   2  -1   79.78    2.30
   2   2  -1   81.65    2.45
  -2  -2   1   79.78    2.01
  -2  -2   1   80.40    2.37
  -2  -2   1   80.92    2.26
  -2  -2   1   81.86    2.49
  -2  -2   1   79.24    2.20
  -2  -2   1   80.54    2.40
   1   2  -1  386.78    9.38
   1   2  -1  403.91    8.90
   1   2  -1  384.12    9.02
   1   2  -1  391.37    9.35
   1   2  -1  399.07    9.23
  -1  -2   1  390.87    9.18
  -1  -2   1  389.70    9.03
  -1  -2   1  391.77    9.42
  -1  -2   1  390.50    9.38
   0   2  -1    0.36    0.16
   0   2  -1    0.18    0.14
   0   2  -1    0.11    0.14
   0   2  -1    0.03    0.07
   0   2  -1    0.15    0.11
   0  -2   1    0.06    0.07
   0  -2   1    0.28    0.15
   0  -2   1    0.08    0.15
   0  -2   1    0.28    0.14
  -1   2  -1  306.46    7.49
  -1   2  -1  309.70    7.28
  -1   2  -1  299.26    7.54
   1  -2   1  311.60    7.51
   1  -2   1  304.98    7.61
   1  -2   1  294.92    7.51
   1  -2   1  303.28    7.33
  -2   2  -1   13.77    0.68
  -2   2  -1   12.85    0.71
  -2   2  -1   15.32    0.65
  -2   2  -1   13.72    0.84
  -2   2  -1   11.89    0.83
  -2   2  -1   13.54    0.87
   2  -2   1   11.84    0.86
   2  -2   1   14.05    0.79
   2  -2   1   12.60    0.82
   2  -2   1   14.32    0.87
   2  -2   1   13.38    0.64
  -3   2  -1  173.27    4.67
  -3   2  -1  177.94    4.61
  -3   2  -1  166.96    4.54
  -3   2  -1  172.11    4.90
  -3   2  -1  164.62    5.01
  -3   2  -1  173.78    4.48
  -3   2  -1  176.81    5.02
   3  -2   1  178.52    5.02
   3  -2   1  175.54    4.53
   3  -2   1  170.95    4.94
   3  -2   1  165.53    5.07
  -4   2  -1   31.86    1.46
  -4   2  -1   29.93    1.62
  -4   2  -1   33.69    1.53
  -4   2  -1   33.32    1.79
  -4   2  -1   32.33    1.72
  -4   2  -1   31.01    1.35
   4  -2   1   32.54    1.70
   4  -2   1   31.20    1.68
   4  -2   1   35.32    1.45
  -5   2  -1   70.89    2.99
  -5   2  -1   68.68    2.66
  -5   2  -1   72.41    3.11
   5  -2   1   71.48    2.56
  -6   2  -1   46.57    2.62
  -6   2  -1   45.44    2.19
  -6   2  -1   45.06    2.47
   6  -2   1   42.66    2.39
   6  -2   1   44.46    2.26
   6  -2   1   50.97    2.63
  -7   2  -1   18.88    1.53
  -7   2  -1   21.15    1.96
  -7   2  -1   20.13    1.84
   7  -2   1   21.21    1.51
   7  -2   1   20.17    1.76
   7  -2   1   18.87    1.78
  -8   2  -1   25.48    2.35
  -8   2  -1   28.71    2.41
  -8   2  -1   26.10    1.92
   8  -2   1   28.35    2.38
   8  -2   1   22.56    1.80
   8  -2   1   24.30    2.29
   9   1  -1   11.40    1.67
   9   1  -1   12.82    1.89
   9   1  -1   14.23    1.83
  -9  -1   1    9.96    1.59
  -9  -1   1   13.85    1.82
   8   1  -1   61.31    2.45
   8   1  -1   70.32    3.18
  -8  -1   1   66.31    3.46
   7   1  -1   58.74    2.79
   7   1  -1   59.54    2.21
   7   1  -1   64.83    2.74
  -7  -1   1   60.28    3.06
  -7  -1   1   63.33    2.95
   6   1  -1   65.51    2.82
   6   1  -1   70.13    2.31
   6   1  -1   72.17    2.18
   6   1  -1   71.91    2.77
   6   1  -1   76.93    2.97
  -6  -1   1   73.15    2.94
  -6  -1   1   73.78    3.14
  -6  -1   1   72.59    2.97
   5   1  -1  173.62    5.22
   5   1  -1  177.98    4.64
   5   1  -1  175.80    4.52
   5   1  -1  200.92    6.89
   5   1  -1  173.58    5.09
  -5  -1   1  179.16    5.53
  -5  -1   1  179.52    5.25
  -5  -1   1  182.85    5.35
   4   1  -1   37.70    1.63
   4   1  -1   37.47    1.25
   4   1  -1   35.97    1.69
   4   1  -1   36.79    1.53
   4   1  -1   37.68    1.62
   4   1  -1   37.58    1.65
  -4  -1   1   38.79    1.51
  -4  -1   1   36.74    1.61
  -4  -1   1   36.66    1.64
  -4  -1   1   37.56    1.76
   3   1  -1  443.14   10.70
   3   1  -1  446.25   10.76
   3   1  -1  436.89   10.57
   3   1  -1  450.11   10.74
   3   1  -1  445.89   10.21
   3   1  -1  440.43   10.81
  -3  -1   1  441.55   10.85
  -3  -1   1  433.21   10.71
  -3  -1   1  443.61   10.70
  -3  -1   1  447.68   10.57
   2   1  -1   15.96    0.77
   2   1  -1   16.37    0.54
  -2  -1   1   16.75    0.71
  -2  -1   1   18.16    0.80
  -2  -1   1   16.15    0.70
  -2  -1   1   17.61    0.55
   1   1  -1  130.83    3.32
   1   1  -1  126.02    3.33
   1   1  -1  131.28    3.33
   1   1  -1  133.17    3.20
   1   1  -1  129.77    3.20
  -1  -1   1  130.78    3.34
  -1  -1   1  130.99    3.19
  -1  -1   1  130.96    3.51
  -1  -1   1  135.37    3.20
  -1  -1   1  131.85    3.18
   0   1  -1   89.30    2.20
   0   1  -1   88.12    2.31
   0   1  -1   85.86    2.42
   0   1  -1   88.53    2.22
   0   1  -1   89.41    2.17
   0  -1   1   88.30    2.21
   0  -1   1   88.52    2.37
   0  -1   1   87.12    2.17
  -1   1  -1   24.13    0.96
  -1   1  -1   25.44    0.99
  -1   1  -1   24.59    0.82
  -1   1  -1   24.38    0.83
  -1   1  -1   24.19    0.99
   1  -1   1   25.66    0.99
   1  -1   1   26.75    0.87
   1  -1   1   27.50    1.04
   1  -1   1   23.75    0.95
   1  -1   1   25.61    0.85
  -2   1  -1  159.68    4.28
  -2   1  -1  157.08    4.33
  -2   1  -1  160.88    4.08
  -2   1  -1  170.39    4.25
  -2   1  -1  160.59    4.35
  -2   1  -1  158.18    4.11
   2  -1   1  163.43    4.32
   2  -1   1  159.36    4.39
   2  -1   1  162.63    4.08
   2  -1   1  152.53    4.28
  -3   1  -1   33.00    1.54
  -3   1  -1   32.01    1.20
  -3   1  -1   35.78    1.51
  -3   1  -1   35.11    1.54
  -3   1  -1   32.76    1.27
  -3   1  -1   33.42    1.34
  -3   1  -1   32.19    1.30
   3  -1   1   32.06    1.46
   3  -1   1   31.67    1.29
   3  -1   1   34.21    1.58
   3  -1   1   37.24    1.67
  -4   1  -1  132.36    4.14
  -4   1  -1  135.47    4.65
  -4   1  -1  133.08    3.66
  -4   1  -1  129.13    4.33
  -4   1  -1  135.04    3.93
  -4   1  -1  137.81    4.00
  -4   1  -1  136.57    3.89
   4  -1   1  131.85    4.33
   4  -1   1  137.13    3.93
   4  -1   1  136.77    4.21
   4  -1   1  140.09    4.20
  -5   1  -1   25.07    1.62
  -5   1  -1   24.80    1.50
  -5   1  -1   23.96    1.59
  -5   1  -1   24.71    1.41
   5  -1   1   24.61    1.35
   5  -1   1   26.24    1.57
  -6   1  -1   60.62    2.80
  -6   1  -1   56.57    2.84
  -6   1  -1   54.86    2.44
   6  -1   1   56.89    2.44
   6  -1   1   56.95    2.67
  -7   1  -1    6.05    1.12
  -7   1  -1    6.23    1.01
  -7   1  -1    5.60    1.09
   7  -1   1    6.48    1.10
   7  -1   1    6.36    1.24
   7  -1   1    6.53    0.98
  -8   1  -1   33.54    2.44
  -8   1  -1   30.74    2.08
  -8   1  -1   33.91    2.58
   8  -1   1   30.79    2.39
   8  -1   1   35.28    2.52
   8  -1   1   30.20    2.04
   9   0  -1   30.91    2.47
   9   0  -1   31.16    2.73
   9   0  -1   35.08    2.38
  -9   0   1   33.32    2.72
  -9   0   1   28.68    2.40
  -9   0   1   31.98    2.40
   8   0  -1   16.99    1.60
   8   0  -1   17.34    1.67
  -8   0   1   19.09    1.91
  -8   0   1   17.49    1.69
   7   0  -1   81.21    3.45
   7   0  -1   85.49    3.35
   7   0  -1   83.73    3.38
  -7   0   1   85.48    3.80
  -7   0   1   84.88    3.61
   6   0  -1    6.57    1.05
   6   0  -1    6.73    0.87
   6   0  -1    8.50    1.07
  -6   0   1    9.21    1.28
  -6   0   1   10.03    1.21
   5   0  -1  190.70    5.49
   5   0  -1  203.82    5.76
   5   0  -1  196.22    5.02
   5   0  -1  193.56    5.57
  -5   0   1  195.17    5.94
  -5   0   1  194.37    5.75
  -5   0   1  198.14    5.68
   4   0  -1    0.85    0.37
   4   0  -1    0.05    0.23
   4   0  -1    0.61    0.23
   4   0  -1    0.69    0.20
   4   0  -1    0.26    0.18
   4   0  -1    0.64    0.28
  -4   0   1    0.34    0.20
  -4   0   1    0.25    0.23
  -4   0   1   -0.05    0.20
  -4   0   1    0.09    0.22
   3   0  -1  285.05    7.21
   3   0  -1  285.88    7.34
   3   0  -1  290.96    7.45
   3   0  -1  303.98    7.34
  -3   0   1  290.95    7.33
  -3   0   1  281.78    7.47
  -3   0   1  298.96    7.20
  -3   0   1  297.91    7.39
   2   0  -1   30.69    1.14
   2   0  -1   30.88    1.15
   2   0  -1   30.17    0.97
   2   0  -1   30.69    1.09
   2   0  -1   31.92    1.20
  -2   0   1   29.85    1.14
  -2   0   1   31.89    1.08
  -2   0   1   30.17    1.14
   1   0  -1  340.34    7.99
   1   0  -1  344.23    8.00
   1   0  -1  341.96    7.88
  -1   0   1  339.85    7.99
  -1   0   1  350.42    7.95
  -1   0   1  344.54    8.01
   0   0  -1  201.94    4.71
   0   0  -1  197.44    4.76
   0   0  -1  205.96    4.72
   0   0   1  195.36    4.68
   0   0   1  198.45    4.74
  -1   0  -1   72.95    1.99
  -1   0  -1   75.69    1.97
  -1   0  -1   75.96    1.99
  -1   0  -1   72.87    2.02
   1   0   1   73.42    1.98
   1   0   1   72.35    1.96
   1   0   1   77.94    2.01
   1   0   1   74.37    2.00
   1   0   1   75.30    2.14
   2   0   1 1000.00   23.02
  -3   0  -1   69.66    2.30
  -3   0  -1   68.79    2.40
  -3   0  -1   72.63    2.24
  -3   0  -1   72.19    1.97
  -3   0  -1   72.23    2.38
  -3   0  -1   72.12    2.20
   3   0   1   72.12    2.35
   3   0   1   70.06    2.44
   3   0   1   68.36    2.23
  -4   0  -1  384.23    9.79
  -4   0  -1  390.10    9.69
  -4   0  -1  388.41    9.46
  -4   0  -1  377.42    9.38
  -4   0  -1  380.79    9.60
   4   0   1  365.46    9.56
   4   0   1  360.70    9.75
   4   0   1  383.15    9.61
   4   0   1  376.54    9.46
  -5   0  -1   22.54    1.48
  -5   0  -1   22.47    1.59
  -5   0  -1   24.98    1.74
   5   0   1   24.12    1.36
   5   0   1   25.21    1.46
  -6   0  -1  100.23    3.80
  -6   0  -1  106.34    4.02
   6   0   1  103.32    3.75
   6   0   1   95.46    3.52
  -7   0  -1    2.83    0.73
  -7   0  -1    4.74    1.05
  -7   0  -1    5.34    1.09
   7   0   1    3.35    0.79
   7   0   1    3.43    0.78
   7   0   1    7.20    2.10
  -8   0  -1   30.41    2.05
  -8   0  -1   32.55    2.45
  -8   0  -1   35.04    2.39
   8   0   1   30.18    2.26
   8   0   1   28.94    2.05
   8   0   1   31.27    2.25
  -9   0  -1   -0.07    0.71
  -9   0  -1   -0.63    0.84
  -9   0  -1    0.24    0.79
   9   0   1   -0.36    0.75
   9   0   1    0.00    1.07
   9  -1  -1   34.04    2.68
   9  -1  -1   40.04    2.51
   9  -1  -1   42.58    2.92
  -9   1   1   39.47    2.63
  -9   1   1   37.91    2.76
  -9   1   1   39.75    3.04
   8  -1  -1    2.89    0.92
   8  -1  -1    0.74    0.61
  -8   1   1    0.64    0.78
  -8   1   1    1.33    0.79
  -8   1   1    0.52    0.61
   7  -1  -1  102.61    3.88
   7  -1  -1  107.22    4.15
  -7   1   1  105.36    4.13
  -7   1   1  108.79    5.25
  -7   1   1  107.88    4.28
   6  -1  -1    0.05    0.28
   6  -1  -1    0.24    0.30
   6  -1  -1    0.88    0.42
  -6   1   1    0.66    0.49
  -6   1   1    0.67    0.38
  -6   1   1    0.53    0.52
   5  -1  -1  121.32    3.49
   5  -1  -1  124.26    3.87
   5  -1  -1  118.56    3.85
   5  -1  -1  123.77    4.09
  -5   1   1  127.81    4.37
  -5   1   1  126.97    4.17
  -5   1   1  127.99    4.32
   4  -1  -1   46.87    1.93
   4  -1  -1   47.61    2.04
   4  -1  -1   45.23    1.76
   4  -1  -1   44.14    1.89
   4  -1  -1   44.49    1.76
   4  -1  -1   45.68    1.57
  -4   1   1   41.97    1.84
  -4   1   1   45.10    1.74
  -4   1   1   46.80    1.95
  -4   1   1   43.32    2.02
   3  -1  -1  140.92    3.93
   3  -1  -1  133.72    3.75
   3  -1  -1  133.55    4.00
   3  -1  -1  141.73    3.78
   3  -1  -1  141.65    3.61
   3  -1  -1  136.83    3.93
  -3   1   1  139.30    3.74
  -3   1   1  135.07    3.93
  -3   1   1  139.22    3.91
  -3   1   1  135.74    4.07
   2  -1  -1  187.29    4.87
   2  -1  -1  187.11    4.82
   2  -1  -1  189.37    4.58
   2  -1  -1  186.20    4.66
   2  -1  -1  185.04    4.80
  -2   1   1  186.02    4.91
  -2   1   1  186.42    4.77
  -2   1   1  188.21    4.65
  -2   1   1  189.42    4.81
   1  -1  -1  239.68    5.69
   1  -1  -1  222.54    5.53
   1  -1  -1  230.82    5.47
   1  -1  -1  232.32    5.60
  -1   1   1  230.50    5.46
  -1   1   1  239.88    5.56
  -1   1   1  233.01    5.53
  -1   1   1  230.96    5.61
  -1  -1  -1  145.91    3.53
  -1  -1  -1  147.90    3.61
  -1  -1  -1  150.56    3.60
  -1  -1  -1  148.63    3.65
  -1  -1  -1  156.29    3.68
  -1  -1  -1  150.86    3.54
   1   1   1  146.43    3.66
   1   1   1  151.37    3.53
   1   1   1  147.86    3.60
   1   1   1  150.20    3.74
   1   1   1  148.24    3.66
  -2  -1  -1   66.72    1.58
  -2  -1  -1   66.09    1.99
  -2  -1  -1   64.56    1.88
  -2  -1  -1   66.16    1.94
  -2  -1  -1   63.93    1.85
   2   1   1   62.42    1.93
   2   1   1   65.91    1.88
   2   1   1   64.09    1.86
   2   1   1   64.74    1.99
  -3  -1  -1   13.35    0.71
  -3  -1  -1   11.30    0.77
  -3  -1  -1   12.00    0.73
  -3  -1  -1   12.25    0.73
   3   1   1   14.40    0.85
   3   1   1   12.62    0.72
   3   1   1   12.72    0.75
   3   1   1   11.17    0.70
  -4  -1  -1  133.27    3.95
  -4  -1  -1  136.01    3.98
  -4  -1  -1  134.65    4.12
  -4  -1  -1  138.38    4.03
  -4  -1  -1  132.46    3.85
   4   1   1  136.20    3.96
   4   1   1  137.53    4.19
   4   1   1  133.35    3.99
   4   1   1  140.40    4.57
  -5  -1  -1    5.80    0.80
  -5  -1  -1    6.12    0.93
  -5  -1  -1    6.71    0.89
   5   1   1    7.29    0.76
   5   1   1    6.45    0.83
  -6  -1  -1   83.38    3.23
  -6  -1  -1   84.39    3.42
  -6  -1  -1   86.20    3.30
   6   1   1   78.51    3.28
   6   1   1   86.59    3.22
   6   1   1   82.66    3.17
  -7  -1  -1    0.97    0.65
  -7  -1  -1    0.05    0.45
   7   1   1    0.99    0.43
   7   1   1    0.24    0.44
   7   1   1    0.05    0.48
  -8  -1  -1   37.63    2.43
  -8  -1  -1   33.49    2.42
   8   1   1   35.29    2.29
   8   1   1   43.15    2.62
   8   1   1   37.04    2.30
  -9  -1  -1    2.68    0.95
  -9  -1  -1    3.22    0.99
  -9  -1  -1    5.22    1.22
   9   1   1    3.69    1.17
   9   1   1    3.59    1.12
   9   1   1    3.61    1.11
   8  -2  -1    1.05    0.81
   8  -2  -1    1.24    0.70
  -8   2   1    1.67    0.85
  -8   2   1    2.34    0.98
  -8   2   1    0.58    0.76
   7  -2  -1   71.47    2.94
   7  -2  -1   71.88    3.37
  -7   2   1   71.09    3.26
  -7   2   1   67.48    3.50
  -7   2   1   73.89    3.45
   6  -2  -1   23.78    1.46
   6  -2  -1   23.69    1.67
   6  -2  -1   25.83    1.49
  -6   2   1   21.31    1.60
  -6   2   1   26.86    1.92
  -6   2   1   22.85    1.61
   5  -2  -1   80.50    2.90
   5  -2  -1   81.00    2.84
  -5   2   1   85.90    3.46
  -5   2   1   85.47    3.19
  -5   2   1   89.21    3.30
   4  -2  -1   91.42    2.88
   4  -2  -1   91.57    3.75
   4  -2  -1   90.63    2.93
   4  -2  -1   93.21    3.19
  -4   2   1   93.74    3.20
  -4   2   1   96.30    3.26
  -4   2   1   96.07    2.94
  -4   2   1   89.03    3.10
   3  -2  -1   50.64    1.70
   3  -2  -1   51.98    1.94
   3  -2  -1   50.07    2.01
   3  -2  -1   49.36    1.73
   3  -2  -1   50.53    1.94
   3  -2  -1   51.32    1.68
  -3   2   1   47.72    1.86
  -3   2   1   49.42    1.94
  -3   2   1   52.19    1.95
  -3   2   1   51.03    1.73
  -3   2   1   47.72    2.04
   2  -2  -1  281.12    7.02
   2  -2  -1  290.58    7.07
   2  -2  -1  300.26    7.27
   2  -2  -1  293.96    7.41
   2  -2  -1  291.57    7.27
   2  -2  -1  297.34    6.96
  -2   2   1  298.31    7.03
  -2   2   1  293.67    7.45
  -2   2   1  282.09    7.19
  -2   2   1  299.32    7.31
  -2   2   1  290.07    7.27
   1  -2  -1    3.52    0.32
   1  -2  -1    3.27    0.35
   1  -2  -1    3.25    0.28
   1  -2  -1    3.16    0.30
   1  -2  -1    3.06    0.23
   1  -2  -1    3.77    0.31
  -1   2   1    3.09    0.28
  -1   2   1    3.29    0.24
  -1   2   1    3.23    0.27
  -1   2   1    3.69    0.32
  -1   2   1    3.36    0.36
  -1   2   1    3.50    0.32
   0  -2  -1  360.27    8.36
   0  -2  -1  373.46    8.51
   0  -2  -1  356.91    8.35
   0  -2  -1  365.29    8.52
   0  -2  -1  372.13    8.32
   0  -2  -1  362.63    8.27
   0   2   1  363.01    8.31
   0   2   1  366.47    8.34
   0   2   1  359.08    8.32
   0   2   1  368.80    8.51
  -1  -2  -1    9.13    0.46
  -1  -2  -1    8.60    0.31
  -1  -2  -1    8.62    0.37
  -1  -2  -1    8.48    0.43
  -1  -2  -1    8.70    0.34
  -1  -2  -1    9.12    0.46
  -1  -2  -1    8.69    0.54
  -1  -2  -1    9.41    0.34
   1   2   1    7.88    0.43
   1   2   1    9.31    0.44
   1   2   1    8.97    0.32
   1   2   1    8.85    0.31
   1   2   1    8.78    0.36
   1   2   1    9.64    0.47
   1   2   1    8.94    0.34
  -2  -2  -1  139.81    3.73
  -2  -2  -1  147.08    3.74
  -2  -2  -1  145.53    3.59
  -2  -2  -1  140.92    3.72
  -2  -2  -1  141.81    3.58
  -2  -2  -1  137.63    3.95
   2   2   1  148.77    3.99
   2   2   1  141.86    3.67
   2   2   1  142.79    3.56
   2   2   1  140.82    3.41
   2   2   1  139.19    3.76
  -3  -2  -1    0.46    0.17
  -3  -2  -1    0.31    0.15
  -3  -2  -1    0.33    0.16
  -3  -2  -1    0.13    0.17
  -3  -2  -1    0.48    0.22
   3   2   1    0.63    0.22
   3   2   1    0.32    0.17
   3   2   1   -0.01    0.14
   3   2   1    0.10    0.12
   3   2   1    0.44    0.17
  -4  -2  -1  140.79    4.15
  -4  -2  -1  134.60    4.06
  -4  -2  -1  145.29    4.21
  -4  -2  -1  141.93    4.32
   4   2   1  139.69    4.56
   4   2   1  143.51    4.07
   4   2   1  144.28    4.25
   4   2   1  150.73    4.26
   4   2   1  165.75    5.28
  -5  -2  -1    4.68    0.70
  -5  -2  -1    5.71    0.90
  -5  -2  -1    4.10    0.64
   5   2   1    3.68    0.75
   5   2   1    3.71    0.65
   5   2   1    4.86    0.71
  -6  -2  -1  107.64    3.93
  -6  -2  -1  101.28    3.66
  -6  -2  -1  105.69    3.73
   6   2   1  105.07    3.78
   6   2   1  107.12    3.84
   6   2   1  103.66    3.61
  -7  -2  -1    8.22    1.22
  -7  -2  -1    7.57    1.08
   7   2   1    4.89    0.96
   7   2   1    5.83    0.99
   7   2   1    4.50    0.80
  -8  -2  -1   53.56    2.80
  -8  -2  -1   52.95    2.99
   8   2   1   49.81    2.72
   8   2   1   47.59    2.77
  -9  -2  -1   15.13    2.00
  -9  -2  -1   12.96    1.76
   9   2   1   11.20    1.55
   9   2   1   11.56    1.53
   9   2   1   10.33    1.27
   9   2   1   10.99    1.70
   8  -3  -1   15.83    1.53
   8  -3  -1   20.01    1.99
  -8   3   1   16.10    2.01
  -8   3   1   20.28    2.00
  -8   3   1   19.16    1.76
   7  -3  -1   33.66    1.89
   7  -3  -1   33.77    2.32
  -7   3   1   31.91    2.29
  -7   3   1   36.72    2.62
  -7   3   1   33.86    2.18
   6  -3  -1   45.53    2.05
   6  -3  -1   48.84    2.56
  -6   3   1   41.68    2.42
  -6   3   1   49.84    2.43
  -6   3   1   49.57    2.80
   5  -3  -1   39.46    1.71
   5  -3  -1   38.32    2.07
   5  -3  -1   41.59    1.85
  -5   3   1   38.21    2.25
  -5   3   1   41.45    2.21
  -5   3   1   41.94    2.06
   4  -3  -1   58.94    3.16
   4  -3  -1   72.17    2.43
   4  -3  -1   65.69    2.23
   4  -3  -1   69.45    2.72
  -4   3   1   67.41    2.37
  -4   3   1   72.11    2.78
  -4   3   1   72.74    3.01
  -4   3   1   75.40    2.99
   3  -3  -1    5.33    0.74
   3  -3  -1    6.59    0.80
   3  -3  -1    5.70    0.49
   3  -3  -1    6.51    0.65
  -3   3   1    6.06    0.64
  -3   3   1    5.71    0.79
  -3   3   1    5.42    0.69
  -3   3   1    3.73    0.55
  -3   3   1    5.50    0.50
   2  -3  -1  134.57    3.91
   2  -3  -1  139.51    3.89
   2  -3  -1  136.29    3.56
   2  -3  -1  138.24    3.38
   2  -3  -1  140.05    3.89
   2  -3  -1  136.81    4.07
  -2   3   1  140.74    3.91
  -2   3   1  137.83    3.69
  -2   3   1  138.41    3.65
  -2   3   1  135.24    3.80
  -2   3   1  131.83    4.08
  -2   3   1  131.65    3.84
   1  -3  -1    2.26    0.40
   1  -3  -1    2.02    0.31
   1  -3  -1    1.81    0.32
   1  -3  -1    1.97    0.36
   1  -3  -1    1.60    0.27
  -1   3   1    1.40    0.31
  -1   3   1    1.63    0.26
  -1   3   1    1.97    0.35
  -1   3   1    2.29    0.32
  -1   3   1    1.92    0.26
   0  -3  -1  228.69    5.68
   0  -3  -1  228.40    5.19
   0  -3  -1  223.50    5.50
   0  -3  -1  223.28    5.25
   0  -3  -1  229.02    5.64
   0   3   1  228.32    5.68
   0   3   1  231.17    5.43
   0   3   1  226.39    5.23
   0   3   1  226.94    5.28
   0   3   1  232.23    5.51
   0   3   1  231.32    5.86
  -1  -3  -1   12.90    0.43
  -1  -3  -1   12.48    0.56
  -1  -3  -1   13.06    0.64
  -1  -3  -1   12.38    0.53
  -1  -3  -1   11.69    0.54
  -1  -3  -1   12.52    0.55
  -1  -3  -1   12.46    0.64
   1   3   1   12.21    0.64
   1   3   1   12.30    0.47
   1   3   1   12.23    0.47
   1   3   1   12.24    0.57
   1   3   1   12.31    0.54
   1   3   1   11.78    0.49
  -2  -3  -1  357.39    8.24
  -2  -3  -1  363.47    8.44
  -2  -3  -1  353.85    8.44
  -2  -3  -1  346.82    8.74
  -2  -3  -1  358.93    8.40
  -2  -3  -1  373.76    8.46
  -2  -3  -1  346.80    8.61
   2   3   1  361.61    8.78
   2   3   1  361.76    8.44
   2   3   1  353.55    8.68
   2   3   1  356.25    8.66
   2   3   1  361.94    8.50
   2   3   1  366.98    8.20
  -3  -3  -1    4.35    0.41
  -3  -3  -1    5.01    0.44
  -3  -3  -1    4.84    0.57
  -3  -3  -1    5.35    0.44
  -3  -3  -1    4.82    0.49
  -3  -3  -1    4.66    0.59
   3   3   1    5.58    0.67
   3   3   1    4.56    0.48
   3   3   1    3.70    0.36
   3   3   1    4.64    0.23
   3   3   1    5.84    0.48
   3   3   1    5.24    0.44
  -4  -3  -1  112.14    3.60
  -4  -3  -1  111.89    3.36
  -4  -3  -1  113.76    3.53
  -4  -3  -1  109.63    3.27
  -4  -3  -1  113.06    3.35
   4   3   1  112.23    3.28
   4   3   1  112.25    2.83
   4   3   1  112.65    3.43
   4   3   1  114.34    3.33
  -5  -3  -1   36.76    1.88
  -5  -3  -1   34.65    1.64
  -5  -3  -1   34.83    1.90
   5   3   1   35.34    1.61
   5   3   1   34.43    1.79
   5   3   1   34.64    1.24
   5   3   1   35.91    1.73
  -6  -3  -1   73.17    2.90
  -6  -3  -1   76.86    2.90
  -6  -3  -1   78.32    3.18
   6   3   1   70.55    2.98
   6   3   1   77.57    3.07
   6   3   1   73.32    2.97
   6   3   1   72.10    2.77
  -7  -3  -1   32.35    1.95
  -7  -3  -1   31.22    2.06
  -7  -3  -1   31.18    1.89
   7   3   1   30.27    1.99
   7   3   1   28.04    1.86
   7   3   1   30.15    1.74
   7   3   1   29.26    1.37
  -8  -3  -1   34.80    2.37
  -8  -3  -1   31.78    2.13
   8   3   1   38.75    2.34
   8   3   1   32.47    2.15
   8   3   1   33.80    2.03
   8   3   1   29.47    1.50
   8   3   1   33.74    1.41
  -9  -3  -1   28.19    2.23
  -9  -3  -1   28.81    2.33
   9   3   1   26.55    2.11
   9   3   1   28.70    2.15
   9   3   1   26.89    2.23
   9   3   1   23.91    1.42
   8  -4  -1   15.55    1.55
   8  -4  -1   20.17    2.12
  -8   4   1   13.37    1.99
  -8   4   1   19.24    2.08
  -8   4   1   18.79    2.46
   7  -4  -1   20.23    1.90
   7  -4  -1   17.80    1.32
  -7   4   1   16.11    1.82
  -7   4   1   18.07    1.90
  -7   4   1   18.65    1.95
   6  -4  -1   41.40    1.84
   6  -4  -1   44.45    2.52
  -6   4   1   40.33    2.69
  -6   4   1   40.52    2.44
  -6   4   1   42.02    2.29
   5  -4  -1    5.09    0.93
   5  -4  -1    4.98    0.63
  -5   4   1    6.48    0.92
  -5   4   1    5.25    1.13
  -5   4   1    4.79    1.03
   4  -4  -1  107.58    3.07
   4  -4  -1  114.27    3.85
   4  -4  -1  104.97    3.75
  -4   4   1  116.86    3.88
  -4   4   1  100.17    3.27
  -4   4   1  102.46    3.62
  -4   4   1  107.37    4.06
   3  -4  -1    4.42    0.64
   3  -4  -1    4.36    0.35
   3  -4  -1    5.00    0.88
   3  -4  -1    4.86    0.57
  -3   4   1    5.66    0.69
  -3   4   1    5.09    0.57
  -3   4   1    5.63    0.77
  -3   4   1    4.77    0.69
   2  -4  -1  175.49    4.89
   2  -4  -1  179.55    4.90
   2  -4  -1  171.76    4.96
   2  -4  -1  175.92    4.43
   2  -4  -1  175.07    4.10
   2  -4  -1  175.61    5.17
  -2   4   1  172.23    4.78
  -2   4   1  175.66    4.92
  -2   4   1  175.22    4.87
  -2   4   1  181.23    4.44
  -2   4   1  169.66    5.13
  -2   4   1  169.01    4.66
   1  -4  -1    0.80    0.24
   1  -4  -1    0.85    0.31
   1  -4  -1    0.53    0.24
   1  -4  -1    0.54    0.20
  -1   4   1    0.71    0.24
  -1   4   1    1.12    0.36
  -1   4   1    1.71    0.30
  -1   4   1    0.69    0.23
  -1   4   1    0.57    0.21
  -1   4   1    0.61    0.14
   0  -4  -1  297.47    7.37
   0  -4  -1  288.50    7.55
   0  -4  -1  301.34    7.34
   0  -4  -1  307.13    7.52
   0   4   1  307.98    7.90
   0   4   1  303.58    7.26
   0   4   1  303.06    6.96
   0   4   1  313.52    7.35
   0   4   1  302.13    7.50
  -1  -4  -1   23.50    0.99
  -1  -4  -1   25.25    1.09
  -1  -4  -1   24.39    0.98
  -1  -4  -1   25.02    0.89
  -1  -4  -1   25.97    0.68
  -1  -4  -1   23.94    1.05
  -1  -4  -1   25.40    1.02
   1   4   1   23.58    1.08
   1   4   1   24.39    0.91
   1   4   1   23.74    1.08
   1   4   1   23.73    0.90
   1   4   1   24.43    0.87
   1   4   1   23.12    0.89
  -2  -4  -1  143.73    3.95
  -2  -4  -1  143.45    3.90
  -2  -4  -1  146.60    3.77
  -2  -4  -1  146.42    3.80
  -2  -4  -1  145.38    3.63
  -2  -4  -1  143.92    4.02
  -2  -4  -1  149.35    3.74
  -2  -4  -1  146.96    3.63
  -2  -4  -1  145.89    4.18
   2   4   1  146.98    3.94
   2   4   1  141.01    3.77
   2   4   1  148.74    4.06
   2   4   1  149.23    3.68
  -3  -4  -1  120.91    3.55
  -3  -4  -1  127.51    3.39
  -3  -4  -1  118.78    3.36
  -3  -4  -1  122.04    2.94
  -3  -4  -1  123.96    3.74
  -3  -4  -1  121.55    3.27
   3   4   1  123.40    3.73
   3   4   1  117.83    3.34
   3   4   1  122.95    3.35
   3   4   1  118.63    3.59
   3   4   1  123.68    3.63
  -4  -4  -1  143.59    4.40
  -4  -4  -1  140.28    3.94
  -4  -4  -1  149.29    4.08
  -4  -4  -1  143.51    4.08
   4   4   1  141.25    4.41
   4   4   1  144.16    4.09
   4   4   1  140.07    4.30
   4   4   1  142.99    4.02
   4   4   1  145.75    3.98
  -5  -4  -1  100.34    3.23
  -5  -4  -1   89.81    3.86
  -5  -4  -1   98.75    3.24
   5   4   1  101.78    3.33
   5   4   1   97.04    3.45
   5   4   1   95.07    3.24
  -6  -4  -1   68.14    2.69
  -6  -4  -1   66.75    2.92
  -6  -4  -1   67.93    2.71
   6   4   1   68.45    2.90
   6   4   1   65.74    2.72
   6   4   1   63.89    2.82
  -7  -4  -1   84.37    3.61
  -7  -4  -1   83.70    3.32
  -7  -4  -1   79.42    3.27
   7   4   1   83.76    3.51
   7   4   1   79.12    3.35
   7   4   1   81.04    3.15
  -8  -4  -1   22.06    1.72
  -8  -4  -1   19.29    1.86
   8   4   1   20.56    1.77
   8   4   1   20.97    1.77
   8   4   1   23.69    1.63
  -9  -4  -1   41.97    2.82
   9   4   1   43.75    2.51
   9   4   1   42.63    2.71
   9   4   1   40.52    2.68
 -10  -4  -1    0.72    0.91
 -10  -4  -1    2.36    0.98
  10   4   1    1.96    1.06
   7  -5  -1    0.89    0.66
   7  -5  -1    1.48    0.91
  -7   5   1    0.69    0.79
  -7   5   1    1.53    1.00
   6  -5  -1   39.60    1.68
   6  -5  -1   37.46    2.42
  -6   5   1   35.87    2.24
  -6   5   1   35.58    2.64
  -6   5   1   41.09    2.58
   5  -5  -1    1.16    0.61
   5  -5  -1    1.03    0.30
  -5   5   1    1.24    0.70
  -5   5   1    0.04    0.42
  -5   5   1    0.89    0.58
   4  -5  -1   50.18    2.49
   4  -5  -1   54.72    1.68
   4  -5  -1   55.54    2.57
  -4   5   1   57.06    2.47
  -4   5   1   53.04    2.54
   3  -5  -1    0.48    0.32
   3  -5  -1    0.29    0.36
  -3   5   1    1.08    0.39
  -3   5   1    0.96    0.46
  -3   5   1    1.09    0.33
  -3   5   1    0.33    0.42
   2  -5  -1   90.68    3.07
   2  -5  -1   90.37    3.03
   2  -5  -1   90.22    3.43
  -2   5   1   88.35    3.30
  -2   5   1   86.71    2.99
  -2   5   1   89.77    3.10
  -2   5   1   86.03    2.48
   1  -5  -1   12.18    0.96
   1  -5  -1    9.21    0.73
   1  -5  -1   10.89    0.78
  -1   5   1    8.90    0.67
  -1   5   1    8.99    0.69
  -1   5   1    9.22    0.43
  -1   5   1    8.70    0.79
  -1   5   1    8.87    0.74
  -1   5   1    8.21    0.68
   0  -5  -1   93.78    2.94
   0  -5  -1   94.97    2.83
   0  -5  -1   90.60    2.83
   0   5   1   97.41    2.73
   0   5   1   90.43    2.92
   0   5   1   94.77    2.77
   0   5   1   93.27    2.29
   0   5   1   96.30    3.08
  -1  -5  -1   41.72    1.59
  -1  -5  -1   43.12    1.67
  -1  -5  -1   42.10    1.35
  -1  -5  -1   40.59    1.54
   1   5   1   41.27    1.90
   1   5   1   43.24    1.39
   1   5   1   41.95    1.67
   1   5   1   45.17    1.49
   1   5   1   42.37    1.40
  -2  -5  -1  135.62    3.90
  -2  -5  -1  134.44    3.71
  -2  -5  -1  138.33    3.32
  -2  -5  -1  132.57    3.72
  -2  -5  -1  131.95    3.30
  -2  -5  -1  130.08    4.10
   2   5   1  131.83    3.47
   2   5   1  132.10    3.38
   2   5   1  137.87    3.72
   2   5   1  131.67    3.50
   2   5   1  133.76    3.55
  -3  -5  -1  104.42    2.65
  -3  -5  -1   98.74    2.97
  -3  -5  -1   99.27    3.00
  -3  -5  -1  106.04    3.47
  -3  -5  -1  103.38    2.82
   3   5   1  104.38    2.92
   3   5   1  100.39    3.00
   3   5   1  106.90    3.32
   3   5   1  103.23    3.22
  -4  -5  -1   85.93    2.74
  -4  -5  -1   82.88    2.68
  -4  -5  -1   81.35    3.04
  -4  -5  -1   85.03    2.57
   4   5   1   81.35    2.66
   4   5   1   83.49    2.96
   4   5   1   76.22    2.97
   4   5   1   87.39    2.68
   4   5   1   85.13    2.98
  -5  -5  -1  160.02    5.12
  -5  -5  -1  161.09    4.73
  -5  -5  -1  158.78    4.72
   5   5   1  158.93    4.68
   5   5   1  160.70    4.56
   5   5   1  165.14    5.05
  -6  -5  -1   26.93    1.75
  -6  -5  -1   24.96    1.52
  -6  -5  -1   25.60    1.51
   6   5   1   27.55    1.44
   6   5   1   26.50    1.79
   6   5   1   23.81    1.60
  -7  -5  -1  118.31    4.24
  -7  -5  -1  122.81    4.65
  -7  -5  -1  115.61    4.20
   7   5   1  127.39    4.61
   7   5   1  122.49    4.33
   7   5   1  120.81    4.30
  -8  -5  -1    1.05    0.73
  -8  -5  -1    0.79    0.50
  -8  -5  -1    0.12    0.74
   8   5   1    0.34    0.56
   8   5   1    0.47    0.57
   8   5   1    0.36    0.50
  -9  -5  -1   68.73    3.45
  -9  -5  -1   69.53    3.74
   9   5   1   75.09    3.73
   9   5   1   66.88    3.47
   9   5   1   68.14    3.21
 -10  -5  -1    5.64    1.34
 -10  -5  -1    2.47    1.15
  10   5   1    3.10    1.15
  10   5   1    2.96    1.12
   7  -6  -1    0.51    0.89
  -7   6   1    1.91    1.21
  -7   6   1   -1.10    0.75
   6  -6  -1   32.69    2.35
  -6   6   1   32.80    2.68
  -6   6   1   31.77    2.47
  -6   6   1   34.73    2.26
   5  -6  -1    0.61    0.76
  -5   6   1    1.59    0.66
  -5   6   1    1.65    0.78
  -5   6   1    1.55    0.83
   4  -6  -1   33.44    2.04
  -4   6   1   39.75    2.23
  -4   6   1   40.06    2.08
  -4   6   1   35.41    2.34
   3  -6  -1   19.79    1.40
   3  -6  -1   21.73    1.48
  -3   6   1   20.29    1.04
  -3   6   1   21.39    1.67
  -3   6   1   22.15    1.48
  -3   6   1   19.31    1.32
   2  -6  -1   38.90    1.88
   2  -6  -1   39.34    1.89
  -2   6   1   41.31    2.15
  -2   6   1   39.54    1.35
  -2   6   1   36.65    1.82
  -2   6   1   41.57    2.26
   1  -6  -1   95.08    3.43
   1  -6  -1   91.79    3.11
  -1   6   1   97.48    3.46
  -1   6   1   93.86    3.22
  -1   6   1   91.78    2.36
   0  -6  -1   79.29    2.74
   0  -6  -1   76.54    2.60
   0  -6  -1   77.71    2.64
   0   6   1   78.73    2.86
   0   6   1   77.82    2.75
   0   6   1   78.03    2.70
   0   6   1   77.27    2.47
   0   6   1   77.42    2.52
  -1  -6  -1  186.75    5.12
  -1  -6  -1  187.50    5.10
  -1  -6  -1  187.48    5.23
  -1  -6  -1  183.88    4.66
   1   6   1  189.45    4.92
   1   6   1  186.01    4.67
   1   6   1  181.36    5.20
   1   6   1  180.84    4.79
   1   6   1  187.53    5.34
  -2  -6  -1  146.32    4.37
  -2  -6  -1  158.96    3.77
  -2  -6  -1  146.09    3.56
  -2  -6  -1  147.05    4.28
  -2  -6  -1  145.95    4.25
   2   6   1  142.96    4.40
   2   6   1  144.41    3.93
   2   6   1  148.32    3.96
   2   6   1  147.19    4.07
   2   6   1  147.78    3.95
  -3  -6  -1  189.80    5.16
  -3  -6  -1  186.06    5.43
  -3  -6  -1  190.95    5.71
  -3  -6  -1  190.53    4.78
  -3  -6  -1  185.46    5.13
  -3  -6  -1  191.07    4.75
   3   6   1  190.82    4.79
   3   6   1  188.80    5.05
   3   6   1  192.56    4.83
   3   6   1  186.49    5.44
   3   6   1  191.86    4.93
  -4  -6  -1   52.41    2.02
  -4  -6  -1   53.22    1.84
  -4  -6  -1   53.49    1.46
   4   6   1   54.51    2.31
   4   6   1   56.71    2.31
   4   6   1   54.02    1.92
   4   6   1   53.19    1.60
  -5  -6  -1  190.45    5.31
  -5  -6  -1  191.37    6.05
  -5  -6  -1  195.78    5.55
   5   6   1  194.85    5.88
   5   6   1  204.24    5.50
   5   6   1  193.84    4.64
  -6  -6  -1    9.35    0.95
  -6  -6  -1    9.15    1.32
  -6  -6  -1    8.76    0.94
   6   6   1   10.06    1.25
   6   6   1    6.98    1.08
   6   6   1    8.32    0.81
  -7  -6  -1  128.14    4.50
  -7  -6  -1  129.54    4.97
  -7  -6  -1  131.73    4.56
   7   6   1  138.06    4.95
   7   6   1  139.57    4.62
   7   6   1  130.68    4.30
  -8  -6  -1    1.77    0.60
  -8  -6  -1    1.06    0.75
  -8  -6  -1    1.78    0.91
   8   6   1    1.86    0.70
   8   6   1    0.18    0.59
   8   6   1    1.33    0.52
  -9  -6  -1   52.60    3.36
  -9  -6  -1   60.75    3.13
   9   6   1   56.49    2.85
   9   6   1   56.18    3.13
   9   6   1   64.93    3.49
 -10  -6  -1   10.91    1.62
 -10  -6  -1    9.04    1.78
  10   6   1   10.39    1.76
  10   6   1   13.50    1.92
   6  -7  -1   18.08    1.89
  -6   7   1   20.18    1.82
  -6   7   1   15.75    2.16
  -6   7   1   16.69    2.09
   5  -7  -1    7.61    1.30
  -5   7   1    7.41    1.08
  -5   7   1    7.88    1.35
  -5   7   1    6.12    1.36
   4  -7  -1   45.95    3.42
  -4   7   1   49.87    2.72
  -4   7   1   51.62    2.99
  -4   7   1   47.70    2.43
   3  -7  -1   12.86    1.24
   3  -7  -1   13.61    1.33
  -3   7   1   13.58    0.86
  -3   7   1   13.27    1.29
  -3   7   1   14.78    1.23
  -3   7   1   11.08    1.38
   2  -7  -1   39.71    2.07
   2  -7  -1   46.81    2.20
  -2   7   1   44.90    2.20
  -2   7   1   46.64    2.14
  -2   7   1   41.45    1.41
  -2   7   1   43.80    2.44
   1  -7  -1   94.45    3.37
   1  -7  -1   99.49    3.44
  -1   7   1  104.33    4.37
  -1   7   1  102.00    3.47
  -1   7   1   92.65    3.67
   0  -7  -1   34.67    1.69
   0  -7  -1   35.19    1.71
   0   7   1   36.76    1.90
   0   7   1   34.25    1.73
   0   7   1   37.55    1.83
  -1  -7  -1  243.88    6.16
  -1  -7  -1  255.51    8.09
  -1  -7  -1  248.66    6.76
   1   7   1  250.39    8.23
   1   7   1  256.46    6.24
   1   7   1  249.00    6.55
   1   7   1  254.85    7.10
  -2  -7  -1   11.14    0.92
  -2  -7  -1   11.24    0.98
   2   7   1   11.83    0.78
   2   7   1   11.43    0.75
   2   7   1   10.13    0.74
   2   7   1   11.53    0.99
  -3  -7  -1  259.94    7.71
  -3  -7  -1  269.58    7.16
  -3  -7  -1  272.76    6.45
  -3  -7  -1  271.77    7.21
  -3  -7  -1  267.62    6.73
   3   7   1  276.17    7.49
   3   7   1  262.44    7.08
   3   7   1  266.84    6.78
   3   7   1  261.24    6.69
  -4  -7  -1    2.30    0.39
  -4  -7  -1    2.65    0.35
  -4  -7  -1    3.21    0.59
  -4  -7  -1    2.69    0.53
  -4  -7  -1    2.77    0.64
   4   7   1    2.08    0.34
   4   7   1    2.58    0.56
   4   7   1    3.54    0.53
   4   7   1    2.64    0.56
   4   7   1    3.02    0.48
  -5  -7  -1  102.08    3.44
  -5  -7  -1  100.27    3.16
  -5  -7  -1  101.68    3.44
  -5  -7  -1  107.88    4.05
   5   7   1  101.65    2.73
   5   7   1  100.95    3.75
   5   7   1  101.21    3.71
   5   7   1  102.14    3.25
  -6  -7  -1    8.47    1.05
  -6  -7  -1   11.52    1.47
  -6  -7  -1    9.76    1.01
   6   7   1   10.44    0.93
   6   7   1   11.19    1.17
  -7  -7  -1   39.51    2.17
  -7  -7  -1   41.83    2.53
  -7  -7  -1   32.88    1.91
   7   7   1   40.10    1.96
   7   7   1   37.52    2.04
   7   7   1   42.33    2.43
  -8  -7  -1   24.89    1.80
  -8  -7  -1   26.51    2.16
   8   7   1   23.20    1.99
   8   7   1   24.24    1.62
   8   7   1   23.28    1.79
  -9  -7  -1    9.10    1.54
  -9  -7  -1    7.48    1.24
   9   7   1    8.65    1.57
   9   7   1    9.15    1.40
   5  -8  -1   14.72    1.89
  -5   8   1   14.20    1.92
  -5   8   1   11.54    1.59
  -5   8   1   12.01    1.56
  -4   8   1   22.26    1.91
  -4   8   1   21.47    1.69
  -4   8   1   23.98    2.10
   3  -8  -1   45.93    2.49
   3  -8  -1   40.82    2.44
  -3   8   1   46.74    2.38
  -3   8   1   43.35    2.66
  -3   8   1   47.28    2.55
  -3   8   1   42.70    1.62
   2  -8  -1   21.52    1.59
   2  -8  -1   23.79    1.65
  -2   8   1   25.16    1.76
  -2   8   1   27.01    1.98
  -2   8   1   25.35    1.66
   1  -8  -1   88.86    3.41
   1  -8  -1   98.16    3.54
  -1   8   1   92.02    3.59
  -1   8   1   89.10    3.74
  -1   8   1   94.60    3.48
   0  -8  -1    0.96    0.42
   0  -8  -1    1.92    0.47
   0   8   1    2.80    0.66
   0   8   1    1.53    0.51
   0   8   1    2.03    0.59
  -1  -8  -1  230.62    6.45
  -1  -8  -1  219.96    6.00
  -1  -8  -1  235.00    6.54
   1   8   1  228.75    6.57
   1   8   1  222.78    6.60
   1   8   1  224.86    5.62
   1   8   1  223.35    6.75
  -2  -8  -1    0.18    0.34
  -2  -8  -1    0.01    0.28
   2   8   1    0.22    0.23
   2   8   1    0.55    0.34
   2   8   1    0.26    0.28
  -3  -8  -1  218.87    5.70
  -3  -8  -1  211.00    5.10
  -3  -8  -1  210.28    6.69
  -3  -8  -1  209.70    6.16
  -3  -8  -1  219.04    6.15
   3   8   1  210.94    5.64
   3   8   1  203.21    5.58
   3   8   1  214.33    5.88
   3   8   1  203.97    6.32
  -4  -8  -1   18.85    1.22
  -4  -8  -1   16.87    0.89
  -4  -8  -1   19.28    1.32
  -4  -8  -1   18.13    1.52
  -4  -8  -1   17.24    0.88
   4   8   1   20.40    1.31
   4   8   1   18.61    1.41
   4   8   1   18.76    1.06
  -5  -8  -1  106.12    3.27
  -5  -8  -1  111.60    3.73
  -5  -8  -1  107.61    3.75
  -5  -8  -1  113.61    4.39
   5   8   1  103.18    3.02
   5   8   1  110.55    3.97
   5   8   1  110.37    3.42
   5   8   1  111.53    3.32
  -6  -8  -1   74.59    3.50
  -6  -8  -1   70.94    2.89
   6   8   1   73.23    3.53
   6   8   1   71.02    2.03
   6   8   1   72.70    2.72
  -7  -8  -1   33.73    2.40
  -7  -8  -1   33.41    1.98
  -7  -8  -1   33.83    2.08
   7   8   1   34.90    2.26
   7   8   1   32.47    1.84
  -8  -8  -1   98.57    4.53
  -8  -8  -1   99.57    4.01
   8   8   1   97.68    3.67
   8   8   1  101.15    4.42
   8   8   1   99.71    3.93
  -9  -8  -1    9.15    1.31
  -9  -8  -1   12.89    1.82
   9   8   1   10.08    2.39
   9   8   1    9.21    1.62
   4  -9  -1    3.77    0.98
  -4   9   1    7.08    1.41
  -4   9   1    6.85    1.27
  -4   9   1    7.52    1.60
   3  -9  -1   69.38    3.34
  -3   9   1   63.05    3.32
  -3   9   1   66.06    3.07
  -3   9   1   65.76    3.60
   2  -9  -1    2.30    0.83
   2  -9  -1    2.31    0.71
  -2   9   1    3.19    0.88
  -2   9   1    2.79    0.76
  -2   9   1    2.37    0.85
   1  -9  -1  105.64    3.98
   1  -9  -1   95.14    3.78
  -1   9   1  102.08    4.25
  -1   9   1  105.64    3.92
  -1   9   1  106.94    4.09
   0  -9  -1    0.87    0.43
   0  -9  -1    1.13    0.53
   0  -9  -1    0.87    0.47
   0   9   1    0.78    0.44
   0   9   1    0.92    0.49
   0   9   1    0.99    0.50
  -1  -9  -1   97.52    2.66
  -1  -9  -1   99.89    3.72
  -1  -9  -1   97.14    3.60
   1   9   1   99.62    2.66
   1   9   1   94.67    4.60
   1   9   1   98.25    3.70
   1   9   1   98.22    3.93
  -2  -9  -1   23.85    1.56
  -2  -9  -1   25.29    1.66
   2   9   1   24.76    1.37
   2   9   1   23.08    1.17
  -3  -9  -1   98.27    3.68
  -3  -9  -1   97.89    3.69
  -3  -9  -1  101.59    3.33
  -3  -9  -1  101.10    4.23
   3   9   1  111.14    5.61
   3   9   1   93.72    3.16
   3   9   1  108.98    3.43
  -4  -9  -1   48.78    2.31
  -4  -9  -1   53.79    1.71
  -4  -9  -1   52.65    2.91
  -4  -9  -1   51.03    1.93
  -4  -9  -1   53.07    2.54
   4   9   1   54.01    2.67
   4   9   1   53.40    2.03
   4   9   1   55.45    2.39
  -5  -9  -1   44.14    1.73
  -5  -9  -1   46.68    2.67
  -5  -9  -1   46.58    2.20
  -5  -9  -1   37.60    2.13
   5   9   1   45.74    2.48
   5   9   1   45.78    1.45
   5   9   1   44.43    1.71
   5   9   1   43.28    1.87
   5   9   1   45.50    2.32
  -6  -9  -1   77.82    4.82
  -6  -9  -1   69.71    3.40
   6   9   1   78.32    3.51
   6   9   1   73.65    2.59
   6   9   1   69.58    2.22
   6   9   1   71.93    2.68
   6   9   1   76.84    3.33
  -7  -9  -1    8.27    1.18
  -7  -9  -1    8.08    1.36
  -7  -9  -1    9.63    1.26
   7   9   1    8.44    1.08
   7   9   1    9.04    1.46
   7   9   1    8.64    1.18
  -8  -9  -1   77.85    4.03
  -8  -9  -1   72.81    3.33
   8   9   1   69.64    3.68
   8   9   1   75.14    3.23
  -9  -9  -1    0.01    1.17
   9   9   1    1.99    1.06
   3 -10  -1   37.32    2.20
   3 -10  -1   38.73    2.59
  -3  10   1   40.23    2.93
  -3  10   1   39.07    2.41
   2 -10  -1    2.19    0.80
  -2  10   1    2.05    0.86
  -2  10   1    4.76    1.33
  -2  10   1    3.74    1.01
   1 -10  -1   73.34    3.39
   1 -10  -1   81.39    3.55
  -1  10   1   76.63    3.55
  -1  10   1   75.85    3.37
  -1  10   1   75.15    3.75
   0 -10  -1   21.34    1.29
   0 -10  -1   21.82    1.76
   0 -10  -1   23.98    1.75
   0 -10  -1   24.01    1.07
   0  10   1   23.62    1.81
   0  10   1   26.64    2.06
   0  10   1   24.73    1.77
  -1 -10  -1   71.04    3.23
  -1 -10  -1   71.67    3.10
   1  10   1   74.91    3.48
   1  10   1   70.76    3.16
  -2 -10  -1   87.73    3.54
  -2 -10  -1   79.01    3.29
   2  10   1   75.58    2.92
   2  10   1   80.89    2.60
   2  10   1   79.68    3.59
  -3 -10  -1   45.52    2.44
  -3 -10  -1   45.65    2.46
  -3 -10  -1   52.69    2.95
   3  10   1   50.49    2.08
   3  10   1   49.98    2.67
  -4 -10  -1   91.96    3.57
  -4 -10  -1   86.33    3.02
  -4 -10  -1   95.55    4.28
  -4 -10  -1   92.66    2.49
  -4 -10  -1   96.87    4.20
   4  10   1   94.18    3.44
   4  10   1   94.97    3.96
   4  10   1   88.90    3.05
  -5 -10  -1    9.82    0.95
  -5 -10  -1   10.84    1.28
  -5 -10  -1   13.00    1.77
  -5 -10  -1   10.96    0.80
  -5 -10  -1   10.81    1.37
   5  10   1    9.21    0.94
   5  10   1   11.04    1.19
   5  10   1   10.00    1.50
  -6 -10  -1   58.52    2.97
  -6 -10  -1   67.66    3.57
  -6 -10  -1   57.25    2.70
   6  10   1   63.94    3.06
   6  10   1   59.74    2.42
   6  10   1   59.40    2.12
   6  10   1   60.45    3.22
  -7 -10  -1   -0.30    0.64
  -7 -10  -1    0.74    0.53
   7  10   1   -0.33    0.57
   7  10   1    0.03    0.48
  -8 -10  -1   44.68    2.51
  -8 -10  -1   38.66    2.96
   8  10   1   42.68    2.26
   8  10   1   40.38    2.78
   2 -11  -1   21.27    1.49
   2 -11  -1   19.35    2.00
  -2  11   1   16.11    2.13
  -2  11   1   21.86    1.98
   1 -11  -1   31.01    1.66
   1 -11  -1   33.74    2.36
  -1  11   1   33.28    2.15
   0 -11  -1   50.41    1.70
   0 -11  -1   53.64    2.91
   0  11   1   58.22    3.32
   0  11   1   52.16    2.79
  -1 -11  -1   17.06    1.66
  -1 -11  -1   19.17    1.71
   1  11   1   20.98    1.96
  -2 -11  -1   73.25    3.39
  -2 -11  -1   68.55    3.19
   2  11   1   68.36    2.29
   2  11   1   67.11    2.84
   2  11   1   74.13    3.58
  -3 -11  -1    0.65    0.74
  -3 -11  -1    0.64    0.75
  -3 -11  -1    0.75    0.65
   3  11   1    1.89    0.80
   3  11   1    0.35    0.50
  -4 -11  -1   87.62    4.27
  -4 -11  -1   88.44    3.70
  -4 -11  -1   86.55    3.74
   4  11   1   88.13    4.05
   4  11   1   89.37    3.35
  -5 -11  -1    0.63    0.42
  -5 -11  -1    0.12    0.51
  -5 -11  -1    0.22    0.74
  -5 -11  -1    0.03    0.66
   5  11   1    0.99    0.82
   5  11   1    0.80    0.58
   5  11   1    0.86    0.60
  -6 -11  -1   55.01    2.74
  -6 -11  -1   56.27    3.43
   6  11   1   51.52    2.82
   6  11   1   56.29    3.23
  -7 -11  -1    5.36    1.33
  -7 -11  -1    4.00    0.86
   7  11   1    4.86    1.06
  -8 -11  -1   24.93    2.51
  -8 -11  -1   23.93    2.09
   8  11   1   28.71    2.29
   1 -12  -1   11.84    1.81
  -1  12   1   11.59    1.89
  -1  12   1   11.66    1.66
   0 -12  -1   46.11    2.91
   0  12   1   45.79    3.17
   0  12   1   47.69    2.80
  -1 -12  -1    1.07    0.73
   1  12   1    1.58    1.08
  -2 -12  -1   80.72    3.79
   2  12   1   82.38    4.11
  -3 -12  -1   -0.78    0.76
  -3 -12  -1    0.27    0.64
   3  12   1   -0.11    0.76
   3  12   1    0.15    0.53
  -4 -12  -1   80.89    4.27
  -4 -12  -1   76.54    3.54
   4  12   1   73.62    3.88
   4  12   1   77.67    3.11
  -5 -12  -1    4.45    1.18
  -5 -12  -1    4.37    0.94
   5  12   1    4.38    1.05
   5  12   1    4.21    1.30
  -6 -12  -1   51.48    2.74
  -6 -12  -1   48.47    3.38
   6  12   1   50.34    2.90
   6  12   1   52.63    3.28
  -7 -12  -1    8.32    1.68
  -7 -12  -1    7.44    1.57
   7  12   1    7.66    1.58
   7  12   1    9.55    1.62
  -1 -13  -1    0.19    0.77
   1  13   1    0.46    0.99
  -2 -13  -1   39.32    3.94
   2  13   1   29.15    2.61
  -3 -13  -1    3.06    1.14
  -3 -13  -1    0.77    0.80
   3  13   1    0.95    0.97
  -4 -13  -1   23.56    2.98
  -4 -13  -1   26.39    2.17
   4  13   1   26.93    1.75
   4  13   1   19.64    2.36
  -5 -13  -1    6.99    1.97
   5  13   1    6.13    1.22
   5  13   1    6.93    1.54
  -6 -13  -1   13.57    1.73
  -6 -13  -1    8.20    1.67
   6  13   1   12.13    1.72
   6  13   1   10.13    1.71
   4  12  -2   38.41    2.49
   4  12  -2   43.17    3.00
  -4 -12   2   42.43    3.08
   3  12  -2    1.43    1.02
  -3 -12   2    0.86    0.92
  -3 -12   2    3.18    1.12
   6  11  -2   49.31    3.07
   6  11  -2   46.95    2.86
  -6 -11   2   46.01    4.67
  -6 -11   2   41.83    3.76
   5  11  -2    0.43    0.82
   5  11  -2    1.97    1.09
  -5 -11   2    1.38    0.98
  -5 -11   2    1.09    0.85
   4  11  -2   39.86    2.68
   4  11  -2   43.35    2.40
  -4 -11   2   38.21    2.77
   3  11  -2    4.57    0.87
   3  11  -2    3.24    1.15
  -3 -11   2    4.20    1.03
  -3 -11   2    5.11    1.30
  -2 -11   2   26.63    2.24
  -2 -11   2   27.84    2.43
   1  11  -2    7.70    1.45
  -1 -11   2   11.10    1.72
   0  11  -2   15.47    2.08
   7  10  -2    7.02    1.38
  -7 -10   2    5.85    1.45
  -7 -10   2    4.74    1.12
   6  10  -2   42.78    2.73
   6  10  -2   40.42    2.64
  -6 -10   2   42.94    3.01
  -6 -10   2   44.48    2.82
   5  10  -2    8.39    1.32
   5  10  -2    8.77    1.38
   5  10  -2    8.91    1.33
  -5 -10   2    9.29    0.94
  -5 -10   2    8.99    1.49
  -5 -10   2   11.37    1.69
   4  10  -2   28.74    1.86
   4  10  -2   24.80    1.99
  -4 -10   2   28.85    2.32
  -4 -10   2   26.90    2.20
   3  10  -2   12.62    1.20
   3  10  -2   13.08    1.72
   3  10  -2   14.61    1.69
  -3 -10   2   13.79    1.82
  -3 -10   2   16.33    2.00
   2  10  -2   17.87    1.69
   2  10  -2   15.29    1.77
   2  10  -2   18.34    1.15
  -2 -10   2   18.56    3.19
  -2 -10   2   18.79    1.84
   1  10  -2   21.76    2.03
   1  10  -2   24.89    2.09
  -1 -10   2   22.59    1.97
   0  10  -2   11.70    1.82
   0  10  -2   10.76    1.76
   0 -10   2   12.87    1.83
  -1  10  -2   38.96    2.83
  -1  10  -2   44.15    3.13
  -2  10  -2    3.83    0.98
  -2  10  -2    3.58    1.26
   2 -10   2    2.99    2.16
   8   9  -2   47.17    3.06
  -8  -9   2   41.57    2.93
  -8  -9   2   40.60    3.16
   7   9  -2   11.05    1.57
   7   9  -2    8.36    1.37
  -7  -9   2   10.19    1.51
  -7  -9   2    9.52    1.62
   6   9  -2   34.60    1.76
   6   9  -2   39.21    2.24
   6   9  -2   38.44    2.47
   6   9  -2   40.51    2.46
  -6  -9   2   36.82    2.44
  -6  -9   2   35.56    2.57
   5   9  -2   23.27    1.37
   5   9  -2   25.58    1.89
   5   9  -2   26.70    1.87
   5   9  -2   23.67    2.99
  -5  -9   2   25.20    1.25
  -5  -9   2   27.08    1.42
  -5  -9   2   27.89    2.08
  -5  -9   2   26.02    2.09
   4   9  -2   31.31    2.08
   4   9  -2   30.13    1.82
  -4  -9   2   27.51    1.30
  -4  -9   2   28.60    2.10
  -4  -9   2   34.37    2.43
  -4  -9   2   24.65    2.18
   3   9  -2   46.31    2.10
   3   9  -2   39.91    2.34
   3   9  -2   41.04    2.45
  -3  -9   2   42.84    2.87
  -3  -9   2   44.92    2.71
  -3  -9   2   43.28    2.61
   2   9  -2   17.96    1.12
   2   9  -2   17.23    1.59
   2   9  -2   16.04    1.66
  -2  -9   2   18.53    1.82
  -2  -9   2   16.63    2.62
   1   9  -2   45.50    2.63
   1   9  -2   41.15    1.54
   1   9  -2   41.25    2.57
  -1  -9   2   38.62    2.61
  -1  -9   2   42.30    2.55
   0   9  -2    0.98    0.72
   0   9  -2    1.56    0.77
   0  -9   2    2.70    0.94
  -1   9  -2   47.95    2.96
  -1   9  -2   56.56    3.18
  -1   9  -2   50.44    2.59
   1  -9   2   49.68    1.94
   1  -9   2   47.91    2.93
  -2   9  -2    0.76    0.64
  -2   9  -2   -0.51    1.09
   2  -9   2   -0.33    0.68
   2  -9   2    0.37    0.53
  -3   9  -2   37.34    2.38
  -3   9  -2   41.83    3.15
  -3   9  -2   39.03    2.95
   3  -9   2   41.20    2.96
   3  -9   2   39.14    2.24
   9   8  -2    8.70    1.47
   9   8  -2   10.29    1.77
  -9  -8   2    8.42    1.47
  -9  -8   2    8.34    1.61
   8   8  -2   25.80    2.23
   8   8  -2   30.95    1.84
   8   8  -2   29.66    1.96
   8   8  -2   35.82    2.56
  -8  -8   2   32.12    2.58
  -8  -8   2   33.90    2.39
   7   8  -2   11.71    1.41
   7   8  -2   10.25    1.18
   7   8  -2   11.36    0.99
   7   8  -2   10.70    1.53
  -7  -8   2   12.22    1.83
  -7  -8   2   10.20    1.47
   6   8  -2   26.26    1.75
   6   8  -2   23.43    1.78
   6   8  -2   24.50    1.45
   6   8  -2   23.71    1.92
  -6  -8   2   23.43    1.81
  -6  -8   2   24.56    2.08
  -6  -8   2   22.75    1.94
   5   8  -2   39.29    2.13
   5   8  -2   40.75    1.74
   5   8  -2   42.17    2.32
   5   8  -2   39.45    2.26
  -5  -8   2   40.03    2.54
  -5  -8   2   43.23    2.47
  -5  -8   2   42.67    2.49
   4   8  -2    7.65    1.23
   4   8  -2    6.68    0.68
   4   8  -2    6.02    0.94
   4   8  -2    6.36    1.03
  -4  -8   2    6.84    0.69
  -4  -8   2    4.82    1.13
  -4  -8   2    8.13    1.25
  -4  -8   2    7.59    1.19
  -4  -8   2    8.11    0.90
   3   8  -2  102.31    5.40
   3   8  -2  121.22    3.88
   3   8  -2  108.76    4.06
   3   8  -2  108.20    2.95
  -3  -8   2  104.65    4.29
  -3  -8   2  113.03    4.38
  -3  -8   2  113.94    4.48
   2   8  -2    0.24    0.51
   2   8  -2    0.34    0.30
   2   8  -2    1.20    0.66
  -2  -8   2    1.40    0.72
  -2  -8   2    0.42    0.44
   1   8  -2  186.11    6.01
   1   8  -2  177.56    4.76
   1   8  -2  165.35    5.82
  -1  -8   2  168.88    5.97
  -1  -8   2  184.91    6.08
   0   8  -2    6.19    1.14
   0   8  -2    4.20    0.94
   0  -8   2    4.39    0.44
   0  -8   2    5.45    1.14
   0  -8   2    5.75    1.06
  -1   8  -2  111.31    3.97
  -1   8  -2  106.27    4.52
  -1   8  -2  113.66    4.59
   1  -8   2  130.02    6.45
   1  -8   2  104.67    3.33
  -2   8  -2   20.55    1.94
  -2   8  -2   15.55    1.34
  -2   8  -2   14.03    1.15
   2  -8   2   18.40    1.23
   2  -8   2   16.48    1.69
  -3   8  -2   57.37    3.31
  -3   8  -2   52.71    2.98
  -3   8  -2   60.46    3.54
  -3   8  -2   53.72    2.00
   3  -8   2   52.64    3.13
   3  -8   2   58.06    2.62
  -4   8  -2   13.00    1.53
  -4   8  -2   14.98    2.16
  -4   8  -2   13.86    2.05
   4  -8   2   10.87    1.59
   4  -8   2   15.37    1.64
   9   7  -2   27.06    2.18
  -9  -7   2   24.20    2.17
  -9  -7   2   31.87    4.49
   8   7  -2   22.12    1.68
   8   7  -2   21.87    1.60
   8   7  -2   19.37    1.74
   8   7  -2   15.61    1.95
  -8  -7   2   17.10    1.74
  -8  -7   2   15.30    1.95
   7   7  -2   55.06    2.68
   7   7  -2   55.35    2.48
   7   7  -2   54.33    2.48
   7   7  -2   53.66    2.95
  -7  -7   2   48.79    2.75
  -7  -7   2   51.29    3.04
  -7  -7   2   49.50    3.56
   6   7  -2   16.83    1.03
   6   7  -2   15.56    1.38
   6   7  -2   17.91    1.23
   6   7  -2   19.77    1.87
  -6  -7   2   17.16    1.75
  -6  -7   2   15.93    1.62
  -6  -7   2   15.70    1.43
   5   7  -2   64.78    2.79
   5   7  -2   64.36    1.94
   5   7  -2   70.92    3.01
  -5  -7   2   62.58    3.11
  -5  -7   2   64.70    2.99
  -5  -7   2   62.69    2.95
   4   7  -2    0.97    0.52
   4   7  -2    1.18    0.43
   4   7  -2    1.31    0.50
   4   7  -2    1.02    0.30
  -4  -7   2    1.17    0.33
  -4  -7   2    1.37    0.57
  -4  -7   2    0.92    0.49
  -4  -7   2    1.31    0.50
   3   7  -2  143.93    3.80
   3   7  -2  145.02    4.72
   3   7  -2  138.91    4.71
   3   7  -2  143.71    4.48
  -3  -7   2  143.46    4.96
  -3  -7   2  137.44    4.93
  -3  -7   2  148.57    5.08
  -3  -7   2  143.25    3.90
   2   7  -2    0.32    0.38
   2   7  -2    0.06    0.36
   2   7  -2    0.37    0.17
   2   7  -2    0.11    0.28
  -2  -7   2    0.67    0.55
  -2  -7   2    0.54    0.40
   1   7  -2  182.12    5.86
   1   7  -2  180.81    5.77
   1   7  -2  181.15    4.88
  -1  -7   2  177.42    5.83
  -1  -7   2  182.93    5.88
   0   7  -2    3.87    0.82
   0   7  -2    4.79    0.93
   0   7  -2    4.47    0.53
   0   7  -2    3.71    0.51
   0  -7   2    4.03    0.89
   0  -7   2    4.91    0.95
  -1   7  -2  119.63    4.56
  -1   7  -2  120.96    3.98
  -1   7  -2  119.39    4.54
  -1   7  -2  119.47    3.11
   1  -7   2  116.98    3.54
   1  -7   2  123.24    4.54
   1  -7   2  111.97    4.39
  -2   7  -2   19.91    1.71
  -2   7  -2   20.84    1.42
  -2   7  -2   20.21    1.04
  -2   7  -2   18.16    1.67
  -2   7  -2   19.73    0.94
   2  -7   2   20.54    1.71
   2  -7   2   20.25    1.31
  -3   7  -2   37.38    2.53
  -3   7  -2   41.70    2.67
  -3   7  -2   37.26    2.03
  -3   7  -2   34.68    1.68
   3  -7   2   36.30    2.39
   3  -7   2   40.95    2.06
  -4   7  -2   44.52    3.05
  -4   7  -2   40.27    2.17
  -4   7  -2   39.87    2.79
   4  -7   2   38.63    2.61
   4  -7   2   47.46    2.42
  -5   7  -2    7.31    1.62
  -5   7  -2    8.17    1.24
  -5   7  -2    4.65    1.39
   5  -7   2    5.20    1.30
   5  -7   2    5.88    1.24
   9   6  -2   32.76    2.48
   9   6  -2   29.85    2.46
   9   6  -2   28.26    2.22
   9   6  -2   32.01    2.20
  -9  -6   2   35.99    2.81
  -9  -6   2   36.11    2.56
   8   6  -2    3.91    1.03
   8   6  -2    3.80    0.84
   8   6  -2    3.84    0.92
   8   6  -2    5.68    1.03
  -8  -6   2    5.14    1.09
  -8  -6   2    3.60    1.05
   7   6  -2   89.11    3.30
   7   6  -2   90.20    3.40
   7   6  -2   89.12    3.90
   7   6  -2   84.79    3.52
  -7  -6   2   83.37    3.91
  -7  -6   2   88.72    4.04
  -7  -6   2  100.65    5.52
   6   6  -2    3.19    0.65
   6   6  -2    2.22    0.51
   6   6  -2    2.40    0.71
   6   6  -2    3.54    0.74
  -6  -6   2    1.67    0.58
  -6  -6   2    2.88    0.75
   5   6  -2  133.77    3.68
   5   6  -2  131.41    4.35
   5   6  -2  130.84    4.32
   5   6  -2  130.20    4.55
   5   6  -2  129.58    4.42
  -5  -6   2  128.82    4.48
  -5  -6   2  140.83    4.67
  -5  -6   2  125.49    4.72
   4   6  -2    0.99    0.41
   4   6  -2    1.85    0.54
   4   6  -2    0.85    0.28
   4   6  -2    1.78    0.50
  -4  -6   2    1.10    0.36
  -4  -6   2    0.31    0.37
  -4  -6   2    1.04    0.43
  -4  -6   2    1.11    0.29
  -4  -6   2    0.77    0.44
   3   6  -2  111.39    3.72
   3   6  -2  115.94    3.86
   3   6  -2  119.21    3.22
  -3  -6   2  117.67    4.16
  -3  -6   2  112.38    3.22
  -3  -6   2  115.76    4.10
  -3  -6   2  108.14    4.00
   2   6  -2   44.35    1.45
   2   6  -2   43.90    2.03
   2   6  -2   43.40    2.11
  -2  -6   2   49.01    2.32
  -2  -6   2   42.18    1.48
  -2  -6   2   40.07    2.15
  -2  -6   2   42.50    2.17
   1   6  -2   93.60    3.50
   1   6  -2   85.31    3.28
   1   6  -2   88.51    2.32
  -1  -6   2   91.89    3.46
  -1  -6   2   88.32    3.43
   0   6  -2   88.27    3.04
   0   6  -2   85.67    3.35
   0   6  -2   83.15    2.29
   0   6  -2   84.95    3.45
   0  -6   2   86.01    3.39
   0  -6   2   90.65    3.00
   0  -6   2   87.95    3.38
  -1   6  -2   36.72    1.46
  -1   6  -2   40.17    2.21
  -1   6  -2   35.12    2.06
  -1   6  -2   37.13    1.26
  -1   6  -2   41.13    1.41
   1  -6   2   37.57    2.09
   1  -6   2   39.20    1.57
   1  -6   2   37.46    2.10
  -2   6  -2   88.07    3.15
  -2   6  -2   92.39    3.78
  -2   6  -2   89.53    3.78
  -2   6  -2   89.60    2.65
   2  -6   2   90.87    3.10
   2  -6   2   98.32    4.03
  -3   6  -2    5.54    0.87
  -3   6  -2    6.00    1.14
  -3   6  -2    5.89    1.20
  -3   6  -2    4.03    0.61
   3  -6   2    4.95    0.98
   3  -6   2    4.53    0.79
  -4   6  -2   71.75    3.55
  -4   6  -2   76.95    3.82
  -4   6  -2   74.49    2.98
   4  -6   2   78.85    4.86
   4  -6   2   67.21    3.07
  -5   6  -2   -0.49    0.89
  -5   6  -2    0.52    0.59
   5  -6   2   -0.01    0.71
   5  -6   2    0.31    0.66
  -6   6  -2   31.09    2.78
  -6   6  -2   34.23    2.85
  -6   6  -2   33.69    2.21
   6  -6   2   37.93    2.62
   6  -6   2   36.03    2.81
   9   5  -2   37.60    2.52
   9   5  -2   46.42    2.93
   9   5  -2   39.26    2.56
   9   5  -2   42.44    2.52
  -9  -5   2   43.83    2.79
  -9  -5   2   41.28    2.90
   8   5  -2    0.35    0.67
   8   5  -2    0.36    0.62
   8   5  -2    0.28    0.56
   8   5  -2    0.63    0.44
  -8  -5   2    0.85    0.60
  -8  -5   2    0.54    0.81
   7   5  -2   83.45    3.30
   7   5  -2   88.17    3.87
   7   5  -2   94.08    3.45
   7   5  -2   87.51    3.53
  -7  -5   2   85.68    3.95
  -7  -5   2   89.66    3.72
   6   5  -2    6.56    1.07
   6   5  -2    5.00    0.77
   6   5  -2    5.14    0.80
  -6  -5   2    6.60    0.96
  -6  -5   2    4.73    1.02
  -6  -5   2    3.33    0.76
   5   5  -2  161.90    5.01
   5   5  -2  165.20    5.26
   5   5  -2  164.29    4.77
  -5  -5   2  167.26    5.22
  -5  -5   2  154.45    5.04
  -5  -5   2  162.50    5.40
   4   5  -2   49.77    1.82
   4   5  -2   45.88    2.16
   4   5  -2   46.26    2.03
   4   5  -2   49.40    2.11
  -4  -5   2   45.73    2.27
  -4  -5   2   46.93    2.19
  -4  -5   2   44.13    2.10
  -4  -5   2   46.04    1.75
  -4  -5   2   46.78    1.65
   3   5  -2  124.34    3.45
   3   5  -2  123.13    3.89
  -3  -5   2  123.85    4.09
  -3  -5   2  127.73    4.17
  -3  -5   2  128.75    4.76
  -3  -5   2  122.17    3.43
   2   5  -2  190.57    5.42
   2   5  -2  185.75    5.77
   2   5  -2  191.94    4.78
  -2  -5   2  191.40    5.72
  -2  -5   2  192.09    4.87
  -2  -5   2  190.01    5.45
  -2  -5   2  198.36    5.75
  -2  -5   2  185.75    5.73
   1   5  -2   86.53    3.17
   1   5  -2   77.76    2.91
   1   5  -2   77.64    2.90
   1   5  -2   84.08    2.24
  -1  -5   2   87.52    3.16
  -1  -5   2   81.84    2.81
  -1  -5   2   82.34    3.12
   0   5  -2  217.60    6.47
   0   5  -2  236.10    6.15
   0   5  -2  234.52    6.74
   0   5  -2  223.03    5.59
   0  -5   2  228.81    5.66
   0  -5   2  240.73    6.64
   0  -5   2  224.51    7.02
   0  -5   2  228.25    6.63
  -1   5  -2   16.20    1.00
  -1   5  -2   14.98    1.20
  -1   5  -2   15.09    0.72
  -1   5  -2   15.13    0.79
  -1   5  -2   15.80    0.71
  -1   5  -2   16.61    1.28
   1  -5   2   14.88    1.18
   1  -5   2   14.73    1.21
   1  -5   2   15.57    0.89
   1  -5   2   16.35    1.10
  -2   5  -2  142.35    4.15
  -2   5  -2  135.25    3.38
  -2   5  -2  142.04    4.74
  -2   5  -2  131.79    3.68
  -2   5  -2  134.22    4.74
   2  -5   2  136.06    4.64
   2  -5   2  138.55    4.12
   2  -5   2  145.17    5.16
   2  -5   2  126.87    4.22
  -3   5  -2    0.18    0.46
  -3   5  -2    0.32    0.35
  -3   5  -2   -0.01    0.28
  -3   5  -2    0.17    0.42
   3  -5   2    0.19    0.34
   3  -5   2   -0.08    0.28
  -4   5  -2   64.50    3.26
  -4   5  -2   54.26    2.38
  -4   5  -2   56.97    2.95
   4  -5   2   59.58    2.69
   4  -5   2   57.82    2.91
  -5   5  -2    7.39    1.01
  -5   5  -2    7.14    1.28
   5  -5   2    3.98    1.05
  -6   5  -2   25.51    2.06
   6  -5   2   28.72    2.19
   6  -5   2   34.41    2.50
   9   4  -2   54.48    2.92
   9   4  -2   56.10    3.12
   9   4  -2   54.61    3.02
   9   4  -2   58.25    3.35
  -9  -4   2   55.51    3.37
  -9  -4   2   58.16    3.28
   8   4  -2    4.93    0.92
   8   4  -2    4.59    0.48
   8   4  -2    5.64    1.10
   8   4  -2    4.20    0.95
  -8  -4   2    5.26    1.00
  -8  -4   2    5.55    1.23
   7   4  -2   95.30    3.76
   7   4  -2  102.90    3.71
   7   4  -2   99.29    4.05
  -7  -4   2  104.03    4.30
  -7  -4   2   97.13    3.93
   6   4  -2   56.01    2.64
   6   4  -2   49.61    2.35
   6   4  -2   55.45    2.33
  -6  -4   2   57.42    2.59
  -6  -4   2   47.89    2.32
  -6  -4   2   54.19    2.74
   5   4  -2  109.74    3.80
   5   4  -2  103.56    3.54
   5   4  -2  100.56    3.40
  -5  -4   2   99.71    3.54
  -5  -4   2   98.20    3.60
  -5  -4   2  100.87    3.81
   4   4  -2  184.84    5.02
   4   4  -2  180.25    5.44
   4   4  -2  185.74    5.25
   4   4  -2  183.39    5.32
  -4  -4   2  186.35    4.36
  -4  -4   2  182.29    4.96
  -4  -4   2  188.42    5.50
  -4  -4   2  182.76    5.36
  -4  -4   2  183.99    5.95
   3   4  -2   74.48    2.26
   3   4  -2   69.80    2.63
  -3  -4   2   72.29    2.24
  -3  -4   2   75.65    2.74
  -3  -4   2   72.03    2.17
  -3  -4   2   69.33    2.69
  -3  -4   2   69.16    2.60
   2   4  -2  242.22    6.12
   2   4  -2  244.60    7.17
   2   4  -2  252.26    6.77
   2   4  -2  253.51    6.58
  -2  -4   2  246.65    6.16
  -2  -4   2  251.37    6.85
  -2  -4   2  257.28    6.87
  -2  -4   2  259.00    6.69
  -2  -4   2  254.68    6.90
   1   4  -2    0.46    0.25
   1   4  -2    0.57    0.16
   1   4  -2    1.16    0.40
  -1  -4   2    0.40    0.29
  -1  -4   2    1.48    0.42
  -1  -4   2    1.49    0.46
   0   4  -2  349.67    8.38
   0   4  -2  357.56    9.30
   0   4  -2  344.65    8.96
   0   4  -2  352.69    8.69
   0   4  -2  328.37    8.98
   0  -4   2  351.03    9.20
   0  -4   2  364.59    9.14
   0  -4   2  366.06    8.37
   0  -4   2  345.17    8.73
  -1   4  -2    2.99    0.56
  -1   4  -2    3.05    0.47
  -1   4  -2    2.34    0.55
  -1   4  -2    1.83    0.47
   1  -4   2    1.89    0.41
   1  -4   2    3.08    0.86
   1  -4   2    2.39    0.41
   1  -4   2    2.43    0.49
   1  -4   2    3.34    0.63
  -2   4  -2  195.54    5.24
  -2   4  -2  190.97    5.36
  -2   4  -2  191.84    4.95
  -2   4  -2  187.69    5.86
  -2   4  -2  203.87    5.89
   2  -4   2  181.95    5.33
   2  -4   2  194.79    5.34
  -3   4  -2    9.02    0.73
  -3   4  -2   10.63    1.06
  -3   4  -2    8.64    0.78
  -3   4  -2    9.83    0.60
   3  -4   2   11.36    1.05
  -4   4  -2   80.52    3.41
  -4   4  -2   76.99    2.81
   4  -4   2   78.23    3.13
   4  -4   2   76.17    3.23
  -5   4  -2   14.61    1.17
  -5   4  -2   17.78    1.65
   5  -4   2   17.36    1.53
   5  -4   2   16.53    1.57
  -6   4  -2   18.13    2.12
  -6   4  -2   16.23    1.36
   6  -4   2   17.29    1.71
   6  -4   2   11.84    1.70
  -7   4  -2   14.85    2.03
  -7   4  -2   17.93    1.60
   7  -4   2   14.39    1.94
   7  -4   2   15.27    2.00
   9   3  -2   47.93    2.84
   9   3  -2   40.73    2.77
   9   3  -2   47.96    2.67
  -9  -3   2   45.52    3.03
  -9  -3   2   43.47    2.82
   8   3  -2   33.39    2.16
   8   3  -2   34.28    1.29
   8   3  -2   33.51    2.29
   8   3  -2   37.37    2.13
  -8  -3   2   28.83    2.12
  -8  -3   2   32.57    2.38
   7   3  -2   67.38    2.98
   7   3  -2   67.55    3.15
   7   3  -2   67.16    2.84
  -7  -3   2   67.05    3.29
  -7  -3   2   67.23    3.09
   6   3  -2   80.91    3.03
   6   3  -2   87.18    3.39
   6   3  -2   81.02    3.16
  -6  -3   2   84.03    3.49
  -6  -3   2   81.50    3.26
  -6  -3   2   79.67    3.19
   5   3  -2   62.89    2.35
   5   3  -2   60.38    2.46
   5   3  -2   62.98    2.64
  -5  -3   2   61.61    2.54
  -5  -3   2   64.35    2.74
  -5  -3   2   56.58    2.44
   4   3  -2  120.94    3.86
   4   3  -2  113.48    3.74
   4   3  -2  118.79    3.75
   4   3  -2  117.39    3.54
  -4  -3   2  122.14    3.78
  -4  -3   2  123.24    3.98
  -4  -3   2  120.13    3.51
  -4  -3   2  123.98    3.85
   3   3  -2    4.41    0.56
   3   3  -2    5.15    0.77
   3   3  -2    6.95    0.82
   3   3  -2    4.79    0.47
   3   3  -2    5.19    0.67
  -3  -3   2    4.12    0.48
  -3  -3   2    4.51    0.62
  -3  -3   2    4.90    0.46
  -3  -3   2    4.68    0.61
  -3  -3   2    5.26    0.73
  -3  -3   2    5.47    0.41
   2   3  -2  258.19    6.82
   2   3  -2  256.05    6.51
   2   3  -2  260.11    6.32
   2   3  -2  259.68    6.76
   2   3  -2  259.86    6.13
  -2  -3   2  254.34    6.78
  -2  -3   2  263.10    6.32
  -2  -3   2  255.70    6.43
  -2  -3   2  253.67    6.39
  -2  -3   2  262.90    6.81
  -2  -3   2  261.65    6.87
   1   3  -2   11.79    0.57
   1   3  -2   13.68    0.92
   1   3  -2   11.50    0.84
   1   3  -2   12.92    0.78
   1   3  -2   12.06    0.45
  -1  -3   2   12.66    0.63
  -1  -3   2   11.79    0.74
  -1  -3   2   11.75    0.85
  -1  -3   2   11.12    0.86
   0   3  -2  318.54    8.21
   0   3  -2  321.43    8.23
   0   3  -2  325.04    7.93
   0   3  -2  318.52    8.49
   0   3  -2  326.92    7.81
   0  -3   2  327.58    8.43
   0  -3   2  337.23    8.00
   0  -3   2  321.24    8.30
   0  -3   2  333.94    7.75
  -1   3  -2   44.67    1.91
  -1   3  -2   44.48    1.54
  -1   3  -2   45.75    1.94
  -1   3  -2   42.48    1.77
   1  -3   2   45.46    1.85
   1  -3   2   43.11    1.88
   1  -3   2   42.17    1.54
   1  -3   2   44.21    1.89
   1  -3   2   44.03    1.60
  -2   3  -2  254.75    6.26
  -2   3  -2  263.92    7.09
  -2   3  -2  259.76    6.38
  -2   3  -2  252.41    6.88
  -2   3  -2  256.09    6.49
   2  -3   2  264.90    7.60
   2  -3   2  255.16    6.69
   2  -3   2  262.05    6.98
   2  -3   2  252.11    6.99
   2  -3   2  244.53    6.59
  -3   3  -2   27.89    1.64
  -3   3  -2   26.92    1.28
  -3   3  -2   27.91    1.14
   3  -3   2   27.84    1.58
   3  -3   2   29.31    1.59
   3  -3   2   28.90    1.54
  -4   3  -2   50.81    2.01
  -4   3  -2   55.82    3.60
  -4   3  -2   48.41    2.40
  -4   3  -2   48.52    1.81
   4  -3   2   49.48    1.91
   4  -3   2   45.71    2.23
   4  -3   2   53.12    2.39
  -5   3  -2   26.09    1.89
  -5   3  -2   29.29    1.57
  -5   3  -2   28.26    1.98
   5  -3   2   26.98    1.84
   5  -3   2   28.74    1.50
   5  -3   2   31.11    1.93
  -6   3  -2    8.36    1.09
  -6   3  -2    7.96    1.41
  -6   3  -2    8.14    1.38
   6  -3   2    5.56    1.07
   6  -3   2    7.52    0.92
   6  -3   2    6.73    1.19
  -7   3  -2   19.51    1.77
  -7   3  -2   27.93    2.29
  -7   3  -2   24.26    2.22
   7  -3   2   23.64    1.70
   7  -3   2   18.37    3.18
   7  -3   2   22.31    2.02
   9   2  -2   24.87    2.02
   9   2  -2   17.34    1.66
   9   2  -2   22.29    2.07
  -9  -2   2   19.63    1.96
  -9  -2   2   22.26    2.14
   8   2  -2   60.19    3.07
   8   2  -2   65.69    2.95
   8   2  -2   59.53    2.00
   8   2  -2   60.28    3.03
   8   2  -2   60.05    1.97
  -8  -2   2   59.01    3.26
   7   2  -2   10.28    0.69
   7   2  -2   11.57    1.10
   7   2  -2   10.91    0.68
   7   2  -2   12.57    1.21
   7   2  -2   11.82    1.26
  -7  -2   2    8.39    1.27
  -7  -2   2   12.01    1.50
   6   2  -2  159.46    5.16
   6   2  -2  158.07    5.03
   6   2  -2  158.26    4.88
   6   2  -2  157.90    4.03
  -6  -2   2  150.03    4.99
  -6  -2   2  161.26    5.15
  -6  -2   2  160.88    5.37
   5   2  -2    0.36    0.27
   5   2  -2    0.26    0.16
   5   2  -2    0.24    0.23
   5   2  -2    0.34    0.29
  -5  -2   2    0.44    0.29
  -5  -2   2    0.15    0.36
  -5  -2   2    0.35    0.29
   4   2  -2  258.94    6.87
   4   2  -2  259.50    6.11
   4   2  -2  253.40    6.91
   4   2  -2  259.22    6.68
   4   2  -2  253.16    6.84
  -4  -2   2  262.19    6.88
  -4  -2   2  257.42    6.91
  -4  -2   2  244.22    6.57
  -4  -2   2  260.99    7.08
   3   2  -2   53.04    1.98
   3   2  -2   53.92    1.81
   3   2  -2   51.88    1.95
   3   2  -2   52.27    1.94
  -3  -2   2   49.97    1.99
  -3  -2   2   51.96    1.72
  -3  -2   2   52.23    1.76
  -3  -2   2   52.23    1.98
  -3  -2   2   53.69    1.48
  -3  -2   2   53.63    1.95
   2   2  -2  305.16    7.15
   2   2  -2  298.99    7.15
   2   2  -2  287.13    7.41
   2   2  -2  288.57    7.34
  -2  -2   2  295.13    7.41
  -2  -2   2  294.41    7.39
  -2  -2   2  293.18    7.11
  -2  -2   2  289.37    7.06
  -2  -2   2  292.35    7.09
  -2  -2   2  300.34    7.48
   1   2  -2  118.86    3.43
   1   2  -2  119.98    3.43
   1   2  -2  114.80    3.13
   1   2  -2  126.79    3.30
   1   2  -2  114.38    3.03
  -1  -2   2  113.75    3.41
  -1  -2   2  112.81    3.41
  -1  -2   2  115.49    3.07
  -1  -2   2  115.21    3.05
   0   2  -2  227.35    6.00
   0   2  -2  223.73    5.82
   0   2  -2  233.47    5.56
   0   2  -2  223.40    5.73
   0  -2   2  228.53    5.54
   0  -2   2  215.95    5.93
   0  -2   2  227.11    5.88
  -1   2  -2  121.83    3.55
  -1   2  -2  121.72    3.65
  -1   2  -2  121.11    3.21
   1  -2   2  128.44    3.61
   1  -2   2  120.23    3.58
   1  -2   2  123.76    3.36
   1  -2   2  127.32    3.67
   1  -2   2  124.01    3.28
  -2   2  -2   93.08    3.01
  -2   2  -2   95.79    2.70
  -2   2  -2   94.62    3.13
  -2   2  -2   96.68    2.69
   2  -2   2   91.91    3.07
   2  -2   2   95.46    3.14
   2  -2   2   95.43    3.05
   2  -2   2   94.98    2.80
   2  -2   2   99.68    2.98
  -3   2  -2   74.40    2.31
  -3   2  -2   73.44    2.38
  -3   2  -2   91.46    3.89
  -3   2  -2   73.70    2.75
  -3   2  -2   74.61    2.79
  -3   2  -2   72.63    2.34
   3  -2   2   72.34    2.65
   3  -2   2   71.24    2.68
   3  -2   2   73.79    2.38
   3  -2   2   70.85    2.66
  -4   2  -2   37.07    1.59
  -4   2  -2   35.71    1.52
  -4   2  -2   38.45    1.98
  -4   2  -2   36.13    1.53
  -4   2  -2   35.51    1.91
   4  -2   2   36.01    1.58
   4  -2   2   38.06    1.90
   4  -2   2   36.45    1.86
  -5   2  -2   49.16    2.44
  -5   2  -2   42.75    2.34
   5  -2   2   46.55    2.37
   5  -2   2   46.94    2.32
   5  -2   2   44.80    1.96
  -6   2  -2    9.76    1.30
  -6   2  -2   12.19    1.09
  -6   2  -2    8.10    1.26
   6  -2   2    9.97    1.43
   6  -2   2   13.23    1.33
   6  -2   2   11.43    1.01
  -7   2  -2   33.38    2.40
  -7   2  -2   30.05    2.45
  -7   2  -2   33.15    1.94
   7  -2   2   30.94    2.26
   7  -2   2   33.08    1.95
   7  -2   2   30.58    2.25
  -8   2  -2    1.24    0.83
  -8   2  -2    1.28    0.94
  -8   2  -2   -0.58    0.87
   8  -2   2   -0.04    0.80
   8  -2   2    0.20    0.95
   8  -2   2    0.76    0.77
   9   1  -2    8.15    1.51
   9   1  -2    4.35    1.12
  -9  -1   2    5.37    1.29
  -9  -1   2    2.54    0.99
   8   1  -2   78.11    3.51
   8   1  -2   70.49    3.40
   8   1  -2   76.45    2.72
   8   1  -2   75.69    3.32
  -8  -1   2   75.98    3.79
  -8  -1   2   73.10    3.61
   7   1  -2   -0.06    0.35
   7   1  -2   -0.24    0.21
   7   1  -2   -0.38    0.37
   7   1  -2    0.20    0.44
   7   1  -2    0.10    0.38
  -7  -1   2   -0.06    0.47
  -7  -1   2    0.78    0.49
   6   1  -2  181.08    5.59
   6   1  -2  174.68    5.33
   6   1  -2  179.25    5.53
   6   1  -2  174.35    4.69
   6   1  -2  173.76    4.65
  -6  -1   2  180.18    5.62
  -6  -1   2  180.42    5.83
   5   1  -2   21.69    1.35
   5   1  -2   23.18    0.98
   5   1  -2   24.93    1.33
  -5  -1   2   23.01    2.03
  -5  -1   2   20.13    1.32
  -5  -1   2   24.23    1.52
   4   1  -2  302.24    8.00
   4   1  -2  310.45    7.78
   4   1  -2  306.14    7.93
   4   1  -2  302.81    7.91
   4   1  -2  303.35    7.29
  -4  -1   2  302.90    7.71
  -4  -1   2  298.39    8.10
  -4  -1   2  305.26    7.93
  -4  -1   2  308.86    7.98
   3   1  -2   68.26    2.25
   3   1  -2   66.93    1.83
   3   1  -2   61.47    2.17
   3   1  -2   61.74    2.07
   3   1  -2   64.37    2.20
  -3  -1   2   63.44    2.21
  -3  -1   2   64.13    2.06
  -3  -1   2   62.20    1.98
  -3  -1   2   68.28    2.32
  -3  -1   2   64.87    2.20
   2   1  -2  222.08    5.73
   2   1  -2  230.24    5.47
   2   1  -2  226.80    5.70
   2   1  -2  223.44    5.59
  -2  -1   2  226.80    5.44
  -2  -1   2  228.21    5.43
  -2  -1   2  224.49    5.74
  -2  -1   2  221.41    5.56
  -2  -1   2  226.44    5.78
  -2  -1   2  230.80    5.76
   1   1  -2  274.20    6.81
   1   1  -2  278.09    6.47
   1   1  -2  280.05    6.59
   1   1  -2  277.61    6.54
  -1  -1   2  269.62    6.67
  -1  -1   2  282.51    6.85
  -1  -1   2  275.04    6.44
  -1  -1   2  274.52    6.59
  -1  -1   2  270.53    6.66
   0   1  -2  184.28    5.00
   0   1  -2  182.87    4.62
   0   1  -2  190.54    4.91
   0   1  -2  182.16    4.60
   0   1  -2  184.79    4.55
   0  -1   2  188.31    4.82
   0  -1   2  185.59    4.58
   0  -1   2  189.79    4.91
   0  -1   2  187.62    4.47
  -1   1  -2   80.80    2.39
  -1   1  -2   81.84    2.48
  -1   1  -2   80.51    2.42
  -1   1  -2   78.64    2.04
   1  -1   2   79.17    2.36
   1  -1   2   80.47    2.40
   1  -1   2   76.74    2.08
   1  -1   2   75.46    2.41
   1  -1   2   75.94    2.44
  -2   1  -2   39.09    1.52
  -2   1  -2   36.85    1.33
  -2   1  -2   35.70    1.47
  -2   1  -2   38.26    1.24
  -2   1  -2   36.23    1.53
   2  -1   2   38.62    1.50
   2  -1   2   35.34    1.49
   2  -1   2   39.48    1.51
   2  -1   2   37.67    1.55
  -3   1  -2   25.59    1.34
  -3   1  -2   25.91    1.32
  -3   1  -2   26.56    1.10
  -3   1  -2   26.84    1.39
  -3   1  -2   23.38    1.11
   3  -1   2   25.30    1.30
   3  -1   2   24.40    1.35
   3  -1   2   25.01    1.30
   3  -1   2   26.47    1.18
   3  -1   2   25.26    1.31
  -4   1  -2    4.46    0.60
  -4   1  -2    4.28    0.75
  -4   1  -2    3.73    0.50
  -4   1  -2    4.78    0.61
  -4   1  -2    4.23    0.71
  -4   1  -2    6.89    1.26
  -4   1  -2    5.73    0.66
   4  -1   2    5.11    0.84
   4  -1   2    4.00    0.65
   4  -1   2    5.11    0.66
  -5   1  -2   25.05    1.21
  -5   1  -2   24.89    1.39
  -5   1  -2   25.57    1.38
  -5   1  -2   27.63    1.72
  -5   1  -2   24.03    1.59
   5  -1   2   28.04    1.62
   5  -1   2   27.52    1.70
   5  -1   2   26.91    1.45
  -6   1  -2    0.90    0.52
  -6   1  -2    0.42    0.46
  -6   1  -2    0.54    0.42
   6  -1   2    1.76    0.69
   6  -1   2    1.28    0.50
   6  -1   2    0.98    0.48
  -7   1  -2   31.40    2.22
  -7   1  -2   31.55    1.86
  -7   1  -2   27.35    2.13
   7  -1   2   33.27    2.30
   7  -1   2   29.31    2.05
   7  -1   2   33.44    1.93
  -8   1  -2    1.50    0.77
  -8   1  -2    1.44    0.94
  -8   1  -2    2.42    0.77
   8  -1   2    1.62    0.78
   8  -1   2    1.08    0.88
   8  -1   2    2.40    0.89
   9   0  -2   -0.34    0.86
   9   0  -2   -0.27    0.68
  -9   0   2   -0.09    0.82
  -9   0   2    0.76    0.84
  -9   0   2    0.79    0.80
   8   0  -2   69.79    3.30
   8   0  -2   63.23    3.02
  -8   0   2   64.60    3.39
  -8   0   2   64.19    3.47
   7   0  -2   10.32    0.98
   7   0  -2   10.75    1.13
   7   0  -2   12.47    1.37
   7   0  -2   12.22    1.19
  -7   0   2   11.60    1.61
  -7   0   2   11.50    1.22
   6   0  -2   76.81    2.93
   6   0  -2   76.61    3.08
   6   0  -2   77.01    2.56
   6   0  -2   74.46    2.39
   6   0  -2   71.09    2.92
  -6   0   2   72.19    3.23
  -6   0   2   71.35    3.03
   5   0  -2   51.33    2.30
   5   0  -2   53.95    2.32
   5   0  -2   54.39    2.20
   5   0  -2   55.41    2.34
   5   0  -2   57.97    1.89
   5   0  -2   57.85    1.97
  -5   0   2   55.50    2.51
  -5   0   2   61.91    2.49
  -5   0   2   53.14    2.28
   4   0  -2   88.11    2.89
   4   0  -2   91.44    3.12
   4   0  -2   93.75    3.06
   4   0  -2   90.97    2.66
   4   0  -2   91.73    3.04
   4   0  -2   91.73    3.04
  -4   0   2   90.63    2.86
  -4   0   2   86.00    3.14
  -4   0   2   96.45    3.45
  -4   0   2   93.02    3.03
   3   0  -2  161.71    4.49
   3   0  -2  161.06    4.43
   3   0  -2  153.27    4.30
   3   0  -2  159.96    4.10
   3   0  -2  162.07    4.47
  -3   0   2  166.82    4.60
  -3   0   2  168.18    4.50
  -3   0   2  156.47    4.27
  -3   0   2  163.20    4.44
   2   0  -2  148.42    3.93
   2   0  -2  144.92    3.82
   2   0  -2  148.48    3.70
   2   0  -2  149.62    3.90
  -2   0   2  153.23    4.22
  -2   0   2  146.46    3.71
  -2   0   2  142.99    3.90
  -2   0   2  146.51    3.93
  -2   0   2  148.62    3.80
   1   0  -2  148.90    3.70
   1   0  -2  152.81    3.84
   1   0  -2  153.25    3.76
   1   0  -2  145.65    3.75
  -1   0   2  155.14    3.90
  -1   0   2  148.73    3.84
  -1   0   2  151.17    3.77
  -1   0   2  150.89    3.51
  -1   0   2  151.00    3.73
  -1   0   2  152.03    3.85
   0   0  -2   44.25    1.39
   0   0  -2   44.61    1.45
   0   0  -2   44.16    1.51
   0   0  -2   45.60    1.42
   0   0   2   43.38    1.39
   0   0   2   44.78    1.41
   0   0   2   42.00    1.35
   0   0   2   43.45    1.43
   0   0   2   42.83    1.43
  -1   0  -2  304.06    7.16
  -1   0  -2  303.39    6.91
  -1   0  -2  309.44    7.34
  -1   0  -2  298.93    7.30
  -1   0  -2  310.43    7.32
  -1   0  -2  300.23    7.28
   1   0   2  293.64    7.27
   1   0   2  296.09    7.30
   1   0   2  313.79    7.34
   1   0   2  300.50    7.32
   1   0   2  310.58    7.20
  -2   0  -2   33.22    1.25
  -2   0  -2   35.62    1.32
  -2   0  -2   34.16    1.34
  -2   0  -2   35.21    1.21
   2   0   2   33.69    1.29
   2   0   2   33.73    1.28
   2   0   2   34.94    1.36
   2   0   2   33.19    1.31
   2   0   2   34.76    1.34
  -3   0  -2  197.44    5.29
  -3   0  -2  192.83    5.28
  -3   0  -2  199.36    5.13
  -3   0  -2  182.94    5.02
  -3   0  -2  200.08    5.25
   3   0   2  187.29    5.29
   3   0   2  194.59    5.23
   3   0   2  192.66    5.13
   3   0   2  191.92    5.33
   3   0   2  195.44    5.21
  -4   0  -2   12.91    1.01
  -4   0  -2   12.85    0.68
  -4   0  -2   13.90    0.98
  -4   0  -2   14.50    1.02
  -4   0  -2   13.51    0.91
  -4   0  -2   12.19    0.79
  -4   0  -2   11.96    0.83
   4   0   2   11.54    0.90
   4   0   2   12.55    1.06
   4   0   2   12.86    0.89
   4   0   2   12.47    1.15
   4   0   2   13.50    1.00
  -5   0  -2  132.32    4.31
  -5   0  -2  125.19    4.18
  -5   0  -2  127.58    3.90
  -5   0  -2  129.04    4.33
  -5   0  -2  124.78    3.50
  -5   0  -2  122.72    3.96
   5   0   2  127.47    4.31
   5   0   2  127.42    4.04
   5   0   2  128.08    4.16
  -6   0  -2   19.20    1.57
  -6   0  -2   20.12    1.53
  -6   0  -2   20.66    1.31
   6   0   2   19.70    1.35
   6   0   2   19.87    1.58
   6   0   2   20.83    1.50
  -7   0  -2   73.33    3.38
  -7   0  -2   75.01    3.03
  -7   0  -2   82.10    5.29
   7   0   2   75.42    3.16
   7   0   2   70.82    3.24
   7   0   2   67.67    3.34
  -8   0  -2   14.31    1.90
  -8   0  -2   10.46    1.60
  -8   0  -2   14.11    1.40
   8   0   2   17.24    1.70
   8   0   2   15.77    1.55
   8   0   2   16.48    1.74
  -9   0  -2   32.27    2.59
  -9   0  -2   28.32    2.93
  -9   0  -2   27.07    2.09
   9   0   2   31.65    2.32
   9   0   2   33.69    2.69
   9   0   2   33.59    2.69
   9  -1  -2    4.21    1.36
   9  -1  -2    6.47    1.23
  -9   1   2    6.44    1.30
  -9   1   2    4.09    1.23
  -9   1   2    3.97    2.16
   8  -1  -2   44.01    2.66
   8  -1  -2   42.90    2.37
   8  -1  -2   41.73    2.41
  -8   1   2   40.07    2.56
  -8   1   2   40.07    2.64
  -8   1   2   46.19    2.96
   7  -1  -2   25.71    1.72
   7  -1  -2   24.17    1.82
   7  -1  -2   24.28    1.66
  -7   1   2   26.74    1.92
  -7   1   2   26.89    1.93
   6  -1  -2   44.11    2.06
   6  -1  -2   39.54    1.99
   6  -1  -2   43.92    2.23
   6  -1  -2   39.06    1.83
  -6   1   2   42.10    2.22
  -6   1   2   43.25    2.42
   5  -1  -2   96.23    3.24
   5  -1  -2   94.23    2.87
   5  -1  -2   97.50    3.29
   5  -1  -2   95.69    3.20
   5  -1  -2   96.10    3.42
   5  -1  -2   87.43    3.29
  -5   1   2   93.47    3.40
  -5   1   2   95.78    3.62
   4  -1  -2   59.23    2.05
   4  -1  -2   60.44    2.17
   4  -1  -2   56.18    2.25
   4  -1  -2   61.35    1.96
   4  -1  -2   60.23    2.32
   4  -1  -2   59.50    2.36
   4  -1  -2   59.65    2.21
  -4   1   2   63.36    2.37
  -4   1   2   61.69    2.49
  -4   1   2   56.72    2.09
   3  -1  -2  133.46    3.78
   3  -1  -2  139.77    3.95
   3  -1  -2  142.70    3.96
   3  -1  -2  141.43    3.75
   3  -1  -2  138.70    4.00
  -3   1   2  134.38    3.76
  -3   1   2  138.57    3.99
  -3   1   2  134.47    3.89
  -3   1   2  136.20    4.07
   2  -1  -2   44.40    1.70
   2  -1  -2   45.38    1.50
   2  -1  -2   43.95    1.55
   2  -1  -2   44.94    1.46
   2  -1  -2   46.28    1.58
  -2   1   2   46.05    1.55
  -2   1   2   45.07    1.47
  -2   1   2   45.34    1.62
  -2   1   2   46.32    1.58
   1  -1  -2   85.63    2.29
   1  -1  -2   84.32    2.28
   1  -1  -2   83.04    2.27
   1  -1  -2   84.54    2.26
   1  -1  -2   86.72    2.25
  -1   1   2   82.40    2.27
  -1   1   2   84.46    2.30
  -1   1   2   84.76    2.28
  -1   1   2   84.96    2.28
   0  -1  -2    8.70    0.41
   0  -1  -2    8.96    0.50
   0  -1  -2    8.93    0.31
   0  -1  -2    9.36    0.49
   0  -1  -2    9.21    0.27
   0  -1  -2    8.68    0.35
   0  -1  -2    9.52    0.41
   0  -1  -2    9.00    0.46
   0   1   2    8.86    0.52
   0   1   2    9.20    0.42
   0   1   2    9.10    0.48
   0   1   2    8.59    0.30
   0   1   2    8.89    0.37
  -1  -1  -2  233.37    5.56
  -1  -1  -2  237.11    5.75
  -1  -1  -2  238.42    5.50
  -1  -1  -2  238.98    5.58
  -1  -1  -2  233.05    5.75
   1   1   2  236.27    5.52
   1   1   2  233.50    5.75
   1   1   2  235.15    5.74
   1   1   2  232.91    5.77
   1   1   2  226.31    5.66
  -2  -1  -2    3.29    0.36
  -2  -1  -2    3.37    0.35
  -2  -1  -2    3.62    0.35
  -2  -1  -2    3.69    0.35
  -2  -1  -2    4.24    0.37
   2   1   2    3.58    0.38
   2   1   2    3.76    0.38
   2   1   2    3.86    0.49
   2   1   2    3.24    0.30
   2   1   2    3.91    0.35
  -3  -1  -2  356.83    8.71
  -3  -1  -2  352.24    8.69
  -3  -1  -2  353.83    8.73
  -3  -1  -2  352.57    8.57
   3   1   2  355.25    8.82
   3   1   2  353.99    8.64
   3   1   2  341.23    8.68
   3   1   2  352.37    8.65
   3   1   2  343.63    8.78
  -4  -1  -2    1.33    0.31
  -4  -1  -2    2.36    0.28
  -4  -1  -2    2.34    0.43
  -4  -1  -2    2.29    0.48
  -4  -1  -2    1.99    0.46
  -4  -1  -2    1.75    0.37
   4   1   2    1.78    0.44
   4   1   2    2.39    0.47
   4   1   2    2.34    0.45
   4   1   2    1.79    0.42
   4   1   2    2.76    0.58
  -5  -1  -2  138.85    4.45
  -5  -1  -2  142.91    4.53
  -5  -1  -2  149.44    4.71
  -5  -1  -2  147.36    4.67
   5   1   2  144.21    4.43
   5   1   2  144.73    4.65
  -6  -1  -2    7.02    1.07
  -6  -1  -2    6.51    0.96
  -6  -1  -2    6.90    0.95
   6   1   2    6.43    0.91
   6   1   2    8.28    1.07
   6   1   2    7.44    1.07
  -7  -1  -2   57.49    2.96
  -7  -1  -2   62.36    2.93
   7   1   2   52.92    2.83
   7   1   2   59.85    2.76
   7   1   2   58.05    2.76
  -8  -1  -2   28.72    2.16
  -8  -1  -2   25.82    1.84
  -8  -1  -2   28.50    2.24
   8   1   2   29.34    3.77
   8   1   2   26.18    1.96
   8   1   2   25.59    2.05
  -9  -1  -2   14.68    1.70
  -9  -1  -2   17.74    1.86
  -9  -1  -2   15.48    2.08
   9   1   2   13.33    1.72
   9   1   2   15.77    1.89
   9   1   2   15.68    1.97
   8  -2  -2   19.83    1.70
   8  -2  -2   21.04    1.95
  -8   2   2   19.59    1.87
  -8   2   2   21.09    2.11
   7  -2  -2   28.01    1.99
   7  -2  -2   29.79    1.82
  -7   2   2   28.84    2.24
  -7   2   2   25.84    2.00
   6  -2  -2   17.82    1.25
   6  -2  -2   18.47    1.31
   6  -2  -2   17.73    1.44
  -6   2   2   16.89    1.56
  -6   2   2   15.67    1.44
  -6   2   2   19.68    1.48
   5  -2  -2   78.53    3.09
   5  -2  -2   78.61    2.66
   5  -2  -2   79.30    2.80
   5  -2  -2   86.13    2.93
   5  -2  -2   79.95    3.24
  -5   2   2   78.19    3.11
  -5   2   2   81.25    3.16
  -5   2   2   82.84    3.39
   4  -2  -2    9.42    0.83
   4  -2  -2    9.01    0.74
   4  -2  -2   10.25    0.69
   4  -2  -2   10.46    0.90
   4  -2  -2    9.75    0.74
  -4   2   2    8.52    0.81
  -4   2   2    9.48    0.82
  -4   2   2   11.38    1.15
   3  -2  -2  202.19    5.16
   3  -2  -2  201.81    5.54
   3  -2  -2  200.44    5.44
   3  -2  -2  202.88    5.43
   3  -2  -2  203.70    5.24
  -3   2   2  191.41    5.61
  -3   2   2  201.36    5.21
  -3   2   2  200.49    5.45
  -3   2   2  196.68    5.53
  -3   2   2  201.83    5.40
   2  -2  -2    5.91    0.48
   2  -2  -2    5.88    0.52
   2  -2  -2    6.54    0.51
   2  -2  -2    5.91    0.49
   2  -2  -2    5.49    0.42
  -2   2   2    6.09    0.55
  -2   2   2    4.99    0.68
  -2   2   2    5.81    0.52
  -2   2   2    6.12    0.44
  -2   2   2    5.31    0.46
   1  -2  -2  333.54    7.83
   1  -2  -2  328.83    7.68
   1  -2  -2  332.90    7.83
   1  -2  -2  328.57    7.72
   1  -2  -2  323.42    7.84
  -1   2   2  323.10    7.71
  -1   2   2  312.66    7.85
  -1   2   2  327.32    7.70
   0  -2  -2    0.47    0.12
   0  -2  -2    0.42    0.13
   0  -2  -2    0.63    0.15
   0  -2  -2    0.30    0.08
   0  -2  -2    0.19    0.10
   0  -2  -2    0.26    0.14
   0  -2  -2    0.77    0.19
   0   2   2    0.37    0.11
   0   2   2    0.72    0.10
   0   2   2    0.16    0.10
   0   2   2    0.53    0.16
   0   2   2    0.45    0.08
  -1  -2  -2  120.43    3.21
  -1  -2  -2  120.89    3.10
  -1  -2  -2  121.66    2.85
  -1  -2  -2  117.99    3.03
  -1  -2  -2  121.73    3.09
  -1  -2  -2  123.89    3.00
   1   2   2  118.73    3.05
   1   2   2  123.21    3.09
   1   2   2  121.92    3.19
   1   2   2  119.89    2.80
   1   2   2  122.70    3.03
   1   2   2  121.24    2.82
   1   2   2  120.53    3.24
  -2  -2  -2   43.26    1.46
  -2  -2  -2   44.33    1.54
  -2  -2  -2   44.65    1.53
  -2  -2  -2   45.67    1.38
  -2  -2  -2   46.14    1.37
   2   2   2   46.13    1.35
   2   2   2   43.82    1.50
   2   2   2   43.42    1.54
   2   2   2   44.08    1.45
   2   2   2   43.58    1.54
  -3  -2  -2  163.34    4.41
  -3  -2  -2  155.67    4.24
  -3  -2  -2  159.93    4.24
  -3  -2  -2  157.84    4.38
  -3  -2  -2  164.40    3.72
   3   2   2  157.16    4.19
   3   2   2  160.97    4.43
   3   2   2  164.67    4.23
   3   2   2  156.89    4.41
   3   2   2  161.28    4.44
  -4  -2  -2   43.93    1.72
  -4  -2  -2   41.19    1.80
  -4  -2  -2   44.71    1.75
  -4  -2  -2   41.79    1.66
   4   2   2   48.33    1.93
   4   2   2   41.74    1.79
   4   2   2   40.21    1.83
   4   2   2   43.18    1.68
   4   2   2   40.44    1.66
  -5  -2  -2  117.18    3.76
  -5  -2  -2  113.04    3.68
  -5  -2  -2  114.02    3.91
   5   2   2  114.62    3.86
   5   2   2  116.46    3.83
   5   2   2  112.55    3.63
  -6  -2  -2   56.06    2.48
  -6  -2  -2   59.06    2.66
  -6  -2  -2   53.37    2.42
   6   2   2   55.37    2.49
   6   2   2   56.21    2.61
   6   2   2   54.63    2.38
  -7  -2  -2   29.36    1.91
  -7  -2  -2   32.79    2.13
   7   2   2   30.77    1.99
   7   2   2   31.83    1.86
   7   2   2   31.31    1.98
  -8  -2  -2   55.37    3.07
  -8  -2  -2   57.11    2.97
   8   2   2   56.47    3.06
   8   2   2   52.48    4.16
  -9  -2  -2    6.56    1.13
  -9  -2  -2    4.21    1.07
  -9  -2  -2    4.25    1.16
   9   2   2    5.87    1.16
   9   2   2    5.23    1.00
   9   2   2    5.88    1.24
   9   2   2    3.54    0.95
   8  -3  -2    2.34    0.84
   8  -3  -2    4.87    1.25
  -8   3   2    2.62    0.96
  -8   3   2    0.74    0.94
  -8   3   2    3.55    1.03
   7  -3  -2   45.21    2.72
   7  -3  -2   45.94    2.26
  -7   3   2   45.19    2.55
  -7   3   2   47.36    2.74
  -7   3   2   49.07    2.99
   6  -3  -2    1.90    0.60
   6  -3  -2    0.91    0.43
   6  -3  -2    0.44    0.41
  -6   3   2    0.54    0.45
  -6   3   2    1.07    0.70
  -6   3   2    0.55    0.46
   5  -3  -2   74.51    2.66
   5  -3  -2   71.61    3.02
   5  -3  -2   74.25    2.74
  -5   3   2   75.82    3.34
  -5   3   2   82.61    3.20
  -5   3   2   80.60    3.16
   4  -3  -2    2.10    0.40
   4  -3  -2    1.94    0.46
   4  -3  -2    1.48    0.37
   4  -3  -2    2.36    0.53
   4  -3  -2    2.35    0.44
  -4   3   2    2.03    0.46
  -4   3   2    2.02    0.56
  -4   3   2    1.97    0.51
  -4   3   2    1.59    0.39
   3  -3  -2  203.60    5.23
   3  -3  -2  202.83    5.26
   3  -3  -2  198.85    5.10
   3  -3  -2  197.20    5.64
   3  -3  -2  196.42    5.48
   3  -3  -2  201.88    5.52
  -3   3   2  205.98    5.55
  -3   3   2  191.21    5.17
  -3   3   2  192.86    5.40
  -3   3   2  199.06    5.59
  -3   3   2  199.70    5.78
   2  -3  -2    0.44    0.17
   2  -3  -2    0.47    0.20
   2  -3  -2    0.61    0.24
   2  -3  -2    0.18    0.15
   2  -3  -2    0.56    0.19
  -2   3   2    0.43    0.19
  -2   3   2    0.31    0.19
  -2   3   2    0.77    0.30
  -2   3   2    0.56    0.24
   1  -3  -2  240.43    6.00
   1  -3  -2  244.89    5.87
   1  -3  -2  242.19    6.23
   1  -3  -2  248.31    6.03
   1  -3  -2  247.38    6.19
   1  -3  -2  256.24    6.06
  -1   3   2  236.59    5.99
  -1   3   2  252.88    6.18
  -1   3   2  243.02    6.20
  -1   3   2  246.76    5.97
   0  -3  -2    2.26    0.32
   0  -3  -2    1.92    0.17
   0  -3  -2    1.68    0.27
   0  -3  -2    2.24    0.26
   0  -3  -2    1.52    0.26
   0  -3  -2    2.19    0.19
   0  -3  -2    1.80    0.21
   0  -3  -2    1.69    0.27
   0   3   2    1.87    0.18
   0   3   2    1.34    0.24
   0   3   2    1.99    0.25
   0   3   2    1.70    0.15
  -1  -3  -2  230.65    5.67
  -1  -3  -2  232.26    5.64
  -1  -3  -2  237.36    5.26
  -1  -3  -2  225.10    5.66
  -1  -3  -2  225.57    5.28
  -1  -3  -2  230.49    5.76
  -1  -3  -2  229.24    5.62
   1   3   2  235.05    5.69
   1   3   2  235.37    5.77
   1   3   2  227.89    5.67
   1   3   2  235.03    5.62
   1   3   2  233.79    5.68
  -2  -3  -2   21.82    0.82
  -2  -3  -2   21.90    0.62
  -2  -3  -2   22.49    0.97
  -2  -3  -2   21.99    0.93
  -2  -3  -2   21.15    0.75
  -2  -3  -2   20.15    0.74
   2   3   2   22.05    0.99
   2   3   2   20.92    0.97
   2   3   2   20.09    0.94
   2   3   2   21.49    0.72
  -3  -3  -2   89.54    2.54
  -3  -3  -2   88.18    2.77
  -3  -3  -2   89.90    2.56
  -3  -3  -2   87.13    2.75
  -3  -3  -2   88.69    2.59
   3   3   2   89.28    2.81
   3   3   2   92.18    2.44
   3   3   2   87.90    2.79
   3   3   2   89.29    2.51
   3   3   2   85.57    2.78
   3   3   2   86.92    2.73
  -4  -3  -2  180.34    4.80
  -4  -3  -2  173.87    4.76
  -4  -3  -2  174.79    5.02
  -4  -3  -2  173.24    4.96
  -4  -3  -2  175.77    4.81
   4   3   2  173.45    4.72
   4   3   2  170.62    4.68
   4   3   2  177.50    4.57
   4   3   2  185.07    5.03
   4   3   2  174.21    5.07
   4   3   2  176.88    5.05
  -5  -3  -2   53.02    2.29
  -5  -3  -2   53.23    2.14
  -5  -3  -2   51.40    2.09
   5   3   2   50.24    1.85
   5   3   2   54.68    2.05
   5   3   2   49.96    2.19
  -6  -3  -2  114.86    3.87
  -6  -3  -2  113.01    3.84
  -6  -3  -2  109.53    4.03
   6   3   2  111.52    4.00
   6   3   2  112.88    3.72
   6   3   2  111.91    3.47
   6   3   2  114.58    4.03
  -7  -3  -2    3.39    0.75
  -7  -3  -2    3.28    0.81
  -7  -3  -2    2.99    0.76
   7   3   2    3.59    0.81
   7   3   2    2.74    0.58
   7   3   2    6.31    1.05
   7   3   2    4.05    0.80
  -8  -3  -2   75.41    3.44
  -8  -3  -2   75.46    3.66
   8   3   2   76.78    3.28
   8   3   2   82.08    3.61
   8   3   2   73.30    2.83
   8   3   2   74.88    3.54
  -9  -3  -2    0.09    0.80
  -9  -3  -2    1.36    0.72
   9   3   2    0.74    0.73
   9   3   2    1.25    0.91
   8  -4  -2    2.06    0.80
   8  -4  -2    2.28    1.03
  -8   4   2    1.99    0.98
  -8   4   2    2.86    1.22
  -8   4   2    0.94    0.95
   7  -4  -2   41.81    2.62
   7  -4  -2   39.60    2.01
  -7   4   2   41.34    2.50
  -7   4   2   36.26    2.54
  -7   4   2   40.77    2.94
   6  -4  -2    1.25    0.58
  -6   4   2    0.97    0.73
  -6   4   2    1.01    0.60
  -6   4   2    1.87    0.60
   5  -4  -2   76.62    3.23
   5  -4  -2   81.94    2.87
   5  -4  -2   73.98    2.59
  -5   4   2   78.31    3.51
  -5   4   2   81.80    3.30
  -5   4   2   75.44    3.18
   4  -4  -2    0.60    0.27
   4  -4  -2    0.96    0.39
   4  -4  -2    0.87    0.39
  -4   4   2    0.49    0.36
  -4   4   2    0.64    0.32
  -4   4   2    0.90    0.35
  -4   4   2    0.41    0.31
   3  -4  -2  107.25    3.18
   3  -4  -2  104.90    3.51
   3  -4  -2  114.94    3.38
  -3   4   2  111.95    3.19
  -3   4   2  111.77    3.58
  -3   4   2  107.61    3.84
   2  -4  -2   57.57    1.98
   2  -4  -2   53.95    1.76
   2  -4  -2   61.98    1.64
   2  -4  -2   58.51    2.08
   2  -4  -2   57.38    2.04
  -2   4   2   58.35    2.24
  -2   4   2   53.81    2.29
  -2   4   2   55.12    2.14
  -2   4   2   55.93    2.13
  -2   4   2   54.56    1.76
  -2   4   2   54.79    2.27
   1  -4  -2  316.28    7.72
   1  -4  -2  319.91    7.72
   1  -4  -2  319.88    7.41
   1  -4  -2  319.27    7.90
   1  -4  -2  305.04    7.70
   1  -4  -2  307.23    8.01
   1  -4  -2  326.67    7.36
  -1   4   2  305.58    7.90
  -1   4   2  319.89    7.64
  -1   4   2  309.99    7.89
  -1   4   2  315.08    7.71
  -1   4   2  310.18    7.93
   0  -4  -2  139.01    3.85
   0  -4  -2  140.87    3.81
   0  -4  -2  138.91    3.37
   0  -4  -2  146.00    3.47
   0  -4  -2  142.23    3.55
   0  -4  -2  142.34    3.57
   0  -4  -2  138.28    3.66
   0   4   2  140.28    3.47
   0   4   2  137.89    3.47
   0   4   2  142.18    3.67
   0   4   2  139.27    3.58
   0   4   2  136.01    3.83
   0   4   2  140.57    3.82
  -1  -4  -2  351.31    8.25
  -1  -4  -2  348.72    8.32
  -1  -4  -2  349.75    8.45
  -1  -4  -2  336.53    8.09
  -1  -4  -2  338.93    8.40
  -1  -4  -2  349.63    8.05
   1   4   2  350.35    8.34
   1   4   2  359.15    8.19
   1   4   2  371.43    8.00
   1   4   2  327.21    8.44
   1   4   2  343.85    8.44
   1   4   2  342.74    7.86
   1   4   2  340.64    8.28
  -2  -4  -2  285.31    6.77
  -2  -4  -2  280.32    7.03
  -2  -4  -2  289.47    7.29
  -2  -4  -2  291.62    6.85
  -2  -4  -2  289.08    6.77
  -2  -4  -2  290.68    7.19
  -2  -4  -2  302.52    7.15
  -2  -4  -2  287.91    7.15
  -2  -4  -2  278.81    6.99
   2   4   2  285.48    6.86
   2   4   2  288.84    7.14
   2   4   2  293.41    6.64
   2   4   2  285.57    6.70
   2   4   2  279.22    7.14
  -3  -4  -2   99.21    2.80
  -3  -4  -2  103.17    3.07
  -3  -4  -2  102.62    2.77
  -3  -4  -2  101.75    2.66
  -3  -4  -2   95.84    3.08
  -3  -4  -2   96.29    2.88
  -3  -4  -2   96.65    2.74
   3   4   2   96.84    3.31
   3   4   2  101.86    2.99
   3   4   2  103.75    3.12
   3   4   2   99.48    2.70
   3   4   2   96.50    3.12
   3   4   2   97.26    2.65
   3   4   2   95.41    2.67
  -4  -4  -2  191.56    5.49
  -4  -4  -2  193.02    5.14
  -4  -4  -2  198.58    5.16
  -4  -4  -2  192.64    5.41
   4   4   2  190.91    5.49
   4   4   2  195.45    5.36
   4   4   2  192.57    5.58
   4   4   2  195.22    5.09
   4   4   2  192.39    5.14
  -5  -4  -2    0.43    0.36
  -5  -4  -2    0.64    0.32
  -5  -4  -2    0.86    0.29
   5   4   2   -0.13    0.18
   5   4   2    0.33    0.23
   5   4   2    0.82    0.32
   5   4   2    0.54    0.19
  -6  -4  -2  184.71    5.67
  -6  -4  -2  177.68    5.29
  -6  -4  -2  169.28    5.21
   6   4   2  178.42    5.12
   6   4   2  173.73    4.86
   6   4   2  168.46    5.50
   6   4   2  169.17    6.26
  -7  -4  -2    4.54    0.81
  -7  -4  -2    5.04    0.87
  -7  -4  -2    6.05    1.12
   7   4   2    6.35    1.03
   7   4   2    5.38    0.95
   7   4   2    5.72    0.55
   7   4   2    5.20    0.83
  -8  -4  -2   84.69    3.68
  -8  -4  -2   88.74    3.68
  -8  -4  -2   89.21    3.93
   8   4   2   81.21    3.70
   8   4   2   86.48    3.82
   8   4   2   87.54    2.66
   8   4   2   78.77    3.38
  -9  -4  -2   14.96    1.61
  -9  -4  -2   12.40    1.80
   9   4   2   13.09    1.77
   9   4   2   12.79    1.04
   9   4   2   10.75    1.47
   9   4   2   16.64    2.00
   7  -5  -2   25.51    2.19
   7  -5  -2   26.80    2.23
  -7   5   2   25.20    2.36
  -7   5   2   27.77    2.34
  -7   5   2   31.94    2.22
   6  -5  -2    0.90    0.65
   6  -5  -2    1.20    0.44
  -6   5   2    0.21    0.59
  -6   5   2    1.17    0.85
  -6   5   2    0.96    0.64
   5  -5  -2   49.51    2.55
   5  -5  -2   47.08    1.78
  -5   5   2   44.79    2.71
  -5   5   2   46.27    2.41
  -5   5   2   49.10    2.48
   4  -5  -2   16.33    0.80
   4  -5  -2   13.32    1.23
   4  -5  -2   17.40    1.31
   4  -5  -2   16.35    1.02
  -4   5   2   15.90    1.25
  -4   5   2   18.79    1.54
  -4   5   2   16.80    1.29
   3  -5  -2  107.45    2.93
   3  -5  -2  102.64    3.52
   3  -5  -2  101.25    3.51
   3  -5  -2  103.39    3.08
  -3   5   2  104.02    3.09
  -3   5   2  106.55    3.83
  -3   5   2  105.25    3.59
  -3   5   2  107.67    3.58
   2  -5  -2   56.86    2.39
   2  -5  -2   57.83    2.42
   2  -5  -2   53.94    1.74
   2  -5  -2   60.81    2.18
   2  -5  -2   51.57    2.18
  -2   5   2   54.18    2.17
  -2   5   2   57.26    2.16
  -2   5   2   51.21    2.27
  -2   5   2   56.48    2.07
  -2   5   2   56.76    1.77
   1  -5  -2  157.40    3.79
   1  -5  -2  153.40    4.24
  -1   5   2  150.05    4.41
  -1   5   2  151.10    4.24
  -1   5   2  154.24    4.51
  -1   5   2  154.01    4.42
   0  -5  -2  132.99    3.07
   0  -5  -2  126.00    3.45
   0  -5  -2  135.43    3.18
   0  -5  -2  127.08    3.46
   0  -5  -2  129.78    3.72
   0   5   2  126.29    3.53
   0   5   2  122.26    3.72
   0   5   2  129.51    3.52
   0   5   2  126.75    3.33
  -1  -5  -2   99.12    2.94
  -1  -5  -2   99.50    2.63
  -1  -5  -2   92.76    2.64
  -1  -5  -2   95.17    2.80
  -1  -5  -2   96.47    2.45
  -1  -5  -2   95.26    2.79
  -1  -5  -2   93.48    2.61
   1   5   2   94.72    2.66
   1   5   2   96.77    2.67
   1   5   2   95.98    2.94
   1   5   2   91.81    2.94
   1   5   2   97.73    2.71
   1   5   2   96.77    2.43
  -2  -5  -2  164.72    4.15
  -2  -5  -2  160.46    4.07
  -2  -5  -2  163.74    4.65
  -2  -5  -2  160.54    3.95
  -2  -5  -2  163.99    4.14
  -2  -5  -2  151.95    4.25
  -2  -5  -2  160.87    4.07
  -2  -5  -2  157.68    4.41
   2   5   2  159.93    4.24
   2   5   2  162.88    3.85
   2   5   2  159.15    4.32
   2   5   2  158.27    3.86
   2   5   2  159.04    4.50
   2   5   2  157.11    4.00
  -3  -5  -2    4.73    0.63
  -3  -5  -2    4.12    0.38
  -3  -5  -2    4.00    0.34
  -3  -5  -2    3.21    0.52
  -3  -5  -2    4.63    0.62
  -3  -5  -2    4.03    0.50
  -3  -5  -2    3.29    0.40
  -3  -5  -2    4.19    0.38
   3   5   2    3.95    0.33
   3   5   2    5.98    0.71
   3   5   2    4.13    0.59
   3   5   2    4.52    0.41
   3   5   2    4.60    0.49
  -4  -5  -2  208.43    5.55
  -4  -5  -2  213.00    5.56
  -4  -5  -2  212.33    6.04
  -4  -5  -2  211.94    5.53
  -4  -5  -2  203.71    5.86
   4   5   2  211.18    5.49
   4   5   2  212.02    6.08
   4   5   2  219.43    5.43
   4   5   2  217.70    5.77
   4   5   2  212.77    5.98
  -5  -5  -2   10.36    0.95
  -5  -5  -2   10.95    0.84
  -5  -5  -2   10.97    0.86
   5   5   2   11.45    1.01
   5   5   2   11.68    0.95
  -6  -5  -2  159.14    4.84
  -6  -5  -2  154.00    4.79
  -6  -5  -2  152.51    5.19
   6   5   2  151.53    4.58
   6   5   2  162.07    5.22
   6   5   2  165.30    5.07
  -7  -5  -2   36.00    2.00
  -7  -5  -2   35.41    1.97
  -7  -5  -2   36.79    2.25
   7   5   2   39.72    2.28
   7   5   2   39.52    2.20
   7   5   2   36.60    1.86
  -8  -5  -2   64.41    3.25
  -8  -5  -2   57.64    2.86
  -8  -5  -2   61.69    3.01
   8   5   2   61.37    3.10
   8   5   2   59.63    3.09
   8   5   2   64.03    2.78
  -9  -5  -2   29.67    2.41
  -9  -5  -2   32.94    2.30
   9   5   2   32.14    2.41
   9   5   2   30.81    2.13
   9   5   2   36.34    2.51
   7  -6  -2   30.88    2.40
  -7   6   2   26.93    2.62
  -7   6   2   28.23    2.14
  -7   6   2   25.62    2.52
   6  -6  -2    6.64    0.68
   6  -6  -2    8.89    1.43
  -6   6   2    5.92    1.22
  -6   6   2    9.83    1.42
  -6   6   2    6.34    1.38
   5  -6  -2   44.36    3.38
  -5   6   2   39.02    2.57
  -5   6   2   42.67    2.32
  -5   6   2   32.39    2.22
   4  -6  -2   49.52    2.44
   4  -6  -2   46.00    2.39
  -4   6   2   47.17    2.38
  -4   6   2   47.91    2.60
  -4   6   2   46.68    2.35
   3  -6  -2   56.96    2.43
   3  -6  -2   52.90    2.36
  -3   6   2   53.32    2.38
  -3   6   2   59.10    2.74
  -3   6   2   54.64    2.40
  -3   6   2   49.49    1.85
   2  -6  -2  125.37    3.25
   2  -6  -2  127.91    3.89
   2  -6  -2  116.29    3.80
  -2   6   2  118.27    3.91
  -2   6   2  120.95    3.26
  -2   6   2  115.73    4.11
  -2   6   2  117.66    3.84
   1  -6  -2   21.38    1.60
   1  -6  -2   21.47    1.35
   1  -6  -2   21.08    1.15
   1  -6  -2   21.80    0.75
   1  -6  -2   20.74    1.26
  -1   6   2   20.79    1.16
  -1   6   2   21.97    0.81
  -1   6   2   23.25    1.37
  -1   6   2   21.28    1.43
  -1   6   2   19.91    1.09
   0  -6  -2  163.59    4.39
   0  -6  -2  158.22    4.36
   0  -6  -2  156.51    4.62
   0   6   2  158.36    4.19
   0   6   2  160.48    4.66
   0   6   2  167.56    4.77
   0   6   2  162.84    4.41
  -1  -6  -2    0.61    0.24
  -1  -6  -2    0.35    0.19
  -1  -6  -2    0.33    0.22
  -1  -6  -2    0.61    0.22
  -1  -6  -2    0.44    0.17
   1   6   2    0.45    0.25
   1   6   2    0.26    0.17
   1   6   2    0.26    0.17
   1   6   2    0.82    0.28
   1   6   2    0.45    0.16
   1   6   2    0.39    0.18
  -2  -6  -2  154.08    4.48
  -2  -6  -2  174.21    4.50
  -2  -6  -2  162.75    4.49
  -2  -6  -2  165.42    4.30
  -2  -6  -2  169.52    4.52
  -2  -6  -2  166.85    4.77
  -2  -6  -2  170.37    4.50
   2   6   2  166.62    4.14
   2   6   2  172.69    4.36
   2   6   2  173.84    4.17
   2   6   2  174.17    4.58
   2   6   2  163.80    4.81
   2   6   2  171.25    4.36
  -3  -6  -2   54.71    2.13
  -3  -6  -2   52.88    1.67
  -3  -6  -2   49.75    1.70
  -3  -6  -2   54.78    1.81
  -3  -6  -2   52.21    1.78
  -3  -6  -2   52.65    2.27
  -3  -6  -2   54.77    2.01
  -3  -6  -2   52.29    1.68
   3   6   2   53.36    1.61
   3   6   2   51.50    2.12
   3   6   2   52.47    2.04
   3   6   2   52.04    1.67
   3   6   2   52.25    1.89
   3   6   2   53.49    1.60
  -4  -6  -2  220.33    6.04
  -4  -6  -2  216.46    5.58
  -4  -6  -2  213.76    6.32
  -4  -6  -2  206.15    5.77
  -4  -6  -2  224.67    6.52
  -4  -6  -2  216.79    5.25
   4   6   2  218.60    6.18
   4   6   2  216.02    6.18
   4   6   2  215.65    5.83
   4   6   2  224.53    5.48
   4   6   2  197.29    6.15
  -5  -6  -2   78.05    2.64
  -5  -6  -2   72.05    2.58
  -5  -6  -2   72.58    2.99
   5   6   2   71.62    2.92
   5   6   2   74.45    2.72
  -6  -6  -2  128.24    4.52
  -6  -6  -2  131.30    4.66
  -6  -6  -2  133.74    4.20
   6   6   2  126.62    4.55
   6   6   2  130.65    4.32
  -7  -6  -2   70.98    2.98
  -7  -6  -2   72.31    3.34
  -7  -6  -2   73.03    2.99
   7   6   2   72.55    3.30
   7   6   2   73.07    2.76
   7   6   2   73.06    3.10
  -8  -6  -2   53.07    3.00
  -8  -6  -2   51.23    2.73
  -8  -6  -2   51.52    2.62
   8   6   2   53.72    2.81
   8   6   2   52.47    2.44
   8   6   2   51.92    2.91
  -9  -6  -2   43.41    2.89
  -9  -6  -2   42.19    2.52
   9   6   2   45.79    2.86
   9   6   2   38.28    2.63
   9   6   2   41.94    2.71
   6  -7  -2   16.10    1.98
  -6   7   2   15.82    1.81
  -6   7   2   20.41    2.06
  -6   7   2   19.09    2.35
   5  -7  -2   14.98    1.60
  -5   7   2   19.11    2.34
  -5   7   2   21.07    2.00
  -5   7   2   18.28    1.65
   4  -7  -2   47.14    2.57
  -4   7   2   48.73    2.48
  -4   7   2   52.14    2.86
  -4   7   2   49.22    2.59
   3  -7  -2    5.16    0.87
   3  -7  -2    5.61    0.93
  -3   7   2    4.88    0.82
  -3   7   2    5.46    0.92
  -3   7   2    7.07    0.66
  -3   7   2    6.02    1.03
   2  -7  -2  184.43    5.34
   2  -7  -2  172.08    5.24
  -2   7   2  172.15    4.46
  -2   7   2  171.95    5.34
  -2   7   2  172.29    5.65
  -2   7   2  170.80    5.29
   1  -7  -2    6.32    0.66
   1  -7  -2    6.23    0.80
  -1   7   2    4.82    0.82
  -1   7   2    4.35    0.36
  -1   7   2    6.32    0.84
  -1   7   2    5.61    0.78
   0  -7  -2  223.40    6.09
   0  -7  -2  231.29    6.55
   0   7   2  233.46    6.58
  -1  -7  -2    9.57    0.71
  -1  -7  -2    8.08    0.63
  -1  -7  -2    8.64    0.81
   1   7   2    9.82    0.88
   1   7   2   10.17    0.89
   1   7   2    8.53    0.69
   1   7   2    9.39    0.67
   1   7   2    8.19    0.68
  -2  -7  -2  187.17    5.05
  -2  -7  -2  178.68    5.06
  -2  -7  -2  182.27    5.10
  -2  -7  -2  186.97    4.69
  -2  -7  -2  189.39    4.39
   2   7   2  183.90    4.67
   2   7   2  180.04    4.62
   2   7   2  193.33    5.02
   2   7   2  187.86    4.89
   2   7   2  181.43    5.41
  -3  -7  -2   97.10    2.71
  -3  -7  -2   94.93    3.02
  -3  -7  -2   90.44    3.40
  -3  -7  -2  102.41    2.67
  -3  -7  -2   95.07    3.57
  -3  -7  -2   97.97    2.85
   3   7   2   93.21    2.74
   3   7   2   99.23    3.03
   3   7   2   97.62    3.16
   3   7   2   95.00    2.69
   3   7   2   98.92    2.68
   3   7   2   93.40    3.35
  -4  -7  -2   68.56    2.32
  -4  -7  -2   67.88    2.33
  -4  -7  -2   63.95    2.81
  -4  -7  -2   66.65    2.13
  -4  -7  -2   66.20    1.98
   4   7   2   64.76    2.34
   4   7   2   66.90    2.07
   4   7   2   66.89    1.94
   4   7   2   64.18    2.67
   4   7   2   66.23    2.68
  -5  -7  -2  153.15    4.53
  -5  -7  -2  162.29    4.72
  -5  -7  -2  164.24    5.36
  -5  -7  -2  161.97    4.71
   5   7   2  164.08    4.44
   5   7   2  164.46    5.18
   5   7   2  163.59    4.82
  -6  -7  -2   35.12    2.12
  -6  -7  -2   38.52    1.85
  -6  -7  -2   32.87    1.76
   6   7   2   37.24    2.12
   6   7   2   38.29    2.31
   6   7   2   34.16    1.84
  -7  -7  -2   71.23    2.90
  -7  -7  -2   65.50    3.28
  -7  -7  -2   63.13    2.82
   7   7   2   68.24    3.24
   7   7   2   67.50    2.93
  -8  -7  -2    5.61    1.08
  -8  -7  -2    6.62    1.10
  -8  -7  -2    5.28    1.28
   8   7   2    6.71    0.99
   8   7   2    7.30    1.31
   8   7   2    4.80    0.99
  -9  -7  -2   27.67    2.34
  -9  -7  -2   23.08    1.88
   9   7   2   23.91    2.16
   9   7   2   23.28    2.08
   5  -8  -2    3.62    0.97
  -5   8   2    3.05    1.51
  -5   8   2    2.47    0.84
   4  -8  -2   70.48    3.29
  -4   8   2   63.38    3.17
  -4   8   2   63.30    3.05
  -4   8   2   72.11    3.67
   3  -8  -2   -0.26    0.43
   3  -8  -2    0.85    0.69
  -3   8   2   -0.60    0.45
  -3   8   2    0.13    0.39
  -3   8   2    0.14    0.54
  -3   8   2   -0.02    0.56
   2  -8  -2   91.64    3.55
   2  -8  -2   94.15    3.54
  -2   8   2   96.33    2.68
  -2   8   2  105.42    3.76
  -2   8   2  101.73    3.70
  -2   8   2   92.41    3.90
   1  -8  -2   30.84    1.69
   1  -8  -2   35.06    1.78
  -1   8   2   31.58    1.96
  -1   8   2   33.46    1.84
  -1   8   2   29.79    1.73
   0  -8  -2  159.14    4.54
   0  -8  -2  158.57    4.73
   0  -8  -2  151.76    4.67
   0   8   2  156.40    5.13
   0   8   2  159.02    4.96
  -1  -8  -2   74.89    2.62
  -1  -8  -2   66.78    2.34
  -1  -8  -2   72.24    2.65
   1   8   2   74.46    2.50
   1   8   2   75.18    2.89
   1   8   2   73.35    2.94
  -2  -8  -2   90.37    3.03
  -2  -8  -2   88.77    2.50
  -2  -8  -2   91.95    3.02
  -2  -8  -2   89.24    3.09
   2   8   2   89.62    2.82
   2   8   2   89.46    2.85
   2   8   2   90.27    3.36
  -3  -8  -2  131.63    4.69
  -3  -8  -2  125.99    3.36
  -3  -8  -2  131.32    3.82
  -3  -8  -2  131.05    3.98
  -3  -8  -2  132.61    4.11
   3   8   2  141.99    4.11
   3   8   2  133.60    3.75
   3   8   2  132.71    3.58
   3   8   2  130.11    4.41
  -4  -8  -2   37.45    1.43
  -4  -8  -2   37.42    2.19
  -4  -8  -2   37.62    1.43
  -4  -8  -2   38.89    1.77
  -4  -8  -2   38.92    1.69
   4   8   2   36.41    2.01
   4   8   2   38.75    1.42
   4   8   2   39.13    1.44
   4   8   2   41.15    1.57
   4   8   2   39.64    1.95
  -5  -8  -2  128.78    4.74
  -5  -8  -2  133.29    4.08
  -5  -8  -2  127.60    3.79
  -5  -8  -2  127.06    4.07
   5   8   2  135.65    4.52
   5   8   2  130.67    4.68
   5   8   2  130.68    4.04
   5   8   2  133.04    3.73
  -6  -8  -2    5.02    0.95
  -6  -8  -2    6.69    0.92
   6   8   2    8.23    1.23
   6   8   2    6.08    0.93
   6   8   2    5.88    0.75
  -7  -8  -2   89.60    3.37
  -7  -8  -2   85.42    3.36
  -7  -8  -2   79.28    4.33
   7   8   2   85.02    2.99
   7   8   2   79.45    4.58
   7   8   2   85.64    3.41
  -8  -8  -2   -0.25    0.45
  -8  -8  -2    0.59    0.68
   8   8   2   -0.10    0.59
   8   8   2    0.85    0.69
  -9  -8  -2   41.37    2.45
  -9  -8  -2   33.10    2.68
   9   8   2   35.26    2.47
   9   8   2   40.88    2.83
  -5   9   2   -0.05    0.89
  -5   9   2   -0.26    0.70
   4  -9  -2   68.28    3.40
  -4   9   2   61.64    3.41
  -4   9   2   61.52    3.12
   3  -9  -2    8.38    1.27
   3  -9  -2    8.24    1.24
  -3   9   2   10.07    1.43
  -3   9   2    8.96    0.83
  -3   9   2    9.60    1.31
  -3   9   2   10.69    1.63
   2  -9  -2   56.70    2.74
   2  -9  -2   54.24    3.11
  -2   9   2   61.74    2.83
  -2   9   2   55.90    2.80
  -2   9   2   61.30    3.12
   1  -9  -2   62.30    2.70
   1  -9  -2   65.46    2.81
  -1   9   2   65.69    2.90
  -1   9   2   60.66    3.00
  -1   9   2   57.89    2.75
   0  -9  -2   46.74    2.19
   0  -9  -2   46.93    2.15
   0  -9  -2   43.44    1.93
   0   9   2   43.97    2.26
   0   9   2   48.90    2.54
  -1  -9  -2  120.60    3.55
  -1  -9  -2  115.97    3.90
  -1  -9  -2  127.52    4.14
   1   9   2  124.01    4.27
   1   9   2  120.66    4.44
   1   9   2  124.82    3.29
   1   9   2  120.31    3.80
  -2  -9  -2   33.05    1.69
  -2  -9  -2   31.66    1.41
  -2  -9  -2   35.68    1.84
   2   9   2   36.21    1.47
   2   9   2   34.04    1.49
   2   9   2   34.63    2.03
  -3  -9  -2   85.94    3.77
  -3  -9  -2   87.72    2.24
  -3  -9  -2   86.75    2.95
  -3  -9  -2   86.56    3.17
  -3  -9  -2   86.63    3.14
   3   9   2   89.64    3.54
   3   9   2   90.23    2.95
   3   9   2   89.47    3.06
  -4  -9  -2    4.42    0.58
  -4  -9  -2    4.37    0.72
  -4  -9  -2    4.11    0.69
  -4  -9  -2    3.61    0.93
  -4  -9  -2    4.54    0.49
   4   9   2    5.05    0.92
   4   9   2    4.60    0.57
   4   9   2    3.93    0.52
   4   9   2    3.78    0.70
  -5  -9  -2   75.32    2.48
  -5  -9  -2   74.73    2.81
  -5  -9  -2   81.45    3.58
  -5  -9  -2   72.88    2.90
  -5  -9  -2   71.60    2.18
   5   9   2   73.10    3.26
   5   9   2   75.24    2.61
   5   9   2   74.20    2.29
   5   9   2   78.62    3.17
   5   9   2   77.01    2.54
  -6  -9  -2    0.62    0.43
  -6  -9  -2    0.44    0.57
  -6  -9  -2    0.00    0.46
   6   9   2    0.57    0.41
   6   9   2    0.71    0.52
   6   9   2    0.40    0.50
  -7  -9  -2   64.54    2.88
  -7  -9  -2   63.99    3.42
  -7  -9  -2   62.41    2.81
   7   9   2   67.82    2.54
   7   9   2   64.96    2.84
  -8  -9  -2    1.86    0.82
  -8  -9  -2    1.57    0.60
   8   9   2    1.03    0.79
   8   9   2    1.07    0.83
  -9  -9  -2   33.32    2.61
  -9  -9  -2   33.02    2.76
   9   9   2   38.73    3.03
   9   9   2   36.28    2.72
   4 -10  -2   30.46    4.14
  -4  10   2   29.57    2.23
  -4  10   2   27.42    2.60
   3 -10  -2   16.20    1.73
  -3  10   2   15.95    1.59
  -3  10   2   18.15    3.49
  -3  10   2   16.01    1.86
   2 -10  -2   27.44    2.00
  -2  10   2   29.48    2.01
  -2  10   2   27.42    2.20
  -2  10   2   27.90    2.11
   1 -10  -2   38.21    2.18
   1 -10  -2   37.21    2.17
  -1  10   2   39.05    2.35
  -1  10   2   37.30    2.59
  -1  10   2   33.65    2.38
   0 -10  -2    6.92    0.89
   0 -10  -2    7.33    1.06
   0 -10  -2    5.23    0.83
   0  10   2    5.64    1.10
   0  10   2    5.09    1.03
  -1 -10  -2   88.84    3.47
  -1 -10  -2   83.11    2.66
  -1 -10  -2   86.34    3.63
   1  10   2   91.22    3.80
   1  10   2   88.23    3.59
  -2 -10  -2    0.26    0.39
  -2 -10  -2    1.09    0.51
   2  10   2    0.95    0.31
   2  10   2    1.22    0.51
   2  10   2    0.82    0.50
  -3 -10  -2   91.31    3.44
  -3 -10  -2  100.18    3.59
  -3 -10  -2   92.72    4.17
   3  10   2   98.35    3.27
   3  10   2   95.26    3.88
   3  10   2   89.92    2.85
  -4 -10  -2    2.77    0.65
  -4 -10  -2    3.18    0.71
  -4 -10  -2    3.20    0.37
  -4 -10  -2    3.64    0.61
  -4 -10  -2    2.94    0.84
   4  10   2    2.64    0.63
   4  10   2    2.81    0.76
   4  10   2    3.36    0.50
  -5 -10  -2   79.80    3.80
  -5 -10  -2   82.87    3.04
  -5 -10  -2   75.00    2.43
  -5 -10  -2   74.23    3.13
  -5 -10  -2   74.11    2.37
   5  10   2   73.50    2.47
   5  10   2   73.20    3.44
   5  10   2   75.99    2.47
   5  10   2   85.71    3.34
  -6 -10  -2    8.54    1.09
  -6 -10  -2    8.22    1.17
  -6 -10  -2    9.66    1.51
   6  10   2   10.01    0.95
   6  10   2    8.75    0.82
   6  10   2    7.45    1.29
   6  10   2   11.52    1.51
  -7 -10  -2   45.73    3.06
  -7 -10  -2   49.40    3.10
  -7 -10  -2   53.46    2.53
   7  10   2   46.94    3.32
   7  10   2   56.02    3.00
  -8 -10  -2    9.56    1.25
  -8 -10  -2    8.17    1.48
   8  10   2    9.15    1.49
   8  10   2    8.57    1.25
  -9 -10  -2   29.08    2.15
  -9 -10  -2   30.02    2.70
   9  10   2   29.37    2.57
   9  10   2   28.59    2.31
   3 -11  -2   31.36    2.46
  -3  11   2   31.90    2.71
  -3  11   2   30.01    2.24
   2 -11  -2    1.30    0.69
  -2  11   2   -0.27    0.79
  -2  11   2    0.08    0.79
   1 -11  -2   58.41    3.05
  -1  11   2   63.31    3.55
  -1  11   2   63.11    3.13
   0 -11  -2   -0.63    0.62
   0 -11  -2   -0.24    0.60
   0 -11  -2    0.35    0.52
   0  11   2    0.81    0.77
   0  11   2    0.78    0.70
   0  11   2    1.07    0.82
  -1 -11  -2   65.69    3.11
  -1 -11  -2   63.39    2.83
  -1 -11  -2   63.75    2.00
   1  11   2   67.43    3.17
   1  11   2   60.18    2.62
   1  11   2   63.39    3.26
  -2 -11  -2    7.66    1.20
  -2 -11  -2    4.97    0.88
   2  11   2    6.73    0.69
   2  11   2    6.38    0.81
   2  11   2    5.75    1.14
  -3 -11  -2   63.63    3.50
  -3 -11  -2   59.68    2.76
   3  11   2   62.28    2.21
   3  11   2   63.03    2.65
   3  11   2   62.95    3.21
  -4 -11  -2    6.55    1.06
  -4 -11  -2    4.74    1.21
  -4 -11  -2    9.63    1.19
   4  11   2    8.15    1.00
   4  11   2    7.15    0.76
   4  11   2    7.95    1.28
  -5 -11  -2   27.38    1.74
  -5 -11  -2   30.80    2.00
  -5 -11  -2   27.40    1.38
  -5 -11  -2   27.68    1.20
  -5 -11  -2   25.03    2.16
   5  11   2   28.63    1.90
   5  11   2   29.08    1.35
   5  11   2   30.29    2.19
  -6 -11  -2   20.49    2.09
  -6 -11  -2   19.86    1.68
  -6 -11  -2   19.15    1.47
   6  11   2   14.46    1.83
  -7 -11  -2   19.69    2.12
  -7 -11  -2   22.21    1.64
   7  11   2   19.81    1.96
   7  11   2   21.61    1.28
  -8 -11  -2   22.82    1.81
  -8 -11  -2   24.17    2.80
   8  11   2   21.18    2.15
   8  11   2   24.41    2.23
   2 -12  -2    0.23    0.70
   2 -12  -2    1.21    0.97
  -2  12   2   -1.66    0.80
   1 -12  -2   43.36    2.12
   1 -12  -2   50.72    2.92
  -1  12   2   38.36    2.60
  -1  12   2   46.29    3.15
   0 -12  -2    2.13    0.88
   0 -12  -2    2.18    0.46
   0  12   2    1.40    0.79
   0  12   2    1.08    0.85
  -1 -12  -2   52.29    2.93
   1  12   2   51.11    3.13
  -2 -12  -2    8.99    1.37
   2  12   2    5.62    1.30
  -3 -12  -2   31.90    2.08
  -3 -12  -2   40.39    2.89
  -3 -12  -2   41.51    2.41
   3  12   2   34.89    1.85
   3  12   2   37.74    2.54
  -4 -12  -2   27.48    2.43
  -4 -12  -2   27.64    1.86
  -4 -12  -2   23.70    1.92
   4  12   2   24.68    1.64
   4  12   2   30.56    2.35
  -5 -12  -2   42.08    2.29
  -5 -12  -2   41.10    2.92
   5  12   2   38.27    2.75
   5  12   2   44.28    2.42
  -6 -12  -2   30.96    1.94
  -6 -12  -2   34.92    2.75
   6  12   2   33.73    2.28
   6  12   2   27.73    4.08
  -7 -12  -2   30.69    2.61
  -7 -12  -2   27.11    1.87
   7  12   2   24.31    2.12
   0 -13  -2    9.45    1.55
   0  13   2    5.39    1.37
  -1 -13  -2   20.47    2.03
   1  13   2   17.85    2.27
  -2 -13  -2   15.80    1.92
   2  13   2   15.57    1.98
  -3 -13  -2   24.38    2.05
  -3 -13  -2   23.20    2.50
   3  13   2   27.24    1.57
   3  13   2   26.93    2.38
  -4 -13  -2   27.90    1.97
  -4 -13  -2   24.18    2.38
   4  13   2   24.09    1.67
   4  13   2   26.13    2.36
  -5 -13  -2   27.38    2.57
  -5 -13  -2   31.06    2.02
   5  13   2   28.72    2.04
   5  13   2   26.45    2.37
  -6 -13  -2   31.62    2.31
  -6 -13  -2   28.17    3.00
   6  13   2   28.77    2.56
   6  13   2   27.68    2.22
   5  11  -3   30.55    2.50
   5  11  -3   30.28    2.35
  -5 -11   3   25.60    2.42
   4  11  -3   27.98    2.30
   4  11  -3   23.21    2.01
  -4 -11   3   23.06    2.33
  -4 -11   3   28.24    1.99
   3  11  -3   28.77    2.33
   3  11  -3   25.58    1.79
  -3 -11   3   30.30    4.21
  -3 -11   3   29.68    2.54
   2  11  -3   35.35    2.66
  -2 -11   3   38.24    2.84
  -2 -11   3   38.35    5.01
   1  11  -3   12.48    1.82
  -1 -11   3   15.14    2.12
   7  10  -3   11.39    1.76
  -7 -10   3   15.26    2.13
  -7 -10   3   17.70    2.23
   6  10  -3   28.00    2.17
   6  10  -3   31.98    2.37
  -6 -10   3   29.87    2.51
  -6 -10   3   28.82    2.53
   5  10  -3   13.04    1.70
   5  10  -3   11.38    1.57
  -5 -10   3   12.85    1.84
  -5 -10   3   14.39    2.00
   4  10  -3   48.62    2.93
   4  10  -3   47.45    2.93
   4  10  -3   53.41    2.67
  -4 -10   3   50.24    3.10
  -4 -10   3   54.35    3.27
  -4 -10   3   47.56    2.41
   3  10  -3   10.85    1.66
   3  10  -3   11.02    1.64
   3  10  -3   11.30    1.25
  -3 -10   3   10.78    1.65
  -3 -10   3   11.09    1.74
   2  10  -3   54.45    3.19
   2  10  -3   50.54    2.98
  -2 -10   3   59.77    3.34
  -2 -10   3   51.09    3.17
   1  10  -3    4.63    1.30
   1  10  -3    4.82    1.19
  -1 -10   3    4.26    1.27
   0  10  -3   46.60    3.77
   0  10  -3   50.80    3.11
   0 -10   3   45.10    3.09
  -1  10  -3   -0.12    0.87
   8   9  -3   22.31    2.83
   8   9  -3   27.17    1.98
  -8  -9   3   31.09    2.60
   7   9  -3   22.13    2.02
   7   9  -3   24.09    1.72
  -7  -9   3   25.30    2.32
  -7  -9   3   22.29    2.17
   6   9  -3   60.24    2.45
   6   9  -3   60.26    3.13
   6   9  -3   57.37    3.02
   6   9  -3   62.31    3.28
  -6  -9   3   59.28    3.39
  -6  -9   3   57.78    3.43
   5   9  -3   10.84    1.45
   5   9  -3   16.50    1.86
   5   9  -3   14.87    1.70
  -5  -9   3   13.05    1.77
  -5  -9   3   14.06    1.81
  -5  -9   3   11.29    0.98
   4   9  -3   92.90    3.69
   4   9  -3   93.09    3.99
   4   9  -3   90.68    3.90
   4   9  -3   89.42    2.74
  -4  -9   3   96.87    4.29
  -4  -9   3   88.10    3.35
  -4  -9   3   96.17    4.28
   3   9  -3    1.49    0.70
   3   9  -3    1.17    0.80
   3   9  -3    1.73    0.72
  -3  -9   3    2.45    0.93
  -3  -9   3    3.17    0.87
   2   9  -3   86.75    3.81
   2   9  -3   83.46    3.88
   2   9  -3   87.76    3.41
  -2  -9   3   85.28    4.00
  -2  -9   3   84.89    3.97
   1   9  -3    3.33    0.53
   1   9  -3    2.85    1.08
   1   9  -3    2.01    0.74
  -1  -9   3    1.96    0.83
   0   9  -3   61.35    3.25
   0   9  -3   53.80    3.17
   0  -9   3   58.50    3.67
  -1   9  -3    8.22    1.55
  -1   9  -3    6.81    1.39
   1  -9   3   12.26    1.89
   1  -9   3    8.87    0.88
  -2   9  -3   18.59    2.18
  -2   9  -3   12.99    1.90
   2  -9   3   18.55    1.39
   2  -9   3   21.41    2.22
   8   8  -3   31.96    2.54
   8   8  -3   29.26    1.98
  -8  -8   3   35.99    2.62
   7   8  -3    5.44    0.97
   7   8  -3    4.57    0.62
   7   8  -3    5.89    1.18
   7   8  -3    4.48    1.11
  -7  -8   3    2.97    0.97
   6   8  -3   85.61    3.15
   6   8  -3   87.69    3.73
   6   8  -3   84.53    3.89
   6   8  -3   89.37    3.71
  -6  -8   3   87.30    4.01
  -6  -8   3   79.22    5.31
   5   8  -3    2.75    0.56
   5   8  -3    2.59    0.68
   5   8  -3    0.72    0.56
   5   8  -3    2.34    0.71
  -5  -8   3    2.59    0.46
  -5  -8   3    1.15    0.84
  -5  -8   3    1.46    0.69
  -5  -8   3    1.36    0.64
   4   8  -3  125.37    4.64
   4   8  -3  123.47    3.60
   4   8  -3  127.84    4.57
   4   8  -3  121.06    4.40
  -4  -8   3  122.99    4.86
  -4  -8   3  124.94    4.00
  -4  -8   3  116.29    3.68
  -4  -8   3  128.50    4.92
   3   8  -3    3.32    0.89
   3   8  -3    3.16    0.43
   3   8  -3    3.91    0.90
   3   8  -3    3.16    0.72
  -3  -8   3    4.57    1.15
  -3  -8   3    2.89    0.90
  -3  -8   3    4.09    1.00
   2   8  -3   93.22    3.74
   2   8  -3   87.61    2.38
   2   8  -3   89.86    3.88
  -2  -8   3   89.61    3.97
  -2  -8   3   93.18    3.98
  -2  -8   3   99.41    4.10
   1   8  -3   30.82    2.09
   1   8  -3   33.17    2.27
   1   8  -3   31.72    1.48
  -1  -8   3   32.33    2.23
   0   8  -3   26.33    2.07
   0   8  -3   25.63    1.18
   0   8  -3   25.45    1.31
   0   8  -3   26.82    1.98
   0  -8   3   28.66    3.50
  -1   8  -3   90.45    4.07
  -1   8  -3   88.24    4.14
   1  -8   3   97.52    4.22
   1  -8   3   87.66    2.94
  -2   8  -3    6.51    1.04
  -2   8  -3    5.82    1.34
  -2   8  -3    6.85    1.42
  -2   8  -3    6.61    0.61
   2  -8   3    8.32    1.49
   2  -8   3    5.97    0.88
  -3   8  -3   69.62    3.80
  -3   8  -3   62.63    3.85
  -3   8  -3   57.60    3.29
   3  -8   3   66.50    2.93
   3  -8   3   64.87    3.58
   9   7  -3    1.74    0.85
   9   7  -3    2.43    1.15
   9   7  -3    4.13    1.17
  -9  -7   3    2.99    1.35
  -9  -7   3    2.84    1.12
   8   7  -3   63.40    2.99
   8   7  -3   66.99    3.35
   8   7  -3   60.35    2.75
   8   7  -3   69.15    3.62
  -8  -7   3   60.50    3.60
  -8  -7   3   61.14    4.49
   7   7  -3    0.20    0.64
   7   7  -3    0.43    0.58
   7   7  -3    0.88    0.50
   7   7  -3    0.84    0.57
  -7  -7   3    0.71    0.66
  -7  -7   3    0.56    0.70
   6   7  -3   98.81    2.89
   6   7  -3   95.14    2.90
   6   7  -3   98.03    3.48
   6   7  -3   94.10    3.84
   6   7  -3  102.55    5.65
  -6  -7   3   97.26    4.15
  -6  -7   3   97.36    4.32
   5   7  -3   30.15    1.52
   5   7  -3   28.30    1.85
   5   7  -3   32.53    2.02
   5   7  -3   26.82    1.82
  -5  -7   3   28.34    2.03
  -5  -7   3   26.98    2.03
  -5  -7   3   29.23    2.08
  -5  -7   3   27.90    1.42
   4   7  -3  120.81    4.27
   4   7  -3  124.36    3.65
   4   7  -3  120.51    4.32
   4   7  -3  125.44    4.47
  -4  -7   3  122.07    3.77
  -4  -7   3  117.19    3.65
  -4  -7   3  130.54    5.31
  -4  -7   3  116.41    4.62
  -4  -7   3  123.19    4.68
   3   7  -3   52.93    2.62
   3   7  -3   54.19    2.51
   3   7  -3   51.89    1.79
   3   7  -3   51.31    2.34
  -3  -7   3   49.14    3.05
  -3  -7   3   57.11    2.84
  -3  -7   3   49.85    1.89
   2   7  -3   78.71    2.26
   2   7  -3   76.25    3.33
   2   7  -3   78.39    3.19
  -2  -7   3   81.04    3.49
  -2  -7   3   81.23    3.43
  -2  -7   3   68.49    3.32
   1   7  -3   81.48    3.50
   1   7  -3   82.92    3.82
   1   7  -3   77.78    2.37
  -1  -7   3   77.63    3.51
  -1  -7   3   80.90    3.52
   0   7  -3   34.16    1.18
   0   7  -3   37.48    2.16
   0   7  -3   35.39    1.36
   0   7  -3   33.39    2.18
   0   7  -3   34.90    1.53
   0  -7   3   34.72    2.23
  -1   7  -3   84.17    2.47
  -1   7  -3   83.71    3.12
  -1   7  -3   77.76    2.34
  -1   7  -3   91.28    3.78
  -1   7  -3   87.46    3.87
   1  -7   3   84.28    2.80
   1  -7   3   85.66    3.78
  -2   7  -3   10.89    1.07
  -2   7  -3    7.25    0.71
  -2   7  -3    7.79    1.33
  -2   7  -3    8.48    0.79
  -2   7  -3   11.55    1.60
   2  -7   3    9.76    0.98
   2  -7   3   14.74    2.72
  -3   7  -3   62.38    2.71
  -3   7  -3   61.24    3.43
  -3   7  -3   64.47    3.46
  -3   7  -3   59.59    2.31
   3  -7   3   59.18    2.68
   3  -7   3   61.87    3.35
  -4   7  -3   -0.88    0.60
  -4   7  -3    1.25    1.08
  -4   7  -3    0.83    0.87
   4  -7   3    1.56    0.94
   4  -7   3    0.76    0.82
   9   6  -3   -0.56    0.95
   9   6  -3    0.80    0.70
   9   6  -3   -0.18    0.89
  -9  -6   3    0.78    0.89
  -9  -6   3    0.58    1.18
   8   6  -3   81.98    3.41
   8   6  -3   77.40    3.39
   8   6  -3   83.11    3.77
   8   6  -3   78.79    3.90
  -8  -6   3   77.40    4.04
  -8  -6   3   83.67    3.91
   7   6  -3    7.87    1.25
   7   6  -3   12.51    1.56
   7   6  -3   10.25    1.09
   7   6  -3   10.73    1.22
  -7  -6   3    9.34    1.52
  -7  -6   3   11.93    1.61
   6   6  -3   70.06    2.53
   6   6  -3   68.64    2.78
   6   6  -3   72.54    3.13
   6   6  -3   65.01    3.21
  -6  -6   3   65.09    3.95
  -6  -6   3   75.65    3.38
  -6  -6   3   76.03    3.49
   5   6  -3   71.52    2.64
   5   6  -3   70.11    2.22
   5   6  -3   77.27    3.13
   5   6  -3   73.50    2.26
   5   6  -3   72.45    3.41
   5   6  -3   68.90    2.92
  -5  -6   3   73.00    3.26
  -5  -6   3   75.13    3.35
  -5  -6   3   69.81    3.15
   4   6  -3   55.02    2.03
   4   6  -3   54.93    2.50
   4   6  -3   50.04    2.32
   4   6  -3   53.08    2.50
  -4  -6   3   49.72    1.96
  -4  -6   3   52.08    2.64
  -4  -6   3   52.20    1.95
  -4  -6   3   55.52    2.66
  -4  -6   3   50.27    2.54
   3   6  -3  164.51    4.39
   3   6  -3  163.38    5.27
   3   6  -3  161.28    5.01
  -3  -6   3  170.06    5.39
  -3  -6   3  156.27    5.37
  -3  -6   3  156.10    4.68
  -3  -6   3  156.71    5.37
  -3  -6   3  154.08    4.42
   2   6  -3   36.41    1.35
   2   6  -3   39.81    1.94
   2   6  -3   37.64    2.10
  -2  -6   3   37.49    2.16
  -2  -6   3   37.97    2.15
   1   6  -3  125.66    4.29
   1   6  -3  123.62    3.33
   1   6  -3  125.39    4.52
  -1  -6   3  123.52    4.56
  -1  -6   3  129.17    4.54
   0   6  -3    3.54    0.83
   0   6  -3    3.24    0.71
   0   6  -3    3.09    0.43
   0  -6   3    4.29    0.87
   0  -6   3    2.71    0.72
   0  -6   3    3.12    0.45
  -1   6  -3   59.89    3.16
  -1   6  -3   65.44    2.02
  -1   6  -3   68.38    2.17
  -1   6  -3   67.42    3.15
  -1   6  -3   66.69    2.53
  -1   6  -3   63.15    2.03
   1  -6   3   65.79    2.32
   1  -6   3   60.89    2.95
  -2   6  -3    5.90    0.67
  -2   6  -3    3.75    0.95
  -2   6  -3    5.18    0.68
  -2   6  -3    4.32    0.95
  -2   6  -3    3.62    0.68
   2  -6   3    3.83    0.70
   2  -6   3    3.66    0.88
  -3   6  -3   41.62    2.62
  -3   6  -3   36.50    1.66
  -3   6  -3   41.64    1.97
  -3   6  -3   38.77    2.52
   3  -6   3   39.51    2.49
   3  -6   3   39.35    2.04
  -4   6  -3    9.63    1.13
  -4   6  -3    8.18    1.43
  -4   6  -3    7.86    1.41
   4  -6   3   11.12    1.61
   4  -6   3    9.83    1.29
  -5   6  -3   11.93    2.23
  -5   6  -3   17.02    2.24
  -5   6  -3   18.16    1.55
   5  -6   3   17.44    1.67
   5  -6   3   22.37    2.13
   9   5  -3   19.82    1.75
   9   5  -3   22.34    2.13
   9   5  -3   20.92    1.96
   9   5  -3   16.70    2.01
  -9  -5   3   20.35    2.04
  -9  -5   3   19.44    2.51
   8   5  -3   59.41    2.84
   8   5  -3   54.57    3.15
   8   5  -3   61.71    3.13
  -8  -5   3   53.66    3.07
  -8  -5   3   57.54    3.34
   7   5  -3   55.18    2.75
   7   5  -3   54.65    2.92
   7   5  -3   55.41    2.54
  -7  -5   3   50.65    3.45
  -7  -5   3   48.13    2.93
   6   5  -3   65.28    2.87
   6   5  -3   64.31    2.63
   6   5  -3   68.31    3.12
  -6  -5   3   58.74    2.88
  -6  -5   3   64.58    3.15
  -6  -5   3   62.60    3.00
   5   5  -3   97.63    3.21
   5   5  -3   90.08    3.48
   5   5  -3   95.33    3.69
  -5  -5   3   88.08    3.52
  -5  -5   3   97.02    3.71
  -5  -5   3   92.65    3.74
   4   5  -3   18.17    1.20
   4   5  -3   19.05    1.07
   4   5  -3   17.89    0.85
   4   5  -3   17.89    1.31
  -4  -5   3   18.80    1.42
  -4  -5   3   18.68    1.04
  -4  -5   3   16.79    1.36
  -4  -5   3   17.30    0.91
  -4  -5   3   19.89    1.45
   3   5  -3  193.32    5.58
   3   5  -3  177.43    5.68
   3   5  -3  200.21    5.18
  -3  -5   3  196.43    5.98
  -3  -5   3  200.59    5.38
  -3  -5   3  204.59    6.09
  -3  -5   3  192.43    5.16
  -3  -5   3  193.33    6.12
   2   5  -3    1.02    0.28
   2   5  -3    1.70    0.48
   2   5  -3    1.48    0.43
  -2  -5   3    1.06    0.45
  -2  -5   3    1.67    0.33
  -2  -5   3    0.89    0.41
  -2  -5   3    0.92    0.46
  -2  -5   3    0.51    0.44
   1   5  -3  156.37    4.92
   1   5  -3  164.37    5.28
   1   5  -3  163.43    4.26
  -1  -5   3  158.61    5.22
  -1  -5   3  165.95    4.77
  -1  -5   3  171.47    5.84
   0   5  -3    9.95    0.67
   0   5  -3    9.86    0.97
   0   5  -3   11.16    1.35
   0  -5   3    8.42    1.12
   0  -5   3   10.58    0.89
   0  -5   3    9.11    1.16
   0  -5   3    8.88    0.62
  -1   5  -3   92.41    2.81
  -1   5  -3   98.70    3.10
  -1   5  -3   98.22    3.64
  -1   5  -3   94.71    3.73
  -1   5  -3   95.08    2.86
   1  -5   3   96.14    2.98
   1  -5   3   92.00    3.16
   1  -5   3   86.01    4.59
   1  -5   3   88.48    3.61
  -2   5  -3   25.03    1.07
  -2   5  -3   24.43    1.51
  -2   5  -3   25.54    1.19
  -2   5  -3   29.20    1.93
  -2   5  -3   28.48    1.89
   2  -5   3   27.95    1.58
   2  -5   3   29.05    1.48
   2  -5   3   29.23    1.82
  -3   5  -3   40.89    2.39
  -3   5  -3   39.65    2.35
  -3   5  -3   38.21    1.78
  -3   5  -3   35.65    1.31
  -3   5  -3   35.99    1.62
   3  -5   3   37.51    2.23
   3  -5   3   39.16    1.96
  -4   5  -3   25.62    1.50
  -4   5  -3   29.01    2.19
  -4   5  -3   23.77    2.04
   4  -5   3   26.26    1.79
   4  -5   3   26.57    2.00
  -5   5  -3   22.18    2.14
  -5   5  -3   20.86    2.35
  -5   5  -3   16.79    1.34
   5  -5   3   19.31    1.84
   5  -5   3   17.96    1.69
  -6   5  -3   11.72    1.97
  -6   5  -3   10.09    1.76
   6  -5   3    8.96    1.60
   6  -5   3   11.38    1.82
   9   4  -3   39.96    2.72
   9   4  -3   38.96    2.75
   9   4  -3   36.55    2.05
   9   4  -3   41.21    2.52
  -9  -4   3   38.51    2.69
  -9  -4   3   42.42    3.03
   8   4  -3   36.35    2.37
   8   4  -3   42.35    2.62
  -8  -4   3   40.81    2.55
  -8  -4   3   38.47    2.66
   7   4  -3   97.36    3.67
   7   4  -3   94.59    4.31
  -7  -4   3  100.94    4.03
  -7  -4   3   90.73    4.10
   6   4  -3   15.08    1.18
   6   4  -3   13.85    1.32
   6   4  -3   15.66    1.32
  -6  -4   3   17.39    1.49
  -6  -4   3   15.55    1.55
  -6  -4   3   19.35    1.54
   5   4  -3  181.72    5.58
   5   4  -3  184.35    5.78
   5   4  -3  187.34    5.28
  -5  -4   3  176.43    5.77
  -5  -4   3  181.52    5.64
  -5  -4   3  177.87    5.67
   4   4  -3    0.51    0.30
   4   4  -3   -0.23    0.19
   4   4  -3    0.23    0.25
  -4  -4   3   -0.16    0.24
  -4  -4   3    0.07    0.23
  -4  -4   3    0.27    0.19
  -4  -4   3    0.35    0.34
   3   4  -3  190.83    5.35
   3   4  -3  195.47    5.15
  -3  -4   3  192.27    5.11
  -3  -4   3  195.75    5.16
  -3  -4   3  186.44    5.67
  -3  -4   3  193.30    5.69
  -3  -4   3  199.15    5.89
   2   4  -3   32.97    1.27
   2   4  -3   33.42    1.75
   2   4  -3   32.53    1.73
   2   4  -3   35.04    1.31
  -2  -4   3   32.94    1.35
  -2  -4   3   34.22    1.79
  -2  -4   3   31.48    1.64
  -2  -4   3   37.77    1.88
   1   4  -3  198.06    5.54
   1   4  -3  203.61    5.09
   1   4  -3  205.62    5.96
   1   4  -3  189.98    5.70
  -1  -4   3  201.23    5.87
  -1  -4   3  198.34    5.91
  -1  -4   3  191.86    5.38
   0   4  -3   31.64    1.25
   0   4  -3   28.47    1.68
   0   4  -3   27.63    1.53
   0   4  -3   31.29    1.58
   0  -4   3   27.60    1.64
   0  -4   3   28.51    1.63
   0  -4   3   29.56    1.35
   0  -4   3   24.99    1.56
  -1   4  -3   52.16    1.82
  -1   4  -3   51.38    1.82
  -1   4  -3   52.13    2.41
  -1   4  -3   49.81    2.26
  -1   4  -3   49.86    1.84
   1  -4   3   48.01    2.24
   1  -4   3   45.94    1.87
   1  -4   3   47.32    2.34
   1  -4   3   49.97    1.85
  -2   4  -3   57.03    2.63
  -2   4  -3   55.92    2.57
  -2   4  -3   54.91    1.85
  -2   4  -3   57.53    2.04
  -2   4  -3   53.68    1.90
   2  -4   3   54.87    2.15
   2  -4   3   56.61    2.79
   2  -4   3   54.33    2.12
   2  -4   3   52.73    2.48
  -3   4  -3   17.65    1.05
  -3   4  -3   16.75    1.04
  -3   4  -3   16.68    0.91
   3  -4   3   15.37    1.31
   3  -4   3   18.07    1.23
  -4   4  -3   53.66    2.80
  -4   4  -3   47.73    1.82
  -4   4  -3   54.26    2.17
   4  -4   3   50.24    2.62
   4  -4   3   50.47    2.45
  -5   4  -3    8.74    1.37
  -5   4  -3   12.33    1.07
   5  -4   3   12.57    1.50
   5  -4   3   10.90    1.49
  -6   4  -3   41.27    2.79
  -6   4  -3   36.21    1.96
   6  -4   3   36.94    2.58
   6  -4   3   37.92    2.54
  -7   4  -3    5.13    1.40
  -7   4  -3    6.02    0.98
   7  -4   3    6.72    2.06
   7  -4   3    3.98    1.30
   9   3  -3   36.85    1.52
   9   3  -3   36.03    2.57
   9   3  -3   39.34    2.45
   9   3  -3   32.77    2.53
  -9  -3   3   35.15    2.64
  -9  -3   3   39.81    2.84
   8   3  -3    4.64    0.59
   8   3  -3    3.06    0.99
   8   3  -3    4.83    0.92
   8   3  -3    3.02    0.89
  -8  -3   3    3.87    1.00
  -8  -3   3    2.25    0.80
   7   3  -3   96.85    3.66
   7   3  -3   89.76    4.19
   7   3  -3   97.49    4.01
  -7  -3   3  103.24    4.03
  -7  -3   3   94.49    4.11
   6   3  -3    4.03    0.73
   6   3  -3    2.86    0.69
   6   3  -3    2.22    0.62
  -6  -3   3    3.05    0.78
  -6  -3   3    2.84    0.65
   5   3  -3  151.57    4.64
   5   3  -3  157.44    4.93
  -5  -3   3  159.37    5.15
  -5  -3   3  154.65    4.91
  -5  -3   3  160.65    5.04
   4   3  -3   15.83    0.97
   4   3  -3   14.34    1.09
   4   3  -3   16.89    1.16
  -4  -3   3   14.58    0.66
  -4  -3   3   13.34    1.08
  -4  -3   3   14.16    1.09
  -4  -3   3   12.16    0.85
  -4  -3   3   15.51    1.17
   3   3  -3  161.34    4.96
   3   3  -3  179.40    5.04
   3   3  -3  172.52    4.64
  -3  -3   3  162.28    4.47
  -3  -3   3  165.99    4.54
  -3  -3   3  166.00    4.95
  -3  -3   3  167.11    4.95
  -3  -3   3  172.04    5.08
  -3  -3   3  174.96    4.75
   2   3  -3   12.99    0.64
   2   3  -3   11.58    0.77
   2   3  -3   13.15    1.00
   2   3  -3   12.55    0.94
   2   3  -3   12.33    0.71
  -2  -3   3   11.12    0.92
  -2  -3   3   14.70    0.87
  -2  -3   3   11.64    0.94
  -2  -3   3   13.27    0.75
  -2  -3   3   12.61    0.90
  -2  -3   3   13.32    0.74
   1   3  -3  102.04    2.62
   1   3  -3   94.21    2.78
   1   3  -3   94.16    3.26
   1   3  -3   97.73    3.24
   1   3  -3  100.22    3.39
  -1  -3   3   94.85    2.84
  -1  -3   3   96.85    3.38
  -1  -3   3  100.04    2.98
  -1  -3   3   98.10    2.90
  -1  -3   3  102.82    3.37
   0   3  -3   39.29    1.49
   0   3  -3   39.55    1.78
   0   3  -3   41.51    1.95
   0   3  -3   40.99    1.70
   0  -3   3   41.64    1.87
   0  -3   3   37.80    1.47
   0  -3   3   40.00    1.89
   0  -3   3   39.92    1.59
  -1   3  -3   61.61    1.98
  -1   3  -3   60.94    2.11
  -1   3  -3   65.87    2.46
  -1   3  -3   61.81    2.53
   1  -3   3   59.33    2.48
   1  -3   3   60.80    2.04
   1  -3   3   60.14    2.42
   1  -3   3   57.92    2.35
   1  -3   3   62.53    2.10
  -2   3  -3   60.61    2.57
  -2   3  -3   55.58    2.35
  -2   3  -3   58.49    1.95
  -2   3  -3   59.56    1.97
   2  -3   3   55.31    2.03
   2  -3   3   56.26    2.43
   2  -3   3   61.49    2.47
   2  -3   3   60.16    2.51
   2  -3   3   56.32    2.18
  -3   3  -3   19.61    1.02
  -3   3  -3   18.74    1.09
  -3   3  -3   20.48    1.07
   3  -3   3   18.37    1.57
   3  -3   3   21.16    1.52
  -4   3  -3   91.66    3.65
  -4   3  -3   86.46    2.87
  -4   3  -3   81.57    2.77
   4  -3   3   86.90    3.44
   4  -3   3   88.28    3.37
  -5   3  -3    7.46    1.30
  -5   3  -3    7.67    0.91
  -5   3  -3    5.22    0.78
   5  -3   3    4.71    0.90
   5  -3   3    6.40    1.07
  -6   3  -3   52.46    2.37
  -6   3  -3   61.60    3.26
   6  -3   3   53.49    2.93
   6  -3   3   55.41    3.01
  -7   3  -3    0.89    0.68
  -7   3  -3    0.84    0.97
   7  -3   3    1.45    0.81
   7  -3   3    0.03    0.94
   9   2  -3   58.29    3.09
   9   2  -3   62.31    3.36
   9   2  -3   56.06    3.28
  -9  -2   3   62.84    3.43
  -9  -2   3   63.84    3.60
   8   2  -3    2.19    0.84
   8   2  -3    1.86    0.58
   8   2  -3    1.76    0.49
   8   2  -3    1.56    0.68
  -8  -2   3    1.79    1.15
  -8  -2   3    3.00    0.82
   7   2  -3   87.95    3.67
   7   2  -3   78.66    2.41
   7   2  -3   91.42    3.62
   7   2  -3   81.34    3.34
  -7  -2   3   92.34    3.72
  -7  -2   3   82.31    3.74
   6   2  -3   13.05    1.10
   6   2  -3   14.02    0.74
   6   2  -3   13.01    1.26
   6   2  -3   14.45    1.24
  -6  -2   3   13.66    1.23
  -6  -2   3   14.82    1.32
   5   2  -3   73.10    2.66
   5   2  -3   67.55    2.77
   5   2  -3   70.76    2.11
  -5  -2   3   75.85    3.02
  -5  -2   3   68.46    3.03
   4   2  -3   53.49    2.23
   4   2  -3   52.95    2.21
   4   2  -3   56.45    1.88
   4   2  -3   53.50    2.23
   4   2  -3   59.18    2.15
  -4  -2   3   59.36    2.36
  -4  -2   3   56.11    2.06
  -4  -2   3   56.09    2.26
  -4  -2   3   55.94    2.33
  -4  -2   3   57.19    1.70
   3   2  -3   50.43    2.01
   3   2  -3   50.43    1.80
   3   2  -3   48.38    1.90
   3   2  -3   47.65    1.97
  -3  -2   3   48.07    1.97
  -3  -2   3   51.13    2.01
  -3  -2   3   50.17    1.78
  -3  -2   3   48.58    1.59
  -3  -2   3   50.18    2.04
  -3  -2   3   48.39    1.76
   2   2  -3  133.79    3.63
   2   2  -3  131.91    3.97
   2   2  -3  135.78    3.55
   2   2  -3  134.94    3.56
   2   2  -3  132.79    3.98
  -2  -2   3  137.44    4.03
  -2  -2   3  129.32    3.61
  -2  -2   3  131.82    3.94
  -2  -2   3  131.69    3.47
  -2  -2   3  133.05    3.69
  -2  -2   3  132.91    3.84
   1   2  -3   18.12    0.81
   1   2  -3   15.92    1.04
   1   2  -3   19.11    0.88
   1   2  -3   18.07    1.09
   1   2  -3   19.99    0.88
  -1  -2   3   17.10    0.86
  -1  -2   3   18.56    0.83
  -1  -2   3   19.12    1.13
  -1  -2   3   18.89    0.99
  -1  -2   3   18.86    1.11
  -1  -2   3   18.51    0.95
   0   2  -3  190.31    5.00
   0   2  -3  193.35    4.79
   0   2  -3  185.23    5.20
   0   2  -3  192.93    5.39
   0   2  -3  189.68    4.91
   0  -2   3  177.63    5.29
   0  -2   3  188.63    4.75
   0  -2   3  188.39    5.25
   0  -2   3  187.37    4.84
  -1   2  -3   27.62    1.03
  -1   2  -3   29.36    1.28
  -1   2  -3   30.97    1.42
  -1   2  -3   26.62    1.42
   1  -2   3   29.21    1.35
   1  -2   3   27.04    1.37
   1  -2   3   27.96    1.08
   1  -2   3   27.62    1.21
   1  -2   3   26.21    1.41
  -2   2  -3  154.80    4.55
  -2   2  -3  158.36    4.19
  -2   2  -3  156.75    3.99
   2  -2   3  146.88    4.07
   2  -2   3  153.72    4.56
   2  -2   3  150.76    4.60
   2  -2   3  148.44    4.36
   2  -2   3  149.13    4.53
  -3   2  -3    7.24    0.64
  -3   2  -3    8.00    0.58
  -3   2  -3    8.85    0.90
  -3   2  -3    6.65    0.88
  -3   2  -3    7.78    0.65
   3  -2   3    8.02    0.98
   3  -2   3    6.54    0.91
   3  -2   3    9.44    0.86
   3  -2   3    8.06    0.80
  -4   2  -3  104.18    3.88
  -4   2  -3   97.90    3.18
  -4   2  -3  107.83    3.21
  -4   2  -3  105.52    3.79
   4  -2   3  105.19    3.72
   4  -2   3  100.17    3.35
   4  -2   3  109.74    3.77
  -5   2  -3    0.78    0.50
  -5   2  -3    0.88    0.57
  -5   2  -3    1.08    0.54
  -5   2  -3    0.84    0.40
   5  -2   3    0.04    0.40
   5  -2   3    0.76    0.46
   5  -2   3    0.48    0.50
  -6   2  -3   73.63    3.48
  -6   2  -3   73.28    2.75
  -6   2  -3   68.56    3.84
   6  -2   3   71.12    3.37
   6  -2   3   68.97    2.85
   6  -2   3   68.20    3.24
  -7   2  -3    0.92    0.82
  -7   2  -3    0.78    0.58
  -7   2  -3    1.38    0.89
   7  -2   3    0.75    0.82
   7  -2   3    1.38    0.74
   7  -2   3    1.23    0.88
  -8   2  -3   37.60    2.25
  -8   2  -3   38.98    2.99
   8  -2   3   41.09    2.58
   8  -2   3   38.59    2.97
   8  -2   3   44.29    2.99
   9   1  -3   38.53    2.62
   9   1  -3   31.91    2.29
   9   1  -3   36.10    2.57
  -9  -1   3   40.67    2.90
  -9  -1   3   36.32    2.61
   8   1  -3   11.47    1.55
   8   1  -3   12.91    0.94
   8   1  -3   12.07    1.58
   8   1  -3   13.96    1.60
   8   1  -3   14.97    1.45
  -8  -1   3   13.94    1.79
  -8  -1   3   14.11    1.82
   7   1  -3   51.01    1.93
   7   1  -3   57.55    2.79
   7   1  -3   54.74    2.19
   7   1  -3   54.82    2.69
   7   1  -3   57.43    2.61
  -7  -1   3   51.98    2.89
  -7  -1   3   52.72    2.76
   6   1  -3   36.52    1.96
   6   1  -3   32.16    1.93
   6   1  -3   35.95    1.87
   6   1  -3   35.47    1.43
  -6  -1   3   35.27    1.99
  -6  -1   3   37.76    2.18
   5   1  -3   82.58    3.06
   5   1  -3   80.97    2.88
   5   1  -3   81.19    2.40
  -5  -1   3   77.07    3.12
  -5  -1   3   74.16    2.93
  -5  -1   3   80.83    3.10
   4   1  -3   86.60    2.96
   4   1  -3   75.91    2.82
   4   1  -3   83.84    2.78
   4   1  -3   85.33    3.54
   4   1  -3   85.67    2.42
  -4  -1   3   79.64    2.54
  -4  -1   3   82.23    3.27
  -4  -1   3   83.49    2.70
  -4  -1   3   85.11    3.02
  -4  -1   3   81.80    2.88
   3   1  -3   33.93    1.52
   3   1  -3   32.69    1.38
   3   1  -3   31.81    1.47
   3   1  -3   33.87    1.45
   3   1  -3   34.75    1.24
  -3  -1   3   36.45    1.57
  -3  -1   3   32.26    1.35
  -3  -1   3   34.72    1.54
  -3  -1   3   32.88    1.48
  -3  -1   3   33.45    1.20
  -3  -1   3   34.79    1.22
   2   1  -3  253.30    6.41
   2   1  -3  240.40    6.17
   2   1  -3  239.22    6.37
   2   1  -3  255.12    5.94
   2   1  -3  247.10    6.16
   2   1  -3  248.72    6.17
  -2  -1   3  239.40    6.09
  -2  -1   3  240.75    6.34
  -2  -1   3  244.79    5.85
  -2  -1   3  243.71    6.24
  -2  -1   3  250.20    6.42
  -2  -1   3  244.13    6.13
   1   1  -3   39.71    1.24
   1   1  -3   42.92    1.45
   1   1  -3   40.66    1.62
   1   1  -3   42.69    1.64
   1   1  -3   38.91    1.53
  -1  -1   3   41.25    1.63
  -1  -1   3   40.96    1.53
  -1  -1   3   40.62    1.22
  -1  -1   3   40.40    1.43
  -1  -1   3   38.92    1.38
   0   1  -3  251.35    6.40
   0   1  -3  258.09    6.72
   0   1  -3  255.48    6.30
   0   1  -3  247.41    6.59
   0   1  -3  257.95    6.34
   0  -1   3  259.82    6.40
   0  -1   3  261.98    6.64
   0  -1   3  260.34    6.71
   0  -1   3  256.99    6.13
  -1   1  -3    0.30    0.09
  -1   1  -3    0.12    0.14
  -1   1  -3    0.66    0.25
  -1   1  -3    0.29    0.18
  -1   1  -3    0.32    0.21
   1  -1   3    0.49    0.22
   1  -1   3    0.37    0.13
   1  -1   3    0.23    0.18
   1  -1   3   -0.01    0.16
   1  -1   3    0.42    0.19
  -2   1  -3  238.93    6.20
  -2   1  -3  244.90    5.83
  -2   1  -3  237.20    6.41
  -2   1  -3  249.09    6.53
  -2   1  -3  240.92    6.29
   2  -1   3  239.63    6.37
   2  -1   3  236.18    6.45
   2  -1   3  248.35    6.38
   2  -1   3  245.64    6.44
  -3   1  -3    1.01    0.33
  -3   1  -3    1.28    0.30
  -3   1  -3    1.36    0.38
  -3   1  -3    1.81    0.38
  -3   1  -3    1.35    0.29
  -3   1  -3    1.01    0.33
   3  -1   3    1.30    0.35
   3  -1   3    2.06    0.78
   3  -1   3    0.35    0.27
   3  -1   3    2.11    0.46
   3  -1   3    0.70    0.31
  -4   1  -3  111.94    3.78
  -4   1  -3  109.61    3.32
  -4   1  -3  109.48    3.29
  -4   1  -3  112.84    3.82
  -4   1  -3  120.45    4.30
   4  -1   3  117.81    3.92
   4  -1   3  117.83    3.81
   4  -1   3  112.34    3.59
  -5   1  -3    0.43    0.42
  -5   1  -3    0.63    0.44
  -5   1  -3    0.42    0.30
  -5   1  -3    0.96    0.49
   5  -1   3    0.22    0.40
   5  -1   3    0.39    0.40
  -6   1  -3   59.22    2.34
  -6   1  -3   59.49    2.90
  -6   1  -3   55.54    2.85
   6  -1   3   55.08    2.50
   6  -1   3   52.08    2.79
   6  -1   3   55.91    2.76
  -7   1  -3    3.55    0.98
  -7   1  -3    4.04    0.80
  -7   1  -3    4.15    1.00
   7  -1   3    4.82    1.05
   7  -1   3    6.13    1.01
   7  -1   3    5.10    1.04
  -8   1  -3   12.16    1.76
  -8   1  -3   12.94    1.78
   8  -1   3   18.32    2.11
   8  -1   3   12.84    1.85
   9   0  -3   18.11    2.13
   9   0  -3   17.16    1.93
   9   0  -3   22.56    1.98
  -9   0   3   18.10    2.22
  -9   0   3   15.86    2.00
  -9   0   3   14.74    2.15
   8   0  -3   37.22    2.28
   8   0  -3   36.87    2.37
   8   0  -3   42.46    2.48
   8   0  -3   33.93    1.65
  -8   0   3   40.93    2.66
  -8   0   3   36.02    2.41
   7   0  -3   38.32    2.21
   7   0  -3   35.86    2.01
   7   0  -3   38.47    1.74
   7   0  -3   35.73    1.59
   7   0  -3   32.88    2.05
  -7   0   3   38.44    2.29
  -7   0   3   38.70    2.44
   6   0  -3   79.87    2.58
   6   0  -3   77.07    2.61
   6   0  -3   77.11    3.17
   6   0  -3   80.93    3.07
   6   0  -3   79.10    3.17
  -6   0   3   75.66    3.20
  -6   0   3   76.56    3.36
   5   0  -3   40.73    1.98
   5   0  -3   36.63    1.91
   5   0  -3   40.80    2.12
   5   0  -3   39.10    1.55
   5   0  -3   37.98    1.80
  -5   0   3   39.58    2.09
  -5   0   3   45.75    2.19
  -5   0   3   41.91    2.02
   4   0  -3   84.38    2.54
   4   0  -3   84.16    2.92
   4   0  -3   87.89    3.21
   4   0  -3   81.34    2.90
   4   0  -3   81.76    2.78
  -4   0   3   88.10    3.23
  -4   0   3   80.08    2.71
  -4   0   3   89.85    3.01
  -4   0   3   87.01    3.09
   3   0  -3   26.82    1.33
   3   0  -3   27.64    1.25
   3   0  -3   28.29    1.34
   3   0  -3   26.91    1.28
   3   0  -3   28.71    1.13
  -3   0   3   28.09    1.35
  -3   0   3   29.32    1.35
  -3   0   3   28.70    1.38
  -3   0   3   28.84    1.24
  -3   0   3   27.22    1.12
   2   0  -3   99.81    2.82
   2   0  -3   98.41    2.97
   2   0  -3   95.88    2.84
   2   0  -3  101.89    2.97
   2   0  -3  101.74    2.78
  -2   0   3   97.84    2.78
  -2   0   3  103.32    2.85
  -2   0   3   99.26    2.93
  -2   0   3   99.09    2.53
  -2   0   3   99.95    2.98
  -2   0   3  102.87    2.92
   1   0  -3    0.17    0.14
   1   0  -3    0.02    0.11
   1   0  -3    0.30    0.17
   1   0  -3    0.16    0.07
   1   0  -3    0.16    0.12
   1   0  -3   -0.04    0.12
   1   0  -3    0.00    0.14
  -1   0   3   -0.05    0.13
  -1   0   3    0.32    0.14
  -1   0   3    0.17    0.15
  -1   0   3    0.12    0.06
  -1   0   3    0.16    0.11
  -1   0   3    0.27    0.15
   0   0  -3  350.77    8.48
   0   0  -3  341.76    8.52
   0   0  -3  347.92    8.41
   0   0  -3  356.68    8.68
   0   0   3  345.26    8.44
   0   0   3  339.82    8.51
   0   0   3  339.54    8.45
   0   0   3  350.08    8.53
  -1   0  -3    3.01    0.43
  -1   0  -3    2.82    0.45
  -1   0  -3    2.57    0.40
  -1   0  -3    3.11    0.44
   1   0   3    3.04    0.43
   1   0   3    3.01    0.31
   1   0   3    3.03    0.44
   1   0   3    3.82    0.57
  -2   0  -3  247.56    5.75
  -2   0  -3  239.17    6.32
  -2   0  -3  242.41    6.30
  -2   0  -3  251.73    6.27
  -2   0  -3  244.29    6.36
  -2   0  -3  237.90    6.14
   2   0   3  243.74    6.23
   2   0   3  238.41    6.30
   2   0   3  253.24    6.31
   2   0   3  244.63    6.36
   2   0   3  244.48    6.32
  -3   0  -3   28.20    1.32
  -3   0  -3   26.82    1.40
  -3   0  -3   29.72    1.37
  -3   0  -3   27.93    1.38
   3   0   3   28.99    1.55
   3   0   3   30.43    1.45
   3   0   3   29.49    1.46
   3   0   3   29.21    1.35
   3   0   3   30.36    1.39
  -4   0  -3  152.48    4.90
  -4   0  -3  153.34    4.09
  -4   0  -3  158.66    4.68
  -4   0  -3  154.90    4.18
  -4   0  -3  143.98    4.74
  -4   0  -3  151.54    4.65
   4   0   3  158.57    4.82
   4   0   3  158.76    4.64
   4   0   3  152.03    4.53
  -5   0  -3   67.96    2.42
  -5   0  -3   68.26    2.82
  -5   0  -3   68.77    2.85
  -5   0  -3   72.64    2.45
  -5   0  -3   69.42    2.88
   5   0   3   71.00    2.79
   5   0   3   71.58    2.73
   5   0   3   63.87    2.83
  -6   0  -3   36.93    2.20
  -6   0  -3   34.41    1.75
  -6   0  -3   37.89    2.23
  -6   0  -3   33.05    1.52
   6   0   3   35.99    2.22
   6   0   3   40.54    2.09
   6   0   3   38.11    2.14
  -7   0  -3   72.12    2.87
  -7   0  -3   72.05    3.45
   7   0   3   70.24    3.25
   7   0   3   71.17    3.46
   7   0   3   70.92    3.15
  -8   0  -3    4.81    1.12
  -8   0  -3    5.36    0.92
  -8   0  -3    3.70    0.99
   8   0   3    4.22    1.10
   8   0   3    5.00    1.26
   8   0   3    5.32    1.29
   9  -1  -3    9.60    1.51
   9  -1  -3   11.09    2.15
   9  -1  -3   10.05    1.78
  -9   1   3   11.05    1.66
  -9   1   3    8.29    2.58
  -9   1   3   13.28    1.83
   8  -1  -3   26.12    1.93
   8  -1  -3   28.64    2.06
   8  -1  -3   29.80    2.21
  -8   1   3   22.99    2.03
  -8   1   3   25.39    2.22
  -8   1   3   24.08    2.06
   7  -1  -3    9.37    1.18
   7  -1  -3   11.26    1.98
   7  -1  -3    8.70    0.82
   7  -1  -3   10.50    1.42
  -7   1   3   11.55    1.80
  -7   1   3    8.65    1.23
   6  -1  -3   71.62    3.04
   6  -1  -3   72.83    2.84
   6  -1  -3   66.77    2.67
   6  -1  -3   68.90    2.84
   6  -1  -3   69.13    2.57
  -6   1   3   70.34    3.03
  -6   1   3   70.71    3.22
   5  -1  -3   11.35    1.04
   5  -1  -3   12.27    1.05
   5  -1  -3   11.76    1.00
   5  -1  -3   12.41    0.82
   5  -1  -3   12.41    0.96
   5  -1  -3   12.16    0.87
  -5   1   3   11.95    1.14
  -5   1   3   12.44    1.08
   4  -1  -3  130.09    4.17
   4  -1  -3  132.50    4.01
   4  -1  -3  142.29    4.25
   4  -1  -3  134.65    4.16
   4  -1  -3  134.40    3.85
  -4   1   3  140.69    4.40
  -4   1   3  135.02    3.97
  -4   1   3  143.20    4.19
  -4   1   3  134.78    4.20
   3  -1  -3    3.76    0.46
   3  -1  -3    2.00    0.41
   3  -1  -3    3.93    0.53
   3  -1  -3    3.06    0.48
   3  -1  -3    3.47    0.50
  -3   1   3    3.81    0.58
  -3   1   3    2.91    0.44
  -3   1   3    4.52    0.65
  -3   1   3    4.58    0.60
   2  -1  -3  254.94    6.71
   2  -1  -3  260.66    6.37
   2  -1  -3  265.90    6.42
   2  -1  -3  249.58    6.47
   2  -1  -3  257.09    6.39
  -2   1   3  258.36    6.49
  -2   1   3  260.46    6.40
  -2   1   3  252.78    6.44
  -2   1   3  253.34    6.46
  -2   1   3  257.18    6.39
   1  -1  -3    2.70    0.25
   1  -1  -3    2.45    0.32
   1  -1  -3    3.01    0.36
   1  -1  -3    2.39    0.33
  -1   1   3    2.57    0.34
  -1   1   3    2.64    0.28
  -1   1   3    2.81    0.35
  -1   1   3    2.69    0.42
  -1   1   3    2.77    0.25
   0  -1  -3  352.53    8.22
   0  -1  -3  323.99    8.32
   0  -1  -3  332.73    8.11
   0  -1  -3  321.53    8.22
   0  -1  -3  341.60    8.02
   0   1   3  332.78    8.05
   0   1   3  340.26    7.76
   0   1   3  333.15    8.21
   0   1   3  335.94    8.16
   0   1   3  333.15    8.11
  -1  -1  -3    8.11    0.51
  -1  -1  -3    7.21    0.55
  -1  -1  -3    7.20    0.35
  -1  -1  -3    7.55    0.50
  -1  -1  -3    7.66    0.56
   1   1   3    7.79    0.49
   1   1   3    7.78    0.57
   1   1   3    8.96    0.62
   1   1   3    7.92    0.38
   1   1   3    9.53    0.53
   1   1   3    8.01    0.61
  -2  -1  -3  287.52    7.14
  -2  -1  -3  280.60    6.90
  -2  -1  -3  286.99    7.02
  -2  -1  -3  282.64    7.06
  -2  -1  -3  290.54    7.20
   2   1   3  286.61    7.18
   2   1   3  278.74    7.21
   2   1   3  276.88    6.99
   2   1   3  284.30    7.00
   2   1   3  280.21    7.19
   2   1   3  289.49    6.98
  -3  -1  -3   60.70    2.10
  -3  -1  -3   58.25    2.08
  -3  -1  -3   59.52    2.13
  -3  -1  -3   60.69    2.15
   3   1   3   60.98    2.16
   3   1   3   61.37    2.10
   3   1   3   58.31    2.23
   3   1   3   61.79    2.08
   3   1   3   60.55    2.17
  -4  -1  -3   79.55    2.80
  -4  -1  -3   76.98    2.23
  -4  -1  -3   81.06    2.79
  -4  -1  -3   82.67    2.85
  -4  -1  -3   77.43    2.65
  -4  -1  -3   78.78    2.75
   4   1   3   73.70    2.83
   4   1   3   81.71    2.73
   4   1   3   78.01    2.74
   4   1   3   82.01    2.81
  -5  -1  -3  143.12    4.49
  -5  -1  -3  137.31    4.38
  -5  -1  -3  133.36    3.61
  -5  -1  -3  141.02    4.48
   5   1   3  132.27    4.50
   5   1   3  131.73    4.49
   5   1   3  136.04    4.28
  -6  -1  -3   31.32    1.83
  -6  -1  -3   28.54    1.83
  -6  -1  -3   33.56    2.00
  -6  -1  -3   34.23    1.96
   6   1   3   36.51    1.94
   6   1   3   34.09    2.02
   6   1   3   31.22    1.83
  -7  -1  -3   98.82    4.03
  -7  -1  -3  100.40    4.10
  -7  -1  -3   95.94    3.51
   7   1   3  102.35    3.93
   7   1   3   99.90    3.89
   7   1   3   95.94    4.09
  -8  -1  -3    6.47    0.98
  -8  -1  -3    5.89    1.19
  -8  -1  -3    5.53    1.12
   8   1   3    4.96    1.07
   8   1   3    7.05    1.29
   8   1   3    3.09    1.02
  -9  -1  -3   41.99    2.94
  -9  -1  -3   37.55    2.79
  -9  -1  -3   37.68    2.38
   9   1   3   44.69    3.06
   9   1   3   41.29    2.75
   9   1   3   44.54    3.07
   9   1   3   41.31    2.69
   9  -2  -3    3.21    1.08
   9  -2  -3    3.73    1.31
  -9   2   3    5.67    1.36
  -9   2   3    6.82    1.49
  -9   2   3    3.48    1.22
   8  -2  -3   24.72    2.07
   8  -2  -3   21.11    1.68
   8  -2  -3   20.99    2.19
  -8   2   3   21.10    2.08
  -8   2   3   20.60    2.01
  -8   2   3   22.29    1.94
   7  -2  -3    4.42    0.88
   7  -2  -3    3.77    0.95
   7  -2  -3    3.76    0.91
   7  -2  -3    4.38    0.66
  -7   2   3    3.40    1.01
  -7   2   3    4.17    1.03
  -7   2   3    4.54    1.05
   6  -2  -3   62.25    2.30
   6  -2  -3   60.97    2.79
   6  -2  -3   58.14    2.52
   6  -2  -3   59.38    2.57
  -6   2   3   61.55    2.83
  -6   2   3   61.08    2.93
  -6   2   3   54.93    2.92
   5  -2  -3    4.44    0.63
   5  -2  -3    3.98    0.70
   5  -2  -3    4.57    0.70
   5  -2  -3    3.93    0.66
   5  -2  -3    3.28    0.69
  -5   2   3    4.66    0.82
  -5   2   3    4.69    0.78
  -5   2   3    3.83    0.80
   4  -2  -3  150.11    4.56
   4  -2  -3  155.29    4.24
   4  -2  -3  149.81    4.68
   4  -2  -3  153.23    4.64
   4  -2  -3  160.55    4.65
   4  -2  -3  143.78    4.98
  -4   2   3  144.86    4.30
  -4   2   3  150.11    4.52
  -4   2   3  151.86    4.60
  -4   2   3  149.45    4.72
   3  -2  -3    0.73    0.22
   3  -2  -3    0.67    0.29
   3  -2  -3    0.52    0.25
   3  -2  -3    0.48    0.26
   3  -2  -3    0.41    0.24
  -3   2   3    0.50    0.22
  -3   2   3    0.65    0.25
  -3   2   3    0.18    0.25
  -3   2   3    1.19    0.35
  -3   2   3    0.36    0.22
   2  -2  -3  212.65    5.47
   2  -2  -3  213.60    5.53
   2  -2  -3  220.95    5.59
   2  -2  -3  222.11    5.56
   2  -2  -3  219.39    5.57
  -2   2   3  214.61    5.46
  -2   2   3  211.49    5.50
  -2   2   3  206.93    5.55
  -2   2   3  216.76    5.68
  -2   2   3  222.13    5.74
   1  -2  -3   64.69    1.93
   1  -2  -3   59.81    1.79
   1  -2  -3   60.07    1.78
   1  -2  -3   58.50    1.81
   1  -2  -3   56.67    1.86
  -1   2   3   58.19    1.88
  -1   2   3   60.06    1.81
  -1   2   3   60.81    1.82
  -1   2   3   57.69    1.75
  -1   2   3   59.94    1.91
  -1   2   3   59.52    1.63
   0  -2  -3  231.99    5.68
   0  -2  -3  220.73    5.29
   0  -2  -3  221.33    5.29
   0  -2  -3  220.56    5.51
   0  -2  -3  225.42    5.20
   0  -2  -3  217.29    5.52
   0  -2  -3  222.69    5.25
   0  -2  -3  219.72    5.15
   0   2   3  222.41    5.49
   0   2   3  219.26    5.28
   0   2   3  215.94    5.21
   0   2   3  223.37    5.18
   0   2   3  212.97    5.52
  -1  -2  -3  450.34   10.55
  -1  -2  -3  443.64   10.13
  -1  -2  -3  446.45   10.24
  -1  -2  -3  450.73   10.34
  -1  -2  -3  451.04   10.60
  -1  -2  -3  436.04   10.64
   1   2   3  425.69   10.74
   1   2   3  444.15   10.17
   1   2   3  443.07   10.16
   1   2   3  439.92   10.22
   1   2   3  442.96   10.61
   1   2   3  435.88   10.67
   1   2   3  440.82   10.16
  -2  -2  -3  199.77    4.90
  -2  -2  -3  198.00    4.92
  -2  -2  -3  196.72    5.19
  -2  -2  -3  188.31    5.14
  -2  -2  -3  205.36    4.94
   2   2   3  195.94    5.19
   2   2   3  197.53    5.23
   2   2   3  192.76    5.15
   2   2   3  197.31    4.86
   2   2   3  195.93    4.95
  -3  -2  -3  222.31    5.97
  -3  -2  -3  227.62    5.86
  -3  -2  -3  220.25    5.79
  -3  -2  -3  234.81    5.83
   3   2   3  220.88    5.74
   3   2   3  225.42    5.97
   3   2   3  219.43    6.04
   3   2   3  228.11    6.27
   3   2   3  232.30    5.73
   3   2   3  225.95    6.01
  -4  -2  -3   41.83    1.75
  -4  -2  -3   38.53    1.65
  -4  -2  -3   40.55    1.71
  -4  -2  -3   39.54    1.75
  -4  -2  -3   39.11    1.63
   4   2   3   37.54    1.74
   4   2   3   39.06    1.83
   4   2   3   42.42    1.73
   4   2   3   39.31    1.82
   4   2   3   37.76    1.61
   4   2   3   38.10    1.78
  -5  -2  -3  138.50    4.77
  -5  -2  -3  136.01    4.31
  -5  -2  -3  130.40    4.24
   5   2   3  136.45    4.50
   5   2   3  147.14    5.88
   5   2   3  141.96    4.64
  -6  -2  -3    0.92    0.53
  -6  -2  -3    1.24    0.49
  -6  -2  -3    1.04    0.45
   6   2   3    2.47    0.74
   6   2   3    0.91    0.46
   6   2   3    1.73    0.56
  -7  -2  -3   88.70    3.72
  -7  -2  -3   92.69    3.72
   7   2   3   87.32    3.78
   7   2   3   85.77    3.45
   7   2   3   91.30    3.40
   7   2   3   82.21    3.56
  -8  -2  -3    1.68    0.74
  -8  -2  -3    3.10    0.89
   8   2   3    2.10    0.80
   8   2   3    3.19    0.92
   8   2   3    2.88    0.77
   8   2   3    2.67    1.00
  -9  -2  -3   33.10    2.18
  -9  -2  -3   35.48    2.54
  -9  -2  -3   34.21    2.59
   9   2   3   32.23    2.58
   9   2   3   31.76    2.37
   9   2   3   37.16    2.52
   9   2   3   35.73    2.50
   8  -3  -3   22.31    1.79
   8  -3  -3   25.78    2.23
   8  -3  -3   22.74    1.78
  -8   3   3   29.49    2.50
  -8   3   3   27.84    2.62
  -8   3   3   27.45    2.21
   7  -3  -3    0.44    0.46
   7  -3  -3    0.52    0.50
   7  -3  -3    0.06    0.51
  -7   3   3    0.59    0.68
  -7   3   3   -0.06    0.54
  -7   3   3   -0.72    0.55
   6  -3  -3   50.37    2.26
   6  -3  -3   52.62    2.63
   6  -3  -3   50.62    2.14
   6  -3  -3   49.22    2.31
  -6   3   3   53.67    2.75
  -6   3   3   52.06    2.89
  -6   3   3   53.79    2.67
   5  -3  -3   18.15    1.35
   5  -3  -3   17.87    1.35
   5  -3  -3   21.45    1.18
   5  -3  -3   20.11    1.24
   5  -3  -3   20.25    1.20
  -5   3   3   16.59    1.32
  -5   3   3   18.36    1.52
  -5   3   3   16.69    1.31
   4  -3  -3  118.45    3.85
   4  -3  -3  118.53    3.56
   4  -3  -3  118.76    3.98
   4  -3  -3  113.03    3.70
  -4   3   3  118.77    4.13
  -4   3   3  118.64    3.99
  -4   3   3  116.71    3.85
   3  -3  -3   48.59    1.78
   3  -3  -3   47.01    2.12
   3  -3  -3   47.97    1.94
   3  -3  -3   47.57    1.76
   3  -3  -3   44.18    1.93
   3  -3  -3   46.67    1.89
  -3   3   3   47.75    1.87
  -3   3   3   48.18    2.10
  -3   3   3   49.75    2.06
  -3   3   3   47.13    1.74
   2  -3  -3  106.79    3.26
   2  -3  -3  110.23    3.30
   2  -3  -3  108.00    3.22
   2  -3  -3  111.49    3.20
   2  -3  -3  116.07    3.12
  -2   3   3  111.53    3.09
  -2   3   3  108.14    3.15
  -2   3   3  113.44    3.45
  -2   3   3  112.75    3.22
  -2   3   3  110.80    3.40
   1  -3  -3  211.08    5.33
   1  -3  -3  206.09    5.09
   1  -3  -3  210.83    5.30
   1  -3  -3  212.51    5.26
   1  -3  -3  200.60    5.09
   1  -3  -3  198.46    5.09
  -1   3   3  201.91    5.32
  -1   3   3  205.95    5.12
  -1   3   3  205.31    5.34
  -1   3   3  202.61    5.05
  -1   3   3  203.35    5.11
   0  -3  -3   75.69    2.14
   0  -3  -3   78.43    2.40
   0  -3  -3   77.87    2.30
   0  -3  -3   73.62    2.19
   0  -3  -3   78.44    2.20
   0  -3  -3   78.39    1.97
   0  -3  -3   79.89    2.34
   0   3   3   77.04    1.92
   0   3   3   74.86    2.30
   0   3   3   77.89    1.91
   0   3   3   73.31    2.23
   0   3   3   76.12    2.12
  -1  -3  -3  345.62    8.26
  -1  -3  -3  348.66    8.30
  -1  -3  -3  344.62    8.09
  -1  -3  -3  341.73    8.47
  -1  -3  -3  341.92    7.79
  -1  -3  -3  339.45    8.16
  -1  -3  -3  338.18    7.81
  -1  -3  -3  345.39    8.33
   1   3   3  341.70    8.14
   1   3   3  343.13    8.48
   1   3   3  338.25    8.35
   1   3   3  344.34    8.16
  -2  -3  -3   22.96    0.96
  -2  -3  -3   24.53    1.11
  -2  -3  -3   24.84    0.84
  -2  -3  -3   23.62    0.92
  -2  -3  -3   24.67    1.05
  -2  -3  -3   23.27    1.05
  -2  -3  -3   24.70    0.84
  -2  -3  -3   24.50    1.12
   2   3   3   22.13    1.08
   2   3   3   25.26    0.80
   2   3   3   23.53    1.13
   2   3   3   23.86    0.78
   2   3   3   24.30    1.02
  -3  -3  -3  384.53    9.42
  -3  -3  -3  389.56    9.24
  -3  -3  -3  391.56    9.59
  -3  -3  -3  378.32    9.53
  -3  -3  -3  388.70    9.22
   3   3   3  383.50    9.35
   3   3   3  393.36    9.63
   3   3   3  381.96    9.14
   3   3   3  382.70    9.54
   3   3   3  366.96    9.56
  -4  -3  -3   13.64    0.88
  -4  -3  -3   12.29    0.83
  -4  -3  -3   14.59    0.97
  -4  -3  -3   13.95    0.98
  -4  -3  -3   15.15    0.91
   4   3   3   16.43    1.07
   4   3   3   14.97    0.90
   4   3   3   14.57    0.84
   4   3   3   14.38    1.02
   4   3   3   14.03    0.98
   4   3   3   14.10    0.84
  -5  -3  -3  160.24    4.61
  -5  -3  -3  145.89    4.68
  -5  -3  -3  148.12    4.51
   5   3   3  150.59    4.78
   5   3   3  152.77    4.45
   5   3   3  158.15    4.86
  -6  -3  -3   11.21    1.08
  -6  -3  -3   10.43    0.99
  -6  -3  -3   10.27    1.00
   6   3   3   11.53    1.12
   6   3   3    9.49    0.89
   6   3   3   11.02    1.10
   6   3   3   12.15    1.53
  -7  -3  -3   65.44    2.92
  -7  -3  -3   66.13    3.04
  -7  -3  -3   61.18    2.86
   7   3   3   66.51    2.79
   7   3   3   67.44    2.67
   7   3   3   63.61    3.06
   7   3   3   59.88    2.93
  -8  -3  -3   19.83    1.69
  -8  -3  -3   16.87    1.62
   8   3   3   18.94    1.70
   8   3   3   16.29    1.50
   8   3   3   15.43    1.88
  -9  -3  -3   17.77    1.86
  -9  -3  -3   12.14    1.79
   9   3   3   18.60    1.98
   9   3   3   16.20    1.53
   9   3   3   17.78    1.82
   8  -4  -3   29.71    1.96
   8  -4  -3   30.35    2.41
  -8   4   3   24.86    2.69
  -8   4   3   29.07    2.35
   7  -4  -3   11.46    1.60
   7  -4  -3   10.61    1.11
   7  -4  -3    8.02    1.14
  -7   4   3    9.92    1.50
  -7   4   3    9.70    1.62
  -7   4   3   10.74    1.63
   6  -4  -3   69.78    3.19
   6  -4  -3   72.74    2.78
   6  -4  -3   68.52    2.84
  -6   4   3   74.25    3.32
  -6   4   3   74.72    5.29
  -6   4   3   70.38    3.24
   5  -4  -3   43.99    1.84
   5  -4  -3   44.94    1.95
   5  -4  -3   45.32    2.00
   5  -4  -3   46.29    2.66
  -5   4   3   41.21    2.25
  -5   4   3   44.42    2.55
  -5   4   3   40.09    2.18
   4  -4  -3  123.30    4.11
   4  -4  -3  124.09    3.83
   4  -4  -3  123.06    3.78
   4  -4  -3  118.38    4.05
   4  -4  -3  129.42    3.66
  -4   4   3  125.14    4.13
  -4   4   3  131.08    4.29
  -4   4   3  123.95    4.46
   3  -4  -3  137.07    4.15
   3  -4  -3  132.74    4.16
   3  -4  -3  131.62    4.27
   3  -4  -3  138.94    3.88
   3  -4  -3  139.53    4.57
   3  -4  -3  141.84    4.02
  -3   4   3  138.15    4.32
  -3   4   3  134.43    4.93
  -3   4   3  138.53    3.88
   2  -4  -3  174.98    4.58
   2  -4  -3  165.85    4.36
   2  -4  -3  146.96    5.16
   2  -4  -3  168.43    4.99
   2  -4  -3  167.90    4.57
   2  -4  -3  166.09    4.58
   2  -4  -3  171.47    4.80
  -2   4   3  164.95    4.92
  -2   4   3  166.38    4.37
  -2   4   3  168.57    4.79
  -2   4   3  171.69    4.58
  -2   4   3  175.59    4.73
  -2   4   3  153.87    4.53
   1  -4  -3  170.85    4.66
   1  -4  -3  171.54    4.64
   1  -4  -3  176.84    4.30
   1  -4  -3  172.00    4.49
   1  -4  -3  174.05    4.41
   1  -4  -3  163.08    4.60
   1  -4  -3  169.41    4.41
  -1   4   3  165.66    4.31
  -1   4   3  167.41    4.32
  -1   4   3  171.86    4.69
  -1   4   3  169.47    4.55
   0  -4  -3   11.81    0.50
   0  -4  -3   11.09    0.62
   0  -4  -3   11.20    0.68
   0  -4  -3   10.69    0.71
   0  -4  -3   11.19    0.70
   0  -4  -3   11.44    0.49
   0  -4  -3   11.23    0.76
   0  -4  -3   11.11    0.56
   0  -4  -3   10.87    0.61
   0   4   3   11.25    0.43
   0   4   3   10.60    0.68
   0   4   3   10.60    0.63
  -1  -4  -3  470.95   11.34
  -1  -4  -3  455.46   11.07
  -1  -4  -3  474.64   11.13
  -1  -4  -3  467.01   11.07
  -1  -4  -3  462.62   11.11
   1   4   3  471.66   11.30
   1   4   3  470.69   11.17
   1   4   3  469.25   11.15
   1   4   3  463.85   11.10
   1   4   3  476.15   11.15
  -2  -4  -3   18.71    0.63
  -2  -4  -3   18.70    0.85
  -2  -4  -3   19.02    0.67
  -2  -4  -3   18.34    0.94
  -2  -4  -3   17.54    0.85
  -2  -4  -3   18.40    0.96
  -2  -4  -3   20.20    0.96
  -2  -4  -3   19.19    0.97
  -2  -4  -3   17.81    0.61
   2   4   3   18.55    1.06
   2   4   3   18.13    0.94
   2   4   3   19.63    0.99
   2   4   3   16.64    0.97
  -3  -4  -3  475.49   12.10
  -3  -4  -3  500.40   11.94
  -3  -4  -3  497.04   11.75
  -3  -4  -3  504.02   11.77
  -3  -4  -3  528.71   12.29
  -3  -4  -3  490.16   12.13
  -3  -4  -3  512.08   11.37
   3   4   3  499.81   11.66
   3   4   3  503.04   12.26
   3   4   3  500.95   12.29
   3   4   3  506.74   11.63
   3   4   3  512.56   12.25
  -4  -4  -3   49.85    2.07
  -4  -4  -3   53.07    1.89
  -4  -4  -3   53.40    2.14
  -4  -4  -3   55.62    1.99
  -4  -4  -3   55.22    1.90
   4   4   3   53.61    2.16
   4   4   3   54.95    1.84
   4   4   3   53.50    2.44
   4   4   3   52.17    2.18
   4   4   3   56.46    1.82
  -5  -4  -3  212.03    5.83
  -5  -4  -3  215.44    6.14
  -5  -4  -3  206.48    5.82
   5   4   3  221.85    6.28
   5   4   3  203.96    6.56
   5   4   3  216.87    5.71
   5   4   3  209.49    5.55
  -6  -4  -3   33.55    1.77
  -6  -4  -3   34.86    1.79
  -6  -4  -3   34.72    1.93
   6   4   3   36.53    2.00
   6   4   3   34.25    1.96
   6   4   3   35.17    1.53
  -7  -4  -3   31.79    1.91
  -7  -4  -3   31.45    2.03
  -7  -4  -3   31.78    1.87
   7   4   3   35.30    2.17
   7   4   3   31.43    2.05
   7   4   3   30.15    1.52
   7   4   3   36.17    2.69
  -8  -4  -3   41.92    2.47
  -8  -4  -3   40.62    2.53
  -8  -4  -3   37.36    2.29
   8   4   3   37.76    2.43
   8   4   3   44.11    2.31
   8   4   3   39.87    1.85
  -9  -4  -3    5.68    1.21
  -9  -4  -3    6.84    1.32
   9   4   3    7.02    1.51
   9   4   3    4.77    1.10
   9   4   3    5.73    0.88
   9   4   3    5.69    1.16
   7  -5  -3   13.12    1.74
   7  -5  -3   14.44    1.19
  -7   5   3   13.18    1.83
  -7   5   3   12.97    1.66
  -7   5   3   11.52    1.76
   6  -5  -3   41.61    1.99
   6  -5  -3   38.55    2.03
   6  -5  -3   42.86    2.50
  -6   5   3   37.52    2.40
  -6   5   3   39.57    2.39
  -6   5   3   39.15    2.68
   5  -5  -3   60.24    3.36
   5  -5  -3   57.90    2.32
   5  -5  -3   53.13    2.04
  -5   5   3   55.68    2.75
  -5   5   3   54.45    2.65
  -5   5   3   57.06    3.07
   4  -5  -3   39.07    2.05
   4  -5  -3   41.30    1.87
   4  -5  -3   43.37    2.11
   4  -5  -3   41.43    1.54
  -4   5   3   40.63    2.37
  -4   5   3   41.20    2.12
  -4   5   3   39.77    2.03
   3  -5  -3  151.13    4.18
   3  -5  -3  150.34    3.94
   3  -5  -3  149.46    4.55
   3  -5  -3  147.92    4.55
   3  -5  -3  149.67    4.41
  -3   5   3  147.17    4.71
  -3   5   3  152.04    5.82
  -3   5   3  155.50    4.80
  -3   5   3  146.84    4.99
   2  -5  -3   13.13    0.89
   2  -5  -3   12.98    0.95
   2  -5  -3   12.97    0.87
   2  -5  -3   11.07    0.90
   2  -5  -3   12.45    0.99
   2  -5  -3   11.14    0.80
   2  -5  -3   12.08    0.68
  -2   5   3   12.12    0.71
  -2   5   3   12.22    0.97
  -2   5   3   12.31    0.84
  -2   5   3   11.39    0.79
  -2   5   3   11.34    0.93
   1  -5  -3  301.74    7.58
   1  -5  -3  301.15    7.46
   1  -5  -3  307.09    7.23
   1  -5  -3  297.16    7.85
   1  -5  -3  297.72    7.45
   1  -5  -3  306.20    7.21
  -1   5   3  301.13    7.27
  -1   5   3  296.99    7.35
  -1   5   3  300.37    7.81
   0  -5  -3    0.16    0.24
   0  -5  -3    0.19    0.12
   0  -5  -3   -0.02    0.09
   0  -5  -3    0.41    0.19
   0  -5  -3    0.32    0.11
   0  -5  -3    0.28    0.16
   0  -5  -3   -0.01    0.20
   0  -5  -3    0.34    0.22
   0  -5  -3    0.22    0.15
   0   5   3    0.25    0.14
   0   5   3    0.17    0.19
   0   5   3    0.14    0.10
  -1  -5  -3  370.63    8.84
  -1  -5  -3  361.34    8.95
  -1  -5  -3  372.51    8.47
  -1  -5  -3  366.68    8.98
  -1  -5  -3  370.63    9.12
  -1  -5  -3  348.92    8.99
  -1  -5  -3  366.30    8.46
  -1  -5  -3  364.36    8.73
  -1  -5  -3  366.75    8.76
   1   5   3  374.17    9.04
   1   5   3  369.93    8.91
   1   5   3  365.62    9.08
  -2  -5  -3   23.97    1.12
  -2  -5  -3   24.91    1.04
  -2  -5  -3   24.03    1.21
  -2  -5  -3   23.78    1.10
  -2  -5  -3   23.53    0.76
  -2  -5  -3   22.88    1.11
   2   5   3   23.16    1.14
   2   5   3   25.45    1.18
   2   5   3   23.23    1.17
   2   5   3   23.04    1.14
  -3  -5  -3  220.63    5.38
  -3  -5  -3  222.07    5.57
  -3  -5  -3  216.68    5.77
  -3  -5  -3  215.47    5.73
  -3  -5  -3  211.52    5.84
  -3  -5  -3  217.08    5.52
  -3  -5  -3  215.74    5.91
  -3  -5  -3  219.20    5.37
   3   5   3  214.69    5.93
   3   5   3  223.89    5.97
   3   5   3  219.99    5.17
   3   5   3  220.16    5.25
   3   5   3  223.10    5.99
   3   5   3  221.47    5.67
  -4  -5  -3   41.14    1.55
  -4  -5  -3   40.38    1.84
  -4  -5  -3   40.86    1.62
  -4  -5  -3   44.57    1.89
  -4  -5  -3   43.44    1.57
   4   5   3   42.72    1.92
   4   5   3   41.44    1.42
   4   5   3   40.94    1.64
   4   5   3   39.49    2.07
   4   5   3   41.43    1.99
   4   5   3   42.98    1.43
  -5  -5  -3   71.92    2.47
  -5  -5  -3   73.14    2.50
   5   5   3   63.34    2.50
   5   5   3   68.25    2.80
  -6  -5  -3   50.93    2.22
  -6  -5  -3   51.42    2.47
  -6  -5  -3   48.88    2.16
   6   5   3   50.52    2.41
   6   5   3   54.29    2.00
   6   5   3   51.27    2.06
   6   5   3   51.91    2.52
  -7  -5  -3   10.07    1.18
  -7  -5  -3   11.10    1.11
  -7  -5  -3   12.15    1.51
   7   5   3    9.48    1.33
   7   5   3   11.62    0.73
   7   5   3   12.36    1.26
   7   5   3   10.98    1.44
  -8  -5  -3   41.97    2.81
  -8  -5  -3   46.65    2.50
  -8  -5  -3   46.25    2.69
   8   5   3   46.93    2.74
   8   5   3   45.16    2.69
   8   5   3   46.09    1.60
  -9  -5  -3    0.93    0.75
  -9  -5  -3    1.19    0.62
   9   5   3    0.14    0.67
   9   5   3    0.79    0.80
   9   5   3   -0.84    0.69
   7  -6  -3   20.46    2.09
  -7   6   3   20.89    2.47
  -7   6   3   25.30    2.45
  -7   6   3   20.32    2.19
   6  -6  -3   10.99    1.53
   6  -6  -3    9.71    1.00
  -6   6   3   11.05    1.50
  -6   6   3   12.44    1.79
  -6   6   3   11.21    1.61
   5  -6  -3   79.02    3.79
   5  -6  -3   86.15    2.59
   5  -6  -3   83.06    3.04
  -5   6   3   86.14    3.63
  -5   6   3   86.93    4.03
  -5   6   3   85.97    3.81
   4  -6  -3    3.97    0.76
   4  -6  -3    4.42    0.67
   4  -6  -3    5.63    1.40
  -4   6   3    3.64    0.76
  -4   6   3    4.38    0.88
   3  -6  -3  151.35    4.90
   3  -6  -3  165.49    4.46
   3  -6  -3  162.58    4.99
  -3   6   3  163.30    5.13
  -3   6   3  168.27    5.31
   2  -6  -3    8.07    0.81
   2  -6  -3    8.79    0.77
   2  -6  -3    9.19    0.61
   2  -6  -3    9.53    0.80
   2  -6  -3   10.20    0.42
  -2   6   3    9.91    0.64
  -2   6   3   11.36    0.99
  -2   6   3    9.24    0.88
  -2   6   3    9.25    0.78
   1  -6  -3  230.21    6.03
   1  -6  -3  231.38    6.35
   1  -6  -3  219.15    6.26
   1  -6  -3  239.40    5.48
   1  -6  -3  230.40    6.49
   1  -6  -3  229.86    6.02
   1  -6  -3  226.74    6.14
  -1   6   3  224.09    5.84
  -1   6   3  229.30    6.41
  -1   6   3  230.92    5.70
  -1   6   3  238.04    6.39
   0  -6  -3   71.77    2.73
   0  -6  -3   69.17    2.28
   0  -6  -3   67.81    2.11
   0  -6  -3   67.99    2.11
   0  -6  -3   64.75    2.35
   0  -6  -3   66.55    2.41
   0  -6  -3   71.38    1.86
   0   6   3   68.65    2.39
   0   6   3   66.62    2.48
   0   6   3   65.25    1.95
  -1  -6  -3  137.32    3.65
  -1  -6  -3  134.36    3.52
  -1  -6  -3  139.50    3.47
  -1  -6  -3  134.24    3.88
  -1  -6  -3  138.39    3.51
  -1  -6  -3  136.58    3.97
   1   6   3  136.38    3.20
   1   6   3  135.31    3.98
   1   6   3  130.33    4.01
   1   6   3  135.20    3.73
  -2  -6  -3  125.79    3.45
  -2  -6  -3  113.69    3.39
  -2  -6  -3  113.00    3.06
  -2  -6  -3  116.60    3.36
  -2  -6  -3  116.30    3.13
  -2  -6  -3  124.06    3.83
  -2  -6  -3  120.92    3.83
   2   6   3  119.35    3.63
   2   6   3  112.22    3.75
   2   6   3  117.97    3.46
   2   6   3  119.18    3.65
  -3  -6  -3   58.66    2.22
  -3  -6  -3   62.58    1.85
  -3  -6  -3   61.53    1.97
  -3  -6  -3   60.88    1.92
  -3  -6  -3   60.43    2.44
  -3  -6  -3   65.13    1.86
  -3  -6  -3   60.29    2.39
  -3  -6  -3   58.22    2.05
   3   6   3   60.45    1.55
   3   6   3   57.08    2.22
   3   6   3   60.04    2.32
   3   6   3   61.39    1.54
   3   6   3   60.13    2.27
  -4  -6  -3   85.67    2.75
  -4  -6  -3   98.29    4.18
  -4  -6  -3   74.92    2.79
  -4  -6  -3   78.68    2.41
  -4  -6  -3   87.47    2.82
  -4  -6  -3   86.30    2.54
  -4  -6  -3   79.69    2.98
   4   6   3   79.70    2.26
   4   6   3   84.28    2.89
   4   6   3   70.63    2.85
   4   6   3   78.30    2.37
  -5  -6  -3   10.54    0.81
  -5  -6  -3   10.50    0.78
  -5  -6  -3    9.86    0.98
   5   6   3    7.55    1.02
   5   6   3    9.68    0.68
   5   6   3    9.38    0.89
   5   6   3   10.48    0.53
  -6  -6  -3   79.97    2.91
  -6  -6  -3   83.48    3.35
  -6  -6  -3   76.52    2.87
   6   6   3   76.76    3.13
   6   6   3   79.02    2.08
   6   6   3   78.12    3.29
  -7  -6  -3    1.44    0.47
  -7  -6  -3    0.86    0.54
  -7  -6  -3    1.08    0.59
   7   6   3    2.19    0.71
   7   6   3    0.15    0.32
   7   6   3    1.01    0.61
  -8  -6  -3   59.02    2.76
  -8  -6  -3   53.92    2.97
  -8  -6  -3   54.44    2.74
   8   6   3   52.22    2.97
   8   6   3   57.94    3.38
   8   6   3   50.30    2.41
  -9  -6  -3    1.30    0.69
  -9  -6  -3    0.30    0.73
   9   6   3    1.09    0.82
   9   6   3   -0.57    0.70
   6  -7  -3   -1.30    0.61
  -6   7   3    0.46    0.59
  -6   7   3   -0.53    0.82
   5  -7  -3   68.50    3.30
  -5   7   3   68.84    3.57
  -5   7   3   66.84    3.26
  -5   7   3   69.35    3.28
   4  -7  -3    4.74    0.92
   4  -7  -3    5.60    0.96
  -4   7   3    5.91    1.02
  -4   7   3    5.90    0.96
  -4   7   3    6.24    1.71
   3  -7  -3   94.12    3.65
   3  -7  -3  107.52    3.80
   3  -7  -3  106.67    3.12
  -3   7   3  102.57    3.84
  -3   7   3  115.02    5.60
   2  -7  -3   21.01    1.31
   2  -7  -3   22.69    1.36
   2  -7  -3   24.08    1.00
  -2   7   3   23.59    1.05
  -2   7   3   22.78    1.36
  -2   7   3   25.39    1.61
  -2   7   3   21.95    1.45
   1  -7  -3   71.10    2.50
   1  -7  -3   70.82    1.95
   1  -7  -3   67.17    2.69
  -1   7   3   71.03    2.76
  -1   7   3   68.08    2.07
  -1   7   3   76.08    2.86
   0  -7  -3  112.78    2.70
   0  -7  -3  107.56    3.59
   0  -7  -3  111.64    3.33
   0  -7  -3  112.82    2.85
   0  -7  -3  109.41    3.47
   0  -7  -3  110.42    3.24
   0   7   3  107.81    3.65
   0   7   3  106.57    3.03
   0   7   3  114.32    4.09
   0   7   3  110.38    3.36
  -1  -7  -3   73.20    2.21
  -1  -7  -3   72.96    2.54
  -1  -7  -3   72.27    2.24
  -1  -7  -3   70.49    2.50
  -1  -7  -3   71.85    2.29
  -1  -7  -3   74.19    2.68
  -1  -7  -3   74.36    1.89
   1   7   3   74.31    2.04
   1   7   3   72.23    2.67
   1   7   3   73.29    1.97
   1   7   3   75.52    2.32
  -2  -7  -3  162.68    4.29
  -2  -7  -3  162.93    4.44
  -2  -7  -3  155.03    4.69
  -2  -7  -3  166.04    4.45
  -2  -7  -3  160.27    4.50
  -2  -7  -3  159.58    4.30
  -2  -7  -3  160.16    3.99
   2   7   3  157.63    4.86
   2   7   3  164.04    4.83
   2   7   3  165.73    4.54
  -3  -7  -3   30.10    1.18
  -3  -7  -3   31.55    1.47
  -3  -7  -3   30.14    1.29
  -3  -7  -3   29.79    1.71
  -3  -7  -3   30.85    1.24
  -3  -7  -3   27.41    1.12
  -3  -7  -3   30.00    1.29
   3   7   3   33.33    1.55
   3   7   3   30.87    1.43
   3   7   3   30.76    1.61
  -4  -7  -3  152.30    4.11
  -4  -7  -3  151.40    4.24
  -4  -7  -3  154.56    4.98
  -4  -7  -3  153.20    4.23
   4   7   3  154.38    4.64
   4   7   3  156.99    3.87
   4   7   3  157.89    4.89
   4   7   3  153.25    3.97
   4   7   3  160.88    4.89
  -5  -7  -3    3.78    0.75
  -5  -7  -3    5.37    0.56
  -5  -7  -3    4.01    0.59
   5   7   3    3.38    0.45
   5   7   3    3.92    0.67
   5   7   3    4.07    0.77
  -6  -7  -3   70.93    3.13
  -6  -7  -3   69.73    2.60
  -6  -7  -3   63.80    2.56
   6   7   3   68.65    2.86
   6   7   3   65.92    2.66
   6   7   3   67.05    3.03
  -7  -7  -3    2.21    0.77
  -7  -7  -3    3.12    0.70
   7   7   3    2.40    0.74
   7   7   3    2.06    0.52
   7   7   3    2.00    0.71
  -8  -7  -3   44.60    2.74
  -8  -7  -3   43.35    2.33
  -8  -7  -3   43.21    2.38
   8   7   3   39.11    2.60
   8   7   3   43.35    2.60
   8   7   3   41.92    2.18
  -9  -7  -3    2.07    0.93
  -9  -7  -3    1.64    0.64
   9   7   3    1.18    0.77
   9   7   3    1.46    0.86
  -6   8   3   -0.43    0.79
  -6   8   3   -0.73    0.89
   5  -8  -3   45.11    2.68
  -5   8   3   39.81    2.57
  -5   8   3   43.03    2.93
  -5   8   3   42.51    2.55
   4  -8  -3   23.10    2.12
   4  -8  -3   27.78    1.95
  -4   8   3   27.05    1.97
  -4   8   3   25.45    2.15
  -4   8   3   28.09    1.97
   3  -8  -3   45.30    2.35
   3  -8  -3   41.66    2.24
  -3   8   3   45.31    2.40
  -3   8   3   41.50    1.73
  -3   8   3   46.69    2.63
   2  -8  -3   78.37    2.99
   2  -8  -3   71.16    2.87
  -2   8   3   79.18    3.01
  -2   8   3   72.19    3.08
  -2   8   3   80.21    3.37
  -2   8   3   71.48    2.29
   1  -8  -3   51.49    2.15
   1  -8  -3   54.12    2.20
  -1   8   3   49.89    2.36
  -1   8   3   54.73    2.52
  -1   8   3   50.83    1.55
   0  -8  -3   74.18    2.73
   0  -8  -3   77.38    2.64
   0  -8  -3   79.51    2.62
   0   8   3   73.05    2.81
   0   8   3   69.60    2.87
  -1  -8  -3    6.30    0.57
  -1  -8  -3    6.14    0.79
  -1  -8  -3    6.42    0.63
  -1  -8  -3    5.61    0.49
   1   8   3    6.35    0.56
   1   8   3    5.26    0.59
   1   8   3    5.20    0.80
   1   8   3    4.86    0.43
   1   8   3    5.70    0.81
  -2  -8  -3  127.71    3.70
  -2  -8  -3  136.36    3.74
  -2  -8  -3  130.12    3.75
  -2  -8  -3  125.38    4.10
  -2  -8  -3  128.13    3.92
  -2  -8  -3  128.52    3.18
   2   8   3  132.85    3.21
   2   8   3  125.71    4.22
   2   8   3  135.51    4.30
   2   8   3  128.73    3.72
   2   8   3  129.10    3.82
   2   8   3  126.99    3.17
  -3  -8  -3    1.19    0.54
  -3  -8  -3    0.89    0.33
  -3  -8  -3    1.35    0.35
  -3  -8  -3    0.90    0.37
  -3  -8  -3    1.05    0.32
  -3  -8  -3    1.83    0.41
  -3  -8  -3    0.83    0.25
   3   8   3    1.22    0.17
   3   8   3    1.40    0.41
   3   8   3    1.69    0.46
   3   8   3    1.90    0.39
   3   8   3    0.87    0.15
  -4  -8  -3  136.20    3.76
  -4  -8  -3  131.56    4.57
  -4  -8  -3  126.57    3.61
  -4  -8  -3  125.22    3.62
  -4  -8  -3  131.02    3.82
   4   8   3  128.48    3.97
   4   8   3  133.47    4.28
   4   8   3  128.66    3.27
   4   8   3  129.84    4.40
  -5  -8  -3    3.63    0.59
  -5  -8  -3    3.33    0.55
  -5  -8  -3    3.35    0.79
  -5  -8  -3    3.34    0.45
   5   8   3    2.47    0.61
   5   8   3    3.51    0.69
   5   8   3    2.69    0.67
   5   8   3    3.02    0.41
  -6  -8  -3   95.78    3.27
  -6  -8  -3   97.23    3.95
  -6  -8  -3   88.65    3.18
   6   8   3   97.47    4.02
   6   8   3  100.06    3.89
  -7  -8  -3    5.42    1.01
  -7  -8  -3    6.58    1.20
  -7  -8  -3    4.06    0.84
   7   8   3    4.65    1.19
   7   8   3    4.34    0.86
   7   8   3    3.72    0.60
  -8  -8  -3   50.35    2.52
  -8  -8  -3   48.36    2.93
   8   8   3   44.56    2.77
   8   8   3   46.62    2.29
   8   8   3   44.87    2.65
  -9  -8  -3    8.53    1.31
  -9  -8  -3   13.01    1.91
   9   8   3   12.92    1.84
   9   8   3   13.60    1.82
   5  -9  -3   14.21    1.83
  -5   9   3   14.70    1.74
  -5   9   3   17.83    2.22
   4  -9  -3   35.30    2.31
  -4   9   3   41.37    2.49
  -4   9   3   35.92    2.47
  -4   9   3   37.63    2.71
   3  -9  -3   12.56    1.33
   3  -9  -3    9.49    1.28
  -3   9   3   11.60    1.62
  -3   9   3   10.50    0.98
  -3   9   3   11.18    1.66
  -3   9   3   12.20    1.55
   2  -9  -3  101.43    3.71
   2  -9  -3   90.97    3.53
  -2   9   3   97.16    3.84
  -2   9   3   94.16    2.69
  -2   9   3   97.84    3.73
  -2   9   3   93.25    3.97
   1  -9  -3    9.83    0.99
   1  -9  -3   10.05    1.03
  -1   9   3   11.84    1.46
  -1   9   3    9.36    1.19
   0  -9  -3  101.41    3.38
   0  -9  -3   96.31    3.83
   0  -9  -3  111.40    3.57
   0   9   3   98.81    3.76
   0   9   3  101.74    4.30
  -1  -9  -3    0.93    0.31
  -1  -9  -3    0.76    0.37
  -1  -9  -3    0.58    0.40
   1   9   3    0.49    0.26
   1   9   3    0.60    0.43
   1   9   3    0.84    0.32
  -2  -9  -3   73.53    2.71
  -2  -9  -3   77.76    2.60
  -2  -9  -3   72.97    2.40
   2   9   3   73.96    2.11
   2   9   3   75.97    2.56
   2   9   3   77.02    3.09
   2   9   3   73.56    3.07
  -3  -9  -3    6.16    0.44
  -3  -9  -3    6.22    0.76
  -3  -9  -3    6.40    0.58
  -3  -9  -3    6.34    0.66
  -3  -9  -3    7.28    1.10
  -3  -9  -3    6.02    0.74
   3   9   3    6.45    0.70
   3   9   3    7.12    0.74
   3   9   3    6.11    0.38
  -4  -9  -3   82.07    2.69
  -4  -9  -3   82.32    3.60
  -4  -9  -3   86.09    2.79
  -4  -9  -3   80.97    2.93
  -4  -9  -3   82.78    2.52
   4   9   3   88.90    3.23
   4   9   3   86.37    2.24
   4   9   3   86.31    2.76
  -5  -9  -3    4.72    0.95
  -5  -9  -3    7.10    0.84
  -5  -9  -3    6.05    0.59
  -5  -9  -3    5.81    0.77
  -5  -9  -3    6.33    0.71
   5   9   3    5.45    0.48
   5   9   3    6.40    0.84
   5   9   3    6.22    0.99
   5   9   3    5.12    0.92
  -6  -9  -3   70.04    3.35
  -6  -9  -3   65.12    2.62
  -6  -9  -3   64.38    2.58
   6   9   3   67.37    3.12
   6   9   3   65.47    2.17
  -7  -9  -3   10.19    1.59
  -7  -9  -3    8.43    1.04
  -7  -9  -3    6.48    0.96
   7   9   3    9.17    0.90
   7   9   3    7.50    1.28
   7   9   3    9.08    1.26
  -8  -9  -3   34.19    2.05
  -8  -9  -3   29.82    2.37
   8   9   3   34.65    2.46
   8   9   3   31.23    2.26
  -9  -9  -3   21.64    2.18
  -9  -9  -3   22.02    1.75
   9   9   3   22.38    2.18
   9   9   3   21.18    2.13
   4 -10  -3   26.02    2.20
  -4  10   3   32.93    2.73
  -4  10   3   33.29    2.32
   3 -10  -3    2.37    0.78
  -3  10   3    3.09    1.10
  -3  10   3    1.96    0.84
  -3  10   3    3.62    1.09
   2 -10  -3   39.54    2.29
   2 -10  -3   44.30    2.43
  -2  10   3   46.85    2.54
  -2  10   3   45.91    2.74
  -2  10   3   47.26    2.61
   1 -10  -3    0.07    0.48
   1 -10  -3   -0.39    0.40
  -1  10   3    0.03    0.51
  -1  10   3   -0.41    0.49
   0 -10  -3   86.52    3.25
   0 -10  -3   80.52    3.37
   0 -10  -3   75.94    2.99
   0  10   3   84.98    3.62
   0  10   3   79.38    3.05
   0  10   3   87.23    3.54
  -1 -10  -3    0.65    0.40
  -1 -10  -3    1.04    0.48
  -1 -10  -3    1.45    0.54
   1  10   3    0.89    0.41
   1  10   3    2.27    0.67
   1  10   3    1.13    0.59
  -2 -10  -3   64.91    2.13
  -2 -10  -3   63.81    2.66
  -2 -10  -3   66.67    2.48
   2  10   3   68.65    3.04
   2  10   3   63.82    2.31
   2  10   3   62.81    1.98
   2  10   3   64.03    2.93
  -3 -10  -3    3.62    0.63
  -3 -10  -3    3.77    0.66
  -3 -10  -3    3.76    0.46
  -3 -10  -3    4.44    1.09
   3  10   3    4.10    0.66
   3  10   3    3.73    0.39
   3  10   3    4.34    0.90
  -4 -10  -3   54.45    2.37
  -4 -10  -3   55.12    1.79
  -4 -10  -3   56.85    2.25
  -4 -10  -3   56.76    3.01
  -4 -10  -3   54.27    2.18
   4  10   3   61.75    2.88
   4  10   3   60.68    2.54
  -5 -10  -3   21.24    1.13
  -5 -10  -3   22.10    1.17
  -5 -10  -3   21.28    1.82
  -5 -10  -3   24.74    1.47
  -5 -10  -3   23.07    1.33
   5  10   3   21.31    1.70
   5  10   3   22.40    1.62
   5  10   3   23.99    1.26
   5  10   3   24.12    1.03
  -6 -10  -3   38.94    2.47
  -6 -10  -3   38.20    2.00
  -6 -10  -3   40.78    2.61
   6  10   3   40.17    1.98
   6  10   3   37.50    1.42
   6  10   3   37.57    2.30
   6  10   3   42.02    2.52
  -7 -10  -3   43.13    2.15
  -7 -10  -3   41.09    2.72
  -7 -10  -3   42.05    2.23
   7  10   3   40.92    2.57
   7  10   3   42.57    2.29
  -8 -10  -3   18.59    1.55
  -8 -10  -3   21.30    2.16
   8  10   3   22.41    2.34
   8  10   3   18.84    1.89
  -9 -10  -3   39.17    2.44
  -9 -10  -3   40.45    3.47
   9  10   3   43.83    2.93
   9  10   3   39.48    2.96
   3 -11  -3    0.95    0.73
  -3  11   3   -0.88    0.69
  -3  11   3    1.54    0.99
   2 -11  -3   23.42    1.88
  -2  11   3   27.47    2.07
  -2  11   3   25.52    2.44
   1 -11  -3    4.49    0.93
   1 -11  -3    2.18    1.32
  -1  11   3    4.72    1.12
  -1  11   3    4.04    0.97
  -1  11   3    3.80    0.99
   0 -11  -3   28.21    1.81
   0 -11  -3   27.23    1.77
   0 -11  -3   28.84    1.89
   0  11   3   32.55    2.26
   0  11   3   27.90    1.82
   0  11   3   24.96    1.84
  -1 -11  -3   16.31    1.30
  -1 -11  -3   18.79    1.25
   1  11   3   18.09    1.65
   1  11   3   18.04    1.59
   1  11   3   18.73    1.20
  -2 -11  -3   49.17    2.17
  -2 -11  -3   45.92    1.59
  -2 -11  -3   48.83    2.42
   2  11   3   51.74    2.74
   2  11   3   48.92    1.90
   2  11   3   45.94    1.67
  -3 -11  -3   25.86    1.61
  -3 -11  -3   24.14    1.45
  -3 -11  -3   26.27    2.17
   3  11   3   24.35    1.83
  -4 -11  -3   29.62    1.63
  -4 -11  -3   27.04    1.69
  -4 -11  -3   30.27    1.09
  -4 -11  -3   29.53    1.32
   4  11   3   29.46    2.04
   4  11   3   31.41    1.81
  -5 -11  -3   54.07    3.12
  -5 -11  -3   45.35    1.92
  -5 -11  -3   51.06    2.44
  -5 -11  -3   49.83    2.19
   5  11   3   47.33    2.50
   5  11   3   48.85    2.78
  -6 -11  -3   17.29    1.49
  -6 -11  -3   21.73    2.05
  -6 -11  -3   19.60    1.37
   6  11   3   17.71    2.04
   6  11   3   18.57    1.15
  -7 -11  -3   48.66    3.11
  -7 -11  -3   46.69    2.33
   7  11   3   53.79    2.78
   7  11   3   46.89    2.83
  -8 -11  -3    5.28    0.95
  -8 -11  -3    3.97    1.26
   8  11   3    2.63    1.05
   8  11   3    2.81    0.92
   2 -12  -3   22.25    2.24
  -2  12   3   24.08    2.20
  -2  12   3   25.94    2.16
   1 -12  -3   12.57    1.54
  -1  12   3   10.61    1.52
  -1  12   3   11.74    1.76
   0 -12  -3   34.07    2.24
   0  12   3   34.59    2.55
   0  12   3   31.05    2.30
  -1 -12  -3   24.07    1.93
  -1 -12  -3   25.54    1.75
   1  12   3   26.29    2.12
   1  12   3   26.25    2.03
  -2 -12  -3   35.62    1.90
  -2 -12  -3   35.55    2.21
   2  12   3   34.45    2.41
  -3 -12  -3   48.63    2.45
  -3 -12  -3   45.34    3.09
  -3 -12  -3   47.43    2.31
   3  12   3   47.89    2.87
  -4 -12  -3   21.53    2.10
  -4 -12  -3   21.49    1.54
  -4 -12  -3   18.03    1.38
   4  12   3   18.28    1.72
   4  12   3   18.07    1.42
  -5 -12  -3   60.22    2.59
  -5 -12  -3   55.48    2.73
  -5 -12  -3   64.31    3.65
   5  12   3   65.75    2.98
   5  12   3   58.06    3.27
  -6 -12  -3    0.80    1.01
  -6 -12  -3    0.80    0.52
   6  12   3    0.57    0.69
   6  12   3    1.03    0.89
  -7 -12  -3   85.92    3.39
  -7 -12  -3   87.03    4.50
   7  12   3   80.15    3.93
  -8 -12  -3    2.34    1.19
  -8 -12  -3    1.37    0.66
   8  12   3    1.85    1.02
   0 -13  -3   18.98    1.88
   0  13   3   19.51    2.23
   0  13   3   18.86    1.88
  -1 -13  -3   28.09    2.22
   1  13   3   25.87    2.38
  -2 -13  -3   10.46    1.44
   2  13   3    7.84    1.42
  -3 -13  -3   44.70    3.24
  -3 -13  -3   45.32    2.46
   3  13   3   43.50    3.23
   3  13   3   43.87    2.02
  -4 -13  -3    1.67    1.04
  -4 -13  -3    2.67    0.75
   4  13   3    2.19    0.73
   4  13   3    0.80    0.80
  -5 -13  -3   65.05    3.91
  -5 -13  -3   66.17    2.85
   5  13   3   65.55    3.65
   5  13   3   62.59    3.04
  -6 -13  -3    2.60    1.19
  -6 -13  -3    1.80    0.58
   6  13   3    2.87    0.97
   6  13   3    1.09    0.85
  -7 -13  -3   73.14    4.25
  -7 -13  -3   63.56    3.27
   7  13   3   69.16    3.66
  -2 -14  -3    1.90    0.94
   2  14   3    2.03    1.06
  -3 -14  -3   52.98    3.22
  -3 -14  -3   52.15    3.76
   3  14   3   55.95    3.55
  -4 -14  -3    4.48    1.55
  -4 -14  -3    3.85    0.91
   4  14   3    4.77    1.30
   4  14   3    2.48    0.87
  -5 -14  -3   61.25    3.98
   5  14   3   54.90    3.54
   5  14   3   53.98    2.97
   6  10  -4    1.42    1.04
  -6 -10   4    3.52    1.38
  -6 -10   4    2.16    1.50
   5  10  -4   59.69    3.19
   5  10  -4   55.72    3.15
  -5 -10   4   56.55    4.57
  -5 -10   4   52.30    2.60
  -5 -10   4   62.25    3.53
   4  10  -4    1.74    0.81
   4  10  -4    0.18    0.77
  -4 -10   4    2.08    1.00
  -4 -10   4    1.34    0.99
  -4 -10   4    1.69    0.81
   3  10  -4   40.14    3.35
   3  10  -4   43.72    2.75
   3  10  -4   47.49    2.50
  -3 -10   4   52.51    3.16
  -3 -10   4   48.32    3.07
  -3 -10   4   48.29    3.49
   2  10  -4   11.99    2.34
   2  10  -4   13.06    1.79
   2  10  -4   12.67    1.28
  -2 -10   4    8.27    1.54
  -2 -10   4   12.59    1.80
   1  10  -4   34.20    2.48
   1  10  -4   34.42    3.66
  -1 -10   4   31.61    2.73
   0  10  -4   21.71    2.18
   0 -10   4   21.93    2.68
   7   9  -4   67.52    3.00
   7   9  -4   63.37    3.64
  -7  -9   4   68.81    4.20
   6   9  -4    4.67    1.23
   6   9  -4    3.13    0.89
   6   9  -4    6.39    1.40
   6   9  -4    4.47    0.87
  -6  -9   4    6.25    1.33
  -6  -9   4    5.36    1.40
   5   9  -4   90.51    4.20
   5   9  -4   83.25    3.87
   5   9  -4   91.64    3.92
   5   9  -4   86.32    3.04
  -5  -9   4   91.50    4.42
  -5  -9   4   95.74    4.34
   4   9  -4   22.10    1.18
   4   9  -4   23.09    1.88
   4   9  -4   21.84    2.07
   4   9  -4   23.22    1.87
  -4  -9   4   21.21    1.59
  -4  -9   4   23.49    2.13
  -4  -9   4   19.96    1.95
   3   9  -4   59.05    3.08
   3   9  -4   61.34    1.91
   3   9  -4   61.64    3.43
   3   9  -4   64.36    2.94
  -3  -9   4   66.52    3.05
  -3  -9   4   65.04    3.46
  -3  -9   4   66.83    3.59
   2   9  -4   39.32    2.73
   2   9  -4   45.15    2.15
   2   9  -4   41.17    2.53
  -2  -9   4   48.54    3.05
  -2  -9   4   44.92    2.81
   1   9  -4   31.52    2.28
   1   9  -4   28.36    1.49
  -1  -9   4   35.26    2.60
   0   9  -4   40.25    2.70
   0   9  -4   42.13    2.99
   0  -9   4   42.09    2.91
  -1   9  -4    8.07    1.67
  -1   9  -4    4.54    1.16
   1  -9   4    4.82    1.37
   8   8  -4    3.44    1.24
   8   8  -4    2.85    1.04
  -8  -8   4    3.86    1.18
  -8  -8   4    1.60    1.89
   7   8  -4   72.63    3.12
   7   8  -4   70.89    3.82
  -7  -8   4   77.49    3.98
  -7  -8   4   72.39    3.87
   6   8  -4   13.37    1.38
   6   8  -4   10.78    1.47
   6   8  -4   11.54    1.57
  -6  -8   4   14.15    1.81
  -6  -8   4   11.55    1.61
   5   8  -4   48.99    2.57
   5   8  -4   48.24    2.11
   5   8  -4   48.61    2.78
  -5  -8   4   48.07    2.01
  -5  -8   4   48.76    2.99
  -5  -8   4   50.04    2.89
   4   8  -4   49.76    2.61
   4   8  -4   44.88    2.71
   4   8  -4   42.91    2.58
   4   8  -4   45.21    2.46
  -4  -8   4   41.16    2.11
  -4  -8   4   48.86    2.88
  -4  -8   4   47.69    2.77
  -4  -8   4   47.95    2.20
   3   8  -4   34.10    2.13
   3   8  -4   33.74    2.34
   3   8  -4   32.18    1.36
   3   8  -4   35.32    2.01
  -3  -8   4   32.75    1.94
  -3  -8   4   35.73    2.48
  -3  -8   4   31.87    2.31
   2   8  -4   73.83    3.27
   2   8  -4   70.17    2.12
   2   8  -4   68.09    3.46
   2   8  -4   71.78    2.87
  -2  -8   4   70.19    3.42
   1   8  -4    8.93    1.64
   1   8  -4    8.66    0.80
   1   8  -4    8.64    0.92
   1   8  -4   10.53    1.38
  -1  -8   4    8.96    1.44
   0   8  -4   73.93    3.48
   0   8  -4   65.07    2.27
   0   8  -4   66.64    3.49
   0  -8   4   75.59    3.77
  -1   8  -4    0.65    0.70
  -1   8  -4    0.61    0.75
   1  -8   4    0.23    0.51
   1  -8   4    0.04    0.82
  -2   8  -4   35.71    4.59
  -2   8  -4   29.81    2.77
   2  -8   4   29.87    1.78
   2  -8   4   33.97    2.65
  -3   8  -4    4.97    1.65
  -3   8  -4    3.05    1.12
   3  -8   4    3.69    1.30
   3  -8   4    4.00    0.99
   8   7  -4   22.56    1.79
   8   7  -4   17.90    2.21
   8   7  -4   19.20    2.05
   8   7  -4   17.49    1.54
  -8  -7   4   17.65    2.29
  -8  -7   4   20.33    2.10
   7   7  -4   41.88    2.74
   7   7  -4   42.07    2.66
   7   7  -4   46.43    2.41
   7   7  -4   41.37    1.87
  -7  -7   4   43.60    2.87
  -7  -7   4   42.40    2.80
   6   7  -4   69.47    3.44
   6   7  -4   64.35    2.75
   6   7  -4   67.62    3.26
  -6  -7   4   66.31    3.44
   5   7  -4   32.71    2.20
   5   7  -4   34.42    2.25
   5   7  -4   33.06    1.66
  -5  -7   4   36.82    2.78
  -5  -7   4   38.49    2.43
  -5  -7   4   34.68    1.53
   4   7  -4   84.45    3.51
   4   7  -4   83.80    2.84
   4   7  -4   80.61    3.63
  -4  -7   4   89.51    3.78
  -4  -7   4   81.85    3.00
  -4  -7   4   85.90    3.86
   3   7  -4    2.18    0.65
   3   7  -4    3.60    0.53
  -3  -7   4    3.17    0.84
  -3  -7   4    3.49    0.75
  -3  -7   4    5.17    1.05
  -3  -7   4    1.46    0.61
   2   7  -4   85.68    2.66
   2   7  -4   86.72    3.46
   2   7  -4   89.27    3.85
  -2  -7   4   90.96    3.75
  -2  -7   4   90.19    3.91
   1   7  -4    0.77    0.52
   1   7  -4    1.88    0.37
   1   7  -4    1.17    0.63
  -1  -7   4    2.40    0.79
   0   7  -4   78.32    3.38
   0   7  -4   70.60    2.23
   0   7  -4   70.96    3.53
   0   7  -4   73.53    2.69
   0  -7   4   68.66    3.46
  -1   7  -4    4.76    0.58
  -1   7  -4    6.26    1.30
  -1   7  -4    4.54    0.61
  -1   7  -4    5.23    0.62
  -1   7  -4    4.40    0.93
   1  -7   4    5.54    1.57
   1  -7   4    5.86    0.81
  -2   7  -4   61.87    3.17
  -2   7  -4   56.77    3.38
  -2   7  -4   56.87    2.13
   2  -7   4   55.56    3.24
   2  -7   4   56.75    2.46
  -3   7  -4    3.27    1.79
  -3   7  -4    4.53    1.18
  -3   7  -4    4.65    0.85
  -3   7  -4    4.92    1.34
   3  -7   4    6.03    1.36
   3  -7   4    5.48    1.04
  -4   7  -4   32.82    3.07
  -4   7  -4   31.80    2.63
  -4   7  -4   28.19    1.90
  -4   7  -4   30.42    1.94
   4  -7   4   29.28    2.08
   4  -7   4   29.11    2.63
   9   6  -4   24.75    2.12
   9   6  -4   24.97    2.41
   9   6  -4   23.78    2.07
   9   6  -4   23.26    3.21
  -9  -6   4   25.66    2.61
   8   6  -4   45.59    2.45
   8   6  -4   46.38    2.54
   8   6  -4   48.09    2.85
   8   6  -4   48.23    3.01
  -8  -6   4   46.59    3.10
  -8  -6   4   46.03    2.94
   7   6  -4   15.89    2.07
   7   6  -4   17.46    1.77
  -7  -6   4   17.01    2.07
  -7  -6   4   15.06    1.89
   6   6  -4  121.30    4.49
   6   6  -4  111.89    5.24
   6   6  -4  111.38    3.45
   6   6  -4  109.71    3.93
  -6  -6   4  111.29    4.68
   5   6  -4    6.43    0.61
   5   6  -4    7.06    1.14
   5   6  -4    5.93    0.82
   5   6  -4    4.93    0.93
   5   6  -4    5.26    0.85
  -5  -6   4    5.81    1.05
  -5  -6   4    7.03    1.19
  -5  -6   4    6.43    0.60
   4   6  -4  109.84    4.22
   4   6  -4  108.06    3.53
   4   6  -4  108.12    3.85
  -4  -6   4  114.53    3.56
  -4  -6   4  112.72    4.42
  -4  -6   4  104.19    4.32
  -4  -6   4  116.79    4.30
   3   6  -4   -0.06    0.24
   3   6  -4    0.27    0.40
   3   6  -4    1.19    0.51
  -3  -6   4    0.30    0.37
  -3  -6   4    0.04    0.61
  -3  -6   4    0.10    0.36
  -3  -6   4    0.78    0.52
  -3  -6   4    0.75    0.43
   2   6  -4   76.53    2.95
   2   6  -4   75.69    3.32
   2   6  -4   66.99    2.31
  -2  -6   4   67.50    3.25
  -2  -6   4   73.32    3.30
  -2  -6   4   75.61    3.14
   1   6  -4   15.57    1.41
   1   6  -4   15.15    1.27
   1   6  -4   12.74    0.81
  -1  -6   4   16.28    2.03
   0   6  -4   58.27    2.04
   0   6  -4   59.59    2.96
   0   6  -4   62.04    2.42
   0  -6   4   57.60    2.04
   0  -6   4   59.30    2.96
  -1   6  -4   17.86    1.05
  -1   6  -4   17.38    0.99
  -1   6  -4   17.07    1.49
  -1   6  -4   18.91    1.10
   1  -6   4   17.95    1.65
   1  -6   4   15.97    1.10
  -2   6  -4   41.82    1.54
  -2   6  -4   40.31    2.62
  -2   6  -4   42.62    1.83
  -2   6  -4   40.51    1.72
  -2   6  -4   43.29    1.96
  -2   6  -4   44.53    2.53
   2  -6   4   42.35    2.62
   2  -6   4   43.35    2.01
  -3   6  -4   11.78    1.65
  -3   6  -4    7.89    0.95
  -3   6  -4    6.55    0.90
  -3   6  -4    8.52    1.53
   3  -6   4    7.33    1.48
   3  -6   4    7.61    1.05
  -4   6  -4   14.09    1.93
  -4   6  -4   12.99    1.24
   4  -6   4   13.02    1.88
  -5   6  -4    8.84    1.24
  -5   6  -4    7.23    1.69
  -5   6  -4   11.12    1.99
   5  -6   4    8.89    1.40
   5  -6   4    9.04    1.70
   9   5  -4    6.16    1.19
   9   5  -4    4.50    1.47
   9   5  -4    4.19    1.22
   9   5  -4    4.34    1.12
  -9  -5   4    5.56    1.20
  -9  -5   4    5.83    1.62
   8   5  -4   55.99    3.30
   8   5  -4   58.87    3.16
   8   5  -4   55.07    2.86
  -8  -5   4   56.11    3.23
  -8  -5   4   60.64    3.48
   7   5  -4    0.70    0.56
   7   5  -4    0.47    0.54
  -7  -5   4    1.44    0.75
  -7  -5   4    0.92    0.65
   6   5  -4   86.47    3.59
   6   5  -4   80.06    3.17
   6   5  -4   80.69    3.67
  -6  -5   4   84.45    3.75
  -6  -5   4   88.82    3.79
   5   5  -4   10.77    0.95
   5   5  -4   10.09    0.83
   5   5  -4   10.96    1.10
  -5  -5   4   12.95    1.28
  -5  -5   4   10.06    1.01
   4   5  -4  135.71    4.74
   4   5  -4  139.17    4.19
   4   5  -4  140.07    4.33
   4   5  -4  136.31    3.69
  -4  -5   4  132.00    4.77
  -4  -5   4  135.62    4.00
  -4  -5   4  134.47    4.88
  -4  -5   4  141.19    4.75
   3   5  -4    3.98    0.69
   3   5  -4    7.09    1.09
   3   5  -4    5.66    0.67
  -3  -5   4    6.30    0.73
  -3  -5   4    6.69    1.06
  -3  -5   4    6.86    1.07
  -3  -5   4    6.58    0.98
  -3  -5   4    6.03    0.82
   2   5  -4   96.75    3.38
   2   5  -4  102.83    3.88
   2   5  -4  101.66    3.05
  -2  -5   4  102.71    3.49
  -2  -5   4   97.06    3.60
  -2  -5   4  105.84    3.94
  -2  -5   4   97.07    3.10
  -2  -5   4   98.97    3.88
   1   5  -4   18.52    0.99
   1   5  -4   22.30    1.38
   1   5  -4   18.69    1.48
  -1  -5   4   19.09    1.21
  -1  -5   4   13.87    1.99
  -1  -5   4   18.76    1.58
   0   5  -4   56.84    2.00
   0   5  -4   51.65    2.65
   0   5  -4   51.70    2.39
   0  -5   4   57.33    2.70
   0  -5   4   55.62    1.96
   0  -5   4   51.21    2.72
   0  -5   4   55.05    2.20
  -1   5  -4   34.98    2.50
  -1   5  -4   33.03    1.50
  -1   5  -4   33.35    1.97
  -1   5  -4   32.56    1.56
   1  -5   4   35.25    2.13
   1  -5   4   31.50    1.64
   1  -5   4   34.67    1.59
  -2   5  -4   26.37    1.81
  -2   5  -4   26.86    1.28
  -2   5  -4   23.83    1.89
  -2   5  -4   27.75    1.43
  -2   5  -4   26.40    1.31
   2  -5   4   26.98    1.58
   2  -5   4   27.71    1.94
   2  -5   4   27.62    1.56
  -3   5  -4   39.24    2.42
  -3   5  -4   37.59    1.75
  -3   5  -4   36.95    2.44
  -3   5  -4   35.00    1.49
   3  -5   4   40.71    2.42
   3  -5   4   36.58    1.98
  -4   5  -4    9.38    1.49
  -4   5  -4   12.12    1.07
  -4   5  -4    9.97    1.57
   4  -5   4   10.63    1.59
   4  -5   4   11.88    1.42
  -5   5  -4   23.60    1.55
  -5   5  -4   21.33    2.44
  -5   5  -4   26.93    2.48
   5  -5   4   20.85    2.12
   5  -5   4   22.74    1.91
   9   4  -4   -0.19    0.64
   9   4  -4   -0.01    0.56
   9   4  -4   -0.29    0.93
   9   4  -4    0.86    0.82
  -9  -4   4   -0.43    0.70
  -9  -4   4    1.06    0.98
   8   4  -4   85.69    3.88
   8   4  -4   85.08    4.06
   8   4  -4   82.56    3.62
  -8  -4   4   83.41    4.14
  -8  -4   4   88.33    4.07
   7   4  -4    1.77    0.65
   7   4  -4    1.87    0.73
   7   4  -4    3.19    0.98
  -7  -4   4    1.87    0.68
   6   4  -4   98.36    3.91
   6   4  -4   94.34    3.96
   6   4  -4   98.68    3.56
  -6  -4   4   99.91    4.06
  -6  -4   4   92.91    3.89
   5   4  -4   16.19    1.32
   5   4  -4   17.12    1.18
  -5  -4   4   15.84    1.37
  -5  -4   4   10.08    1.53
  -5  -4   4   15.60    0.89
  -5  -4   4   14.38    1.29
   4   4  -4   93.37    2.80
   4   4  -4   91.98    3.08
   4   4  -4   87.97    3.03
   4   4  -4   86.61    3.42
  -4  -4   4   86.97    2.77
  -4  -4   4   96.81    3.63
  -4  -4   4   83.40    3.38
  -4  -4   4   89.51    3.42
   3   4  -4   65.72    2.70
   3   4  -4   64.31    2.03
   3   4  -4   63.55    2.28
   3   4  -4   67.93    2.39
  -3  -4   4   65.18    2.37
  -3  -4   4   64.59    3.29
  -3  -4   4   63.32    2.27
   2   4  -4   94.84    3.55
   2   4  -4   93.16    3.04
   2   4  -4   93.66    2.55
   2   4  -4   90.29    2.85
  -2  -4   4   89.13    3.51
  -2  -4   4   93.94    4.00
  -2  -4   4   92.41    3.26
  -2  -4   4   92.99    3.15
  -2  -4   4   94.54    3.18
  -2  -4   4   90.60    2.92
   1   4  -4   60.35    2.36
   1   4  -4   64.23    2.79
   1   4  -4   63.33    2.14
  -1  -4   4   65.88    2.31
  -1  -4   4   52.11    3.42
   0   4  -4   34.62    1.99
   0   4  -4   33.81    1.72
   0   4  -4   32.69    1.43
   0  -4   4   33.70    1.43
   0  -4   4   37.57    1.56
   0  -4   4   37.99    2.05
   0  -4   4   34.06    2.05
  -1   4  -4   99.21    3.86
  -1   4  -4   99.18    3.20
  -1   4  -4  102.33    3.11
  -1   4  -4   97.95    3.54
   1  -4   4   99.02    3.11
   1  -4   4   82.89    4.27
   1  -4   4   99.63    4.57
   1  -4   4   96.37    3.14
  -2   4  -4   22.84    1.92
  -2   4  -4   19.32    1.08
  -2   4  -4   19.10    1.46
  -2   4  -4   19.15    1.11
   2  -4   4   19.88    1.21
   2  -4   4   19.38    1.27
   2  -4   4   20.72    1.54
  -3   4  -4   65.22    2.30
  -3   4  -4   65.22    3.14
  -3   4  -4   67.89    2.37
  -3   4  -4   68.08    3.16
   3  -4   4   68.97    3.10
   3  -4   4   65.31    2.75
  -4   4  -4    2.71    0.88
  -4   4  -4    2.80    0.59
   4  -4   4    4.68    1.05
   4  -4   4    3.16    0.79
  -5   4  -4   41.36    2.73
  -5   4  -4   37.01    1.84
   5  -4   4   36.19    2.33
   5  -4   4   40.28    2.55
  -6   4  -4    1.01    0.61
  -6   4  -4    0.82    1.02
   6  -4   4   -0.66    0.69
   6  -4   4    0.48    0.82
   9   3  -4    0.77    0.83
   9   3  -4    0.65    0.72
   9   3  -4    1.58    1.12
   9   3  -4    1.45    0.58
  -9  -3   4    1.62    0.97
  -9  -3   4    2.02    0.89
   8   3  -4   57.56    3.11
   8   3  -4   58.69    2.93
   8   3  -4   56.60    3.19
  -8  -3   4   58.04    3.92
  -8  -3   4   62.03    3.25
   7   3  -4    3.54    0.79
   7   3  -4    3.65    0.90
   7   3  -4    3.30    0.87
  -7  -3   4    5.65    1.10
   6   3  -4   57.55    2.77
   6   3  -4   61.81    2.61
   6   3  -4   59.83    2.93
  -6  -3   4   58.20    3.93
  -6  -3   4   57.48    2.83
   5   3  -4   27.91    1.70
   5   3  -4   27.00    1.51
  -5  -3   4   29.41    1.84
  -5  -3   4   24.99    1.69
   4   3  -4   37.40    1.71
   4   3  -4   40.94    2.03
  -4  -3   4   39.93    1.99
  -4  -3   4   40.08    1.49
  -4  -3   4   41.50    2.76
  -4  -3   4   39.64    1.99
   3   3  -4   84.63    2.64
   3   3  -4   80.88    3.07
   3   3  -4   84.39    2.71
   3   3  -4   80.73    2.52
   3   3  -4   87.99    3.17
  -3  -3   4   79.48    2.48
  -3  -3   4   77.04    3.00
  -3  -3   4   80.27    3.12
  -3  -3   4   76.45    2.63
  -3  -3   4   85.02    2.97
  -3  -3   4   81.25    2.66
   2   3  -4   55.62    1.98
   2   3  -4   53.79    2.39
   2   3  -4   57.56    2.02
   2   3  -4   55.29    1.85
   2   3  -4   58.28    2.44
  -2  -3   4   55.74    2.03
  -2  -3   4   60.02    2.27
  -2  -3   4   57.26    2.46
  -2  -3   4   58.00    2.46
  -2  -3   4   56.91    1.92
  -2  -3   4   55.57    2.16
   1   3  -4  116.15    3.37
   1   3  -4  127.49    4.20
   1   3  -4  129.66    3.63
   1   3  -4  120.40    3.66
   1   3  -4  124.79    4.09
  -1  -3   4  129.81    3.67
  -1  -3   4  126.48    4.16
  -1  -3   4  119.76    4.15
  -1  -3   4  129.56    3.74
  -1  -3   4  124.79    3.63
   0   3  -4   67.87    2.81
   0   3  -4   67.63    2.47
   0   3  -4   69.16    2.32
   0   3  -4   63.15    2.64
   0   3  -4   66.51    2.18
   0  -3   4   70.82    2.30
   0  -3   4   68.64    2.73
   0  -3   4   67.16    2.20
   0  -3   4   68.32    2.84
  -1   3  -4   96.91    3.18
  -1   3  -4   98.16    3.05
  -1   3  -4   95.81    3.43
  -1   3  -4   93.90    3.57
  -1   3  -4   95.76    3.34
   1  -3   4   98.41    3.49
   1  -3   4   97.09    3.30
   1  -3   4   92.76    2.86
   1  -3   4   92.76    3.55
   1  -3   4   99.37    3.09
  -2   3  -4   10.22    1.27
  -2   3  -4   11.64    0.71
  -2   3  -4   11.23    0.84
   2  -3   4   11.73    0.81
   2  -3   4   10.97    1.04
   2  -3   4   11.37    1.02
   2  -3   4   11.05    0.89
  -3   3  -4  101.69    3.04
  -3   3  -4  103.35    3.98
  -3   3  -4   96.37    3.14
   3  -3   4  103.26    3.59
   3  -3   4  100.37    3.83
  -4   3  -4   -0.05    0.38
  -4   3  -4    0.12    0.28
  -4   3  -4    0.64    0.44
   4  -3   4    0.34    0.36
   4  -3   4    0.54    0.44
  -5   3  -4   60.61    3.43
  -5   3  -4   72.06    3.50
  -5   3  -4   69.47    2.57
   5  -3   4   79.44    3.49
   5  -3   4   71.67    3.26
  -6   3  -4    8.05    0.96
  -6   3  -4    5.88    1.24
   6  -3   4    8.03    1.31
   6  -3   4    5.67    1.22
  -7   3  -4   26.33    1.75
  -7   3  -4   31.20    2.62
   7  -3   4   26.14    2.34
   7  -3   4   28.05    2.59
   9   2  -4    8.76    1.47
   9   2  -4    8.23    0.95
   9   2  -4    9.77    1.50
   9   2  -4    8.24    1.49
  -9  -2   4   11.25    1.82
   8   2  -4   29.07    1.47
   8   2  -4   35.28    2.42
   8   2  -4   33.91    2.13
   8   2  -4   32.86    2.33
  -8  -2   4   32.25    2.34
  -8  -2   4   28.90    2.46
   7   2  -4   29.39    1.26
   7   2  -4   31.52    2.05
   7   2  -4   30.35    2.10
   7   2  -4   33.03    2.21
  -7  -2   4   31.52    2.24
  -7  -2   4   29.12    2.07
   6   2  -4   31.08    1.30
   6   2  -4   32.44    1.78
   6   2  -4   28.95    1.94
  -6  -2   4   31.32    1.92
  -6  -2   4   33.38    2.10
   5   2  -4   73.40    2.78
   5   2  -4   73.08    2.35
   5   2  -4   73.86    3.00
  -5  -2   4   78.21    3.35
  -5  -2   4   72.15    3.01
   4   2  -4   40.93    1.86
   4   2  -4   42.42    2.00
   4   2  -4   40.06    1.94
   4   2  -4   40.36    1.78
  -4  -2   4   39.50    1.51
  -4  -2   4   41.53    1.49
  -4  -2   4   42.22    1.95
  -4  -2   4   43.53    2.04
   3   2  -4   91.25    2.77
   3   2  -4   93.85    3.06
   3   2  -4  100.48    3.71
   3   2  -4   95.69    3.31
   3   2  -4   92.91    2.98
  -3  -2   4   97.54    3.19
  -3  -2   4   90.24    2.92
  -3  -2   4   95.63    2.89
  -3  -2   4   93.38    3.24
  -3  -2   4   97.18    3.76
   2   2  -4   29.03    1.15
   2   2  -4   31.68    1.69
   2   2  -4   30.21    1.24
   2   2  -4   30.54    1.57
   2   2  -4   28.85    1.29
  -2  -2   4   30.04    1.38
  -2  -2   4   26.88    1.33
  -2  -2   4   31.38    1.61
  -2  -2   4   28.15    1.50
  -2  -2   4   27.62    1.08
  -2  -2   4   30.18    1.31
   1   2  -4  120.48    3.42
   1   2  -4  117.93    3.89
   1   2  -4  131.53    3.49
   1   2  -4  126.72    4.04
   1   2  -4  130.95    3.63
  -1  -2   4  120.89    3.98
  -1  -2   4  123.36    3.59
  -1  -2   4  115.63    3.50
  -1  -2   4  119.40    3.77
  -1  -2   4  123.73    3.97
  -1  -2   4  130.66    3.64
   0   2  -4    5.15    0.61
   0   2  -4    5.06    0.72
   0   2  -4    4.39    0.71
   0   2  -4    5.19    0.51
   0   2  -4    5.64    0.75
   0  -2   4    5.08    0.45
   0  -2   4    3.67    0.65
   0  -2   4    5.59    0.80
   0  -2   4    5.06    0.51
  -1   2  -4  105.89    3.67
  -1   2  -4  106.96    3.41
  -1   2  -4  102.04    3.50
  -1   2  -4  105.16    3.22
   1  -2   4  108.02    2.93
   1  -2   4  102.88    3.25
   1  -2   4  107.63    3.56
   1  -2   4  109.34    3.36
  -2   2  -4    9.86    0.78
  -2   2  -4    9.68    0.56
  -2   2  -4   11.03    1.02
  -2   2  -4    7.40    1.08
   2  -2   4    7.90    0.74
   2  -2   4    7.20    0.94
   2  -2   4    9.53    0.62
   2  -2   4    8.77    1.11
   2  -2   4   10.50    0.94
  -3   2  -4  110.84    3.10
  -3   2  -4  108.00    3.81
  -3   2  -4  109.36    5.27
  -3   2  -4  105.37    3.37
   3  -2   4  113.27    3.85
  -4   2  -4   35.04    1.43
  -4   2  -4   32.21    1.99
  -4   2  -4   31.51    1.58
   4  -2   4   31.40    1.85
   4  -2   4   37.56    2.06
  -5   2  -4   70.45    2.44
  -5   2  -4   63.96    3.21
  -5   2  -4   67.91    3.10
   5  -2   4   67.53    3.11
   5  -2   4   64.09    3.03
  -6   2  -4   38.59    2.44
  -6   2  -4   34.11    1.73
   6  -2   4   37.59    2.11
   6  -2   4   37.18    2.41
   6  -2   4   40.53    2.46
  -7   2  -4   21.42    2.20
  -7   2  -4   25.56    2.13
  -7   2  -4   23.58    1.55
   7  -2   4   26.15    2.27
   7  -2   4   25.32    2.13
   7  -2   4   22.07    1.88
   9   1  -4   15.96    1.21
   9   1  -4   14.67    1.92
   9   1  -4   18.01    1.85
   9   1  -4   15.23    1.81
  -9  -1   4   14.96    2.18
  -9  -1   4   19.39    2.33
   8   1  -4   14.84    1.59
   8   1  -4   14.92    1.77
   8   1  -4   15.93    1.53
   8   1  -4   16.86    1.14
  -8  -1   4   16.91    2.02
  -8  -1   4   15.68    2.54
   7   1  -4   27.27    1.97
   7   1  -4   27.17    1.35
   7   1  -4   27.42    1.88
  -7  -1   4   29.80    2.00
  -7  -1   4   28.50    2.08
   6   1  -4   16.89    1.30
   6   1  -4   16.56    1.34
   6   1  -4   17.72    1.44
   6   1  -4   15.88    0.96
  -6  -1   4   15.36    1.35
  -6  -1   4   14.38    1.40
   5   1  -4   74.27    2.80
   5   1  -4   76.73    3.02
   5   1  -4   73.57    2.39
  -5  -1   4   75.15    3.07
  -5  -1   4   76.23    3.44
   4   1  -4    9.37    0.86
   4   1  -4    8.70    0.80
   4   1  -4    8.55    0.84
   4   1  -4    8.70    0.65
   4   1  -4    9.04    0.78
  -4  -1   4    7.97    0.81
  -4  -1   4    8.72    0.62
  -4  -1   4    8.49    0.60
  -4  -1   4    7.91    0.83
  -4  -1   4    7.91    0.98
   3   1  -4  273.52    7.00
   3   1  -4  272.46    7.22
   3   1  -4  267.46    6.98
   3   1  -4  267.62    6.85
   3   1  -4  269.25    7.25
  -3  -1   4  268.74    6.78
  -3  -1   4  265.56    7.17
  -3  -1   4  272.49    7.26
  -3  -1   4  265.03    6.91
  -3  -1   4  272.54    6.52
   2   1  -4    5.08    0.64
   2   1  -4    5.27    0.38
   2   1  -4    5.08    0.48
   2   1  -4    6.08    0.54
   2   1  -4    5.94    0.54
   2   1  -4    5.32    0.71
   2   1  -4    5.15    0.68
  -2  -1   4    5.60    0.63
  -2  -1   4    4.84    0.35
  -2  -1   4    6.86    0.69
  -2  -1   4    5.23    0.70
  -2  -1   4    6.77    0.57
  -2  -1   4    5.02    0.48
   1   1  -4  321.66    8.25
   1   1  -4  320.72    7.58
   1   1  -4  318.53    7.97
   1   1  -4  319.58    7.93
  -1  -1   4  315.12    8.25
  -1  -1   4  323.42    8.14
  -1  -1   4  315.99    8.28
  -1  -1   4  317.02    7.97
   0   1  -4   15.03    0.78
   0   1  -4   13.38    0.84
   0   1  -4   14.97    1.02
   0   1  -4   15.42    1.01
   0   1  -4   13.85    0.93
   0  -1   4   14.01    0.98
   0  -1   4   14.44    1.12
   0  -1   4   14.19    0.65
   0  -1   4   13.86    0.85
   0  -1   4   15.65    0.99
  -1   1  -4  280.81    7.60
  -1   1  -4  289.36    7.50
  -1   1  -4  278.95    7.26
  -1   1  -4  283.21    7.49
   1  -1   4  274.04    7.55
   1  -1   4  297.19    7.53
   1  -1   4  287.21    6.73
   1  -1   4  289.61    7.33
   1  -1   4  286.61    7.19
  -2   1  -4   54.98    2.26
  -2   1  -4   50.80    2.00
  -2   1  -4   51.41    2.12
  -2   1  -4   54.91    1.54
   2  -1   4   55.04    2.13
   2  -1   4   55.30    2.06
   2  -1   4   51.18    2.18
   2  -1   4   52.12    2.14
  -3   1  -4   88.73    2.46
  -3   1  -4   90.28    3.03
  -3   1  -4   88.06    2.91
  -3   1  -4   85.38    3.14
   3  -1   4   84.54    3.07
   3  -1   4   86.33    3.11
  -4   1  -4   94.81    2.77
  -4   1  -4   95.50    3.40
  -4   1  -4   93.23    3.67
  -4   1  -4   91.60    3.13
  -4   1  -4   91.12    3.43
   4  -1   4   92.01    3.27
   4  -1   4   95.37    3.50
   4  -1   4   90.09    3.40
  -5   1  -4   36.11    1.53
  -5   1  -4   37.46    2.22
  -5   1  -4   36.99    2.07
   5  -1   4   35.76    1.91
   5  -1   4   31.69    2.04
   5  -1   4   37.50    2.10
  -6   1  -4   61.74    3.10
  -6   1  -4   55.35    2.89
  -6   1  -4   57.60    2.29
   6  -1   4   60.26    2.73
   6  -1   4   59.08    2.85
   6  -1   4   60.85    3.15
  -7   1  -4   10.74    1.59
  -7   1  -4   12.85    1.75
  -7   1  -4   11.89    1.15
   7  -1   4    8.73    1.46
   7  -1   4    9.95    1.39
   7  -1   4    9.91    1.62
  -8   1  -4   27.32    1.86
  -8   1  -4   29.42    2.61
  -8   1  -4   28.52    2.41
   8  -1   4   34.97    2.82
   8  -1   4   28.11    2.18
   8  -1   4   27.76    2.91
   9   0  -4   31.86    2.55
   9   0  -4   22.77    2.25
   9   0  -4   25.21    2.14
  -9   0   4   26.98    2.46
  -9   0   4   24.09    2.26
  -9   0   4   25.26    2.48
   8   0  -4   18.53    1.58
   8   0  -4   16.10    1.72
   8   0  -4   14.88    1.61
   8   0  -4   16.74    1.19
  -8   0   4   18.12    1.93
  -8   0   4   19.61    1.84
   7   0  -4   49.74    2.08
   7   0  -4   53.15    2.74
   7   0  -4   48.33    2.60
   7   0  -4   48.83    2.01
   7   0  -4   46.29    3.49
  -7   0   4   52.01    2.81
  -7   0   4   53.25    2.94
   6   0  -4    4.54    0.76
   6   0  -4    3.75    0.80
   6   0  -4    3.74    0.62
   6   0  -4    4.79    0.86
  -6   0   4    2.64    0.63
  -6   0   4    2.80    0.68
   5   0  -4  135.97    4.48
   5   0  -4  131.30    3.83
   5   0  -4  134.70    4.25
  -5   0   4  133.22    4.55
  -5   0   4  136.51    4.47
   4   0  -4    5.44    0.52
   4   0  -4    6.09    0.72
   4   0  -4    4.77    0.67
   4   0  -4    5.48    0.73
   4   0  -4    4.78    0.84
  -4   0   4    5.28    0.52
  -4   0   4    5.34    0.75
  -4   0   4    6.21    0.85
  -4   0   4    4.91    0.74
   3   0  -4  248.28    6.68
   3   0  -4  246.98    6.44
   3   0  -4  245.65    6.62
   3   0  -4  240.59    6.46
   3   0  -4  247.77    6.30
  -3   0   4  248.35    6.60
  -3   0   4  245.17    6.42
  -3   0   4  251.79    6.61
  -3   0   4  249.07    6.68
  -3   0   4  248.31    6.00
  -3   0   4  252.05    6.32
   2   0  -4   37.24    1.58
   2   0  -4   36.60    1.45
   2   0  -4   36.67    1.55
   2   0  -4   37.23    1.48
   2   0  -4   37.61    1.35
  -2   0   4   34.70    1.51
  -2   0   4   36.64    1.55
  -2   0   4   35.89    1.03
  -2   0   4   36.06    1.44
  -2   0   4   35.82    1.42
   1   0  -4  384.79    9.47
   1   0  -4  379.97    9.47
   1   0  -4  384.74    9.38
   1   0  -4  390.76    9.54
   1   0  -4  378.24    8.72
   1   0  -4  389.68    9.39
  -1   0   4  379.32    9.02
  -1   0   4  376.84    9.45
  -1   0   4  378.07    9.47
  -1   0   4  382.56    9.84
  -1   0   4  384.58    9.35
   0   0  -4   41.04    1.70
   0   0  -4   40.55    1.59
   0   0  -4   41.06    1.59
   0   0  -4   43.32    1.71
   0   0   4   41.22    1.62
   0   0   4   40.15    1.68
   0   0   4   38.76    1.82
   0   0   4   38.13    1.66
  -1   0  -4  163.02    4.55
  -1   0  -4  157.67    4.63
  -1   0  -4  166.30    4.63
  -1   0  -4  168.01    4.54
   1   0   4  162.56    4.70
   1   0   4  162.43    4.53
   1   0   4  160.77    4.52
   1   0   4  160.64    4.57
  -2   0  -4  166.99    4.59
  -2   0  -4  158.71    4.31
  -2   0  -4  157.90    4.55
  -2   0  -4  159.78    4.64
  -2   0  -4  169.73    4.65
  -2   0  -4  163.47    3.80
   2   0   4  160.48    4.90
   2   0   4  152.91    4.35
   2   0   4  161.07    4.61
   2   0   4  155.66    4.59
  -3   0  -4   85.31    2.28
  -3   0  -4   80.31    2.89
  -3   0  -4   85.22    3.00
  -3   0  -4   84.48    2.82
  -3   0  -4   86.08    2.78
   3   0   4   82.54    2.86
   3   0   4   85.14    2.99
   3   0   4   82.13    2.87
   3   0   4   83.18    2.90
   3   0   4   78.23    2.87
  -4   0  -4  140.54    4.24
  -4   0  -4  149.07    4.59
  -4   0  -4  134.43    4.35
  -4   0  -4  137.56    3.70
  -4   0  -4  138.90    4.31
   4   0   4  136.20    4.30
   4   0   4  122.93    4.31
   4   0   4  137.56    4.49
   4   0   4  138.13    4.32
  -5   0  -4    7.96    1.06
  -5   0  -4    7.77    1.05
  -5   0  -4    9.00    0.72
  -5   0  -4    9.06    0.73
  -5   0  -4   10.16    1.22
   5   0   4    8.16    1.02
   5   0   4    7.78    1.10
   5   0   4    9.18    0.95
  -6   0  -4  101.08    3.93
  -6   0  -4  100.78    4.03
  -6   0  -4   99.53    3.26
   6   0   4   99.01    3.81
   6   0   4   96.76    3.71
   6   0   4   95.32    4.03
  -7   0  -4    1.39    0.75
  -7   0  -4    2.84    0.84
  -7   0  -4    2.88    0.67
   7   0   4    2.86    0.91
   7   0   4    1.28    0.71
   7   0   4    2.02    0.79
  -8   0  -4   36.32    2.54
  -8   0  -4   35.47    1.97
  -8   0  -4   35.49    2.59
   8   0   4   31.84    2.57
   8   0   4   37.12    2.45
   8   0   4   31.47    2.52
   9  -1  -4   19.39    1.95
   9  -1  -4   21.03    2.16
   9  -1  -4   18.78    2.23
  -9   1   4   16.05    2.61
  -9   1   4   14.97    3.22
  -9   1   4   20.26    2.43
   8  -1  -4    3.95    0.95
   8  -1  -4    1.42    0.71
   8  -1  -4    1.80    0.62
  -8   1   4    1.84    0.80
  -8   1   4    2.92    0.97
  -8   1   4    3.01    1.00
   7  -1  -4   79.89    3.31
   7  -1  -4   78.99    3.39
   7  -1  -4   82.62    3.58
   7  -1  -4   75.71    2.79
  -7   1   4   81.23    3.60
   6  -1  -4    0.50    0.35
   6  -1  -4    1.25    0.53
   6  -1  -4    1.00    0.43
   6  -1  -4    0.52    0.42
   6  -1  -4   -0.03    0.39
  -6   1   4    0.96    0.51
  -6   1   4    0.80    0.58
   5  -1  -4  115.71    4.03
   5  -1  -4  125.38    3.97
   5  -1  -4  123.58    4.17
   5  -1  -4  118.53    4.72
  -5   1   4  119.09    4.13
  -5   1   4  125.30    4.35
   4  -1  -4    9.80    0.83
   4  -1  -4   10.21    0.88
   4  -1  -4   10.10    0.87
   4  -1  -4    9.34    0.89
   4  -1  -4   10.10    0.74
  -4   1   4    9.91    0.93
  -4   1   4    9.49    0.86
  -4   1   4   11.36    0.94
   3  -1  -4  158.12    4.45
   3  -1  -4  158.00    4.33
   3  -1  -4  155.84    4.44
   3  -1  -4  157.61    4.55
  -3   1   4  162.70    4.60
  -3   1   4  158.44    4.38
  -3   1   4  161.19    4.56
  -3   1   4  160.39    4.43
  -3   1   4  158.39    4.58
   2  -1  -4  135.44    3.79
   2  -1  -4  133.04    3.58
   2  -1  -4  134.10    3.70
   2  -1  -4  129.87    3.79
   2  -1  -4  132.81    3.73
  -2   1   4  124.15    3.74
  -2   1   4  138.24    3.73
  -2   1   4  130.59    3.70
  -2   1   4  131.31    3.66
  -2   1   4  135.66    3.76
   1  -1  -4  210.14    5.36
   1  -1  -4  201.08    5.34
   1  -1  -4  206.33    5.31
   1  -1  -4  204.67    5.35
   1  -1  -4  206.02    4.93
   1  -1  -4  215.04    5.44
  -1   1   4  206.56    5.31
  -1   1   4  204.05    5.31
  -1   1   4  202.63    5.36
  -1   1   4  207.64    5.31
  -1   1   4  192.34    5.12
   0  -1  -4  304.53    7.73
   0  -1  -4  307.62    7.65
   0  -1  -4  309.41    7.67
   0  -1  -4  299.67    7.70
   0   1   4  304.97    7.63
   0   1   4  312.65    7.75
   0   1   4  304.07    7.77
   0   1   4  305.56    7.65
   0   1   4  302.29    7.58
  -1  -1  -4  114.80    3.32
  -1  -1  -4  113.97    3.41
  -1  -1  -4  115.50    3.42
  -1  -1  -4  107.40    3.44
   1   1   4  114.49    3.45
   1   1   4  114.46    3.27
   1   1   4  117.01    3.52
   1   1   4  118.01    3.30
  -2  -1  -4  239.39    6.27
  -2  -1  -4  235.11    6.13
  -2  -1  -4  244.31    6.42
  -2  -1  -4  236.89    6.35
  -2  -1  -4  246.90    6.24
   2   1   4  244.06    6.21
   2   1   4  247.74    6.56
   2   1   4  230.45    6.39
   2   1   4  233.89    6.20
   2   1   4  244.82    6.44
   2   1   4  249.32    6.07
  -3  -1  -4   18.80    0.73
  -3  -1  -4   20.18    1.17
  -3  -1  -4   18.61    1.08
  -3  -1  -4   19.99    1.02
  -3  -1  -4   20.60    1.15
   3   1   4   18.03    1.14
   3   1   4   18.34    1.06
   3   1   4   17.17    1.11
   3   1   4   17.65    1.04
   3   1   4   18.84    1.08
  -4  -1  -4  189.71    5.29
  -4  -1  -4  186.93    5.33
  -4  -1  -4  183.51    4.74
  -4  -1  -4  172.20    5.24
  -4  -1  -4  182.76    5.75
   4   1   4  183.67    5.24
   4   1   4  174.66    5.34
   4   1   4  194.85    5.61
   4   1   4  184.31    5.38
  -5  -1  -4    0.40    0.21
  -5  -1  -4    0.71    0.45
  -5  -1  -4    0.42    0.32
  -5  -1  -4    0.65    0.28
  -5  -1  -4    0.64    0.35
   5   1   4    0.20    0.38
   5   1   4    0.58    0.38
   5   1   4    0.32    0.33
  -6  -1  -4   87.12    3.48
  -6  -1  -4   79.23    2.86
  -6  -1  -4   89.74    3.54
  -6  -1  -4   77.04    3.32
   6   1   4   86.14    3.39
   6   1   4   84.42    3.60
   6   1   4   84.45    3.31
  -7  -1  -4   12.90    1.59
  -7  -1  -4   11.51    1.01
  -7  -1  -4   12.82    1.37
   7   1   4   11.76    1.45
   7   1   4   11.98    1.64
   7   1   4   13.58    1.65
  -8  -1  -4   37.78    2.06
  -8  -1  -4   41.87    2.68
  -8  -1  -4   38.07    2.49
   8   1   4   34.26    2.37
   8   1   4   36.77    2.41
   8   1   4   35.36    2.52
   8   1   4   38.95    2.50
   8  -2  -4    1.91    0.79
   8  -2  -4    1.69    0.80
   8  -2  -4    1.51    0.90
  -8   2   4    0.86    0.88
  -8   2   4    2.09    0.97
  -8   2   4    2.85    1.03
   7  -2  -4   75.23    3.24
   7  -2  -4   77.81    3.54
   7  -2  -4   79.42    3.30
   7  -2  -4   80.10    2.90
  -7   2   4   76.98    3.56
  -7   2   4   69.67    3.68
  -7   2   4   81.22    3.73
   6  -2  -4    4.49    0.77
   6  -2  -4    5.40    0.89
   6  -2  -4    4.82    0.70
   6  -2  -4    6.11    0.99
  -6   2   4    7.63    1.15
  -6   2   4    6.34    1.13
  -6   2   4    4.73    0.93
   5  -2  -4  123.00    4.23
   5  -2  -4  119.33    3.96
   5  -2  -4  126.39    3.81
   5  -2  -4  121.36    4.16
   5  -2  -4  122.79    3.87
  -5   2   4  128.38    4.27
  -5   2   4  121.81    4.43
  -5   2   4  117.66    4.30
   4  -2  -4   39.95    1.88
   4  -2  -4   41.60    1.88
   4  -2  -4   40.44    1.74
   4  -2  -4   41.45    2.21
  -4   2   4   38.79    2.28
  -4   2   4   41.04    1.90
   3  -2  -4  157.97    4.39
   3  -2  -4  155.57    4.44
   3  -2  -4  158.97    4.41
   3  -2  -4  156.86    4.47
   3  -2  -4  158.94    4.55
  -3   2   4  151.11    4.47
  -3   2   4  152.15    4.44
  -3   2   4  155.72    4.36
  -3   2   4  157.73    4.62
   2  -2  -4  201.61    5.25
   2  -2  -4  200.36    5.37
   2  -2  -4  207.16    5.35
   2  -2  -4  198.06    5.34
   2  -2  -4  202.49    5.32
  -2   2   4  200.85    5.30
  -2   2   4  204.60    5.32
  -2   2   4  202.46    5.40
  -2   2   4  208.87    5.53
  -2   2   4  203.90    5.63
  -2   2   4  210.06    5.40
   1  -2  -4  126.28    3.39
   1  -2  -4  123.89    3.60
   1  -2  -4  121.85    3.35
   1  -2  -4  123.36    3.48
   1  -2  -4  127.00    3.16
   1  -2  -4  121.88    3.44
  -1   2   4  118.36    2.93
  -1   2   4  117.86    3.41
  -1   2   4  124.16    3.33
  -1   2   4  121.63    3.32
  -1   2   4  126.29    3.25
  -1   2   4  126.65    3.44
  -1   2   4  120.45    3.49
   0  -2  -4  390.81    9.29
   0  -2  -4  385.68    8.92
   0  -2  -4  396.54    9.64
   0  -2  -4  380.83    9.23
   0  -2  -4  405.96    9.49
   0  -2  -4  388.18    8.79
   0  -2  -4  383.56    9.49
   0   2   4  380.50    9.48
   0   2   4  387.96    9.29
   0   2   4  387.84    9.66
   0   2   4  386.50    9.50
   0   2   4  391.05    9.13
  -1  -2  -4   45.28    1.79
  -1  -2  -4   47.19    1.48
  -1  -2  -4   45.41    1.80
  -1  -2  -4   46.72    1.23
  -1  -2  -4   44.73    1.54
  -1  -2  -4   46.20    1.21
  -1  -2  -4   45.49    1.54
  -1  -2  -4   48.60    1.78
   1   2   4   46.16    1.26
   1   2   4   49.48    1.81
   1   2   4   48.72    1.86
   1   2   4   45.14    1.47
   1   2   4   46.02    1.23
  -2  -2  -4  231.53    5.52
  -2  -2  -4  226.01    5.33
  -2  -2  -4  227.38    6.03
  -2  -2  -4  224.86    5.68
  -2  -2  -4  226.48    5.72
  -2  -2  -4  231.33    6.01
   2   2   4  221.89    6.02
   2   2   4  227.58    5.64
   2   2   4  214.64    6.00
   2   2   4  219.43    6.04
   2   2   4  220.84    5.75
  -3  -2  -4   39.17    1.69
  -3  -2  -4   39.62    1.73
  -3  -2  -4   39.80    1.57
  -3  -2  -4   37.31    1.47
  -3  -2  -4   35.56    1.49
   3   2   4   37.41    1.70
   3   2   4   36.06    1.52
   3   2   4   39.30    1.75
   3   2   4   38.42    1.49
   3   2   4   39.27    1.74
   3   2   4   35.20    1.63
  -4  -2  -4  158.95    4.59
  -4  -2  -4  165.28    4.69
  -4  -2  -4  162.20    4.61
   4   2   4  151.65    4.83
   4   2   4  165.39    4.84
   4   2   4  151.96    4.70
   4   2   4  152.80    4.75
   4   2   4  157.15    4.60
  -5  -2  -4   49.72    1.58
  -5  -2  -4   48.63    2.17
  -5  -2  -4   54.43    2.32
   5   2   4   50.63    2.64
   5   2   4   49.49    2.26
   5   2   4   48.43    2.38
   5   2   4   50.96    2.28
  -6  -2  -4   71.86    2.99
  -6  -2  -4   68.74    2.93
  -6  -2  -4   67.90    2.96
   6   2   4   70.10    2.95
   6   2   4   69.91    3.00
   6   2   4   72.49    3.17
   6   2   4   69.41    2.82
  -7  -2  -4   27.68    1.54
  -7  -2  -4   24.51    1.86
   7   2   4   21.14    1.83
   7   2   4   25.11    1.80
   7   2   4   22.87    1.70
   7   2   4   24.66    1.69
  -8  -2  -4   21.97    1.93
  -8  -2  -4   25.11    2.02
  -8  -2  -4   24.78    1.65
   8   2   4   22.78    2.03
   8   2   4   22.52    1.91
   8   2   4   26.53    2.03
   8   2   4   24.07    1.84
  -9  -2  -4   14.79    2.07
  -9  -2  -4   15.10    1.92
  -9  -2  -4   12.19    1.46
   9   2   4   13.27    1.87
   9   2   4   13.84    2.02
   9   2   4   14.03    1.82
   8  -3  -4    5.22    1.03
   8  -3  -4    4.95    0.99
   8  -3  -4    3.61    1.09
  -8   3   4    2.82    1.04
  -8   3   4    3.58    1.23
  -8   3   4    4.94    1.36
   7  -3  -4   48.93    2.23
   7  -3  -4   44.97    2.34
   7  -3  -4   47.44    3.96
   7  -3  -4   46.84    2.45
  -7   3   4   45.38    2.78
  -7   3   4   51.86    2.82
  -7   3   4   48.00    2.95
   6  -3  -4   37.38    1.79
   6  -3  -4   35.11    2.14
   6  -3  -4   35.42    1.91
   6  -3  -4   33.88    1.84
  -6   3   4   40.69    2.36
  -6   3   4   33.63    2.34
   5  -3  -4   58.21    2.39
   5  -3  -4   56.48    2.54
   5  -3  -4   57.11    2.23
   5  -3  -4   62.10    3.49
   5  -3  -4   55.06    2.36
  -5   3   4   55.68    2.54
  -5   3   4   57.13    2.71
  -5   3   4   58.29    2.83
   4  -3  -4   94.04    3.23
   4  -3  -4   94.86    3.52
   4  -3  -4  101.91    3.15
   4  -3  -4   95.94    3.33
   4  -3  -4   97.47    3.39
  -4   3   4   92.52    3.50
  -4   3   4   98.70    3.39
  -4   3   4   95.48    3.64
   3  -3  -4    4.37    0.65
   3  -3  -4    3.59    0.63
   3  -3  -4    4.02    0.62
   3  -3  -4    5.42    0.70
   3  -3  -4    2.86    0.48
  -3   3   4    4.80    0.75
  -3   3   4    4.83    0.64
  -3   3   4    2.74    0.59
  -3   3   4    3.95    0.56
  -3   3   4    4.18    0.61
   2  -3  -4  277.25    7.07
   2  -3  -4  275.26    7.10
   2  -3  -4  278.69    7.02
   2  -3  -4  273.87    7.06
   2  -3  -4  279.00    7.18
  -2   3   4  280.71    6.90
  -2   3   4  279.57    7.08
  -2   3   4  286.52    7.05
  -2   3   4  285.43    7.35
  -2   3   4  283.57    7.29
  -2   3   4  282.06    7.03
   1  -3  -4    5.04    0.46
   1  -3  -4    6.03    0.52
   1  -3  -4    5.05    0.42
   1  -3  -4    5.07    0.42
   1  -3  -4    5.03    0.42
  -1   3   4    5.87    0.52
  -1   3   4    4.64    0.51
  -1   3   4    5.50    0.52
  -1   3   4    5.52    0.36
  -1   3   4    4.54    0.38
  -1   3   4    4.49    0.40
   0  -3  -4  378.21    9.48
   0  -3  -4  375.97    9.03
   0  -3  -4  379.37    8.88
   0  -3  -4  386.43    9.53
   0  -3  -4  384.76    9.29
   0  -3  -4  390.13    9.31
   0  -3  -4  373.88    8.91
   0  -3  -4  377.68    8.89
   0  -3  -4  391.44    8.92
   0   3   4  376.06    8.91
   0   3   4  376.33    8.82
   0   3   4  381.87    9.51
   0   3   4  378.24    9.33
   0   3   4  385.16    9.32
   0   3   4  383.21    8.89
  -1  -3  -4   35.12    1.07
  -1  -3  -4   35.97    1.14
  -1  -3  -4   36.00    1.23
  -1  -3  -4   34.67    1.39
  -1  -3  -4   33.63    1.36
  -1  -3  -4   34.38    1.22
  -1  -3  -4   35.52    1.48
  -1  -3  -4   34.64    1.13
  -1  -3  -4   37.64    1.58
   1   3   4   34.33    1.16
   1   3   4   33.03    1.52
   1   3   4   34.66    1.40
   1   3   4   33.66    1.48
   1   3   4   35.00    0.99
   1   3   4   34.54    1.01
  -2  -3  -4  219.62    5.46
  -2  -3  -4  225.21    5.37
  -2  -3  -4  218.97    5.86
  -2  -3  -4  220.03    5.72
  -2  -3  -4  222.71    5.91
  -2  -3  -4  222.42    5.45
  -2  -3  -4  234.83    5.50
  -2  -3  -4  223.61    5.96
   2   3   4  216.10    5.93
   2   3   4  214.44    5.99
   2   3   4  233.06    5.89
   2   3   4  217.23    5.34
   2   3   4  218.47    5.53
   2   3   4  224.78    5.40
  -3  -3  -4   29.98    1.24
  -3  -3  -4   31.54    1.23
  -3  -3  -4   29.72    1.26
  -3  -3  -4   29.85    1.46
  -3  -3  -4   28.73    1.42
   3   3   4   31.02    1.33
   3   3   4   30.07    1.50
   3   3   4   29.19    1.16
   3   3   4   32.05    1.51
   3   3   4   28.32    1.39
  -4  -3  -4   49.55    1.90
  -4  -3  -4   48.72    1.95
  -4  -3  -4   51.29    2.13
   4   3   4   48.39    2.12
   4   3   4   49.71    1.82
   4   3   4   48.85    1.82
   4   3   4   49.97    2.03
   4   3   4   54.13    2.56
   4   3   4   45.96    1.99
  -5  -3  -4   73.58    2.73
  -5  -3  -4   79.84    2.83
  -5  -3  -4   74.50    1.97
  -5  -3  -4   70.60    2.76
   5   3   4   72.95    2.63
   5   3   4   76.82    2.99
   5   3   4   76.07    3.04
   5   3   4   78.90    2.85
  -6  -3  -4   39.14    2.02
  -6  -3  -4   38.92    2.00
  -6  -3  -4   40.05    2.06
   6   3   4   36.92    2.16
   6   3   4   38.59    1.97
   6   3   4   34.51    2.27
   6   3   4   39.43    2.15
  -7  -3  -4   44.16    2.46
  -7  -3  -4   46.35    2.42
  -7  -3  -4   43.40    2.37
   7   3   4   52.05    2.75
   7   3   4   44.42    2.25
   7   3   4   44.83    2.50
   7   3   4   48.03    2.33
  -8  -3  -4   10.24    1.46
  -8  -3  -4    9.92    1.37
   8   3   4    7.59    1.26
   8   3   4   11.77    1.66
   8   3   4   10.59    1.34
   8   3   4   11.01    1.31
  -9  -3  -4   19.95    1.99
  -9  -3  -4   21.08    3.15
  -9  -3  -4   21.66    1.74
   9   3   4   21.66    2.02
   9   3   4   20.08    2.16
   9   3   4   19.73    1.89
   8  -4  -4   16.42    2.04
   8  -4  -4   18.80    1.67
   8  -4  -4   17.51    1.66
  -8   4   4   18.16    2.30
  -8   4   4   16.42    2.12
  -8   4   4   22.49    3.87
   7  -4  -4   26.02    2.08
   7  -4  -4   27.18    1.84
   7  -4  -4   27.28    1.78
  -7   4   4   31.04    2.50
  -7   4   4   29.07    2.26
  -7   4   4   27.35    2.20
   6  -4  -4   71.31    2.96
   6  -4  -4   75.43    3.36
   6  -4  -4   69.08    2.78
   6  -4  -4   78.26    2.92
  -6   4   4   72.30    5.13
   5  -4  -4    5.30    0.83
   5  -4  -4    3.57    0.69
   5  -4  -4    4.45    0.81
   5  -4  -4    6.35    0.84
   5  -4  -4    6.78    0.88
  -5   4   4    6.34    1.00
  -5   4   4    4.58    0.85
  -5   4   4    4.51    0.93
   4  -4  -4  190.78    5.75
   4  -4  -4  189.43    5.68
   4  -4  -4  192.13    5.46
   4  -4  -4  194.46    5.44
  -4   4   4  197.42    6.13
  -4   4   4  194.03    5.72
  -4   4   4  196.00    5.98
   3  -4  -4    3.78    0.55
   3  -4  -4    1.81    0.47
   3  -4  -4    2.20    0.44
   3  -4  -4    3.46    0.61
   3  -4  -4    2.19    0.59
   3  -4  -4    2.70    0.53
  -3   4   4    1.66    0.46
  -3   4   4    2.49    0.47
  -3   4   4    3.65    0.77
  -3   4   4    2.48    0.52
   2  -4  -4  296.15    7.56
   2  -4  -4  310.47    7.49
   2  -4  -4  301.46    7.62
   2  -4  -4  283.16    7.65
   2  -4  -4  301.40    7.80
  -2   4   4  302.29    7.95
  -2   4   4  295.36    7.49
  -2   4   4  305.54    7.91
  -2   4   4  300.17    7.55
  -2   4   4  291.82    7.46
  -2   4   4  308.60    7.58
   1  -4  -4   70.42    2.34
   1  -4  -4   71.92    2.29
   1  -4  -4   71.38    2.19
   1  -4  -4   71.75    2.40
   1  -4  -4   69.97    2.14
   1  -4  -4   69.75    2.13
  -1   4   4   67.04    2.32
  -1   4   4   75.90    2.47
  -1   4   4   70.17    2.07
  -1   4   4   73.30    2.78
   0  -4  -4  444.94   10.29
   0  -4  -4  455.75   10.85
   0  -4  -4  440.38   10.56
   0  -4  -4  439.58   10.78
   0  -4  -4  445.47   10.56
   0  -4  -4  456.14   10.29
   0  -4  -4  448.36   10.96
   0  -4  -4  442.92   10.63
   0  -4  -4  453.07   10.64
   0   4   4  447.47   10.84
   0   4   4  437.21   10.15
   0   4   4  446.68   10.18
   0   4   4  435.37   10.72
   0   4   4  438.67   10.48
   0   4   4  440.01   10.72
  -1  -4  -4   50.35    1.98
  -1  -4  -4   50.79    1.84
  -1  -4  -4   50.34    1.80
  -1  -4  -4   51.10    1.39
  -1  -4  -4   49.97    1.78
  -1  -4  -4   51.02    1.82
  -1  -4  -4   51.13    1.33
  -1  -4  -4   52.52    1.65
   1   4   4   52.33    2.01
   1   4   4   46.60    1.63
   1   4   4   52.53    1.82
   1   4   4   50.28    1.70
   1   4   4   52.61    1.91
  -2  -4  -4  194.74    4.85
  -2  -4  -4  187.60    5.07
  -2  -4  -4  186.69    5.06
  -2  -4  -4  198.91    4.61
  -2  -4  -4  186.80    4.90
  -2  -4  -4  194.91    4.61
  -2  -4  -4  193.65    5.23
  -2  -4  -4  192.93    5.30
   2   4   4  192.06    5.06
   2   4   4  191.16    5.38
   2   4   4  192.92    5.08
   2   4   4  190.34    5.26
  -3  -4  -4   87.88    2.51
  -3  -4  -4   92.71    2.52
  -3  -4  -4   89.70    2.94
  -3  -4  -4   84.26    2.70
  -3  -4  -4   88.61    2.83
  -3  -4  -4   87.55    2.57
   3   4   4   82.57    2.93
   3   4   4   85.59    2.37
   3   4   4   91.98    3.06
   3   4   4   86.44    2.78
   3   4   4   92.14    2.78
  -4  -4  -4   41.91    1.90
  -4  -4  -4   39.90    1.63
  -4  -4  -4   44.76    2.00
  -4  -4  -4   41.49    1.73
  -4  -4  -4   43.76    1.82
  -4  -4  -4   45.16    1.68
   4   4   4   43.29    1.58
   4   4   4   43.62    1.89
   4   4   4   47.43    2.84
   4   4   4   45.40    2.02
   4   4   4   43.84    1.62
   4   4   4   43.99    1.75
  -5  -4  -4  120.90    3.99
  -5  -4  -4  123.41    3.76
  -5  -4  -4  123.39    3.79
   5   4   4  118.88    4.12
   5   4   4  117.70    3.71
   5   4   4  119.21    4.12
  -6  -4  -4    4.57    0.76
  -6  -4  -4    3.89    0.79
  -6  -4  -4    6.71    0.93
   6   4   4    5.88    1.00
   6   4   4    4.73    0.73
   6   4   4    3.14    0.70
   6   4   4    6.73    0.82
  -7  -4  -4   90.72    3.55
  -7  -4  -4   91.10    3.68
  -7  -4  -4   93.12    3.58
   7   4   4   86.45    3.79
   7   4   4   85.42    3.22
   7   4   4   93.70    3.86
   7   4   4   91.21    3.32
  -8  -4  -4    4.16    0.93
  -8  -4  -4    2.13    0.85
   8   4   4    2.33    0.88
   8   4   4    3.48    0.94
   8   4   4    3.80    1.20
   8   4   4    4.37    1.05
  -9  -4  -4   35.65    2.48
  -9  -4  -4   26.56    2.19
   9   4   4   31.42    1.93
   9   4   4   33.31    2.44
   9   4   4   31.78    2.54
   7  -5  -4    2.66    0.72
   7  -5  -4    2.42    0.76
   7  -5  -4    3.74    1.10
  -7   5   4    0.04    0.78
  -7   5   4    1.82    0.96
  -7   5   4    3.44    1.06
   6  -5  -4   65.30    2.82
   6  -5  -4   72.91    3.34
   6  -5  -4   67.98    2.67
  -6   5   4   69.92    3.72
  -6   5   4   71.54    3.41
   5  -5  -4    0.66    0.37
   5  -5  -4    0.14    0.36
   5  -5  -4    0.77    0.41
   5  -5  -4    0.65    0.73
   5  -5  -4    0.39    0.33
  -5   5   4   -0.31    0.51
  -5   5   4    0.31    0.65
  -5   5   4   -0.23    0.37
   4  -5  -4  134.24    4.23
   4  -5  -4  139.31    3.96
   4  -5  -4  133.20    4.44
   4  -5  -4  135.38    4.12
   4  -5  -4  136.86    4.49
  -4   5   4  132.52    4.53
  -4   5   4  135.39    4.91
  -4   5   4  140.52    4.74
  -4   5   4  135.86    4.45
   3  -5  -4   10.56    0.91
   3  -5  -4   12.17    0.81
   3  -5  -4   11.88    0.90
   3  -5  -4   11.48    0.93
  -3   5   4   12.11    1.17
  -3   5   4   10.87    0.94
  -3   5   4   11.89    0.82
  -3   5   4   12.24    0.94
  -3   5   4   12.15    1.04
   2  -5  -4  149.54    4.73
   2  -5  -4  178.16    5.58
   2  -5  -4  151.59    4.62
   2  -5  -4  163.77    4.27
   2  -5  -4  150.72    4.62
   2  -5  -4  158.10    4.42
  -2   5   4  160.04    4.40
  -2   5   4  151.35    5.11
  -2   5   4  154.87    4.31
  -2   5   4  153.18    4.26
  -2   5   4  156.02    4.52
   1  -5  -4   59.06    2.25
   1  -5  -4   60.87    2.23
   1  -5  -4   60.86    2.48
   1  -5  -4   63.46    2.14
   1  -5  -4   63.44    2.02
   1  -5  -4   62.89    2.00
   1  -5  -4   62.39    2.13
   1  -5  -4   64.50    1.97
  -1   5   4   65.41    1.98
  -1   5   4   61.94    2.03
  -1   5   4   62.81    1.92
  -1   5   4   61.18    2.30
  -1   5   4   63.28    2.14
   0  -5  -4   99.90    3.06
   0  -5  -4   93.02    3.10
   0  -5  -4   99.35    2.88
   0  -5  -4   94.78    2.95
   0  -5  -4   97.13    2.58
   0  -5  -4   96.37    2.96
   0  -5  -4  100.63    2.91
   0  -5  -4  100.88    2.59
   0  -5  -4   98.86    2.77
   0   5   4   98.12    2.41
   0   5   4   94.62    2.86
   0   5   4   99.02    2.91
   0   5   4   97.94    2.46
   0   5   4   98.92    3.06
  -1  -5  -4  178.34    4.62
  -1  -5  -4  181.42    5.12
  -1  -5  -4  171.53    4.77
  -1  -5  -4  180.77    4.86
  -1  -5  -4  181.37    4.77
  -1  -5  -4  182.34    4.84
  -1  -5  -4  180.67    4.76
   1   5   4  180.58    4.91
   1   5   4  182.52    4.88
   1   5   4  184.02    5.06
   1   5   4  180.25    4.86
   1   5   4  175.79    4.76
  -2  -5  -4   82.45    2.63
  -2  -5  -4   80.90    2.77
  -2  -5  -4   83.44    2.54
  -2  -5  -4   82.77    2.70
  -2  -5  -4   77.91    2.56
  -2  -5  -4   87.30    2.04
  -2  -5  -4   84.30    2.32
  -2  -5  -4   83.38    2.03
   2   5   4   85.91    2.90
   2   5   4   82.45    2.65
   2   5   4   83.28    2.65
   2   5   4   83.01    2.59
   2   5   4   86.29    2.79
  -3  -5  -4  177.39    5.08
  -3  -5  -4  176.65    4.96
  -3  -5  -4  185.81    4.86
  -3  -5  -4  180.36    4.51
  -3  -5  -4  178.47    5.12
  -3  -5  -4  181.06    4.90
  -3  -5  -4  182.66    4.38
  -3  -5  -4  182.26    4.51
   3   5   4  181.87    4.23
   3   5   4  185.65    5.22
   3   5   4  182.21    4.26
   3   5   4  183.85    4.83
   3   5   4  183.21    5.27
  -4  -5  -4   43.06    1.60
  -4  -5  -4   44.23    1.75
  -4  -5  -4   45.69    1.91
  -4  -5  -4   43.68    1.76
  -4  -5  -4   45.19    1.62
  -4  -5  -4   45.30    1.95
   4   5   4   44.28    2.07
   4   5   4   46.48    1.68
   4   5   4   42.59    1.49
   4   5   4   47.68    2.08
   4   5   4   43.77    2.14
   4   5   4   44.22    1.46
  -5  -5  -4   94.75    3.08
  -5  -5  -4   95.52    3.43
  -5  -5  -4   97.93    3.10
   5   5   4   93.53    3.51
   5   5   4   96.07    3.50
   5   5   4   92.68    2.88
   5   5   4   99.67    2.99
  -6  -5  -4   10.88    1.00
  -6  -5  -4   11.89    1.10
  -6  -5  -4   11.12    0.98
   6   5   4   10.09    0.80
   6   5   4   11.25    1.12
   6   5   4   10.63    1.10
  -7  -5  -4   54.92    2.73
  -7  -5  -4   58.12    2.60
  -7  -5  -4   52.23    2.50
   7   5   4   56.90    2.16
   7   5   4   54.64    2.87
   7   5   4   52.55    2.30
   7   5   4   61.57    2.99
  -8  -5  -4    0.43    0.68
  -8  -5  -4    0.53    0.54
  -8  -5  -4    0.87    0.61
   8   5   4    0.65    0.54
   8   5   4    0.98    0.62
   8   5   4    0.57    0.59
   8   5   4    1.29    0.54
  -9  -5  -4   36.94    2.36
  -9  -5  -4   27.85    2.26
   9   5   4   35.92    2.58
   9   5   4   30.54    1.66
   9   5   4   30.44    2.43
   7  -6  -4    0.83    0.60
   7  -6  -4    0.14    0.80
  -7   6   4    1.17    0.94
  -7   6   4    0.48    1.06
  -7   6   4    1.13    1.53
  -7   6   4   -0.61    0.97
   6  -6  -4   59.52    2.26
   6  -6  -4   60.20    3.16
   6  -6  -4   55.43    2.59
  -6   6   4   53.22    3.02
  -6   6   4   61.46    3.21
  -6   6   4   55.89    3.39
   5  -6  -4    8.28    1.43
   5  -6  -4    8.87    0.76
   5  -6  -4    9.14    1.05
  -5   6   4    7.46    1.19
  -5   6   4    8.86    1.26
   4  -6  -4   78.23    2.46
   4  -6  -4   81.39    3.02
   4  -6  -4   72.30    3.05
   4  -6  -4   75.28    3.12
   4  -6  -4   82.78    2.78
  -4   6   4   75.72    3.09
  -4   6   4   82.58    3.38
   3  -6  -4   50.58    2.23
   3  -6  -4   52.90    2.18
   3  -6  -4   51.25    2.22
   3  -6  -4   53.21    1.95
  -3   6   4   53.12    2.45
  -3   6   4   50.36    1.95
  -3   6   4   52.37    2.39
  -3   6   4   50.86    2.20
   2  -6  -4   85.67    2.91
   2  -6  -4   91.85    3.00
   2  -6  -4   91.26    2.66
   2  -6  -4   88.36    2.93
  -2   6   4   86.32    3.19
  -2   6   4   83.39    2.68
  -2   6   4   84.20    2.84
  -2   6   4   92.14    3.20
   1  -6  -4   88.39    3.11
   1  -6  -4   92.36    2.81
   1  -6  -4   92.78    2.81
   1  -6  -4   89.49    3.09
   1  -6  -4   92.39    2.66
   1  -6  -4   93.66    2.62
   1  -6  -4   86.22    3.08
   1  -6  -4   94.05    3.06
  -1   6   4   94.33    2.78
  -1   6   4   94.49    2.77
  -1   6   4   93.30    3.55
  -1   6   4   92.96    2.67
  -1   6   4   92.69    3.04
   0  -6  -4   31.18    1.21
   0  -6  -4   28.10    1.45
   0  -6  -4   32.65    1.48
   0  -6  -4   30.47    1.31
   0  -6  -4   31.53    1.43
   0  -6  -4   28.88    1.10
   0  -6  -4   29.42    1.10
   0  -6  -4   30.70    1.10
   0   6   4   27.57    1.35
   0   6   4   29.20    1.48
   0   6   4   29.76    0.94
  -1  -6  -4  174.14    4.76
  -1  -6  -4  175.70    4.66
  -1  -6  -4  184.13    4.29
  -1  -6  -4  179.88    4.29
  -1  -6  -4  176.27    4.70
  -1  -6  -4  179.90    4.94
  -1  -6  -4  179.70    5.14
  -1  -6  -4  177.46    4.91
   1   6   4  180.95    4.94
   1   6   4  184.06    5.05
   1   6   4  176.75    4.88
  -2  -6  -4    6.43    0.61
  -2  -6  -4    6.45    0.57
  -2  -6  -4    7.04    0.68
  -2  -6  -4    6.10    0.76
  -2  -6  -4    5.99    0.28
  -2  -6  -4    5.87    0.67
  -2  -6  -4    6.69    0.48
   2   6   4    7.51    0.65
   2   6   4    6.83    0.60
   2   6   4    7.06    0.66
   2   6   4    6.04    0.61
   2   6   4    6.40    0.66
  -3  -6  -4  125.97    3.79
  -3  -6  -4  124.93    3.18
  -3  -6  -4  120.68    3.85
  -3  -6  -4  122.72    3.84
  -3  -6  -4  126.39    3.87
  -3  -6  -4  121.25    3.57
  -3  -6  -4  128.72    3.21
   3   6   4  128.49    3.57
   3   6   4  131.32    4.04
   3   6   4  124.53    3.89
   3   6   4  122.75    3.90
  -4  -6  -4    0.58    0.25
  -4  -6  -4    0.91    0.35
  -4  -6  -4   -0.05    0.21
  -4  -6  -4    0.21    0.30
  -4  -6  -4    0.36    0.19
  -4  -6  -4    0.48    0.28
  -4  -6  -4    0.67    0.28
   4   6   4    0.41    0.33
   4   6   4    0.77    0.41
   4   6   4    0.53    0.39
   4   6   4    0.65    0.17
   4   6   4    0.71    0.24
   4   6   4    0.44    0.20
  -5  -6  -4   87.93    3.25
  -5  -6  -4   88.25    2.83
  -5  -6  -4   84.43    2.80
   5   6   4   84.42    3.33
   5   6   4   89.18    2.61
   5   6   4   89.26    2.63
  -6  -6  -4   -0.21    0.31
  -6  -6  -4   -0.04    0.23
  -6  -6  -4    0.58    0.46
   6   6   4    0.56    0.21
   6   6   4    0.59    0.43
   6   6   4    0.81    0.41
   6   6   4    0.69    0.30
  -7  -6  -4   48.31    2.31
  -7  -6  -4   50.54    2.62
  -7  -6  -4   48.66    2.32
   7   6   4   48.69    2.62
   7   6   4   50.02    1.73
   7   6   4   50.08    2.72
  -8  -6  -4    3.22    0.91
  -8  -6  -4    2.18    0.65
  -8  -6  -4    2.64    0.83
   8   6   4    3.39    0.98
   8   6   4    3.90    0.51
   8   6   4    2.60    0.69
   8   6   4    3.36    0.97
  -9  -6  -4   34.31    2.30
  -9  -6  -4   35.61    2.51
   9   6   4   31.30    2.53
   9   6   4   34.32    2.56
   6  -7  -4   19.48    1.56
   6  -7  -4   21.65    1.95
  -6   7   4   20.39    2.04
  -6   7   4   19.18    1.91
  -6   7   4   21.21    2.21
   5  -7  -4   47.74    2.69
   5  -7  -4   46.66    2.13
   5  -7  -4   48.18    1.65
  -5   7   4   49.50    2.80
  -5   7   4   48.64    2.70
  -5   7   4   54.17    2.92
   4  -7  -4   30.17    1.89
   4  -7  -4   25.73    1.40
   4  -7  -4   27.69    2.04
  -4   7   4   25.83    1.76
  -4   7   4   25.08    1.85
  -4   7   4   28.41    1.91
   3  -7  -4   60.52    2.16
   3  -7  -4   60.86    2.60
   3  -7  -4   66.46    2.69
   3  -7  -4   63.84    1.82
  -3   7   4   59.88    2.56
  -3   7   4   63.79    3.10
  -3   7   4   60.98    2.24
  -3   7   4   61.55    2.80
   2  -7  -4   14.78    1.06
   2  -7  -4   14.57    1.03
   2  -7  -4   14.26    0.79
   2  -7  -4   13.56    1.02
   2  -7  -4   14.24    0.65
  -2   7   4   11.89    0.82
  -2   7   4   14.82    1.23
  -2   7   4   13.29    1.30
   1  -7  -4  109.71    3.32
   1  -7  -4  111.41    3.49
   1  -7  -4  109.12    3.34
   1  -7  -4  110.86    2.97
  -1   7   4  106.11    3.15
  -1   7   4  109.19    3.30
  -1   7   4  111.52    3.66
  -1   7   4  105.44    3.70
   0  -7  -4   16.02    0.85
   0  -7  -4   17.84    1.31
   0  -7  -4   16.57    0.84
   0  -7  -4   15.90    0.79
   0  -7  -4   16.39    1.11
   0   7   4   15.34    0.68
   0   7   4   18.00    1.14
   0   7   4   16.70    1.15
  -1  -7  -4   93.92    2.77
  -1  -7  -4   90.83    2.53
  -1  -7  -4   95.62    2.54
  -1  -7  -4   91.97    3.04
  -1  -7  -4   87.26    3.11
  -1  -7  -4   91.50    3.06
  -1  -7  -4   88.86    2.81
   1   7   4   95.50    3.11
   1   7   4   88.04    3.14
   1   7   4   92.65    2.90
  -2  -7  -4    0.99    0.20
  -2  -7  -4    0.98    0.28
  -2  -7  -4    0.93    0.33
  -2  -7  -4    1.21    0.21
  -2  -7  -4    1.07    0.38
  -2  -7  -4    1.09    0.38
  -2  -7  -4    1.06    0.34
   2   7   4    0.43    0.27
   2   7   4    1.26    0.35
   2   7   4    0.46    0.24
   2   7   4    1.39    0.37
  -3  -7  -4  133.45    3.36
  -3  -7  -4  128.79    4.20
  -3  -7  -4  129.97    3.79
  -3  -7  -4  129.33    4.01
  -3  -7  -4  132.53    3.41
  -3  -7  -4  125.99    3.97
  -3  -7  -4  136.53    3.95
   3   7   4  130.87    4.47
   3   7   4  135.95    4.19
   3   7   4  130.55    4.10
  -4  -7  -4    0.78    0.32
  -4  -7  -4    0.78    0.21
  -4  -7  -4    0.51    0.22
  -4  -7  -4    0.95    0.31
  -4  -7  -4    0.57    0.28
  -4  -7  -4    0.71    0.33
   4   7   4    0.52    0.34
   4   7   4    0.97    0.42
   4   7   4    0.91    0.44
  -5  -7  -4  105.10    3.22
  -5  -7  -4  105.21    3.19
  -5  -7  -4  105.44    3.78
   5   7   4  106.59    3.85
   5   7   4  104.73    2.85
   5   7   4  102.03    2.94
   5   7   4  104.07    3.76
  -6  -7  -4   14.98    1.31
  -6  -7  -4   15.02    1.05
  -6  -7  -4   11.94    1.00
   6   7   4   12.56    0.85
   6   7   4   11.91    1.24
   6   7   4   12.83    1.25
  -7  -7  -4   65.61    3.10
  -7  -7  -4   68.11    2.75
  -7  -7  -4   64.39    2.70
   7   7   4   61.51    3.63
   7   7   4   62.15    3.03
  -8  -7  -4   17.58    1.68
  -8  -7  -4   16.21    1.55
  -8  -7  -4   16.09    1.40
   8   7   4   17.56    1.76
   8   7   4   17.49    1.41
   8   7   4   14.86    2.16
  -9  -7  -4   26.82    2.20
  -9  -7  -4   26.37    1.92
   9   7   4   22.06    2.11
   9   7   4   24.21    2.16
   6  -8  -4   25.23    2.47
  -6   8   4   20.77    2.31
  -6   8   4   22.58    2.51
   5  -8  -4   37.98    2.46
  -5   8   4   41.74    2.68
  -5   8   4   38.75    2.53
   4  -8  -4   12.74    1.51
   4  -8  -4   17.23    1.11
   4  -8  -4   17.97    1.53
  -4   8   4   16.64    1.53
  -4   8   4   16.47    1.57
  -4   8   4   15.84    1.58
   3  -8  -4   57.70    2.67
   3  -8  -4   55.78    2.59
   3  -8  -4   61.17    2.10
  -3   8   4   58.33    2.20
  -3   8   4   53.50    2.74
  -3   8   4   64.67    2.98
  -3   8   4   61.42    3.89
   2  -8  -4    4.41    0.49
   2  -8  -4    4.06    0.87
   2  -8  -4    5.11    0.80
  -2   8   4    4.39    0.86
  -2   8   4    3.09    0.87
  -2   8   4    4.47    0.62
   1  -8  -4   67.24    1.94
   1  -8  -4   65.52    2.42
   1  -8  -4   72.01    2.52
  -1   8   4   64.41    2.11
  -1   8   4   66.96    2.80
  -1   8   4   69.73    2.81
  -1   8   4   59.87    2.38
   0  -8  -4    2.83    0.30
   0  -8  -4    2.81    0.36
   0  -8  -4    2.55    0.61
   0  -8  -4    3.02    0.47
   0  -8  -4    2.69    0.47
   0   8   4    2.47    0.55
   0   8   4    2.66    0.58
   0   8   4    3.36    0.60
  -1  -8  -4  141.86    3.98
  -1  -8  -4  146.43    4.52
  -1  -8  -4  146.99    4.00
  -1  -8  -4  148.11    3.92
  -1  -8  -4  148.90    3.66
   1   8   4  149.26    4.20
   1   8   4  140.80    4.61
   1   8   4  146.18    4.56
  -2  -8  -4    1.45    0.32
  -2  -8  -4    1.38    0.45
  -2  -8  -4    1.51    0.31
  -2  -8  -4    1.96    0.44
  -2  -8  -4    1.40    0.26
  -2  -8  -4    0.80    0.33
   2   8   4    1.83    0.54
   2   8   4    0.47    0.32
   2   8   4    0.96    0.33
  -3  -8  -4  131.53    3.86
  -3  -8  -4  113.24    3.86
  -3  -8  -4  126.28    3.54
  -3  -8  -4  131.79    3.83
  -3  -8  -4  134.31    4.47
  -3  -8  -4  127.72    3.49
   3   8   4  131.74    3.98
   3   8   4  126.83    4.20
   3   8   4  134.72    4.12
  -4  -8  -4    9.81    1.21
  -4  -8  -4   10.12    0.69
  -4  -8  -4    9.27    1.08
  -4  -8  -4    9.87    0.76
  -4  -8  -4    8.65    0.70
  -4  -8  -4    9.46    0.62
   4   8   4   10.76    0.98
   4   8   4    9.98    0.90
   4   8   4   10.43    1.02
  -5  -8  -4   75.87    2.46
  -5  -8  -4   75.15    2.47
  -5  -8  -4   74.20    3.13
   5   8   4   74.10    1.99
   5   8   4   77.14    3.15
  -6  -8  -4   35.66    1.67
  -6  -8  -4   35.26    2.12
  -6  -8  -4   35.09    1.67
   6   8   4   37.02    2.19
   6   8   4   29.15    1.89
   6   8   4   33.41    1.33
  -7  -8  -4   34.26    2.24
  -7  -8  -4   36.42    2.12
  -7  -8  -4   36.88    1.96
   7   8   4   42.74    2.43
   7   8   4   38.99    1.65
   7   8   4   37.64    2.36
  -8  -8  -4   54.87    3.03
  -8  -8  -4   51.13    2.54
   8   8   4   58.88    3.22
   8   8   4   53.31    3.01
  -9  -8  -4   13.39    1.76
  -9  -8  -4   13.55    1.46
   9   8   4   14.45    2.00
   9   8   4   13.50    1.87
   5  -9  -4    9.20    1.51
  -5   9   4   14.38    1.82
  -5   9   4   11.05    1.73
   4  -9  -4    0.04    0.51
  -4   9   4    0.57    0.80
  -4   9   4   -0.77    0.61
  -4   9   4    1.21    0.81
   3  -9  -4   43.19    2.36
   3  -9  -4   43.47    2.35
  -3   9   4   45.16    2.57
  -3   9   4   44.76    2.57
  -3   9   4   49.25    2.70
  -3   9   4   41.92    2.49
   2  -9  -4    0.08    0.34
   2  -9  -4   -0.05    0.38
  -2   9   4    0.47    0.41
  -2   9   4   -0.41    0.45
  -2   9   4    0.81    0.56
  -2   9   4    0.60    0.45
   1  -9  -4   67.17    1.83
   1  -9  -4   67.59    2.58
   1  -9  -4   63.33    2.57
  -1   9   4   70.49    3.03
  -1   9   4   67.69    2.70
  -1   9   4   69.75    3.06
   0  -9  -4   11.53    0.87
   0  -9  -4   11.53    0.91
   0  -9  -4    9.57    1.04
   0   9   4   11.62    0.90
   0   9   4   11.15    1.10
  -1  -9  -4   99.90    2.95
  -1  -9  -4   90.53    3.31
  -1  -9  -4   87.76    2.75
  -1  -9  -4   97.91    3.07
   1   9   4   99.45    3.57
   1   9   4   97.76    3.63
   1   9   4   94.82    2.43
  -2  -9  -4   50.60    2.02
  -2  -9  -4   42.99    1.76
  -2  -9  -4   45.04    1.84
  -2  -9  -4   48.26    1.46
  -2  -9  -4   50.11    1.54
  -2  -9  -4   46.65    1.69
   2   9   4   46.63    2.29
   2   9   4   48.05    2.28
   2   9   4   47.27    1.94
  -3  -9  -4  104.54    3.16
  -3  -9  -4  107.24    3.06
  -3  -9  -4  110.30    3.53
  -3  -9  -4  109.41    2.94
  -3  -9  -4  101.96    4.01
  -3  -9  -4  104.59    3.29
  -3  -9  -4  104.97    3.42
   3   9   4  108.06    3.66
   3   9   4  109.19    3.90
  -4  -9  -4   54.89    2.08
  -4  -9  -4   55.35    2.11
  -4  -9  -4   56.06    2.72
  -4  -9  -4   53.91    1.87
  -4  -9  -4   53.13    2.08
  -4  -9  -4   52.89    2.03
   4   9   4   57.25    2.48
   4   9   4   58.66    2.30
   4   9   4   52.99    2.60
  -5  -9  -4   62.54    2.21
  -5  -9  -4   66.87    3.03
  -5  -9  -4   60.90    2.45
  -5  -9  -4   63.89    2.24
   5   9   4   64.65    2.73
   5   9   4   63.83    2.87
   5   9   4   64.89    2.95
  -6  -9  -4   62.36    2.36
  -6  -9  -4   57.68    2.96
  -6  -9  -4   62.05    2.39
   6   9   4   64.16    3.11
   6   9   4   58.68    1.79
   6   9   4   61.58    2.84
  -7  -9  -4   26.10    1.53
  -7  -9  -4   26.15    1.98
  -7  -9  -4   24.74    1.53
   7   9   4   21.22    1.16
   7   9   4   24.88    1.84
   7   9   4   26.08    1.98
  -8  -9  -4   64.82    3.44
  -8  -9  -4   60.89    2.78
   8   9   4   64.42    3.43
   8   9   4   64.70    3.28
  -9  -9  -4    6.01    1.07
  -9  -9  -4    5.12    1.27
   9   9   4    5.90    1.29
   9   9   4    4.16    1.31
   4 -10  -4    1.03    0.72
  -4  10   4    2.52    1.02
  -4  10   4    2.05    0.95
   3 -10  -4   50.56    2.65
  -3  10   4   48.97    2.87
  -3  10   4   46.18    2.63
  -3  10   4   39.19    2.59
   2 -10  -4    1.73    0.63
   2 -10  -4    3.27    0.75
  -2  10   4    2.79    0.80
  -2  10   4    3.22    0.88
   1 -10  -4   74.12    2.92
   1 -10  -4   78.25    3.09
  -1  10   4   77.97    3.20
  -1  10   4   79.09    3.49
  -1  10   4   74.55    3.35
   0 -10  -4    4.70    0.77
   0 -10  -4    5.10    0.71
   0 -10  -4    4.43    0.86
   0  10   4    4.22    0.66
   0  10   4    5.98    0.98
   0  10   4    4.75    0.99
  -1 -10  -4   53.30    2.05
  -1 -10  -4   55.94    2.25
   1  10   4   49.71    2.58
   1  10   4   56.97    2.65
   1  10   4   50.81    1.61
  -2 -10  -4   41.39    1.87
  -2 -10  -4   44.21    1.95
  -2 -10  -4   48.78    2.10
   2  10   4   44.50    2.34
   2  10   4   47.76    2.43
   2  10   4   48.48    1.95
  -3 -10  -4   70.53    2.38
  -3 -10  -4   65.80    2.34
  -3 -10  -4   66.52    3.25
  -3 -10  -4   66.05    1.93
  -3 -10  -4   70.29    2.37
   3  10   4   68.38    2.71
   3  10   4   69.18    3.06
  -4 -10  -4   88.68    2.87
  -4 -10  -4   91.12    2.81
  -4 -10  -4   84.76    2.97
  -4 -10  -4   86.52    2.63
  -4 -10  -4   88.67    3.00
  -4 -10  -4   89.31    3.85
   4  10   4   91.43    3.70
   4  10   4   91.04    3.40
  -5 -10  -4   43.40    2.52
  -5 -10  -4   42.15    1.72
  -5 -10  -4   39.44    1.68
  -5 -10  -4   40.56    1.87
   5  10   4   41.33    1.97
   5  10   4   40.71    2.36
   5  10   4   38.07    2.19
  -6 -10  -4   95.03    3.17
  -6 -10  -4   86.54    3.19
  -6 -10  -4   95.84    4.65
   6  10   4   94.67    3.59
   6  10   4   95.56    3.94
  -7 -10  -4    3.07    0.82
  -7 -10  -4    4.51    0.84
  -7 -10  -4    4.18    0.75
   7  10   4    5.92    1.18
   7  10   4    6.29    1.17
  -8 -10  -4   67.74    2.97
  -8 -10  -4   68.31    3.61
   8  10   4   70.42    3.67
   8  10   4   66.60    3.42
  -9 -10  -4    2.71    0.82
   9  10   4   -0.07    1.02
   9  10   4    2.29    1.03
   3 -11  -4   27.69    2.12
  -3  11   4   30.34    2.28
  -3  11   4   29.26    2.41
   2 -11  -4   12.07    1.50
  -2  11   4   12.13    1.61
  -2  11   4   15.88    1.93
   1 -11  -4   42.78    2.29
   1 -11  -4   37.26    2.12
  -1  11   4   41.90    2.52
  -1  11   4   44.63    2.68
  -1  11   4   40.74    2.89
   0 -11  -4   26.65    1.71
   0 -11  -4   25.54    1.58
   0  11   4   26.14    1.50
   0  11   4   31.28    2.07
   0  11   4   26.56    1.98
  -1 -11  -4   36.05    1.89
  -1 -11  -4   34.45    1.92
  -1 -11  -4   36.18    1.72
   1  11   4   35.24    1.33
   1  11   4   41.35    2.33
   1  11   4   38.63    3.38
  -2 -11  -4   42.50    2.04
  -2 -11  -4   37.86    1.74
  -2 -11  -4   43.18    1.90
   2  11   4   47.13    2.50
   2  11   4   39.16    2.34
   2  11   4   42.54    1.85
  -3 -11  -4    5.53    0.71
  -3 -11  -4    5.34    1.22
  -3 -11  -4    4.64    0.69
  -3 -11  -4    3.03    0.57
   3  11   4    4.28    0.95
   3  11   4    4.35    0.72
  -4 -11  -4  103.88    2.91
  -4 -11  -4  108.88    3.37
  -4 -11  -4  119.87    4.74
  -4 -11  -4  102.55    3.51
  -4 -11  -4  104.89    3.13
   4  11   4  104.04    3.84
   4  11   4  103.77    4.22
  -5 -11  -4   -0.53    0.39
  -5 -11  -4   -0.61    0.59
  -5 -11  -4   -0.23    0.38
  -5 -11  -4   -0.08    0.32
  -5 -11  -4    0.41    0.77
   5  11   4    0.16    0.54
   5  11   4   -0.46    0.41
  -6 -11  -4   91.08    3.87
  -6 -11  -4  106.59    4.49
  -6 -11  -4  100.78    3.30
  -6 -11  -4   87.46    2.74
   6  11   4   97.68    4.26
  -7 -11  -4    6.04    1.35
  -7 -11  -4    5.20    0.83
  -7 -11  -4    4.76    1.14
   7  11   4    3.86    0.86
   7  11   4    3.62    0.98
  -8 -11  -4   50.22    2.45
  -8 -11  -4   51.39    3.23
   8  11   4   48.12    3.04
   8  11   4   49.16    2.88
   2 -12  -4   19.86    1.84
  -2  12   4   27.28    2.21
  -2  12   4   30.00    2.48
   1 -12  -4   22.98    1.81
  -1  12   4   21.86    2.00
   0 -12  -4   48.50    3.54
   0 -12  -4   55.79    2.78
   0  12   4   46.94    2.87
   0  12   4   54.99    3.08
  -1 -12  -4    7.02    1.07
  -1 -12  -4    8.12    1.15
  -1 -12  -4    6.86    0.88
   1  12   4    6.96    1.23
   1  12   4    5.43    1.08
  -2 -12  -4   88.00    3.45
  -2 -12  -4   84.18    2.76
  -2 -12  -4   87.95    3.10
   2  12   4   86.74    3.88
  -3 -12  -4    0.78    0.37
  -3 -12  -4   -0.72    0.69
  -3 -12  -4   -0.20    0.42
  -3 -12  -4    0.59    0.39
   3  12   4   -0.23    0.47
  -4 -12  -4  110.09    4.84
  -4 -12  -4  102.49    3.48
   4  12   4  103.99    4.42
   4  12   4  107.06    3.89
  -5 -12  -4   13.65    1.89
  -5 -12  -4   11.21    0.96
   5  12   4   11.56    1.46
   5  12   4   12.72    1.70
  -6 -12  -4   85.85    3.02
  -6 -12  -4   70.58    3.18
  -6 -12  -4   87.15    4.19
   6  12   4   75.96    3.59
   6  12   4   77.96    3.93
  -7 -12  -4   19.61    2.31
  -7 -12  -4   19.79    1.42
   7  12   4   19.43    1.57
   7  12   4   20.60    1.96
  -8 -12  -4   22.69    4.00
   8  12   4   22.39    2.06
   8  12   4   25.81    2.32
   1 -13  -4    2.31    0.99
  -1  13   4    2.55    1.00
  -1  13   4    3.57    1.43
   0 -13  -4   54.75    3.02
   0  13   4   62.52    3.44
   0  13   4   57.92    3.20
  -1 -13  -4    1.84    0.76
   1  13   4    1.17    0.79
   1  13   4    1.58    1.01
  -2 -13  -4   77.81    3.35
   2  13   4   78.43    4.31
  -3 -13  -4   10.01    1.82
  -3 -13  -4   10.47    1.10
  -3 -13  -4    8.51    1.16
   3  13   4   11.56    1.32
   3  13   4    9.83    1.58
  -4 -13  -4   61.19    3.69
  -4 -13  -4   59.89    2.52
   4  13   4   55.92    2.67
   4  13   4   67.88    4.00
  -5 -13  -4   27.10    2.46
  -5 -13  -4   22.21    1.42
   5  13   4   28.49    2.29
   5  13   4   24.94    1.90
  -6 -13  -4   28.75    1.68
  -6 -13  -4   29.51    2.60
   6  13   4   27.69    2.17
   6  13   4   31.18    2.55
  -7 -13  -4   32.92    1.87
   7  13   4   33.94    2.60
  -1 -14  -4    2.76    1.32
   1  14   4    4.07    1.15
  -2 -14  -4   31.90    2.13
   2  14   4   35.79    2.70
  -3 -14  -4   30.67    2.87
  -3 -14  -4   29.52    1.93
   3  14   4   30.82    2.53
  -4 -14  -4   22.94    2.80
  -4 -14  -4   23.60    1.64
   4  14   4   26.24    1.89
   4  14   4   23.78    2.14
  -5 -14  -4   49.50    2.32
   5  14   4   50.93    3.31
   5  14   4   52.46    3.27
  -6 -14  -4    5.60    1.44
  -6 -14  -4    8.04    1.61
   6  14   4    7.38    1.59
   6  14   4    5.87    1.26
   6   9  -5   24.12    2.00
   6   9  -5   20.26    1.71
   6   9  -5   21.77    2.21
  -6  -9   5   20.88    2.86
  -6  -9   5   26.19    2.39
   5   9  -5   39.66    2.47
   5   9  -5   38.47    1.95
   5   9  -5   41.33    2.73
   5   9  -5   43.99    3.15
  -5  -9   5   40.44    2.75
  -5  -9   5   40.84    2.08
  -5  -9   5   42.12    3.03
   4   9  -5    6.90    1.17
   4   9  -5    7.18    1.35
   4   9  -5    4.90    1.41
  -4  -9   5    9.32    1.59
  -4  -9   5    5.10    1.09
  -4  -9   5    8.80    1.54
   3   9  -5   61.73    3.02
   3   9  -5   57.24    3.43
   3   9  -5   64.42    3.21
  -3  -9   5   64.28    3.64
  -3  -9   5   51.43    3.32
  -3  -9   5   63.34    3.38
   2   9  -5    0.23    0.68
   2   9  -5    0.58    0.69
   2   9  -5    1.71    0.87
  -2  -9   5    1.02    0.86
  -2  -9   5    0.74    0.77
  -2  -9   5    0.50    0.79
   1   9  -5   54.03    3.37
   1   9  -5   56.99    3.08
  -1  -9   5   57.16    3.47
  -1  -9   5   45.39    2.98
   0   9  -5    0.81    0.82
   0   9  -5    0.05    1.36
   0  -9   5    1.65    1.07
   7   8  -5   47.51    2.59
   7   8  -5   51.96    3.28
   7   8  -5   49.03    4.18
  -7  -8   5   57.69    3.39
  -7  -8   5   48.01    3.75
   6   8  -5    5.24    1.24
   6   8  -5    9.10    1.18
   6   8  -5    7.83    1.52
  -6  -8   5   10.36    1.68
  -6  -8   5    8.83    1.57
   5   8  -5   61.33    2.92
   5   8  -5   59.95    3.27
   5   8  -5   61.72    3.49
   5   8  -5   58.34    2.50
  -5  -8   5   67.25    3.44
  -5  -8   5   63.52    2.87
  -5  -8   5   59.34    3.52
   4   8  -5    3.83    1.00
   4   8  -5    4.05    0.86
   4   8  -5    3.86    0.68
  -4  -8   5    2.26    0.92
  -4  -8   5    3.24    0.97
  -4  -8   5    4.21    0.85
   3   8  -5   49.24    3.06
   3   8  -5   45.86    1.86
   3   8  -5   48.97    2.54
  -3  -8   5   45.41    2.75
  -3  -8   5   54.69    3.20
  -3  -8   5   49.17    2.57
   2   8  -5    0.22    0.56
   2   8  -5   -0.15    0.37
   2   8  -5   -0.41    0.69
  -2  -8   5   -0.54    0.52
  -2  -8   5    0.10    0.63
  -2  -8   5   -0.07    0.73
   1   8  -5   46.74    2.63
   1   8  -5   50.15    3.07
   1   8  -5   42.89    1.59
  -1  -8   5   50.83    3.09
   0   8  -5    1.21    0.44
   0   8  -5    2.21    0.98
   0   8  -5    2.52    0.86
   0  -8   5    2.00    0.95
  -1   8  -5   26.38    2.55
  -1   8  -5   28.92    2.29
   1  -8   5   27.88    2.51
  -2   8  -5    5.42    1.70
  -2   8  -5    4.74    1.14
   2  -8   5    6.41    1.58
   8   7  -5    8.97    2.25
   8   7  -5    7.05    1.50
   8   7  -5    9.60    1.37
  -8  -7   5   10.10    2.65
   7   7  -5   45.13    2.52
   7   7  -5   46.54    2.89
   7   7  -5   49.32    3.13
  -7  -7   5   53.25    3.28
  -7  -7   5   47.71    3.01
   6   7  -5    1.03    0.64
   6   7  -5    1.34    0.84
   6   7  -5    1.03    0.75
  -6  -7   5    0.69    0.80
  -6  -7   5    1.14    0.80
   5   7  -5   51.81    2.31
   5   7  -5   50.77    2.52
   5   7  -5   52.81    2.98
  -5  -7   5   52.03    2.16
  -5  -7   5   56.88    3.01
  -5  -7   5   52.02    3.09
   4   7  -5    5.42    0.81
   4   7  -5    3.45    0.93
  -4  -7   5    5.19    1.07
  -4  -7   5    4.65    0.81
  -4  -7   5    5.97    1.20
   3   7  -5   61.37    3.32
  -3  -7   5   68.45    3.25
  -3  -7   5   67.42    2.93
  -3  -7   5   79.75    5.11
   2   7  -5    6.89    1.09
   2   7  -5    7.75    0.76
  -2  -7   5    6.68    1.21
  -2  -7   5   10.35    1.38
  -2  -7   5    7.56    1.19
   1   7  -5   50.03    2.55
   1   7  -5   47.42    1.81
   1   7  -5   47.32    2.83
  -1  -7   5   47.99    3.72
   0   7  -5    8.34    0.80
   0   7  -5    9.71    1.60
   0   7  -5    8.62    1.13
   0   7  -5   11.08    1.36
   0  -7   5    9.74    0.77
   0  -7   5    7.43    1.39
  -1   7  -5   26.04    1.35
  -1   7  -5   25.13    1.96
  -1   7  -5   25.45    2.28
   1  -7   5   28.71    2.38
   1  -7   5   26.39    1.49
  -2   7  -5   13.14    1.74
  -2   7  -5   10.89    1.78
   2  -7   5   14.53    2.08
   2  -7   5   14.00    1.32
  -3   7  -5   12.11    1.72
  -3   7  -5    8.61    2.01
  -3   7  -5   13.20    1.28
   3  -7   5   11.94    1.41
   3  -7   5   12.01    1.86
   8   6  -5    0.01    0.77
   8   6  -5    1.15    0.92
   8   6  -5   -1.98    0.89
   8   6  -5   -0.31    0.69
  -8  -6   5    0.26    0.82
  -8  -6   5   -0.32    0.78
   7   6  -5   48.81    2.90
   7   6  -5   46.47    3.02
   7   6  -5   48.58    2.56
  -7  -6   5   45.41    2.98
  -7  -6   5   49.29    3.09
   6   6  -5    1.04    0.74
   6   6  -5    0.13    0.69
   6   6  -5    0.55    0.69
   6   6  -5    1.28    0.58
  -6  -6   5    1.06    0.74
  -6  -6   5    0.84    0.65
   5   6  -5   54.60    2.42
   5   6  -5   55.09    2.99
   5   6  -5   51.51    1.84
   5   6  -5   58.13    2.56
  -5  -6   5   55.89    2.14
  -5  -6   5   61.70    3.01
  -5  -6   5   58.79    3.17
   4   6  -5   12.81    1.17
   4   6  -5   11.16    1.03
  -4  -6   5   16.73    1.50
  -4  -6   5   15.46    1.16
  -4  -6   5   16.24    1.65
   3   6  -5   58.62    2.26
   3   6  -5   52.18    2.92
   3   6  -5   59.86    2.53
  -3  -6   5   56.44    3.03
  -3  -6   5   59.28    2.57
  -3  -6   5   53.54    2.72
   2   6  -5   33.11    1.52
   2   6  -5   31.63    1.82
  -2  -6   5   32.82    1.93
  -2  -6   5   32.28    1.98
  -2  -6   5   34.47    2.25
   1   6  -5   47.51    3.84
   1   6  -5   48.80    2.63
   1   6  -5   46.97    1.88
  -1  -6   5   49.46    2.78
   0   6  -5   33.31    2.26
   0   6  -5   31.90    1.83
   0   6  -5   35.63    2.02
   0   6  -5   32.53    1.51
   0  -6   5   35.50    2.33
   0  -6   5   31.68    1.44
  -1   6  -5   26.21    1.39
  -1   6  -5   25.17    1.83
  -1   6  -5   28.99    2.12
   1  -6   5   23.32    2.04
   1  -6   5   23.32    1.41
  -2   6  -5   37.97    2.69
  -2   6  -5   32.98    2.28
   2  -6   5   29.58    1.80
  -3   6  -5    6.72    1.50
  -3   6  -5    6.67    1.28
  -3   6  -5    6.10    0.94
   3  -6   5    7.33    1.17
   3  -6   5    6.67    1.27
  -4   6  -5   32.30    2.08
  -4   6  -5   32.45    2.92
  -4   6  -5   34.98    2.64
  -4   6  -5   29.46    1.73
   4  -6   5   33.81    2.62
   4  -6   5   30.56    2.15
   8   5  -5    5.67    1.39
   8   5  -5    3.61    1.24
   8   5  -5    2.49    0.83
  -8  -5   5    3.27    1.14
  -8  -5   5    2.80    1.05
   7   5  -5   34.73    2.45
   7   5  -5   37.22    2.20
   7   5  -5   39.88    2.68
  -7  -5   5   37.97    2.61
  -7  -5   5   36.32    2.55
   6   5  -5   12.15    1.19
   6   5  -5   16.14    1.58
   6   5  -5   14.20    1.47
   6   5  -5   14.18    1.25
  -6  -5   5   12.27    1.59
  -6  -5   5   13.71    1.67
   5   5  -5   42.65    2.41
   5   5  -5   40.31    1.74
   5   5  -5   37.11    1.95
  -5  -5   5   43.82    2.43
  -5  -5   5   43.70    1.72
  -5  -5   5   42.13    2.56
   4   5  -5   18.23    1.56
   4   5  -5   16.52    1.18
   4   5  -5   15.11    1.09
   4   5  -5   13.84    0.85
  -4  -5   5   15.22    1.49
  -4  -5   5   15.22    1.06
  -4  -5   5   17.17    1.40
   3   5  -5   21.88    0.87
   3   5  -5   22.91    1.37
   3   5  -5   21.02    1.73
   3   5  -5   22.64    1.29
  -3  -5   5   20.99    1.65
  -3  -5   5   22.71    1.51
   2   5  -5   54.94    2.15
   2   5  -5   58.38    2.40
   2   5  -5   60.74    2.94
  -2  -5   5   60.98    2.61
  -2  -5   5   54.74    2.56
  -2  -5   5   57.29    2.84
   1   5  -5   29.36    1.42
   1   5  -5   31.12    2.37
   1   5  -5   27.66    1.62
  -1  -5   5   33.68    2.10
   0   5  -5   92.38    3.45
   0   5  -5   90.14    2.98
   0  -5   5   90.90    3.83
   0  -5   5   87.96    3.09
   0  -5   5   89.45    2.91
  -1   5  -5   18.48    1.38
  -1   5  -5   18.96    1.71
  -1   5  -5   20.34    1.19
  -1   5  -5   21.15    1.74
   1  -5   5   18.35    1.24
   1  -5   5   18.69    1.28
   1  -5   5   20.03    1.77
  -2   5  -5   82.27    3.82
  -2   5  -5   79.15    3.45
  -2   5  -5   73.25    2.78
   2  -5   5   82.84    3.73
   2  -5   5   77.45    2.99
   2  -5   5   75.84    2.79
  -3   5  -5    3.06    1.03
  -3   5  -5    1.90    0.75
  -3   5  -5    3.20    0.74
  -3   5  -5    3.68    0.66
   3  -5   5    2.77    0.90
   3  -5   5    3.11    0.78
  -4   5  -5   46.07    2.03
  -4   5  -5   51.46    4.08
  -4   5  -5   53.72    3.10
   4  -5   5   45.61    2.96
   4  -5   5   48.90    3.72
  -5   5  -5    2.65    1.12
  -5   5  -5    2.38    0.76
  -5   5  -5    0.12    1.05
   5  -5   5    1.56    0.98
   5  -5   5    1.48    0.99
   9   4  -5   19.76    2.98
   9   4  -5   13.67    1.94
   9   4  -5   15.92    2.11
  -9  -4   5   17.38    2.15
   8   4  -5   20.25    2.02
   8   4  -5   18.12    1.82
   8   4  -5   17.63    1.65
  -8  -4   5   19.58    1.99
  -8  -4   5   21.49    2.10
   7   4  -5   30.96    2.29
   7   4  -5   26.49    1.85
   7   4  -5   29.91    2.12
  -7  -4   5   32.20    2.31
  -7  -4   5   27.17    2.32
   6   4  -5   59.14    2.62
   6   4  -5   58.40    2.90
  -6  -4   5   59.76    3.08
  -6  -4   5   53.46    2.85
   5   4  -5   59.20    2.51
   5   4  -5   62.01    2.90
   5   4  -5   60.47    2.61
  -5  -4   5   62.38    2.89
  -5  -4   5   58.34    2.07
  -5  -4   5   60.51    3.00
   4   4  -5   85.18    2.99
   4   4  -5   86.92    2.83
   4   4  -5   88.02    3.11
   4   4  -5   88.57    3.62
  -4  -4   5   92.21    3.47
  -4  -4   5   89.76    3.70
  -4  -4   5   88.01    2.96
   3   4  -5   75.22    2.38
   3   4  -5   77.57    3.26
   3   4  -5   74.48    2.98
   3   4  -5   75.24    2.64
  -3  -4   5   74.28    3.24
  -3  -4   5   78.42    3.39
  -3  -4   5   74.18    2.78
   2   4  -5   89.19    3.59
   2   4  -5   91.41    2.96
   2   4  -5   84.81    2.55
   2   4  -5   86.40    2.94
  -2  -4   5   84.93    2.95
  -2  -4   5   90.02    3.58
  -2  -4   5   83.31    3.56
  -2  -4   5   86.84    3.03
   1   4  -5    6.87    0.61
   1   4  -5    6.32    0.74
   1   4  -5    6.19    0.98
   1   4  -5    6.85    0.86
  -1  -4   5    7.42    0.73
  -1  -4   5    7.05    1.08
  -1  -4   5    7.22    0.97
   0   4  -5  159.84    6.83
   0   4  -5  147.46    4.25
   0   4  -5  139.80    4.49
   0  -4   5  135.90    4.09
   0  -4   5  145.14    5.00
   0  -4   5  138.68    4.15
  -1   4  -5   -0.39    0.39
  -1   4  -5    0.47    0.56
  -1   4  -5   -0.09    0.36
  -1   4  -5   -0.06    0.31
   1  -4   5   -0.41    0.31
   1  -4   5    0.34    0.39
   1  -4   5    0.54    0.33
  -2   4  -5  110.10    4.17
  -2   4  -5  113.68    3.74
  -2   4  -5  112.26    4.47
   2  -4   5  114.43    4.32
   2  -4   5  108.65    3.40
   2  -4   5  108.12    3.83
  -3   4  -5    8.52    1.00
  -3   4  -5    8.31    0.78
  -3   4  -5    9.29    1.50
  -3   4  -5    8.12    1.25
   3  -4   5   10.95    1.51
   3  -4   5    9.41    1.18
  -4   4  -5   60.35    3.37
  -4   4  -5   54.95    2.41
  -4   4  -5   65.25    3.33
   4  -4   5   65.92    3.35
   4  -4   5   61.92    2.93
  -5   4  -5   12.21    1.74
  -5   4  -5   16.57    1.15
   5  -4   5   17.29    1.71
  -6   4  -5   17.85    2.30
  -6   4  -5   19.39    1.79
   6  -4   5   22.86    2.10
   6  -4   5   15.89    2.10
   9   3  -5   16.86    3.47
   9   3  -5   24.66    3.12
   9   3  -5   17.26    1.35
  -9  -3   5   15.84    2.17
  -9  -3   5   17.17    2.13
   8   3  -5   18.45    1.89
   8   3  -5   19.91    1.74
   8   3  -5   18.68    1.93
  -8  -3   5   18.93    1.99
  -8  -3   5   21.11    2.05
   7   3  -5   30.40    2.22
   7   3  -5   28.21    2.05
   7   3  -5   27.86    2.15
  -7  -3   5   27.90    3.69
  -7  -3   5   26.15    2.09
   6   3  -5   64.75    3.05
   6   3  -5   64.86    2.79
  -6  -3   5   65.85    3.14
  -6  -3   5   65.49    3.15
   5   3  -5   43.18    2.32
   5   3  -5   42.91    2.07
  -5  -3   5   45.59    2.34
  -5  -3   5   43.61    1.65
  -5  -3   5   50.14    2.53
   4   3  -5  135.51    4.26
   4   3  -5  134.48    4.07
   4   3  -5  134.24    4.70
  -4  -3   5  141.91    4.82
  -4  -3   5  133.66    3.99
  -4  -3   5  144.65    4.58
   3   3  -5   29.57    1.34
   3   3  -5   27.17    1.29
  -3  -3   5   27.63    1.74
  -3  -3   5   29.65    1.49
  -3  -3   5   29.73    1.25
  -3  -3   5   33.21    1.66
  -3  -3   5   29.36    1.83
  -3  -3   5   28.51    1.46
   2   3  -5  142.27    4.80
   2   3  -5  142.57    4.05
   2   3  -5  152.39    5.22
   2   3  -5  145.19    4.24
   2   3  -5  142.03    3.99
  -2  -3   5  139.09    4.41
  -2  -3   5  146.87    4.38
  -2  -3   5  137.03    4.74
  -2  -3   5  141.49    4.24
  -2  -3   5  143.39    4.79
   1   3  -5    1.15    0.34
   1   3  -5    1.16    0.49
   1   3  -5    1.07    0.41
   1   3  -5    0.94    0.30
   1   3  -5    1.45    0.51
  -1  -3   5    0.88    0.36
  -1  -3   5    1.21    0.45
  -1  -3   5    1.56    0.43
  -1  -3   5    0.00    0.41
  -1  -3   5    1.14    0.35
  -1  -3   5    1.16    0.32
   0   3  -5  163.48    4.62
   0   3  -5  147.75    5.03
   0   3  -5  159.38    5.25
   0   3  -5  162.26    4.71
   0   3  -5  157.98    4.47
   0  -3   5  159.12    4.35
   0  -3   5  153.97    5.19
   0  -3   5  162.18    5.20
   0  -3   5  162.10    4.58
  -1   3  -5   16.48    1.19
  -1   3  -5   18.45    1.51
  -1   3  -5   16.70    1.09
   1  -3   5   17.75    1.25
   1  -3   5   18.69    1.20
   1  -3   5   16.39    1.33
   1  -3   5   15.97    0.92
  -2   3  -5  146.53    5.09
  -2   3  -5  164.18    5.18
  -2   3  -5  175.11    5.62
  -2   3  -5  159.32    5.18
   2  -3   5  159.46    5.91
   2  -3   5  158.18    4.35
   2  -3   5  158.31    4.95
  -3   3  -5   25.33    1.15
  -3   3  -5   26.92    1.94
  -3   3  -5   22.74    1.41
   3  -3   5   25.87    1.78
   3  -3   5   26.68    1.65
  -4   3  -5   58.04    2.04
  -4   3  -5   57.82    3.05
  -4   3  -5   55.10    2.54
   4  -3   5   56.96    2.88
   4  -3   5   60.09    2.82
  -5   3  -5   27.03    2.09
   5  -3   5   26.81    2.15
   5  -3   5   31.16    2.11
  -6   3  -5    9.98    1.03
  -6   3  -5    9.58    1.65
   6  -3   5   10.89    1.63
   6  -3   5   10.73    1.83
   9   2  -5    9.81    1.18
   9   2  -5   10.72    1.73
   9   2  -5   11.93    1.90
  -9  -2   5   13.50    1.95
  -9  -2   5    8.39    1.71
   8   2  -5   33.68    2.44
   8   2  -5   31.62    2.10
   8   2  -5   29.21    2.27
  -8  -2   5   28.33    2.27
  -8  -2   5   32.76    2.49
   7   2  -5   15.85    1.40
   7   2  -5   13.99    1.45
   7   2  -5   15.32    1.03
   7   2  -5   15.83    1.55
  -7  -2   5   16.11    1.71
  -7  -2   5   15.80    1.60
   6   2  -5   80.12    3.22
   6   2  -5   82.59    2.69
   6   2  -5   82.21    3.47
  -6  -2   5   85.66    3.62
  -6  -2   5   79.16    3.51
   5   2  -5    4.93    0.78
   5   2  -5    3.12    0.79
  -5  -2   5    4.56    0.85
  -5  -2   5    5.31    0.53
  -5  -2   5    5.46    0.96
   4   2  -5  150.02    4.51
   4   2  -5  148.49    5.24
   4   2  -5  149.90    4.85
  -4  -2   5  140.88    3.94
  -4  -2   5  147.73    4.19
   3   2  -5    3.81    0.73
   3   2  -5    4.14    0.80
   3   2  -5    4.66    0.66
   3   2  -5    4.15    0.63
   3   2  -5    3.88    0.48
  -3  -2   5    3.71    0.71
  -3  -2   5    5.02    0.88
  -3  -2   5    5.30    0.71
  -3  -2   5    3.45    0.60
  -3  -2   5    3.18    0.54
   2   2  -5  221.97    5.70
   2   2  -5  228.16    5.99
   2   2  -5  232.12    6.61
   2   2  -5  223.61    6.82
  -2  -2   5  227.23    6.08
  -2  -2   5  230.25    6.59
  -2  -2   5  233.13    6.60
  -2  -2   5  223.06    6.09
  -2  -2   5  225.13    6.24
  -2  -2   5  219.41    5.63
   1   2  -5   20.11    1.06
   1   2  -5   17.82    1.38
   1   2  -5   20.06    1.14
   1   2  -5   18.35    0.95
   1   2  -5   19.16    1.32
  -1  -2   5   19.02    1.13
  -1  -2   5   20.78    1.07
  -1  -2   5   20.05    1.38
  -1  -2   5   18.50    1.28
  -1  -2   5   18.93    1.10
  -1  -2   5   18.77    1.23
  -1  -2   5   19.63    1.00
   0   2  -5  151.67    4.36
   0   2  -5  151.07    4.81
   0   2  -5  158.51    4.50
   0   2  -5  156.11    4.39
   0  -2   5  153.05    4.93
   0  -2   5  151.33    4.80
   0  -2   5  151.87    4.85
   0  -2   5  153.64    4.07
   0  -2   5  159.62    4.50
  -1   2  -5   64.98    2.58
  -1   2  -5   64.44    2.39
  -1   2  -5   61.86    2.64
  -1   2  -5   66.38    2.83
  -1   2  -5   64.22    2.44
  -1   2  -5   60.38    2.35
   1  -2   5   67.44    2.47
   1  -2   5   65.27    2.38
   1  -2   5   65.13    2.70
   1  -2   5   63.36    1.96
   1  -2   5   66.23    3.02
  -2   2  -5   65.38    2.83
   2  -2   5   75.41    2.98
   2  -2   5   68.06    2.65
   2  -2   5   75.89    2.78
  -3   2  -5   66.36    2.99
  -3   2  -5   64.94    1.98
  -3   2  -5   61.53    2.47
   3  -2   5   64.69    2.85
   3  -2   5   66.28    2.76
  -4   2  -5   15.41    0.87
  -4   2  -5   14.97    1.50
   4  -2   5   18.61    1.48
   4  -2   5   14.00    1.34
  -5   2  -5   54.15    2.01
  -5   2  -5   54.80    3.00
   5  -2   5   57.85    2.82
   5  -2   5   50.55    2.76
  -6   2  -5    0.18    0.43
  -6   2  -5    0.15    0.69
   6  -2   5   -0.83    0.63
   6  -2   5    1.39    0.86
  -7   2  -5   30.56    1.69
  -7   2  -5   29.98    2.66
   7  -2   5   29.09    2.69
   7  -2   5   34.75    2.56
   9   1  -5    1.39    1.34
   9   1  -5    1.71    0.93
   9   1  -5    3.51    1.14
   9   1  -5    2.18    0.73
  -9  -1   5    2.13    1.20
  -9  -1   5    3.29    1.20
   8   1  -5   46.30    2.86
   8   1  -5   48.82    2.70
   8   1  -5   50.61    2.23
   8   1  -5   55.98    3.07
  -8  -1   5   55.51    3.27
  -8  -1   5   52.21    3.41
   7   1  -5    0.90    0.66
   7   1  -5    0.86    0.63
   7   1  -5    0.84    0.48
   7   1  -5    0.79    0.54
  -7  -1   5    0.41    0.62
  -7  -1   5    1.09    0.71
   6   1  -5   98.65    3.19
   6   1  -5  107.47    3.80
   6   1  -5  102.03    3.99
  -6  -1   5  109.05    4.08
  -6  -1   5   99.03    4.05
   5   1  -5    1.09    0.43
   5   1  -5    0.65    0.48
   5   1  -5    1.44    0.43
  -5  -1   5    0.34    0.46
  -5  -1   5    1.28    0.48
   4   1  -5  166.97    4.78
   4   1  -5  182.58    5.41
   4   1  -5  169.63    5.25
   4   1  -5  172.26    5.04
   4   1  -5  160.72    4.95
  -4  -1   5  166.12    4.41
  -4  -1   5  182.52    5.41
  -4  -1   5  168.54    5.16
  -4  -1   5  174.49    4.73
   3   1  -5    9.58    0.73
   3   1  -5    9.07    0.78
   3   1  -5    8.46    0.74
   3   1  -5    7.40    1.13
   3   1  -5    7.69    0.83
   3   1  -5    9.03    0.77
  -3  -1   5    8.69    0.72
  -3  -1   5    8.02    0.87
  -3  -1   5    8.74    0.79
  -3  -1   5   10.48    0.94
  -3  -1   5   10.03    0.81
  -3  -1   5    8.82    0.51
   2   1  -5  150.74    4.40
   2   1  -5  164.61    4.85
   2   1  -5  164.05    4.52
   2   1  -5  152.57    3.89
   2   1  -5  157.57    4.74
  -2  -1   5  158.93    4.34
  -2  -1   5  153.31    4.74
  -2  -1   5  151.94    4.52
  -2  -1   5  155.34    4.44
  -2  -1   5  149.62    3.84
   1   1  -5  128.00    3.93
   1   1  -5  134.23    3.90
   1   1  -5  131.33    3.46
   1   1  -5  132.77    4.25
   1   1  -5  135.68    4.21
  -1  -1   5  129.65    4.17
  -1  -1   5  132.19    3.95
  -1  -1   5  130.83    4.10
  -1  -1   5  140.00    3.70
  -1  -1   5  131.66    4.27
   0   1  -5  103.92    3.62
   0   1  -5  110.67    3.60
   0   1  -5  110.73    3.38
   0   1  -5  105.07    3.07
   0   1  -5  103.16    3.26
   0  -1   5  106.68    3.35
   0  -1   5   99.40    3.90
   0  -1   5  108.75    2.86
   0  -1   5   99.88    3.49
   0  -1   5  107.06    3.58
  -1   1  -5  210.46    5.57
  -1   1  -5  199.52    5.79
  -1   1  -5  194.22    5.74
  -1   1  -5  199.25    5.89
  -1   1  -5  202.30    5.55
   1  -1   5  205.25    5.80
   1  -1   5  193.99    5.27
   1  -1   5  194.70    5.83
   1  -1   5  202.77    5.62
   1  -1   5  198.15    4.80
   1  -1   5  192.19    5.81
  -2   1  -5   18.28    1.25
  -2   1  -5   19.11    1.38
   2  -1   5   18.56    1.12
   2  -1   5   20.87    1.30
   2  -1   5   18.73    1.21
  -3   1  -5  203.45    4.98
  -3   1  -5  193.14    6.02
  -3   1  -5  200.23    5.78
  -3   1  -5  203.88    6.22
   3  -1   5  213.13    6.10
   3  -1   5  200.17    5.84
   3  -1   5  211.07    6.07
  -4   1  -5    1.95    0.61
  -4   1  -5    1.40    0.29
   4  -1   5    0.53    0.49
   4  -1   5    0.20    0.36
  -5   1  -5   77.07    3.50
  -5   1  -5   76.82    2.48
  -5   1  -5   78.70    3.25
   5  -1   5   79.22    3.31
   5  -1   5   78.13    3.42
  -6   1  -5    4.03    0.90
  -6   1  -5    2.76    0.98
   6  -1   5    3.27    0.83
   6  -1   5    3.60    0.99
   6  -1   5    1.98    0.85
  -7   1  -5   27.86    2.19
  -7   1  -5   27.65    2.29
  -7   1  -5   28.70    1.56
   7  -1   5   26.94    2.32
   7  -1   5   30.21    2.44
   7  -1   5   24.76    1.99
   9   0  -5    1.87    1.06
   9   0  -5    1.45    0.82
   9   0  -5    1.95    0.79
   9   0  -5    1.52    0.94
  -9   0   5   -0.92    0.71
  -9   0   5    0.81    0.96
  -9   0   5    0.71    1.46
   8   0  -5   71.06    3.51
   8   0  -5   80.49    5.19
   8   0  -5   69.15    2.75
   8   0  -5   71.27    3.36
  -8   0   5   80.78    4.00
  -8   0   5   71.93    3.77
   7   0  -5    3.75    0.93
   7   0  -5    4.04    0.84
   7   0  -5    3.97    0.74
   7   0  -5    4.96    1.06
  -7   0   5    5.37    1.16
  -7   0   5    4.42    1.06
   6   0  -5  134.74    4.11
   6   0  -5  140.19    4.90
   6   0  -5  140.87    4.65
  -6   0   5  136.95    4.97
  -6   0   5  137.81    4.88
   5   0  -5   39.64    1.96
   5   0  -5   41.73    1.73
   5   0  -5   41.55    2.16
  -5   0   5   40.84    2.15
  -5   0   5   42.35    2.14
   4   0  -5  167.63    5.10
   4   0  -5  169.16    4.96
   4   0  -5  165.38    4.87
   4   0  -5  174.87    5.69
   4   0  -5  169.71    4.70
  -4   0   5  165.38    5.13
  -4   0   5  165.92    5.07
  -4   0   5  166.64    4.35
  -4   0   5  165.29    4.67
   3   0  -5  159.85    4.77
   3   0  -5  157.08    4.60
   3   0  -5  162.16    4.53
   3   0  -5  162.17    4.84
   3   0  -5  161.61    4.47
  -3   0   5  152.11    4.68
  -3   0   5  163.32    4.62
  -3   0   5  161.87    4.51
  -3   0   5  159.43    3.93
  -3   0   5  158.87    4.78
  -3   0   5  155.10    4.54
   2   0  -5   96.44    3.16
   2   0  -5   97.64    3.18
   2   0  -5  105.45    3.23
   2   0  -5  103.73    2.94
   2   0  -5  101.91    3.32
  -2   0   5  103.31    2.46
  -2   0   5  100.60    3.19
  -2   0   5  103.29    3.35
  -2   0   5  100.82    2.99
   1   0  -5  208.22    5.69
   1   0  -5  218.93    5.73
   1   0  -5  214.96    5.89
   1   0  -5  204.00    5.78
   1   0  -5  218.10    5.85
   1   0  -5  208.40    4.92
  -1   0   5  212.61    5.68
  -1   0   5  205.21    5.82
  -1   0   5  199.58    5.76
  -1   0   5  201.46    6.14
  -1   0   5  214.73    5.23
   0   0  -5    9.54    0.83
   0   0  -5    9.35    0.81
   0   0  -5   10.30    0.78
   0   0  -5    9.38    0.57
   0   0  -5   11.75    0.85
   0   0   5    9.82    0.85
   0   0   5   11.45    0.89
   0   0   5    9.99    0.81
   0   0   5    9.53    0.79
  -1   0  -5  266.98    6.86
  -1   0  -5  264.07    7.02
  -1   0  -5  260.13    7.06
  -1   0  -5  259.40    6.77
  -1   0  -5  250.12    6.86
   1   0   5  247.22    7.02
   1   0   5  257.33    6.32
   1   0   5  249.09    6.84
   1   0   5  243.76    7.15
  -2   0  -5    0.07    0.23
  -2   0  -5    0.37    0.30
  -2   0  -5    0.34    0.29
  -2   0  -5    0.13    0.29
   2   0   5    1.48    0.36
   2   0   5    0.01    0.23
   2   0   5   -0.03    0.24
   2   0   5    1.15    0.44
   2   0   5    0.62    0.28
  -3   0  -5  143.02    3.52
  -3   0  -5  148.82    4.26
  -3   0  -5  144.41    4.44
  -3   0  -5  143.60    4.65
  -3   0  -5  139.46    4.49
   3   0   5  143.74    4.47
   3   0   5  143.95    4.32
   3   0   5  146.40    5.04
  -4   0  -5   11.72    1.11
  -4   0  -5   11.34    0.62
  -4   0  -5    7.61    1.16
  -4   0  -5   10.77    1.12
   4   0   5   11.97    1.06
   4   0   5   13.12    1.87
   4   0   5   11.85    1.13
   4   0   5   10.66    1.04
  -5   0  -5   86.13    3.54
  -5   0  -5   83.40    2.53
  -5   0  -5   81.62    3.21
   5   0   5   76.83    3.40
   5   0   5   79.54    3.25
   5   0   5   83.41    3.29
  -6   0  -5   10.26    1.35
  -6   0  -5   12.06    0.89
  -6   0  -5    8.14    1.24
   6   0   5   10.91    1.35
   6   0   5   11.51    1.58
  -7   0  -5   31.55    2.17
  -7   0  -5   27.92    2.20
  -7   0  -5   29.33    1.55
   7   0   5   30.13    2.15
   7   0   5   29.54    2.10
   7   0   5   27.64    2.29
  -8   0  -5    9.99    1.58
  -8   0  -5   10.71    1.15
  -8   0  -5   11.75    1.77
   8   0   5   11.90    1.92
   8   0   5   10.79    1.63
   8   0   5   11.68    3.05
   8   0   5   14.04    1.98
   9  -1  -5    0.40    0.94
   9  -1  -5   -0.26    0.83
   9  -1  -5    0.52    0.74
   9  -1  -5   -0.63    0.78
  -9   1   5    0.81    1.01
  -9   1   5    0.37    1.09
  -9   1   5    1.09    1.04
   8  -1  -5   36.70    2.35
   8  -1  -5   39.48    2.63
   8  -1  -5   38.30    1.95
   8  -1  -5   41.13    2.50
  -8   1   5   40.09    2.84
  -8   1   5   33.56    2.48
  -8   1   5   36.83    2.62
   7  -1  -5   12.52    1.32
   7  -1  -5    9.92    0.94
   7  -1  -5    8.90    1.25
   7  -1  -5   12.83    1.65
  -7   1   5   11.12    1.77
  -7   1   5   11.38    1.50
   6  -1  -5   53.61    2.51
   6  -1  -5   56.17    2.73
  -6   1   5   56.01    2.75
  -6   1   5   59.17    2.95
   5  -1  -5  125.68    3.91
   5  -1  -5  126.95    4.42
   5  -1  -5  132.11    4.26
  -5   1   5  128.92    4.51
  -5   1   5  133.72    4.46
   4  -1  -5   67.74    2.45
   4  -1  -5   70.29    2.63
   4  -1  -5   70.02    2.77
   4  -1  -5   68.97    2.58
   4  -1  -5   70.05    2.72
  -4   1   5   76.13    2.83
  -4   1   5   69.95    2.74
   3  -1  -5  268.67    6.95
   3  -1  -5  274.67    7.25
   3  -1  -5  263.66    7.05
   3  -1  -5  268.93    6.91
   3  -1  -5  271.79    7.18
  -3   1   5  262.64    7.09
  -3   1   5  266.32    7.17
  -3   1   5  265.21    6.39
  -3   1   5  264.19    7.01
  -3   1   5  263.35    6.97
  -3   1   5  274.41    7.09
   2  -1  -5   58.32    2.13
   2  -1  -5   57.45    2.19
   2  -1  -5   58.67    2.15
   2  -1  -5   57.05    1.86
   2  -1  -5   61.26    2.20
   2  -1  -5   59.73    2.22
  -2   1   5   58.24    2.17
  -2   1   5   57.95    1.96
  -2   1   5   58.61    2.13
  -2   1   5   58.23    2.14
   1  -1  -5  225.23    5.98
   1  -1  -5  227.71    5.98
   1  -1  -5  221.38    5.95
   1  -1  -5  226.04    5.35
   1  -1  -5  220.20    5.99
  -1   1   5  223.84    5.95
  -1   1   5  225.76    5.94
  -1   1   5  219.46    5.38
  -1   1   5  212.35    5.98
  -1   1   5  223.93    5.93
   0  -1  -5    0.23    0.20
   0  -1  -5    0.25    0.23
   0  -1  -5    0.58    0.31
   0  -1  -5    0.18    0.23
   0  -1  -5    0.34    0.23
   0   1   5    0.17    0.18
   0   1   5    0.00    0.18
   0   1   5    0.22    0.22
   0   1   5    0.37    0.19
  -1  -1  -5  181.03    5.09
  -1  -1  -5  175.88    5.01
  -1  -1  -5  185.40    5.01
  -1  -1  -5  177.16    5.23
  -1  -1  -5  175.46    4.96
   1   1   5  175.87    5.17
   1   1   5  171.87    4.94
   1   1   5  183.98    4.39
   1   1   5  179.88    4.95
   1   1   5  178.79    5.13
  -2  -1  -5   40.33    1.78
  -2  -1  -5   51.02    2.93
  -2  -1  -5   42.49    1.76
  -2  -1  -5   41.27    1.87
   2   1   5   41.35    1.94
   2   1   5   42.89    1.88
   2   1   5   41.02    1.73
   2   1   5   40.33    1.48
   2   1   5   40.49    1.73
  -3  -1  -5  138.23    3.88
  -3  -1  -5  134.13    4.20
  -3  -1  -5  137.57    3.24
  -3  -1  -5  133.59    4.13
  -3  -1  -5  133.86    4.20
  -3  -1  -5  133.64    4.62
   3   1   5  130.33    4.37
   3   1   5  131.72    3.94
   3   1   5  135.52    4.31
   3   1   5  136.56    4.10
  -4  -1  -5   28.70    1.49
  -4  -1  -5   28.34    1.58
  -4  -1  -5   29.72    1.68
   4   1   5   27.98    1.58
   4   1   5   32.79    1.87
   4   1   5   33.08    1.83
   4   1   5   31.59    1.76
   4   1   5   30.14    1.59
  -5  -1  -5   61.29    2.74
  -5  -1  -5   62.89    2.60
  -5  -1  -5   64.80    2.06
  -5  -1  -5   62.63    2.81
   5   1   5   61.14    2.72
   5   1   5   66.66    2.91
   5   1   5   60.71    2.86
   5   1   5   61.47    2.63
  -6  -1  -5   20.12    1.18
  -6  -1  -5   23.56    1.22
  -6  -1  -5   24.67    1.81
  -6  -1  -5   27.29    1.75
   6   1   5   21.67    1.68
   6   1   5   23.16    1.84
   6   1   5   21.91    1.60
   6   1   5   22.87    1.65
  -7  -1  -5   18.13    1.18
  -7  -1  -5   17.72    1.70
   7   1   5   17.43    1.60
   7   1   5   19.56    1.84
   7   1   5   15.19    1.63
   7   1   5   18.31    1.76
  -8  -1  -5   16.44    1.35
  -8  -1  -5   13.52    1.73
  -8  -1  -5   18.22    1.89
   8   1   5   18.07    2.10
   8   1   5   17.83    1.95
   8   1   5   14.70    1.98
   8   1   5   18.53    1.87
   8  -2  -5   23.81    1.61
   8  -2  -5   24.21    2.10
   8  -2  -5   22.28    1.86
   8  -2  -5   23.98    1.93
  -8   2   5   21.84    2.39
  -8   2   5   21.38    2.22
  -8   2   5   22.73    2.16
   7  -2  -5   65.57    3.27
   7  -2  -5   68.12    3.10
   7  -2  -5   66.93    3.13
   7  -2  -5   71.80    2.78
  -7   2   5   71.55    3.35
  -7   2   5   68.30    3.57
  -7   2   5   70.44    3.52
   6  -2  -5   19.73    1.58
   6  -2  -5   16.14    1.35
   6  -2  -5   13.72    1.05
   6  -2  -5   15.52    1.27
  -6   2   5   18.13    1.56
  -6   2   5   19.28    1.51
  -6   2   5   16.58    1.58
   5  -2  -5  145.57    4.67
   5  -2  -5  147.34    4.82
   5  -2  -5  157.30    4.98
  -5   2   5  146.34    5.05
  -5   2   5  150.41    4.92
   4  -2  -5   10.18    0.93
   4  -2  -5   10.04    0.83
   4  -2  -5   11.00    0.96
   4  -2  -5    9.36    0.84
   4  -2  -5    9.00    0.83
  -4   2   5   10.21    0.91
  -4   2   5    9.94    1.27
   3  -2  -5  251.32    6.54
   3  -2  -5  247.35    6.63
   3  -2  -5  244.68    6.55
   3  -2  -5  253.12    6.76
   3  -2  -5  251.61    6.70
  -3   2   5  247.22    6.71
  -3   2   5  247.73    6.69
  -3   2   5  252.90    6.66
  -3   2   5  240.09    6.54
   2  -2  -5    3.22    0.51
   2  -2  -5    2.95    0.47
   2  -2  -5    3.70    0.44
   2  -2  -5    4.30    0.61
   2  -2  -5    3.42    0.54
  -2   2   5    3.14    0.24
  -2   2   5    3.22    0.46
  -2   2   5    2.10    0.44
  -2   2   5    2.14    0.41
  -2   2   5    3.16    0.54
   1  -2  -5  335.97    8.33
   1  -2  -5  325.91    8.44
   1  -2  -5  326.62    8.17
   1  -2  -5  337.48    7.74
   1  -2  -5  329.72    8.33
  -1   2   5  329.84    8.14
  -1   2   5  326.73    8.36
  -1   2   5  329.06    8.30
  -1   2   5  318.57    8.11
  -1   2   5  332.19    8.18
   0  -2  -5    5.47    0.72
   0  -2  -5    4.90    0.50
   0  -2  -5    4.72    0.64
   0  -2  -5    4.62    0.48
   0  -2  -5    4.61    0.28
   0  -2  -5    4.90    0.64
   0   2   5    4.38    0.46
   0   2   5    5.51    0.57
   0   2   5    3.55    0.58
   0   2   5    4.79    0.37
   0   2   5    5.84    0.70
  -1  -2  -5  178.63    4.84
  -1  -2  -5  175.79    4.79
  -1  -2  -5  180.01    4.95
  -1  -2  -5  178.43    5.07
  -1  -2  -5  188.96    5.23
  -1  -2  -5  173.26    5.06
   1   2   5  175.43    5.12
   1   2   5  176.02    5.08
   1   2   5  179.39    4.16
   1   2   5  174.62    4.71
  -2  -2  -5   65.64    2.44
  -2  -2  -5   65.15    2.23
  -2  -2  -5   64.99    1.87
  -2  -2  -5   67.44    2.44
  -2  -2  -5   64.43    2.44
   2   2   5   59.54    2.40
   2   2   5   58.92    2.41
   2   2   5   63.88    2.14
   2   2   5   61.24    2.44
   2   2   5   66.84    2.18
  -3  -2  -5  126.82    3.99
  -3  -2  -5  129.32    3.58
  -3  -2  -5  124.83    4.04
  -3  -2  -5  123.67    3.76
  -3  -2  -5  126.43    3.82
   3   2   5  122.64    4.04
   3   2   5  131.67    4.14
   3   2   5  126.15    4.10
   3   2   5  131.25    3.74
   3   2   5  120.75    3.68
   3   2   5  121.88    3.63
  -4  -2  -5   47.02    1.96
  -4  -2  -5   48.75    2.08
  -4  -2  -5   53.04    2.19
   4   2   5   52.20    2.36
   4   2   5   52.05    2.06
   4   2   5   49.74    2.34
   4   2   5   47.92    2.31
   4   2   5   54.29    2.67
  -5  -2  -5   24.84    1.55
  -5  -2  -5   21.32    1.45
  -5  -2  -5   23.37    1.67
   5   2   5   24.68    1.46
   5   2   5   25.60    1.63
   5   2   5   22.44    1.56
   5   2   5   29.72    1.82
  -6  -2  -5   39.77    2.18
  -6  -2  -5   34.22    1.38
  -6  -2  -5   36.27    2.00
  -6  -2  -5   35.96    1.60
   6   2   5   35.01    2.11
   6   2   5   41.74    2.37
   6   2   5   37.99    2.18
   6   2   5   36.55    1.98
  -7  -2  -5    4.93    0.95
  -7  -2  -5    3.99    0.89
  -7  -2  -5    4.72    0.73
   7   2   5    4.33    0.94
   7   2   5    4.38    1.05
   7   2   5    4.45    1.09
   7   2   5    5.15    1.03
  -8  -2  -5   29.59    2.83
  -8  -2  -5   25.06    1.60
  -8  -2  -5   27.90    2.17
   8   2   5   27.45    2.08
   8   2   5   25.74    2.09
   8   2   5   30.03    2.39
   8   2   5   29.02    2.23
   8  -3  -5   15.13    1.33
   8  -3  -5   12.25    1.70
   8  -3  -5   13.04    1.59
   8  -3  -5   14.12    1.52
  -8   3   5   11.56    1.71
  -8   3   5   12.40    1.86
  -8   3   5   10.16    1.75
   7  -3  -5   87.67    3.58
   7  -3  -5   85.13    3.26
   7  -3  -5   87.11    3.88
   7  -3  -5   84.30    3.54
  -7   3   5   88.90    4.07
  -7   3   5   85.86    3.89
  -7   3   5   85.88    4.15
   6  -3  -5    7.24    1.11
   6  -3  -5    7.97    1.10
   6  -3  -5    8.43    0.96
   6  -3  -5    9.03    1.17
  -6   3   5    6.63    1.17
  -6   3   5    9.65    1.39
  -6   3   5    8.55    1.22
   5  -3  -5  111.42    3.65
   5  -3  -5  110.10    3.78
   5  -3  -5  115.03    4.07
   5  -3  -5  108.62    3.94
  -5   3   5  113.98    4.03
  -5   3   5  107.06    4.20
  -5   3   5  110.29    4.21
   4  -3  -5    1.86    0.47
   4  -3  -5    1.89    0.53
   4  -3  -5    2.50    0.58
  -4   3   5    2.29    0.57
  -4   3   5    1.37    0.49
   3  -3  -5  155.72    4.51
   3  -3  -5  154.72    4.57
   3  -3  -5  155.74    5.02
   3  -3  -5  155.79    4.57
  -3   3   5  153.68    4.47
  -3   3   5  156.84    4.74
  -3   3   5  162.10    4.62
   2  -3  -5   18.01    0.94
   2  -3  -5   19.86    1.09
   2  -3  -5   18.75    1.01
   2  -3  -5   18.10    1.01
   2  -3  -5   17.86    0.99
  -2   3   5   18.41    0.98
  -2   3   5   17.55    1.10
  -2   3   5   17.38    0.76
  -2   3   5   18.18    0.95
  -2   3   5   17.60    1.02
  -2   3   5   16.96    1.05
  -2   3   5   17.43    1.12
   1  -3  -5   64.80    2.07
   1  -3  -5   61.45    2.18
   1  -3  -5   62.64    2.07
   1  -3  -5   63.67    1.88
   1  -3  -5   64.84    2.24
   1  -3  -5   61.47    2.33
  -1   3   5   64.49    2.02
  -1   3   5   61.41    2.16
  -1   3   5   63.77    1.71
  -1   3   5   65.49    2.01
  -1   3   5   64.16    2.29
  -1   3   5   66.34    2.24
   0  -3  -5   69.68    2.15
   0  -3  -5   66.25    2.36
   0  -3  -5   73.09    1.82
   0  -3  -5   68.32    2.11
   0  -3  -5   68.44    1.92
   0   3   5   69.90    2.43
   0   3   5   73.81    1.91
   0   3   5   73.64    2.58
   0   3   5   68.04    2.13
   0   3   5   71.50    2.42
   0   3   5   70.20    2.03
   0   3   5   69.80    2.59
  -1  -3  -5   32.59    0.90
  -1  -3  -5   33.47    1.20
  -1  -3  -5   31.75    1.26
  -1  -3  -5   33.22    1.58
  -1  -3  -5   31.96    1.46
  -1  -3  -5   32.16    1.44
  -1  -3  -5   29.46    1.21
  -1  -3  -5   31.91    1.56
  -1  -3  -5   31.31    1.03
   1   3   5   33.68    1.61
   1   3   5   30.95    1.47
   1   3   5   31.51    1.12
   1   3   5   32.05    1.09
   1   3   5   33.70    1.15
  -2  -3  -5  118.62    2.92
  -2  -3  -5  119.75    3.30
  -2  -3  -5  112.83    3.38
  -2  -3  -5  115.69    3.67
  -2  -3  -5  119.12    3.27
  -2  -3  -5  113.07    3.65
  -2  -3  -5  120.85    3.06
   2   3   5  120.88    3.82
   2   3   5  113.21    3.13
   2   3   5  120.20    3.70
   2   3   5  114.79    3.22
   2   3   5  119.44    3.76
   2   3   5  116.04    3.13
  -3  -3  -5   13.46    0.76
  -3  -3  -5   13.56    0.83
  -3  -3  -5   13.10    0.82
  -3  -3  -5   12.83    0.98
  -3  -3  -5   12.70    0.98
   3   3   5   13.33    0.77
   3   3   5   12.72    0.98
   3   3   5   12.89    0.81
   3   3   5   14.16    1.01
   3   3   5   13.08    1.02
  -4  -3  -5  115.90    3.56
  -4  -3  -5  118.00    3.65
  -4  -3  -5  115.77    3.60
   4   3   5  116.68    3.51
   4   3   5  122.52    4.07
   4   3   5  119.67    3.92
   4   3   5  110.47    3.63
  -5  -3  -5   21.61    1.34
  -5  -3  -5   21.22    1.32
  -5  -3  -5   21.38    1.34
   5   3   5   21.17    1.47
   5   3   5   21.72    1.26
   5   3   5   20.89    1.53
  -6  -3  -5   42.58    2.16
  -6  -3  -5   38.56    2.06
  -6  -3  -5   38.26    1.31
  -6  -3  -5   41.83    2.12
   6   3   5   41.71    2.19
   6   3   5   42.12    2.37
   6   3   5   44.37    2.07
   6   3   5   44.10    2.31
  -7  -3  -5    3.43    0.85
  -7  -3  -5    2.98    0.80
  -7  -3  -5    4.49    0.96
   7   3   5    2.36    0.84
   7   3   5    4.17    1.03
   7   3   5    4.40    0.95
   7   3   5    4.59    0.89
  -8  -3  -5   29.89    1.75
  -8  -3  -5   32.77    2.27
  -8  -3  -5   32.94    2.24
   8   3   5   30.68    2.18
   8   3   5   31.41    2.11
   8   3   5   31.30    2.35
   8   3   5   36.22    2.51
  -9  -3  -5   -0.23    0.84
  -9  -3  -5   -0.03    0.74
  -9  -3  -5    0.53    1.03
   9   3   5    1.02    0.95
   9   3   5   -1.33    0.98
   9   3   5   -0.82    0.73
   8  -4  -5   -0.41    0.68
   8  -4  -5   -0.14    0.78
   8  -4  -5    0.42    0.72
  -8   4   5    1.23    1.13
  -8   4   5    1.26    1.31
   7  -4  -5   74.68    3.04
   7  -4  -5   78.57    3.68
   7  -4  -5   72.70    3.14
   7  -4  -5   75.89    3.30
  -7   4   5   75.57    3.97
  -7   4   5   72.71    3.72
  -7   4   5   75.61    3.65
   6  -4  -5    0.96    0.53
   6  -4  -5    1.80    0.72
   6  -4  -5    0.83    0.53
   6  -4  -5    1.14    0.47
  -6   4   5    0.68    0.62
  -6   4   5    1.52    0.81
  -6   4   5    0.59    0.51
   5  -4  -5  118.62    3.90
   5  -4  -5  123.52    4.03
   5  -4  -5  115.78    4.25
   5  -4  -5  116.97    4.20
  -5   4   5  117.74    4.56
  -5   4   5  119.82    4.52
  -5   4   5  116.42    4.20
   4  -4  -5   18.98    1.30
   4  -4  -5   20.98    1.37
   4  -4  -5   20.82    1.26
   4  -4  -5   20.02    1.22
  -4   4   5   19.16    1.48
  -4   4   5   18.13    1.28
  -4   4   5   20.76    1.52
   3  -4  -5   75.29    2.65
   3  -4  -5   72.38    2.57
   3  -4  -5   73.98    2.66
   3  -4  -5   69.89    2.62
  -3   4   5   74.95    2.63
  -3   4   5   69.81    2.84
  -3   4   5   70.35    2.82
  -3   4   5   71.76    2.52
  -3   4   5   73.04    2.70
   2  -4  -5  112.81    3.39
   2  -4  -5  112.34    3.38
   2  -4  -5  114.63    3.41
   2  -4  -5  110.93    3.41
   2  -4  -5  111.74    3.56
  -2   4   5  112.64    3.64
  -2   4   5  116.55    3.69
  -2   4   5  111.28    3.34
  -2   4   5  116.20    3.21
  -2   4   5  111.09    3.30
  -2   4   5  116.33    3.63
   1  -4  -5   61.12    2.12
   1  -4  -5   63.35    2.41
   1  -4  -5   64.08    2.03
   1  -4  -5   62.59    2.01
   1  -4  -5   60.63    2.25
   1  -4  -5   64.89    2.01
  -1   4   5   63.64    2.32
  -1   4   5   63.43    2.12
  -1   4   5   62.52    1.93
  -1   4   5   61.44    2.24
  -1   4   5   63.29    1.89
  -1   4   5   59.33    2.15
   0  -4  -5  158.23    4.18
   0  -4  -5  154.51    4.38
   0  -4  -5  155.54    4.64
   0  -4  -5  151.48    4.06
   0  -4  -5  163.27    4.47
   0  -4  -5  153.39    4.00
   0  -4  -5  156.27    4.01
   0  -4  -5  165.04    4.69
   0  -4  -5  162.22    4.01
   0   4   5  155.98    4.01
   0   4   5  159.69    4.31
   0   4   5  157.09    3.85
   0   4   5  156.52    3.95
   0   4   5  161.32    4.53
   0   4   5  158.78    4.45
  -1  -4  -5   18.37    1.19
  -1  -4  -5   18.81    1.12
  -1  -4  -5   19.04    0.89
  -1  -4  -5   19.97    0.80
  -1  -4  -5   17.19    1.02
  -1  -4  -5   19.71    0.79
  -1  -4  -5   19.97    0.80
  -1  -4  -5   18.95    0.83
  -1  -4  -5   19.51    1.07
   1   4   5   19.89    1.21
   1   4   5   18.17    1.06
   1   4   5   18.94    0.89
   1   4   5   20.81    0.90
  -2  -4  -5  172.30    4.26
  -2  -4  -5  171.34    4.78
  -2  -4  -5  168.83    4.26
  -2  -4  -5  169.55    4.27
  -2  -4  -5  164.32    4.84
  -2  -4  -5  172.24    5.00
  -2  -4  -5  171.65    4.31
  -2  -4  -5  166.91    4.58
   2   4   5  168.50    4.03
   2   4   5  171.30    4.78
   2   4   5  164.51    4.15
   2   4   5  161.48    4.90
   2   4   5  174.09    5.08
  -3  -4  -5   13.89    0.80
  -3  -4  -5   13.88    0.97
  -3  -4  -5   13.34    0.76
  -3  -4  -5   13.23    0.99
  -3  -4  -5   11.35    0.96
  -3  -4  -5   14.19    0.75
  -3  -4  -5   13.47    0.69
   3   4   5   14.62    0.88
   3   4   5   12.86    1.03
   3   4   5   15.75    1.08
   3   4   5   12.92    1.09
  -4  -4  -5  136.64    3.68
  -4  -4  -5  140.20    4.00
  -4  -4  -5  132.07    3.86
   4   4   5  133.10    4.76
   4   4   5  129.56    4.04
   4   4   5  131.96    3.71
   4   4   5  128.78    4.12
  -5  -4  -5    1.74    0.43
  -5  -4  -5    3.33    0.58
   5   4   5    2.53    0.74
   5   4   5    3.59    0.65
   5   4   5    2.18    0.62
   5   4   5    1.78    0.55
  -6  -4  -5   94.61    3.55
  -6  -4  -5  102.64    3.60
  -6  -4  -5   89.80    3.43
   6   4   5   96.40    3.83
   6   4   5  103.58    3.99
   6   4   5  100.27    3.33
  -7  -4  -5    0.53    0.38
  -7  -4  -5    0.90    0.70
  -7  -4  -5    0.29    0.47
   7   4   5    1.27    1.04
   7   4   5    1.45    0.53
   7   4   5    1.18    0.62
   7   4   5    0.68    0.51
  -8  -4  -5   41.55    2.50
  -8  -4  -5   39.72    2.49
   8   4   5   41.52    2.36
   8   4   5   50.10    2.90
   8   4   5   42.98    2.32
   8   4   5   54.50    3.06
  -9  -4  -5    9.04    1.51
  -9  -4  -5   10.30    1.57
   9   4   5    6.51    1.18
   9   4   5    8.36    1.48
   9   4   5    6.04    1.41
   7  -5  -5   38.73    2.27
   7  -5  -5   39.91    2.16
   7  -5  -5   40.19    2.59
  -7   5   5   39.42    2.68
  -7   5   5   42.78    3.08
  -7   5   5   41.92    2.78
   6  -5  -5    9.23    1.33
   6  -5  -5   10.41    1.46
   6  -5  -5   11.83    1.09
   6  -5  -5   10.85    1.27
  -6   5   5    8.77    1.53
  -6   5   5   11.38    1.56
   5  -5  -5   37.24    2.14
   5  -5  -5   35.73    2.09
   5  -5  -5   35.26    1.91
   5  -5  -5   41.54    1.91
   5  -5  -5   40.36    1.96
  -5   5   5   37.06    2.46
  -5   5   5   39.26    2.34
  -5   5   5   38.06    2.13
  -5   5   5   38.01    2.09
   4  -5  -5   35.27    1.91
   4  -5  -5   36.88    1.79
   4  -5  -5   32.99    1.84
   4  -5  -5   35.75    1.71
  -4   5   5   33.89    2.12
  -4   5   5   37.02    1.83
  -4   5   5   32.56    1.80
  -4   5   5   33.76    2.07
   3  -5  -5   30.54    1.54
   3  -5  -5   29.88    1.56
   3  -5  -5   27.89    1.46
   3  -5  -5   29.85    1.61
  -3   5   5   29.11    1.48
  -3   5   5   25.32    1.36
  -3   5   5   31.68    1.66
  -3   5   5   30.92    1.76
   2  -5  -5  102.66    3.19
   2  -5  -5  104.58    3.14
   2  -5  -5  100.87    3.20
   2  -5  -5  100.93    3.30
  -2   5   5  105.44    3.58
  -2   5   5  104.01    3.42
  -2   5   5  101.82    3.39
   1  -5  -5   41.20    1.89
   1  -5  -5   42.48    1.55
   1  -5  -5   40.76    1.65
   1  -5  -5   42.95    1.53
   1  -5  -5   43.71    1.84
   1  -5  -5   40.27    1.57
   1  -5  -5   43.46    1.76
  -1   5   5   41.00    1.55
  -1   5   5   45.06    1.88
  -1   5   5   41.93    1.45
  -1   5   5   43.82    1.70
   0  -5  -5  162.06    4.03
   0  -5  -5  162.27    4.62
   0  -5  -5  160.87    4.42
   0  -5  -5  156.62    4.03
   0  -5  -5  159.92    4.40
   0  -5  -5  164.45    4.80
   0  -5  -5  160.37    4.32
   0  -5  -5  163.64    4.63
   0  -5  -5  157.10    4.35
   0   5   5  158.90    3.85
   0   5   5  166.21    4.29
   0   5   5  159.28    4.49
   0   5   5  162.80    4.65
   0   5   5  155.79    3.81
   0   5   5  167.38    4.58
  -1  -5  -5   50.80    1.80
  -1  -5  -5   47.36    1.71
  -1  -5  -5   49.35    1.36
  -1  -5  -5   51.08    1.94
  -1  -5  -5   50.91    1.97
  -1  -5  -5   49.54    2.14
  -1  -5  -5   50.27    1.90
   1   5   5   51.14    1.85
   1   5   5   53.35    2.00
   1   5   5   51.61    2.14
  -2  -5  -5  104.45    3.36
  -2  -5  -5  109.11    2.78
  -2  -5  -5  115.66    2.77
  -2  -5  -5  115.04    3.19
  -2  -5  -5  108.70    3.50
  -2  -5  -5  111.36    3.66
  -2  -5  -5  108.12    3.12
   2   5   5  105.56    3.23
   2   5   5  114.73    3.61
   2   5   5  115.94    3.76
   2   5   5  114.98    3.35
   2   5   5  114.99    3.44
  -3  -5  -5    3.11    0.61
  -3  -5  -5    4.72    0.57
  -3  -5  -5    4.39    0.37
  -3  -5  -5    3.47    0.63
  -3  -5  -5    5.14    0.56
  -3  -5  -5    4.32    0.37
  -3  -5  -5    4.65    0.66
   3   5   5    4.11    0.25
   3   5   5    4.63    0.65
   3   5   5    3.51    0.61
   3   5   5    3.80    0.67
  -4  -5  -5  115.82    3.32
  -4  -5  -5  119.09    3.36
  -4  -5  -5  118.32    3.40
  -4  -5  -5  114.61    3.59
   4   5   5  110.61    3.13
   4   5   5  112.47    3.92
   4   5   5  116.12    3.61
   4   5   5  118.32    3.14
   4   5   5  111.69    3.67
   4   5   5  119.72    4.00
  -5  -5  -5    6.85    0.71
  -5  -5  -5    6.58    0.85
  -5  -5  -5    7.14    0.70
   5   5   5    8.59    0.68
   5   5   5    7.96    1.12
   5   5   5    7.00    0.73
   5   5   5    6.48    0.93
  -6  -5  -5  121.63    3.98
  -6  -5  -5  115.48    3.92
  -6  -5  -5  120.57    4.17
   6   5   5  120.56    3.90
   6   5   5  121.30    4.46
   6   5   5  119.83    4.46
  -7  -5  -5    9.49    1.22
  -7  -5  -5   11.94    1.44
   7   5   5    9.77    1.03
   7   5   5    9.96    1.45
   7   5   5    8.99    1.37
   7   5   5    9.24    1.05
  -8  -5  -5   68.06    3.18
  -8  -5  -5   63.78    3.19
   8   5   5   70.11    3.57
   8   5   5   68.95    3.50
  -9  -5  -5   12.86    1.74
  -9  -5  -5   11.11    1.53
   9   5   5   10.95    1.27
   9   5   5   12.06    1.74
   9   5   5    8.91    1.62
   7  -6  -5   18.75    2.01
   7  -6  -5   18.46    1.56
   7  -6  -5   17.93    1.45
  -7   6   5   17.05    2.17
  -7   6   5   18.59    2.12
  -7   6   5   18.40    2.46
  -7   6   5   17.44    1.98
   6  -6  -5   18.57    1.71
   6  -6  -5   16.45    1.20
   6  -6  -5   16.65    1.64
  -6   6   5   13.02    1.65
  -6   6   5   14.08    2.19
  -6   6   5   12.72    1.77
   5  -6  -5   19.43    1.34
   5  -6  -5   18.52    1.36
   5  -6  -5   17.24    1.12
   5  -6  -5   17.45    1.77
  -5   6   5   18.31    1.45
  -5   6   5   19.21    3.08
  -5   6   5   18.15    1.69
  -5   6   5   17.85    1.54
   4  -6  -5   44.37    2.21
   4  -6  -5   40.59    2.13
   4  -6  -5   43.64    1.93
   4  -6  -5   43.63    2.08
  -4   6   5   47.85    2.49
  -4   6   5   43.43    2.19
  -4   6   5   39.31    2.09
   3  -6  -5   20.24    1.27
   3  -6  -5   23.41    1.40
   3  -6  -5   22.14    1.34
  -3   6   5   22.56    1.38
  -3   6   5   19.85    1.26
  -3   6   5   18.61    1.29
  -3   6   5   20.80    1.52
   2  -6  -5   84.96    2.82
   2  -6  -5   87.54    2.93
   2  -6  -5   83.97    2.79
   2  -6  -5   83.57    2.66
  -2   6   5   83.92    3.18
  -2   6   5   78.09    2.91
  -2   6   5   82.53    2.86
   1  -6  -5    5.59    0.86
   1  -6  -5    5.95    0.83
   1  -6  -5    3.02    0.60
   1  -6  -5    4.27    0.63
   1  -6  -5    4.29    0.60
   1  -6  -5    5.12    0.48
   1  -6  -5    4.64    0.47
   1  -6  -5    5.27    0.67
  -1   6   5    4.94    0.49
  -1   6   5    5.47    0.66
  -1   6   5    4.78    0.44
  -1   6   5    4.73    0.61
   0  -6  -5  212.95    5.61
   0  -6  -5  210.73    5.70
   0  -6  -5  211.44    5.20
   0  -6  -5  214.02    5.22
   0  -6  -5  203.85    5.81
   0  -6  -5  215.46    5.49
   0  -6  -5  207.22    5.63
   0  -6  -5  209.12    5.71
   0   6   5  213.64    5.89
  -1  -6  -5    3.71    0.56
  -1  -6  -5    5.27    0.79
  -1  -6  -5    3.62    0.52
  -1  -6  -5    3.68    0.48
  -1  -6  -5    4.04    0.22
  -1  -6  -5    3.47    0.51
   1   6   5    3.62    0.59
   1   6   5    2.88    0.50
  -2  -6  -5  201.17    5.84
  -2  -6  -5  193.59    5.30
  -2  -6  -5  195.13    5.36
  -2  -6  -5  195.09    5.00
  -2  -6  -5  180.33    5.57
  -2  -6  -5  194.29    5.20
   2   6   5  198.42    5.38
   2   6   5  196.12    5.73
   2   6   5  198.49    5.57
   2   6   5  195.69    5.36
   2   6   5  201.87    5.76
  -3  -6  -5    4.41    0.59
  -3  -6  -5    4.59    0.33
  -3  -6  -5    5.87    0.39
  -3  -6  -5    4.21    0.67
  -3  -6  -5    5.04    0.78
  -3  -6  -5    5.21    0.35
  -3  -6  -5    4.40    0.59
  -3  -6  -5    4.57    0.57
   3   6   5    5.31    0.85
   3   6   5    4.71    0.62
   3   6   5    4.29    0.65
   3   6   5    7.59    0.95
  -4  -6  -5  122.84    3.39
  -4  -6  -5  120.15    3.10
  -4  -6  -5  124.04    3.41
  -4  -6  -5  119.49    3.79
  -4  -6  -5  117.01    3.80
  -4  -6  -5  122.32    3.67
   4   6   5  123.52    3.14
   4   6   5  125.87    4.16
   4   6   5  130.74    3.71
   4   6   5  123.24    3.03
   4   6   5  119.10    3.94
   4   6   5  126.90    4.71
  -5  -6  -5   19.74    1.09
  -5  -6  -5   17.76    1.17
  -5  -6  -5   17.82    1.03
   5   6   5   19.16    1.44
   5   6   5   19.04    1.07
  -6  -6  -5   66.01    2.79
  -6  -6  -5   60.77    2.48
  -6  -6  -5   67.11    2.55
   6   6   5   65.01    2.99
   6   6   5   64.97    2.36
   6   6   5   62.81    2.99
  -7  -6  -5   34.51    2.07
  -7  -6  -5   35.10    1.97
   7   6   5   35.72    1.64
   7   6   5   31.75    1.67
   7   6   5   34.14    2.25
  -8  -6  -5   36.45    2.15
  -8  -6  -5   33.51    2.28
   8   6   5   34.69    2.41
   8   6   5   36.98    2.52
   8   6   5   33.74    2.07
   8   6   5   34.01    1.62
  -9  -6  -5   29.93    2.17
  -9  -6  -5   29.32    2.31
   9   6   5   28.58    2.43
   9   6   5   30.23    2.41
   6  -7  -5   23.86    1.34
   6  -7  -5   23.90    1.65
   6  -7  -5   23.21    1.98
  -6   7   5   23.46    2.03
  -6   7   5   23.47    2.47
  -6   7   5   22.90    2.08
   5  -7  -5    3.11    0.52
   5  -7  -5    2.56    0.71
   5  -7  -5    3.53    0.74
  -5   7   5    3.16    0.80
  -5   7   5    1.93    0.65
  -5   7   5    4.06    0.96
   4  -7  -5   30.56    1.58
   4  -7  -5   31.40    1.89
   4  -7  -5   30.29    1.32
   4  -7  -5   36.54    2.01
   4  -7  -5   32.02    1.81
  -4   7   5   26.91    1.99
  -4   7   5   30.32    1.87
  -4   7   5   32.02    1.98
   3  -7  -5    1.19    0.43
   3  -7  -5    1.02    0.45
   3  -7  -5    1.30    0.49
   3  -7  -5    1.34    0.54
  -3   7   5    1.32    0.45
  -3   7   5    1.81    0.64
  -3   7   5    1.57    0.54
   2  -7  -5   76.15    2.50
   2  -7  -5   81.45    2.53
   2  -7  -5   73.94    2.80
   2  -7  -5   75.07    2.71
   2  -7  -5   78.72    2.77
  -2   7   5   74.32    2.82
  -2   7   5   79.70    3.17
  -2   7   5   78.24    2.92
   1  -7  -5    1.29    0.34
   1  -7  -5    0.95    0.39
   1  -7  -5    1.52    0.34
   1  -7  -5    2.16    0.36
   1  -7  -5    2.45    0.44
  -1   7   5    1.35    0.39
  -1   7   5    1.18    0.31
  -1   7   5    2.32    0.49
  -1   7   5    1.11    0.37
   0  -7  -5  114.56    3.08
   0  -7  -5  107.27    3.23
   0  -7  -5  110.65    3.60
   0  -7  -5  114.60    3.78
   0  -7  -5  110.93    3.04
   0  -7  -5  108.07    3.72
   0  -7  -5  112.59    3.13
   0   7   5  111.44    3.98
   0   7   5  109.40    2.68
   0   7   5  107.06    2.76
   0   7   5  111.41    3.71
  -1  -7  -5   14.23    1.00
  -1  -7  -5   14.41    0.59
  -1  -7  -5   14.49    1.30
  -1  -7  -5   15.58    1.02
  -1  -7  -5   14.52    0.87
  -1  -7  -5   14.52    0.93
  -1  -7  -5   14.59    0.85
   1   7   5   15.47    1.08
   1   7   5   14.33    0.96
  -2  -7  -5  190.86    4.85
  -2  -7  -5  177.41    5.09
  -2  -7  -5  178.44    5.72
  -2  -7  -5  160.10    6.10
  -2  -7  -5  182.00    5.30
  -2  -7  -5  188.90    5.07
  -2  -7  -5  187.99    5.20
   2   7   5  183.81    5.17
   2   7   5  185.20    5.33
   2   7   5  184.70    5.42
   2   7   5  191.71    5.34
   2   7   5  183.75    5.23
  -3  -7  -5   18.97    1.12
  -3  -7  -5   19.58    0.69
  -3  -7  -5   20.87    1.28
  -3  -7  -5   18.99    1.20
  -3  -7  -5   20.20    1.16
  -3  -7  -5   20.27    1.24
  -3  -7  -5   20.05    0.89
   3   7   5   24.22    1.43
   3   7   5   20.42    1.11
   3   7   5   19.88    1.24
   3   7   5   20.21    1.33
  -4  -7  -5  114.31    3.60
  -4  -7  -5  111.57    3.60
  -4  -7  -5  120.18    3.58
  -4  -7  -5  121.47    3.22
  -4  -7  -5  111.09    3.79
  -4  -7  -5  118.42    3.89
  -4  -7  -5  115.01    3.19
   4   7   5  116.08    4.02
   4   7   5  121.19    3.52
  -5  -7  -5   64.00    2.64
  -5  -7  -5   60.05    2.14
  -5  -7  -5   62.49    2.15
   5   7   5   62.21    2.16
   5   7   5   62.90    2.80
   5   7   5   60.24    1.75
   5   7   5   63.80    2.81
  -6  -7  -5   56.79    2.24
  -6  -7  -5   56.04    2.21
  -6  -7  -5   56.57    2.61
   6   7   5   53.14    2.70
   6   7   5   53.80    1.96
   6   7   5   59.53    2.85
   6   7   5   54.98    1.90
  -7  -7  -5   74.89    4.08
  -7  -7  -5   70.59    3.23
   7   7   5   74.91    3.44
   7   7   5   71.99    2.65
   7   7   5   71.71    2.34
   7   7   5   75.32    3.48
  -8  -7  -5    6.77    1.15
  -8  -7  -5    9.97    1.29
   8   7   5    8.02    0.68
   8   7   5    6.61    1.35
   8   7   5    8.37    1.41
  -9  -7  -5   54.40    2.86
  -9  -7  -5   53.03    3.14
   9   7   5   56.40    3.29
   9   7   5   54.79    3.29
   6  -8  -5   39.30    3.51
  -6   8   5   35.59    2.66
  -6   8   5   40.31    3.19
   5  -8  -5    1.26    0.57
   5  -8  -5    1.18    0.66
  -5   8   5    1.18    0.88
  -5   8   5    1.48    0.79
  -5   8   5    1.91    0.75
   4  -8  -5   77.51    3.37
   4  -8  -5   76.89    3.34
   4  -8  -5   79.02    2.23
   4  -8  -5   83.83    2.89
  -4   8   5   82.71    3.58
  -4   8   5   77.66    3.65
   3  -8  -5    0.03    0.28
   3  -8  -5    0.38    0.30
   3  -8  -5    0.23    0.17
   3  -8  -5   -0.27    0.44
   3  -8  -5    0.01    0.32
  -3   8   5    0.14    0.43
  -3   8   5    0.83    0.50
  -3   8   5    0.07    0.41
  -3   8   5    0.26    0.54
   2  -8  -5  109.93    3.78
   2  -8  -5  112.01    3.70
   2  -8  -5  106.20    3.61
   2  -8  -5  113.62    3.24
   2  -8  -5  110.54    3.00
  -2   8   5  112.36    3.94
  -2   8   5  109.39    3.43
  -2   8   5  107.92    4.06
   1  -8  -5    9.07    0.62
   1  -8  -5    9.60    0.77
   1  -8  -5    7.45    0.58
   1  -8  -5   10.20    1.09
   1  -8  -5    9.93    0.80
  -1   8   5   10.11    1.26
  -1   8   5    8.05    0.73
  -1   8   5    8.45    0.84
  -1   8   5    9.04    0.79
   0  -8  -5  131.87    4.35
   0  -8  -5  132.73    3.70
   0  -8  -5  127.68    3.67
   0  -8  -5  136.35    4.06
   0  -8  -5  137.35    3.54
   0  -8  -5  134.17    3.68
   0   8   5  131.47    4.39
   0   8   5  128.08    3.25
   0   8   5  132.46    3.37
   0   8   5  133.21    4.25
  -1  -8  -5   24.74    0.94
  -1  -8  -5   25.43    1.23
  -1  -8  -5   23.87    1.25
  -1  -8  -5   24.93    1.06
  -1  -8  -5   24.60    1.53
  -1  -8  -5   23.60    0.97
   1   8   5   24.43    1.40
   1   8   5   26.72    1.56
  -2  -8  -5   79.89    2.56
  -2  -8  -5   82.36    2.11
  -2  -8  -5   75.31    2.77
  -2  -8  -5   84.58    3.37
  -2  -8  -5   73.12    2.68
  -2  -8  -5   80.58    2.05
  -2  -8  -5   78.98    2.59
   2   8   5   81.61    3.04
   2   8   5   80.31    2.87
   2   8   5   77.66    2.91
  -3  -8  -5  101.64    3.21
  -3  -8  -5   98.04    2.44
  -3  -8  -5   95.85    3.48
  -3  -8  -5   94.80    2.55
  -3  -8  -5   88.96    3.22
   3   8   5   92.33    3.37
   3   8   5   98.16    3.45
   3   8   5   96.66    3.42
  -4  -8  -5   57.50    2.46
  -4  -8  -5   52.76    2.01
  -4  -8  -5   56.21    1.72
  -4  -8  -5   53.15    2.24
  -4  -8  -5   56.10    1.82
  -4  -8  -5   51.72    2.08
   4   8   5   56.69    2.56
   4   8   5   53.20    2.45
   4   8   5   53.70    2.48
  -5  -8  -5  120.80    3.83
  -5  -8  -5  126.73    3.60
  -5  -8  -5  121.92    4.32
  -5  -8  -5  130.47    3.78
   5   8   5  124.95    4.48
   5   8   5  126.80    4.50
   5   8   5  128.18    3.66
  -6  -8  -5   14.59    1.04
  -6  -8  -5   14.58    1.01
  -6  -8  -5   17.25    1.43
   6   8   5   15.43    0.75
   6   8   5   16.59    1.47
   6   8   5   13.36    1.29
   6   8   5   15.31    0.87
  -7  -8  -5   95.53    3.39
  -7  -8  -5   93.04    3.39
  -7  -8  -5   95.72    3.96
   7   8   5   96.82    4.04
   7   8   5   95.53    4.12
   7   8   5   92.30    2.91
  -8  -8  -5   -0.31    0.59
  -8  -8  -5    0.08    0.44
   8   8   5   -0.66    0.59
   8   8   5    0.30    0.65
  -9  -8  -5   53.93    2.78
  -9  -8  -5   45.13    2.96
   9   8   5   56.61    3.32
   9   8   5   52.44    3.24
   5  -9  -5    1.12    0.78
  -5   9   5    1.14    1.24
  -5   9   5    3.20    1.12
   4  -9  -5   33.56    2.17
   4  -9  -5   32.64    1.61
  -4   9   5   34.14    2.36
  -4   9   5   33.16    2.19
  -4   9   5   30.70    2.24
   3  -9  -5    0.92    0.53
   3  -9  -5    1.90    0.71
   3  -9  -5    0.38    0.38
  -3   9   5    1.35    0.69
  -3   9   5    0.64    0.62
  -3   9   5    1.07    0.59
  -3   9   5    0.20    0.47
   2  -9  -5   43.79    2.08
   2  -9  -5   40.40    2.00
   2  -9  -5   45.89    1.60
  -2   9   5   36.95    1.77
  -2   9   5   42.47    2.25
  -2   9   5   39.25    2.00
  -2   9   5   38.12    2.24
   1  -9  -5   29.81    1.51
   1  -9  -5   26.94    1.34
   1  -9  -5   29.76    1.12
   1  -9  -5   27.37    1.48
  -1   9   5   33.57    1.92
  -1   9   5   27.18    1.80
   0  -9  -5   71.77    2.36
   0  -9  -5   69.74    2.41
   0  -9  -5   68.64    2.16
   0  -9  -5   69.96    2.00
   0   9   5   66.78    2.94
   0   9   5   67.41    2.81
   0   9   5   69.60    2.05
  -1  -9  -5  107.59    3.22
  -1  -9  -5  108.63    2.88
  -1  -9  -5  106.55    3.11
  -1  -9  -5  100.21    3.75
  -1  -9  -5  107.31    3.01
   1   9   5  104.30    3.73
   1   9   5  110.17    3.93
  -2  -9  -5   50.81    2.04
  -2  -9  -5   51.23    2.31
  -2  -9  -5   51.72    1.59
  -2  -9  -5   54.32    1.83
   2   9   5   48.63    2.37
   2   9   5   51.85    2.33
   2   9   5   49.94    2.15
  -3  -9  -5  142.30    4.49
  -3  -9  -5  151.12    5.01
  -3  -9  -5  151.45    4.31
  -3  -9  -5  150.65    3.83
  -3  -9  -5  148.05    4.49
  -3  -9  -5  145.99    4.03
   3   9   5  141.21    4.85
   3   9   5  154.38    4.89
   3   9   5  158.06    4.67
  -4  -9  -5    3.87    0.68
  -4  -9  -5    3.45    0.53
  -4  -9  -5    3.30    0.60
  -4  -9  -5    4.03    0.50
  -4  -9  -5    3.15    0.73
  -4  -9  -5    3.61    0.42
   4   9   5    4.11    0.79
   4   9   5    3.06    0.72
   4   9   5    3.80    0.73
  -5  -9  -5  139.26    4.21
  -5  -9  -5  139.70    3.91
  -5  -9  -5  139.13    4.17
  -5  -9  -5  147.18    4.94
   5   9   5  139.39    4.83
   5   9   5  144.76    4.95
  -6  -9  -5    6.73    0.70
  -6  -9  -5    6.41    1.14
   6   9   5    5.76    1.10
   6   9   5    8.31    1.25
  -7  -9  -5   98.60    3.38
  -7  -9  -5   95.43    3.43
   7   9   5   91.85    2.76
   7   9   5   98.78    4.23
   7   9   5   98.02    4.15
  -8  -9  -5   13.33    1.22
  -8  -9  -5   12.45    1.64
   8   9   5   10.07    1.55
   8   9   5   15.01    1.88
  -9  -9  -5   49.18    3.24
  -9  -9  -5   43.65    2.91
   9   9   5   47.08    3.09
   4 -10  -5   20.29    1.83
  -4  10   5   21.97    1.95
  -4  10   5   20.51    2.47
   3 -10  -5   21.20    1.66
  -3  10   5   19.84    1.80
  -3  10   5   19.10    1.81
  -3  10   5   20.19    1.88
   2 -10  -5   25.26    1.05
   2 -10  -5   27.56    1.73
  -2  10   5   25.28    2.64
  -2  10   5   20.84    1.26
  -2  10   5   25.64    1.85
  -2  10   5   25.56    1.88
   1 -10  -5   70.08    2.75
   1 -10  -5   65.11    2.61
  -1  10   5   72.12    3.16
  -1  10   5   69.32    3.21
  -1  10   5   65.75    2.65
   0 -10  -5   13.38    0.70
   0 -10  -5   13.69    0.93
   0 -10  -5   14.87    1.08
   0  10   5   14.33    0.81
   0  10   5   14.63    1.38
   0  10   5   14.06    1.26
  -1 -10  -5  186.62    5.12
  -1 -10  -5  181.29    4.88
  -1 -10  -5  181.04    4.86
  -1 -10  -5  166.87    5.58
   1  10   5  183.09    5.93
   1  10   5  191.70    5.88
  -2 -10  -5   18.47    0.78
  -2 -10  -5   19.12    0.91
  -2 -10  -5   18.38    1.36
  -2 -10  -5   16.49    1.11
  -2 -10  -5   19.06    1.04
   2  10   5   20.98    1.54
   2  10   5   25.49    2.88
   2  10   5   18.76    1.22
  -3 -10  -5  151.58    3.94
  -3 -10  -5  142.00    4.48
  -3 -10  -5  157.93    5.34
  -3 -10  -5  149.00    4.21
  -3 -10  -5  142.32    3.93
  -3 -10  -5  148.66    3.95
   3  10   5  155.13    5.08
   3  10   5  153.80    4.83
  -4 -10  -5    0.12    0.45
  -4 -10  -5    0.36    0.20
  -4 -10  -5   -0.09    0.29
  -4 -10  -5    0.31    0.27
  -4 -10  -5    0.41    0.44
  -4 -10  -5    0.30    0.46
   4  10   5   -0.32    0.34
   4  10   5    0.58    0.40
   4  10   5    0.63    0.35
  -5 -10  -5  113.64    3.31
  -5 -10  -5  113.57    3.51
  -5 -10  -5  113.18    4.39
   5  10   5  114.20    4.29
   5  10   5  119.91    4.45
   5  10   5  113.52    4.38
  -6 -10  -5   18.19    1.60
  -6 -10  -5   14.13    1.02
  -6 -10  -5   13.42    0.98
   6  10   5   15.52    1.44
   6  10   5   13.43    1.45
  -7 -10  -5   62.85    2.63
  -7 -10  -5   68.48    3.38
  -7 -10  -5   66.65    2.59
   7  10   5   63.32    3.24
  -8 -10  -5   25.68    2.09
  -8 -10  -5   31.11    1.81
   8  10   5   31.09    2.45
  -9 -10  -5   28.23    2.46
  -9 -10  -5   26.21    1.87
   9  10   5   25.98    2.40
   9  10   5   23.33    2.46
   4 -11  -5   15.39    1.81
  -4  11   5   14.14    1.96
  -4  11   5   13.66    1.99
   3 -11  -5   33.64    2.25
  -3  11   5   26.92    2.23
   2 -11  -5    6.71    1.12
  -2  11   5    5.52    1.15
  -2  11   5    5.73    1.13
   1 -11  -5   70.18    2.95
   1 -11  -5   67.71    2.79
  -1  11   5   70.51    3.36
  -1  11   5   68.04    3.34
  -1  11   5   64.64    2.80
   0 -11  -5    0.47    0.35
   0 -11  -5    0.99    0.44
   0  11   5   -0.33    0.46
   0  11   5    0.01    0.58
   0  11   5    0.10    0.53
  -1 -11  -5  113.36    3.75
  -1 -11  -5  114.82    3.60
   1  11   5  110.19    4.26
   1  11   5  107.02    4.33
  -2 -11  -5    7.02    0.94
  -2 -11  -5    7.55    0.88
  -2 -11  -5    7.30    0.81
  -2 -11  -5    7.72    0.68
   2  11   5    5.84    1.08
   2  11   5    7.80    1.21
   2  11   5    8.35    0.97
  -3 -11  -5  138.75    3.63
  -3 -11  -5  135.54    3.52
  -3 -11  -5  139.23    3.87
  -3 -11  -5  140.60    5.25
  -3 -11  -5  133.05    4.16
  -3 -11  -5  138.25    3.82
   3  11   5  131.69    4.45
   3  11   5  142.62    4.97
  -4 -11  -5    9.82    0.75
  -4 -11  -5   10.11    1.44
  -4 -11  -5    8.61    0.80
  -4 -11  -5    8.19    0.94
  -4 -11  -5    7.77    0.68
  -4 -11  -5    9.19    0.69
   4  11   5    8.05    1.11
   4  11   5    8.81    1.27
  -5 -11  -5   48.71    1.80
  -5 -11  -5   47.90    2.09
  -5 -11  -5   44.67    1.97
  -5 -11  -5   51.78    2.85
   5  11   5   48.89    2.59
   5  11   5   47.18    2.24
   5  11   5   47.48    2.68
  -6 -11  -5   32.12    1.56
  -6 -11  -5   30.26    2.25
  -6 -11  -5   33.73    1.55
  -6 -11  -5   33.47    1.73
   6  11   5   34.01    2.06
   6  11   5   29.80    2.17
  -7 -11  -5   16.42    1.28
  -7 -11  -5   17.50    2.05
  -7 -11  -5   14.10    1.13
   7  11   5   15.00    1.77
   7  11   5   12.35    1.64
  -8 -11  -5   40.07    2.05
  -8 -11  -5   39.92    2.73
   8  11   5   40.30    2.74
   8  11   5   38.66    2.76
   2 -12  -5   -0.14    0.60
  -2  12   5   -0.73    0.63
  -2  12   5    0.87    0.77
   1 -12  -5   85.40    3.53
  -1  12   5   79.19    4.29
  -1  12   5   82.64    3.88
   0 -12  -5    3.31    0.75
   0 -12  -5    3.31    0.67
   0  12   5    5.25    1.17
   0  12   5    3.44    0.97
  -1 -12  -5   82.34    3.21
   1  12   5   83.81    3.80
   1  12   5   79.45    3.66
  -2 -12  -5   25.77    1.63
  -2 -12  -5   29.47    1.67
  -2 -12  -5   27.64    1.43
   2  12   5   26.82    2.10
   2  12   5   27.01    1.96
  -3 -12  -5   49.22    2.11
  -3 -12  -5   53.89    2.09
  -3 -12  -5   59.57    3.28
  -3 -12  -5   53.10    1.98
   3  12   5   56.28    2.93
   3  12   5   55.62    2.47
  -4 -12  -5   56.45    1.79
  -4 -12  -5   59.87    1.96
  -4 -12  -5   59.84    2.11
  -4 -12  -5   58.17    3.22
  -4 -12  -5   55.38    2.12
  -4 -12  -5   56.34    2.22
   4  12   5   62.72    2.80
   4  12   5   63.32    3.18
  -5 -12  -5   22.36    1.35
  -5 -12  -5   25.61    1.41
  -5 -12  -5   21.26    1.99
   5  12   5   26.03    1.88
   5  12   5   23.94    1.99
  -6 -12  -5   57.68    2.53
  -6 -12  -5   57.39    2.20
  -6 -12  -5   53.47    3.17
   6  12   5   58.53    2.56
   6  12   5   55.93    3.05
   6  12   5   57.26    3.21
  -7 -12  -5    4.31    0.77
  -7 -12  -5    3.15    1.01
   7  12   5    3.09    0.96
   7  12   5    3.60    1.01
  -8 -12  -5   46.36    2.23
  -8 -12  -5   44.60    3.16
   8  12   5   42.91    3.00
   8  12   5   43.85    2.79
   1 -13  -5   51.44    2.92
  -1  13   5   49.96    3.66
  -1  13   5   53.21    4.62
   0 -13  -5   19.85    1.67
   0  13   5   18.76    2.19
   0  13   5   21.60    1.95
  -1 -13  -5   36.54    2.17
   1  13   5   32.01    2.36
   1  13   5   31.79    2.36
  -2 -13  -5   45.30    2.11
  -2 -13  -5   45.73    2.31
   2  13   5   47.54    2.83
  -3 -13  -5   12.52    1.02
  -3 -13  -5   12.14    1.06
  -3 -13  -5   12.95    1.95
   3  13   5   15.72    1.93
   3  13   5   12.96    1.25
  -4 -13  -5   63.17    2.36
  -4 -13  -5   66.33    2.42
  -4 -13  -5   70.02    3.81
   4  13   5   63.60    3.38
   4  13   5   59.63    2.93
  -5 -13  -5    3.12    1.04
  -5 -13  -5    6.05    0.71
  -5 -13  -5    4.13    0.74
  -5 -13  -5    4.50    0.68
   5  13   5    5.20    1.09
   5  13   5    4.11    1.84
  -6 -13  -5   43.86    1.88
  -6 -13  -5   36.95    2.80
   6  13   5   42.53    2.88
   6  13   5   39.85    2.61
  -7 -13  -5    1.11    0.84
  -7 -13  -5   -0.29    0.42
   7  13   5    0.46    0.90
  -1 -14  -5   13.85    1.63
   1  14   5   12.12    2.13
   1  14   5   16.78    2.09
  -2 -14  -5   34.69    2.10
   2  14   5   33.78    2.56
  -3 -14  -5    9.73    1.88
  -3 -14  -5    9.83    1.03
   3  14   5    6.57    1.39
  -4 -14  -5   34.35    2.87
  -4 -14  -5   34.02    1.72
   4  14   5   35.53    2.23
   4  14   5   30.07    2.49
  -5 -14  -5    0.25    0.44
  -5 -14  -5    1.56    0.93
   5  14   5   -0.18    0.79
   5  14   5    1.50    0.98
  -6 -14  -5   27.30    4.38
  -6 -14  -5   34.55    1.71
   6  14   5   33.06    2.68
   6  14   5   29.19    2.42
   4   9  -6   42.03    2.53
   4   9  -6   41.34    4.33
   4   9  -6   45.39    2.98
  -4  -9   6   41.66    2.83
   3   9  -6    0.24    0.79
   3   9  -6    0.06    1.48
   3   9  -6    1.21    1.00
  -3  -9   6    0.93    1.10
  -3  -9   6    0.28    0.88
  -3  -9   6    0.17    0.91
   2   9  -6   31.10    2.27
   2   9  -6   28.71    3.08
   2   9  -6   30.30    2.30
  -2  -9   6   35.84    2.63
  -2  -9   6   30.47    2.97
  -2  -9   6   36.04    2.50
   6   8  -6   40.46    2.35
   6   8  -6   32.54    3.02
   6   8  -6   38.51    2.83
  -6  -8   6   35.38    2.98
  -6  -8   6   39.18    2.68
   5   8  -6    3.72    0.94
   5   8  -6    5.97    1.38
   5   8  -6    3.85    0.89
   5   8  -6    4.31    1.15
  -5  -8   6    4.86    0.94
  -5  -8   6    2.72    1.03
  -5  -8   6    2.12    1.13
   4   8  -6   37.02    2.56
   4   8  -6   41.75    2.87
   4   8  -6   36.61    1.85
   4   8  -6   42.57    2.36
  -4  -8   6   38.44    2.80
  -4  -8   6   35.08    2.13
  -4  -8   6   32.91    2.34
   3   8  -6    7.35    0.91
   3   8  -6    7.79    1.54
   3   8  -6    7.54    1.19
  -3  -8   6    7.73    1.35
  -3  -8   6    8.16    1.33
  -3  -8   6    8.32    1.47
   2   8  -6   44.84    2.48
   2   8  -6   43.77    3.08
   2   8  -6   43.59    1.85
  -2  -8   6   40.62    2.89
  -2  -8   6   47.99    2.82
  -2  -8   6   45.82    2.78
   1   8  -6    8.11    1.62
   1   8  -6    7.72    1.27
  -1  -8   6    7.99    1.52
  -1  -8   6    9.75    1.60
  -1  -8   6    7.85    1.39
   0   8  -6   25.94    2.68
   0   8  -6   32.65    2.33
   0  -8   6   29.52    2.57
  -1   8  -6   11.79    2.40
  -1   8  -6   14.79    1.88
   1  -8   6   17.06    2.20
   7   7  -6   -0.06    1.25
   7   7  -6    1.72    0.86
   7   7  -6   -0.58    0.94
  -7  -7   6   -0.43    0.83
  -7  -7   6    1.53    0.89
   6   7  -6   45.66    3.12
   6   7  -6   50.65    2.61
   6   7  -6   52.29    3.18
  -6  -7   6   51.63    3.33
  -6  -7   6   56.51    3.18
   5   7  -6    4.31    0.86
   5   7  -6    4.36    1.29
   5   7  -6    4.39    0.86
  -5  -7   6    4.88    0.84
  -5  -7   6    4.73    1.21
  -5  -7   6    4.55    1.03
   4   7  -6   56.83    2.56
   4   7  -6   50.24    2.29
   4   7  -6   52.46    3.12
  -4  -7   6   47.42    2.77
  -4  -7   6   50.77    3.14
  -4  -7   6   52.59    2.48
   3   7  -6   13.90    1.97
   3   7  -6   12.33    1.38
   3   7  -6   14.56    1.11
  -3  -7   6   11.80    1.74
  -3  -7   6   12.91    1.57
  -3  -7   6   10.75    1.68
   2   7  -6   27.07    2.26
   2   7  -6   27.92    1.89
   2   7  -6   24.28    2.16
  -2  -7   6   30.19    2.13
  -2  -7   6   28.98    2.04
  -2  -7   6   31.43    2.41
   1   7  -6   40.13    2.22
   1   7  -6   32.32    2.58
   1   7  -6   30.54    2.28
  -1  -7   6   35.27    2.39
  -1  -7   6   33.07    2.51
   0   7  -6   17.27    2.33
   0   7  -6   16.78    1.65
   0   7  -6   13.35    1.67
   0  -7   6   13.99    1.94
  -1   7  -6   43.42    2.63
  -1   7  -6   42.75    3.08
   1  -7   6   43.42    3.09
   1  -7   6   39.99    1.96
  -2   7  -6    3.90    0.85
  -2   7  -6    4.21    1.49
  -2   7  -6    4.02    1.13
   2  -7   6    3.70    0.91
   2  -7   6    4.92    1.35
   7   6  -6    5.20    1.00
   7   6  -6    4.26    1.32
   7   6  -6    4.09    1.32
  -7  -6   6    5.04    1.19
  -7  -6   6    6.27    1.45
   6   6  -6   41.79    2.87
   6   6  -6   41.85    2.78
  -6  -6   6   36.31    2.58
  -6  -6   6   42.32    2.91
  -6  -6   6   41.85    1.65
   5   6  -6   18.78    1.41
   5   6  -6   18.00    1.40
   5   6  -6   19.42    1.93
  -5  -6   6   23.37    3.30
  -5  -6   6   15.94    2.01
  -5  -6   6   17.90    1.36
   4   6  -6   51.06    2.28
   4   6  -6   43.86    2.74
   4   6  -6   47.23    2.18
  -4  -6   6   46.68    3.74
  -4  -6   6   49.59    2.60
  -4  -6   6   45.72    2.25
   3   6  -6   48.62    2.13
   3   6  -6   51.49    2.35
   3   6  -6   45.72    2.78
  -3  -6   6   49.26    2.56
  -3  -6   6   52.05    2.49
  -3  -6   6   49.19    2.92
   2   6  -6   28.60    1.73
   2   6  -6   23.83    1.98
   2   6  -6   25.97    1.63
  -2  -6   6   26.11    1.86
  -2  -6   6   23.80    1.80
  -2  -6   6   25.54    2.10
   1   6  -6   64.36    2.53
   1   6  -6   75.20    3.55
   1   6  -6   68.24    4.28
  -1  -6   6   66.30    3.09
  -1  -6   6   74.12    3.57
  -1  -6   6   65.86    3.22
   0   6  -6    4.46    0.73
   0   6  -6    4.48    0.96
   0   6  -6    4.96    1.19
   0  -6   6    3.95    0.64
   0  -6   6    4.18    1.13
  -1   6  -6   66.60    3.62
  -1   6  -6   69.56    2.59
  -1   6  -6   66.43    3.16
   1  -6   6   64.20    3.98
  -2   6  -6    1.00    0.58
  -2   6  -6    1.56    0.74
  -2   6  -6    1.19    0.98
   2  -6   6    0.70    0.67
   2  -6   6    0.01    0.88
  -3   6  -6   43.50    2.26
  -3   6  -6   46.84    2.99
  -3   6  -6   44.56    3.40
   3  -6   6   48.58    3.21
   3  -6   6   43.67    2.50
   8   5  -6   44.53    2.62
   8   5  -6   43.29    3.15
  -8  -5   6   46.07    3.13
  -8  -5   6   44.63    2.99
   7   5  -6   15.37    1.87
   7   5  -6   14.89    1.65
   7   5  -6   18.86    2.01
  -7  -5   6   17.68    2.21
  -7  -5   6   18.42    1.87
   6   5  -6   34.53    2.29
   6   5  -6   31.59    2.34
  -6  -5   6   37.44    2.58
  -6  -5   6   32.58    2.52
  -6  -5   6   31.73    1.38
   5   5  -6   33.38    1.65
   5   5  -6   34.51    2.38
   5   5  -6   36.31    2.01
  -5  -5   6   35.77    1.73
  -5  -5   6   40.89    2.61
  -5  -5   6   35.29    2.23
   4   5  -6    8.80    0.74
   4   5  -6    9.44    0.90
   4   5  -6    8.22    1.30
   4   5  -6   10.77    1.19
  -4  -5   6    7.78    1.30
  -4  -5   6    8.67    1.26
  -4  -5   6    7.87    1.04
   3   5  -6   83.22    2.49
   3   5  -6   91.67    3.95
   3   5  -6   86.87    3.10
   3   5  -6   89.26    3.17
  -3  -5   6   89.65    3.92
  -3  -5   6   86.52    3.36
  -3  -5   6   90.72    3.49
   2   5  -6    4.42    0.74
   2   5  -6    6.34    1.16
   2   5  -6    6.94    0.90
  -2  -5   6    4.32    0.82
  -2  -5   6    5.83    0.94
  -2  -5   6    4.28    1.01
   1   5  -6   86.43    3.05
   1   5  -6   89.08    3.28
   1   5  -6   92.39    3.94
  -1  -5   6   89.14    3.88
  -1  -5   6   80.42    3.32
  -1  -5   6   84.08    3.61
   0   5  -6    0.21    0.50
   0   5  -6    0.48    0.38
   0  -5   6    0.50    0.56
   0  -5   6    0.49    0.64
   0  -5   6    1.29    0.42
  -1   5  -6   73.62    2.72
  -1   5  -6   76.39    3.71
  -1   5  -6   68.78    3.08
   1  -5   6   70.38    3.52
   1  -5   6   71.74    2.65
  -2   5  -6   12.91    1.19
  -2   5  -6   14.41    2.03
  -2   5  -6   12.05    1.46
  -2   5  -6   13.13    1.73
   2  -5   6   13.90    1.33
   2  -5   6   11.84    1.75
   2  -5   6   13.21    1.31
  -3   5  -6   42.52    2.19
  -3   5  -6   42.79    3.05
  -3   5  -6   40.77    2.52
   3  -5   6   42.29    3.23
   3  -5   6   40.20    2.34
  -4   5  -6   26.10    1.92
  -4   5  -6   22.36    2.40
  -4   5  -6   24.63    2.20
   4  -5   6   22.41    2.29
   4  -5   6   21.60    1.93
   8   4  -6   29.84    2.14
   8   4  -6   29.78    2.54
   8   4  -6   21.69    2.11
  -8  -4   6   30.99    2.53
  -8  -4   6   29.24    2.37
   7   4  -6   39.12    2.64
   7   4  -6   43.11    2.81
   7   4  -6   38.05    2.32
  -7  -4   6   40.82    2.64
  -7  -4   6   41.26    2.77
   6   4  -6   11.51    1.34
   6   4  -6   15.49    1.86
  -6  -4   6   13.03    0.81
  -6  -4   6   14.65    1.91
  -6  -4   6   13.41    1.42
   5   4  -6   71.52    3.38
   5   4  -6   69.78    2.92
   5   4  -6   63.90    2.60
  -5  -4   6   74.02    3.24
  -5  -4   6   68.24    2.53
  -5  -4   6   79.71    3.61
   4   4  -6    0.73    0.55
   4   4  -6    0.68    0.38
   4   4  -6    0.23    0.41
   4   4  -6    1.32    0.45
  -4  -4   6    0.94    0.48
  -4  -4   6    0.78    0.51
  -4  -4   6    0.57    0.42
   3   4  -6  123.26    3.66
   3   4  -6  130.38    4.10
   3   4  -6  124.96    4.76
   3   4  -6  128.31    3.87
  -3  -4   6  129.54    4.78
  -3  -4   6  124.72    4.24
   2   4  -6   25.41    1.22
   2   4  -6   25.70    1.91
   2   4  -6   26.06    1.38
  -2  -4   6   25.15    1.56
  -2  -4   6   23.66    1.57
  -2  -4   6   26.65    1.85
   1   4  -6  210.26    6.69
   1   4  -6  194.47    5.44
   1   4  -6  206.58    6.29
   1   4  -6  202.71    5.82
  -1  -4   6  202.48    5.65
  -1  -4   6  209.28    6.41
  -1  -4   6  206.73    6.60
   0   4  -6   27.08    1.92
   0   4  -6   28.40    1.65
   0   4  -6   30.40    1.59
   0  -4   6   27.59    1.95
   0  -4   6   27.88    1.86
   0  -4   6   26.98    1.69
   0  -4   6   27.07    1.46
  -1   4  -6   91.92    3.15
  -1   4  -6   80.68    3.75
  -1   4  -6   87.76    3.37
   1  -4   6   82.70    3.17
   1  -4   6   88.88    3.81
   1  -4   6   82.26    2.75
  -2   4  -6   47.10    2.82
  -2   4  -6   44.69    2.10
  -2   4  -6   43.74    2.34
   2  -4   6   47.74    2.29
   2  -4   6   44.66    2.64
   2  -4   6   41.45    1.75
  -3   4  -6   20.87    1.74
  -3   4  -6   19.75    2.01
  -3   4  -6   18.17    1.45
   3  -4   6   20.68    1.59
   3  -4   6   22.69    1.98
  -4   4  -6   44.56    3.04
  -4   4  -6   45.06    2.77
  -4   4  -6   45.33    2.37
   4  -4   6   42.27    2.84
  -5   4  -6    1.12    0.87
  -5   4  -6    0.96    0.95
   5  -4   6    1.59    0.92
   5  -4   6    3.27    1.21
   8   3  -6    7.81    1.49
   8   3  -6    7.21    1.35
   8   3  -6   11.18    1.51
  -8  -3   6   12.18    1.73
  -8  -3   6   12.61    1.77
   7   3  -6   69.37    3.22
   7   3  -6   76.72    3.72
   7   3  -6   71.23    3.72
  -7  -3   6   74.12    3.63
   6   3  -6    2.25    0.73
   6   3  -6    2.45    0.75
  -6  -3   6    3.46    0.88
  -6  -3   6    4.68    1.00
   5   3  -6  124.96    4.70
   5   3  -6  122.20    4.25
  -5  -3   6  131.95    4.86
  -5  -3   6  118.60    3.75
  -5  -3   6  128.34    4.50
   4   3  -6    3.85    0.74
   4   3  -6    4.71    0.96
  -4  -3   6    3.95    0.86
  -4  -3   6    4.37    0.76
  -4  -3   6    4.68    0.75
   3   3  -6  141.21    5.47
   3   3  -6  142.72    4.27
   3   3  -6  151.70    4.58
   3   3  -6  144.51    4.10
  -3  -3   6  148.59    5.12
  -3  -3   6  144.36    4.23
  -3  -3   6  142.87    4.55
   2   3  -6   58.62    2.17
   2   3  -6   61.24    2.15
   2   3  -6   57.36    2.38
   2   3  -6   59.65    2.85
  -2  -3   6   64.92    2.96
  -2  -3   6   62.18    2.35
  -2  -3   6   60.35    2.37
  -2  -3   6   58.72    2.86
   1   3  -6  105.61    3.37
   1   3  -6  102.94    3.31
   1   3  -6  116.32    4.76
   1   3  -6  110.81    3.92
  -1  -3   6  104.57    4.07
  -1  -3   6  109.04    3.53
  -1  -3   6  112.14    3.93
  -1  -3   6  107.66    3.31
   0   3  -6   97.89    3.34
   0   3  -6   95.38    3.21
   0   3  -6   97.39    3.69
   0   3  -6  113.26    4.14
   0  -3   6  100.02    3.36
   0  -3   6   93.91    2.97
   0  -3   6  100.89    3.36
   0  -3   6  103.22    3.92
   0  -3   6   97.51    3.82
  -1   3  -6   51.67    2.46
  -1   3  -6   52.30    2.72
  -1   3  -6   51.43    2.66
  -1   3  -6   53.61    2.31
   1  -3   6   54.18    2.28
   1  -3   6   49.74    2.23
   1  -3   6   50.35    1.79
   1  -3   6   43.48    3.09
  -2   3  -6   79.81    3.64
  -2   3  -6   81.78    3.26
  -2   3  -6   77.73    2.98
   2  -3   6   83.23    3.54
   2  -3   6   76.43    3.07
  -3   3  -6    5.78    0.90
  -3   3  -6    6.42    1.26
  -3   3  -6    6.48    1.13
   3  -3   6    5.97    1.01
   3  -3   6    5.80    1.07
  -4   3  -6   66.53    2.21
  -4   3  -6   72.50    3.74
   4  -3   6   71.75    3.48
   4  -3   6   73.26    3.29
  -5   3  -6    0.32    0.71
  -5   3  -6   -0.26    0.38
   5  -3   6   -0.19    0.70
   5  -3   6    0.41    0.84
  -6   3  -6   36.36    2.95
   6  -3   6   38.28    2.67
   6  -3   6   35.98    2.93
   9   2  -6   36.35    2.82
   9   2  -6   39.01    2.62
   9   2  -6   38.64    3.03
  -9  -2   6   43.28    3.03
   8   2  -6   -0.69    0.62
   8   2  -6    0.28    0.76
   8   2  -6    0.14    0.88
  -8  -2   6   -0.10    0.78
  -8  -2   6   -1.07    0.66
   7   2  -6   87.06    3.96
   7   2  -6   87.45    3.66
   7   2  -6   89.77    4.08
  -7  -2   6   81.85    3.91
  -7  -2   6   84.85    3.97
   6   2  -6    6.55    1.08
   6   2  -6    9.17    1.22
  -6  -2   6   11.29    1.58
  -6  -2   6    8.35    1.26
   5   2  -6  133.42    4.51
   5   2  -6  141.05    4.94
  -5  -2   6  139.84    4.09
  -5  -2   6  131.84    4.90
  -5  -2   6  136.94    4.71
   4   2  -6   46.09    2.40
   4   2  -6   49.06    2.21
   4   2  -6   43.17    1.97
  -4  -2   6   43.84    1.58
  -4  -2   6   47.02    1.96
  -4  -2   6   42.29    2.39
  -4  -2   6   49.85    2.86
   3   2  -6   98.45    3.34
   3   2  -6   93.09    2.73
   3   2  -6   90.36    3.12
  -3  -2   6   96.80    3.25
  -3  -2   6   92.77    3.26
  -3  -2   6   92.90    2.81
  -3  -2   6   98.17    3.73
   2   2  -6  103.41    3.44
   2   2  -6   92.42    3.62
   2   2  -6  101.38    3.24
   2   2  -6   99.56    2.86
  -2  -2   6   98.12    3.47
  -2  -2   6   96.98    3.69
  -2  -2   6  101.61    3.22
   1   2  -6   20.72    1.19
   1   2  -6   21.39    1.29
   1   2  -6   18.87    1.38
  -1  -2   6   22.62    1.16
  -1  -2   6   20.84    1.40
  -1  -2   6   21.24    1.47
  -1  -2   6   21.31    1.10
   0   2  -6  171.65    5.05
   0   2  -6  176.19    5.17
   0   2  -6  176.67    5.56
   0   2  -6  178.99    6.16
   0   2  -6  185.14    5.77
   0  -2   6  177.06    5.18
   0  -2   6  178.25    5.60
   0  -2   6  178.32    5.61
   0  -2   6  175.62    4.62
  -1   2  -6    6.16    1.01
  -1   2  -6    8.24    0.79
  -1   2  -6    7.80    0.93
  -1   2  -6    8.83    1.19
  -1   2  -6    9.07    1.00
  -1   2  -6    6.39    0.96
   1  -2   6    8.73    0.93
   1  -2   6    7.17    0.74
   1  -2   6    9.49    1.29
   1  -2   6    7.80    0.99
   1  -2   6    7.63    0.54
  -2   2  -6  112.57    4.30
  -2   2  -6  115.35    3.85
  -2   2  -6  116.69    4.40
   2  -2   6  112.00    4.19
   2  -2   6  111.75    3.75
   2  -2   6  117.70    3.99
  -3   2  -6    0.14    0.44
   3  -2   6    0.56    0.48
   3  -2   6    0.67    0.41
  -4   2  -6   46.40    1.55
  -4   2  -6   49.38    2.79
   4  -2   6   45.08    2.45
   4  -2   6   45.29    2.53
  -5   2  -6    1.93    0.42
  -5   2  -6    1.89    0.92
   5  -2   6    1.84    0.76
   5  -2   6    3.58    0.92
  -6   2  -6   20.51    1.13
  -6   2  -6   22.27    2.12
   6  -2   6   18.77    2.15
   6  -2   6   18.18    1.91
   9   1  -6   44.26    2.87
   9   1  -6   44.56    3.05
   9   1  -6   41.43    3.16
  -9  -1   6   49.45    3.34
   8   1  -6    5.86    1.26
   8   1  -6    6.54    1.38
   8   1  -6    4.83    0.98
  -8  -1   6    8.11    1.50
  -8  -1   6    9.05    1.51
   7   1  -6   57.90    2.81
   7   1  -6   57.20    3.04
   7   1  -6   55.20    2.76
   7   1  -6   54.80    3.06
  -7  -1   6   55.16    3.03
   6   1  -6   49.86    2.44
   6   1  -6   51.09    2.70
  -6  -1   6   49.88    2.67
  -6  -1   6   48.90    2.63
   5   1  -6   48.95    2.26
   5   1  -6   47.89    2.46
  -5  -1   6   45.13    2.33
  -5  -1   6   48.48    1.96
  -5  -1   6   45.91    2.43
   4   1  -6  102.49    3.48
   4   1  -6   93.27    4.39
   4   1  -6  111.70    3.97
   4   1  -6  108.06    3.65
  -4  -1   6  105.02    3.89
  -4  -1   6  106.77    2.87
  -4  -1   6  103.08    3.99
  -4  -1   6  104.71    3.39
   3   1  -6   29.21    1.53
   3   1  -6   27.24    1.45
   3   1  -6   24.04    1.30
   3   1  -6   25.66    1.60
   3   1  -6   27.37    1.71
  -3  -1   6   27.19    1.66
  -3  -1   6   26.21    0.93
  -3  -1   6   23.64    1.32
  -3  -1   6   26.42    1.44
   2   1  -6  163.22    5.28
   2   1  -6  177.15    4.29
   2   1  -6  171.56    4.99
   2   1  -6  174.82    5.42
  -2  -1   6  169.24    5.14
  -2  -1   6  176.34    4.78
  -2  -1   6  158.51    4.98
  -2  -1   6  203.47    7.17
  -2  -1   6  173.43    5.36
   1   1  -6   17.48    1.31
   1   1  -6   17.34    1.08
   1   1  -6   16.74    1.11
   1   1  -6   15.24    0.76
   1   1  -6   17.41    1.26
  -1  -1   6   15.52    1.09
  -1  -1   6   13.39    1.18
  -1  -1   6   16.92    1.21
  -1  -1   6   17.57    0.90
  -1  -1   6   16.99    1.22
   0   1  -6  154.05    5.14
   0   1  -6  150.61    4.49
   0   1  -6  151.74    4.99
   0   1  -6  151.24    4.20
   0   1  -6  147.68    4.79
   0  -1   6  147.01    4.81
   0  -1   6  154.21    4.63
   0  -1   6  152.25    3.90
   0  -1   6  154.68    4.83
  -1   1  -6    1.25    0.47
  -1   1  -6    1.55    0.46
  -1   1  -6    1.26    0.37
  -1   1  -6    4.52    0.96
  -1   1  -6    1.50    0.49
   1  -1   6    1.11    0.37
   1  -1   6    1.60    0.48
   1  -1   6    1.70    0.41
   1  -1   6    1.70    0.51
   1  -1   6    1.97    0.24
  -2   1  -6  120.96    4.29
  -2   1  -6  124.83    3.96
  -2   1  -6  112.08    3.98
  -2   1  -6  114.68    4.12
   2  -1   6  110.41    4.19
   2  -1   6  118.73    3.67
   2  -1   6  123.39    4.13
   2  -1   6  114.46    4.08
  -3   1  -6    6.84    1.04
   3  -1   6    6.66    0.99
   3  -1   6    6.94    0.91
   3  -1   6    8.34    1.12
  -4   1  -6   51.33    2.75
   4  -1   6   47.93    2.55
   4  -1   6   53.29    2.61
  -5   1  -6   22.42    1.93
  -5   1  -6   21.57    0.97
   5  -1   6   25.86    2.23
   5  -1   6   23.52    1.75
  -6   1  -6   20.26    1.10
  -6   1  -6   23.67    2.14
   6  -1   6   21.86    1.89
   6  -1   6   21.71    1.88
  -7   1  -6   15.85    1.97
   7  -1   6   15.15    2.03
   7  -1   6   13.26    1.89
   7  -1   6   14.01    1.90
   8   0  -6   44.59    2.76
   8   0  -6   40.71    2.53
   8   0  -6   41.78    2.10
   8   0  -6   45.38    2.89
  -8   0   6   38.21    2.80
   7   0  -6   46.05    2.53
   7   0  -6   49.63    2.86
   7   0  -6   56.81    2.97
  -7   0   6   49.79    4.30
  -7   0   6   52.24    2.88
   6   0  -6  105.83    4.15
   6   0  -6  104.55    3.90
   6   0  -6   98.43    3.39
  -6   0   6  100.99    4.09
  -6   0   6  100.76    4.08
   5   0  -6   22.06    1.46
   5   0  -6   21.94    1.29
   5   0  -6   21.80    1.59
  -5   0   6   19.95    1.49
  -5   0   6   23.69    1.66
   4   0  -6  180.27    5.29
   4   0  -6  170.29    5.40
   4   0  -6  183.74    5.56
   4   0  -6  176.11    5.08
   4   0  -6  168.23    5.04
  -4   0   6  176.35    5.27
  -4   0   6  179.81    5.50
  -4   0   6  163.83    4.36
  -4   0   6  176.47    5.03
   3   0  -6    0.51    0.42
   3   0  -6    0.77    0.45
   3   0  -6    0.06    0.27
   3   0  -6    0.43    0.29
   3   0  -6    0.64    0.43
  -3   0   6    0.96    0.34
  -3   0   6    0.48    0.14
  -3   0   6    0.78    0.34
  -3   0   6    0.65    0.35
   2   0  -6  210.92    6.07
   2   0  -6  221.87    6.14
   2   0  -6  222.56    6.63
   2   0  -6  216.37    6.29
   2   0  -6  218.99    6.25
  -2   0   6  214.63    6.23
  -2   0   6  212.11    6.04
  -2   0   6  233.90    6.36
  -2   0   6  221.29    5.71
  -2   0   6  220.61    6.18
   1   0  -6   30.50    1.54
   1   0  -6   34.40    1.62
   1   0  -6   31.10    0.94
   1   0  -6   30.01    1.64
   1   0  -6   29.86    1.61
  -1   0   6   32.99    1.18
  -1   0   6   29.99    1.60
  -1   0   6   29.66    1.53
  -1   0   6   28.71    1.62
  -1   0   6   27.77    1.56
   0   0  -6  210.68    5.30
   0   0  -6  204.06    6.02
   0   0  -6  221.83    6.19
   0   0  -6  210.63    5.90
   0   0  -6  204.37    5.86
   0   0   6  210.31    6.00
   0   0   6  213.06    6.15
   0   0   6  209.25    5.32
   0   0   6  207.44    6.06
   0   0   6  214.28    6.03
   0   0   6  209.47    5.19
  -1   0  -6   27.56    1.66
  -1   0  -6   25.06    1.76
  -1   0  -6   24.28    1.42
  -1   0  -6   27.06    1.45
  -1   0  -6   27.11    1.55
   1   0   6   28.18    1.55
   1   0   6   26.33    1.50
   1   0   6   28.60    1.65
   1   0   6   25.51    1.09
  -2   0  -6   97.79    3.58
  -2   0  -6   94.93    3.75
  -2   0  -6  106.87    3.70
  -2   0  -6   94.73    3.49
   2   0   6  103.39    3.54
   2   0   6  105.39    3.80
   2   0   6   98.24    3.05
  -3   0  -6   28.67    1.74
  -3   0  -6   23.87    1.61
   3   0   6   26.81    1.43
   3   0   6   25.49    1.61
   3   0   6   30.46    1.89
   3   0   6   26.84    1.69
  -4   0  -6   44.45    2.34
  -4   0  -6   47.02    2.45
   4   0   6   46.29    2.41
   4   0   6   45.14    2.26
   4   0   6   47.34    2.51
  -5   0  -6   19.13    0.87
  -5   0  -6   18.19    1.38
   5   0   6   21.09    1.79
   5   0   6   19.48    1.68
   5   0   6   20.47    1.58
  -6   0  -6   12.18    1.48
  -6   0  -6   10.15    0.77
  -6   0  -6   11.20    1.49
   6   0   6   10.03    1.50
   6   0   6    9.48    1.48
   6   0   6    8.24    1.42
  -7   0  -6   23.59    1.94
  -7   0  -6   24.78    2.18
   7   0   6   22.85    2.22
   7   0   6   22.81    2.13
   7   0   6   19.97    2.02
   7   0   6   21.74    1.95
   8  -1  -6   30.21    2.12
   8  -1  -6   28.33    2.30
   8  -1  -6   29.31    2.24
   8  -1  -6   27.39    1.93
  -8   1   6   31.49    2.43
  -8   1   6   29.52    2.41
  -8   1   6   28.90    2.39
   7  -1  -6   23.15    1.76
   7  -1  -6   19.19    1.74
   7  -1  -6   24.16    1.98
  -7   1   6   24.05    1.92
  -7   1   6   20.15    1.90
   6  -1  -6   63.63    3.02
   6  -1  -6   60.89    2.79
  -6   1   6   58.88    2.92
  -6   1   6   61.88    3.03
   5  -1  -6    6.82    0.96
   5  -1  -6    6.30    0.96
   5  -1  -6    7.32    0.92
  -5   1   6    7.93    1.14
  -5   1   6    7.50    1.09
   4  -1  -6   99.38    3.43
   4  -1  -6   96.08    3.22
   4  -1  -6  100.33    3.60
   4  -1  -6   93.94    3.22
   4  -1  -6   97.72    3.52
  -4   1   6   99.70    3.46
  -4   1   6   95.33    3.24
  -4   1   6   94.80    2.69
  -4   1   6   99.49    3.56
   3  -1  -6   18.39    1.22
   3  -1  -6   17.34    0.98
   3  -1  -6   15.33    1.09
   3  -1  -6   18.09    1.13
   3  -1  -6   16.48    1.18
  -3   1   6   16.83    1.04
  -3   1   6   16.55    1.16
  -3   1   6   16.99    0.59
  -3   1   6   17.66    1.12
   2  -1  -6  119.80    3.89
   2  -1  -6  121.44    3.83
   2  -1  -6  120.53    3.86
   2  -1  -6  118.49    3.81
   2  -1  -6  123.16    3.34
  -2   1   6  124.77    3.85
  -2   1   6  120.52    3.75
  -2   1   6  124.92    3.87
  -2   1   6  116.18    3.78
  -2   1   6  118.86    3.41
   1  -1  -6   97.78    3.27
   1  -1  -6   96.15    3.48
   1  -1  -6   93.12    3.17
   1  -1  -6   93.93    3.57
   1  -1  -6  102.39    3.27
  -1   1   6   93.14    3.25
  -1   1   6   96.90    3.19
  -1   1   6   90.52    3.17
  -1   1   6   95.19    2.81
  -1   1   6   97.10    3.19
   0  -1  -6  154.66    4.58
   0  -1  -6  144.46    4.62
   0  -1  -6  153.26    4.56
   0  -1  -6  145.54    4.58
   0  -1  -6  164.29    5.06
   0   1   6  154.43    4.59
   0   1   6  159.88    4.56
   0   1   6  152.30    4.71
   0   1   6  151.48    4.68
  -1  -1  -6   69.70    2.61
  -1  -1  -6   72.46    2.90
  -1  -1  -6   71.53    2.64
  -1  -1  -6   71.59    2.71
  -1  -1  -6   67.98    2.65
   1   1   6   66.53    2.59
   1   1   6   71.62    2.75
   1   1   6   66.98    2.75
   1   1   6   79.38    2.67
   1   1   6   74.33    1.95
  -2  -1  -6   81.71    3.07
  -2  -1  -6   82.81    3.05
  -2  -1  -6   85.20    3.19
  -2  -1  -6   88.18    3.03
   2   1   6   82.05    2.50
   2   1   6   91.14    3.32
   2   1   6   86.34    3.18
   2   1   6   81.39    2.95
  -3  -1  -6   45.00    2.14
  -3  -1  -6   50.29    1.86
  -3  -1  -6   47.37    2.20
   3   1   6   47.07    1.90
   3   1   6   52.58    2.46
   3   1   6   50.78    2.35
   3   1   6   48.52    2.43
  -4  -1  -6   24.50    1.60
  -4  -1  -6   23.60    1.36
  -4  -1  -6   24.60    0.78
  -4  -1  -6   24.29    1.58
   4   1   6   26.16    1.72
   4   1   6   24.76    1.64
   4   1   6   24.18    1.46
   4   1   6   24.71    1.71
   4   1   6   25.56    1.53
  -5  -1  -6   44.82    2.39
  -5  -1  -6   43.13    1.42
  -5  -1  -6   41.34    2.29
  -5  -1  -6   44.28    2.11
   5   1   6   42.18    2.41
   5   1   6   42.95    2.17
   5   1   6   38.47    2.21
   5   1   6   42.44    2.44
  -6  -1  -6   11.00    0.77
  -6  -1  -6   11.53    1.56
  -6  -1  -6    8.73    1.23
   6   1   6    8.70    1.18
   6   1   6   11.45    1.57
   6   1   6   12.54    1.63
   6   1   6    9.33    1.34
  -7  -1  -6   34.90    2.13
  -7  -1  -6   38.31    2.39
  -7  -1  -6   38.05    2.54
   7   1   6   37.96    2.53
   7   1   6   34.83    2.53
   7   1   6   39.80    2.63
  -8  -1  -6    3.65    1.10
  -8  -1  -6    1.49    0.99
  -8  -1  -6    1.87    0.76
   8   1   6    2.70    1.18
   8   1   6    1.87    1.04
   8   1   6    2.32    1.57
   8   1   6    0.92    1.03
   8  -2  -6   32.45    2.25
   8  -2  -6   31.98    1.91
   8  -2  -6   30.04    2.40
   8  -2  -6   31.10    2.25
  -8   2   6   29.90    2.47
  -8   2   6   29.87    2.53
  -8   2   6   30.03    2.62
   7  -2  -6    7.21    1.14
   7  -2  -6    7.60    1.38
   7  -2  -6    8.43    1.06
   7  -2  -6    6.60    1.92
  -7   2   6   10.01    1.61
  -7   2   6    5.26    1.03
  -7   2   6    8.26    1.37
   6  -2  -6   68.90    2.95
   6  -2  -6   66.98    3.12
  -6   2   6   64.72    3.19
  -6   2   6   68.48    3.15
  -6   2   6   63.04    3.21
   5  -2  -6   38.26    1.99
   5  -2  -6   34.68    2.13
  -5   2   6   36.64    2.01
  -5   2   6   35.95    2.06
   4  -2  -6   87.60    3.21
   4  -2  -6   88.01    3.12
   4  -2  -6   92.13    3.34
   4  -2  -6   97.99    3.47
   4  -2  -6   88.27    3.10
  -4   2   6   88.55    3.69
  -4   2   6   95.00    3.37
   3  -2  -6   46.04    2.03
   3  -2  -6   48.22    2.01
   3  -2  -6   51.07    2.71
   3  -2  -6   46.47    2.04
   3  -2  -6   45.49    1.80
  -3   2   6   48.28    2.03
  -3   2   6   47.64    1.97
  -3   2   6   47.72    2.06
   2  -2  -6  113.32    3.73
   2  -2  -6  118.31    3.65
   2  -2  -6  111.84    3.59
   2  -2  -6  114.30    3.54
   2  -2  -6  114.03    3.14
   2  -2  -6  112.14    3.58
  -2   2   6  115.38    3.64
  -2   2   6  108.35    3.47
  -2   2   6  114.37    3.54
  -2   2   6  106.88    3.22
  -2   2   6  111.38    3.54
   1  -2  -6   50.23    2.07
   1  -2  -6   52.28    2.00
   1  -2  -6   52.76    1.49
   1  -2  -6   51.85    2.04
  -1   2   6   51.74    2.12
  -1   2   6   53.19    1.97
  -1   2   6   51.68    1.85
  -1   2   6   52.05    2.00
  -1   2   6   52.68    1.54
  -1   2   6   50.57    2.05
   0  -2  -6  106.02    3.28
   0  -2  -6   97.13    3.71
   0  -2  -6  103.22    3.31
   0  -2  -6  104.96    3.51
   0  -2  -6  101.91    3.37
   0  -2  -6  103.88    2.61
   0   2   6  105.17    3.52
   0   2   6  104.82    3.57
   0   2   6  104.36    2.82
   0   2   6  107.51    3.59
   0   2   6  108.06    3.22
  -1  -2  -6  121.79    4.04
  -1  -2  -6  130.41    3.96
  -1  -2  -6  127.74    3.83
  -1  -2  -6  124.64    3.86
  -1  -2  -6  128.14    4.23
  -1  -2  -6  129.06    4.08
   1   2   6  120.58    4.06
   1   2   6  128.82    3.75
   1   2   6  129.66    4.13
   1   2   6  121.44    3.74
  -2  -2  -6  102.20    3.48
  -2  -2  -6   99.18    3.21
  -2  -2  -6  101.01    3.28
  -2  -2  -6  100.25    2.65
  -2  -2  -6  100.65    3.52
   2   2   6   92.57    3.10
   2   2   6   97.93    2.73
   2   2   6   96.77    3.15
   2   2   6  103.15    3.58
   2   2   6   96.87    3.48
  -3  -2  -6  101.55    2.91
  -3  -2  -6   97.11    3.31
  -3  -2  -6   92.34    3.23
   3   2   6  101.80    3.24
   3   2   6   91.35    2.93
   3   2   6   92.61    3.53
   3   2   6  100.93    3.62
   3   2   6   96.17    3.54
  -4  -2  -6   25.17    1.31
  -4  -2  -6   26.47    1.08
  -4  -2  -6   24.41    1.48
  -4  -2  -6   24.05    1.53
   4   2   6   27.81    1.75
   4   2   6   26.89    1.72
   4   2   6   26.24    1.44
   4   2   6   23.96    1.59
  -5  -2  -6   89.09    3.49
  -5  -2  -6   83.53    3.34
  -5  -2  -6   91.93    3.25
  -5  -2  -6   90.28    2.53
   5   2   6   98.48    3.75
   5   2   6   86.30    3.68
   5   2   6   87.46    3.27
   5   2   6   86.93    3.55
  -6  -2  -6    2.45    0.75
  -6  -2  -6    3.46    0.49
  -6  -2  -6    2.89    0.52
  -6  -2  -6    4.12    0.79
  -6  -2  -6    4.38    0.84
   6   2   6    3.35    0.78
   6   2   6    3.76    0.88
   6   2   6    3.47    0.77
  -7  -2  -6   46.83    2.56
  -7  -2  -6   50.14    2.83
  -7  -2  -6   48.86    2.63
   7   2   6   49.29    2.85
   7   2   6   48.82    2.82
   7   2   6   49.53    2.62
   7   2   6   46.01    2.83
  -8  -2  -6    0.34    0.53
  -8  -2  -6    0.21    0.75
  -8  -2  -6    0.92    0.98
   8   2   6    0.75    0.89
   8   2   6    1.76    1.02
   8   2   6    0.17    0.89
   8   2   6    1.72    1.04
   8  -3  -6   31.98    2.51
   8  -3  -6   36.96    2.43
   8  -3  -6   38.54    2.11
   8  -3  -6   36.29    2.41
  -8   3   6   36.44    2.81
  -8   3   6   37.73    2.92
  -8   3   6   34.56    2.80
   7  -3  -6    9.89    1.51
   7  -3  -6   10.09    1.44
   7  -3  -6   10.18    1.42
   7  -3  -6    9.45    1.37
  -7   3   6   11.04    1.51
  -7   3   6   10.15    1.57
  -7   3   6    9.53    1.66
   6  -3  -6   41.53    2.45
   6  -3  -6   44.71    2.12
   6  -3  -6   45.24    2.36
  -6   3   6   41.66    2.41
  -6   3   6   43.41    2.57
  -6   3   6   45.54    2.70
   5  -3  -6   55.55    2.59
   5  -3  -6   56.36    2.47
   5  -3  -6   49.54    2.46
  -5   3   6   53.80    2.69
  -5   3   6   52.94    2.55
  -5   3   6   51.74    2.71
   4  -3  -6   92.44    3.26
   4  -3  -6   90.66    3.37
   4  -3  -6   89.24    3.28
  -4   3   6   87.51    3.48
  -4   3   6   91.40    3.32
   3  -3  -6   60.22    2.23
   3  -3  -6   62.45    2.42
   3  -3  -6   65.98    2.45
   3  -3  -6   63.06    2.46
   3  -3  -6   56.42    2.32
  -3   3   6   60.54    2.80
  -3   3   6   60.19    2.40
  -3   3   6   59.28    2.45
  -3   3   6   60.13    2.35
  -3   3   6   62.80    1.91
   2  -3  -6   93.26    3.09
   2  -3  -6   94.63    3.14
   2  -3  -6   89.13    3.02
   2  -3  -6   95.03    2.78
   2  -3  -6   95.92    3.31
   2  -3  -6   91.00    3.27
  -2   3   6   88.62    3.03
  -2   3   6   89.37    2.93
  -2   3   6   94.11    3.19
  -2   3   6   95.44    3.00
  -2   3   6   93.69    2.39
  -2   3   6   96.06    2.93
  -2   3   6   91.71    3.13
   1  -3  -6   86.10    2.91
   1  -3  -6   80.26    2.85
   1  -3  -6   84.87    2.75
   1  -3  -6   86.71    3.05
   1  -3  -6   86.34    2.73
   1  -3  -6   87.26    2.49
  -1   3   6   84.80    2.69
  -1   3   6   84.76    2.96
  -1   3   6   83.66    2.72
  -1   3   6   84.22    2.07
  -1   3   6   86.10    2.42
  -1   3   6   86.81    2.90
   0  -3  -6   69.67    1.85
   0  -3  -6   68.50    2.30
   0  -3  -6   69.44    2.28
   0  -3  -6   64.59    2.46
   0   3   6   70.54    2.57
   0   3   6   65.60    2.68
   0   3   6   67.31    2.25
   0   3   6   68.61    2.12
  -1  -3  -6   58.38    2.37
  -1  -3  -6   60.91    1.91
  -1  -3  -6   62.84    2.56
  -1  -3  -6   59.55    2.49
  -1  -3  -6   61.37    2.34
  -1  -3  -6   63.07    2.15
  -1  -3  -6   59.69    2.14
   1   3   6   63.60    1.88
   1   3   6   61.19    2.01
   1   3   6   61.12    2.52
   1   3   6   61.38    2.44
   1   3   6   59.66    2.01
  -2  -3  -6   20.55    1.05
  -2  -3  -6   19.16    1.27
  -2  -3  -6   18.88    1.30
  -2  -3  -6   20.65    1.32
  -2  -3  -6   20.11    1.06
  -2  -3  -6   19.08    0.61
  -2  -3  -6   19.11    1.05
   2   3   6   19.62    0.97
   2   3   6   21.27    1.39
   2   3   6   20.49    0.79
   2   3   6   19.58    1.29
  -3  -3  -6   88.36    3.27
  -3  -3  -6   98.51    2.56
  -3  -3  -6   93.20    2.71
  -3  -3  -6   88.45    3.22
   3   3   6   88.32    3.32
   3   3   6   88.46    2.75
   3   3   6   85.56    3.32
   3   3   6  103.75    4.73
  -4  -3  -6    2.65    0.51
  -4  -3  -6    3.43    0.33
  -4  -3  -6    2.79    0.53
  -4  -3  -6    2.22    0.50
   4   3   6    2.56    0.62
   4   3   6    1.84    0.48
   4   3   6    2.55    0.49
   4   3   6    2.32    0.57
   4   3   6    3.48    0.83
  -5  -3  -6   63.42    2.60
  -5  -3  -6   63.85    2.66
  -5  -3  -6   61.49    2.45
   5   3   6   63.08    2.50
   5   3   6   57.70    2.76
   5   3   6   59.75    2.91
   5   3   6   63.48    2.81
  -6  -3  -6    5.06    0.55
  -6  -3  -6    4.17    0.84
  -6  -3  -6    4.70    0.81
  -6  -3  -6    6.20    0.98
   6   3   6    5.00    0.85
   6   3   6    4.66    0.91
   6   3   6    5.47    0.87
   6   3   6    4.02    0.86
  -7  -3  -6   56.17    2.89
  -7  -3  -6   48.53    2.77
  -7  -3  -6   53.63    2.71
   7   3   6   53.59    2.63
   7   3   6   52.72    2.91
   7   3   6   54.31    3.07
   7   3   6   55.78    2.86
  -8  -3  -6    7.97    0.97
  -8  -3  -6   10.04    1.49
  -8  -3  -6    7.61    1.31
   8   3   6    8.29    1.48
   8   3   6    7.17    1.38
   8   3   6    7.43    1.37
   8   3   6    7.08    1.53
   8  -4  -6   20.12    1.70
   8  -4  -6   20.06    2.10
   8  -4  -6   19.84    1.80
   8  -4  -6   19.93    1.85
  -8   4   6   13.37    2.39
  -8   4   6   16.19    2.16
  -8   4   6   19.46    2.27
   7  -4  -6    9.75    1.31
   7  -4  -6   13.44    1.27
   7  -4  -6   14.94    1.45
   7  -4  -6   10.30    1.52
  -7   4   6   14.96    1.94
  -7   4   6   12.09    1.79
  -7   4   6   12.22    1.64
   6  -4  -6   20.48    1.97
   6  -4  -6   21.45    1.46
   6  -4  -6   20.61    1.58
  -6   4   6   20.93    1.82
  -6   4   6   22.42    2.04
   5  -4  -6   54.96    2.37
   5  -4  -6   57.25    2.50
   5  -4  -6   53.99    2.62
   5  -4  -6   51.61    2.58
  -5   4   6   59.02    2.92
  -5   4   6   56.59    2.86
  -5   4   6   52.52    2.55
   4  -4  -6   35.45    1.76
   4  -4  -6   35.33    1.87
   4  -4  -6   32.13    1.78
  -4   4   6   34.89    1.96
  -4   4   6   36.49    1.85
  -4   4   6   34.07    2.03
  -4   4   6   36.07    1.60
   3  -4  -6  140.77    4.41
   3  -4  -6  147.07    4.52
   3  -4  -6  144.05    4.35
   3  -4  -6  154.18    4.48
  -3   4   6  141.22    4.71
  -3   4   6  147.51    4.62
  -3   4   6  149.25    4.05
  -3   4   6  149.32    4.46
   2  -4  -6   58.94    2.35
   2  -4  -6   58.44    2.18
   2  -4  -6   64.31    2.14
   2  -4  -6   56.44    2.23
   2  -4  -6   61.33    2.26
  -2   4   6   62.55    2.19
  -2   4   6   64.07    3.02
  -2   4   6   62.42    2.51
  -2   4   6   62.07    2.30
  -2   4   6   58.57    2.40
  -2   4   6   63.69    1.89
   1  -4  -6  128.66    3.67
   1  -4  -6  126.85    3.45
   1  -4  -6  128.89    3.95
   1  -4  -6  132.44    3.67
   1  -4  -6  131.05    3.90
   1  -4  -6  128.59    4.15
  -1   4   6  127.04    4.02
  -1   4   6  130.68    3.89
  -1   4   6  128.93    3.94
  -1   4   6  131.72    3.31
  -1   4   6  124.21    3.56
   0  -4  -6    8.31    1.01
   0  -4  -6    8.91    0.58
   0  -4  -6    7.76    0.76
   0  -4  -6    8.22    0.44
   0  -4  -6    8.72    0.59
   0  -4  -6    7.98    0.71
   0  -4  -6    8.44    0.74
   0  -4  -6    8.30    0.61
   0  -4  -6    8.17    0.51
   0   4   6    8.57    0.78
   0   4   6    9.12    0.79
   0   4   6    8.07    0.57
   0   4   6    8.57    0.49
   0   4   6    9.35    0.67
   0   4   6    8.65    0.54
  -1  -4  -6  171.79    5.14
  -1  -4  -6  172.03    5.46
  -1  -4  -6  169.98    4.87
  -1  -4  -6  174.07    4.29
  -1  -4  -6  164.81    4.48
  -1  -4  -6  168.99    5.23
  -1  -4  -6  164.63    4.02
  -1  -4  -6  167.41    4.43
  -1  -4  -6  163.58    4.43
   1   4   6  165.37    4.14
   1   4   6  163.45    4.36
   1   4   6  171.10    4.94
   1   4   6  167.33    5.15
   1   4   6  166.34    4.17
  -2  -4  -6    2.51    0.40
  -2  -4  -6    2.13    0.55
  -2  -4  -6    2.51    0.56
  -2  -4  -6    2.35    0.39
  -2  -4  -6    2.48    0.30
  -2  -4  -6    2.23    0.29
  -2  -4  -6    1.92    0.35
  -2  -4  -6    2.56    0.57
   2   4   6    1.54    0.42
   2   4   6    1.79    0.51
   2   4   6    2.09    0.50
   2   4   6    2.88    0.37
   2   4   6    2.45    0.32
  -3  -4  -6  168.16    4.60
  -3  -4  -6  168.55    4.23
  -3  -4  -6  177.05    4.51
   3   4   6  174.78    5.30
   3   4   6  170.79    5.34
   3   4   6  165.69    4.42
   3   4   6  166.22    4.50
   3   4   6  171.03    5.15
   3   4   6  166.84    4.55
  -4  -4  -6   10.60    0.63
  -4  -4  -6   10.31    0.83
  -4  -4  -6   10.88    0.80
  -4  -4  -6    9.69    0.82
   4   4   6   10.32    0.77
   4   4   6   11.94    1.12
   4   4   6    9.60    0.83
   4   4   6   10.33    1.05
   4   4   6   11.86    1.07
  -5  -4  -6  114.16    3.76
  -5  -4  -6  113.65    3.23
  -5  -4  -6  111.28    3.70
   5   4   6   99.29    3.72
   5   4   6  116.00    4.24
   5   4   6  110.73    4.11
  -6  -4  -6   19.21    1.41
  -6  -4  -6   19.85    1.44
  -6  -4  -6   18.25    1.37
  -6  -4  -6   18.51    0.75
   6   4   6   17.07    1.58
   6   4   6   18.52    1.27
   6   4   6   23.30    1.74
   6   4   6   19.58    1.51
  -7  -4  -6   44.51    2.39
  -7  -4  -6   48.00    2.50
  -7  -4  -6   41.73    2.40
   7   4   6   45.00    2.42
   7   4   6   39.97    2.17
   7   4   6   46.76    2.67
   7   4   6   44.53    2.67
  -8  -4  -6   31.24    2.24
  -8  -4  -6   33.04    2.26
   8   4   6   37.01    2.63
   8   4   6   35.86    2.23
   8   4   6   36.67    2.35
   8   4   6   33.01    2.35
  -9  -4  -6    7.12    1.32
  -9  -4  -6    9.42    1.54
  -9  -4  -6    8.16    1.15
   9   4   6   10.06    1.87
   9   4   6    8.39    1.43
   9   4   6    8.91    1.61
   7  -5  -6   17.44    1.56
   7  -5  -6   17.29    1.81
   7  -5  -6   18.44    1.50
   7  -5  -6   19.98    1.68
  -7   5   6   16.25    2.02
  -7   5   6   17.03    2.18
  -7   5   6   17.89    1.74
  -7   5   6   16.67    2.11
   6  -5  -6   17.26    1.44
   6  -5  -6   19.02    1.68
   6  -5  -6   18.47    1.44
   6  -5  -6   20.06    1.47
  -6   5   6   17.83    1.65
  -6   5   6   15.08    1.91
  -6   5   6   22.81    2.02
  -6   5   6   16.87    1.50
   5  -5  -6   40.58    2.26
   5  -5  -6   40.03    2.05
   5  -5  -6   40.98    2.29
   5  -5  -6   42.10    2.10
  -5   5   6   43.83    2.59
  -5   5   6   38.63    2.44
  -5   5   6   42.43    2.09
  -5   5   6   40.25    2.22
   4  -5  -6   15.16    1.24
   4  -5  -6   14.00    1.08
   4  -5  -6   14.88    1.24
   4  -5  -6   13.86    1.08
  -4   5   6   15.98    1.22
  -4   5   6   15.17    1.09
  -4   5   6   12.80    1.29
  -4   5   6   14.48    1.35
   3  -5  -6   91.65    3.19
   3  -5  -6   91.02    3.05
   3  -5  -6   86.21    3.08
  -3   5   6   85.59    3.35
  -3   5   6   84.22    3.37
  -3   5   6   87.70    3.04
  -3   5   6   91.46    2.90
   2  -5  -6   12.19    0.88
   2  -5  -6   13.95    0.92
   2  -5  -6   12.32    0.87
   2  -5  -6   12.68    0.89
  -2   5   6   12.60    0.93
  -2   5   6   14.16    1.13
  -2   5   6   11.73    0.74
   1  -5  -6  129.52    4.01
   1  -5  -6  127.56    3.57
   1  -5  -6  132.73    3.84
   1  -5  -6  125.86    3.61
   1  -5  -6  123.66    4.14
   1  -5  -6  129.11    3.63
  -1   5   6  123.24    3.95
  -1   5   6  133.37    3.50
  -1   5   6  122.02    3.48
  -1   5   6  124.43    4.10
  -1   5   6  128.13    3.47
  -1   5   6  132.13    4.26
   0  -5  -6    0.23    0.23
   0  -5  -6    0.61    0.37
   0  -5  -6    0.84    0.39
   0  -5  -6    0.31    0.18
   0  -5  -6    0.69    0.25
   0  -5  -6    0.46    0.22
   0  -5  -6    0.33    0.15
   0  -5  -6    0.36    0.20
   0  -5  -6    0.79    0.30
   0   5   6    0.26    0.17
   0   5   6    0.59    0.17
   0   5   6    0.50    0.17
   0   5   6    0.34    0.36
   0   5   6    0.42    0.21
  -1  -5  -6  177.33    4.50
  -1  -5  -6  175.34    5.04
  -1  -5  -6  175.40    5.58
  -1  -5  -6  178.83    5.05
  -1  -5  -6  179.21    4.42
  -1  -5  -6  171.76    4.61
  -1  -5  -6  174.17    4.67
  -1  -5  -6  173.17    5.33
   1   5   6  173.99    5.09
   1   5   6  179.93    4.79
   1   5   6  173.14    5.34
  -2  -5  -6   20.14    1.35
  -2  -5  -6   21.88    1.35
  -2  -5  -6   20.71    0.90
  -2  -5  -6   23.78    1.09
  -2  -5  -6   19.95    1.21
  -2  -5  -6   20.59    0.94
   2   5   6   22.91    1.41
   2   5   6   22.78    1.28
   2   5   6   23.77    1.49
   2   5   6   22.21    1.05
  -3  -5  -6  195.58    5.05
  -3  -5  -6  196.50    5.18
  -3  -5  -6  190.86    5.68
  -3  -5  -6  199.35    5.08
  -3  -5  -6  204.55    5.13
   3   5   6  197.57    4.81
   3   5   6  206.07    4.96
   3   5   6  195.33    5.95
   3   5   6  184.66    5.98
   3   5   6  204.83    5.70
  -4  -5  -6   42.80    1.65
  -4  -5  -6   38.55    1.63
  -4  -5  -6   41.20    1.72
  -4  -5  -6   42.23    1.54
   4   5   6   44.62    2.23
   4   5   6   39.72    1.91
   4   5   6   38.93    2.05
   4   5   6   39.60    1.78
   4   5   6   42.60    1.51
  -5  -5  -6  112.48    3.30
  -5  -5  -6  119.30    3.62
  -5  -5  -6  103.02    3.48
   5   5   6  107.36    3.81
   5   5   6  112.88    4.13
   5   5   6  110.22    3.31
   5   5   6  102.58    3.75
   5   5   6  112.31    4.18
  -6  -5  -6   50.89    2.27
  -6  -5  -6   49.53    2.30
  -6  -5  -6   52.75    2.31
  -6  -5  -6   47.53    2.02
   6   5   6   45.93    2.54
   6   5   6   49.30    2.66
  -7  -5  -6   16.25    1.51
  -7  -5  -6   17.77    1.48
  -7  -5  -6   21.45    1.55
   7   5   6   20.75    1.82
   7   5   6   21.01    1.84
   7   5   6   17.01    1.36
  -8  -5  -6   55.02    2.94
  -8  -5  -6   55.20    2.87
   8   5   6   57.51    2.75
   8   5   6   59.78    3.29
   8   5   6   58.19    3.38
   8   5   6   60.08    3.36
  -9  -5  -6    1.17    0.66
  -9  -5  -6    1.95    0.95
   9   5   6    0.25    1.04
   9   5   6    0.39    1.66
   9   5   6    2.53    1.06
   7  -6  -6   23.67    1.71
   7  -6  -6   25.38    1.92
   7  -6  -6   18.80    1.98
  -7   6   6   26.66    3.91
  -7   6   6   18.56    2.36
  -7   6   6   22.09    2.26
  -7   6   6   23.20    2.00
   6  -6  -6    2.77    0.76
   6  -6  -6    1.73    0.69
   6  -6  -6    2.16    0.60
  -6   6   6    4.08    1.15
  -6   6   6    1.33    0.70
  -6   6   6    3.25    1.10
  -6   6   6    1.17    0.74
   5  -6  -6   46.05    2.55
   5  -6  -6   51.17    2.36
   5  -6  -6   49.13    2.57
   5  -6  -6   49.92    2.17
   5  -6  -6   48.80    2.68
  -5   6   6   50.42    2.80
  -5   6   6   50.17    2.95
  -5   6   6   50.28    2.56
   4  -6  -6    5.23    0.78
   4  -6  -6    4.51    0.80
   4  -6  -6    5.29    0.90
   4  -6  -6    3.91    0.77
  -4   6   6    3.52    0.87
  -4   6   6    4.77    1.00
  -4   6   6    4.48    0.75
   3  -6  -6  101.06    3.48
   3  -6  -6   97.18    3.40
   3  -6  -6   95.93    3.25
   3  -6  -6  104.10    3.48
  -3   6   6  101.81    3.33
  -3   6   6   94.03    3.75
  -3   6   6   98.37    3.36
   2  -6  -6    0.48    0.29
   2  -6  -6    0.43    0.27
   2  -6  -6    1.14    0.34
   2  -6  -6    0.77    0.29
   2  -6  -6    0.61    0.37
  -2   6   6    0.18    0.34
  -2   6   6    0.85    0.46
  -2   6   6    0.96    0.29
   1  -6  -6  223.93    6.07
   1  -6  -6  233.48    5.87
   1  -6  -6  226.70    5.88
   1  -6  -6  232.17    6.04
   1  -6  -6  222.29    6.34
  -1   6   6  223.98    5.68
  -1   6   6  230.12    6.49
  -1   6   6  220.04    5.64
   0  -6  -6    2.63    0.55
   0  -6  -6    1.77    0.37
   0  -6  -6    3.32    0.39
   0  -6  -6    2.90    0.31
   0  -6  -6    3.25    0.48
   0  -6  -6    1.99    0.47
   0  -6  -6    3.56    0.57
   0  -6  -6    2.40    0.62
   0   6   6    4.03    0.64
   0   6   6    2.76    0.44
  -1  -6  -6  166.60    4.11
  -1  -6  -6  169.05    4.66
  -1  -6  -6  168.62    4.88
  -1  -6  -6  165.82    5.26
  -1  -6  -6  168.97    4.26
  -1  -6  -6  170.41    4.98
  -1  -6  -6  176.57    5.41
   1   6   6  172.72    4.69
   1   6   6  174.96    4.88
   1   6   6  179.28    5.06
   1   6   6  167.78    5.23
  -2  -6  -6   78.59    2.43
  -2  -6  -6   70.98    2.65
  -2  -6  -6   76.37    1.93
  -2  -6  -6   79.47    2.46
  -2  -6  -6   72.59    2.65
  -2  -6  -6   73.90    2.96
  -2  -6  -6   73.63    1.99
  -2  -6  -6   74.17    2.78
   2   6   6   71.13    2.53
   2   6   6   76.54    3.03
   2   6   6   76.87    2.90
   2   6   6   76.54    2.73
   2   6   6   75.37    2.55
  -3  -6  -6  100.05    2.70
  -3  -6  -6   99.98    2.99
  -3  -6  -6   97.63    3.33
  -3  -6  -6   97.59    3.06
  -3  -6  -6  100.35    2.67
   3   6   6  104.52    4.07
   3   6   6   97.50    3.28
  -4  -6  -6  144.17    4.54
  -4  -6  -6  148.31    4.35
  -4  -6  -6  146.62    3.98
  -4  -6  -6  150.82    4.01
  -4  -6  -6  144.90    4.11
   4   6   6  145.57    4.83
   4   6   6  149.30    4.46
   4   6   6  147.01    4.95
   4   6   6  145.02    3.57
   4   6   6  144.03    3.54
  -5  -6  -6   26.11    1.32
  -5  -6  -6   29.70    1.56
  -5  -6  -6   24.70    1.33
  -5  -6  -6   27.00    1.35
   5   6   6   26.51    1.80
   5   6   6   26.40    1.13
   5   6   6   29.16    1.86
   5   6   6   25.89    1.47
  -6  -6  -6  123.04    4.21
  -6  -6  -6  124.09    4.00
  -6  -6  -6  122.47    3.96
   6   6   6  118.89    4.61
   6   6   6  122.14    4.61
   6   6   6  119.87    3.62
   6   6   6  119.53    3.99
  -7  -6  -6    4.00    0.77
  -7  -6  -6    3.14    0.81
   7   6   6    5.34    0.93
   7   6   6    4.35    1.09
   7   6   6    4.51    0.70
  -8  -6  -6   54.27    2.94
  -8  -6  -6   57.78    2.80
   8   6   6   57.87    3.29
   8   6   6   55.59    3.23
   8   6   6   59.12    2.56
  -9  -6  -6    0.94    0.82
   9   6   6    0.20    0.95
   9   6   6    1.20    1.12
   9   6   6   -0.43    0.73
   6  -7  -6    0.14    0.54
   6  -7  -6    0.38    0.52
   6  -7  -6   -0.35    0.57
  -6   7   6    0.03    0.72
  -6   7   6   -0.46    0.73
  -6   7   6    0.31    0.93
   5  -7  -6   39.30    2.16
   5  -7  -6   42.18    2.40
   5  -7  -6   42.29    2.10
   5  -7  -6   42.23    2.84
  -5   7   6   39.86    2.41
  -5   7   6   40.81    2.62
  -5   7   6   42.63    2.35
   4  -7  -6    3.66    0.83
   4  -7  -6    3.98    0.80
   4  -7  -6    4.67    0.77
   4  -7  -6    2.61    0.70
  -4   7   6    5.13    1.25
  -4   7   6    2.82    0.70
  -4   7   6    3.65    0.74
   3  -7  -6   86.64    3.23
   3  -7  -6   88.74    3.22
   3  -7  -6   89.21    2.99
   3  -7  -6   85.52    3.22
  -3   7   6   83.75    3.55
  -3   7   6   82.31    3.08
  -3   7   6   89.22    3.21
   2  -7  -6   17.22    1.15
   2  -7  -6   15.99    1.14
   2  -7  -6   16.28    0.97
   2  -7  -6   13.30    0.99
   2  -7  -6   14.05    1.01
  -2   7   6   15.46    1.26
  -2   7   6   16.91    1.12
  -2   7   6   13.65    1.06
  -2   7   6   16.06    1.01
   1  -7  -6   76.62    2.83
   1  -7  -6   77.84    2.55
   1  -7  -6   78.76    2.78
   1  -7  -6   77.02    2.78
   1  -7  -6   81.82    2.59
   1  -7  -6   82.14    2.56
  -1   7   6   78.33    3.03
  -1   7   6   79.95    2.74
  -1   7   6   77.07    2.69
  -1   7   6   82.14    3.13
   0  -7  -6   68.82    3.16
   0  -7  -6   65.21    2.11
   0  -7  -6   66.86    2.68
   0  -7  -6   64.41    2.43
   0  -7  -6   69.50    2.31
   0   7   6   69.53    2.40
   0   7   6   66.98    2.65
  -1  -7  -6   77.56    3.14
  -1  -7  -6   81.10    3.12
  -1  -7  -6   82.00    2.09
  -1  -7  -6   81.28    2.09
  -1  -7  -6   84.46    2.77
  -1  -7  -6   78.99    2.63
  -1  -7  -6   78.84    2.75
   1   7   6   84.80    3.36
   1   7   6   82.00    2.75
   1   7   6   84.24    2.96
  -2  -7  -6   96.32    3.19
  -2  -7  -6   96.05    3.12
  -2  -7  -6   90.79    3.47
  -2  -7  -6   99.27    3.27
  -2  -7  -6   95.34    3.04
  -2  -7  -6   94.83    2.87
  -2  -7  -6   92.21    3.24
   2   7   6  102.09    3.98
   2   7   6   96.53    3.17
   2   7   6   97.81    3.26
   2   7   6   92.43    3.57
  -3  -7  -6   16.25    0.82
  -3  -7  -6   16.72    0.61
  -3  -7  -6   16.79    1.12
  -3  -7  -6   17.21    1.02
  -3  -7  -6   16.42    1.05
  -3  -7  -6   16.63    0.62
   3   7   6   17.34    1.14
   3   7   6   17.73    1.31
   3   7   6   14.75    1.03
   3   7   6   17.36    1.37
  -4  -7  -6  159.31    4.16
  -4  -7  -6  166.90    4.80
  -4  -7  -6  159.54    4.04
  -4  -7  -6  160.92    4.16
  -4  -7  -6  157.97    4.80
  -4  -7  -6  150.88    4.52
   4   7   6  161.40    4.69
   4   7   6  155.03    5.14
   4   7   6  162.30    5.33
  -5  -7  -6    1.82    0.39
  -5  -7  -6    1.08    0.40
  -5  -7  -6    1.62    0.37
   5   7   6    1.50    0.47
   5   7   6    1.91    0.45
   5   7   6    2.10    0.70
  -6  -7  -6  122.34    4.24
  -6  -7  -6  129.93    3.92
  -6  -7  -6  119.83    3.84
   6   7   6  116.72    4.58
   6   7   6  114.16    3.37
   6   7   6  120.92    4.65
   6   7   6  127.34    3.86
  -7  -7  -6    2.54    0.67
  -7  -7  -6    3.44    0.82
  -7  -7  -6    3.17    0.70
   7   7   6    3.18    0.66
   7   7   6    3.32    0.65
   7   7   6    2.74    0.91
   7   7   6    3.00    1.05
  -8  -7  -6   63.26    3.14
  -8  -7  -6   63.47    2.92
   8   7   6   59.75    2.37
   8   7   6   62.23    3.40
   8   7   6   64.78    3.47
  -9  -7  -6    9.70    1.54
   9   7   6    8.53    1.85
   9   7   6   10.22    1.79
   6  -8  -6    1.49    1.22
   6  -8  -6    2.18    0.74
  -6   8   6   -0.82    0.76
   5  -8  -6   50.13    2.73
   5  -8  -6   46.97    1.82
   5  -8  -6   46.26    2.24
  -5   8   6   43.42    2.63
  -5   8   6   45.37    2.63
  -5   8   6   46.17    2.86
   4  -8  -6   29.74    1.97
   4  -8  -6   31.40    1.64
   4  -8  -6   27.71    1.55
   4  -8  -6   31.39    1.36
   4  -8  -6   32.98    1.92
   4  -8  -6   27.63    1.90
  -4   8   6   32.93    1.99
  -4   8   6   28.46    2.15
  -4   8   6   29.56    1.97
   3  -8  -6   86.76    3.25
   3  -8  -6   80.14    2.79
   3  -8  -6   77.67    2.72
   3  -8  -6   85.42    3.25
   3  -8  -6   77.63    3.10
  -3   8   6   80.02    3.21
  -3   8   6   84.42    3.62
   2  -8  -6  116.96    3.57
   2  -8  -6  121.10    3.87
   2  -8  -6  113.18    3.76
   2  -8  -6  125.09    3.61
   2  -8  -6  121.48    4.05
  -2   8   6  119.94    3.75
  -2   8   6  121.51    4.41
  -2   8   6  117.35    3.80
  -2   8   6  119.85    4.00
   1  -8  -6   90.68    3.00
   1  -8  -6   95.34    3.03
   1  -8  -6   95.29    3.00
   1  -8  -6  100.21    2.95
   1  -8  -6   95.96    3.32
  -1   8   6   94.96    2.87
  -1   8   6   99.86    3.67
  -1   8   6   95.58    3.32
  -1   8   6   93.95    3.16
   0  -8  -6  187.39    4.80
   0  -8  -6  186.16    4.91
   0  -8  -6  188.36    5.28
   0  -8  -6  172.73    5.45
   0  -8  -6  180.24    5.10
   0   8   6  180.93    5.27
   0   8   6  186.65    5.66
  -1  -8  -6   38.72    1.69
  -1  -8  -6   36.69    2.04
  -1  -8  -6   36.46    1.88
  -1  -8  -6   39.76    1.19
  -1  -8  -6   39.57    1.60
  -1  -8  -6   38.33    1.21
   1   8   6   40.77    1.82
   1   8   6   36.68    1.89
  -2  -8  -6  199.19    5.63
  -2  -8  -6  191.25    5.14
  -2  -8  -6  177.31    5.76
  -2  -8  -6  183.87    5.45
  -2  -8  -6  196.28    5.38
   2   8   6  194.83    5.70
  -3  -8  -6    3.95    0.70
  -3  -8  -6    4.21    0.69
  -3  -8  -6    4.32    0.53
   3   8   6    3.74    0.62
   3   8   6    3.56    0.73
   3   8   6    3.52    0.69
   3   8   6    4.61    0.77
  -4  -8  -6  120.22    3.95
  -4  -8  -6  125.07    3.25
  -4  -8  -6  123.79    3.28
   4   8   6  128.88    4.52
   4   8   6  127.53    4.42
   4   8   6  126.19    3.90
  -5  -8  -6    9.44    0.71
  -5  -8  -6    9.49    1.09
  -5  -8  -6    9.70    0.69
  -5  -8  -6    8.70    1.08
   5   8   6    8.10    1.11
   5   8   6   10.13    0.83
   5   8   6   10.33    1.41
  -6  -8  -6   78.16    2.78
  -6  -8  -6   80.49    2.79
  -6  -8  -6   83.96    3.36
   6   8   6   84.62    3.71
   6   8   6   80.99    3.60
   6   8   6   82.44    2.77
  -7  -8  -6   19.45    1.62
  -7  -8  -6   21.21    1.40
  -7  -8  -6   21.38    1.38
   7   8   6   21.61    1.91
   7   8   6   18.99    1.08
   7   8   6   23.16    1.96
   7   8   6   21.55    1.17
  -8  -8  -6   33.32    2.23
  -8  -8  -6   36.42    2.02
   8   8   6   34.56    2.53
   8   8   6   33.09    2.45
   8   8   6   32.71    1.45
  -9  -8  -6   17.14    2.11
   9   8   6   15.99    2.04
   9   8   6   17.44    3.24
   5  -9  -6   35.36    1.86
   5  -9  -6   32.58    2.32
  -5   9   6   32.71    2.37
  -5   9   6   29.90    2.46
   4  -9  -6   27.45    1.96
   4  -9  -6   22.87    1.41
  -4   9   6   28.60    2.08
  -4   9   6   24.47    2.08
  -4   9   6   24.56    1.93
   3  -9  -6   49.27    2.00
   3  -9  -6   45.23    1.55
   3  -9  -6   50.31    2.46
   3  -9  -6   48.50    2.38
   3  -9  -6   53.31    2.51
  -3   9   6   48.24    2.70
  -3   9   6   43.89    2.43
   2  -9  -6   67.77    2.73
   2  -9  -6   66.94    2.12
   2  -9  -6   67.71    2.31
   2  -9  -6   70.60    2.89
  -2   9   6   69.77    2.64
  -2   9   6   60.90    2.57
  -2   9   6   73.02    3.29
  -2   9   6   72.24    3.41
   1  -9  -6   51.58    1.84
   1  -9  -6   51.37    1.84
   1  -9  -6   53.56    2.06
   1  -9  -6   52.36    2.33
   1  -9  -6   57.26    2.16
  -1   9   6   49.97    1.94
  -1   9   6   48.73    2.32
  -1   9   6   49.19    2.54
   0  -9  -6   91.96    2.83
   0  -9  -6   85.78    2.84
   0  -9  -6   91.75    3.21
   0  -9  -6   92.91    2.72
   0   9   6   92.04    3.59
   0   9   6   94.02    3.34
  -1  -9  -6    1.71    0.29
  -1  -9  -6    1.48    0.46
  -1  -9  -6    2.55    0.36
  -1  -9  -6    1.51    0.34
  -1  -9  -6    1.46    0.44
   1   9   6    2.33    0.55
   1   9   6    2.41    0.59
  -2  -9  -6  111.62    3.81
  -2  -9  -6  115.97    3.55
  -2  -9  -6  113.70    3.73
   2   9   6  116.07    4.02
   2   9   6  114.61    4.08
   2   9   6  123.49    4.01
  -3  -9  -6   26.57    1.44
  -3  -9  -6   24.76    1.62
   3   9   6   23.74    1.58
   3   9   6   31.13    1.75
   3   9   6   27.23    1.67
  -4  -9  -6   98.97    3.51
  -4  -9  -6  108.85    3.85
  -4  -9  -6  108.59    2.77
  -4  -9  -6  108.53    2.87
   4   9   6  106.87    4.02
   4   9   6  106.40    3.97
   4   9   6  111.05    4.03
  -5  -9  -6   59.96    1.91
  -5  -9  -6   53.02    2.33
  -5  -9  -6   56.81    2.61
   5   9   6   59.48    2.96
   5   9   6   55.33    2.78
  -6  -9  -6   48.89    2.54
  -6  -9  -6   47.09    1.88
  -6  -9  -6   45.65    1.89
   6   9   6   48.22    2.68
   6   9   6   45.55    2.63
  -7  -9  -6   44.86    2.59
  -7  -9  -6   42.36    1.97
  -7  -9  -6   42.45    2.05
   7   9   6   46.60    2.74
   7   9   6   45.69    2.80
  -8  -9  -6    9.61    1.17
  -8  -9  -6    6.80    1.25
   8   9   6   10.34    1.67
   8   9   6   10.63    1.75
  -9  -9  -6   26.63    2.09
  -9  -9  -6   34.08    2.52
   9   9   6   30.46    2.63
   9   9   6   28.54    2.63
   4 -10  -6   42.45    1.94
   4 -10  -6   48.18    2.64
  -4  10   6   41.24    2.75
  -4  10   6   43.30    2.69
   3 -10  -6    5.88    1.00
  -3  10   6    6.26    1.31
  -3  10   6    6.04    1.16
  -3  10   6    5.27    1.08
   2 -10  -6   74.12    2.97
   2 -10  -6   69.16    2.28
   2 -10  -6   65.97    2.81
  -2  10   6   74.84    3.46
  -2  10   6   64.58    3.06
  -2  10   6   70.82    3.18
   1 -10  -6    0.96    0.37
   1 -10  -6    0.96    0.30
   1 -10  -6    1.08    0.31
   1 -10  -6    0.67    0.43
  -1  10   6    1.01    0.59
  -1  10   6    0.87    0.47
  -1  10   6    0.33    0.43
   0 -10  -6  105.18    2.93
   0 -10  -6  108.75    3.35
   0 -10  -6  101.53    3.08
   0  10   6  113.74    4.19
   0  10   6   99.85    3.95
  -1 -10  -6   13.23    0.73
  -1 -10  -6   11.95    0.72
  -1 -10  -6   13.63    0.82
   1  10   6   11.79    1.13
   1  10   6   13.20    1.30
  -2 -10  -6   62.11    2.45
  -2 -10  -6   61.45    1.75
  -2 -10  -6   60.14    2.09
  -2 -10  -6   62.31    1.87
   2  10   6   64.08    2.95
   2  10   6   60.80    2.86
  -3 -10  -6   71.25    2.58
  -3 -10  -6   75.23    3.17
   3  10   6   70.24    2.92
   3  10   6   68.41    3.01
  -4 -10  -6   56.11    2.64
  -4 -10  -6   51.78    1.51
  -4 -10  -6   50.44    1.61
   4  10   6   51.88    2.49
   4  10   6   57.16    2.65
   4  10   6   54.27    2.63
  -5 -10  -6   82.67    3.40
  -5 -10  -6   69.02    2.81
  -5 -10  -6   72.36    2.39
  -5 -10  -6   75.72    2.27
   5  10   6   76.57    3.38
   5  10   6   74.49    3.32
   5  10   6   81.60    3.43
  -6 -10  -6   28.11    1.96
  -6 -10  -6   31.14    1.37
  -6 -10  -6   28.97    1.40
   6  10   6   29.27    2.11
   6  10   6   26.10    2.38
  -7 -10  -6   47.72    2.77
  -7 -10  -6   56.01    2.23
   7  10   6   51.83    2.97
   7  10   6   48.69    2.90
  -8 -10  -6    8.60    1.37
  -8 -10  -6   11.45    1.12
   8  10   6   10.30    1.51
   8  10   6   11.11    1.71
  -9 -10  -6   29.91    1.97
  -9 -10  -6   29.29    2.38
   9  10   6   30.95    2.57
   9  10   6   27.78    2.71
   4 -11  -6   40.54    2.61
  -4  11   6   39.52    2.76
  -4  11   6   39.28    2.87
   3 -11  -6    1.29    0.66
  -3  11   6    2.35    0.89
  -3  11   6    1.35    0.83
   2 -11  -6   57.08    2.67
   2 -11  -6   55.38    1.83
  -2  11   6   54.77    3.09
  -2  11   6   55.57    2.96
   1 -11  -6   14.38    0.70
   1 -11  -6   15.91    1.20
   1 -11  -6   15.81    1.26
  -1  11   6   13.38    1.55
  -1  11   6   14.01    1.19
  -1  11   6   17.14    1.60
   0 -11  -6   46.30    2.05
   0 -11  -6   44.24    2.01
   0 -11  -6   45.55    1.44
   0 -11  -6   46.42    1.58
   0  11   6   47.13    2.45
   0  11   6   48.34    2.66
  -1 -11  -6   37.92    1.64
  -1 -11  -6   39.60    1.58
  -1 -11  -6   41.10    1.66
  -1 -11  -6   43.46    1.83
   1  11   6   39.79    2.25
   1  11   6   40.82    2.40
  -2 -11  -6   30.16    1.30
  -2 -11  -6   29.40    1.11
  -2 -11  -6   30.17    1.15
  -2 -11  -6   29.04    1.97
  -2 -11  -6   28.73    1.12
   2  11   6   26.92    1.95
   2  11   6   27.04    1.80
  -3 -11  -6   46.34    1.42
  -3 -11  -6   47.94    2.61
  -3 -11  -6   44.64    1.78
  -3 -11  -6   43.17    1.60
  -3 -11  -6   45.37    1.41
   3  11   6   44.77    2.26
   3  11   6   45.69    2.42
  -4 -11  -6    5.46    0.45
  -4 -11  -6    5.65    0.41
  -4 -11  -6    6.24    0.71
  -4 -11  -6    6.66    1.19
  -4 -11  -6    6.33    0.85
   4  11   6    7.23    1.12
   4  11   6    4.24    0.91
  -5 -11  -6   69.07    2.09
  -5 -11  -6   68.17    2.31
  -5 -11  -6   68.98    3.25
   5  11   6   67.00    3.18
   5  11   6   67.43    3.00
   5  11   6   66.26    3.21
  -6 -11  -6    6.81    1.31
  -6 -11  -6    6.32    0.79
  -6 -11  -6    6.09    1.13
  -6 -11  -6    5.81    0.83
   6  11   6    5.72    1.18
   6  11   6    5.61    1.12
  -7 -11  -6   43.50    2.06
  -7 -11  -6   44.14    2.71
  -7 -11  -6   45.36    1.91
   7  11   6   45.79    2.86
   7  11   6   39.41    2.62
  -8 -11  -6    1.59    0.53
  -8 -11  -6    2.09    0.88
   8  11   6    0.46    1.01
   8  11   6    1.98    0.99
   3 -12  -6    5.27    1.16
  -3  12   6    2.22    1.17
  -3  12   6    3.86    1.16
   2 -12  -6   25.75    1.87
  -2  12   6   21.48    2.35
   1 -12  -6   34.05    2.02
  -1  12   6   30.93    2.26
  -1  12   6   37.09    2.56
   0 -12  -6   19.33    1.42
   0 -12  -6   19.99    1.42
   0  12   6   22.76    1.98
   0  12   6   19.99    1.75
  -1 -12  -6   69.24    2.45
   1  12   6   71.23    3.78
   1  12   6   68.59    3.44
  -2 -12  -6   17.81    0.95
  -2 -12  -6   18.71    1.13
  -2 -12  -6   18.76    1.30
   2  12   6   18.92    1.60
   2  12   6   17.44    1.61
  -3 -12  -6   63.67    2.02
  -3 -12  -6   62.95    1.93
  -3 -12  -6   64.79    3.46
  -3 -12  -6   59.27    1.86
  -3 -12  -6   63.13    1.98
   3  12   6   65.53    2.84
   3  12   6   63.04    3.10
  -4 -12  -6    4.61    0.49
  -4 -12  -6    5.16    0.47
  -4 -12  -6    6.03    0.74
   4  12   6    4.20    0.90
   4  12   6    4.50    1.01
  -5 -12  -6   43.24    1.65
  -5 -12  -6   41.86    2.05
  -5 -12  -6   44.10    1.52
  -5 -12  -6   42.52    2.65
   5  12   6   40.85    2.48
   5  12   6   45.82    2.68
  -6 -12  -6   -0.08    0.46
  -6 -12  -6   -0.77    0.63
  -6 -12  -6    0.08    0.34
   6  12   6    0.63    0.69
   6  12   6    0.29    0.69
  -7 -12  -6   39.38    2.86
  -7 -12  -6   42.70    2.76
  -7 -12  -6   39.27    1.77
   7  12   6   41.38    2.71
   7  12   6   41.03    2.59
  -8 -12  -6    2.22    0.54
  -8 -12  -6    1.51    0.88
   8  12   6    0.99    1.19
   1 -13  -6   31.26    2.09
  -1  13   6   27.86    2.32
  -1  13   6   27.26    2.37
   0 -13  -6    4.11    0.83
   0  13   6    3.95    1.47
   0  13   6    4.68    1.04
  -1 -13  -6   48.56    2.10
  -1 -13  -6   51.91    2.45
   1  13   6   54.40    3.12
  -2 -13  -6    0.01    0.41
  -2 -13  -6    0.71    0.38
   2  13   6    0.32    0.70
   2  13   6    1.35    0.58
  -3 -13  -6   63.34    3.53
  -3 -13  -6   60.87    2.11
  -3 -13  -6   59.34    2.04
   3  13   6   56.71    3.14
  -4 -13  -6   -0.29    0.70
  -4 -13  -6    0.44    0.32
   4  13   6    0.36    0.65
   4  13   6    0.10    0.61
  -5 -13  -6   43.52    2.79
  -5 -13  -6   41.19    1.93
  -5 -13  -6   41.52    1.54
   5  13   6   46.25    4.01
  -6 -13  -6    3.69    1.16
  -6 -13  -6    6.28    0.67
   6  13   6    4.59    1.17
   6  13   6    5.11    1.21
  -7 -13  -6   36.88    1.67
  -7 -13  -6   36.24    2.73
   7  13   6   36.98    2.51
   7  13   6   30.11    2.48
   0  14   6   -0.19    0.78
   0  14   6    1.64    1.01
  -1 -14  -6   31.81    2.05
   1  14   6   32.30    2.82
  -2 -14  -6    0.92    0.52
   2  14   6    0.58    0.75
  -3 -14  -6   43.09    1.83
  -3 -14  -6   42.63    3.04
  -3 -14  -6   39.18    1.70
   3  14   6   41.80    2.75
  -4 -14  -6    0.73    0.88
  -4 -14  -6    1.45    0.42
   4  14   6    0.40    0.84
   4  14   6    0.44    0.72
  -5 -14  -6   51.27    1.85
  -5 -14  -6   48.73    3.19
  -5 -14  -6   52.11    1.91
   5  14   6   56.47    2.97
   5  14   6   54.85    3.29
  -6 -14  -6    3.70    1.19
  -6 -14  -6    3.16    0.56
   6  14   6    3.95    1.13
   6  14   6    3.47    1.14
   4   8  -7   31.68    2.01
   4   8  -7   31.23    2.97
   4   8  -7   27.82    1.94
  -4  -8   7   26.08    2.30
  -4  -8   7   27.57    2.51
  -4  -8   7   25.46    2.19
   3   8  -7   15.94    1.53
   3   8  -7   16.86    2.38
   3   8  -7   17.74    1.67
  -3  -8   7   19.92    2.11
  -3  -8   7   17.54    1.86
  -3  -8   7   20.59    1.99
   2   8  -7   32.91    2.92
   2   8  -7   30.85    2.17
  -2  -8   7   26.80    2.38
  -2  -8   7   33.79    2.46
  -2  -8   7   28.41    2.64
   1   8  -7    7.93    1.32
  -1  -8   7    3.91    1.28
  -1  -8   7    4.77    1.26
  -1  -8   7    6.51    1.34
   6   7  -7   29.74    2.15
   6   7  -7   31.68    2.71
   6   7  -7   30.51    2.88
  -6  -7   7   34.97    2.50
  -6  -7   7   30.42    2.69
   5   7  -7   20.67    2.58
   5   7  -7   25.52    1.69
   5   7  -7   20.39    1.95
  -5  -7   7   22.03    1.66
  -5  -7   7   22.56    2.07
  -5  -7   7   29.17    2.51
   4   7  -7   65.81    2.89
   4   7  -7   66.18    2.92
   4   7  -7   70.36    3.95
  -4  -7   7   65.55    3.31
  -4  -7   7   66.04    3.02
  -4  -7   7   72.15    3.89
   3   7  -7   14.28    2.03
   3   7  -7   15.24    1.46
   3   7  -7   14.94    1.48
  -3  -7   7   17.52    1.62
  -3  -7   7   18.21    2.32
   2   7  -7   77.11    4.03
   2   7  -7   75.01    2.92
   2   7  -7   79.12    3.32
  -2  -7   7   79.01    3.62
  -2  -7   7   81.15    4.12
  -2  -7   7   81.98    3.79
   1   7  -7    2.38    0.66
   1   7  -7    4.37    1.27
   1   7  -7    2.41    0.78
  -1  -7   7    2.56    1.16
  -1  -7   7    4.34    1.19
  -1  -7   7    1.99    0.87
   0   7  -7   48.27    3.77
   0   7  -7   56.83    2.88
   0   7  -7   48.66    2.20
   0  -7   7   54.89    3.35
   0  -7   7   50.60    3.29
  -1   7  -7    1.45    1.22
   1  -7   7    3.93    1.47
   7   6  -7    5.33    1.15
   7   6  -7    5.46    1.60
   7   6  -7    3.76    1.34
  -7  -6   7    3.05    1.19
  -7  -6   7    3.39    1.19
   6   6  -7   63.91    3.78
   6   6  -7   61.35    3.05
  -6  -6   7   67.59    3.86
  -6  -6   7   70.95    3.50
  -6  -6   7   61.79    2.73
   5   6  -7    5.48    1.04
   5   6  -7    6.32    1.40
  -5  -6   7    6.89    1.47
  -5  -6   7    5.91    0.96
  -5  -6   7    6.20    1.12
   4   6  -7   95.44    4.53
   4   6  -7   97.30    3.49
   4   6  -7   96.08    3.62
  -4  -6   7   91.26    3.66
  -4  -6   7   99.44    3.99
  -4  -6   7  101.45    4.60
   3   6  -7    1.18    0.60
   3   6  -7    1.32    0.57
   3   6  -7    1.11    0.96
  -3  -6   7    1.78    0.72
  -3  -6   7    0.43    0.75
  -3  -6   7    0.26    0.58
   2   6  -7   89.07    3.40
   2   6  -7   95.98    4.44
  -2  -6   7  103.74    4.56
  -2  -6   7  100.65    3.96
  -2  -6   7  104.53    4.22
   1   6  -7    4.50    0.83
   1   6  -7    4.15    1.22
   1   6  -7    6.14    0.91
  -1  -6   7    4.69    1.02
  -1  -6   7    3.97    1.06
  -1  -6   7    3.42    1.14
   0   6  -7   64.40    2.58
   0   6  -7   66.20    3.63
   0   6  -7   65.49    3.01
   0  -6   7   65.32    3.61
   0  -6   7   60.63    3.42
  -1   6  -7   21.34    1.78
  -1   6  -7   14.89    2.44
  -1   6  -7   16.97    1.41
   1  -6   7   18.22    1.44
   1  -6   7   17.85    2.19
   1  -6   7   19.34    1.99
  -2   6  -7   28.30    2.26
  -2   6  -7   27.25    1.81
  -2   6  -7   28.93    2.76
   2  -6   7   28.20    2.00
   2  -6   7   29.42    2.64
   2  -6   7   29.50    2.68
   7   5  -7    4.89    1.42
   7   5  -7    3.63    0.96
   7   5  -7    3.27    1.18
  -7  -5   7    6.21    1.43
  -7  -5   7    5.24    1.27
   6   5  -7  100.25    4.68
   6   5  -7   98.32    3.93
  -6  -5   7  102.33    4.73
  -6  -5   7   98.81    4.21
  -6  -5   7   91.69    3.16
   5   5  -7    0.04    0.70
   5   5  -7   -0.14    0.56
  -5  -5   7    0.20    0.66
  -5  -5   7    0.44    0.66
  -5  -5   7    0.02    0.48
   4   5  -7  118.10    4.21
   4   5  -7  119.20    3.46
   4   5  -7  116.45    3.83
   4   5  -7  118.29    5.00
  -4  -5   7  119.23    4.19
  -4  -5   7  119.55    5.01
  -4  -5   7  124.89    4.48
   3   5  -7    4.47    0.61
   3   5  -7    4.13    0.77
   3   5  -7    4.13    0.70
   3   5  -7    6.11    1.25
  -3  -5   7    4.91    0.99
  -3  -5   7    5.64    1.21
  -3  -5   7    4.84    0.96
   2   5  -7   57.97    2.48
   2   5  -7   60.76    2.51
   2   5  -7   60.03    3.22
  -2  -5   7   58.11    2.69
  -2  -5   7   59.45    2.89
  -2  -5   7   62.01    3.25
   1   5  -7   23.92    1.53
   1   5  -7   22.57    1.47
   1   5  -7   23.80    2.08
  -1  -5   7   23.61    1.82
  -1  -5   7   26.73    2.10
  -1  -5   7   24.25    1.64
   0   5  -7   29.56    2.32
   0   5  -7   29.05    1.83
   0   5  -7   29.15    1.65
   0  -5   7   29.30    1.60
   0  -5   7   31.43    2.23
   0  -5   7   27.87    2.26
  -1   5  -7   31.70    2.50
  -1   5  -7   31.30    1.78
  -1   5  -7   32.63    2.04
   1  -5   7   31.51    1.79
   1  -5   7   30.74    2.46
   1  -5   7   31.23    2.35
  -2   5  -7   10.06    1.46
  -2   5  -7    9.27    2.23
  -2   5  -7    8.18    1.14
   2  -5   7   12.35    1.93
   2  -5   7    9.19    1.32
   2  -5   7   10.15    1.73
  -3   5  -7   28.91    2.26
  -3   5  -7   33.75    2.11
  -3   5  -7   36.53    2.94
   3  -5   7   32.79    2.83
   3  -5   7   30.43    2.16
   8   4  -7   61.36    3.79
   8   4  -7   54.98    3.65
   8   4  -7   64.30    3.31
  -8  -4   7   59.15    3.47
  -8  -4   7   66.42    3.89
   7   4  -7    2.40    1.09
   7   4  -7    2.05    0.78
  -7  -4   7    3.57    1.10
  -7  -4   7    2.24    0.94
   6   4  -7  100.04    3.94
   6   4  -7   94.07    4.37
  -6  -4   7   92.01    4.44
  -6  -4   7   97.42    5.80
  -6  -4   7   93.24    3.12
   5   4  -7   20.61    1.51
   5   4  -7   21.03    1.89
   5   4  -7   20.22    1.59
  -5  -4   7   23.74    1.73
  -5  -4   7   18.71    1.43
  -5  -4   7   21.29    1.94
   4   4  -7   86.43    3.13
   4   4  -7   88.88    3.43
   4   4  -7   87.35    3.97
   4   4  -7   84.67    2.87
  -4  -4   7   82.28    3.90
  -4  -4   7   88.62    3.47
  -4  -4   7   87.56    3.31
   3   4  -7   47.71    2.76
   3   4  -7   44.70    1.88
   3   4  -7   47.03    1.93
   3   4  -7   43.53    2.16
  -3  -4   7   42.71    2.18
  -3  -4   7   50.90    2.79
  -3  -4   7   52.15    2.42
   2   4  -7   39.03    2.00
   2   4  -7   44.30    1.88
   2   4  -7   38.80    1.72
   2   4  -7   42.54    2.49
  -2  -4   7   45.63    2.39
  -2  -4   7   43.23    2.51
  -2  -4   7   40.18    2.03
   1   4  -7   51.76    2.10
   1   4  -7   55.68    2.90
   1   4  -7   54.99    2.33
   1   4  -7   54.92    2.26
  -1  -4   7   49.08    2.12
  -1  -4   7   51.75    2.82
  -1  -4   7   49.76    2.68
  -1  -4   7   53.10    2.36
   0   4  -7    4.13    0.98
   0   4  -7    5.77    0.88
   0   4  -7    4.33    0.80
   0  -4   7    2.96    0.82
   0  -4   7    2.61    0.59
   0  -4   7    3.75    1.01
  -1   4  -7   92.91    4.12
  -1   4  -7   86.25    3.23
   1  -4   7   88.59    4.00
   1  -4   7   83.74    2.70
   1  -4   7   85.63    3.29
   1  -4   7   85.12    4.02
  -2   4  -7   -0.80    0.45
  -2   4  -7    0.57    0.76
  -2   4  -7    0.50    0.51
   2  -4   7    1.18    0.79
   2  -4   7    1.08    0.61
   2  -4   7    0.84    0.81
  -3   4  -7   50.69    3.33
  -3   4  -7   59.26    2.77
  -3   4  -7   62.36    3.07
   3  -4   7   53.62    3.27
   3  -4   7   52.40    2.83
  -4   4  -7    0.80    0.82
  -4   4  -7   -0.31    0.97
   4  -4   7    0.65    0.87
   4  -4   7    0.45    0.97
   8   3  -7   63.37    3.78
   8   3  -7   70.39    3.49
  -8  -3   7   74.89    3.81
  -8  -3   7   64.01    3.76
   7   3  -7   10.07    1.36
   7   3  -7    9.77    1.66
  -7  -3   7   13.52    1.81
  -7  -3   7   15.41    2.09
   6   3  -7   64.68    3.02
   6   3  -7   65.70    3.43
  -6  -3   7   62.25    2.37
  -6  -3   7   59.70    3.34
  -6  -3   7   68.20    3.22
   5   3  -7   48.27    2.81
   5   3  -7   48.87    2.42
  -5  -3   7   52.51    2.59
  -5  -3   7   45.47    2.77
  -5  -3   7   52.03    2.28
   4   3  -7   42.02    2.05
   4   3  -7   44.28    2.58
   4   3  -7   47.68    2.32
  -4  -3   7   49.04    2.30
  -4  -3   7   42.73    2.57
   3   3  -7  113.73    3.97
   3   3  -7  110.52    4.39
   3   3  -7  115.57    3.35
  -3  -3   7  113.68    4.45
  -3  -3   7  112.96    3.99
   2   3  -7   33.44    2.15
   2   3  -7   33.22    1.62
   2   3  -7   33.28    1.81
  -2  -3   7   33.77    1.69
  -2  -3   7   32.51    1.91
  -2  -3   7   32.79    1.68
  -2  -3   7   34.43    2.10
   1   3  -7  110.83    3.84
   1   3  -7  118.19    3.61
   1   3  -7  124.44    4.59
  -1  -3   7  112.17    4.36
  -1  -3   7  111.25    4.24
  -1  -3   7  114.88    3.74
   0   3  -7    4.13    0.84
   0   3  -7    5.00    0.81
   0   3  -7    6.18    0.83
   0   3  -7    4.85    0.80
   0  -3   7    5.22    0.63
   0  -3   7    5.25    1.06
   0  -3   7    4.89    0.81
   0  -3   7    4.83    0.81
   0  -3   7    5.12    1.05
  -1   3  -7   67.51    2.70
  -1   3  -7   65.42    2.65
  -1   3  -7   60.71    3.19
   1  -3   7   67.82    2.79
   1  -3   7   65.75    3.21
   1  -3   7   65.28    3.15
   1  -3   7   58.20    2.00
  -2   3  -7    2.05    0.59
  -2   3  -7    1.42    0.67
   2  -3   7    1.61    0.59
   2  -3   7    1.87    0.80
  -3   3  -7   44.04    2.43
  -3   3  -7   47.85    2.96
  -3   3  -7   38.86    2.23
   3  -3   7   43.31    2.44
   3  -3   7   43.03    2.74
   3  -3   7   42.40    2.63
  -4   3  -7    6.46    1.45
  -4   3  -7    5.07    1.11
  -4   3  -7    3.21    0.92
   4  -3   7    4.17    0.99
   4  -3   7    4.98    1.32
   4  -3   7    6.58    1.36
  -5   3  -7   23.72    2.42
   5  -3   7   22.17    2.96
   5  -3   7   23.41    2.06
   5  -3   7   29.47    2.55
   8   2  -7   37.43    2.84
   8   2  -7   38.17    2.55
   8   2  -7   34.78    2.65
  -8  -2   7   36.95    2.71
  -8  -2   7   37.81    2.65
   7   2  -7   39.41    2.37
   7   2  -7   37.00    2.64
  -7  -2   7   41.38    2.77
  -7  -2   7   37.22    2.55
   6   2  -7   24.60    1.99
   6   2  -7   22.77    2.64
  -6  -2   7   24.72    2.01
  -6  -2   7   21.88    1.76
   5   2  -7   86.46    3.78
   5   2  -7   82.54    3.38
  -5  -2   7   84.03    3.03
  -5  -2   7   81.22    2.53
  -5  -2   7   85.21    3.75
  -5  -2   7   89.04    3.44
   4   2  -7   11.77    1.48
   4   2  -7    9.11    1.14
  -4  -2   7    7.76    1.24
  -4  -2   7    7.17    0.94
  -4  -2   7    9.27    1.30
   3   2  -7  144.56    4.62
   3   2  -7  136.83    4.39
  -3  -2   7  130.05    5.44
  -3  -2   7  147.85    4.41
   2   2  -7   -0.03    0.20
   2   2  -7    0.02    0.33
   2   2  -7    0.20    0.47
   2   2  -7    0.43    0.42
  -2  -2   7   -0.34    0.33
  -2  -2   7    0.31    0.32
  -2  -2   7    0.29    0.36
   1   2  -7  134.20    4.18
   1   2  -7  138.25    4.42
   1   2  -7  135.90    4.84
   1   2  -7  134.82    3.85
  -1  -2   7  135.23    3.89
  -1  -2   7  132.60    4.01
  -1  -2   7  140.08    4.71
  -1  -2   7  138.46    4.79
   0   2  -7   -0.15    0.26
   0   2  -7    0.03    0.35
   0   2  -7   -0.31    0.32
   0   2  -7    0.31    0.41
   0  -2   7   -0.02    0.38
   0  -2   7    0.15    0.35
   0  -2   7    0.34    0.25
   0  -2   7    0.31    0.46
   0  -2   7   -0.28    0.31
  -1   2  -7   50.06    2.21
  -1   2  -7   52.87    2.35
  -1   2  -7   56.49    2.82
   1  -2   7   56.52    2.02
   1  -2   7   49.05    2.61
   1  -2   7   50.19    2.13
   1  -2   7   53.29    2.75
  -2   2  -7   13.00    1.17
  -2   2  -7   10.41    1.18
  -2   2  -7   10.92    1.47
   2  -2   7   11.69    1.17
   2  -2   7    9.83    1.39
   2  -2   7   11.00    1.15
   2  -2   7   10.57    1.49
  -3   2  -7   40.33    2.14
   3  -2   7   37.94    2.22
   3  -2   7   31.05    4.13
   3  -2   7   37.93    2.32
  -4   2  -7   14.99    1.86
   4  -2   7   18.95    1.79
   4  -2   7   13.69    1.80
   4  -2   7   14.40    1.52
  -5   2  -7   23.50    2.29
   5  -2   7   22.90    1.97
   5  -2   7   18.47    2.28
   5  -2   7   20.72    2.10
  -6   2  -7   12.02    2.02
   6  -2   7    9.59    1.74
   6  -2   7    8.20    1.51
   6  -2   7    9.20    2.74
   8   1  -7   14.69    1.84
   8   1  -7   10.93    1.60
   8   1  -7   12.62    1.86
  -8  -1   7   11.67    1.84
  -8  -1   7   11.12    1.77
   7   1  -7   73.43    3.66
   7   1  -7   67.03    3.23
  -7  -1   7   72.24    3.65
  -7  -1   7   73.71    3.53
   6   1  -7    7.53    1.28
   6   1  -7    7.68    1.20
   6   1  -7    8.08    1.05
  -6  -1   7    6.56    1.20
  -6  -1   7    7.20    1.15
   5   1  -7   71.28    2.90
   5   1  -7   76.03    3.22
   5   1  -7   82.60    3.56
  -5  -1   7   73.11    2.29
  -5  -1   7   82.47    3.24
  -5  -1   7   79.76    3.52
  -5  -1   7   82.60    3.01
   4   1  -7    0.57    0.46
   4   1  -7    0.48    0.41
  -4  -1   7    1.09    0.50
  -4  -1   7    0.71    0.23
  -4  -1   7    0.17    0.35
  -4  -1   7    0.68    0.44
   3   1  -7   74.08    3.20
   3   1  -7   73.78    2.91
   3   1  -7   68.89    2.78
  -3  -1   7   75.54    2.66
  -3  -1   7   69.59    2.85
  -3  -1   7   77.18    3.21
   2   1  -7    4.82    0.84
   2   1  -7    5.06    0.74
   2   1  -7    5.02    0.87
   2   1  -7    5.67    0.38
   2   1  -7    6.00    0.87
  -2  -1   7    4.39    0.77
  -2  -1   7    6.05    0.59
   1   1  -7   66.88    2.03
   1   1  -7   62.19    2.63
   1   1  -7   68.30    2.60
   1   1  -7   64.85    2.83
   1   1  -7   67.83    2.92
  -1  -1   7   66.31    2.80
  -1  -1   7   61.83    2.77
  -1  -1   7   65.80    2.17
   0   1  -7   16.97    1.18
   0   1  -7   15.79    0.92
   0   1  -7   13.75    1.13
   0   1  -7   15.58    1.31
   0   1  -7   16.01    1.37
   0  -1   7   15.40    0.75
   0  -1   7   16.19    1.28
   0  -1   7   15.58    1.16
   0  -1   7   13.82    0.84
   0  -1   7   15.17    0.91
   0  -1   7   17.37    1.34
  -1   1  -7   74.03    3.21
  -1   1  -7   78.20    3.34
  -1   1  -7   77.54    2.73
  -1   1  -7   79.10    2.99
   1  -1   7   80.71    2.61
   1  -1   7   81.54    3.37
   1  -1   7   76.24    3.07
   1  -1   7   83.31    3.29
  -2   1  -7   20.90    1.41
  -2   1  -7   15.25    1.41
  -2   1  -7   17.27    1.55
   2  -1   7   13.65    1.40
   2  -1   7   18.39    1.17
   2  -1   7   19.09    1.48
   2  -1   7   17.92    1.36
  -3   1  -7   32.62    2.17
   3  -1   7   31.49    2.02
   3  -1   7   34.86    2.26
   3  -1   7   32.72    2.00
   3  -1   7   34.20    2.59
  -4   1  -7   34.73    2.36
   4  -1   7   33.35    2.63
   4  -1   7   29.05    2.04
   4  -1   7   32.89    2.10
  -5   1  -7   18.12    1.85
   5  -1   7   16.64    1.64
   5  -1   7   19.81    3.42
   5  -1   7   17.65    1.64
  -6   1  -7   27.52    2.45
   6  -1   7   26.43    2.25
   6  -1   7   29.15    2.47
   6  -1   7   28.32    2.42
   8   0  -7    0.06    0.62
   8   0  -7    1.38    0.79
   8   0  -7    0.33    0.89
  -8   0   7    0.49    0.94
  -8   0   7    1.86    0.96
   7   0  -7   85.38    3.72
  -7   0   7   82.98    3.95
  -7   0   7   86.97    3.96
   6   0  -7    3.19    0.79
   6   0  -7    4.02    0.98
  -6   0   7    3.70    0.89
  -6   0   7    1.44    0.64
   5   0  -7  141.21    4.87
   5   0  -7  127.49    4.48
  -5   0   7  122.08    3.43
  -5   0   7  132.66    4.50
  -5   0   7  124.34    5.59
  -5   0   7  130.23    4.16
   4   0  -7   12.26    1.15
   4   0  -7   12.25    0.99
   4   0  -7   13.37    1.22
   4   0  -7   13.96    1.13
  -4   0   7   12.20    1.21
  -4   0   7   11.75    0.54
  -4   0   7   12.95    1.08
   3   0  -7  121.24    4.26
   3   0  -7  122.74    4.03
   3   0  -7  117.03    4.13
   3   0  -7  114.81    3.94
   3   0  -7  113.23    3.54
  -3   0   7  123.99    3.72
  -3   0   7  113.33    4.28
  -3   0   7  120.65    4.18
   2   0  -7   23.87    1.59
   2   0  -7   24.48    1.57
   2   0  -7   21.68    1.38
   2   0  -7   23.87    1.47
  -2   0   7   24.09    1.53
  -2   0   7   24.82    1.77
  -2   0   7   25.29    1.15
   1   0  -7   81.14    3.07
   1   0  -7   83.61    3.25
   1   0  -7   88.35    3.57
   1   0  -7   91.96    3.45
   1   0  -7   85.76    2.23
  -1   0   7   88.06    2.84
  -1   0   7   89.07    3.28
  -1   0   7   85.61    3.55
   0   0  -7   41.35    2.07
   0   0  -7   38.67    2.07
   0   0  -7   36.84    1.89
   0   0  -7   40.61    1.46
   0   0   7   42.01    1.38
   0   0   7   43.49    2.05
   0   0   7   43.97    2.18
   0   0   7   41.50    1.48
   0   0   7   42.43    2.05
  -1   0  -7   31.64    1.67
  -1   0  -7   27.10    1.70
  -1   0  -7   29.85    1.81
   1   0   7   27.61    1.75
   1   0   7   30.06    2.07
   1   0   7   29.84    1.19
   1   0   7   29.43    1.71
  -2   0  -7   62.35    2.79
  -2   0  -7   67.62    2.96
   2   0   7   64.69    2.23
   2   0   7   63.91    2.76
   2   0   7   63.58    2.79
   2   0   7   68.58    3.02
  -3   0  -7   18.36    1.52
  -3   0  -7   17.36    1.52
   3   0   7   18.43    1.39
   3   0   7   19.43    1.61
   3   0   7   16.92    1.40
  -4   0  -7   65.69    3.13
   4   0   7   73.09    3.42
   4   0   7   67.36    2.99
   4   0   7   60.09    2.99
  -5   0  -7    6.08    1.03
   5   0   7    6.92    1.16
   5   0   7    6.70    1.34
   5   0   7    6.88    1.25
  -6   0  -7   53.43    3.16
   6   0   7   50.94    2.87
   6   0   7   53.34    3.22
   6   0   7   54.31    3.14
  -7   0  -7    0.58    0.89
   7   0   7   -1.33    0.87
   7   0   7    0.71    0.89
   7   0   7    1.22    1.03
   8  -1  -7   -0.19    0.63
   8  -1  -7    1.10    0.84
   8  -1  -7    1.10    0.81
   8  -1  -7    0.05    0.67
  -8   1   7    0.74    0.86
  -8   1   7    0.41    0.76
   7  -1  -7   65.46    3.40
   7  -1  -7   65.94    3.21
  -7   1   7   67.11    3.43
  -7   1   7   72.38    3.58
   6  -1  -7    1.61    0.65
   6  -1  -7    0.97    0.49
  -6   1   7   -0.03    0.49
  -6   1   7    0.98    0.61
   5  -1  -7   94.41    3.80
   5  -1  -7   96.89    3.63
  -5   1   7   97.95    3.68
  -5   1   7   89.32    2.69
  -5   1   7   95.20    3.76
   4  -1  -7    3.08    0.71
   4  -1  -7    1.79    0.63
   4  -1  -7    2.10    0.53
   4  -1  -7    2.20    0.50
  -4   1   7    2.27    0.51
  -4   1   7    2.72    0.67
  -4   1   7    2.64    0.59
  -4   1   7    2.26    0.30
   3  -1  -7  107.15    3.77
   3  -1  -7  106.60    3.26
   3  -1  -7  107.43    3.70
   3  -1  -7   96.96    3.55
   3  -1  -7  112.14    3.90
  -3   1   7  110.11    3.39
  -3   1   7  105.34    3.75
   2  -1  -7   21.05    1.40
   2  -1  -7   19.91    1.35
   2  -1  -7   22.96    1.41
   2  -1  -7   23.47    1.43
   2  -1  -7   21.31    0.99
  -2   1   7   22.75    1.04
  -2   1   7   22.76    1.40
  -2   1   7   23.38    1.61
   1  -1  -7   57.33    2.44
   1  -1  -7   65.27    2.90
   1  -1  -7   57.80    2.44
   1  -1  -7   59.34    2.47
   1  -1  -7   59.36    2.55
  -1   1   7   55.74    2.67
  -1   1   7   56.47    2.02
   0  -1  -7   65.43    2.56
   0  -1  -7   64.78    1.85
   0  -1  -7   58.46    2.84
   0  -1  -7   63.83    2.59
   0  -1  -7   61.19    2.54
   0   1   7   63.31    2.76
   0   1   7   64.48    1.84
   0   1   7   62.09    2.51
   0   1   7   65.20    2.68
  -1  -1  -7   14.43    1.14
  -1  -1  -7   15.77    1.20
  -1  -1  -7   13.19    1.13
   1   1   7   16.79    1.28
   1   1   7   14.92    1.08
   1   1   7   14.82    0.61
  -2  -1  -7  117.11    3.82
  -2  -1  -7  102.18    3.73
  -2  -1  -7  107.45    3.86
   2   1   7  107.72    3.93
   2   1   7  105.71    3.04
   2   1   7  111.62    4.04
  -3  -1  -7    2.87    0.67
  -3  -1  -7    3.75    0.76
   3   1   7    3.38    0.79
   3   1   7    3.21    0.65
   3   1   7    4.43    0.65
   3   1   7    3.22    0.77
  -4  -1  -7   91.65    3.66
  -4  -1  -7   91.71    3.72
   4   1   7   94.34    3.59
   4   1   7   99.49    3.99
   4   1   7   96.86    3.89
   4   1   7   90.26    3.26
  -5  -1  -7   -0.47    0.62
  -5  -1  -7    0.28    0.50
  -5  -1  -7   -0.35    0.36
   5   1   7   -0.18    0.59
   5   1   7    0.09    0.47
   5   1   7   -0.36    0.43
  -6  -1  -7   61.73    3.15
  -6  -1  -7   56.34    2.73
   6   1   7   57.10    2.87
   6   1   7   58.07    3.20
   6   1   7   56.47    3.17
  -7  -1  -7    3.29    0.96
  -7  -1  -7    3.11    1.01
   7   1   7    3.16    1.10
   7   1   7    4.04    1.20
   7   1   7    3.46    1.31
   8  -2  -7    6.67    1.15
   8  -2  -7    5.77    1.25
   8  -2  -7    4.84    1.21
   8  -2  -7    3.61    0.95
  -8   2   7    7.23    1.55
  -8   2   7    8.62    1.57
  -8   2   7    2.89    1.15
   7  -2  -7   36.70    2.51
   7  -2  -7   36.87    2.32
   7  -2  -7   32.79    2.31
  -7   2   7   37.65    2.61
  -7   2   7   35.75    2.55
  -7   2   7   35.28    2.55
   6  -2  -7    6.38    1.10
   6  -2  -7    6.11    1.06
  -6   2   7    5.78    1.08
  -6   2   7    6.85    1.16
  -6   2   7    5.92    1.12
   5  -2  -7   22.01    1.54
   5  -2  -7   22.12    1.67
  -5   2   7   19.20    1.44
  -5   2   7   16.97    1.44
   4  -2  -7   25.35    1.58
   4  -2  -7   27.88    2.53
   4  -2  -7   24.07    1.40
   4  -2  -7   25.79    1.65
  -4   2   7   26.11    1.51
  -4   2   7   24.74    1.59
  -4   2   7   24.44    0.96
   3  -2  -7    6.12    0.87
   3  -2  -7    6.72    0.94
   3  -2  -7    7.04    0.91
   3  -2  -7    6.29    0.63
  -3   2   7    6.24    0.88
  -3   2   7    6.03    0.83
  -3   2   7    6.60    0.67
   2  -2  -7   81.00    2.40
   2  -2  -7   80.26    2.99
   2  -2  -7   86.98    3.06
   2  -2  -7   79.49    2.94
   2  -2  -7   81.19    2.95
  -2   2   7   85.89    2.95
  -2   2   7   73.37    3.24
  -2   2   7   78.67    2.47
   1  -2  -7    4.68    0.77
   1  -2  -7    6.87    0.91
   1  -2  -7    7.19    0.91
   1  -2  -7    5.42    0.75
   1  -2  -7    5.23    0.73
  -1   2   7    5.65    0.80
  -1   2   7    7.10    0.61
  -1   2   7    7.01    0.37
   0  -2  -7  177.39    4.32
   0  -2  -7  188.16    5.74
   0  -2  -7  180.03    5.45
   0  -2  -7  176.72    5.46
   0  -2  -7  181.57    5.78
   0   2   7  179.33    5.53
   0   2   7  181.03    4.55
   0   2   7  178.49    5.12
  -1  -2  -7   18.64    1.24
  -1  -2  -7   19.17    1.26
  -1  -2  -7   19.17    1.24
  -1  -2  -7   19.06    1.31
   1   2   7   18.19    1.49
   1   2   7   20.41    1.20
  -2  -2  -7  183.27    5.43
  -2  -2  -7  188.08    5.45
  -2  -2  -7  175.06    5.30
   2   2   7  180.16    5.72
   2   2   7  177.41    4.47
   2   2   7  182.65    5.70
   2   2   7  179.57    5.24
  -3  -2  -7   -0.05    0.26
  -3  -2  -7    0.58    0.38
  -3  -2  -7    0.22    0.21
   3   2   7    0.11    0.31
   3   2   7    0.23    0.27
   3   2   7    0.17    0.28
   3   2   7   -0.05    0.31
  -4  -2  -7  161.94    4.60
  -4  -2  -7  151.89    5.04
  -4  -2  -7  159.33    5.16
   4   2   7  158.54    5.61
   4   2   7  162.25    5.00
   4   2   7  155.60    5.36
  -5  -2  -7    7.06    0.90
  -5  -2  -7    7.58    1.13
  -5  -2  -7    8.55    1.09
   5   2   7    8.77    1.36
   5   2   7    9.44    1.38
   5   2   7    9.62    1.19
   5   2   7    8.01    1.23
  -6  -2  -7   71.01    3.44
  -6  -2  -7   82.61    3.22
  -6  -2  -7   79.12    3.51
  -6  -2  -7   72.98    2.19
   6   2   7   79.11    3.61
   6   2   7   75.90    3.60
   6   2   7   76.91    3.73
   6   2   7   73.83    3.23
  -7  -2  -7   22.51    2.03
  -7  -2  -7   21.96    1.09
   7   2   7   24.00    1.99
   7   2   7   21.58    2.11
   7   2   7   20.06    1.98
   7   2   7   19.16    1.91
  -8  -2  -7   25.09    2.05
  -8  -2  -7   25.17    2.46
   8   2   7   25.66    2.33
   8   2   7   23.87    2.47
   8   2   7   30.02    2.46
   8  -3  -7   11.87    1.62
   8  -3  -7    9.03    1.63
   8  -3  -7   11.80    1.44
  -8   3   7   10.57    1.77
  -8   3   7   13.45    2.03
  -8   3   7    9.01    1.64
   7  -3  -7   27.85    1.78
   7  -3  -7   25.53    2.01
   7  -3  -7   23.31    1.79
   7  -3  -7   20.96    1.97
  -7   3   7   22.28    2.05
  -7   3   7   23.74    2.03
  -7   3   7   23.70    2.11
   6  -3  -7   30.48    1.96
  -6   3   7   31.56    2.21
  -6   3   7   32.16    2.30
  -6   3   7   35.58    2.26
   5  -3  -7   38.85    2.07
   5  -3  -7   37.11    3.20
   5  -3  -7   35.70    2.14
  -5   3   7   33.42    2.17
  -5   3   7   37.03    2.10
  -5   3   7   36.01    2.10
   4  -3  -7   40.31    2.00
   4  -3  -7   36.36    1.98
   4  -3  -7   39.65    2.08
  -4   3   7   39.47    2.31
  -4   3   7   37.63    2.10
  -4   3   7   38.17    1.99
  -4   3   7   39.29    1.44
   3  -3  -7    6.45    0.86
   3  -3  -7    6.50    0.83
   3  -3  -7    7.61    0.93
   3  -3  -7    7.56    0.72
  -3   3   7   10.45    0.96
  -3   3   7    8.90    0.81
  -3   3   7    8.39    0.43
   2  -3  -7  112.95    3.69
   2  -3  -7  112.68    3.62
   2  -3  -7  113.79    3.76
   2  -3  -7  110.75    3.18
  -2   3   7  113.65    3.33
  -2   3   7  112.28    3.81
  -2   3   7  116.87    3.65
  -2   3   7  117.89    3.72
   1  -3  -7    0.99    0.42
   1  -3  -7    0.60    0.39
   1  -3  -7    0.97    0.31
   1  -3  -7    0.63    0.33
   1  -3  -7    0.67    0.16
  -1   3   7    0.76    0.38
  -1   3   7    0.69    0.45
  -1   3   7    0.68    0.26
  -1   3   7    0.58    0.26
   0  -3  -7  221.46    5.30
   0  -3  -7  212.47    6.07
   0  -3  -7  230.40    6.42
   0  -3  -7  223.23    6.36
   0  -3  -7  231.28    6.12
   0  -3  -7  226.27    6.52
   0   3   7  220.72    6.03
   0   3   7  225.49    6.54
   0   3   7  217.34    6.59
   0   3   7  232.01    5.71
  -1  -3  -7    5.16    0.70
  -1  -3  -7    3.16    0.78
  -1  -3  -7    4.44    0.78
  -1  -3  -7    4.01    0.80
  -1  -3  -7    3.89    0.46
   1   3   7    3.51    0.31
   1   3   7    4.67    0.96
   1   3   7    5.22    0.66
  -2  -3  -7  215.61    6.61
  -2  -3  -7  216.82    6.34
  -2  -3  -7  230.19    6.14
   2   3   7  223.79    7.10
  -3  -3  -7    8.39    0.81
  -3  -3  -7    6.86    0.52
  -3  -3  -7    7.54    0.78
   3   3   7    8.29    1.08
   3   3   7    6.87    1.05
   3   3   7    6.68    0.56
  -4  -3  -7   98.92    3.56
  -4  -3  -7  106.54    3.66
  -4  -3  -7  107.11    3.25
   4   3   7   98.87    3.27
   4   3   7  104.35    3.95
   4   3   7  104.83    3.48
   4   3   7  101.60    3.98
   4   3   7  108.63    4.11
  -5  -3  -7   32.24    1.05
  -5  -3  -7   34.26    1.71
  -5  -3  -7   29.21    1.80
  -5  -3  -7   29.89    1.85
   5   3   7   31.96    2.03
   5   3   7   30.98    2.10
   5   3   7   33.28    2.10
  -6  -3  -7   41.06    1.50
  -6  -3  -7   41.82    1.43
  -6  -3  -7   35.99    2.24
  -6  -3  -7   37.48    2.26
  -6  -3  -7   37.75    2.03
   6   3   7   40.85    2.59
   6   3   7   40.64    2.19
   6   3   7   42.80    2.48
   6   3   7   40.06    2.46
  -7  -3  -7   31.09    1.38
  -7  -3  -7   32.86    2.06
  -7  -3  -7   28.85    2.16
   7   3   7   33.39    2.33
   7   3   7   28.56    2.02
   7   3   7   35.57    2.45
   7   3   7   33.29    2.45
  -8  -3  -7    2.42    0.95
  -8  -3  -7    5.28    1.13
   8   3   7    5.72    1.38
   8   3   7    6.95    1.36
   8   3   7    4.50    1.22
   7  -4  -7   12.21    1.65
   7  -4  -7   14.18    1.56
   7  -4  -7   11.99    1.57
   7  -4  -7   14.38    1.64
  -7   4   7   14.14    1.74
  -7   4   7   14.55    2.06
  -7   4   7   13.80    2.02
   6  -4  -7   43.66    2.60
   6  -4  -7   45.55    2.38
  -6   4   7   42.00    2.09
  -6   4   7   46.93    2.83
  -6   4   7   40.75    2.73
  -6   4   7   43.26    2.69
   5  -4  -7   14.85    1.30
   5  -4  -7   15.92    1.41
   5  -4  -7   15.54    1.45
  -5   4   7   16.07    1.40
  -5   4   7   14.39    1.39
  -5   4   7   14.42    1.36
  -5   4   7   15.09    1.05
   4  -4  -7   91.29    3.48
   4  -4  -7   93.01    3.39
   4  -4  -7   92.69    3.42
  -4   4   7   88.64    3.50
  -4   4   7   92.02    3.69
  -4   4   7   93.34    3.44
  -4   4   7   87.79    3.27
   3  -4  -7    5.56    0.77
   3  -4  -7    4.83    0.79
   3  -4  -7    5.34    0.68
   3  -4  -7    4.54    0.72
  -3   4   7    4.93    0.75
  -3   4   7    4.60    0.43
  -3   4   7    5.02    0.82
  -3   4   7    5.19    0.73
  -3   4   7    3.39    0.73
   2  -4  -7  147.24    4.50
   2  -4  -7  154.27    4.47
   2  -4  -7  151.43    4.17
   2  -4  -7  142.12    4.59
  -2   4   7  145.50    4.76
  -2   4   7  158.83    4.40
  -2   4   7  150.80    4.38
  -2   4   7  156.43    4.74
  -2   4   7  153.17    3.76
   1  -4  -7   25.37    1.28
   1  -4  -7   28.44    1.36
   1  -4  -7   27.32    1.02
  -1   4   7   26.84    1.54
  -1   4   7   26.56    1.37
  -1   4   7   27.26    0.86
  -1   4   7   26.20    1.27
  -1   4   7   22.39    1.52
   0  -4  -7  241.18    6.89
   0  -4  -7  231.49    5.75
   0  -4  -7  238.29    6.61
   0  -4  -7  238.64    7.05
   0  -4  -7  239.43    6.64
   0  -4  -7  241.36    6.26
   0  -4  -7  242.60    6.23
   0   4   7  240.92    6.16
   0   4   7  219.07    7.08
   0   4   7  239.04    6.01
   0   4   7  240.03    6.16
  -1  -4  -7   62.68    2.71
  -1  -4  -7   61.81    2.54
  -1  -4  -7   64.18    2.56
  -1  -4  -7   66.58    2.27
  -1  -4  -7   64.29    2.91
  -1  -4  -7   60.90    2.20
   1   4   7   65.43    2.98
   1   4   7   64.51    1.99
   1   4   7   61.85    2.04
  -2  -4  -7  163.17    3.89
  -2  -4  -7  159.75    4.52
  -2  -4  -7  166.94    3.97
  -2  -4  -7  153.75    4.57
  -2  -4  -7  160.75    5.27
   2   4   7  164.38    5.59
   2   4   7  157.19    4.25
  -3  -4  -7   85.50    2.52
  -3  -4  -7   85.19    2.87
  -3  -4  -7   88.47    2.95
  -3  -4  -7   88.08    2.25
   3   4   7   87.89    2.78
   3   4   7   87.00    2.59
   3   4   7   86.96    3.47
   3   4   7   90.57    3.50
  -4  -4  -7   50.40    1.85
  -4  -4  -7   45.97    2.01
   4   4   7   45.77    1.88
   4   4   7   45.04    1.96
   4   4   7   45.44    2.29
   4   4   7   47.68    2.48
   4   4   7   45.26    2.38
  -5  -4  -7  100.03    3.89
  -5  -4  -7  100.45    3.37
  -5  -4  -7  100.68    3.57
  -5  -4  -7   96.34    2.72
   5   4   7  105.55    4.11
   5   4   7   99.82    3.98
   5   4   7   90.33    3.36
   5   4   7  100.23    3.86
  -6  -4  -7    8.88    1.07
  -6  -4  -7    5.51    0.95
  -6  -4  -7    6.46    0.66
   6   4   7    7.10    1.18
   6   4   7    5.09    1.05
   6   4   7    5.84    0.86
  -7  -4  -7   76.27    3.25
  -7  -4  -7   72.23    3.32
  -7  -4  -7   72.51    2.49
   7   4   7   76.73    3.47
   7   4   7   72.29    3.59
   7   4   7   72.96    3.69
  -8  -4  -7    0.49    0.69
  -8  -4  -7    0.06    0.49
  -8  -4  -7    0.63    0.67
   8   4   7    0.08    0.89
   8   4   7    0.40    0.85
   7  -5  -7    5.31    1.12
   7  -5  -7    5.94    1.11
   7  -5  -7    7.94    1.32
   7  -5  -7    4.29    1.01
  -7   5   7    4.86    1.02
  -7   5   7    5.57    1.26
  -7   5   7    6.17    1.40
  -7   5   7    5.69    1.28
   6  -5  -7   41.31    2.25
   6  -5  -7   43.30    2.33
  -6   5   7   42.11    2.52
  -6   5   7   36.93    2.32
  -6   5   7   38.66    2.68
  -6   5   7   42.57    2.76
   5  -5  -7   -0.49    0.44
   5  -5  -7    0.91    0.54
   5  -5  -7    1.95    0.72
   5  -5  -7    0.82    0.57
  -5   5   7    1.59    0.71
  -5   5   7   -0.48    0.36
  -5   5   7    0.92    0.56
   4  -5  -7  130.36    4.47
   4  -5  -7  131.86    4.31
   4  -5  -7  128.36    4.37
  -4   5   7  130.03    4.42
  -4   5   7  132.73    3.94
  -4   5   7  131.55    4.77
  -4   5   7  126.70    4.65
   3  -5  -7    1.20    0.40
   3  -5  -7    2.17    0.50
   3  -5  -7    1.71    0.57
   3  -5  -7    2.13    0.53
  -3   5   7    1.35    0.32
  -3   5   7    2.14    0.44
  -3   5   7    2.70    0.64
   2  -5  -7  161.74    4.79
   2  -5  -7  151.53    4.42
   2  -5  -7  159.99    4.65
   2  -5  -7  154.01    4.55
  -2   5   7  156.33    4.96
  -2   5   7  159.34    5.00
  -2   5   7  158.91    4.15
   1  -5  -7   33.80    1.87
   1  -5  -7   31.68    1.28
   1  -5  -7   30.77    1.38
  -1   5   7   32.59    1.18
  -1   5   7   33.90    1.72
  -1   5   7   33.91    1.33
  -1   5   7   33.62    1.78
  -1   5   7   30.88    1.59
   0  -5  -7  123.50    3.53
   0  -5  -7  117.88    3.86
   0  -5  -7  115.79    3.17
   0  -5  -7  122.27    4.20
   0  -5  -7  119.16    3.33
   0  -5  -7  122.96    3.45
   0  -5  -7  121.07    3.45
   0   5   7  121.27    4.01
   0   5   7  123.94    3.19
   0   5   7  121.82    3.30
   0   5   7  125.00    3.71
   0   5   7  121.11    3.26
  -1  -5  -7  115.30    3.45
  -1  -5  -7  120.18    4.18
  -1  -5  -7  124.04    3.13
  -1  -5  -7  123.62    4.34
  -1  -5  -7  130.03    3.51
  -1  -5  -7  122.05    3.40
  -1  -5  -7  129.21    4.03
  -1  -5  -7  124.27    3.47
   1   5   7  126.46    3.04
   1   5   7  116.62    4.27
   1   5   7  120.64    3.54
   1   5   7  122.15    3.05
  -2  -5  -7   65.07    2.60
  -2  -5  -7   65.88    2.22
  -2  -5  -7   66.03    1.91
  -2  -5  -7   67.89    2.96
  -2  -5  -7   68.98    2.18
  -2  -5  -7   68.08    2.04
   2   5   7   67.12    1.79
   2   5   7   66.52    1.82
  -3  -5  -7  157.31    4.42
  -3  -5  -7  161.27    4.23
  -3  -5  -7  156.97    4.08
  -3  -5  -7  158.99    4.36
   3   5   7  162.10    4.12
   3   5   7  164.73    5.25
   3   5   7  153.01    6.48
   3   5   7  164.96    5.34
   3   5   7  152.54    4.02
  -4  -5  -7   15.55    0.78
  -4  -5  -7   13.80    0.94
  -4  -5  -7   17.00    1.04
  -4  -5  -7   17.41    0.98
   4   5   7   14.84    1.32
   4   5   7   16.00    1.01
   4   5   7   13.00    1.24
   4   5   7   13.62    0.86
   4   5   7   17.68    1.33
  -5  -5  -7  121.35    3.85
  -5  -5  -7  123.19    3.75
  -5  -5  -7  108.88    3.22
  -5  -5  -7  110.22    3.72
   5   5   7  108.74    3.80
   5   5   7  116.53    4.38
   5   5   7  116.64    4.49
   5   5   7  114.72    4.13
  -6  -5  -7    0.34    0.37
  -6  -5  -7    0.30    0.40
   6   5   7    0.43    0.39
   6   5   7    0.51    0.42
   6   5   7   -0.28    0.44
   6   5   7    0.17    0.50
  -7  -5  -7   78.20    3.30
  -7  -5  -7   69.24    3.11
  -7  -5  -7   71.40    3.20
   7   5   7   73.80    4.00
   7   5   7   78.49    3.73
   7   5   7   71.14    3.25
   7   5   7   73.59    3.70
  -8  -5  -7    2.06    0.80
  -8  -5  -7    2.61    0.79
   8   5   7    2.00    0.87
   8   5   7    0.83    0.86
   8   5   7    1.44    0.82
   7  -6  -7   -0.40    0.68
   7  -6  -7    0.02    0.80
   7  -6  -7    1.27    0.73
   7  -6  -7    0.72    0.71
  -7   6   7   -0.58    0.82
  -7   6   7    0.92    0.83
  -7   6   7    0.24    0.93
   6  -6  -7   51.64    2.58
   6  -6  -7   46.82    2.51
   6  -6  -7   47.77    2.78
   6  -6  -7   45.47    2.34
  -6   6   7   50.14    3.09
  -6   6   7   47.12    2.41
  -6   6   7   43.75    2.63
  -6   6   7   49.02    3.12
   5  -6  -7    5.80    1.11
   5  -6  -7    3.83    0.85
   5  -6  -7    5.14    0.89
   5  -6  -7    5.65    1.00
  -5   6   7    4.26    0.86
  -5   6   7    4.96    1.11
  -5   6   7    4.41    1.08
  -5   6   7    5.26    0.86
   4  -6  -7   66.86    2.87
   4  -6  -7   68.33    2.83
   4  -6  -7   70.35    2.98
   4  -6  -7   64.54    2.70
  -4   6   7   67.51    2.84
  -4   6   7   67.61    3.20
  -4   6   7   68.57    3.26
  -4   6   7   70.97    2.64
   3  -6  -7   33.63    1.72
   3  -6  -7   34.26    1.75
   3  -6  -7   31.37    1.73
  -3   6   7   36.82    2.12
  -3   6   7   34.23    1.71
  -3   6   7   33.60    1.54
   2  -6  -7   94.43    3.22
   2  -6  -7   99.76    3.23
   2  -6  -7  104.45    3.31
   2  -6  -7   98.82    3.30
  -2   6   7  101.59    3.68
  -2   6   7   96.97    3.84
  -2   6   7   96.15    3.12
   1  -6  -7   79.32    3.21
   1  -6  -7   82.04    2.94
   1  -6  -7   84.66    2.70
   1  -6  -7   86.38    2.73
   1  -6  -7   84.08    2.66
  -1   6   7   84.43    3.03
  -1   6   7   84.24    2.58
  -1   6   7   83.70    3.20
  -1   6   7   86.15    2.51
   0  -6  -7   54.00    2.16
   0  -6  -7   48.50    1.87
   0  -6  -7   50.48    2.34
   0  -6  -7   55.15    2.04
   0  -6  -7   52.66    1.82
   0  -6  -7   50.03    1.90
   0  -6  -7   52.29    1.74
   0   6   7   52.42    1.41
   0   6   7   54.19    1.48
   0   6   7   53.25    1.83
   0   6   7   54.86    2.17
   0   6   7   52.86    2.32
  -1  -6  -7  250.53    6.17
  -1  -6  -7  253.86    6.36
  -1  -6  -7  253.99    6.52
  -1  -6  -7  255.33    6.22
  -1  -6  -7  250.15    7.16
  -1  -6  -7  252.94    6.96
   1   6   7  247.75    6.71
   1   6   7  246.80    7.05
   1   6   7  254.52    7.50
   1   6   7  262.35    6.52
  -2  -6  -7   36.79    1.46
  -2  -6  -7   38.18    1.28
  -2  -6  -7   37.21    1.33
  -2  -6  -7   37.30    1.39
   2   6   7   35.87    1.85
   2   6   7   36.70    2.37
   2   6   7   37.74    1.59
  -3  -6  -7  219.86    5.85
  -3  -6  -7  229.94    5.76
  -3  -6  -7  227.78    5.81
  -3  -6  -7  235.94    5.96
   3   6   7  231.80    6.86
   3   6   7  237.43    6.66
   3   6   7  223.35    6.96
  -4  -6  -7    2.37    0.42
  -4  -6  -7    1.86    0.36
  -4  -6  -7    1.79    0.38
  -4  -6  -7    1.99    0.41
   4   6   7    1.96    0.58
   4   6   7    2.04    0.29
   4   6   7    1.79    0.53
   4   6   7    1.78    0.54
  -5  -6  -7  121.31    3.67
  -5  -6  -7  111.53    3.37
  -5  -6  -7  111.06    3.55
   5   6   7  105.65    4.15
   5   6   7  118.09    4.01
   5   6   7  109.16    3.23
   5   6   7  116.84    4.39
   5   6   7  113.24    4.41
  -6  -6  -7    7.37    0.85
  -6  -6  -7    8.18    0.98
  -6  -6  -7    8.36    1.05
  -6  -6  -7    9.29    1.13
   6   6   7   10.68    1.51
   6   6   7    8.16    1.14
   6   6   7    6.87    1.20
  -7  -6  -7   35.96    2.11
  -7  -6  -7   39.19    2.12
   7   6   7   34.62    2.04
   7   6   7   33.35    1.86
   7   6   7   36.71    2.45
   7   6   7   39.41    2.62
  -8  -6  -7   20.26    1.73
  -8  -6  -7   21.74    1.75
   8   6   7   23.56    2.24
   8   6   7   19.73    1.75
   8   6   7   24.11    2.18
  -9  -6  -7   15.16    1.84
  -9  -6  -7   15.52    1.85
   9   6   7   16.14    1.85
   9   6   7   16.97    2.51
   9   6   7   16.89    2.12
   6  -7  -7   44.28    2.48
   6  -7  -7   43.94    2.17
   6  -7  -7   43.58    2.75
   6  -7  -7   41.76    2.33
  -6   7   7   41.76    2.84
  -6   7   7   41.17    2.74
  -6   7   7   43.45    2.48
   5  -7  -7   16.30    1.39
   5  -7  -7   17.82    1.43
   5  -7  -7   18.64    1.62
  -5   7   7   19.77    1.90
  -5   7   7   19.33    1.50
  -5   7   7   15.08    1.57
   4  -7  -7   50.89    2.29
   4  -7  -7   50.77    2.52
   4  -7  -7   50.78    2.48
  -4   7   7   47.23    2.21
  -4   7   7   47.31    3.12
  -4   7   7   48.22    2.49
   3  -7  -7   53.06    2.24
   3  -7  -7   55.77    2.45
   3  -7  -7   52.11    2.35
   3  -7  -7   51.25    2.36
  -3   7   7   53.57    2.23
  -3   7   7   59.60    2.81
   2  -7  -7   20.25    1.18
   2  -7  -7   17.88    1.17
   2  -7  -7   16.46    1.20
   2  -7  -7   18.61    1.16
   2  -7  -7   15.32    1.29
  -2   7   7   18.42    1.12
  -2   7   7   17.61    1.09
  -2   7   7   19.99    1.51
   1  -7  -7  132.12    3.76
   1  -7  -7  124.37    4.26
   1  -7  -7  129.01    3.99
   1  -7  -7  132.34    3.81
   1  -7  -7  134.60    3.99
  -1   7   7  134.63    3.87
  -1   7   7  125.69    4.13
  -1   7   7  130.62    3.52
  -1   7   7  128.63    4.39
   0  -7  -7    1.08    0.28
   0  -7  -7    0.96    0.35
   0  -7  -7    1.00    0.46
   0  -7  -7    1.53    0.32
   0  -7  -7    1.63    0.39
   0   7   7    0.99    0.35
   0   7   7    1.16    0.46
   0   7   7    0.76    0.34
  -1  -7  -7  130.84    3.92
  -1  -7  -7  130.39    4.27
  -1  -7  -7  128.02    4.09
  -1  -7  -7  131.18    3.35
  -1  -7  -7  133.04    3.31
   1   7   7  136.84    3.91
   1   7   7  133.29    4.33
   1   7   7  127.86    4.12
  -2  -7  -7   14.45    0.53
  -2  -7  -7   14.87    0.93
  -2  -7  -7   13.00    0.87
  -2  -7  -7   13.87    1.06
   2   7   7   13.70    1.00
   2   7   7   16.02    1.33
   2   7   7   14.78    1.01
  -3  -7  -7  146.31    4.23
  -3  -7  -7  142.05    3.78
  -3  -7  -7  142.47    4.18
  -3  -7  -7  155.61    3.72
   3   7   7  152.73    5.12
   3   7   7  148.40    4.95
   3   7   7  146.59    4.62
  -4  -7  -7   13.77    0.76
  -4  -7  -7   15.35    1.02
  -4  -7  -7   11.46    0.86
  -4  -7  -7   12.72    0.75
   4   7   7   13.44    1.09
   4   7   7   14.31    1.37
   4   7   7   13.45    1.24
  -5  -7  -7   65.77    1.82
  -5  -7  -7   63.40    2.32
  -5  -7  -7   68.94    2.33
  -5  -7  -7   67.68    2.40
   5   7   7   64.63    3.16
   5   7   7   63.70    3.05
  -6  -7  -7   18.09    1.23
  -6  -7  -7   18.19    1.35
  -6  -7  -7   18.62    1.21
   6   7   7   18.32    1.30
   6   7   7   17.72    0.96
   6   7   7   19.45    1.69
   6   7   7   19.52    1.74
  -7  -7  -7   24.72    1.60
  -7  -7  -7   20.15    1.63
  -7  -7  -7   23.46    1.62
   7   7   7   25.17    2.08
   7   7   7   22.83    2.03
   7   7   7   23.54    1.40
   7   7   7   24.96    1.63
  -8  -7  -7   18.18    1.63
  -8  -7  -7   19.85    1.60
   8   7   7   18.61    1.93
   8   7   7   20.09    2.13
   8   7   7   22.25    1.58
  -9  -7  -7    6.18    1.25
  -9  -7  -7    8.25    1.27
   9   7   7    7.79    1.90
   9   7   7    7.74    1.61
   6  -8  -7   24.93    1.81
   6  -8  -7   16.71    2.64
  -6   8   7   23.36    2.22
  -6   8   7   22.51    2.02
   5  -8  -7   44.14    2.52
   5  -8  -7   36.15    2.99
  -5   8   7   36.88    2.43
  -5   8   7   45.27    2.42
  -5   8   7   44.39    2.88
   4  -8  -7   19.32    1.55
   4  -8  -7   12.88    1.46
   4  -8  -7   14.49    1.33
   4  -8  -7   14.81    1.22
  -4   8   7   13.50    1.29
  -4   8   7   14.47    1.74
  -4   8   7   14.91    1.32
   3  -8  -7  110.00    3.58
   3  -8  -7  109.95    3.85
   3  -8  -7  102.88    3.72
   3  -8  -7  108.02    3.90
   3  -8  -7   95.74    3.57
  -3   8   7  111.71    3.79
  -3   8   7  112.79    4.38
   2  -8  -7    0.54    0.46
   2  -8  -7    0.16    0.36
   2  -8  -7    0.38    0.31
   2  -8  -7    0.25    0.35
   2  -8  -7    0.55    0.33
  -2   8   7    0.30    0.36
  -2   8   7    0.04    0.46
  -2   8   7    1.20    0.47
   1  -8  -7  164.67    5.01
   1  -8  -7  164.49    4.74
   1  -8  -7  169.18    4.65
   1  -8  -7  168.90    5.09
   1  -8  -7  171.00    4.71
  -1   8   7  167.30    4.38
  -1   8   7  159.00    5.35
  -1   8   7  170.53    4.94
  -1   8   7  167.18    5.04
   0  -8  -7   39.46    1.72
   0  -8  -7   41.98    1.87
   0  -8  -7   39.99    1.45
   0  -8  -7   42.23    1.90
   0  -8  -7   39.57    1.91
   0  -8  -7   42.70    1.49
   0   8   7   40.34    2.11
   0   8   7   40.40    1.80
  -1  -8  -7  202.85    5.56
  -1  -8  -7  199.96    5.60
  -1  -8  -7  198.12    5.79
  -1  -8  -7  198.09    4.80
  -1  -8  -7  199.86    4.81
   1   8   7  201.90    5.96
   1   8   7  197.72    5.98
   1   8   7  197.96    5.61
  -2  -8  -7   69.60    2.67
  -2  -8  -7   71.27    2.42
  -2  -8  -7   72.35    2.61
   2   8   7   71.50    3.06
   2   8   7   67.73    3.08
   2   8   7   69.66    2.64
   2   8   7   68.86    2.77
  -3  -8  -7  122.22    3.56
  -3  -8  -7  125.39    3.92
   3   8   7  124.85    4.08
   3   8   7  123.08    4.51
   3   8   7  128.31    4.16
  -4  -8  -7   53.90    1.78
  -4  -8  -7   52.86    1.65
  -4  -8  -7   55.44    1.67
   4   8   7   56.15    2.70
   4   8   7   54.01    2.60
   4   8   7   52.56    2.73
  -5  -8  -7   59.71    2.51
  -5  -8  -7   58.70    2.01
   5   8   7   55.44    2.93
   5   8   7   54.95    2.81
   5   8   7   60.63    2.48
  -6  -8  -7   27.80    1.45
  -6  -8  -7   24.84    1.38
  -6  -8  -7   26.53    1.70
   6   8   7   24.84    1.98
   6   8   7   29.30    1.83
  -7  -8  -7   16.06    1.45
  -7  -8  -7   15.18    1.25
  -7  -8  -7   16.43    1.27
   7   8   7   13.96    1.04
   7   8   7   15.65    1.66
   7   8   7   14.58    1.86
  -8  -8  -7   19.96    1.83
  -8  -8  -7   22.44    1.64
   8   8   7   19.79    2.01
   8   8   7   20.16    2.10
  -9  -8  -7    1.66    0.80
  -9  -8  -7    2.42    1.01
   9   8   7    1.43    1.20
   9   8   7    2.19    1.18
   5  -9  -7   35.52    2.06
   5  -9  -7   36.12    2.43
  -5   9   7   39.79    2.84
  -5   9   7   38.90    2.45
   4  -9  -7    1.20    0.62
   4  -9  -7   -0.14    0.47
   4  -9  -7    0.89    0.51
   4  -9  -7    0.49    0.57
  -4   9   7    0.00    0.51
  -4   9   7    0.39    0.78
  -4   9   7    0.28    0.77
   3  -9  -7   81.93    3.28
   3  -9  -7   82.91    3.37
   3  -9  -7   76.19    2.81
   3  -9  -7   78.80    3.18
   3  -9  -7   78.20    2.77
  -3   9   7   88.13    3.87
  -3   9   7   76.91    3.09
  -3   9   7   80.10    3.25
   2  -9  -7    3.50    0.65
   2  -9  -7    3.37    0.63
   2  -9  -7    4.19    0.69
   2  -9  -7    2.97    0.65
   2  -9  -7    2.64    0.67
  -2   9   7    2.82    0.70
  -2   9   7    2.38    0.75
  -2   9   7    2.82    0.67
   1  -9  -7  115.74    3.50
   1  -9  -7  115.83    3.61
   1  -9  -7  116.71    3.54
   1  -9  -7  116.05    3.97
  -1   9   7  110.52    3.86
  -1   9   7  116.31    4.35
  -1   9   7  113.40    3.20
   0  -9  -7   14.75    1.09
   0  -9  -7   15.45    0.85
   0  -9  -7   17.57    0.91
   0  -9  -7   16.53    1.18
   0  -9  -7   15.37    0.97
   0   9   7   14.97    1.36
   0   9   7   15.12    1.11
  -1  -9  -7  128.57    3.38
  -1  -9  -7  129.65    4.09
  -1  -9  -7  133.98    3.35
  -1  -9  -7  138.11    3.99
  -1  -9  -7  128.78    4.16
   1   9   7  130.74    5.07
   1   9   7  138.12    4.29
  -2  -9  -7   23.80    1.25
  -2  -9  -7   23.07    1.35
  -2  -9  -7   22.00    1.43
   2   9   7   22.07    1.40
   2   9   7   22.72    1.54
  -3  -9  -7   60.04    2.46
  -3  -9  -7   58.78    2.09
   3   9   7   56.10    2.68
   3   9   7   58.60    2.50
   3   9   7   59.86    2.80
   3   9   7   57.74    2.52
  -4  -9  -7   31.85    1.32
  -4  -9  -7   35.01    1.80
   4   9   7   31.73    2.07
   4   9   7   33.15    1.73
   4   9   7   34.87    2.09
  -5  -9  -7   11.92    0.72
  -5  -9  -7   11.89    0.71
  -5  -9  -7   10.13    1.03
   5   9   7   12.07    1.52
   5   9   7   15.41    1.53
  -6  -9  -7   38.53    1.89
  -6  -9  -7   40.80    1.72
  -6  -9  -7   43.34    2.28
   6   9   7   42.84    1.93
   6   9   7   41.88    2.55
   6   9   7   42.17    2.62
  -7  -9  -7    1.69    0.89
  -7  -9  -7    0.72    0.65
  -7  -9  -7    1.10    0.42
   7   9   7    1.23    0.77
   7   9   7    1.46    0.89
   7   9   7   -0.02    0.60
  -8  -9  -7   30.71    2.19
  -8  -9  -7   33.95    1.96
   8   9   7   35.43    2.68
   8   9   7   33.23    1.58
   8   9   7   34.10    2.66
   4 -10  -7   10.39    1.15
   4 -10  -7   10.30    1.42
  -4  10   7   11.44    1.55
  -4  10   7   10.91    1.55
   3 -10  -7   49.87    2.08
   3 -10  -7   56.14    2.67
  -3  10   7   48.51    2.90
  -3  10   7   49.65    2.61
   2 -10  -7   30.83    1.73
   2 -10  -7   30.72    1.34
   2 -10  -7   34.44    2.00
   2 -10  -7   29.81    1.74
   2 -10  -7   31.18    1.56
  -2  10   7   26.73    1.80
  -2  10   7   28.34    1.71
  -2  10   7   29.33    2.08
   1 -10  -7   65.42    2.48
   1 -10  -7   57.33    2.16
   1 -10  -7   62.62    2.34
   1 -10  -7   61.53    2.71
   1 -10  -7   62.38    2.18
  -1  10   7   66.79    2.81
  -1  10   7   61.05    3.04
   0 -10  -7   30.71    1.36
   0 -10  -7   32.04    1.76
   0 -10  -7   32.01    1.37
   0 -10  -7   30.41    1.51
   0 -10  -7   31.29    1.40
   0  10   7   34.89    2.12
   0  10   7   28.46    1.74
  -1 -10  -7   27.35    1.10
  -1 -10  -7   27.25    1.27
  -1 -10  -7   25.67    1.01
  -1 -10  -7   26.44    1.47
  -1 -10  -7   24.38    1.46
   1  10   7   26.75    2.40
   1  10   7   29.42    1.90
  -2 -10  -7   58.95    2.74
  -2 -10  -7   64.21    2.39
  -2 -10  -7   60.48    2.29
   2  10   7   57.13    2.63
   2  10   7   69.19    3.01
  -3 -10  -7   19.40    1.15
  -3 -10  -7   18.43    1.40
   3  10   7   21.65    1.56
   3  10   7   19.29    1.68
  -4 -10  -7   48.37    2.24
  -4 -10  -7   51.06    2.42
   4  10   7   48.55    2.57
   4  10   7   49.67    2.59
   4  10   7   54.13    2.86
  -5 -10  -7    3.13    0.72
  -5 -10  -7    3.20    0.39
  -5 -10  -7    3.73    0.39
   5  10   7    4.24    0.96
   5  10   7    2.91    0.92
  -6 -10  -7   49.90    1.84
  -6 -10  -7   48.81    2.58
   6  10   7   50.02    2.91
  -7 -10  -7    0.62    0.46
  -7 -10  -7    0.17    0.36
  -7 -10  -7    0.42    0.62
   7  10   7   -0.58    0.75
   7  10   7   -0.47    0.63
  -8 -10  -7   45.78    2.76
  -8 -10  -7   45.46    2.19
   8  10   7   40.77    2.95
   8  10   7   42.25    2.97
   4 -11  -7   14.61    1.26
   4 -11  -7   14.39    1.70
  -4  11   7   13.17    1.66
  -4  11   7   16.34    2.14
   3 -11  -7   22.73    1.81
   3 -11  -7   22.03    1.29
  -3  11   7   24.84    2.07
  -3  11   7   23.19    1.91
   2 -11  -7   31.25    1.43
   2 -11  -7   35.84    2.03
  -2  11   7   35.07    2.18
  -2  11   7   35.99    2.46
   1 -11  -7   16.46    1.25
   1 -11  -7   15.38    0.89
   1 -11  -7   16.99    1.19
   1 -11  -7   18.11    0.95
  -1  11   7   17.40    1.51
  -1  11   7   20.17    1.78
   0 -11  -7   48.87    1.99
   0 -11  -7   44.43    1.84
   0 -11  -7   49.27    1.69
   0  11   7   41.47    2.54
   0  11   7   50.09    2.49
  -1 -11  -7    7.13    0.59
  -1 -11  -7    6.24    0.81
  -1 -11  -7    8.02    0.70
  -1 -11  -7    8.97    0.63
   1  11   7    8.99    1.12
   1  11   7    6.97    1.24
  -2 -11  -7   43.51    1.72
   2  11   7   42.92    2.26
  -3 -11  -7    0.18    0.42
  -3 -11  -7    0.24    0.40
   3  11   7   -0.30    0.40
   3  11   7   -0.06    0.39
  -4 -11  -7   55.00    2.39
  -4 -11  -7   55.76    2.71
   4  11   7   54.15    2.75
   4  11   7   51.86    2.62
   4  11   7   53.10    2.71
  -5 -11  -7   -0.24    0.50
   5  11   7    0.20    0.62
   5  11   7    1.61    0.62
   5  11   7    1.78    0.73
  -6 -11  -7   38.15    3.34
  -6 -11  -7   39.40    1.64
  -6 -11  -7   40.38    1.53
   6  11   7   42.35    2.63
   6  11   7   38.79    2.58
  -7 -11  -7    1.46    0.55
  -7 -11  -7    1.18    0.45
  -7 -11  -7    1.16    0.74
   7  11   7    0.89    0.84
   7  11   7    0.71    0.99
  -8 -11  -7   37.14    2.57
  -8 -11  -7   32.83    1.77
   8  11   7   30.73    2.85
   8  11   7   33.18    2.61
   3 -12  -7    5.79    1.10
  -3  12   7    3.89    1.15
  -3  12   7    8.29    1.51
   2 -12  -7   44.61    2.43
  -2  12   7   44.73    2.72
  -2  12   7   45.77    2.88
   1 -12  -7    7.63    1.00
   1 -12  -7    6.91    0.54
  -1  12   7    6.68    1.21
  -1  12   7    6.99    1.32
   0 -12  -7   42.08    2.00
   0  12   7   46.68    2.54
   0  12   7   40.53    2.59
  -1 -12  -7    2.72    0.59
  -1 -12  -7    2.54    0.55
  -1 -12  -7    3.08    0.51
  -1 -12  -7    2.26    0.35
   1  12   7    2.02    0.73
   1  12   7    1.96    0.83
  -2 -12  -7   43.44    1.52
  -2 -12  -7   43.29    1.41
  -2 -12  -7   44.17    1.53
   2  12   7   43.75    2.48
   2  12   7   43.97    2.64
  -3 -12  -7    2.12    0.51
  -3 -12  -7    1.93    0.66
   3  12   7    1.59    0.68
   3  12   7    1.74    0.67
  -4 -12  -7   63.45    3.19
  -4 -12  -7   62.90    2.56
   4  12   7   65.33    3.14
   4  12   7   65.12    3.17
  -5 -12  -7    7.35    1.04
  -5 -12  -7    6.96    1.26
   5  12   7    8.11    1.29
   5  12   7    8.01    1.28
  -6 -12  -7   64.95    3.33
  -6 -12  -7   70.33    2.21
   6  12   7   68.54    3.49
   6  12   7   61.81    3.25
  -7 -12  -7    7.43    0.80
  -7 -12  -7    7.56    1.38
  -7 -12  -7    9.45    0.97
   7  12   7    6.02    1.32
  -8 -12  -7   27.84    1.57
  -8 -12  -7   24.11    2.23
   8  12   7   24.41    2.51
   8  12   7   26.10    2.48
   1 -13  -7    1.27    0.68
  -1  13   7    2.78    0.92
  -1  13   7    1.04    0.95
   0 -13  -7   40.94    2.10
   0  13   7   40.74    2.74
   0  13   7   36.76    2.50
  -1 -13  -7    0.01    0.45
  -1 -13  -7    0.88    0.41
   1  13   7    0.20    0.68
   1  13   7    0.53    0.68
  -2 -13  -7   49.54    1.82
   2  13   7   54.83    2.95
   2  13   7   45.83    2.86
  -3 -13  -7    3.59    0.44
  -3 -13  -7    4.29    1.11
   3  13   7    5.96    1.11
  -4 -13  -7   37.97    1.68
  -4 -13  -7   37.51    2.56
   4  13   7   36.17    2.32
   4  13   7   37.99    2.45
  -5 -13  -7   26.84    2.17
  -5 -13  -7   23.74    1.60
   5  13   7   24.74    2.04
   5  13   7   21.93    2.51
  -6 -13  -7   25.55    1.01
  -6 -13  -7   27.43    1.85
  -6 -13  -7   26.97    1.11
  -6 -13  -7   24.91    2.10
   6  13   7   26.47    2.27
  -7 -13  -7   33.55    1.44
  -7 -13  -7   34.37    2.53
   7  13   7   30.60    2.87
   7  13   7   31.50    2.61
   0 -14  -7   41.63    2.33
   0  14   7   42.03    3.04
   0  14   7   41.34    2.80
  -1 -14  -7    5.12    0.96
   1  14   7    3.21    1.04
   1  14   7    4.72    1.25
  -2 -14  -7   52.75    3.33
  -2 -14  -7   48.45    1.96
   2  14   7   42.85    2.81
   2  14   7   49.72    3.10
  -3 -14  -7   10.85    0.68
  -3 -14  -7   11.05    0.69
  -3 -14  -7   13.15    1.97
   3  14   7   10.23    1.75
  -4 -14  -7   42.44    2.93
   4  14   7   43.04    2.74
   4  14   7   41.44    2.62
  -5 -14  -7   25.86    2.31
   5  14   7   29.70    2.34
   5  14   7   26.62    2.30
  -6 -14  -7   14.16    1.93
  -6 -14  -7   17.97    1.89
   6  14   7   14.20    1.89
   6  14   7   16.11    2.03
   4   7  -8   -0.24    1.17
   4   7  -8    1.03    0.70
  -4  -7   8    0.78    0.95
  -4  -7   8    0.32    0.86
  -4  -7   8    1.18    0.87
   3   7  -8   41.15    2.34
   3   7  -8   40.65    3.28
   3   7  -8   40.53    2.19
  -3  -7   8   41.95    3.05
  -3  -7   8   42.42    2.61
  -3  -7   8   44.34    2.64
   2   7  -8   14.01    1.54
   2   7  -8   14.70    2.25
   2   7  -8   14.60    1.44
  -2  -7   8   14.54    2.03
  -2  -7   8   17.86    2.08
  -2  -7   8   14.93    1.76
   1   7  -8   29.46    2.02
   1   7  -8   25.41    2.25
   1   7  -8   28.08    2.81
  -1  -7   8   31.62    2.52
  -1  -7   8   27.84    2.24
  -1  -7   8   32.27    2.74
   6   6  -8    3.47    1.06
   6   6  -8    2.67    1.34
  -6  -6   8    3.30    1.03
  -6  -6   8    1.75    1.16
   5   6  -8   30.52    2.17
  -5  -6   8   29.91    1.98
  -5  -6   8   29.44    2.14
  -5  -6   8   26.35    2.52
   4   6  -8   22.42    2.09
   4   6  -8   23.40    2.37
   4   6  -8   22.04    1.58
  -4  -6   8   19.76    1.81
  -4  -6   8   18.21    2.27
  -4  -6   8   20.31    1.72
   3   6  -8   32.14    1.98
   3   6  -8   27.02    2.55
   3   6  -8   28.32    1.85
  -3  -6   8   27.99    2.12
  -3  -6   8   30.81    2.49
   2   6  -8   32.46    2.69
   2   6  -8   32.20    1.99
   2   6  -8   35.72    1.94
  -2  -6   8   32.43    2.17
  -2  -6   8   34.78    2.71
  -2  -6   8   31.28    2.33
   1   6  -8   17.61    1.55
   1   6  -8   20.12    3.27
   1   6  -8   18.84    1.54
  -1  -6   8   23.88    2.08
  -1  -6   8   17.91    1.86
  -1  -6   8   19.63    2.33
   0   6  -8   42.30    2.22
   0   6  -8   38.69    2.34
   0   6  -8   40.02    3.07
   0  -6   8   40.80    2.45
   0  -6   8   46.46    3.15
   0  -6   8   40.63    2.74
  -1   6  -8    5.13    1.03
  -1   6  -8    6.11    1.22
  -1   6  -8    6.20    1.53
   1  -6   8    6.63    1.62
   6   5  -8   32.69    3.22
   6   5  -8   33.92    2.30
  -6  -5   8   32.40    1.83
  -6  -5   8   33.11    2.32
  -6  -5   8   34.27    2.75
   5   5  -8   50.93    2.68
   5   5  -8   50.39    3.27
  -5  -5   8   44.07    3.07
  -5  -5   8   44.13    2.61
  -5  -5   8   46.64    2.36
   4   5  -8   47.89    2.04
   4   5  -8   46.49    3.07
   4   5  -8   47.17    2.47
  -4  -5   8   45.55    3.05
  -4  -5   8   46.76    2.49
  -4  -5   8   43.70    2.48
   3   5  -8   18.66    1.31
   3   5  -8   23.14    2.13
   3   5  -8   18.16    1.52
  -3  -5   8   17.94    1.60
  -3  -5   8   19.19    1.55
   2   5  -8   63.12    2.81
   2   5  -8   64.60    3.48
   2   5  -8   65.43    2.60
  -2  -5   8   63.88    2.87
  -2  -5   8   62.84    3.51
   1   5  -8    6.52    1.39
   1   5  -8    8.01    1.08
   1   5  -8    9.93    1.16
  -1  -5   8    7.48    1.28
  -1  -5   8    8.43    1.36
  -1  -5   8    8.86    1.21
   0   5  -8   40.22    2.18
   0   5  -8   41.69    2.25
   0   5  -8   40.94    3.17
   0  -5   8   40.30    2.72
   0  -5   8   41.34    2.32
  -1   5  -8    1.26    0.62
  -1   5  -8    1.48    0.87
  -1   5  -8    0.37    0.64
   1  -5   8    1.18    0.67
   1  -5   8    0.94    0.91
   1  -5   8    1.64    1.04
  -2   5  -8   24.11    1.83
  -2   5  -8   25.25    2.01
  -2   5  -8   25.00    2.44
   2  -5   8   25.97    2.69
   2  -5   8   27.14    2.52
   2  -5   8   23.68    1.92
   7   4  -8   23.06    1.99
   7   4  -8   28.42    2.61
  -7  -4   8   22.40    2.12
  -7  -4   8   27.00    2.46
   6   4  -8   40.30    2.52
   6   4  -8   41.79    3.48
  -6  -4   8   49.87    3.19
  -6  -4   8   39.52    2.91
  -6  -4   8   41.97    2.57
   5   4  -8   14.17    1.57
   5   4  -8   15.54    2.09
  -5  -4   8   11.50    1.41
  -5  -4   8   12.18    1.23
   4   4  -8   64.91    2.69
   4   4  -8   70.80    3.73
   4   4  -8   63.21    3.00
  -4  -4   8   69.87    3.02
  -4  -4   8   66.96    3.57
  -4  -4   8   66.48    2.93
   3   4  -8    1.91    0.45
   3   4  -8    0.68    0.63
   3   4  -8    1.90    0.89
  -3  -4   8    2.09    0.67
  -3  -4   8    2.34    0.62
  -3  -4   8    3.22    0.98
   2   4  -8   63.24    2.80
   2   4  -8   61.70    3.32
   2   4  -8   65.13    2.42
  -2  -4   8   63.85    3.35
  -2  -4   8   63.19    2.67
  -2  -4   8   62.38    3.03
   1   4  -8    1.46    0.63
   1   4  -8    1.38    0.80
   1   4  -8    1.62    0.52
  -1  -4   8    1.26    0.73
  -1  -4   8    0.55    0.57
  -1  -4   8    1.06    0.52
  -1  -4   8    1.55    1.09
   0   4  -8   56.20    3.19
   0   4  -8   58.94    2.57
   0   4  -8   57.62    2.55
   0  -4   8   58.65    3.16
   0  -4   8   57.43    3.19
   0  -4   8   55.26    2.53
  -1   4  -8    0.73    0.82
  -1   4  -8    1.00    0.60
  -1   4  -8    0.84    0.50
   1  -4   8    0.54    0.73
   1  -4   8    1.55    0.80
   1  -4   8    0.79    0.63
  -2   4  -8   28.19    2.55
  -2   4  -8   34.19    2.15
  -2   4  -8   30.54    1.99
   2  -4   8   26.43    2.42
   2  -4   8   37.70    2.78
   2  -4   8   35.89    2.20
  -3   4  -8    3.74    1.05
  -3   4  -8    6.28    1.04
  -3   4  -8    4.44    1.18
   3  -4   8    5.30    1.21
   3  -4   8    3.81    1.25
   3  -4   8    3.82    1.24
   7   3  -8    9.20    1.69
   7   3  -8    8.69    1.36
  -7  -3   8    9.76    1.67
  -7  -3   8    8.63    1.44
   6   3  -8   61.72    3.46
   6   3  -8   61.67    3.08
  -6  -3   8   58.97    3.01
  -6  -3   8   54.92    3.47
   5   3  -8    6.45    1.35
   5   3  -8    4.00    1.01
  -5  -3   8    7.31    1.39
  -5  -3   8    4.33    0.87
  -5  -3   8    3.11    0.79
   4   3  -8   70.78    3.57
   4   3  -8   63.02    2.95
  -4  -3   8   64.19    3.39
  -4  -3   8   66.48    2.83
  -4  -3   8   63.08    2.82
   3   3  -8    0.40    0.30
   3   3  -8    0.11    0.52
   3   3  -8    1.49    0.62
   3   3  -8    0.54    0.64
  -3  -3   8    0.81    0.43
  -3  -3   8    0.54    0.61
  -3  -3   8    0.65    0.53
   2   3  -8   52.80    2.26
   2   3  -8   57.56    3.02
   2   3  -8   54.41    2.57
   2   3  -8   54.76    2.42
  -2  -3   8   55.02    2.32
  -2  -3   8   50.77    2.81
  -2  -3   8   50.95    2.62
   1   3  -8    4.65    0.78
   1   3  -8    5.11    0.72
   1   3  -8    6.35    0.90
   1   3  -8    5.56    1.14
  -1  -3   8    5.41    0.75
  -1  -3   8    5.08    1.06
  -1  -3   8    6.12    1.09
   0   3  -8   62.81    2.49
   0   3  -8   66.05    3.33
   0   3  -8   64.12    2.72
   0  -3   8   59.79    2.11
   0  -3   8   64.27    3.18
   0  -3   8   63.46    2.52
   0  -3   8   63.43    2.75
   0  -3   8   70.48    3.33
  -1   3  -8   18.69    1.40
  -1   3  -8   19.29    1.49
  -1   3  -8   20.98    1.88
   1  -3   8   18.00    1.76
   1  -3   8   16.28    1.41
   1  -3   8   18.63    1.76
   1  -3   8   17.75    0.88
  -2   3  -8   68.17    2.92
  -2   3  -8   62.99    2.85
   2  -3   8   58.61    3.35
   2  -3   8   57.74    3.29
   2  -3   8   64.45    3.02
  -3   3  -8   11.47    1.77
  -3   3  -8   13.88    1.69
  -3   3  -8   11.33    1.43
   3  -3   8   11.31    1.80
   3  -3   8   10.81    1.51
   3  -3   8   13.92    1.99
  -4   3  -8   27.91    2.14
  -4   3  -8   24.47    2.02
  -4   3  -8   31.18    2.71
   4  -3   8   26.54    2.17
   4  -3   8   22.65    2.45
   4  -3   8   28.21    2.54
   8   2  -8   29.36    2.65
   8   2  -8   31.16    2.84
  -8  -2   8   32.93    2.46
  -8  -2   8   32.09    2.89
   7   2  -8    0.52    0.81
   7   2  -8    0.35    0.58
  -7  -2   8    0.71    0.76
  -7  -2   8    1.37    1.00
   6   2  -8   47.93    2.66
   6   2  -8   43.93    2.84
  -6  -2   8   46.85    2.58
  -6  -2   8   41.31    2.04
  -6  -2   8   48.83    2.98
   5   2  -8    0.52    0.57
  -5  -2   8    0.68    0.66
  -5  -2   8    1.72    0.56
  -5  -2   8    0.51    0.52
  -5  -2   8    0.83    0.57
   4   2  -8   59.32    3.20
   4   2  -8   63.57    2.93
  -4  -2   8   60.09    3.15
  -4  -2   8   64.01    2.77
  -4  -2   8   64.77    2.68
   3   2  -8    4.99    0.90
  -3  -2   8    5.62    0.98
  -3  -2   8    5.03    0.88
  -3  -2   8    4.67    1.06
   2   2  -8   76.66    2.40
   2   2  -8   83.20    3.05
   2   2  -8   79.29    3.23
   2   2  -8   86.21    3.72
  -2  -2   8   82.32    3.54
  -2  -2   8   84.30    3.41
  -2  -2   8   82.19    2.84
   1   2  -8   15.16    0.91
   1   2  -8   16.63    1.53
   1   2  -8   14.68    1.21
  -1  -2   8   15.22    0.98
  -1  -2   8   16.66    1.00
  -1  -2   8   18.05    1.50
  -1  -2   8   19.44    1.85
   0   2  -8   53.98    2.41
   0   2  -8   51.90    2.78
   0   2  -8   48.95    2.00
   0  -2   8   49.79    2.40
   0  -2   8   46.34    2.00
   0  -2   8   50.26    1.99
   0  -2   8   49.80    1.70
   0  -2   8   47.80    3.00
   0  -2   8   57.49    2.84
  -1   2  -8   38.39    2.05
  -1   2  -8   39.89    1.91
  -1   2  -8   39.37    2.48
   1  -2   8   39.18    1.83
   1  -2   8   40.80    2.47
   1  -2   8   36.90    2.05
   1  -2   8   39.99    2.48
  -2   2  -8   40.04    2.21
  -2   2  -8   45.04    2.71
   2  -2   8   49.25    2.73
   2  -2   8   41.25    2.63
   2  -2   8   43.72    2.43
  -3   2  -8   30.81    1.94
  -3   2  -8   30.13    2.39
  -3   2  -8   29.41    1.95
   3  -2   8   26.79    2.18
   3  -2   8   31.27    2.11
   3  -2   8   27.46    2.30
  -4   2  -8   19.18    2.34
  -4   2  -8   15.86    1.78
   4  -2   8   18.00    2.26
   4  -2   8   16.94    1.75
   4  -2   8   15.70    1.96
  -5   2  -8   31.10    2.60
  -5   2  -8   24.89    2.00
   5  -2   8   23.55    2.50
   5  -2   8   25.19    2.52
   5  -2   8   22.99    2.28
   8   1  -8   39.37    2.58
   8   1  -8   32.83    2.79
   8   1  -8   31.86    2.93
  -8  -1   8   35.64    2.74
  -8  -1   8   39.13    2.93
   7   1  -8    0.63    0.84
   7   1  -8    2.23    0.84
  -7  -1   8    0.40    0.89
  -7  -1   8    1.83    0.85
   6   1  -8   38.39    2.62
   6   1  -8   34.26    2.22
  -6  -1   8   35.91    2.50
  -6  -1   8   44.41    2.48
   5   1  -8   14.94    1.84
   5   1  -8   14.77    1.58
  -5  -1   8   17.14    1.60
  -5  -1   8   15.64    0.72
  -5  -1   8   15.70    1.34
  -5  -1   8   17.12    1.31
   4   1  -8   63.03    3.13
   4   1  -8   63.66    2.86
  -4  -1   8   61.36    2.68
  -4  -1   8   57.13    2.95
   3   1  -8   25.03    1.88
  -3  -1   8   27.26    1.43
  -3  -1   8   25.90    1.65
   2   1  -8   64.38    3.04
   2   1  -8   61.11    2.72
  -2  -1   8   64.92    2.98
  -2  -1   8   64.56    2.25
  -2  -1   8   64.72    2.87
   1   1  -8   24.47    1.87
   1   1  -8   24.81    1.04
   1   1  -8   27.13    1.84
   1   1  -8   24.36    1.57
  -1  -1   8   28.20    1.79
  -1  -1   8   25.24    1.74
  -1  -1   8   25.51    1.18
  -1  -1   8   24.28    1.18
   0   1  -8   58.02    2.48
   0   1  -8   52.90    1.93
   0   1  -8   46.68    2.55
   0  -1   8   52.05    2.68
   0  -1   8   56.31    2.54
   0  -1   8   52.30    1.65
   0  -1   8   51.51    1.85
   0  -1   8   54.05    2.61
   0  -1   8   52.03    1.87
  -1   1  -8   30.13    1.55
  -1   1  -8   31.33    2.32
  -1   1  -8   32.00    1.82
   1  -1   8   31.40    1.85
   1  -1   8   29.23    1.41
   1  -1   8   32.37    2.13
   1  -1   8   32.84    2.02
  -2   1  -8   21.06    1.54
  -2   1  -8   17.92    1.70
   2  -1   8   22.06    1.69
   2  -1   8   19.93    1.75
   2  -1   8   22.09    1.69
  -3   1  -8   67.46    3.06
  -3   1  -8   67.78    3.47
   3  -1   8   67.26    3.48
   3  -1   8   71.82    3.30
  -4   1  -8    6.57    1.83
  -4   1  -8    7.43    1.37
   4  -1   8    4.83    1.11
   4  -1   8    6.47    1.22
   4  -1   8    7.88    1.41
  -5   1  -8   47.43    3.06
   5  -1   8   43.58    2.79
   5  -1   8   44.41    3.31
   5  -1   8   46.76    2.90
  -6   1  -8    0.03    0.78
   6  -1   8   -0.34    1.28
   6  -1   8   -0.57    0.88
   8   0  -8   22.08    2.18
   8   0  -8   25.84    2.20
   8   0  -8   25.63    3.05
  -8   0   8   21.91    2.23
  -8   0   8   25.39    2.55
   7   0  -8    4.14    1.15
   7   0  -8    7.05    1.22
  -7   0   8    6.02    1.34
  -7   0   8    8.28    1.38
   6   0  -8   31.99    2.12
   6   0  -8   32.10    2.30
  -6   0   8   32.04    2.28
  -6   0   8   32.59    2.15
   5   0  -8   33.08    2.03
   5   0  -8   33.87    2.22
  -5   0   8   31.07    2.14
  -5   0   8   33.56    1.91
  -5   0   8   34.23    1.85
   4   0  -8   29.30    1.85
   4   0  -8   27.82    1.93
  -4   0   8   28.37    1.70
  -4   0   8   28.77    1.91
   3   0  -8  116.04    4.29
   3   0  -8  117.56    4.17
  -3   0   8  112.31    4.05
  -3   0   8  119.97    3.65
  -3   0   8  114.95    4.30
   2   0  -8   40.55    2.26
   2   0  -8   34.91    1.96
   2   0  -8   37.99    2.15
  -2   0   8   38.38    2.09
  -2   0   8   43.05    1.58
  -2   0   8   37.18    2.11
   1   0  -8  151.32    3.72
   1   0  -8  155.80    5.55
   1   0  -8  158.32    4.97
   1   0  -8  158.55    5.23
  -1   0   8  155.36    5.15
  -1   0   8  147.63    5.01
   0   0  -8   34.54    1.33
   0   0  -8   33.06    1.99
   0   0  -8   34.06    1.99
   0   0  -8   33.71    1.80
   0   0   8   33.35    1.18
   0   0   8   33.81    1.24
   0   0   8   37.23    2.08
   0   0   8   34.18    1.94
   0   0   8   34.03    1.89
  -1   0  -8  135.84    4.85
  -1   0  -8  140.61    5.88
  -1   0  -8  144.05    4.68
  -1   0  -8  139.41    4.06
   1   0   8  139.64    4.72
   1   0   8  133.82    3.69
   1   0   8  129.72    4.61
   1   0   8  146.36    5.02
  -2   0  -8    6.55    1.08
  -2   0  -8    5.76    1.06
  -2   0  -8    6.50    0.99
   2   0   8    5.61    1.00
   2   0   8    6.18    1.03
   2   0   8    6.52    1.12
   2   0   8    6.67    0.72
  -3   0  -8   85.08    3.72
  -3   0  -8   82.78    3.36
  -3   0  -8   76.31    3.67
   3   0   8   84.73    3.49
   3   0   8   74.29    2.78
   3   0   8   76.94    3.48
   3   0   8   79.04    3.63
  -4   0  -8    1.48    0.79
   4   0   8    0.74    0.66
   4   0   8    2.68    0.92
   4   0   8    1.90    0.82
  -5   0  -8   54.95    3.17
   5   0   8   52.84    3.27
   5   0   8   47.02    2.91
   5   0   8   55.25    3.17
  -6   0  -8    5.27    1.26
   6   0   8    9.43    1.60
   6   0   8    6.46    1.35
   6   0   8    9.03    1.65
   8  -1  -8   18.32    2.02
   8  -1  -8   23.53    2.18
   8  -1  -8   14.72    1.96
  -8   1   8   18.64    2.30
  -8   1   8   19.13    2.61
  -8   1   8   21.30    2.09
   7  -1  -8   11.83    1.70
   7  -1  -8   12.83    1.67
  -7   1   8   13.44    1.93
  -7   1   8   13.78    1.79
   6  -1  -8   27.52    1.98
  -6   1   8   30.22    2.10
  -6   1   8   31.21    2.17
   5  -1  -8   51.75    2.57
   5  -1  -8   48.15    2.66
  -5   1   8   49.22    2.32
  -5   1   8   45.93    1.41
  -5   1   8   49.66    2.63
  -5   1   8   48.32    2.37
   4  -1  -8   56.89    2.34
   4  -1  -8   64.72    2.84
   4  -1  -8   64.94    3.60
  -4   1   8   57.88    2.48
  -4   1   8   60.46    2.64
  -4   1   8   64.17    2.89
   3  -1  -8  124.22    4.29
   3  -1  -8  121.31    4.44
   3  -1  -8  117.52    3.61
   3  -1  -8  125.44    4.38
  -3   1   8  127.01    3.75
  -3   1   8  124.72    4.33
  -3   1   8  123.64    4.26
   2  -1  -8   82.40    3.26
   2  -1  -8   81.93    3.27
  -2   1   8   88.15    3.32
  -2   1   8   81.74    3.28
  -2   1   8   85.79    2.55
   1  -1  -8  194.12    5.90
   1  -1  -8  191.84    5.73
   1  -1  -8  177.51    5.70
  -1   1   8  191.23    4.55
  -1   1   8  188.08    5.91
  -1   1   8  180.61    5.65
   0  -1  -8   24.42    0.95
   0  -1  -8   26.92    1.66
   0  -1  -8   24.78    1.53
   0  -1  -8   24.71    1.60
   0   1   8   24.44    1.65
   0   1   8   25.59    0.93
   0   1   8   23.84    1.61
   0   1   8   25.24    1.54
  -1  -1  -8  151.84    4.88
  -1  -1  -8  146.01    4.91
  -1  -1  -8  152.70    5.03
   1   1   8  150.17    4.83
   1   1   8  153.75    5.05
   1   1   8  155.06    5.18
  -2  -1  -8    0.33    0.45
  -2  -1  -8    0.70    0.50
  -2  -1  -8    0.86    0.45
   2   1   8    1.04    0.58
   2   1   8    0.72    0.28
   2   1   8    1.02    0.48
   2   1   8    0.62    0.47
  -3  -1  -8   89.53    3.60
  -3  -1  -8   81.73    3.31
  -3  -1  -8   78.89    3.36
   3   1   8   80.25    3.50
   3   1   8   79.63    2.67
   3   1   8   80.04    3.57
   3   1   8   82.14    3.32
  -4  -1  -8   24.32    1.87
  -4  -1  -8   26.82    2.00
   4   1   8   26.67    2.00
   4   1   8   23.01    1.46
   4   1   8   25.59    1.80
   4   1   8   27.43    1.99
  -5  -1  -8   41.45    2.55
   5   1   8   39.93    2.58
   5   1   8   43.96    2.69
   5   1   8   35.76    2.28
  -6  -1  -8   30.80    2.36
   6   1   8   32.31    2.51
   6   1   8   29.16    2.36
   6   1   8   29.37    2.15
   7   1   8   10.29    1.69
   7   1   8    4.65    2.11
   8  -2  -8   15.20    1.89
   8  -2  -8   17.63    1.56
   8  -2  -8   14.17    1.89
   8  -2  -8   12.39    1.80
  -8   2   8   12.08    2.97
  -8   2   8   13.90    1.97
  -8   2   8   12.09    1.88
   7  -2  -8   28.58    2.17
   7  -2  -8   29.05    2.31
  -7   2   8   32.36    2.41
  -7   2   8   30.73    2.50
  -7   2   8   29.51    2.27
   6  -2  -8   10.60    1.38
   6  -2  -8   11.32    1.50
  -6   2   8   15.26    1.78
  -6   2   8   14.92    1.56
  -6   2   8   14.13    1.47
   5  -2  -8   81.86    3.42
   5  -2  -8   82.87    3.57
  -5   2   8   76.90    2.28
  -5   2   8   79.61    3.42
  -5   2   8   77.43    2.28
  -5   2   8   77.73    3.45
  -5   2   8   83.11    3.33
   4  -2  -8   18.66    1.43
   4  -2  -8   19.13    1.49
   4  -2  -8   16.58    1.45
   4  -2  -8   19.62    1.52
  -4   2   8   17.30    1.42
  -4   2   8   19.67    1.39
   3  -2  -8  115.52    4.05
   3  -2  -8  113.14    3.41
   3  -2  -8  112.55    4.01
   3  -2  -8  116.99    4.14
  -3   2   8  115.77    4.03
  -3   2   8  115.27    4.04
  -3   2   8  115.00    3.55
   2  -2  -8    3.14    0.67
   2  -2  -8    3.37    0.70
   2  -2  -8    3.28    0.40
   2  -2  -8    3.56    0.67
  -2   2   8    3.63    0.71
  -2   2   8    2.81    0.40
  -2   2   8    2.79    0.54
  -2   2   8    3.35    0.68
   1  -2  -8  111.01    3.81
   1  -2  -8  112.09    3.88
   1  -2  -8  113.64    3.89
  -1   2   8  113.27    3.31
  -1   2   8  107.61    3.96
  -1   2   8  104.69    3.67
   0  -2  -8    5.97    0.88
   0  -2  -8    5.05    0.79
   0  -2  -8    4.84    0.33
   0  -2  -8    6.07    0.88
   0  -2  -8    5.55    0.34
   0   2   8    5.31    0.43
   0   2   8    4.78    0.82
   0   2   8    6.15    0.96
   0   2   8    6.18    0.91
  -1  -2  -8   79.36    3.07
  -1  -2  -8   76.88    3.00
  -1  -2  -8   79.86    3.08
   1   2   8   75.66    3.22
   1   2   8   83.53    4.02
   1   2   8   74.11    3.19
  -2  -2  -8   58.44    2.55
  -2  -2  -8   56.19    2.50
  -2  -2  -8   55.10    2.54
   2   2   8   58.72    2.75
   2   2   8   51.24    1.66
   2   2   8   57.83    2.73
   2   2   8   57.58    2.81
  -3  -2  -8   71.79    3.03
  -3  -2  -8   74.68    3.12
   3   2   8   71.41    3.25
   3   2   8   74.00    2.94
   3   2   8   75.61    3.34
   3   2   8   74.45    2.35
  -4  -2  -8   70.61    3.13
  -4  -2  -8   77.68    3.26
   4   2   8   72.24    3.37
   4   2   8   78.04    3.52
  -5  -2  -8   18.54    1.75
  -5  -2  -8   22.72    1.77
  -5  -2  -8   21.20    1.38
   5   2   8   24.23    2.01
   5   2   8   17.70    1.75
   5   2   8   23.45    1.72
  -6  -2  -8   69.40    3.42
  -6  -2  -8   70.72    2.96
   6   2   8   56.95    3.35
   6   2   8   66.67    3.50
   6   2   8   65.24    3.11
  -7  -2  -8    4.82    1.16
  -7  -2  -8    3.40    0.94
   7   2   8    4.10    1.26
   7   2   8    2.35    1.05
   7  -3  -8   40.63    2.54
   7  -3  -8   45.07    2.39
   7  -3  -8   38.89    2.69
  -7   3   8   42.48    2.80
  -7   3   8   42.39    2.76
  -7   3   8   41.51    2.82
   6  -3  -8    5.05    1.07
   6  -3  -8    4.45    1.02
  -6   3   8    7.91    1.38
  -6   3   8    6.02    0.81
  -6   3   8    6.36    1.17
   5  -3  -8   83.12    3.46
   5  -3  -8   90.46    3.72
  -5   3   8   85.46    2.60
  -5   3   8   83.97    3.51
  -5   3   8   90.08    3.61
  -5   3   8   89.22    3.80
  -5   3   8   81.61    2.56
   4  -3  -8    2.50    0.60
   4  -3  -8    2.58    0.72
  -4   3   8    2.74    0.67
  -4   3   8    3.41    0.35
  -4   3   8    3.54    0.71
  -4   3   8    2.87    0.34
  -4   3   8    3.60    0.79
  -4   3   8    2.15    0.56
   3  -3  -8  171.32    4.92
   3  -3  -8  180.26    5.58
   3  -3  -8  182.11    5.62
   3  -3  -8  171.53    5.43
  -3   3   8  181.08    5.14
  -3   3   8  189.76    5.54
  -3   3   8  182.09    5.57
  -3   3   8  184.72    5.66
   2  -3  -8   12.11    1.04
   2  -3  -8   11.31    1.06
   2  -3  -8   12.22    1.02
   2  -3  -8   11.06    0.67
  -2   3   8   11.53    0.72
  -2   3   8   12.37    0.98
  -2   3   8   10.86    0.94
  -2   3   8   11.26    1.09
   1  -3  -8  158.64    5.03
   1  -3  -8  154.18    4.82
  -1   3   8  163.63    4.56
  -1   3   8  163.72    5.19
  -1   3   8  163.01    4.75
   0  -3  -8   40.26    1.86
   0  -3  -8   36.22    1.88
   0  -3  -8   37.10    1.79
   0  -3  -8   36.81    1.06
   0   3   8   39.23    2.06
   0   3   8   37.67    1.39
   0   3   8   35.82    2.04
   0   3   8   36.47    1.68
  -1  -3  -8   94.96    3.28
  -1  -3  -8   90.11    3.36
  -1  -3  -8   89.23    3.19
   1   3   8   91.86    2.30
   1   3   8   91.51    3.60
   1   3   8   88.40    3.54
  -2  -3  -8   86.20    3.14
  -2  -3  -8   77.22    2.97
  -2  -3  -8   80.14    3.16
   2   3   8   83.85    3.39
   2   3   8   80.21    3.39
  -3  -3  -8   17.40    1.30
  -3  -3  -8   17.18    1.27
   3   3   8   17.64    1.21
   3   3   8   20.34    1.59
   3   3   8   17.78    0.87
   3   3   8   18.42    1.51
  -4  -3  -8  101.57    3.78
  -4  -3  -8  108.46    3.22
  -4  -3  -8  106.50    3.86
   4   3   8  101.54    3.60
   4   3   8   99.03    3.24
   4   3   8  108.40    4.19
   4   3   8  101.77    4.21
  -5  -3  -8    4.90    1.00
  -5  -3  -8    5.77    0.78
  -5  -3  -8    3.47    0.80
   5   3   8    5.38    1.14
   5   3   8    6.06    1.24
   5   3   8    4.69    1.11
  -6  -3  -8   60.75    2.99
  -6  -3  -8   57.81    2.57
   6   3   8   60.53    3.54
   6   3   8   54.39    3.11
   6   3   8   55.60    3.20
   6   3   8   57.85    3.24
  -7  -3  -8    0.35    0.62
  -7  -3  -8    0.31    0.66
   7   3   8    0.19    0.77
   7   3   8    0.51    0.72
   7   3   8   -0.60    0.77
   7  -4  -8   52.15    2.85
   7  -4  -8   53.06    3.00
   7  -4  -8   52.31    3.11
   7  -4  -8   62.34    2.84
  -7   4   8   55.01    3.30
  -7   4   8   48.09    3.00
  -7   4   8   52.94    3.23
   6  -4  -8    0.66    0.65
   6  -4  -8    0.46    0.60
  -6   4   8    0.30    0.46
  -6   4   8   -0.42    0.70
  -6   4   8    0.65    0.81
  -6   4   8    0.62    0.63
   5  -4  -8   98.51    5.20
   5  -4  -8   84.82    3.87
  -5   4   8   92.84    4.40
  -5   4   8   90.53    2.88
  -5   4   8   93.51    3.78
  -5   4   8   88.22    3.74
   4  -4  -8   18.46    1.44
   4  -4  -8   18.12    1.39
   4  -4  -8   17.48    1.40
  -4   4   8   16.70    0.86
  -4   4   8   16.32    1.33
  -4   4   8   16.53    1.32
   3  -4  -8  111.00    3.88
   3  -4  -8  107.99    3.82
   3  -4  -8  103.89    3.37
   3  -4  -8  109.30    3.77
  -3   4   8  109.58    3.69
  -3   4   8  111.32    2.77
  -3   4   8  114.20    3.64
  -3   4   8  104.64    3.90
  -3   4   8  104.05    3.90
   2  -4  -8  104.17    3.52
   2  -4  -8   97.62    2.93
   2  -4  -8  100.88    3.44
   2  -4  -8  102.64    3.61
  -2   4   8   98.23    3.30
  -2   4   8   96.03    3.65
  -2   4   8   95.68    3.43
  -2   4   8  107.34    3.12
   1  -4  -8  131.71    4.27
   1  -4  -8  125.85    3.97
   1  -4  -8  129.26    3.23
   1  -4  -8  125.93    4.00
  -1   4   8  125.84    3.89
  -1   4   8  124.91    4.32
  -1   4   8  126.76    4.16
   0  -4  -8  163.66    5.01
   0  -4  -8  152.48    4.64
   0  -4  -8  155.96    3.92
   0  -4  -8  163.01    4.72
   0   4   8  161.93    4.47
   0   4   8  158.33    5.14
   0   4   8  165.14    4.41
  -1  -4  -8   32.25    1.74
  -1  -4  -8   30.43    1.54
  -1  -4  -8   31.51    1.57
   1   4   8   32.19    1.86
   1   4   8   33.36    1.42
   1   4   8   31.70    1.91
  -2  -4  -8  155.56    4.67
  -2  -4  -8  161.41    5.00
  -2  -4  -8  154.15    4.62
   2   4   8  149.82    5.12
   2   4   8  155.45    5.24
   2   4   8  151.48    4.35
  -3  -4  -8    1.13    0.42
  -3  -4  -8    0.77    0.22
  -3  -4  -8    0.26    0.29
   3   4   8    0.71    0.49
   3   4   8    1.63    0.56
   3   4   8    0.88    0.24
   3   4   8    0.76    0.33
  -4  -4  -8  104.48    3.13
  -4  -4  -8   96.76    3.56
  -4  -4  -8  104.32    3.68
   4   4   8  108.12    4.12
   4   4   8  106.60    3.24
   4   4   8  104.21    4.21
  -5  -4  -8    4.95    0.90
  -5  -4  -8    3.85    0.81
  -5  -4  -8    4.85    0.70
   5   4   8    2.97    0.87
   5   4   8    3.74    0.93
   5   4   8    4.09    1.01
   5   4   8    4.15    0.78
   5   4   8    3.86    0.73
  -6  -4  -8   46.75    1.41
  -6  -4  -8   47.22    2.23
  -6  -4  -8   41.00    2.41
  -6  -4  -8   50.79    2.56
   6   4   8   43.82    2.64
   6   4   8   50.50    2.74
   6   4   8   46.04    2.31
   6   4   8   43.77    2.77
  -7  -4  -8    8.19    1.14
  -7  -4  -8    7.59    0.65
  -7  -4  -8    6.76    1.23
   7   4   8    6.78    1.45
   7   4   8    8.75    1.47
   7   4   8    8.59    1.59
  -8  -4  -8   18.06    1.79
  -8  -4  -8   17.43    1.82
   8   4   8   15.15    1.91
   8   4   8   15.99    2.26
   8   4   8   16.40    2.07
   7  -5  -8   54.58    2.91
   7  -5  -8   55.23    2.98
   7  -5  -8   57.33    3.28
   7  -5  -8   51.80    2.70
  -7   5   8   56.37    3.46
  -7   5   8   48.32    2.49
  -7   5   8   67.06    5.38
  -7   5   8   47.86    3.15
   6  -5  -8    6.46    1.23
   6  -5  -8    6.69    1.11
   6  -5  -8    5.84    1.10
  -6   5   8    6.71    1.22
  -6   5   8    7.49    0.95
  -6   5   8    7.90    1.42
  -6   5   8    5.74    1.14
   5  -5  -8   77.95    3.45
   5  -5  -8   76.87    3.42
  -5   5   8   78.66    3.57
  -5   5   8   79.82    3.40
  -5   5   8   77.59    3.63
  -5   5   8   77.02    2.73
   4  -5  -8   29.59    1.84
   4  -5  -8   30.43    1.86
   4  -5  -8   32.64    1.84
  -4   5   8   32.04    1.39
  -4   5   8   28.12    1.86
  -4   5   8   33.31    2.08
   3  -5  -8   49.59    2.29
   3  -5  -8   47.73    2.21
   3  -5  -8   50.21    2.30
   3  -5  -8   46.66    2.02
  -3   5   8   49.33    2.46
  -3   5   8   49.16    2.24
  -3   5   8   52.48    1.70
  -3   5   8   49.91    2.19
   2  -5  -8  151.50    4.57
   2  -5  -8  153.08    4.51
   2  -5  -8  146.56    4.69
   2  -5  -8  142.56    4.13
  -2   5   8  147.11    4.75
  -2   5   8  149.35    4.90
  -2   5   8  146.00    4.36
  -2   5   8  149.10    3.77
   1  -5  -8   28.24    1.40
   1  -5  -8   26.74    1.09
   1  -5  -8   27.66    1.40
   1  -5  -8   28.56    1.61
  -1   5   8   26.98    1.25
  -1   5   8   28.82    1.70
  -1   5   8   27.14    1.46
  -1   5   8   26.98    0.96
   0  -5  -8  213.23    5.65
   0  -5  -8  212.93    4.96
   0  -5  -8  208.73    6.10
   0  -5  -8  197.33    5.20
   0   5   8  215.73    6.32
   0   5   8  205.20    5.31
   0   5   8  207.90    5.69
  -1  -5  -8    6.31    0.89
  -1  -5  -8    8.27    0.70
  -1  -5  -8    7.76    0.69
  -1  -5  -8    7.72    0.63
   1   5   8    8.13    0.65
   1   5   8    8.70    0.54
   1   5   8    8.10    0.57
   1   5   8    8.92    1.24
   1   5   8    6.46    0.93
  -2  -5  -8  125.31    3.79
  -2  -5  -8  127.43    3.37
  -2  -5  -8  124.46    3.83
  -2  -5  -8  129.52    4.32
   2   5   8  127.09    4.61
   2   5   8  135.27    4.51
   2   5   8  127.36    3.43
  -3  -5  -8    4.00    0.60
  -3  -5  -8    4.96    0.70
  -3  -5  -8    3.45    0.34
   3   5   8    2.92    0.72
   3   5   8    4.09    0.88
   3   5   8    4.32    0.57
  -4  -5  -8   62.84    1.78
  -4  -5  -8   59.04    2.11
  -4  -5  -8   64.36    2.49
  -4  -5  -8   65.03    2.45
   4   5   8   67.83    3.17
   4   5   8   60.72    2.99
   4   5   8   63.89    2.94
   4   5   8   60.13    2.20
   4   5   8   60.50    2.22
  -5  -5  -8   26.05    1.58
  -5  -5  -8   24.48    1.35
  -5  -5  -8   23.47    0.95
   5   5   8   24.87    1.95
   5   5   8   24.79    1.79
   5   5   8   27.40    2.05
   5   5   8   24.52    1.47
  -6  -5  -8   38.61    2.14
  -6  -5  -8   39.67    2.17
  -6  -5  -8   38.57    1.95
  -6  -5  -8   37.35    1.41
   6   5   8   37.36    2.56
   6   5   8   43.39    2.47
   6   5   8   41.72    2.62
   6   5   8   36.31    1.94
  -7  -5  -8   16.32    1.47
  -7  -5  -8   21.63    1.72
  -7  -5  -8   17.57    1.16
   7   5   8   18.12    1.90
   7   5   8   16.16    1.69
   7   5   8   15.95    2.01
  -8  -5  -8   17.54    2.09
  -8  -5  -8   17.62    1.77
   8   5   8   19.82    1.98
   8   5   8   16.32    2.16
   8   5   8   15.31    1.95
   7  -6  -8   23.43    1.91
   7  -6  -8   28.24    2.39
   7  -6  -8   22.09    1.93
   7  -6  -8   23.57    1.98
  -7   6   8   23.69    1.94
  -7   6   8   22.86    2.62
  -7   6   8   27.67    2.49
   6  -6  -8   39.43    2.27
   6  -6  -8   38.55    2.29
   6  -6  -8   39.18    2.58
  -6   6   8   35.31    2.57
  -6   6   8   37.74    2.70
  -6   6   8   33.23    2.48
  -6   6   8   35.99    2.04
   5  -6  -8   22.47    1.64
   5  -6  -8   23.07    1.65
   5  -6  -8   19.92    1.81
   5  -6  -8   23.34    1.78
  -5   6   8   20.76    1.87
  -5   6   8   22.77    1.39
  -5   6   8   20.01    1.89
  -5   6   8   18.83    1.65
   4  -6  -8   91.17    3.81
   4  -6  -8   93.83    3.45
   4  -6  -8   81.93    3.42
  -4   6   8   87.39    3.85
  -4   6   8   90.32    3.46
  -4   6   8   91.60    3.00
  -4   6   8   90.16    3.73
   3  -6  -8   13.40    1.14
   3  -6  -8   13.23    1.12
   3  -6  -8   15.60    1.22
  -3   6   8   13.29    1.53
  -3   6   8   15.82    0.93
  -3   6   8   14.41    1.11
   2  -6  -8  104.20    3.47
   2  -6  -8  101.18    3.28
   2  -6  -8  100.78    3.69
   2  -6  -8  105.86    3.61
  -2   6   8   99.35    3.75
  -2   6   8  105.49    3.00
  -2   6   8  105.26    3.29
  -2   6   8  103.15    3.89
   1  -6  -8    0.11    0.21
   1  -6  -8    0.33    0.24
   1  -6  -8   -0.09    0.21
   1  -6  -8    0.10    0.19
  -1   6   8   -0.05    0.18
  -1   6   8   -0.12    0.21
  -1   6   8    0.16    0.33
   0  -6  -8  141.36    3.73
   0  -6  -8  139.04    3.91
   0  -6  -8  142.67    3.97
   0  -6  -8  142.52    4.51
   0  -6  -8  140.07    3.96
   0   6   8  142.20    4.69
   0   6   8  141.21    3.56
   0   6   8  144.01    4.32
   0   6   8  137.49    3.64
  -1  -6  -8    2.21    0.29
  -1  -6  -8    1.99    0.29
  -1  -6  -8    1.77    0.39
  -1  -6  -8    1.39    0.47
   1   6   8    1.80    0.52
   1   6   8    1.54    0.58
   1   6   8    2.05    0.43
  -2  -6  -8   97.87    2.64
  -2  -6  -8   94.84    2.83
  -2  -6  -8   96.67    2.89
  -2  -6  -8   96.12    2.92
  -2  -6  -8   94.18    3.49
   2   6   8   95.02    2.97
   2   6   8   94.89    3.59
   2   6   8   99.45    3.91
  -3  -6  -8   27.08    1.14
  -3  -6  -8   28.02    1.31
  -3  -6  -8   28.53    1.16
  -3  -6  -8   26.90    1.63
  -3  -6  -8   28.21    1.26
   3   6   8   26.83    1.70
   3   6   8   29.38    1.95
  -4  -6  -8   65.97    2.09
  -4  -6  -8   66.72    2.37
  -4  -6  -8   69.38    2.46
  -4  -6  -8   68.03    2.31
   4   6   8   64.76    2.89
   4   6   8   69.87    3.26
   4   6   8   66.44    2.01
   4   6   8   70.06    3.18
  -5  -6  -8   42.33    1.83
  -5  -6  -8   39.26    1.52
  -5  -6  -8   43.26    1.92
  -5  -6  -8   43.44    1.98
   5   6   8   39.87    1.64
   5   6   8   41.32    1.94
   5   6   8   44.14    2.56
   5   6   8   39.50    2.42
   5   6   8   40.05    2.24
  -6  -6  -8   39.81    1.94
  -6  -6  -8   33.37    1.85
  -6  -6  -8   36.50    1.98
  -6  -6  -8   40.09    2.02
   6   6   8   37.64    1.76
   6   6   8   35.18    2.17
   6   6   8   36.64    2.45
   6   6   8   35.27    2.42
  -7  -6  -8   34.06    2.03
  -7  -6  -8   34.27    2.08
   7   6   8   34.43    2.24
   7   6   8   33.56    2.55
   7   6   8   29.85    2.43
  -8  -6  -8   16.69    1.65
  -8  -6  -8   12.71    1.53
   8   6   8   14.33    2.12
   8   6   8   14.99    1.99
   8   6   8   12.59    1.68
   6  -7  -8   57.08    2.88
   6  -7  -8   63.54    3.35
   6  -7  -8   61.49    2.97
   6  -7  -8   55.97    2.72
  -6   7   8   54.84    2.70
  -6   7   8   57.33    3.44
   5  -7  -8    5.17    0.98
   5  -7  -8    5.86    1.02
  -5   7   8    5.65    1.08
  -5   7   8    5.64    1.27
   4  -7  -8   92.47    3.71
   4  -7  -8   87.25    3.62
   4  -7  -8   97.24    3.69
   4  -7  -8  104.95    3.69
  -4   7   8   96.87    3.31
  -4   7   8   96.54    4.16
  -4   7   8   94.73    3.62
   3  -7  -8    0.15    0.34
   3  -7  -8    0.17    0.36
   3  -7  -8    0.18    0.43
   3  -7  -8   -0.18    0.39
  -3   7   8   -0.03    0.47
  -3   7   8    0.41    0.35
   2  -7  -8  105.51    3.62
   2  -7  -8  105.44    3.49
   2  -7  -8  111.69    3.59
  -2   7   8   98.81    5.37
  -2   7   8  104.12    3.59
  -2   7   8  108.66    3.30
   1  -7  -8    1.47    0.46
   1  -7  -8    2.42    0.46
   1  -7  -8    2.77    0.56
   1  -7  -8    2.47    0.48
  -1   7   8    2.27    0.41
  -1   7   8    2.84    0.42
  -1   7   8    1.86    0.61
  -1   7   8    2.46    0.61
   0  -7  -8   61.80    2.54
   0  -7  -8   67.08    2.11
   0  -7  -8   61.38    2.15
   0   7   8   62.64    2.75
   0   7   8   62.86    2.18
  -1  -7  -8   21.52    1.05
  -1  -7  -8   20.75    1.18
  -1  -7  -8   20.72    1.34
  -1  -7  -8   19.32    1.14
  -1  -7  -8   18.69    0.99
   1   7   8   21.06    1.11
   1   7   8   19.55    1.40
   1   7   8   23.67    1.35
  -2  -7  -8   41.54    1.40
  -2  -7  -8   41.62    1.56
  -2  -7  -8   43.19    1.42
  -2  -7  -8   40.90    1.68
  -2  -7  -8   41.91    2.06
   2   7   8   42.89    2.15
   2   7   8   36.30    2.20
   2   7   8   45.07    1.86
  -3  -7  -8   20.67    1.37
  -3  -7  -8   19.54    1.02
  -3  -7  -8   18.72    0.87
  -3  -7  -8   18.27    1.03
  -3  -7  -8   18.54    0.93
   3   7   8   17.45    1.53
   3   7   8   17.50    1.33
   3   7   8   19.50    1.57
  -4  -7  -8   10.68    0.75
  -4  -7  -8    9.32    0.87
  -4  -7  -8   10.42    0.85
  -4  -7  -8   11.23    0.74
   4   7   8   10.03    1.35
   4   7   8   11.61    1.15
   4   7   8   10.62    1.44
  -5  -7  -8   37.89    1.70
  -5  -7  -8   35.88    1.78
  -5  -7  -8   35.10    1.61
   5   7   8   36.40    2.35
   5   7   8   37.34    2.06
   5   7   8   37.72    2.39
  -6  -7  -8    6.58    0.81
  -6  -7  -8    7.89    1.01
  -6  -7  -8    7.58    1.52
  -6  -7  -8    7.33    0.90
   6   7   8    5.34    1.28
   6   7   8    6.20    0.64
   6   7   8    7.06    1.11
   6   7   8    4.78    1.10
  -7  -7  -8   39.57    2.17
  -7  -7  -8   39.86    2.18
  -7  -7  -8   37.43    2.48
   7   7   8   34.29    2.63
   7   7   8   42.25    2.77
   7   7   8   39.83    2.32
  -8  -7  -8    3.25    0.81
  -8  -7  -8    4.35    0.97
   8   7   8    3.30    1.20
   8   7   8    7.38    1.19
   8   7   8    4.54    1.31
   6  -8  -8   36.74    2.06
   6  -8  -8   35.30    2.24
   6  -8  -8   37.04    2.56
  -6   8   8   42.24    3.04
  -6   8   8   35.86    2.33
   5  -8  -8    0.50    0.48
   5  -8  -8    0.07    0.57
   5  -8  -8    0.30    0.58
  -5   8   8   -0.13    0.53
  -5   8   8    0.24    0.73
   4  -8  -8   68.51    2.77
   4  -8  -8   62.38    2.91
   4  -8  -8   50.51    2.89
   4  -8  -8   61.48    2.83
  -4   8   8   57.59    3.46
  -4   8   8   57.65    3.14
   3  -8  -8    6.66    1.14
   3  -8  -8    6.97    0.96
   3  -8  -8    6.08    0.98
  -3   8   8    7.59    0.94
  -3   8   8    7.91    1.01
  -3   8   8    8.25    1.90
   2  -8  -8   70.93    2.91
   2  -8  -8   70.37    2.66
   2  -8  -8   72.87    2.74
   2  -8  -8   71.85    2.72
  -2   8   8   72.78    3.29
  -2   8   8   70.72    2.63
   1  -8  -8   37.00    1.76
   1  -8  -8   39.55    1.93
   1  -8  -8   35.67    1.55
   1  -8  -8   36.30    1.61
  -1   8   8   39.88    2.12
  -1   8   8   34.75    1.30
  -1   8   8   37.71    1.66
   0  -8  -8   37.00    1.44
   0  -8  -8   37.56    1.43
   0  -8  -8   39.48    2.12
   0  -8  -8   36.50    1.69
   0   8   8   38.48    2.04
   0   8   8   42.04    1.75
   0   8   8   36.15    2.05
  -1  -8  -8   78.91    2.26
  -1  -8  -8   80.72    2.72
  -1  -8  -8   79.25    2.35
   1   8   8   77.93    2.77
   1   8   8   88.89    3.35
   1   8   8   83.28    3.11
  -2  -8  -8    8.11    1.04
  -2  -8  -8    7.93    0.74
   2   8   8   10.06    1.40
   2   8   8   10.42    0.89
   2   8   8    8.24    1.09
   2   8   8    8.72    1.03
  -3  -8  -8  108.39    3.10
  -3  -8  -8  114.66    3.97
  -3  -8  -8  112.19    2.78
  -3  -8  -8  105.68    3.46
  -3  -8  -8  115.44    3.51
   3   8   8  122.12    4.40
   3   8   8  103.44    4.77
   3   8   8  112.14    3.95
  -4  -8  -8    3.11    0.43
  -4  -8  -8    3.83    0.43
  -4  -8  -8    4.58    0.67
   4   8   8    3.30    0.80
   4   8   8    4.96    0.83
   4   8   8    2.96    0.88
  -5  -8  -8   88.28    3.17
  -5  -8  -8   88.24    2.80
  -5  -8  -8   85.02    2.44
  -5  -8  -8   87.12    3.03
   5   8   8   89.78    3.89
   5   8   8   83.39    3.88
   5   8   8   85.09    3.34
  -6  -8  -8    1.71    0.55
  -6  -8  -8    1.96    0.56
   6   8   8    2.60    0.92
   6   8   8    3.51    0.72
  -7  -8  -8   60.52    2.60
  -7  -8  -8   65.01    2.91
  -7  -8  -8   59.76    2.61
   7   8   8   57.92    3.44
   7   8   8   55.47    3.24
   7   8   8   62.11    2.74
  -8  -8  -8    1.22    0.75
  -8  -8  -8    1.55    0.67
   8   8   8   -0.19    0.83
   8   8   8    1.95    0.82
   8   8   8    1.94    1.01
   5  -9  -8    4.43    1.24
   5  -9  -8    3.35    1.08
   5  -9  -8    4.11    0.94
   5  -9  -8    3.80    0.71
  -5   9   8    3.84    0.99
  -5   9   8    2.69    1.24
   4  -9  -8   35.10    2.14
   4  -9  -8   33.74    2.13
   4  -9  -8   34.91    1.92
  -4   9   8   31.16    1.89
  -4   9   8   27.75    2.28
   3  -9  -8    6.93    1.07
   3  -9  -8    7.83    0.95
   3  -9  -8    8.26    1.09
   3  -9  -8    6.40    1.15
  -3   9   8    7.81    1.34
  -3   9   8    7.04    0.98
  -3   9   8    6.91    1.01
   2  -9  -8   16.93    1.25
   2  -9  -8   15.60    1.19
   2  -9  -8   16.62    1.16
  -2   9   8   16.51    1.26
  -2   9   8   16.60    1.14
  -2   9   8   19.25    1.68
   1  -9  -8   29.65    1.43
   1  -9  -8   29.37    1.45
   1  -9  -8   30.69    1.54
   1  -9  -8   30.86    1.75
  -1   9   8   32.32    1.64
  -1   9   8   32.01    2.01
   0  -9  -8   17.18    0.91
   0  -9  -8   16.58    1.23
   0  -9  -8   16.53    0.95
   0   9   8   19.09    1.51
   0   9   8   16.34    1.16
  -1  -9  -8   64.98    1.84
  -1  -9  -8   68.87    2.58
  -1  -9  -8   60.11    2.51
  -1  -9  -8   66.07    1.84
  -1  -9  -8   60.04    2.75
   1   9   8   67.35    2.87
   1   9   8   69.29    2.61
  -2  -9  -8   19.20    1.16
  -2  -9  -8   19.73    1.25
  -2  -9  -8   18.08    1.32
   2   9   8   20.40    1.32
   2   9   8   19.29    1.41
   2   9   8   19.36    1.43
  -3  -9  -8  113.67    4.09
  -3  -9  -8  121.48    4.08
  -3  -9  -8  114.92    3.55
   3   9   8  119.37    3.98
   3   9   8  114.71    4.05
   3   9   8  118.43    4.41
   3   9   8  106.17    4.36
  -4  -9  -8   19.65    1.04
  -4  -9  -8   20.28    1.60
   4   9   8   20.34    1.71
   4   9   8   22.07    1.46
  -5  -9  -8   90.41    2.72
  -5  -9  -8   89.95    2.70
  -5  -9  -8   96.17    3.45
  -5  -9  -8   91.69    2.60
   5   9   8   95.02    4.14
   5   9   8   88.67    3.95
   5   9   8   95.73    3.48
  -6  -9  -8    3.27    0.56
  -6  -9  -8    4.13    0.61
  -6  -9  -8    3.89    0.79
   6   9   8    3.59    1.57
   6   9   8    1.88    0.84
   6   9   8    4.16    0.76
  -7  -9  -8   49.29    2.25
  -7  -9  -8   53.41    2.69
  -7  -9  -8   53.71    2.31
   7   9   8   58.70    3.39
   7   9   8   54.66    3.19
   7   9   8   48.74    2.31
  -8  -9  -8    1.91    0.69
  -8  -9  -8    2.43    0.90
   8   9   8    1.74    1.03
   8   9   8    0.51    0.62
   8   9   8   -0.24    0.84
   4 -10  -8   13.86    1.21
   4 -10  -8   11.86    1.58
   4 -10  -8   11.33    1.42
  -4  10   8   13.95    1.99
  -4  10   8   13.45    1.52
   3 -10  -8   26.13    1.80
   3 -10  -8   22.15    1.69
   3 -10  -8   23.90    1.43
  -3  10   8   24.69    2.18
  -3  10   8   23.04    1.71
   2 -10  -8    7.53    0.87
   2 -10  -8    8.61    1.17
   2 -10  -8    8.06    1.04
   2 -10  -8    8.15    0.98
   2 -10  -8    8.54    1.03
  -2  10   8   10.41    1.55
  -2  10   8    8.61    0.92
  -2  10   8    7.79    1.07
   1 -10  -8   35.21    1.62
   1 -10  -8   34.16    1.62
   1 -10  -8   31.70    1.75
   1 -10  -8   37.10    1.71
  -1  10   8   40.65    2.50
  -1  10   8   36.24    2.80
   0 -10  -8    2.57    0.63
   0 -10  -8    1.90    0.37
   0 -10  -8    1.89    0.38
   0 -10  -8    2.63    0.51
   0  10   8    1.35    0.75
  -1 -10  -8   83.22    2.91
  -1 -10  -8   82.31    2.23
  -1 -10  -8   80.98    2.27
  -1 -10  -8   84.66    3.09
   1  10   8   77.49    3.12
   1  10   8   80.74    3.45
  -2 -10  -8    3.79    0.65
  -2 -10  -8    3.33    0.72
   2  10   8    4.30    0.92
  -3 -10  -8   82.31    3.15
  -3 -10  -8   82.19    2.79
  -3 -10  -8   78.29    3.11
   3  10   8   85.02    3.61
   3  10   8   77.06    3.50
  -4 -10  -8    0.00    0.25
  -4 -10  -8    0.40    0.43
  -4 -10  -8    0.27    0.40
   4  10   8    0.68    0.43
   4  10   8    0.96    0.58
   4  10   8   -0.24    0.52
  -5 -10  -8   89.21    3.41
  -5 -10  -8   84.60    2.35
  -5 -10  -8   84.81    2.33
   5  10   8   84.51    3.25
   5  10   8   87.90    3.98
   5  10   8   81.30    4.21
  -6 -10  -8    5.61    0.65
  -6 -10  -8    6.55    1.07
  -6 -10  -8    4.61    0.62
   6  10   8    4.51    0.98
   6  10   8    5.21    0.88
   6  10   8    5.04    1.35
  -7 -10  -8   55.85    2.23
  -7 -10  -8   51.18    2.23
  -7 -10  -8   54.72    3.28
   7  10   8   57.62    3.34
   7  10   8   50.44    3.28
   7  10   8   55.47    2.35
  -8 -10  -8   15.26    1.28
  -8 -10  -8   13.69    1.72
   8  10   8   12.53    1.97
   4 -11  -8    8.30    1.06
   4 -11  -8    7.21    1.28
  -4  11   8    5.85    1.41
   3 -11  -8   25.20    1.84
   3 -11  -8   19.28    1.36
  -3  11   8   25.94    2.22
  -3  11   8   21.61    1.90
   2 -11  -8    4.91    0.68
   2 -11  -8    6.45    1.00
   2 -11  -8    5.05    1.02
  -2  11   8    6.73    1.13
  -2  11   8    5.59    1.18
   1 -11  -8   34.66    2.07
   1 -11  -8   40.08    1.86
   1 -11  -8   36.33    1.76
   1 -11  -8   33.61    1.65
  -1  11   8   39.89    2.57
  -1  11   8   38.68    2.11
   0 -11  -8    0.88    0.39
   0 -11  -8    1.35    0.38
   0 -11  -8    0.24    0.28
   0  11   8    0.94    0.48
   0  11   8    0.93    0.68
  -1 -11  -8   56.57    1.83
  -1 -11  -8   55.76    1.70
  -1 -11  -8   55.69    2.47
  -1 -11  -8   58.76    2.15
   1  11   8   54.02    2.57
   1  11   8   50.15    2.82
  -2 -11  -8    4.38    0.73
  -2 -11  -8    2.51    0.77
  -2 -11  -8    3.49    0.66
   2  11   8    4.27    0.96
   2  11   8    3.05    0.71
  -3 -11  -8   77.05    2.98
  -3 -11  -8   74.75    3.21
  -3 -11  -8   80.28    2.81
   3  11   8   77.90    3.25
  -4 -11  -8    5.83    0.98
  -4 -11  -8    6.53    1.05
   4  11   8    9.84    1.39
   4  11   8    7.08    1.13
   4  11   8    7.88    1.33
  -5 -11  -8   51.28    2.54
   5  11   8   47.29    2.77
   5  11   8   47.03    2.79
  -6 -11  -8   23.29    1.04
  -6 -11  -8   24.05    1.83
   6  11   8   26.97    3.12
   6  11   8   20.75    1.99
  -7 -11  -8   30.74    1.45
  -7 -11  -8   26.18    1.47
  -7 -11  -8   25.94    2.01
   7  11   8   30.19    2.49
   7  11   8   26.13    2.36
  -8 -11  -8   31.79    1.74
  -8 -11  -8   30.36    2.34
   8  11   8   34.43    2.82
   8  11   8   27.41    2.66
   3 -12  -8   28.97    2.14
  -3  12   8   30.90    2.27
  -3  12   8   30.48    2.62
   2 -12  -8   -0.10    0.48
  -2  12   8    0.29    0.66
  -2  12   8   -0.70    0.65
   1 -12  -8   49.41    2.24
   1 -12  -8   41.62    2.25
   1 -12  -8   46.55    1.75
  -1  12   8   43.74    2.48
  -1  12   8   45.29    2.85
   0 -12  -8    5.37    0.63
   0 -12  -8    5.77    0.79
   0 -12  -8    5.58    0.69
   0  12   8    5.37    0.99
   0  12   8    6.65    1.35
  -1 -12  -8   59.17    2.12
  -1 -12  -8   62.03    2.11
  -1 -12  -8   61.72    1.93
   1  12   8   64.20    2.98
  -2 -12  -8   21.11    1.18
  -2 -12  -8   22.77    1.87
   2  12   8   23.50    1.68
   2  12   8   19.21    1.76
  -3 -12  -8   72.18    3.30
   3  12   8   71.50    3.26
  -4 -12  -8   33.25    2.12
  -4 -12  -8   33.88    1.88
   4  12   8   32.86    2.28
   4  12   8   36.11    2.27
  -5 -12  -8   39.13    2.16
  -5 -12  -8   36.43    2.32
   5  12   8   36.02    2.44
   5  12   8   37.97    2.44
  -6 -12  -8   48.96    2.75
   6  12   8   49.45    3.07
   6  12   8   60.57    4.87
  -7 -12  -8    8.47    0.77
  -7 -12  -8   11.17    1.53
  -7 -12  -8    8.19    0.84
   7  12   8    7.24    1.65
   7  12   8    9.11    1.56
   1 -13  -8   38.35    2.11
  -1  13   8   34.75    3.97
   0 -13  -8    5.19    0.77
   0 -13  -8    4.50    0.75
   0  13   8    4.32    0.99
   0  13   8    5.67    1.45
  -1 -13  -8   37.87    1.51
  -1 -13  -8   36.43    1.68
  -1 -13  -8   38.65    1.32
   1  13   8   38.31    2.41
   1  13   8   37.16    2.70
  -2 -13  -8   36.61    2.49
  -2 -13  -8   30.58    1.33
   2  13   8   28.32    2.29
   2  13   8   34.00    2.24
  -3 -13  -8   29.99    2.22
  -3 -13  -8   27.16    1.36
   3  13   8   28.68    2.10
  -4 -13  -8   88.33    3.18
  -4 -13  -8   86.81    3.89
   4  13   8   83.86    3.88
   4  13   8   87.32    3.90
  -5 -13  -8   16.54    1.48
  -5 -13  -8   11.63    1.60
   5  13   8   13.63    1.76
   5  13   8   14.91    1.98
  -6 -13  -8   63.42    3.32
  -6 -13  -8   66.02    3.04
   6  13   8   64.60    3.53
  -7 -13  -8    2.31    0.99
   7  13   8   -0.07    0.88
   7  13   8    0.30    1.16
   0 -14  -8   18.23    1.55
   0  14   8   24.20    2.28
   0  14   8   23.35    2.07
  -1 -14  -8   10.27    1.02
   1  14   8    8.09    1.41
   1  14   8   11.72    1.80
  -2 -14  -8   67.74    3.72
   2  14   8   61.22    4.06
   2  14   8   62.40    3.37
  -3 -14  -8    4.66    1.26
   3  14   8    5.51    1.26
  -4 -14  -8   84.88    4.09
   4  14   8   87.76    4.02
  -5 -14  -8   -0.84    0.64
  -5 -14  -8    0.98    0.79
   5  14   8    0.84    0.90
   5  14   8    0.22    0.67
  -6 -14  -8   82.69    3.55
  -6 -14  -8   80.23    3.95
   6  14   8   79.92    4.08
   3   6  -9   17.98    1.79
   3   6  -9   16.31    2.37
  -3  -6   9   18.41    2.15
  -3  -6   9   21.72    1.91
  -3  -6   9   14.29    1.67
   2   6  -9    0.56    0.68
   2   6  -9    1.27    1.16
  -2  -6   9    0.04    0.84
  -2  -6   9    0.24    0.85
  -2  -6   9    0.69    0.99
   1   6  -9   26.99    1.96
   1   6  -9   25.65    1.80
   1   6  -9   24.28    2.60
  -1  -6   9   28.48    2.67
  -1  -6   9   26.72    2.40
  -1  -6   9   23.91    2.08
   5   5  -9   38.78    3.07
   5   5  -9   36.65    2.46
  -5  -5   9   35.28    2.36
  -5  -5   9   38.05    2.33
  -5  -5   9   38.45    2.95
   4   5  -9    1.47    1.06
   4   5  -9   -0.70    0.73
  -4  -5   9    0.58    0.81
  -4  -5   9    0.15    0.92
   3   5  -9   51.53    3.33
   3   5  -9   50.54    2.69
   3   5  -9   52.57    2.19
  -3  -5   9   54.35    2.67
  -3  -5   9   44.58    2.72
  -3  -5   9   58.14    3.43
   2   5  -9   -1.14    0.83
   2   5  -9   -0.11    0.50
   2   5  -9    0.22    0.71
  -2  -5   9    0.45    0.66
  -2  -5   9    0.11    0.75
  -2  -5   9    0.05    0.85
   1   5  -9   41.93    3.08
   1   5  -9   40.98    2.08
   1   5  -9   45.51    2.42
  -1  -5   9   41.66    2.34
  -1  -5   9   41.85    3.05
  -1  -5   9   41.15    2.77
   0   5  -9    2.78    0.91
   0   5  -9    2.44    1.17
   0   5  -9    2.18    0.70
   0  -5   9    0.76    1.18
   0  -5   9    1.89    0.77
   0  -5   9    0.94    0.97
  -1   5  -9   31.75    2.77
  -1   5  -9   29.15    2.08
  -1   5  -9   34.64    2.12
   1  -5   9   33.28    2.12
   1  -5   9   33.78    2.93
   1  -5   9   24.63    3.86
   6   4  -9    4.49    1.18
   6   4  -9    3.70    1.25
  -6  -4   9    2.71    0.84
  -6  -4   9    3.00    0.98
  -6  -4   9    3.91    1.24
   5   4  -9   47.41    2.74
   5   4  -9   43.76    3.16
  -5  -4   9   47.75    2.53
  -5  -4   9   47.51    2.60
  -5  -4   9   42.49    3.07
   4   4  -9   -0.54    0.73
   4   4  -9    0.15    0.72
  -4  -4   9    0.34    0.65
  -4  -4   9    0.35    0.76
  -4  -4   9   -0.86    0.57
   3   4  -9   41.34    1.72
   3   4  -9   48.20    3.64
  -3  -4   9   43.59    2.88
  -3  -4   9   43.50    2.52
  -3  -4   9   42.82    2.23
   2   4  -9    3.90    0.68
   2   4  -9    2.90    0.83
  -2  -4   9    4.13    1.09
  -2  -4   9    3.85    0.77
  -2  -4   9    5.52    1.12
   1   4  -9   39.96    1.94
   1   4  -9   43.10    2.93
   1   4  -9   45.98    2.37
  -1  -4   9   44.21    2.87
  -1  -4   9   44.99    2.74
  -1  -4   9   41.94    2.14
   0   4  -9    5.61    1.34
   0   4  -9    6.32    1.07
   0  -4   9    7.55    1.05
   0  -4   9    7.80    1.49
   0  -4   9    5.26    1.33
  -1   4  -9   20.13    1.60
  -1   4  -9   20.56    1.64
  -1   4  -9   20.86    2.24
   1  -4   9   20.00    2.05
   1  -4   9   19.54    2.38
   1  -4   9   19.39    1.68
  -2   4  -9   16.46    1.58
  -2   4  -9   16.38    1.63
  -2   4  -9   16.69    2.33
   2  -4   9   16.42    2.45
   2  -4   9   11.25    1.80
   2  -4   9   13.04    1.56
   7   3  -9   42.83    3.32
   7   3  -9   50.76    4.29
  -7  -3   9   36.64    2.59
  -7  -3   9   44.40    3.32
   6   3  -9   -0.06    0.80
   6   3  -9   -0.56    0.85
  -6  -3   9    0.03    0.87
  -6  -3   9   -0.05    0.65
  -6  -3   9   -0.95    0.70
   5   3  -9   54.84    3.40
   5   3  -9   51.84    2.90
  -5  -3   9   60.10    3.49
  -5  -3   9   51.32    2.62
  -5  -3   9   58.55    2.80
   4   3  -9    2.59    0.88
   4   3  -9    3.58    0.89
  -4  -3   9    4.58    1.20
  -4  -3   9    3.46    0.81
  -4  -3   9    2.41    0.69
   3   3  -9   60.16    2.93
   3   3  -9   61.29    3.29
  -3  -3   9   58.29    2.50
  -3  -3   9   57.65    2.90
  -3  -3   9   62.42    3.31
   2   3  -9   12.71    1.69
   2   3  -9   12.11    1.37
  -2  -3   9   14.27    1.71
  -2  -3   9   12.18    1.66
  -2  -3   9   12.70    1.10
   1   3  -9   50.89    2.53
   1   3  -9   52.52    3.07
   1   3  -9   53.32    2.10
  -1  -3   9   55.54    3.07
  -1  -3   9   54.35    3.01
  -1  -3   9   54.95    2.15
   0   3  -9   21.40    1.60
   0   3  -9   20.17    1.35
   0  -3   9   20.90    1.14
   0  -3   9   20.50    1.55
   0  -3   9   20.47    1.93
   0  -3   9   20.07    1.35
   0  -3   9   18.40    1.85
  -1   3  -9   21.78    2.09
  -1   3  -9   23.66    1.69
   1  -3   9   26.98    2.28
   1  -3   9   23.01    1.79
   1  -3   9   24.85    2.20
  -2   3  -9   36.38    2.72
  -2   3  -9   29.04    1.98
  -2   3  -9   35.01    2.46
   2  -3   9   37.85    2.75
   2  -3   9   40.41    2.86
   2  -3   9   35.14    2.28
  -3   3  -9    3.20    1.01
  -3   3  -9    2.21    0.82
  -3   3  -9    3.01    1.15
   3  -3   9    3.26    1.14
   3  -3   9    3.01    1.20
   3  -3   9    3.30    1.41
   7   2  -9   30.22    2.32
   7   2  -9   30.31    2.70
  -7  -2   9   32.58    2.84
  -7  -2   9   29.55    2.31
   6   2  -9    4.74    1.28
   6   2  -9    5.31    1.07
  -6  -2   9    4.39    0.86
  -6  -2   9    3.60    1.00
  -6  -2   9    6.39    1.45
   5   2  -9   48.55    4.61
   5   2  -9   48.97    2.76
  -5  -2   9   50.21    2.50
  -5  -2   9   46.93    2.44
  -5  -2   9   44.42    2.89
   4   2  -9    7.53    1.45
   4   2  -9    9.56    1.49
  -4  -2   9    6.30    1.03
  -4  -2   9   10.70    1.65
  -4  -2   9   11.02    1.20
   3   2  -9   43.58    2.42
  -3  -2   9   43.74    2.68
  -3  -2   9   42.05    1.96
  -3  -2   9   44.86    2.44
   2   2  -9   26.20    1.05
   2   2  -9   25.28    1.77
   2   2  -9   23.99    2.03
  -2  -2   9   23.77    1.79
  -2  -2   9   26.68    1.40
  -2  -2   9   27.72    2.03
   1   2  -9   26.10    2.00
   1   2  -9   23.40    1.65
  -1  -2   9   22.14    1.76
  -1  -2   9   23.33    1.22
  -1  -2   9   20.83    1.79
  -1  -2   9   22.46    1.28
   0   2  -9   81.87    2.83
   0   2  -9   86.01    3.87
   0   2  -9   85.87    3.37
   0  -2   9   84.30    3.73
   0  -2   9   84.92    2.82
   0  -2   9   89.41    5.65
   0  -2   9   79.43    2.33
   0  -2   9   80.90    3.35
  -1   2  -9   10.69    1.73
  -1   2  -9    9.83    1.12
  -1   2  -9    8.96    1.23
   1  -2   9   13.91    1.84
   1  -2   9    7.25    1.22
   1  -2   9   10.04    1.07
   1  -2   9   11.41    1.42
  -2   2  -9   78.70    3.96
  -2   2  -9   76.41    3.12
  -2   2  -9   81.05    3.37
   2  -2   9   76.35    3.46
   2  -2   9   74.32    3.81
   2  -2   9   74.79    3.72
  -3   2  -9   -0.02    0.67
  -3   2  -9    0.16    0.56
  -3   2  -9    1.61    0.86
   3  -2   9    0.25    0.73
   3  -2   9   -0.86    0.62
   3  -2   9   -0.46    0.82
  -4   2  -9   55.40    2.98
  -4   2  -9   45.36    3.27
  -4   2  -9   53.79    2.90
   4  -2   9   50.76    3.39
   4  -2   9   48.66    3.40
   4  -2   9   45.14    2.99
   7   1  -9   43.39    3.10
  -7  -1   9   41.53    2.70
  -7  -1   9   45.70    3.09
   6   1  -9   23.01    1.87
   6   1  -9   22.15    2.17
  -6  -1   9   20.55    2.12
  -6  -1   9   19.96    1.55
  -6  -1   9   22.30    1.78
   5   1  -9   56.85    4.65
  -5  -1   9   52.37    3.11
  -5  -1   9   53.51    2.62
  -5  -1   9   58.42    2.63
   4   1  -9   27.64    2.22
   4   1  -9   29.99    2.27
  -4  -1   9   33.76    2.29
  -4  -1   9   33.42    2.02
  -4  -1   9   34.35    1.77
   3   1  -9   26.01    2.01
   3   1  -9   25.67    1.79
  -3  -1   9   23.99    1.83
  -3  -1   9   23.56    1.74
  -3  -1   9   24.30    1.36
   2   1  -9   63.17    3.20
   2   1  -9   63.33    2.91
  -2  -1   9   65.16    2.27
  -2  -1   9   63.21    3.13
  -2  -1   9   62.71    3.01
   1   1  -9    2.70    0.37
   1   1  -9    2.42    0.74
   1   1  -9    2.81    0.72
  -1  -1   9    1.90    0.61
  -1  -1   9    2.84    0.75
  -1  -1   9    3.36    0.50
  -1  -1   9    3.45    0.52
  -1  -1   9    2.55    0.54
   0   1  -9   85.20    3.30
   0   1  -9   90.12    3.47
   0   1  -9   88.18    3.85
   0  -1   9   89.32    3.82
   0  -1   9   89.12    2.68
   0  -1   9   84.76    3.48
   0  -1   9   84.99    3.65
   0  -1   9   87.57    2.69
  -1   1  -9    0.71    0.39
  -1   1  -9    0.75    0.57
  -1   1  -9    1.03    0.63
   1  -1   9   -0.12    0.32
   1  -1   9    0.76    0.51
   1  -1   9    0.07    0.38
   1  -1   9    0.13    0.51
   1  -1   9    0.34    0.61
  -2   1  -9   89.93    3.39
  -2   1  -9   93.64    3.74
   2  -1   9   97.33    3.97
   2  -1   9   93.51    4.02
   2  -1   9   96.01    4.26
   2  -1   9   90.47    3.27
  -3   1  -9    0.25    0.68
  -3   1  -9    1.30    0.68
   3  -1   9    1.51    0.86
   3  -1   9    2.00    0.81
   3  -1   9    2.82    0.90
  -4   1  -9   41.87    2.97
  -4   1  -9   45.01    2.66
   4  -1   9   43.80    2.88
   4  -1   9   40.39    2.87
   4  -1   9   44.64    2.79
  -5   1  -9   10.30    1.60
  -5   1  -9   11.72    2.00
   5  -1   9   14.01    2.02
   5  -1   9   17.48    3.37
   5  -1   9    9.24    1.72
   7   0  -9   29.36    2.50
   7   0  -9   34.45    2.45
  -7   0   9   28.54    2.28
  -7   0   9   30.93    2.67
   6   0  -9   34.92    2.59
   6   0  -9   39.71    2.41
  -6   0   9   34.27    2.18
  -6   0   9   32.40    2.55
   5   0  -9   30.57    2.04
   5   0  -9   28.87    2.53
  -5   0   9   27.24    1.79
  -5   0   9   27.60    2.10
  -5   0   9   25.34    1.68
   4   0  -9   80.89    3.49
   4   0  -9   80.02    3.74
  -4   0   9   80.53    2.97
  -4   0   9   79.02    3.32
   3   0  -9    6.36    1.14
   3   0  -9    7.11    1.11
  -3   0   9    5.91    0.99
  -3   0   9    6.05    0.73
  -3   0   9    5.88    0.98
   2   0  -9   86.55    3.50
   2   0  -9   82.76    3.68
  -2   0   9   82.93    3.55
  -2   0   9   86.92    3.59
  -2   0   9   86.93    2.64
   1   0  -9   13.99    1.41
   1   0  -9   15.56    1.73
   1   0  -9   15.86    1.48
  -1   0   9   16.06    1.46
  -1   0   9   15.25    1.38
  -1   0   9   14.69    0.87
  -1   0   9   13.86    0.74
   0   0  -9   90.50    3.54
   0   0  -9   90.71    3.74
   0   0  -9   93.05    3.85
   0   0  -9   89.26    2.70
   0   0   9   92.20    2.41
   0   0   9   93.28    2.50
   0   0   9   89.40    3.63
   0   0   9   90.03    3.81
   0   0   9   97.67    3.75
  -1   0  -9   59.01    2.71
  -1   0  -9   59.08    2.99
  -1   0  -9   56.08    2.18
  -1   0  -9   58.75    2.93
   1   0   9   56.39    2.79
   1   0   9   61.15    3.05
   1   0   9   57.98    2.79
   1   0   9   59.82    1.85
  -2   0  -9   92.60    3.66
  -2   0  -9   91.43    3.95
   2   0   9   84.01    3.86
   2   0   9   85.36    3.65
   2   0   9   84.52    2.69
   2   0   9   87.79    3.74
  -3   0  -9   60.02    2.95
  -3   0  -9   62.17    3.31
   3   0   9   64.69    3.13
   3   0   9   56.55    3.16
   3   0   9   59.32    2.32
   3   0   9   58.23    3.04
  -4   0  -9   42.38    2.78
  -4   0  -9   38.17    2.41
   4   0   9   39.37    2.55
   4   0   9   38.70    2.56
   4   0   9   37.91    2.64
  -5   0  -9   32.87    2.57
   5   0   9   28.37    2.42
   5   0   9   28.49    2.50
   5   0   9   31.68    2.44
  -6   0  -9    8.61    1.72
   6   0   9    4.44    1.60
   7  -1  -9   14.99    2.03
   7  -1  -9   10.98    1.62
  -7   1   9   10.65    1.56
  -7   1   9   12.48    1.91
  -7   1   9   10.83    1.61
   6  -1  -9   52.82    2.92
   6  -1  -9   53.19    3.15
  -6   1   9   57.50    2.87
  -6   1   9   60.57    3.24
   5  -1  -9    4.85    1.62
   5  -1  -9    5.53    1.07
  -5   1   9    3.69    0.76
  -5   1   9    5.51    1.20
  -5   1   9    3.21    0.77
   4  -1  -9  100.89    4.20
   4  -1  -9  104.36    3.54
   4  -1  -9  109.12    4.13
  -4   1   9   98.42    4.58
  -4   1   9  103.01    3.94
  -4   1   9  106.39    4.17
   3  -1  -9    0.54    0.59
   3  -1  -9    1.04    0.61
   3  -1  -9    1.65    0.59
  -3   1   9    1.61    0.51
  -3   1   9    1.68    0.40
  -3   1   9    1.89    0.63
   2  -1  -9  152.00    5.36
   2  -1  -9  160.78    5.34
   2  -1  -9  177.25    5.49
  -2   1   9  157.81    5.39
  -2   1   9  153.32    5.29
  -2   1   9  165.76    4.31
   1  -1  -9   26.52    1.78
   1  -1  -9   26.10    1.76
   1  -1  -9   28.01    1.77
  -1   1   9   28.35    1.25
  -1   1   9   23.02    1.62
  -1   1   9   26.68    1.85
   0  -1  -9  174.91    4.36
   0  -1  -9  166.72    5.57
   0  -1  -9  170.05    5.67
   0  -1  -9  176.05    5.52
   0   1   9  174.42    5.53
   0   1   9  174.72    5.84
   0   1   9  182.54    4.73
   0   1   9  168.43    5.67
   0   1   9  173.13    4.26
  -1  -1  -9   67.92    2.93
  -1  -1  -9   64.39    3.02
  -1  -1  -9   62.98    2.93
   1   1   9   69.70    2.92
   1   1   9   66.20    3.15
   1   1   9   67.41    3.06
  -2  -1  -9   79.14    3.49
  -2  -1  -9   83.94    3.42
  -2  -1  -9   83.52    3.59
   2   1   9   81.66    2.37
   2   1   9   82.20    3.39
   2   1   9   81.60    3.57
   2   1   9   84.02    3.68
  -3  -1  -9   66.57    3.08
  -3  -1  -9   67.24    3.27
  -3  -1  -9   64.66    3.17
   3   1   9   66.11    2.27
   3   1   9   67.10    3.42
   3   1   9   69.73    3.34
   3   1   9   67.70    3.08
  -4  -1  -9   22.54    1.90
  -4  -1  -9   20.27    1.59
   4   1   9   19.89    1.82
   4   1   9   19.04    1.75
   4   1   9   18.61    1.86
   4   1   9   18.03    1.40
  -5  -1  -9   41.18    2.69
   5   1   9   37.79    2.65
   5   1   9   37.17    2.59
   5   1   9   35.76    2.40
  -6  -1  -9    1.29    0.92
   6   1   9   -0.25    0.85
   6   1   9   -0.24    0.80
   7  -2  -9   -0.03    0.66
   7  -2  -9    0.93    0.79
  -7   2   9    0.80    0.97
  -7   2   9    0.27    0.86
  -7   2   9    0.42    0.83
   6  -2  -9   71.16    3.61
   6  -2  -9   72.10    3.43
  -6   2   9   71.67    3.30
  -6   2   9   68.70    3.45
  -6   2   9   74.11    3.60
  -6   2   9   67.34    1.99
   5  -2  -9    3.05    1.00
   5  -2  -9    4.64    1.00
  -5   2   9    5.37    1.00
  -5   2   9    5.68    1.05
  -5   2   9    4.80    1.08
  -5   2   9    4.48    0.86
   4  -2  -9   88.52    3.64
   4  -2  -9   84.73    3.19
   4  -2  -9   87.97    3.75
   4  -2  -9   97.82    5.22
  -4   2   9   90.30    3.68
  -4   2   9   84.98    3.51
  -4   2   9   88.15    3.52
   3  -2  -9   39.95    1.64
   3  -2  -9   41.84    2.27
   3  -2  -9   41.42    2.33
  -3   2   9   44.21    2.27
  -3   2   9   45.23    1.77
  -3   2   9   42.08    2.26
  -3   2   9   36.64    1.95
   2  -2  -9  108.89    4.00
   2  -2  -9   99.55    3.82
   2  -2  -9  101.70    3.89
  -2   2   9  106.63    3.43
  -2   2   9  104.67    3.78
  -2   2   9   95.96    3.87
  -2   2   9   98.59    3.05
   1  -2  -9   69.43    2.99
   1  -2  -9   76.74    3.13
   1  -2  -9   70.86    3.02
  -1   2   9   77.11    2.44
  -1   2   9   68.10    3.12
   0  -2  -9   41.70    2.15
   0  -2  -9   47.32    2.31
   0  -2  -9   43.23    2.23
   0   2   9   42.79    2.37
   0   2   9   41.57    2.33
   0   2   9   44.08    1.42
   0   2   9   45.17    2.13
  -1  -2  -9   79.65    3.27
  -1  -2  -9   79.88    3.27
  -1  -2  -9   87.02    3.41
   1   2   9   90.38    3.67
   1   2   9   83.37    3.17
   1   2   9   80.79    3.46
  -2  -2  -9   12.53    1.31
  -2  -2  -9   12.87    1.27
  -2  -2  -9   15.10    1.30
   2   2   9   13.44    1.16
   2   2   9   13.22    1.37
   2   2   9   11.05    1.44
  -3  -2  -9   60.96    2.92
  -3  -2  -9   60.62    2.87
  -3  -2  -9   55.98    2.80
   3   2   9   58.13    1.89
   3   2   9   54.45    2.97
   3   2   9   56.51    2.69
   3   2   9   58.96    2.99
  -4  -2  -9    0.89    0.65
  -4  -2  -9    0.17    0.74
   4   2   9   -0.37    0.42
   4   2   9    0.10    0.50
   4   2   9    0.78    1.02
   4   2   9    0.65    0.69
  -5  -2  -9   52.43    2.88
   5   2   9   49.01    2.67
   5   2   9   47.74    2.95
   5   2   9   46.68    2.92
  -6  -2  -9    1.39    0.78
   6   2   9    1.94    1.10
   6   2   9    1.77    0.96
   6   2   9    1.31    0.90
  -7  -2  -9   20.95    2.20
   7   2   9   21.13    2.68
   7   2   9   22.08    2.31
   7  -3  -9    3.38    1.06
   7  -3  -9    3.87    1.27
  -7   3   9    4.03    0.74
  -7   3   9    2.33    1.03
  -7   3   9    1.57    1.09
   6  -3  -9   67.14    3.30
   6  -3  -9   65.44    3.44
  -6   3   9   61.34    2.08
  -6   3   9   67.29    3.24
  -6   3   9   66.43    3.44
  -6   3   9   67.53    3.45
   5  -3  -9   28.65    2.09
   5  -3  -9   27.79    1.92
  -5   3   9   28.60    3.80
  -5   3   9   23.48    1.84
  -5   3   9   28.49    1.81
   4  -3  -9   74.69    3.28
   4  -3  -9   66.29    3.10
   4  -3  -9   74.39    3.34
  -4   3   9   76.37    2.91
  -4   3   9   81.56    3.36
  -4   3   9   76.76    3.26
  -4   3   9   80.60    3.30
   3  -3  -9   66.80    2.92
   3  -3  -9   63.78    2.22
   3  -3  -9   68.40    2.97
   3  -3  -9   57.62    2.72
  -3   3   9   59.12    2.70
  -3   3   9   63.69    2.70
  -3   3   9   64.28    2.90
  -3   3   9   64.91    2.33
   2  -3  -9   19.17    1.46
   2  -3  -9   19.66    0.88
   2  -3  -9   19.41    1.46
   2  -3  -9   20.03    1.45
  -2   3   9   19.71    1.36
  -2   3   9   19.73    1.51
   1  -3  -9  128.09    4.40
   1  -3  -9  126.04    4.31
   1  -3  -9  125.69    4.27
  -1   3   9  130.46    4.14
  -1   3   9  127.35    4.56
  -1   3   9  123.19    3.75
   0  -3  -9    2.03    0.62
   0  -3  -9    3.44    0.71
   0  -3  -9    2.57    0.67
   0   3   9    3.17    0.45
   0   3   9    2.95    0.80
   0   3   9    2.02    0.58
   0   3   9    2.30    0.76
  -1  -3  -9  126.74    3.60
  -1  -3  -9  128.99    4.33
  -1  -3  -9  126.98    4.30
  -1  -3  -9  134.03    4.48
   1   3   9  122.54    4.62
   1   3   9  128.44    4.68
   1   3   9  127.04    4.08
  -2  -3  -9    0.27    0.41
  -2  -3  -9    0.35    0.38
  -2  -3  -9    0.03    0.36
   2   3   9    0.39    0.37
   2   3   9    0.33    0.39
   2   3   9    0.37    0.53
  -3  -3  -9   94.27    3.72
  -3  -3  -9   92.98    3.75
  -3  -3  -9   94.92    3.65
   3   3   9  100.80    4.06
   3   3   9   94.22    3.44
   3   3   9   99.29    4.13
  -4  -3  -9    0.36    0.59
  -4  -3  -9    0.72    0.50
   4   3   9    1.38    0.77
   4   3   9    0.56    0.42
   4   3   9    0.67    0.45
  -5  -3  -9   40.48    2.38
  -5  -3  -9   37.26    2.39
   5   3   9   43.10    2.70
   5   3   9   38.86    2.63
   5   3   9   40.18    2.19
   5   3   9   36.53    2.17
  -6  -3  -9    2.97    0.92
  -6  -3  -9    2.71    0.76
   6   3   9    2.90    0.99
   6   3   9    4.25    1.16
  -7  -3  -9   29.11    4.19
  -7  -3  -9   21.88    1.80
   7   3   9   22.75    4.11
   7   3   9   20.34    2.09
   7  -4  -9   12.30    1.64
   7  -4  -9   12.24    1.44
   7  -4  -9   14.01    1.87
  -7   4   9   16.98    1.34
  -7   4   9   16.37    2.48
  -7   4   9   13.13    1.88
  -7   4   9   14.48    1.86
   6  -4  -9   32.04    2.30
   6  -4  -9   27.43    2.03
  -6   4   9   28.66    1.39
   5  -4  -9   62.59    3.09
   5  -4  -9   61.71    2.99
  -5   4   9   56.56    2.94
  -5   4   9   62.17    3.18
  -5   4   9   63.99    2.93
  -5   4   9   61.58    2.50
   4  -4  -9   17.80    1.72
   4  -4  -9   19.68    1.55
   4  -4  -9   20.93    1.66
  -4   4   9   17.60    1.57
  -4   4   9   21.47    1.57
  -4   4   9   19.47    1.40
  -4   4   9   16.83    1.48
   3  -4  -9   99.70    3.70
   3  -4  -9  114.01    4.05
   3  -4  -9  118.87    4.19
   3  -4  -9  115.25    4.18
  -3   4   9  120.01    3.71
  -3   4   9  115.02    3.97
  -3   4   9  121.64    4.36
  -3   4   9  116.88    4.13
   2  -4  -9    8.79    1.08
   2  -4  -9    8.04    0.60
   2  -4  -9    9.52    1.16
   2  -4  -9    7.32    1.06
  -2   4   9    9.85    0.95
  -2   4   9   10.11    1.27
  -2   4   9    8.86    0.89
   1  -4  -9  105.92    3.67
   1  -4  -9  104.87    3.83
   1  -4  -9  102.81    3.57
  -1   4   9   97.05    3.29
  -1   4   9  109.61    4.04
   0  -4  -9    2.61    0.58
   0  -4  -9    3.27    0.64
   0  -4  -9    2.58    0.67
   0   4   9    3.05    0.49
   0   4   9    3.97    0.84
  -1  -4  -9  120.65    3.94
  -1  -4  -9  120.50    3.97
  -1  -4  -9  121.61    4.22
   1   4   9  119.71    3.68
   1   4   9  115.43    3.10
   1   4   9  114.95    4.35
   1   4   9  119.89    4.49
  -2  -4  -9   23.19    1.62
  -2  -4  -9   23.70    1.51
  -2  -4  -9   26.10    1.56
   2   4   9   26.74    1.89
   2   4   9   23.90    1.33
   2   4   9   24.29    1.77
  -3  -4  -9   86.39    3.31
  -3  -4  -9   86.27    3.49
  -3  -4  -9   86.71    3.25
   3   4   9   86.23    3.79
   3   4   9   85.00    3.66
   3   4   9   83.47    2.99
  -4  -4  -9   19.30    0.98
  -4  -4  -9   18.41    1.45
  -4  -4  -9   18.23    1.65
   4   4   9   19.11    1.70
   4   4   9   20.84    1.80
   4   4   9   17.26    1.02
  -5  -4  -9   41.98    2.31
  -5  -4  -9   36.69    2.22
  -5  -4  -9   38.06    1.74
   5   4   9   36.35    1.81
   5   4   9   36.37    2.08
   5   4   9   44.97    2.77
   5   4   9   38.99    2.49
  -6  -4  -9   11.89    1.12
  -6  -4  -9   11.99    1.48
   6   4   9   11.95    1.69
   6   4   9   12.20    1.65
   6   4   9    9.68    1.29
  -7  -4  -9   13.17    1.41
  -7  -4  -9   13.91    1.73
   7   4   9   15.00    2.11
   7   4   9   15.36    2.14
   7   4   9   11.94    1.82
   7  -5  -9   24.05    2.10
   7  -5  -9   24.00    2.51
   7  -5  -9   21.91    1.86
  -7   5   9   24.67    2.48
  -7   5   9   24.25    2.73
   6  -5  -9   10.22    1.29
   6  -5  -9   12.26    1.55
   6  -5  -9   10.46    1.55
  -6   5   9   10.26    1.71
  -6   5   9    9.83    0.99
  -6   5   9    9.59    1.59
  -6   5   9   10.32    1.56
   5  -5  -9   62.66    2.99
   5  -5  -9   64.61    3.12
  -5   5   9   61.47    3.01
  -5   5   9   58.58    3.20
  -5   5   9   59.70    3.06
  -5   5   9   62.76    2.15
   4  -5  -9    1.24    0.66
   4  -5  -9    2.67    0.73
  -4   5   9    2.41    0.39
  -4   5   9    3.06    0.73
  -4   5   9    2.06    0.72
   3  -5  -9  121.18    3.80
   3  -5  -9  134.18    4.47
   3  -5  -9  120.47    4.27
   3  -5  -9  118.22    4.13
  -3   5   9  119.50    4.09
  -3   5   9  123.11    3.08
  -3   5   9  123.20    4.42
  -3   5   9  129.44    4.59
   2  -5  -9    0.22    0.35
   2  -5  -9    0.11    0.25
   2  -5  -9    0.63    0.40
   2  -5  -9    0.34    0.43
  -2   5   9    0.38    0.44
  -2   5   9   -0.12    0.35
  -2   5   9    0.44    0.37
   1  -5  -9  113.55    3.72
   1  -5  -9  113.61    3.98
   1  -5  -9  112.85    3.67
  -1   5   9  111.57    3.65
  -1   5   9  106.42    4.08
  -1   5   9  107.68    3.41
   0  -5  -9   11.98    0.90
   0  -5  -9    8.13    1.04
   0  -5  -9   10.06    0.57
   0  -5  -9    9.89    0.90
   0   5   9   11.91    1.14
   0   5   9   11.84    0.84
   0   5   9   10.81    0.79
  -1  -5  -9   75.33    2.41
  -1  -5  -9   80.93    2.84
  -1  -5  -9   79.62    2.82
  -1  -5  -9   78.98    3.19
   1   5   9   76.65    2.64
   1   5   9   85.04    3.56
   1   5   9   79.07    2.45
   1   5   9   81.40    3.38
  -2  -5  -9   30.14    1.59
  -2  -5  -9   33.14    1.65
  -2  -5  -9   34.76    1.96
   2   5   9   30.01    2.02
   2   5   9   35.36    2.09
   2   5   9   32.91    1.93
  -3  -5  -9   66.82    2.64
  -3  -5  -9   67.82    2.94
  -3  -5  -9   63.79    1.76
  -3  -5  -9   57.84    2.42
   3   5   9   61.34    3.02
   3   5   9   70.05    3.29
  -4  -5  -9   28.09    1.19
  -4  -5  -9   29.09    1.70
  -4  -5  -9   26.15    1.59
   4   5   9   28.04    1.98
   4   5   9   26.14    1.40
   4   5   9   28.47    2.15
  -5  -5  -9   36.74    2.37
  -5  -5  -9   32.45    1.56
  -5  -5  -9   33.39    1.93
   5   5   9   30.28    1.63
   5   5   9   32.87    2.34
   5   5   9   33.55    1.79
   5   5   9   34.04    2.27
  -6  -5  -9   14.96    1.61
  -6  -5  -9   16.71    1.48
  -6  -5  -9   17.72    1.27
   6   5   9   16.29    2.04
   6   5   9   18.74    1.80
   6   5   9   13.49    1.83
   6   5   9   18.06    1.53
  -7  -5  -9    6.16    1.20
  -7  -5  -9    4.02    0.86
   7   5   9    4.78    1.29
   7   5   9    5.69    1.21
   7   5   9    5.91    1.32
   6  -6  -9   -0.45    0.61
   6  -6  -9   -0.37    0.69
   6  -6  -9   -0.20    0.66
  -6   6   9    0.21    0.96
  -6   6   9    0.36    0.62
  -6   6   9   -1.11    0.80
  -6   6   9   -0.18    1.64
   5  -6  -9   42.30    2.38
   5  -6  -9   44.80    2.56
  -5   6   9   36.75    2.58
  -5   6   9   40.13    2.41
  -5   6   9   40.44    2.46
  -5   6   9   38.81    1.77
   4  -6  -9    7.55    1.16
   4  -6  -9    6.55    1.02
   4  -6  -9    7.40    1.08
  -4   6   9    4.32    0.88
  -4   6   9    6.60    0.71
   3  -6  -9   43.63    2.18
   3  -6  -9   47.60    2.31
   3  -6  -9   45.26    2.27
  -3   6   9   49.17    1.65
  -3   6   9   44.45    2.47
   2  -6  -9   38.32    1.92
   2  -6  -9   40.89    1.90
   2  -6  -9   40.34    1.69
   2  -6  -9   42.55    2.15
  -2   6   9   39.19    2.27
  -2   6   9   38.64    1.78
  -2   6   9   36.87    2.03
  -2   6   9   38.84    1.35
   1  -6  -9   92.75    3.42
   1  -6  -9   88.39    3.06
   1  -6  -9   84.19    2.97
   1  -6  -9   89.82    2.63
  -1   6   9   87.19    2.46
  -1   6   9   87.01    3.22
  -1   6   9   90.32    2.79
  -1   6   9   85.82    3.56
   0  -6  -9   23.89    1.16
   0  -6  -9   22.21    0.85
   0  -6  -9   25.21    1.33
   0  -6  -9   24.15    1.29
   0  -6  -9   24.05    1.59
   0   6   9   26.08    1.38
   0   6   9   24.15    1.03
   0   6   9   24.65    1.70
  -1  -6  -9   64.60    2.31
  -1  -6  -9   62.89    2.33
  -1  -6  -9   64.06    2.31
  -1  -6  -9   67.15    2.81
   1   6   9   62.61    2.28
   1   6   9   63.06    1.76
   1   6   9   64.85    2.93
   1   6   9   66.73    3.15
  -2  -6  -9   31.55    1.52
  -2  -6  -9   36.25    1.99
  -2  -6  -9   34.93    1.36
  -2  -6  -9   35.38    1.59
   2   6   9   36.12    2.09
   2   6   9   37.57    2.27
   2   6   9   36.19    1.44
  -3  -6  -9   50.48    2.10
  -3  -6  -9   47.46    1.97
  -3  -6  -9   50.25    1.55
  -3  -6  -9   50.17    1.64
  -3  -6  -9   47.65    2.45
   3   6   9   48.86    2.90
   3   6   9   54.42    2.83
   3   6   9   48.87    1.51
  -4  -6  -9   43.14    1.99
  -4  -6  -9   39.97    1.86
  -4  -6  -9   42.40    1.60
  -4  -6  -9   41.32    1.37
   4   6   9   42.18    1.56
   4   6   9   46.69    2.52
   4   6   9   44.84    2.64
  -5  -6  -9   21.51    1.22
  -5  -6  -9   19.22    0.85
  -5  -6  -9   20.78    1.43
  -5  -6  -9   18.89    1.30
   5   6   9   20.31    1.68
   5   6   9   17.60    1.30
   5   6   9   19.29    1.17
  -6  -6  -9   45.88    1.54
  -6  -6  -9   48.56    2.17
  -6  -6  -9   49.19    2.43
   6   6   9   50.30    3.08
   6   6   9   43.52    2.80
   6   6   9   49.35    2.77
   6   6   9   43.22    2.10
  -7  -6  -9    3.95    0.83
  -7  -6  -9    2.75    0.79
   7   6   9    4.93    1.27
   7   6   9    2.19    1.10
  -8  -6  -9   39.58    2.50
  -8  -6  -9   38.93    2.36
   8   6   9   31.36    2.63
   8   6   9   36.25    2.95
   8   6   9   32.71    4.95
   6  -7  -9    1.53    0.89
   6  -7  -9    1.34    0.83
  -6   7   9    1.28    0.69
   5  -7  -9   39.50    2.39
   5  -7  -9   42.58    2.39
   5  -7  -9   40.16    2.44
  -5   7   9   41.74    2.76
  -5   7   9   40.22    1.92
   4  -7  -9   15.98    1.41
   4  -7  -9   16.72    1.46
   4  -7  -9   14.69    1.59
   4  -7  -9   14.61    1.49
  -4   7   9   16.50    1.12
  -4   7   9   15.13    1.80
  -4   7   9   16.57    1.43
   3  -7  -9   42.50    2.17
   3  -7  -9   42.93    2.75
   3  -7  -9   40.98    2.11
  -3   7   9   41.92    2.48
  -3   7   9   44.30    1.75
   2  -7  -9   34.81    1.71
   2  -7  -9   39.77    1.90
   2  -7  -9   35.35    1.78
   2  -7  -9   36.97    1.93
  -2   7   9   35.74    2.10
  -2   7   9   39.31    1.71
   1  -7  -9   39.57    1.66
   1  -7  -9   42.15    1.85
   1  -7  -9   43.15    2.13
   1  -7  -9   40.89    1.76
  -1   7   9   41.63    2.12
  -1   7   9   44.20    1.61
  -1   7   9   44.55    2.41
  -1   7   9   42.33    1.55
   0  -7  -9   59.75    1.98
   0  -7  -9   62.52    2.16
   0  -7  -9   59.91    2.14
   0  -7  -9   62.27    2.64
   0   7   9   59.62    2.05
   0   7   9   54.30    2.70
   0   7   9   60.90    2.85
  -1  -7  -9   57.47    2.22
  -1  -7  -9   68.24    2.79
  -1  -7  -9   57.68    1.86
  -1  -7  -9   64.90    2.11
  -1  -7  -9   62.02    2.13
   1   7   9   62.76    2.85
   1   7   9   61.27    2.41
  -2  -7  -9   37.19    1.49
  -2  -7  -9   39.01    2.06
   2   7   9   35.44    2.09
   2   7   9   36.44    1.64
   2   7   9   41.49    2.43
  -3  -7  -9   27.47    1.54
  -3  -7  -9   25.54    1.18
  -3  -7  -9   29.46    1.81
  -3  -7  -9   26.77    1.28
  -3  -7  -9   24.64    1.09
   3   7   9   24.80    1.92
   3   7   9   27.74    1.82
  -4  -7  -9   44.06    1.76
  -4  -7  -9   43.66    1.85
  -4  -7  -9   40.43    1.57
  -4  -7  -9   43.52    1.68
   4   7   9   41.66    2.53
   4   7   9   41.93    2.34
   4   7   9   42.25    2.58
  -5  -7  -9   10.49    0.80
  -5  -7  -9   10.28    0.92
  -5  -7  -9   11.16    0.99
  -5  -7  -9   10.67    0.91
   5   7   9   10.66    1.74
   5   7   9   13.38    2.02
   5   7   9   12.61    1.31
  -6  -7  -9   38.11    1.88
  -6  -7  -9   37.65    1.98
  -6  -7  -9   33.51    1.90
   6   7   9   40.89    2.42
   6   7   9   35.02    2.58
   6   7   9   38.36    2.63
  -7  -7  -9    0.06    0.53
  -7  -7  -9    0.92    0.60
   7   7   9   -0.36    0.76
   7   7   9    0.32    0.88
   7   7   9   -0.23    0.84
  -8  -7  -9   27.72    1.98
  -8  -7  -9   26.19    2.35
   8   7   9   25.31    2.24
   8   7   9   24.94    4.10
   8   7   9   32.60    4.36
   5  -8  -9   26.25    1.82
   5  -8  -9   20.20    1.83
   5  -8  -9   22.98    1.79
  -5   8   9   19.49    1.48
  -5   8   9   23.01    2.16
   4  -8  -9   13.28    1.59
   4  -8  -9   13.50    1.37
  -4   8   9   14.85    1.79
  -4   8   9   14.40    1.83
  -4   8   9   15.82    1.21
   3  -8  -9   27.29    1.83
   3  -8  -9   29.95    1.80
   3  -8  -9   28.72    1.79
   3  -8  -9   26.30    1.90
  -3   8   9   31.92    3.83
  -3   8   9   29.53    1.54
   2  -8  -9   36.43    1.86
   2  -8  -9   39.86    1.89
   2  -8  -9   39.38    2.12
   2  -8  -9   38.28    1.99
  -2   8   9   39.68    1.72
  -2   8   9   40.95    1.73
  -2   8   9   37.31    2.32
   1  -8  -9   30.55    1.57
   1  -8  -9   33.64    1.79
   1  -8  -9   33.45    1.56
   1  -8  -9   34.09    1.53
  -1   8   9   31.06    1.93
  -1   8   9   30.80    1.16
  -1   8   9   31.40    1.47
   0  -8  -9   84.55    2.66
   0  -8  -9   82.88    2.75
   0  -8  -9   87.75    3.23
   0  -8  -9   85.74    2.66
   0   8   9   79.25    3.46
   0   8   9   84.02    2.77
   0   8   9   83.05    3.29
  -1  -8  -9   18.81    0.85
  -1  -8  -9   17.07    0.97
  -1  -8  -9   18.07    0.92
  -1  -8  -9   18.69    1.34
  -1  -8  -9   17.60    1.00
   1   8   9   18.77    1.50
   1   8   9   16.11    1.23
   1   8   9   18.09    1.11
  -2  -8  -9   86.43    2.40
  -2  -8  -9   86.03    2.42
  -2  -8  -9   85.29    2.68
  -2  -8  -9   85.94    3.36
   2   8   9   89.10    3.56
   2   8   9   90.07    3.87
   2   8   9   83.82    3.12
  -3  -8  -9    0.33    0.28
  -3  -8  -9    0.28    0.21
  -3  -8  -9   -0.08    0.15
  -3  -8  -9    0.92    0.54
  -3  -8  -9    0.42    0.37
   3   8   9    0.66    0.48
   3   8   9    0.55    0.53
  -4  -8  -9   61.48    2.81
  -4  -8  -9   59.77    2.21
  -4  -8  -9   56.17    2.15
  -4  -8  -9   61.45    2.10
  -4  -8  -9   60.29    1.98
   4   8   9   58.73    3.06
   4   8   9   57.21    3.09
   4   8   9   56.55    2.78
  -5  -8  -9   12.46    0.99
  -5  -8  -9   13.34    1.57
  -5  -8  -9   11.88    1.03
  -5  -8  -9   14.18    0.99
   5   8   9   15.02    1.42
   5   8   9   14.32    1.79
   5   8   9   13.85    1.77
  -6  -8  -9   44.68    1.66
  -6  -8  -9   50.93    2.17
  -6  -8  -9   44.95    2.18
   6   8   9   52.54    2.64
   6   8   9   46.78    2.91
  -7  -8  -9   22.48    1.57
  -7  -8  -9   23.68    1.67
   7   8   9   22.97    2.22
   7   8   9   24.78    2.29
   7   8   9   22.20    1.87
  -8  -8  -9   30.78    2.08
   8   8   9   28.98    3.44
   8   8   9   29.07    2.18
   8   8   9   27.18    2.63
   5  -9  -9    7.14    1.24
   5  -9  -9    9.29    1.32
  -5   9   9    9.75    1.30
  -5   9   9   10.72    1.63
   4  -9  -9   25.86    1.78
   4  -9  -9   25.88    1.91
   4  -9  -9   25.65    1.92
  -4   9   9   26.58    1.75
  -4   9   9   26.22    2.27
   3  -9  -9   10.59    1.24
   3  -9  -9   10.13    1.22
   3  -9  -9    9.63    1.25
   3  -9  -9    8.74    1.28
  -3   9   9   11.50    1.60
  -3   9   9    8.28    1.44
   2  -9  -9   55.41    2.36
   2  -9  -9   58.34    2.71
   2  -9  -9   58.36    2.49
   2  -9  -9   58.57    2.49
  -2   9   9   60.26    2.38
  -2   9   9   55.43    2.13
   1  -9  -9   20.81    1.37
   1  -9  -9   20.60    1.16
   1  -9  -9   19.71    1.45
   1  -9  -9   20.23    1.22
  -1   9   9   20.33    1.69
  -1   9   9   21.73    1.30
   0  -9  -9   66.80    2.73
   0  -9  -9   59.85    2.09
   0  -9  -9   62.01    2.57
   0  -9  -9   65.33    2.14
   0   9   9   62.60    2.90
   0   9   9   63.47    2.44
  -1  -9  -9    8.22    0.85
  -1  -9  -9    6.78    0.99
  -1  -9  -9    7.05    0.90
  -1  -9  -9    7.85    0.48
  -1  -9  -9    7.97    0.54
   1   9   9    5.74    0.95
   1   9   9    8.32    1.24
   1   9   9    7.48    0.88
  -2  -9  -9   82.81    2.83
  -2  -9  -9   80.49    3.21
   2   9   9   76.69    2.97
   2   9   9   84.26    3.45
   2   9   9   80.97    3.19
  -3  -9  -9    1.13    0.42
  -3  -9  -9    0.33    0.50
  -3  -9  -9    0.12    0.33
   3   9   9    1.18    0.59
   3   9   9    1.04    0.59
  -4  -9  -9   83.22    2.25
  -4  -9  -9   83.61    2.70
  -4  -9  -9   82.96    2.32
  -4  -9  -9   79.69    3.36
   4   9   9   80.13    3.85
   4   9   9   80.61    3.74
   4   9   9   81.57    3.40
  -5  -9  -9   23.73    1.46
  -5  -9  -9   26.86    1.22
  -5  -9  -9   23.87    1.14
  -5  -9  -9   24.82    1.12
   5   9   9   23.65    1.72
   5   9   9   24.86    2.13
   5   9   9   23.48    1.96
  -6  -9  -9   67.31    2.48
  -6  -9  -9   68.55    2.52
  -6  -9  -9   67.23    2.86
   6   9   9   69.24    3.09
   6   9   9   68.61    3.70
   6   9   9   67.35    3.60
  -7  -9  -9   38.22    1.95
  -7  -9  -9   37.47    2.20
   7   9   9   38.74    2.87
   7   9   9   42.50    2.92
   7   9   9   41.18    2.30
  -8  -9  -9   29.65    2.12
  -8  -9  -9   29.05    2.06
   8   9   9   27.38    2.03
   8   9   9   30.48    2.57
   8   9   9   29.21    2.73
   4 -10  -9   23.61    1.95
   4 -10  -9   22.58    1.86
   4 -10  -9   24.81    1.72
  -4  10   9   27.17    1.92
  -4  10   9   23.45    2.31
   3 -10  -9    4.78    1.05
   3 -10  -9    4.15    0.85
   3 -10  -9    3.64    0.83
  -3  10   9    2.45    0.68
  -3  10   9    2.63    1.00
   2 -10  -9   48.81    2.19
   2 -10  -9   45.44    2.14
   2 -10  -9   48.52    2.27
   2 -10  -9   49.52    2.55
  -2  10   9   50.55    2.30
  -2  10   9   47.38    2.93
   1 -10  -9    0.71    0.38
   1 -10  -9    0.19    0.51
   1 -10  -9    0.33    0.33
   1 -10  -9    0.09    0.31
   0 -10  -9   89.76    2.72
   0 -10  -9   84.66    3.12
   0 -10  -9   88.77    2.75
   0 -10  -9   89.95    3.42
   0  10   9   89.06    3.76
   0  10   9   89.91    3.28
  -1 -10  -9    2.14    0.30
  -1 -10  -9    2.27    0.30
  -1 -10  -9    2.33    0.62
  -1 -10  -9    2.02    0.57
   1  10   9    1.71    0.68
   1  10   9    3.44    0.65
  -2 -10  -9   76.61    3.07
  -2 -10  -9   81.12    2.95
  -2 -10  -9   79.92    3.68
   2  10   9   76.42    3.30
   2  10   9   80.06    3.41
  -3 -10  -9   28.52    1.76
  -3 -10  -9   23.36    1.46
  -3 -10  -9   24.77    1.38
   3  10   9   23.99    1.79
   3  10   9   22.55    1.68
   3  10   9   23.27    1.91
  -4 -10  -9   66.62    3.00
  -4 -10  -9   65.80    2.60
  -4 -10  -9   69.15    2.72
   4  10   9   71.93    3.48
   4  10   9   61.73    3.34
   4  10   9   65.71    2.96
  -5 -10  -9   43.52    2.12
  -5 -10  -9   38.94    1.52
  -5 -10  -9   41.01    1.37
   5  10   9   42.85    3.17
   5  10   9   39.07    2.21
  -6 -10  -9   22.74    1.64
  -6 -10  -9   22.07    1.16
  -6 -10  -9   20.12    1.13
   6  10   9   23.62    1.63
   6  10   9   24.94    2.28
   6  10   9   22.33    2.06
  -7 -10  -9   49.99    2.18
  -7 -10  -9   56.52    3.18
   7  10   9   54.04    3.32
   7  10   9   50.92    3.29
   7  10   9   52.20    2.55
  -8 -10  -9    3.60    1.01
  -8 -10  -9    2.60    0.74
   8  10   9    3.91    1.29
   8  10   9    1.04    0.93
   8  10   9    3.72    1.35
   3 -11  -9    0.43    0.60
   3 -11  -9   -0.63    0.65
   3 -11  -9    0.84    0.57
  -3  11   9   -0.32    0.66
  -3  11   9    0.53    0.89
   2 -11  -9   50.09    2.42
   2 -11  -9   51.31    2.25
   2 -11  -9   55.52    2.78
  -2  11   9   51.33    2.52
  -2  11   9   54.95    3.19
   1 -11  -9    5.19    0.79
   1 -11  -9    6.82    1.06
   1 -11  -9    6.38    0.85
   1 -11  -9    5.36    0.76
  -1  11   9    5.77    0.94
  -1  11   9    5.32    1.15
   0 -11  -9   80.29    3.24
   0 -11  -9   75.84    2.46
   0 -11  -9   75.34    2.52
   0 -11  -9   77.80    2.78
   0  11   9   71.03    3.53
   0  11   9   80.90    3.17
  -1 -11  -9   24.36    0.93
  -1 -11  -9   24.14    1.56
  -1 -11  -9   24.47    1.44
   1  11   9   22.64    1.81
   1  11   9   22.80    1.59
  -2 -11  -9   71.67    2.94
  -2 -11  -9   67.04    2.74
  -2 -11  -9   64.89    2.67
   2  11   9   61.76    3.09
   2  11   9   69.65    2.91
  -3 -11  -9   45.52    2.22
  -3 -11  -9   42.81    1.91
  -3 -11  -9   40.60    2.14
   3  11   9   38.59    2.19
  -4 -11  -9   19.32    1.16
  -4 -11  -9   19.49    1.42
  -4 -11  -9   19.65    1.56
   4  11   9   17.62    1.74
   4  11   9   18.95    1.79
  -5 -11  -9   66.61    3.05
  -5 -11  -9   60.24    2.78
   5  11   9   63.67    3.40
   5  11   9   63.89    2.89
  -6 -11  -9    2.70    0.43
  -6 -11  -9    1.99    0.75
  -6 -11  -9    2.86    0.47
   6  11   9    1.62    1.03
   6  11   9    3.66    0.87
   6  11   9    3.87    1.14
  -7 -11  -9   51.64    2.00
  -7 -11  -9   49.91    2.72
   7  11   9   44.06    3.12
   7  11   9   49.25    2.39
   7  11   9   41.18    3.00
   2 -12  -9   41.40    1.91
   2 -12  -9   48.98    2.70
   2 -12  -9   44.73    2.32
  -2  12   9   39.88    2.94
  -2  12   9   39.71    2.35
   1 -12  -9   25.28    1.87
   1 -12  -9   21.83    1.30
   1 -12  -9   25.23    1.49
   1 -12  -9   19.62    1.93
  -1  12   9   22.51    1.79
  -1  12   9   19.04    1.93
   0 -12  -9   35.73    2.10
   0 -12  -9   32.30    1.55
   0 -12  -9   34.12    1.61
   0 -12  -9   33.16    1.62
   0  12   9   33.06    2.04
   0  12   9   33.31    2.42
  -1 -12  -9   68.80    2.94
  -1 -12  -9   67.17    2.48
  -1 -12  -9   64.22    2.02
   1  12   9   76.33    3.15
   1  12   9   66.80    3.47
  -2 -12  -9   16.63    1.45
  -2 -12  -9   13.39    1.12
  -2 -12  -9   13.80    1.24
   2  12   9   15.09    1.36
   2  12   9   16.07    1.91
  -3 -12  -9   80.59    3.15
  -3 -12  -9   81.48    3.45
   3  12   9   81.60    3.51
  -4 -12  -9   -0.27    0.51
  -4 -12  -9    0.15    0.61
   4  12   9    0.19    0.64
  -5 -12  -9   66.20    3.16
  -5 -12  -9   72.55    3.23
   5  12   9   75.02    3.73
   5  12   9   69.79    3.95
  -6 -12  -9    1.73    0.84
  -6 -12  -9    2.94    0.89
   6  12   9    5.92    1.26
   6  12   9    3.01    1.09
  -7 -12  -9   47.51    2.72
  -7 -12  -9   47.07    1.67
  -7 -12  -9   45.19    1.72
   7  12   9   45.67    3.25
   7  12   9   50.01    3.32
   1 -13  -9   31.01    1.86
  -1  13   9   34.73    2.77
  -1  13   9   38.27    2.39
   0 -13  -9   12.65    1.13
   0 -13  -9   15.23    1.04
   0 -13  -9   14.43    1.13
   0  13   9   17.81    2.14
   0  13   9   13.95    1.66
  -1 -13  -9   60.77    1.84
  -1 -13  -9   57.97    2.08
  -1 -13  -9   61.86    2.76
   1  13   9   60.32    3.49
   1  13   9   63.04    3.07
  -2 -13  -9    5.75    1.13
   2  13   9    3.79    1.11
   2  13   9    5.91    1.11
  -3 -13  -9   67.11    2.61
   3  13   9   65.13    3.21
  -4 -13  -9    0.55    0.70
  -4 -13  -9    0.32    0.56
   4  13   9    0.14    0.70
  -5 -13  -9   33.58    2.15
  -5 -13  -9   35.91    2.34
   5  13   9   36.37    2.63
  -6 -13  -9   21.88    1.92
  -6 -13  -9   21.74    1.94
   6  13   9   18.38    2.22
   6  13   9   21.57    2.11
   0 -14  -9    0.60    0.53
   0  14   9    0.84    1.10
   0  14   9   -0.03    0.75
  -1 -14  -9   44.94    1.55
  -1 -14  -9   43.87    1.71
   1  14   9   45.79    3.06
   1  14   9   41.74    2.83
  -2 -14  -9    4.40    1.11
   2  14   9    3.34    1.16
  -3 -14  -9   37.40    2.56
   3  14   9   37.54    2.74
  -4 -14  -9   11.71    1.63
  -4 -14  -9   14.65    1.29
   4  14   9   17.02    1.96
  -5 -14  -9   20.96    2.00
  -5 -14  -9   19.48    1.75
   5  14   9   23.35    2.25
   5  14   9   24.98    2.18
   2   5 -10   30.27    2.20
   2   5 -10   28.14    2.68
  -2  -5  10   28.56    2.70
  -2  -5  10   29.28    2.42
  -2  -5  10   31.92    2.09
   5   4 -10    9.48    1.83
   5   4 -10    7.64    1.36
  -5  -4  10    8.43    1.31
  -5  -4  10   10.26    1.91
  -5  -4  10    8.22    1.66
   4   4 -10   37.06    2.42
   4   4 -10   43.57    3.17
  -4  -4  10   38.25    2.50
  -4  -4  10   37.49    2.23
  -4  -4  10   36.83    2.91
   3   4 -10   28.00    2.40
   3   4 -10   22.29    1.92
  -3  -4  10   27.12    1.82
  -3  -4  10   25.80    2.07
  -3  -4  10   22.66    2.38
   2   4 -10   45.24    3.09
   2   4 -10   34.38    1.68
   2   4 -10   40.39    2.42
  -2  -4  10   42.04    2.70
  -2  -4  10   36.82    2.86
  -2  -4  10   40.11    2.13
   1   4 -10   36.66    1.81
   1   4 -10   36.72    2.26
   1   4 -10   35.35    2.81
  -1  -4  10   35.03    1.95
  -1  -4  10   34.66    2.87
  -1  -4  10   37.93    2.62
   0   4 -10   13.66    1.55
   0   4 -10   14.43    1.30
   0   4 -10   13.33    2.03
   0  -4  10   13.39    2.03
   0  -4  10   12.65    1.41
   0  -4  10   11.34    1.70
  -1   4 -10   37.15    2.37
  -1   4 -10   43.17    2.33
  -1   4 -10   39.68    3.08
   1  -4  10   42.39    2.35
   1  -4  10   45.45    3.27
   1  -4  10   45.05    3.15
   1  -4  10   38.31    2.44
   6   3 -10   37.08    3.10
   6   3 -10   36.02    2.61
  -6  -3  10   33.18    2.35
  -6  -3  10   37.25    2.34
  -6  -3  10   35.99    3.03
   5   3 -10   16.38    1.86
   5   3 -10   17.11    2.37
  -5  -3  10   15.39    2.07
  -5  -3  10   20.60    1.69
  -5  -3  10   14.97    1.60
   4   3 -10   26.95    2.08
   4   3 -10   31.79    2.63
  -4  -3  10   28.71    1.84
  -4  -3  10   24.67    3.30
   3   3 -10   56.71    2.93
  -3  -3  10   57.74    3.40
  -3  -3  10   60.23    3.09
  -3  -3  10   57.93    2.48
   2   3 -10   16.22    2.04
   2   3 -10   18.31    1.64
   2   3 -10   17.03    1.13
  -2  -3  10   20.00    1.33
  -2  -3  10   20.62    1.87
  -2  -3  10   20.91    2.13
   1   3 -10   81.24    3.43
   1   3 -10   72.92    2.62
   1   3 -10   70.84    3.84
  -1  -3  10   83.98    3.93
  -1  -3  10   84.65    4.06
  -1  -3  10   76.80    3.00
   0   3 -10    4.13    1.17
   0   3 -10    3.97    0.72
   0   3 -10    4.07    0.80
   0  -3  10    3.21    1.10
   0  -3  10    3.17    0.73
   0  -3  10    4.00    1.10
  -1   3 -10   63.28    2.70
  -1   3 -10   61.10    3.62
  -1   3 -10   59.30    2.93
   1  -3  10   58.43    3.58
   1  -3  10   66.65    3.74
   1  -3  10   60.33    2.52
   1  -3  10   65.03    3.09
  -2   3 -10    0.68    0.72
  -2   3 -10   -0.20    0.82
  -2   3 -10    0.45    0.75
   2  -3  10    0.00    1.11
   2  -3  10    0.70    1.24
   2  -3  10    0.79    0.86
   6   2 -10   14.61    1.89
   6   2 -10   13.45    1.84
  -6  -2  10   18.14    2.30
  -6  -2  10   18.49    2.08
  -6  -2  10   16.84    1.72
   5   2 -10   32.62    2.67
   5   2 -10   40.79    2.61
  -5  -2  10   37.30    2.32
  -5  -2  10   39.43    2.90
  -5  -2  10   38.36    2.20
   4   2 -10   10.19    1.84
   4   2 -10    8.05    1.32
  -4  -2  10    7.75    1.28
  -4  -2  10    8.81    1.06
  -4  -2  10    8.49    1.57
   3   2 -10   76.07    3.50
  -3  -2  10   81.57    3.91
  -3  -2  10   79.03    3.56
   2   2 -10    2.04    0.90
   2   2 -10    3.22    0.93
  -2  -2  10    2.53    0.85
  -2  -2  10    3.15    0.56
  -2  -2  10    4.28    0.97
   1   2 -10   91.45    4.19
  -1  -2  10   83.15    2.83
  -1  -2  10   87.81    4.02
  -1  -2  10   91.72    4.01
   0   2 -10    1.34    0.83
   0   2 -10    0.02    1.10
   0   2 -10    0.06    0.39
   0  -2  10    0.40    0.42
   0  -2  10   -0.06    0.70
   0  -2  10    0.47    0.71
   0  -2  10    0.27    0.69
  -1   2 -10   46.23    2.18
  -1   2 -10   52.50    2.66
  -1   2 -10   57.03    3.26
   1  -2  10   52.08    3.11
   1  -2  10   47.27    2.01
   1  -2  10   43.64    2.82
   1  -2  10   47.28    2.66
  -2   2 -10   13.95    1.36
  -2   2 -10   11.28    1.49
  -2   2 -10   15.21    1.97
   2  -2  10   14.39    1.85
   2  -2  10    9.83    1.65
   2  -2  10   13.44    1.91
  -3   2 -10   27.72    2.58
  -3   2 -10   24.94    2.04
  -3   2 -10   27.26    1.99
   3  -2  10   20.46    2.49
   3  -2  10   24.73    2.18
   6   1 -10    7.19    1.48
   6   1 -10    7.71    1.44
  -6  -1  10    8.06    1.61
  -6  -1  10    9.35    1.37
  -6  -1  10    8.45    1.35
   5   1 -10   84.76    4.27
   5   1 -10   87.69    3.96
  -5  -1  10   94.23    4.41
  -5  -1  10   81.98    3.61
  -5  -1  10   90.39    3.44
   4   1 -10    0.85    0.70
   4   1 -10    0.10    0.64
  -4  -1  10   -0.91    0.64
  -4  -1  10    0.67    0.44
  -4  -1  10   -0.06    0.55
   3   1 -10  118.90    4.61
   3   1 -10  126.36    5.68
  -3  -1  10  121.72    4.87
  -3  -1  10  120.42    3.75
  -3  -1  10  119.58    4.62
   2   1 -10    4.27    0.96
   2   1 -10    7.64    2.09
  -2  -1  10    4.79    0.65
  -2  -1  10    3.30    0.88
  -2  -1  10    3.09    0.91
   1   1 -10   96.49    3.76
   1   1 -10  106.29    5.95
   1   1 -10   88.24    2.47
  -1  -1  10   97.47    4.09
  -1  -1  10   85.62    2.70
  -1  -1  10   88.71    2.69
  -1  -1  10   91.46    2.77
   0   1 -10   12.79    1.46
   0   1 -10   14.19    0.92
   0   1 -10   14.02    1.80
   0  -1  10   13.63    0.89
   0  -1  10   12.31    1.79
   0  -1  10   14.34    1.66
   0  -1  10   12.03    0.79
   0  -1  10   15.96    1.93
  -1   1 -10   37.18    1.77
  -1   1 -10   37.29    2.54
   1  -1  10   36.13    1.55
   1  -1  10   37.60    2.46
   1  -1  10   39.87    2.36
   1  -1  10   38.23    1.51
   1  -1  10   36.21    2.53
  -2   1 -10   15.24    2.05
  -2   1 -10   16.06    1.72
  -2   1 -10   17.19    1.36
   2  -1  10   18.88    1.94
   2  -1  10   15.63    1.65
   2  -1  10   18.25    1.85
  -3   1 -10    9.08    1.45
  -3   1 -10    7.77    1.10
  -3   1 -10    7.93    1.47
   3  -1  10   10.63    1.77
   3  -1  10    6.93    1.35
   3  -1  10    6.97    1.37
  -4   1 -10   20.42    2.62
  -4   1 -10   24.05    1.96
  -4   1 -10   23.51    2.04
   4  -1  10   24.38    4.11
   4  -1  10   20.18    2.46
   4  -1  10   23.86    2.26
   7   0 -10   53.69    3.27
   7   0 -10   56.47    3.57
  -7   0  10   52.74    3.03
  -7   0  10   58.28    3.66
   6   0 -10   -0.03    0.82
   6   0 -10    0.22    0.71
  -6   0  10    0.17    0.91
  -6   0  10    0.31    0.73
  -6   0  10    0.14    0.65
   5   0 -10   82.35    4.11
   5   0 -10   79.42    3.79
  -5   0  10   88.01    3.33
  -5   0  10   85.84    3.65
  -5   0  10   84.12    4.03
   4   0 -10    8.38    1.49
   4   0 -10    5.47    1.06
  -4   0  10    6.65    1.30
  -4   0  10    7.52    0.97
  -4   0  10    7.48    1.27
   3   0 -10   75.72    4.15
   3   0 -10   84.54    3.98
  -3   0  10   83.38    2.74
  -3   0  10   84.98    3.76
  -3   0  10   80.79    3.58
   2   0 -10   44.28    2.62
   2   0 -10   37.44    2.28
  -2   0  10   43.30    2.50
  -2   0  10   39.97    1.50
  -2   0  10   46.65    2.55
   1   0 -10   53.33    3.10
   1   0 -10   55.44    2.68
  -1   0  10   51.73    2.83
  -1   0  10   55.09    2.78
  -1   0  10   52.63    1.88
   0   0 -10   46.36    2.51
   0   0 -10   54.34    2.89
   0   0 -10   50.56    1.96
   0   0  10   54.97    2.80
   0   0  10   48.54    2.62
   0   0  10   59.41    3.04
  -1   0 -10   10.30    1.77
  -1   0 -10    9.09    1.20
  -1   0 -10    9.56    0.85
   1   0  10   11.29    1.48
   1   0  10   10.46    1.48
   1   0  10    9.10    1.35
  -2   0 -10   44.26    2.75
  -2   0 -10   42.00    1.99
  -2   0 -10   40.53    2.43
   2   0  10   37.92    2.40
   2   0  10   37.27    2.38
   2   0  10   36.92    2.59
   2   0  10   36.79    1.50
  -3   0 -10   -0.01    0.61
  -3   0 -10    0.79    0.69
   3   0  10    1.22    0.83
   3   0  10    1.70    0.93
   3   0  10   -0.10    0.65
  -4   0 -10   36.13    2.74
  -4   0 -10   35.98    2.43
   4   0  10   31.23    2.50
   4   0  10   37.43    2.79
  -5   0 -10    5.51    2.48
  -5   0 -10    4.08    1.10
   5   0  10    2.94    1.14
   5   0  10    3.72    2.11
   7  -1 -10   51.54    3.34
   7  -1 -10   49.64    3.13
  -7   1  10   50.65    2.94
  -7   1  10   51.16    3.14
  -7   1  10   48.57    3.33
   6  -1 -10   11.34    1.79
   6  -1 -10   12.58    1.70
  -6   1  10    9.24    1.56
  -6   1  10   10.82    1.43
   5  -1 -10   62.15    3.40
   5  -1 -10   58.29    3.17
  -5   1  10   60.27    2.94
  -5   1  10   64.44    3.38
  -5   1  10   61.59    2.70
   4  -1 -10   29.85    2.03
   4  -1 -10   25.55    2.06
  -4   1  10   23.28    1.82
  -4   1  10   27.91    1.91
   3  -1 -10   42.50    2.61
   3  -1 -10   42.01    2.75
  -3   1  10   44.35    1.76
  -3   1  10   48.49    2.65
  -3   1  10   45.58    2.56
   2  -1 -10   51.57    2.77
   2  -1 -10   65.11    2.96
   2  -1 -10   49.10    2.62
  -2   1  10   56.90    2.22
  -2   1  10   52.43    1.62
  -2   1  10   52.85    2.78
  -2   1  10   50.61    2.67
   1  -1 -10   19.78    1.68
   1  -1 -10   19.16    1.52
   1  -1 -10   16.28    1.52
  -1   1  10   16.03    0.94
  -1   1  10   17.54    1.65
  -1   1  10   15.26    1.44
   0  -1 -10   89.72    2.40
   0  -1 -10   92.62    3.82
   0  -1 -10   93.91    3.64
   0  -1 -10   87.31    3.67
   0  -1 -10   85.33    2.40
   0   1  10   89.85    3.88
   0   1  10   94.20    3.67
   0   1  10   91.65    3.82
  -1  -1 -10    6.35    1.16
  -1  -1 -10    6.73    1.13
   1   1  10    5.76    1.08
   1   1  10    6.06    0.97
   1   1  10    5.41    1.06
  -2  -1 -10  104.40    4.36
  -2  -1 -10   96.26    4.18
  -2  -1 -10  106.67    4.14
   2   1  10  111.41    4.42
   2   1  10  102.32    4.40
   2   1  10  106.78    4.11
  -3  -1 -10    0.53    0.57
  -3  -1 -10    0.79    0.55
   3   1  10    0.00    0.61
   3   1  10   -0.07    0.62
   3   1  10    0.71    0.45
   3   1  10    1.12    0.68
  -4  -1 -10   59.72    3.32
  -4  -1 -10   52.55    2.95
   4   1  10   55.35    3.25
   4   1  10   53.37    3.00
   4   1  10   53.19    3.16
  -5  -1 -10    1.87    0.89
  -5  -1 -10    0.56    0.95
   5   1  10   -0.39    1.21
   5   1  10    1.52    1.09
   5   1  10    1.74    1.01
   7  -2 -10   45.94    2.94
   7  -2 -10   43.54    2.99
  -7   2  10   45.34    3.34
  -7   2  10   40.93    3.14
  -7   2  10   44.99    2.86
   6  -2 -10   21.03    2.12
   6  -2 -10   29.07    2.13
  -6   2  10   25.73    2.17
  -6   2  10   26.23    1.98
  -6   2  10   28.53    2.28
   5  -2 -10   35.88    2.45
   5  -2 -10   38.43    2.45
  -5   2  10   32.46    2.36
  -5   2  10   36.18    2.22
  -5   2  10   39.73    2.39
  -5   2  10   33.91    2.01
   4  -2 -10   64.50    3.12
   4  -2 -10   67.93    3.32
   4  -2 -10   56.76    2.33
  -4   2  10   60.08    3.03
  -4   2  10   59.70    2.46
  -4   2  10   65.01    3.07
  -4   2  10   65.06    2.90
   3  -2 -10   14.02    1.44
   3  -2 -10   10.96    1.36
   3  -2 -10   13.32    1.52
  -3   2  10   15.06    0.94
  -3   2  10   14.48    1.46
  -3   2  10   14.75    1.47
  -3   2  10   16.78    1.26
   2  -2 -10   68.60    3.52
   2  -2 -10   66.90    3.09
   2  -2 -10   68.00    3.17
  -2   2  10   67.61    3.00
  -2   2  10   64.97    3.17
   1  -2 -10    0.26    0.50
   1  -2 -10    1.09    0.56
   1  -2 -10    0.16    0.54
  -1   2  10    0.58    0.58
  -1   2  10    0.69    0.51
  -1   2  10    0.43    0.30
   0  -2 -10   83.77    3.48
   0  -2 -10   85.23    3.45
   0  -2 -10   87.50    3.54
   0   2  10   73.98    4.34
   0   2  10   92.43    3.76
   0   2  10   83.47    2.30
   0   2  10   88.09    3.78
  -1  -2 -10    0.85    0.36
  -1  -2 -10   -0.71    0.46
  -1  -2 -10   -0.05    0.37
  -1  -2 -10   -0.21    0.45
   1   2  10    1.96    0.73
   1   2  10    1.29    0.64
  -2  -2 -10   54.01    2.70
  -2  -2 -10   47.17    2.63
  -2  -2 -10   51.28    2.70
   2   2  10   50.83    2.85
   2   2  10   49.80    2.77
  -3  -2 -10    2.23    0.77
  -3  -2 -10    0.88    0.60
  -3  -2 -10    1.52    0.87
   3   2  10    0.77    0.71
   3   2  10    1.93    0.72
   3   2  10    0.81    0.65
  -4  -2 -10   29.16    2.20
   4   2  10   31.04    2.06
   4   2  10   30.66    2.41
   4   2  10   27.79    2.24
  -5  -2 -10    3.66    1.10
  -5  -2 -10    2.77    0.86
   5   2  10    2.92    1.11
   5   2  10    4.07    1.10
   5   2  10    3.36    1.11
  -6  -2 -10   13.30    2.39
   6   2  10   13.49    2.45
   6   2  10   10.05    1.84
   7  -3 -10   16.53    3.16
   7  -3 -10   12.99    1.83
  -7   3  10   13.82    1.84
  -7   3  10   11.22    1.94
  -7   3  10   10.51    2.64
   6  -3 -10   48.73    3.04
   6  -3 -10   52.96    2.97
  -6   3  10   48.21    2.73
  -6   3  10   49.74    3.00
  -6   3  10   51.07    3.01
   5  -3 -10    9.18    1.35
   5  -3 -10    8.73    1.38
  -5   3  10    7.82    1.30
  -5   3  10    6.23    1.25
  -5   3  10    8.81    1.19
   4  -3 -10   75.07    3.44
   4  -3 -10   74.55    3.47
   4  -3 -10   71.07    4.17
  -4   3  10   73.90    3.24
  -4   3  10   70.31    3.31
  -4   3  10   75.87    3.31
   3  -3 -10    0.34    0.51
   3  -3 -10    1.92    0.70
   3  -3 -10    1.48    0.41
   3  -3 -10    0.98    0.67
  -3   3  10    0.70    0.43
  -3   3  10    1.40    0.39
  -3   3  10    0.83    0.61
  -3   3  10    0.92    0.58
   2  -3 -10  104.54    4.04
   2  -3 -10  105.20    4.04
   2  -3 -10   91.32    3.80
  -2   3  10  106.35    4.01
  -2   3  10  107.78    4.23
   1  -3 -10    0.38    0.44
   1  -3 -10    0.11    0.49
   1  -3 -10    0.51    0.47
  -1   3  10    0.87    0.47
  -1   3  10    0.59    0.55
  -1   3  10    0.73    0.34
   0  -3 -10   55.14    2.71
   0  -3 -10   61.95    2.81
   0  -3 -10   64.23    2.81
   0   3  10   61.58    1.90
   0   3  10   60.54    3.02
   0   3  10   61.56    2.63
  -1  -3 -10    5.71    0.96
  -1  -3 -10    5.46    0.60
  -1  -3 -10    6.60    1.05
  -1  -3 -10    5.74    1.00
   1   3  10    7.20    1.25
   1   3  10    6.71    1.19
   1   3  10    5.44    0.86
  -2  -3 -10   35.74    2.13
  -2  -3 -10   35.24    2.09
  -2  -3 -10   37.59    2.16
   2   3  10   38.83    2.42
   2   3  10   36.06    2.33
   2   3  10   35.65    1.91
  -3  -3 -10   12.55    1.49
  -3  -3 -10    9.85    1.36
   3   3  10   10.82    1.50
   3   3  10   11.04    1.56
   3   3  10   10.33    1.21
  -4  -3 -10   27.38    1.99
  -4  -3 -10   20.24    1.96
  -4  -3 -10   26.30    1.97
   4   3  10   24.56    2.09
   4   3  10   22.40    2.05
   4   3  10   25.27    1.98
   4   3  10   22.73    1.17
  -5  -3 -10   22.35    1.89
   5   3  10   18.35    1.93
   5   3  10   20.90    1.80
   5   3  10   18.78    2.03
  -6  -3 -10   14.93    1.87
   6   3  10   14.65    2.13
   6   3  10   16.19    2.11
   6  -4 -10   58.50    3.24
   6  -4 -10   52.55    2.99
  -6   4  10   53.14    3.78
  -6   4  10   54.25    3.15
   5  -4 -10    0.65    0.68
   5  -4 -10    0.39    0.66
  -5   4  10    1.78    0.73
  -5   4  10    1.64    0.79
  -5   4  10    1.63    0.68
   4  -4 -10   55.51    2.87
   4  -4 -10   61.83    3.02
   4  -4 -10   63.03    3.06
  -4   4  10   59.73    2.95
  -4   4  10   62.20    2.98
  -4   4  10   63.43    3.21
  -4   4  10   51.23    2.73
   3  -4 -10    3.40    0.81
   3  -4 -10    2.30    0.50
   3  -4 -10    5.01    0.96
   3  -4 -10    2.34    0.76
  -3   4  10    3.18    0.90
  -3   4  10    3.07    0.52
  -3   4  10    3.49    0.72
  -3   4  10    2.54    0.75
   2  -4 -10   53.38    2.57
   2  -4 -10   52.02    1.77
   2  -4 -10   52.70    2.64
   2  -4 -10   51.54    2.49
  -2   4  10   50.91    2.70
  -2   4  10   52.50    2.29
  -2   4  10   51.29    2.36
   1  -4 -10   19.59    1.46
   1  -4 -10   19.20    1.51
   1  -4 -10   19.20    1.46
  -1   4  10   19.09    1.18
  -1   4  10   17.79    1.60
   0  -4 -10   67.37    2.81
   0  -4 -10   61.53    2.71
   0  -4 -10   63.94    2.90
   0   4  10   61.82    3.07
   0   4  10   67.63    2.17
  -1  -4 -10   19.17    1.39
  -1  -4 -10   19.59    1.44
  -1  -4 -10   14.41    1.28
   1   4  10   17.92    1.55
   1   4  10   18.28    0.75
   1   4  10   18.89    1.66
  -2  -4 -10   48.36    2.39
  -2  -4 -10   49.92    2.57
  -2  -4 -10   51.49    2.46
   2   4  10   48.99    2.70
   2   4  10   46.79    2.29
   2   4  10   49.20    2.77
  -3  -4 -10   29.95    2.02
  -3  -4 -10   26.84    2.67
  -3  -4 -10   27.67    1.82
   3   4  10   29.90    2.21
   3   4  10   27.70    2.06
  -4  -4 -10   15.61    1.48
  -4  -4 -10   14.27    1.62
  -4  -4 -10   15.81    1.50
   4   4  10   14.23    0.82
   4   4  10   16.57    2.03
  -5  -4 -10   42.36    2.51
   5   4  10   38.67    2.25
   5   4  10   45.15    2.95
   5   4  10   34.60    2.52
  -6  -4 -10    6.44    0.89
  -6  -4 -10    6.06    1.25
   6   4  10    3.91    1.32
   6   4  10    5.46    1.26
  -7  -4 -10   35.25    2.18
  -7  -4 -10   35.23    2.58
   7   4  10   38.15    3.06
   7   4  10   33.83    2.68
   6  -5 -10   28.82    2.21
   6  -5 -10   28.66    2.31
  -6   5  10   30.80    3.22
  -6   5  10   27.61    2.45
  -6   5  10   31.92    2.40
   5  -5 -10    1.87    0.71
   5  -5 -10    1.77    0.87
  -5   5  10    1.53    0.82
  -5   5  10    1.28    0.80
  -5   5  10    2.39    0.86
   4  -5 -10   57.23    2.88
   4  -5 -10   54.01    2.83
   4  -5 -10   48.79    2.71
  -4   5  10   55.33    2.50
  -4   5  10   58.53    2.94
   3  -5 -10    2.00    0.72
   3  -5 -10    3.48    0.81
   3  -5 -10    3.31    0.77
   3  -5 -10    3.43    0.58
  -3   5  10    3.33    0.90
  -3   5  10    4.19    0.85
  -3   5  10    1.98    0.62
   2  -5 -10   49.58    1.70
   2  -5 -10   50.64    2.39
   2  -5 -10   53.93    2.63
   2  -5 -10   50.17    2.44
  -2   5  10   51.80    2.36
  -2   5  10   52.59    2.74
   1  -5 -10   20.68    1.43
   1  -5 -10   23.29    1.66
   1  -5 -10   24.28    1.56
  -1   5  10   24.00    1.82
  -1   5  10   20.83    1.29
   0  -5 -10   62.65    2.80
   0  -5 -10   55.08    2.45
   0  -5 -10   59.38    2.51
   0   5  10   56.96    2.12
   0   5  10   61.97    3.01
  -1  -5 -10   50.95    1.77
  -1  -5 -10   56.48    2.66
  -1  -5 -10   55.32    2.39
  -1  -5 -10   50.83    2.30
   1   5  10   57.06    2.90
   1   5  10   55.98    2.95
   1   5  10   55.65    2.08
   1   5  10   56.17    1.82
  -2  -5 -10   37.36    2.16
  -2  -5 -10   37.43    1.92
  -2  -5 -10   29.18    1.72
   2   5  10   33.75    1.85
   2   5  10   36.87    2.25
   2   5  10   36.88    2.36
  -3  -5 -10   71.61    3.26
  -3  -5 -10   68.27    2.87
  -3  -5 -10   71.74    2.96
   3   5  10   75.04    3.57
   3   5  10   69.61    3.41
   3   5  10   67.90    2.78
  -4  -5 -10   10.77    1.41
  -4  -5 -10    8.77    1.33
   4   5  10   11.15    1.61
   4   5  10    9.54    1.49
   4   5  10   10.80    1.02
  -5  -5 -10   69.17    3.07
  -5  -5 -10   61.56    2.25
   5   5  10   61.93    2.66
   5   5  10   63.57    2.34
   5   5  10   63.17    3.54
   5   5  10   66.08    3.43
  -6  -5 -10    0.82    0.48
  -6  -5 -10   -0.18    0.50
   6   5  10   -0.33    0.68
   6   5  10    0.83    0.78
  -7  -5 -10   46.39    2.37
  -7  -5 -10   40.21    3.59
   7   5  10   37.80    5.29
   7   5  10   48.67    3.01
   6  -6 -10   22.45    1.95
   6  -6 -10   24.06    1.97
   6  -6 -10   37.08    4.33
  -6   6  10   26.27    2.43
  -6   6  10   23.70    2.18
   5  -6 -10   15.51    1.57
   5  -6 -10   14.39    1.66
  -5   6  10   10.51    1.66
  -5   6  10   14.87    1.72
  -5   6  10   11.65    0.89
   4  -6 -10   38.23    2.25
   4  -6 -10   38.81    2.28
   4  -6 -10   31.80    2.11
  -4   6  10   37.27    2.37
  -4   6  10   34.67    1.27
   3  -6 -10   20.76    1.57
   3  -6 -10   15.69    1.39
   3  -6 -10   15.21    1.38
  -3   6  10   16.97    1.54
  -3   6  10   16.46    1.51
   2  -6 -10   37.90    1.97
   2  -6 -10   39.86    2.05
   2  -6 -10   37.92    1.55
   2  -6 -10   38.13    2.21
  -2   6  10   39.27    1.85
  -2   6  10   39.99    2.10
  -2   6  10   40.88    2.39
   1  -6 -10   17.44    1.24
   1  -6 -10   15.11    1.18
   1  -6 -10   16.61    1.42
   1  -6 -10   15.46    0.73
  -1   6  10   14.30    1.00
  -1   6  10   15.88    1.47
  -1   6  10   17.91    1.25
   0  -6 -10    5.71    0.78
   0  -6 -10    4.02    0.76
   0  -6 -10    4.98    0.47
   0  -6 -10    5.60    0.79
   0   6  10    3.33    0.82
   0   6  10    5.01    0.71
   0   6  10    5.79    0.64
  -1  -6 -10   67.23    2.25
  -1  -6 -10   73.12    3.10
  -1  -6 -10   69.00    2.61
  -1  -6 -10   71.33    2.66
   1   6  10   74.61    3.34
   1   6  10   69.90    2.40
   1   6  10   71.81    3.43
   1   6  10   69.38    2.15
  -2  -6 -10    3.58    0.61
  -2  -6 -10    3.33    0.61
  -2  -6 -10    3.76    0.91
   2   6  10    4.39    0.48
   2   6  10    7.27    1.26
   2   6  10    4.42    0.95
  -3  -6 -10  104.76    3.58
  -3  -6 -10  116.00    4.28
  -3  -6 -10  107.95    3.69
   3   6  10  101.51    4.41
   3   6  10  103.80    3.01
   3   6  10  112.57    4.48
  -4  -6 -10    1.83    0.54
  -4  -6 -10    0.62    0.46
   4   6  10    0.81    0.41
   4   6  10    1.32    0.67
  -5  -6 -10   90.62    3.52
  -5  -6 -10   99.56    3.74
  -5  -6 -10   97.20    2.99
   5   6  10   96.43    4.47
   5   6  10   99.46    4.25
   5   6  10   91.11    3.10
  -6  -6 -10    1.36    0.61
  -6  -6 -10    2.24    0.61
   6   6  10    2.30    0.98
   6   6  10    1.24    0.82
  -7  -6 -10   53.48    2.52
  -7  -6 -10   50.74    2.87
   7   6  10   55.19    3.48
   7   6  10   51.00    3.13
   6  -7 -10   14.29    1.80
   6  -7 -10   11.54    1.61
   6  -7 -10   14.35    1.80
  -6   7  10   17.62    3.68
  -6   7  10   13.38    2.02
   5  -7 -10   17.09    1.72
   5  -7 -10   18.02    1.65
   5  -7 -10   17.11    1.63
  -5   7  10   12.83    1.79
  -5   7  10   17.03    1.15
   4  -7 -10   22.53    1.72
   4  -7 -10   23.42    1.80
  -4   7  10   21.78    1.99
  -4   7  10   21.88    1.18
   3  -7 -10   42.57    2.26
   3  -7 -10   43.24    2.37
   3  -7 -10   42.12    2.23
  -3   7  10   44.78    1.60
  -3   7  10   40.38    2.08
  -3   7  10   43.05    2.54
   2  -7 -10   20.79    1.43
   2  -7 -10   19.21    1.19
   2  -7 -10   20.08    1.36
   2  -7 -10   19.61    1.51
  -2   7  10   20.15    1.28
  -2   7  10   21.21    1.62
  -2   7  10   20.28    1.25
  -2   7  10   19.94    1.67
   1  -7 -10   70.99    2.74
   1  -7 -10   79.47    3.20
   1  -7 -10   67.58    2.28
   1  -7 -10   69.05    2.68
  -1   7  10   77.99    3.09
  -1   7  10   77.62    3.45
  -1   7  10   73.13    2.38
  -1   7  10   75.95    2.22
   0  -7 -10    8.67    0.51
   0  -7 -10    8.75    0.81
   0  -7 -10    7.08    0.68
   0  -7 -10    7.67    0.58
   0  -7 -10    7.68    0.79
   0  -7 -10    8.13    1.05
   0   7  10    6.83    0.95
   0   7  10    8.76    0.51
   0   7  10    7.41    1.18
  -1  -7 -10   87.82    2.88
  -1  -7 -10   83.03    3.40
  -1  -7 -10   85.33    2.91
   1   7  10   87.09    3.68
   1   7  10   81.76    2.91
  -2  -7 -10    1.20    0.36
  -2  -7 -10    2.24    0.46
  -2  -7 -10    1.14    0.37
  -2  -7 -10    1.00    0.52
   2   7  10    0.95    0.53
   2   7  10    1.59    0.70
   2   7  10    1.20    0.34
  -3  -7 -10  121.78    4.55
  -3  -7 -10  113.74    3.36
  -3  -7 -10  127.01    3.84
  -3  -7 -10  116.80    3.69
   3   7  10  133.80    5.07
   3   7  10  125.97    4.74
  -4  -7 -10    2.81    0.97
  -4  -7 -10    5.08    0.82
  -4  -7 -10    3.19    0.43
  -4  -7 -10    4.69    1.02
  -4  -7 -10    3.87    0.46
   4   7  10    3.77    0.93
  -5  -7 -10   77.01    2.98
  -5  -7 -10   82.15    3.14
  -5  -7 -10   80.82    2.67
  -5  -7 -10   76.53    2.25
   5   7  10   84.56    4.09
   5   7  10   87.35    3.83
  -6  -7 -10    9.23    1.22
  -6  -7 -10    7.02    0.90
   6   7  10    7.99    1.51
   6   7  10    9.36    1.59
  -7  -7 -10   36.67    2.24
  -7  -7 -10   34.03    1.98
   7   7  10   33.98    2.84
   7   7  10   37.97    2.65
   7   7  10   34.69    2.81
   5  -8 -10   19.28    1.75
   5  -8 -10   13.39    1.78
   5  -8 -10   20.18    1.85
  -5   8  10   16.42    2.48
  -5   8  10   21.06    1.63
   4  -8 -10    8.72    1.29
   4  -8 -10    6.96    1.15
   4  -8 -10    8.46    1.30
  -4   8  10    8.19    1.44
  -4   8  10    8.47    0.91
   3  -8 -10   43.92    2.58
   3  -8 -10   46.52    2.49
   3  -8 -10   47.28    2.37
   3  -8 -10   45.16    2.42
  -3   8  10   47.01    2.26
  -3   8  10   46.60    1.86
  -3   8  10   47.69    2.74
   2  -8 -10    5.44    0.82
   2  -8 -10    7.88    1.12
   2  -8 -10    6.42    1.05
  -2   8  10    7.22    0.69
  -2   8  10    5.52    0.72
  -2   8  10    7.76    1.32
   1  -8 -10   95.40    3.57
   1  -8 -10   91.57    3.09
   1  -8 -10   90.61    3.13
   1  -8 -10   84.16    2.89
  -1   8  10   92.77    2.84
  -1   8  10   90.83    3.90
  -1   8  10   90.03    3.59
   0  -8 -10    0.32    0.27
   0  -8 -10   -0.06    0.23
   0  -8 -10    0.29    0.31
   0  -8 -10    0.85    0.53
   0   8  10    0.07    0.35
   0   8  10    0.24    0.30
   0   8  10   -0.21    0.41
  -1  -8 -10  124.46    4.36
  -1  -8 -10  122.38    3.57
  -1  -8 -10  118.53    3.31
  -1  -8 -10  123.92    3.35
  -1  -8 -10  119.32    3.49
   1   8  10  119.83    4.58
   1   8  10  121.03    4.03
  -2  -8 -10   18.64    0.97
  -2  -8 -10   17.75    0.88
  -2  -8 -10   17.94    1.15
  -2  -8 -10   20.80    1.00
  -2  -8 -10   19.70    1.56
   2   8  10   21.02    1.77
   2   8  10   21.68    1.70
  -3  -8 -10   97.41    2.99
  -3  -8 -10   94.50    3.85
  -3  -8 -10   95.63    2.92
  -3  -8 -10  101.80    2.82
  -3  -8 -10   96.74    3.05
   3   8  10  100.11    4.36
   3   8  10   98.63    4.04
  -4  -8 -10   48.63    1.83
  -4  -8 -10   41.79    2.06
  -4  -8 -10   46.84    2.55
  -4  -8 -10   46.09    1.74
  -4  -8 -10   47.56    1.92
   4   8  10   44.09    2.55
  -5  -8 -10   44.04    2.13
  -5  -8 -10   43.07    1.81
   5   8  10   41.29    2.51
   5   8  10   38.08    2.65
   5   8  10   39.34    2.77
  -6  -8 -10   36.79    1.84
  -6  -8 -10   39.56    2.03
   6   8  10   35.92    2.74
   6   8  10   42.41    2.60
   6   8  10   33.72    2.69
  -7  -8 -10    3.44    0.78
  -7  -8 -10    6.55    1.06
   7   8  10    3.80    1.10
   7   8  10    5.16    1.35
   7   8  10    5.42    1.43
   5  -9 -10   29.96    2.28
   5  -9 -10   28.17    2.05
   5  -9 -10   27.75    2.21
  -5   9  10   27.82    1.86
  -5   9  10   28.05    2.57
   4  -9 -10    0.53    0.63
   4  -9 -10    2.53    0.67
   4  -9 -10    0.95    0.67
  -4   9  10    0.96    0.94
   3  -9 -10   57.08    2.72
   3  -9 -10   60.90    2.92
  -3   9  10   57.37    3.21
  -3   9  10   56.83    2.32
   2  -9 -10    0.89    0.45
   2  -9 -10    0.80    0.50
   2  -9 -10    1.77    0.57
   2  -9 -10    1.26    0.64
  -2   9  10    0.56    0.44
  -2   9  10    0.96    0.70
  -2   9  10    0.72    0.52
   1  -9 -10   80.45    2.81
   1  -9 -10   75.36    2.76
   1  -9 -10   78.55    3.15
  -1   9  10   74.07    2.65
  -1   9  10   76.03    3.39
   0  -9 -10   23.06    1.17
   0  -9 -10   19.72    1.25
   0  -9 -10   21.12    1.50
   0  -9 -10   21.95    1.15
   0   9  10   22.17    1.63
   0   9  10   24.17    1.86
   0   9  10   25.13    1.31
  -1  -9 -10  100.06    3.14
  -1  -9 -10  100.60    2.91
  -1  -9 -10   93.38    3.03
  -1  -9 -10   93.55    3.68
  -1  -9 -10   97.93    2.80
   1   9  10  100.57    3.67
   1   9  10   97.90    3.29
   1   9  10  103.25    4.10
  -2  -9 -10   43.03    1.67
  -2  -9 -10   39.97    1.32
  -2  -9 -10   40.87    2.20
  -2  -9 -10   40.86    1.67
  -2  -9 -10   39.56    1.28
   2   9  10   41.33    2.39
   2   9  10   42.20    2.06
  -3  -9 -10   56.36    1.63
  -3  -9 -10   52.47    2.71
  -3  -9 -10   55.98    2.03
   3   9  10   54.73    3.10
   3   9  10   58.40    2.88
  -4  -9 -10   66.63    2.37
  -4  -9 -10   62.62    3.03
  -4  -9 -10   64.21    2.09
  -4  -9 -10   63.71    1.99
   4   9  10   64.10    3.11
  -5  -9 -10   20.83    1.19
  -5  -9 -10   20.85    1.72
  -5  -9 -10   19.18    1.06
  -5  -9 -10   18.82    1.10
   5   9  10   19.74    1.71
   5   9  10   19.02    1.87
   5   9  10   25.08    2.16
  -6  -9 -10   53.81    2.29
  -6  -9 -10   60.02    2.41
  -6  -9 -10   57.75    1.77
  -6  -9 -10   59.87    2.51
   6   9  10   60.53    3.57
   6   9  10   62.38    3.54
   6   9  10   58.96    3.03
  -7  -9 -10    1.65    0.60
  -7  -9 -10    0.70    0.66
   7   9  10    1.01    0.95
   7   9  10    0.28    0.86
   7   9  10    1.78    1.15
   4 -10 -10    0.61    0.65
   4 -10 -10    1.00    0.70
   4 -10 -10   -0.18    0.61
  -4  10  10   -0.62    0.62
   3 -10 -10   57.62    2.78
   3 -10 -10   60.62    3.16
   3 -10 -10   55.92    2.93
  -3  10  10   57.82    2.53
  -3  10  10   57.09    3.35
   2 -10 -10   10.49    1.09
   2 -10 -10   13.12    1.56
   2 -10 -10    9.47    1.02
   2 -10 -10   10.71    1.27
  -2  10  10   10.17    1.52
   1 -10 -10   58.26    2.31
   1 -10 -10   66.10    2.96
   1 -10 -10   61.76    2.40
   1 -10 -10   64.08    2.71
  -1  10  10   60.15    3.16
  -1  10  10   61.04    2.49
   0 -10 -10   32.10    1.40
   0 -10 -10   35.85    1.92
   0 -10 -10   33.97    1.43
   0  10  10   33.62    2.18
   0  10  10   29.33    1.61
  -1 -10 -10   23.72    1.55
  -1 -10 -10   22.60    1.59
  -1 -10 -10   25.20    1.02
  -1 -10 -10   23.12    0.93
  -1 -10 -10   22.71    1.58
   1  10  10   24.93    1.45
   1  10  10   23.06    1.73
   1  10  10   21.92    3.17
  -2 -10 -10   85.54    3.36
  -2 -10 -10   83.91    3.10
  -2 -10 -10   75.00    2.83
  -2 -10 -10   81.95    2.89
   2  10  10   79.48    3.33
   2  10  10   79.92    3.10
   2  10  10   81.61    3.62
  -3 -10 -10    8.25    0.95
  -3 -10 -10    9.13    1.27
  -3 -10 -10    8.51    0.86
   3  10  10    7.65    1.25
   3  10  10    8.77    1.57
  -4 -10 -10   85.33    3.65
  -4 -10 -10   86.65    2.94
   4  10  10   83.31    3.65
   4  10  10   85.28    4.15
  -5 -10 -10    0.37    0.29
  -5 -10 -10    0.53    0.43
  -5 -10 -10    0.41    0.34
  -5 -10 -10   -0.05    0.64
   5  10  10    0.89    0.64
   5  10  10    0.71    0.65
   5  10  10   -0.23    0.74
  -6 -10 -10   68.25    2.89
  -6 -10 -10   71.75    2.49
  -6 -10 -10   65.21    2.36
   6  10  10   79.07    4.03
   6  10  10   69.58    3.89
   6  10  10   68.80    3.22
  -7 -10 -10    0.51    0.47
  -7 -10 -10    0.61    0.69
   7  10  10    2.51    1.13
   7  10  10    0.40    1.10
   7  10  10   -0.26    0.77
   3 -11 -10   27.21    1.89
   3 -11 -10   24.48    1.66
  -3  11  10   25.98    1.80
  -3  11  10   21.51    2.72
   2 -11 -10   28.44    1.79
   2 -11 -10   30.24    2.07
   2 -11 -10   28.84    1.80
  -2  11  10   29.36    1.84
  -2  11  10   28.82    2.39
   1 -11 -10   19.66    1.39
   1 -11 -10   19.38    1.30
   1 -11 -10   18.40    1.22
   1 -11 -10   19.57    1.63
  -1  11  10   21.68    1.50
  -1  11  10   19.74    1.90
   0 -11 -10   65.70    2.68
   0 -11 -10   61.09    2.13
   0 -11 -10   62.18    2.21
   0 -11 -10   67.31    2.95
   0  11  10   61.03    2.65
   0  11  10   63.64    3.22
  -1 -11 -10    5.96    1.12
  -1 -11 -10    6.22    0.95
   1  11  10    6.14    1.15
   1  11  10    8.02    1.06
  -2 -11 -10   82.09    3.15
  -2 -11 -10   83.63    3.21
  -2 -11 -10   81.37    3.29
   2  11  10   83.43    3.28
   2  11  10   86.16    3.62
  -3 -11 -10   -0.30    0.31
  -3 -11 -10    0.71    0.43
  -3 -11 -10    0.78    0.61
   3  11  10    0.25    0.62
   3  11  10    1.05    0.55
  -4 -11 -10   81.36    3.08
  -4 -11 -10   74.30    3.37
  -4 -11 -10   78.02    2.81
   4  11  10   75.45    3.88
   4  11  10   80.12    3.51
  -5 -11 -10    3.69    0.80
  -5 -11 -10    4.29    1.01
  -5 -11 -10    3.31    0.59
   5  11  10    4.44    1.23
   5  11  10    2.31    0.95
   5  11  10    3.50    0.89
  -6 -11 -10   37.68    1.37
  -6 -11 -10   37.48    2.16
  -6 -11 -10   36.90    2.43
   6  11  10   37.60    2.85
   6  11  10   41.08    2.35
   6  11  10   36.45    2.87
  -7 -11 -10    4.60    0.98
  -7 -11 -10    7.75    0.87
   7  11  10    9.02    1.48
   7  11  10    6.28    1.63
   7  11  10    5.90    1.68
   2 -12 -10   66.52    2.94
   2 -12 -10   66.78    2.72
  -2  12  10   63.42    3.03
   1 -12 -10    3.96    0.74
   1 -12 -10    3.86    0.71
   1 -12 -10    5.16    1.05
  -1  12  10    3.72    0.90
  -1  12  10    2.48    0.97
   0 -12 -10   82.58    3.52
   0 -12 -10   84.19    2.77
   0 -12 -10   85.03    2.69
   0 -12 -10   85.20    3.10
   0  12  10   81.93    4.01
   0  12  10   91.54    3.54
  -1 -12 -10   -0.46    0.47
  -1 -12 -10    0.18    0.48
   1  12  10   -0.13    0.66
   1  12  10    0.13    0.54
  -2 -12 -10   72.14    4.02
  -2 -12 -10   60.22    2.72
  -2 -12 -10   65.49    2.96
   2  12  10   69.08    3.01
   2  12  10   68.34    3.36
  -3 -12 -10   14.69    1.33
  -3 -12 -10   13.47    1.21
  -3 -12 -10   16.11    1.43
   3  12  10   14.51    1.41
  -4 -12 -10   43.74    2.30
  -4 -12 -10   44.82    2.03
  -4 -12 -10   46.47    2.51
  -5 -12 -10   19.79    1.62
  -5 -12 -10   18.84    1.77
   5  12  10   22.91    2.23
   5  12  10   15.73    2.00
  -6 -12 -10   19.61    2.06
   6  12  10   23.67    2.27
   6  12  10   19.60    2.33
   1 -13 -10    0.20    0.51
   1 -13 -10    0.19    0.53
  -1  13  10   -0.08    0.72
   0 -13 -10   44.41    1.94
   0 -13 -10   40.89    2.43
   0 -13 -10   43.67    1.83
   0  13  10   38.07    2.38
   0  13  10   38.22    2.79
  -1 -13 -10    6.94    0.92
  -1 -13 -10    6.89    1.11
   1  13  10    8.00    1.48
   1  13  10    7.51    1.22
  -2 -13 -10   45.63    2.36
  -2 -13 -10   45.59    2.59
  -2 -13 -10   37.76    1.97
   2  13  10   46.55    2.91
   2  13  10   45.06    2.51
  -3 -13 -10   15.41    1.33
  -3 -13 -10   14.05    1.61
   3  13  10   12.82    1.58
  -4 -13 -10   30.86    2.06
  -4 -13 -10   36.12    2.18
   4  13  10   30.41    2.20
  -5 -13 -10   17.12    1.90
  -5 -13 -10   18.76    1.72
  -6 -13 -10   18.65    1.72
  -6 -13 -10   20.09    2.10
   6  13  10   19.17    2.33
   6  13  10   16.66    2.11
   1  14  10   10.97    1.77
  -2 -14 -10   18.28    1.86
  -2 -14 -10   14.38    1.14
   2  14  10   12.96    1.82
   2  14  10   18.64    3.05
  -3 -14 -10   15.46    1.32
  -3 -14 -10   16.61    1.93
   3  14  10   13.97    2.61
  -4 -14 -10    8.51    1.30
  -4 -14 -10    9.71    1.25
   4  14  10    8.96    1.46
  -5 -14 -10   19.07    1.86
   4   3 -11   71.89    3.57
  -4  -3  11   63.89    3.40
  -4  -3  11   74.24    4.13
  -4  -3  11   72.34    2.99
   3   3 -11    0.37    0.68
  -3  -3  11    0.88    0.70
  -3  -3  11   -0.23    0.80
  -3  -3  11   -0.53    1.00
   2   3 -11   57.08    3.50
   2   3 -11   55.31    2.90
  -2  -3  11   54.18    2.87
  -2  -3  11   54.26    3.16
   1   3 -11    4.76    1.31
   1   3 -11    7.62    1.33
  -1  -3  11    8.03    2.42
  -1  -3  11    7.84    1.51
   0   3 -11   35.74    2.30
   0   3 -11   37.00    2.78
   0   3 -11   32.60    1.85
   0  -3  11   32.24    2.93
   0  -3  11   29.91    4.18
   5   2 -11    0.32    0.96
   5   2 -11    0.58    0.83
  -5  -2  11    2.46    1.24
  -5  -2  11    1.35    0.89
  -5  -2  11    0.93    0.90
   4   2 -11   42.94    2.78
   4   2 -11   46.85    3.18
  -4  -2  11   46.97    2.20
  -4  -2  11   46.79    2.77
  -4  -2  11   42.52    3.08
   3   2 -11    8.60    1.59
   3   2 -11    7.32    1.23
  -3  -2  11    6.86    1.36
  -3  -2  11    7.74    1.35
   2   2 -11   48.12    3.04
   2   2 -11   36.29    2.36
  -2  -2  11   35.83    2.52
  -2  -2  11   35.38    1.65
  -2  -2  11   36.60    2.78
   1   2 -11   21.57    2.12
   1   2 -11   21.93    1.81
  -1  -2  11   17.06    2.07
  -1  -2  11   20.22    1.17
  -1  -2  11   20.38    1.99
   0   2 -11   18.54    1.21
   0   2 -11   18.79    1.73
   0   2 -11   19.34    2.02
   0  -2  11   20.36    2.31
   0  -2  11   21.73    2.05
  -1   2 -11   32.88    2.57
  -1   2 -11   30.67    2.13
  -1   2 -11   29.89    1.78
   1  -2  11   30.09    2.34
   1  -2  11   27.00    2.39
   1  -2  11   31.94    2.80
  -2   2 -11   15.57    2.16
  -2   2 -11   13.88    1.68
  -2   2 -11   11.60    1.39
   2  -2  11   15.39    2.21
   2  -2  11   13.04    1.81
   2  -2  11   15.18    2.14
   5   1 -11   18.01    2.16
   5   1 -11   12.65    1.84
  -5  -1  11   16.72    1.46
  -5  -1  11   17.65    1.83
  -5  -1  11   23.87    2.34
   4   1 -11   41.99    2.61
   4   1 -11   39.04    2.86
  -4  -1  11   35.02    2.73
  -4  -1  11   38.83    1.90
  -4  -1  11   36.43    2.47
   3   1 -11   50.31    2.80
   3   1 -11   45.53    2.95
  -3  -1  11   42.66    1.82
  -3  -1  11   44.14    2.69
  -3  -1  11   43.94    2.80
   2   1 -11   25.83    1.98
   2   1 -11   19.32    2.00
  -2  -1  11   23.33    1.12
  -2  -1  11   22.72    1.98
  -2  -1  11   23.90    2.05
   1   1 -11   51.32    3.04
   1   1 -11   50.38    2.70
  -1  -1  11   45.41    2.80
  -1  -1  11   50.77    2.97
  -1  -1  11   50.26    1.71
   0   1 -11   10.23    1.38
   0   1 -11    9.44    1.15
   0   1 -11    9.45    1.47
   0  -1  11    9.76    1.55
   0  -1  11    9.04    1.42
  -1   1 -11   44.11    2.93
  -1   1 -11   43.38    2.48
  -1   1 -11   42.17    1.92
   1  -1  11   40.62    2.70
   1  -1  11   44.21    3.98
   1  -1  11   40.75    2.84
  -2   1 -11    1.30    0.75
  -2   1 -11    3.88    0.85
  -2   1 -11    1.32    0.82
   2  -1  11    2.90    1.03
   2  -1  11    1.15    0.96
   2  -1  11    1.05    0.84
  -3   1 -11   33.72    2.97
  -3   1 -11   29.30    2.01
  -3   1 -11   35.67    2.40
   3  -1  11   31.64    2.90
   3  -1  11   25.71    2.42
   3  -1  11   34.59    2.80
   6   0 -11   32.84    2.81
   6   0 -11   35.19    2.67
  -6   0  11   40.24    2.34
  -6   0  11   34.93    2.36
  -6   0  11   37.61    3.01
   5   0 -11   26.39    2.39
  -5   0  11   28.02    1.74
  -5   0  11   29.87    2.62
  -5   0  11   26.44    2.08
   4   0 -11   23.80    1.93
   4   0 -11   21.57    2.14
  -4   0  11   22.14    2.12
  -4   0  11   21.40    1.88
   3   0 -11   47.02    3.01
   3   0 -11   53.12    2.89
  -3   0  11   51.05    1.87
  -3   0  11   48.36    2.82
  -3   0  11   56.88    3.06
   2   0 -11   12.56    1.60
   2   0 -11   12.46    1.71
  -2   0  11   13.45    1.73
  -2   0  11    9.94    1.64
   1   0 -11   53.37    3.00
   1   0 -11   50.53    2.72
  -1   0  11   52.74    1.79
  -1   0  11   54.12    3.73
  -1   0  11   55.39    3.06
  -1   0  11   53.32    1.84
   0   0 -11    1.20    0.62
   0   0 -11    1.04    0.69
   0   0 -11    0.54    0.29
   0   0  11    1.68    0.78
   0   0  11    0.86    0.79
  -1   0 -11   35.86    1.64
  -1   0 -11   37.08    2.52
  -1   0 -11   37.38    2.31
   1   0  11   37.58    2.46
   1   0  11   37.62    2.46
   1   0  11   42.16    2.79
  -2   0 -11    1.04    0.56
  -2   0 -11    1.92    0.80
  -2   0 -11    0.43    0.73
   2   0  11    0.69    0.78
   2   0  11    1.34    0.84
  -3   0 -11   24.48    2.29
  -3   0 -11   24.02    2.06
  -3   0 -11   22.73    1.67
   3   0  11   25.25    2.70
   3   0  11   24.81    2.35
   3   0  11   21.49    2.11
  -4   0 -11    1.38    0.86
  -4   0 -11    1.71    1.10
  -4   0 -11    1.21    0.92
   4   0  11    2.24    1.19
   4   0  11    0.87    1.06
   6  -1 -11    9.75    1.66
  -6   1  11    8.40    1.82
  -6   1  11   10.31    1.56
  -6   1  11   11.65    1.45
   5  -1 -11   41.47    2.66
   5  -1 -11   37.58    2.76
  -5   1  11   41.14    2.07
  -5   1  11   37.92    2.69
  -5   1  11   35.77    2.44
  -5   1  11   39.27    2.44
   4  -1 -11    1.90    0.87
   4  -1 -11    0.73    0.77
  -4   1  11    3.36    0.84
  -4   1  11    1.36    0.50
  -4   1  11    1.12    0.85
   3  -1 -11   62.00    3.34
   3  -1 -11   62.74    3.17
  -3   1  11   61.67    2.61
  -3   1  11   59.65    3.16
  -3   1  11   60.19    2.01
   2  -1 -11    0.43    0.54
  -2   1  11    2.98    0.62
  -2   1  11    1.12    0.60
   1  -1 -11   56.48    2.89
   1  -1 -11   61.75    3.18
  -1   1  11   66.22    3.30
  -1   1  11   60.78    3.01
  -1   1  11   59.19    2.00
   0  -1 -11    1.00    0.59
   0  -1 -11    1.08    0.49
   0   1  11    0.76    0.63
   0   1  11    0.35    0.61
  -1  -1 -11   45.92    2.72
  -1  -1 -11   43.81    2.46
   1   1  11   42.76    2.45
   1   1  11   45.76    2.70
   1   1  11   44.21    2.74
  -2  -1 -11    2.00    0.58
  -2  -1 -11    1.84    0.80
  -2  -1 -11    1.83    0.83
   2   1  11    2.36    0.88
   2   1  11    1.07    0.73
   2   1  11    2.26    0.83
  -3  -1 -11   40.81    2.79
  -3  -1 -11   37.45    2.49
   3   1  11   31.70    2.46
   3   1  11   37.36    2.55
   3   1  11   40.96    2.82
  -4  -1 -11   19.02    2.13
  -4  -1 -11   16.45    2.10
   4   1  11   15.46    2.10
   4   1  11   17.48    2.27
   6  -2 -11    1.06    0.97
  -6   2  11    1.82    0.96
  -6   2  11    2.59    1.18
  -6   2  11    3.89    1.01
   5  -2 -11   46.10    2.88
   5  -2 -11   50.43    3.12
  -5   2  11   47.63    2.28
  -5   2  11   46.46    2.97
  -5   2  11   44.76    2.74
  -5   2  11   48.33    2.71
   4  -2 -11    0.88    0.83
   4  -2 -11    0.00    0.65
  -4   2  11    0.29    0.58
  -4   2  11    0.22    0.70
  -4   2  11    1.07    0.48
   3  -2 -11   55.83    2.91
   3  -2 -11   50.93    2.95
  -3   2  11   54.61    1.80
  -3   2  11   49.59    2.83
  -3   2  11   55.55    2.43
  -3   2  11   48.30    2.82
   2  -2 -11    3.41    1.03
   2  -2 -11    2.38    0.80
   2  -2 -11    4.06    0.86
  -2   2  11    3.54    0.96
  -2   2  11    3.49    0.86
   1  -2 -11   55.29    2.93
   1  -2 -11   60.67    3.44
   1  -2 -11   59.07    3.09
  -1   2  11   61.86    2.09
  -1   2  11   63.90    3.29
  -1   2  11   58.29    2.86
   0  -2 -11    4.23    1.47
   0  -2 -11    3.92    0.87
   0   2  11    3.95    0.84
   0   2  11    5.70    1.36
  -1  -2 -11   47.26    2.67
  -1  -2 -11   48.43    2.58
   1   2  11   49.50    2.89
   1   2  11   47.19    2.52
   1   2  11   52.54    2.85
  -2  -2 -11   13.54    1.61
  -2  -2 -11   11.74    1.66
  -2  -2 -11   13.40    1.44
   2   2  11   12.46    1.74
   2   2  11   13.71    1.45
   2   2  11   14.10    1.86
  -3  -2 -11   36.83    2.51
  -3  -2 -11   36.66    2.36
   3   2  11   37.10    2.61
   3   2  11   32.82    2.21
   3   2  11   33.26    2.52
  -4  -2 -11   19.88    2.14
  -4  -2 -11   17.45    2.15
   4   2  11   13.01    1.65
   4   2  11   20.35    2.04
   4   2  11   16.95    2.25
  -5  -2 -11   13.77    1.78
   5   2  11   13.73    1.99
   5   2  11   12.39    2.00
   6  -3 -11    0.37    0.86
  -6   3  11    0.21    0.76
  -6   3  11    0.45    0.78
  -6   3  11   -1.83    0.96
   5  -3 -11   24.82    2.06
  -5   3  11   28.17    2.15
  -5   3  11   25.99    2.16
  -5   3  11   29.59    2.13
  -5   3  11   30.36    1.83
   4  -3 -11    2.42    0.83
   4  -3 -11    3.50    0.95
  -4   3  11    2.15    0.76
  -4   3  11    3.07    1.20
  -4   3  11    4.81    1.16
  -4   3  11    3.36    0.66
   3  -3 -11   45.91    2.66
   3  -3 -11   40.65    2.65
   3  -3 -11   43.99    2.61
  -3   3  11   44.03    2.50
  -3   3  11   52.26    2.84
  -3   3  11   48.18    2.29
  -3   3  11   42.54    1.60
   2  -3 -11    7.47    1.22
   2  -3 -11   12.49    1.61
   2  -3 -11   11.31    1.49
  -2   3  11    8.89    1.14
  -2   3  11   11.89    1.67
  -2   3  11    9.72    0.96
   1  -3 -11   50.53    2.93
   1  -3 -11   49.40    2.96
   1  -3 -11   46.72    2.58
  -1   3  11   51.97    2.90
  -1   3  11   50.45    2.51
  -1   3  11   54.64    1.97
   0  -3 -11   39.23    2.25
   0  -3 -11   37.03    2.25
   0  -3 -11   32.17    2.08
   0   3  11   32.46    2.31
   0   3  11   35.34    1.34
  -1  -3 -11   50.83    1.68
  -1  -3 -11   54.87    3.93
  -1  -3 -11   52.07    2.65
   1   3  11   53.96    2.95
   1   3  11   61.04    4.62
   1   3  11   52.17    2.50
  -2  -3 -11   33.73    2.18
  -2  -3 -11   37.83    2.26
  -2  -3 -11   34.95    2.22
   2   3  11   33.61    1.97
   2   3  11   34.30    2.41
  -3  -3 -11   29.23    2.12
  -3  -3 -11   26.14    1.94
  -3  -3 -11   28.36    2.11
   3   3  11   23.31    1.77
   3   3  11   25.10    2.09
   3   3  11   22.80    2.03
  -4  -3 -11   35.37    2.43
  -4  -3 -11   31.48    2.34
   4   3  11   31.48    2.49
   4   3  11   32.32    2.59
  -5  -3 -11    6.08    1.33
  -5  -3 -11    6.46    1.38
   5   3  11    5.85    1.39
   5   3  11    8.08    1.67
   6  -4 -11    4.71    1.27
  -6   4  11    4.41    1.20
   5  -4 -11   43.33    2.70
   5  -4 -11   41.56    2.79
  -5   4  11   41.47    2.24
  -5   4  11   42.43    2.65
  -5   4  11   39.92    2.63
   4  -4 -11   12.19    1.57
   4  -4 -11   11.51    1.47
  -4   4  11   10.49    1.31
  -4   4  11   14.18    1.63
  -4   4  11   10.93    1.56
  -4   4  11   12.57    1.80
   3  -4 -11   46.01    2.64
   3  -4 -11   49.11    2.68
   3  -4 -11   44.29    1.70
   3  -4 -11   51.50    2.73
  -3   4  11   55.77    4.19
  -3   4  11   44.91    2.31
   2  -4 -11   24.11    1.85
   2  -4 -11   30.30    2.31
   2  -4 -11   26.86    2.03
  -2   4  11   29.81    2.15
  -2   4  11   25.77    3.03
  -2   4  11   30.01    1.68
   1  -4 -11   39.84    2.28
   1  -4 -11   41.04    2.33
   1  -4 -11   41.63    2.40
  -1   4  11   43.08    1.80
  -1   4  11   43.77    2.62
  -1   4  11   39.74    2.10
   0  -4 -11   44.37    2.40
   0  -4 -11   39.90    2.25
   0  -4 -11   41.68    2.26
   0   4  11   42.38    1.55
   0   4  11   42.59    2.61
  -1  -4 -11   19.48    1.50
  -1  -4 -11   15.03    1.46
  -1  -4 -11   15.11    1.39
  -1  -4 -11   16.06    0.79
   1   4  11   16.88    1.68
   1   4  11   18.59    1.68
  -2  -4 -11   58.64    2.87
  -2  -4 -11   67.86    3.25
  -2  -4 -11   59.13    3.37
   2   4  11   64.68    3.42
   2   4  11   69.52    3.98
  -3  -4 -11    5.73    1.11
  -3  -4 -11    3.67    0.88
  -3  -4 -11    6.24    1.13
   3   4  11    3.97    1.04
   3   4  11    5.83    1.25
  -4  -4 -11   68.81    3.35
  -4  -4 -11   65.59    3.34
   4   4  11   64.56    3.60
   4   4  11   66.32    3.55
  -5  -4 -11   -0.43    0.51
  -5  -4 -11   -0.12    0.68
   5   4  11   -0.24    0.77
   5   4  11   -0.76    0.70
  -6  -4 -11   36.10    2.73
   6   4  11   33.91    5.05
   6   4  11   35.93    2.70
   6  -5 -11    5.47    1.34
   6  -5 -11    3.98    1.37
  -6   5  11    2.59    1.18
  -6   5  11    4.58    1.07
   5  -5 -11   35.75    2.44
   5  -5 -11   36.65    2.47
  -5   5  11   36.65    2.50
  -5   5  11   38.11    2.25
  -5   5  11   36.42    2.78
   4  -5 -11   12.13    1.58
   4  -5 -11   10.75    1.55
  -4   5  11    8.53    1.38
  -4   5  11    9.27    1.33
   3  -5 -11   24.88    1.89
   3  -5 -11   24.86    1.28
   3  -5 -11   27.37    1.90
   3  -5 -11   24.27    1.89
  -3   5  11   26.31    2.03
  -3   5  11   27.99    1.89
  -3   5  11   28.24    1.80
   2  -5 -11   56.24    2.72
   2  -5 -11   54.37    2.75
  -2   5  11   54.74    2.98
  -2   5  11   55.05    2.46
   1  -5 -11   34.08    2.10
   1  -5 -11   32.24    1.94
  -1   5  11   31.80    1.71
  -1   5  11   28.55    2.14
  -1   5  11   29.11    1.54
   0  -5 -11   98.78    3.93
   0  -5 -11   92.41    3.58
   0  -5 -11   98.32    3.71
   0   5  11   95.18    3.47
   0   5  11  102.02    4.29
   0   5  11  103.09    3.08
  -1  -5 -11   17.95    1.39
  -1  -5 -11   17.40    0.89
  -1  -5 -11   13.84    1.38
  -1  -5 -11   16.90    1.52
   1   5  11   14.29    1.11
   1   5  11   17.31    1.73
   1   5  11   13.24    1.72
  -2  -5 -11  105.28    3.89
  -2  -5 -11  115.85    4.76
  -2  -5 -11  104.40    4.03
   2   5  11  104.11    3.48
   2   5  11  106.41    4.51
   2   5  11  105.68    4.55
  -3  -5 -11    0.60    0.57
  -3  -5 -11    1.25    0.60
  -3  -5 -11    0.12    0.43
   3   5  11    0.23    0.61
   3   5  11    0.09    0.53
   3   5  11    0.25    0.73
  -4  -5 -11   69.27    3.16
  -4  -5 -11   60.92    3.05
  -4  -5 -11   68.43    3.34
   4   5  11   72.76    3.64
   4   5  11   70.64    3.68
   4   5  11   62.59    2.80
  -5  -5 -11   12.94    1.60
  -5  -5 -11   10.35    1.48
   5   5  11   14.91    2.04
   5   5  11   10.49    1.77
  -6  -5 -11   33.05    2.36
   6   5  11   33.51    2.85
   6   5  11   36.06    2.64
   5  -6 -11   16.38    1.72
   5  -6 -11   14.62    1.73
  -5   6  11   12.52    1.74
   4  -6 -11   35.41    2.35
   4  -6 -11   32.47    2.27
  -4   6  11   34.17    2.28
  -4   6  11   33.55    2.31
   3  -6 -11    9.62    1.31
   3  -6 -11    8.42    1.13
   3  -6 -11    7.78    1.20
   3  -6 -11    8.58    0.92
  -3   6  11    9.24    1.43
  -3   6  11    7.39    1.22
  -3   6  11    8.82    1.14
   2  -6 -11   71.73    2.22
   2  -6 -11   76.32    3.20
  -2   6  11   73.70    3.96
  -2   6  11   70.26    2.83
  -2   6  11   79.74    3.18
   1  -6 -11   -0.16    0.47
   1  -6 -11    1.06    0.47
   1  -6 -11    0.26    0.37
  -1   6  11    0.08    0.39
  -1   6  11    0.19    0.50
  -1   6  11   -0.06    0.41
   0  -6 -11  128.93    4.36
   0  -6 -11  130.93    4.32
   0  -6 -11  134.03    4.79
   0   6  11  133.61    4.00
   0   6  11  134.29    5.12
   0   6  11  124.33    3.82
  -1  -6 -11    0.55    0.42
  -1  -6 -11    0.87    0.40
  -1  -6 -11    0.60    0.35
  -1  -6 -11    0.26    0.53
   1   6  11    0.75    0.62
   1   6  11    0.36    0.31
   1   6  11   -0.40    0.54
   1   6  11    0.39    0.35
  -2  -6 -11   70.90    2.83
  -2  -6 -11   75.57    3.32
  -2  -6 -11   65.54    2.73
   2   6  11   65.33    2.25
   2   6  11   69.12    3.59
   2   6  11   70.45    3.42
  -3  -6 -11   11.35    1.49
  -3  -6 -11   10.91    1.24
   3   6  11   10.06    0.86
   3   6  11    8.05    1.41
  -4  -6 -11   30.03    2.14
  -4  -6 -11   28.82    1.87
  -4  -6 -11   33.52    2.00
   4   6  11   32.37    2.44
   4   6  11   33.02    2.40
   4   6  11   30.63    1.53
  -5  -6 -11   35.58    2.46
  -5  -6 -11   34.74    2.19
   5   6  11   35.87    2.64
   5   6  11   30.72    2.43
  -6  -6 -11   14.15    1.76
  -6  -6 -11   14.57    1.57
   6   6  11   10.68    1.83
   6   6  11   15.46    1.95
   5  -7 -11    9.92    1.58
   5  -7 -11    9.02    1.45
   5  -7 -11   10.89    1.88
  -5   7  11    7.14    1.44
   4  -7 -11   52.31    2.81
   4  -7 -11   55.01    2.84
  -4   7  11   56.22    3.08
   3  -7 -11    1.80    0.65
   3  -7 -11    0.80    0.66
   3  -7 -11    0.45    0.67
  -3   7  11    2.12    0.79
  -3   7  11    2.03    0.93
   2  -7 -11   77.78    3.20
   2  -7 -11   75.31    3.13
   2  -7 -11   74.77    2.51
  -2   7  11   81.56    3.75
  -2   7  11   79.42    3.34
   1  -7 -11    7.63    0.53
   1  -7 -11    8.43    1.07
   1  -7 -11    7.53    0.97
   1  -7 -11    9.39    1.30
  -1   7  11    7.41    1.00
  -1   7  11    6.12    1.59
  -1   7  11    7.72    0.81
   0  -7 -11   86.64    3.13
   0  -7 -11   89.74    3.20
   0  -7 -11   92.91    3.68
   0   7  11   81.18    2.48
   0   7  11   88.61    3.16
   0   7  11   86.47    3.90
  -1  -7 -11   43.18    1.96
  -1  -7 -11   46.96    2.47
   1   7  11   42.69    1.83
   1   7  11   40.52    2.51
  -2  -7 -11   73.83    3.36
  -2  -7 -11   72.37    2.77
   2   7  11   73.51    4.25
   2   7  11   84.07    3.78
  -3  -7 -11   43.60    2.70
  -3  -7 -11   35.65    2.28
  -3  -7 -11   42.58    1.98
   3   7  11   40.97    2.64
   3   7  11   39.83    2.71
  -4  -7 -11   21.06    1.46
  -4  -7 -11   21.66    1.47
  -4  -7 -11   21.61    1.85
   4   7  11   22.67    2.05
   4   7  11   19.69    1.90
  -5  -7 -11   42.70    2.26
  -5  -7 -11   48.65    2.42
  -5  -7 -11   47.24    2.78
  -5  -7 -11   45.48    1.67
   5   7  11   50.58    3.02
   5   7  11   50.13    3.19
  -6  -7 -11    3.41    0.84
   6   7  11    3.32    1.03
   6   7  11    3.81    1.11
  -7  -7 -11   38.53    2.49
   7   7  11   38.85    3.09
   7   7  11   40.04    2.86
   5  -8 -11    0.66    0.80
   5  -8 -11    0.83    0.82
   5  -8 -11   -0.53    0.66
  -5   8  11   -0.72    1.50
   4  -8 -11   57.23    2.97
   4  -8 -11   52.54    2.84
   4  -8 -11   56.34    2.95
  -4   8  11   56.86    2.03
  -4   8  11   54.59    3.18
   3  -8 -11    1.93    0.69
   3  -8 -11    2.94    0.81
  -3   8  11    3.46    0.93
   2  -8 -11   66.79    3.53
   2  -8 -11   66.12    2.60
   2  -8 -11   62.87    2.75
   2  -8 -11   69.01    2.90
  -2   8  11   66.88    2.50
  -2   8  11   70.45    3.25
  -2   8  11   68.51    2.17
   1  -8 -11   18.39    1.05
   1  -8 -11   19.92    1.30
   1  -8 -11   18.92    1.58
  -1   8  11   20.48    1.22
  -1   8  11   19.47    1.53
  -1   8  11   19.26    1.82
   0  -8 -11   53.35    2.47
   0  -8 -11   48.96    1.57
   0  -8 -11   52.55    2.15
   0  -8 -11   48.73    2.56
   0   8  11   50.96    3.16
   0   8  11   53.41    2.41
  -1  -8 -11   67.82    3.03
  -1  -8 -11   60.43    2.30
   1   8  11   64.08    3.58
   1   8  11   60.45    2.49
  -2  -8 -11   27.95    1.41
  -2  -8 -11   28.37    1.97
   2   8  11   29.98    2.16
   2   8  11   28.45    1.46
  -3  -8 -11   81.84    3.07
  -3  -8 -11   83.86    2.86
  -3  -8 -11   85.77    2.87
   3   8  11   86.54    4.13
   3   8  11   89.59    4.07
  -4  -8 -11    3.33    0.69
  -4  -8 -11    2.88    0.50
  -4  -8 -11    5.71    0.72
  -4  -8 -11    3.81    1.02
   4   8  11    3.47    1.09
   4   8  11    4.05    1.30
  -5  -8 -11   54.39    2.55
  -5  -8 -11   63.49    2.64
  -5  -8 -11   56.91    3.13
  -5  -8 -11   61.48    2.20
   5   8  11   66.74    3.41
   5   8  11   64.65    3.59
  -6  -8 -11    2.01    0.66
   6   8  11    2.33    1.00
   6   8  11    2.36    0.95
  -7  -8 -11   35.74    3.33
  -7  -8 -11   30.40    1.83
   7   8  11   30.78    2.88
   7   8  11   27.94    2.43
   4  -9 -11   48.48    3.44
   4  -9 -11   49.88    2.69
   4  -9 -11   51.18    3.18
  -4   9  11   49.97    3.18
  -4   9  11   48.99    2.12
   3  -9 -11   25.35    1.88
   3  -9 -11   23.90    1.83
   3  -9 -11   25.91    1.85
  -3   9  11   24.57    2.18
  -3   9  11   24.43    1.37
   2  -9 -11   41.17    2.04
   2  -9 -11   40.12    2.09
   2  -9 -11   39.51    2.30
  -2   9  11   40.29    1.71
  -2   9  11   39.63    2.54
   1  -9 -11   57.21    2.32
   1  -9 -11   54.55    2.42
   1  -9 -11   49.65    2.10
   1  -9 -11   56.02    2.71
  -1   9  11   53.30    2.02
  -1   9  11   54.48    2.82
   0  -9 -11   18.65    1.12
   0  -9 -11   19.47    1.56
   0  -9 -11   17.97    1.13
   0  -9 -11   17.12    1.04
   0   9  11   16.48    1.47
   0   9  11   17.70    1.70
   0   9  11   17.38    1.10
  -1  -9 -11   72.03    2.46
  -1  -9 -11   73.14    2.25
  -1  -9 -11   77.87    3.27
  -1  -9 -11   70.08    2.24
  -1  -9 -11   73.45    2.40
   1   9  11   76.56    3.03
   1   9  11   70.10    3.48
  -2  -9 -11    1.64    0.38
  -2  -9 -11    1.30    0.32
  -2  -9 -11    1.16    0.33
  -2  -9 -11    0.98    0.30
  -2  -9 -11    0.22    0.53
   2   9  11    0.79    0.41
  -3  -9 -11   84.21    2.46
  -3  -9 -11   86.89    4.60
  -3  -9 -11   85.14    2.50
  -3  -9 -11   88.03    2.60
   3   9  11   78.73    4.04
  -4  -9 -11    0.42    0.61
  -4  -9 -11    0.15    0.62
  -4  -9 -11    0.03    0.31
  -4  -9 -11   -0.04    0.27
  -4  -9 -11    0.47    0.34
   4   9  11    0.54    0.73
   4   9  11   -0.60    0.70
  -5  -9 -11   48.89    1.99
  -5  -9 -11   45.62    1.86
  -5  -9 -11   46.50    2.76
  -5  -9 -11   48.03    2.05
   5   9  11   47.28    2.88
   5   9  11   51.92    3.29
  -6  -9 -11    3.23    0.62
  -6  -9 -11    3.73    0.76
  -6  -9 -11    2.38    0.60
   6   9  11    2.68    1.06
  -7  -9 -11   22.86    1.78
  -7  -9 -11   23.55    1.71
   7   9  11   26.31    2.55
   7   9  11   23.98    2.54
   7   9  11   22.62    2.22
   3 -10 -11   44.21    2.61
   3 -10 -11   43.72    2.41
   3 -10 -11   43.98    2.39
  -3  10  11   44.55    2.94
   2 -10 -11   16.46    1.79
   2 -10 -11   17.25    1.38
   2 -10 -11   14.90    1.55
  -2  10  11   14.44    1.20
  -2  10  11   11.03    1.52
   1 -10 -11   78.12    2.80
   1 -10 -11   73.17    2.98
   1 -10 -11   66.00    3.14
   1 -10 -11   71.07    3.12
  -1  10  11   68.47    2.62
  -1  10  11   72.54    3.46
   0 -10 -11    1.52    0.43
   0 -10 -11    1.43    0.49
   0 -10 -11    2.13    0.65
   0 -10 -11    1.48    0.61
   0  10  11    0.95    0.50
   0  10  11    1.91    0.79
  -1 -10 -11   84.00    2.82
  -1 -10 -11   81.02    2.42
  -1 -10 -11   78.36    2.74
  -1 -10 -11   84.11    3.46
  -1 -10 -11   79.93    2.51
   1  10  11   85.81    3.90
   1  10  11   86.34    3.50
   1  10  11   83.20    2.99
  -2 -10 -11    0.39    0.47
  -2 -10 -11    0.27    0.51
  -2 -10 -11    0.44    0.30
   2  10  11    0.48    0.62
   2  10  11   -0.35    0.47
  -3 -10 -11   41.12    2.13
  -3 -10 -11   39.67    2.43
  -3 -10 -11   42.42    1.70
   3  10  11   40.19    2.56
   3  10  11   41.49    2.76
  -4 -10 -11    7.78    1.26
  -4 -10 -11    6.85    0.86
  -4 -10 -11    5.12    0.71
   4  10  11    6.00    1.32
   4  10  11    6.27    1.23
  -5 -10 -11   28.39    2.17
  -5 -10 -11   26.13    1.20
  -5 -10 -11   25.25    1.36
   5  10  11   22.27    2.28
   5  10  11   25.50    2.05
  -6 -10 -11   11.69    1.55
  -6 -10 -11    8.27    1.02
  -6 -10 -11    9.99    1.00
  -6 -10 -11    9.13    0.94
   6  10  11   10.12    1.77
   6  10  11   10.07    1.54
  -7 -10 -11   13.82    1.27
  -7 -10 -11   13.65    1.43
   7  10  11    8.87    1.55
   7  10  11   11.97    1.90
   7  10  11   13.25    2.16
   3 -11 -11   23.23    2.06
   3 -11 -11   27.52    1.89
   3 -11 -11   27.59    1.92
  -3  11  11   17.11    3.24
  -3  11  11   26.27    1.72
   2 -11 -11   -0.48    0.44
   2 -11 -11    0.79    0.65
   2 -11 -11   -0.11    0.58
  -2  11  11   -0.31    0.87
  -2  11  11    0.78    0.62
   1 -11 -11   39.26    2.33
   1 -11 -11   34.64    2.06
   1 -11 -11   35.57    1.79
   1 -11 -11   33.42    1.69
  -1  11  11   36.77    2.56
  -1  11  11   38.39    2.18
   0 -11 -11    2.14    0.79
   0 -11 -11    3.01    0.73
   0 -11 -11    3.58    0.56
   0 -11 -11    2.69    0.53
   0  11  11    4.06    1.00
   0  11  11    2.87    0.70
  -1 -11 -11   37.14    1.87
  -1 -11 -11   36.80    2.11
  -1 -11 -11   36.90    2.11
   1  11  11   33.46    2.26
  -2 -11 -11   12.01    1.44
  -2 -11 -11   12.37    1.37
   2  11  11   13.35    1.59
   2  11  11   11.13    1.28
   2  11  11    8.27    1.36
  -3 -11 -11   35.77    2.24
  -3 -11 -11   34.34    1.90
   3  11  11   36.34    2.44
  -4 -11 -11   16.86    1.89
  -4 -11 -11   15.27    1.20
  -4 -11 -11   14.16    1.15
   4  11  11   15.72    2.10
   4  11  11   17.20    1.66
  -5 -11 -11   19.76    1.38
  -5 -11 -11   18.10    1.19
  -5 -11 -11   19.84    1.82
   5  11  11   20.24    1.86
   5  11  11   18.52    2.29
  -6 -11 -11   13.48    1.41
  -6 -11 -11   15.97    1.90
   6  11  11   18.29    2.04
   6  11  11   19.04    2.38
   2 -12 -11    3.74    0.92
   2 -12 -11    4.01    1.13
   2 -12 -11    5.42    0.96
  -2  12  11    1.70    0.87
   1 -12 -11   35.41    1.97
   1 -12 -11   32.21    1.72
   1 -12 -11   34.49    2.27
  -1  12  11   26.04    2.32
  -1  12  11   33.31    2.00
   0 -12 -11   17.25    1.54
   0 -12 -11   16.22    1.02
   0 -12 -11   16.22    1.43
   0  12  11   15.93    2.01
   0  12  11   16.72    1.41
  -1 -12 -11   29.15    1.85
  -1 -12 -11   30.54    1.88
  -1 -12 -11   33.03    2.03
   1  12  11   28.31    2.21
   1  12  11   24.98    1.69
  -2 -12 -11   29.40    1.86
  -2 -12 -11   27.33    1.74
  -2 -12 -11   31.39    1.97
   2  12  11   31.83    1.94
   2  12  11   30.38    2.25
  -3 -12 -11   22.47    1.59
  -3 -12 -11   22.54    1.76
  -3 -12 -11   22.32    1.51
  -4 -12 -11   30.88    1.82
  -4 -12 -11   25.01    1.98
  -4 -12 -11   26.87    1.59
   4  12  11   28.47    2.13
  -5 -12 -11    9.78    1.21
  -5 -12 -11    8.48    1.33
   5  12  11    4.69    1.40
   5  12  11    6.23    1.18
  -6 -12 -11   27.52    2.23
  -6 -12 -11   28.67    1.97
   6  12  11   30.63    2.62
   6  12  11   26.43    2.16
   0 -13 -11   10.85    0.90
   0 -13 -11   10.96    1.23
   0 -13 -11   10.15    0.83
   0 -13 -11    9.59    1.30
   0  13  11   10.94    1.39
   0  13  11    9.95    1.56
  -1 -13 -11   18.07    1.58
  -1 -13 -11   16.93    1.60
  -1 -13 -11   19.57    1.47
   1  13  11   14.45    1.64
   1  13  11   18.86    2.15
  -2 -13 -11   17.30    1.48
  -2 -13 -11   15.16    1.43
  -2 -13 -11   16.03    1.51
   2  13  11   13.36    1.78
   2  13  11   16.40    1.50
  -3 -13 -11    9.79    1.20
  -3 -13 -11    6.36    1.02
  -3 -13 -11    6.82    1.16
   3  13  11    5.71    1.07
  -4 -13 -11   33.85    2.07
  -4 -13 -11   38.28    2.36
  -5 -13 -11    6.25    1.11
  -5 -13 -11    7.01    1.24
  -2 -14 -11   25.23    1.99
  -2 -14 -11   23.77    1.67
   2  14  11   21.28    2.35
   2  14  11   22.80    2.24
  -3 -14 -11    1.88    0.83
  -3 -14 -11    1.92    0.86
   3  14  11    0.64    1.24
  -4 -14 -11   35.34    2.28
  -4 -14 -11   34.52    2.28
   2   2 -12   17.66    1.95
   2   2 -12   18.19    2.25
  -2  -2  12   19.15    2.27
  -2  -2  12   15.49    2.07
   1   2 -12    1.78    1.11
   1   2 -12    3.97    1.08
  -1  -2  12    3.20    1.21
  -1  -2  12    1.38    1.39
   4   1 -12   25.13    2.51
   4   1 -12   27.66    2.30
  -4  -1  12   22.79    2.12
  -4  -1  12   24.73    2.54
   3   1 -12    3.02    1.09
   3   1 -12    2.36    0.97
  -3  -1  12    4.44    1.18
  -3  -1  12    5.00    1.46
   2   1 -12   37.28    2.73
   2   1 -12   32.62    2.32
  -2  -1  12   31.83    2.61
  -2  -1  12   32.52    2.45
   1   1 -12    0.26    0.71
   1   1 -12   -0.12    0.76
  -1  -1  12    0.62    0.74
  -1  -1  12    0.83    0.95
   0   1 -12   30.02    2.55
   0   1 -12   33.65    2.27
   0  -1  12   30.51    2.54
   0  -1  12   35.84    2.64
  -1   1 -12    1.47    0.84
  -1   1 -12   -0.13    1.00
   1  -1  12    1.64    0.99
   1  -1  12   -1.04    1.15
   1  -1  12   -0.16    0.95
   5   0 -12   -0.03    0.90
   5   0 -12    2.60    1.06
  -5   0  12    2.48    1.03
  -5   0  12    0.11    1.32
  -5   0  12    1.54    1.03
   4   0 -12   47.88    2.98
   4   0 -12   44.29    3.05
  -4   0  12   42.73    2.81
  -4   0  12   46.45    3.58
  -4   0  12   42.27    3.05
   3   0 -12    1.32    0.84
   3   0 -12    2.57    1.14
  -3   0  12    1.70    1.00
  -3   0  12    0.60    1.07
  -3   0  12    0.74    0.73
   2   0 -12   51.27    2.84
   2   0 -12   45.68    2.93
  -2   0  12   41.22    2.79
  -2   0  12   49.80    2.74
  -2   0  12   46.82    2.91
   1   0 -12    0.56    0.75
   1   0 -12   -0.77    0.55
  -1   0  12    0.22    0.65
  -1   0  12   -0.53    0.81
   0   0 -12   48.13    3.00
   0   0 -12   52.54    2.83
   0   0  12   49.11    3.03
   0   0  12   46.23    2.85
  -1   0 -12    6.88    1.39
  -1   0 -12    5.60    0.71
  -1   0 -12    6.15    1.19
   1   0  12    4.94    1.18
   1   0  12    8.12    1.59
   1   0  12    7.02    1.38
  -2   0 -12   33.87    2.41
  -2   0 -12   31.13    2.60
  -2   0 -12   28.37    2.29
   2   0  12   37.11    2.57
   2   0  12   33.72    3.33
   5  -1 -12    0.66    0.96
   5  -1 -12   -0.47    1.57
  -5   1  12   -0.55    0.80
  -5   1  12   -0.24    0.83
  -5   1  12   -1.82    1.09
   4  -1 -12   37.79    2.63
   4  -1 -12   39.01    2.79
  -4   1  12   34.40    2.46
  -4   1  12   37.00    2.70
  -4   1  12   36.91    2.28
   3  -1 -12    1.76    0.81
   3  -1 -12    0.87    0.75
  -3   1  12    0.48    0.67
  -3   1  12    1.06    0.86
   2  -1 -12   38.34    2.42
  -2   1  12   34.36    2.43
  -2   1  12   35.38    2.09
  -2   1  12   34.13    2.42
   1  -1 -12    8.98    1.42
   1  -1 -12    9.78    1.53
  -1   1  12    9.55    1.45
  -1   1  12    6.13    1.34
  -1   1  12    6.85    0.61
   0  -1 -12   36.12    2.49
   0  -1 -12   31.70    2.20
   0   1  12   36.80    2.58
   0   1  12   29.98    2.23
  -1  -1 -12   20.49    1.97
  -1  -1 -12   20.12    1.78
   1   1  12   19.86    1.96
   1   1  12   24.09    2.08
   1   1  12   17.10    1.82
  -2  -1 -12   30.88    2.41
  -2  -1 -12   31.15    2.27
  -2  -1 -12   29.53    1.62
   2   1  12   26.45    2.30
   2   1  12   27.88    2.33
   2   1  12   30.54    2.53
  -3  -1 -12   28.32    2.72
  -3  -1 -12   29.01    2.32
  -3  -1 -12   30.56    1.86
   3   1  12   27.25    2.47
   3   1  12   24.33    4.21
   5  -2 -12    2.23    1.07
  -5   2  12    0.52    0.66
  -5   2  12   -0.76    1.06
  -5   2  12    2.59    0.93
  -5   2  12    1.49    0.92
   4  -2 -12   36.06    2.72
   4  -2 -12   39.93    2.62
  -4   2  12   38.22    2.60
  -4   2  12   39.82    1.67
  -4   2  12   42.13    2.70
   3  -2 -12   11.09    1.52
   3  -2 -12   11.53    1.67
  -3   2  12   12.59    1.74
  -3   2  12   11.85    1.31
  -3   2  12   13.36    1.70
   2  -2 -12   55.41    2.98
   2  -2 -12   54.51    3.09
  -2   2  12   53.46    2.27
  -2   2  12   57.17    3.21
  -2   2  12   53.45    2.91
   1  -2 -12   20.27    1.85
   1  -2 -12   17.02    1.61
  -1   2  12   22.86    1.98
  -1   2  12   19.63    1.01
  -1   2  12   20.13    1.76
   0  -2 -12   28.10    1.99
   0  -2 -12   31.30    2.14
   0   2  12   24.53    2.15
   0   2  12   29.35    2.00
  -1  -2 -12   39.33    2.69
  -1  -2 -12   35.03    1.30
  -1  -2 -12   33.48    2.38
   1   2  12   35.70    2.60
   1   2  12   38.90    2.35
   1   2  12   38.94    2.57
  -2  -2 -12   10.46    1.55
  -2  -2 -12    7.56    1.33
  -2  -2 -12    8.38    0.91
   2   2  12    9.49    1.47
   2   2  12    9.77    1.53
   2   2  12    8.54    1.65
  -3  -2 -12   45.53    2.87
  -3  -2 -12   51.43    3.06
   3   2  12   46.90    3.11
   3   2  12   52.72    3.23
  -4  -2 -12    0.77    0.92
  -4  -2 -12    0.92    0.88
   4   2  12    0.35    0.90
   4   2  12    1.41    0.96
   5  -3 -12   10.68    1.89
   5  -3 -12    8.47    1.54
  -5   3  12   10.49    1.48
  -5   3  12    9.45    1.12
  -5   3  12    6.28    1.25
   4  -3 -12   34.63    2.50
   4  -3 -12   32.40    2.51
  -4   3  12   34.53    2.54
  -4   3  12   36.12    2.60
  -4   3  12   36.48    2.57
  -4   3  12   37.63    1.65
   3  -3 -12   20.77    1.91
   3  -3 -12   25.69    2.10
  -3   3  12   25.55    2.13
  -3   3  12   16.65    1.77
  -3   3  12   28.28    1.75
   2  -3 -12   31.23    2.23
   2  -3 -12   29.81    2.11
  -2   3  12   30.07    2.06
  -2   3  12   32.08    1.65
  -2   3  12   29.19    2.28
   1  -3 -12   48.75    2.71
   1  -3 -12   49.42    2.71
  -1   3  12   50.64    1.88
  -1   3  12   51.20    3.02
   0  -3 -12   13.35    1.48
   0  -3 -12   11.73    1.58
   0  -3 -12   10.64    1.41
   0   3  12   15.18    1.97
   0   3  12   12.26    1.36
  -1  -3 -12   61.67    1.79
  -1  -3 -12   68.45    3.21
  -1  -3 -12   69.38    3.25
   1   3  12   64.60    3.43
   1   3  12   62.43    3.21
   1   3  12   62.75    3.41
  -2  -3 -12    0.40    0.57
  -2  -3 -12   -1.05    0.61
   2   3  12   -1.02    0.62
   2   3  12    0.12    0.61
  -3  -3 -12   72.90    3.59
  -3  -3 -12   68.00    3.50
   3   3  12   70.00    3.81
   3   3  12   69.25    3.79
  -4  -3 -12    3.67    1.06
   4   3  12    3.95    1.25
   4   3  12    1.80    1.03
   5  -4 -12   25.26    2.38
   5  -4 -12   35.16    2.88
  -5   4  12   30.72    2.31
  -5   4  12   34.86    1.94
   4  -4 -12    8.29    1.48
   4  -4 -12    9.70    1.58
  -4   4  12   12.77    1.47
  -4   4  12   10.82    1.64
  -4   4  12    9.85    1.59
   3  -4 -12   84.08    3.81
   3  -4 -12   74.17    3.66
  -3   4  12   76.30    3.80
  -3   4  12   75.18    3.72
  -3   4  12   78.90    3.21
   2  -4 -12    6.85    1.13
   2  -4 -12    4.91    1.16
   2  -4 -12    7.28    1.24
  -2   4  12    6.58    1.30
  -2   4  12    7.43    0.98
  -2   4  12    5.41    1.02
   1  -4 -12   95.19    4.01
   1  -4 -12  103.17    4.19
   1  -4 -12  110.51    4.28
  -1   4  12  103.04    3.23
  -1   4  12   99.81    3.83
  -1   4  12   96.67    4.42
   0  -4 -12    0.67    0.57
   0  -4 -12   -0.07    0.46
   0  -4 -12    0.96    0.72
   0   4  12   -0.01    0.28
   0   4  12    0.17    0.73
   0   4  12    0.08    0.51
  -1  -4 -12   81.16    3.56
  -1  -4 -12   81.98    3.58
  -1  -4 -12   88.19    3.74
   1   4  12   80.89    3.77
   1   4  12   90.00    4.17
   1   4  12   91.41    4.17
  -2  -4 -12    3.65    1.02
  -2  -4 -12    5.45    0.95
  -2  -4 -12    5.98    1.02
   2   4  12    4.72    1.13
   2   4  12    5.34    1.26
  -3  -4 -12   50.36    2.93
  -3  -4 -12   43.54    2.65
   3   4  12   46.27    3.02
   3   4  12   49.81    3.08
  -4  -4 -12   17.46    1.73
  -4  -4 -12   14.25    1.84
   4   4  12   13.92    2.08
  -5  -4 -12   17.47    2.26
   5   4  12   18.13    2.19
   5  -5 -12   61.74    5.18
   5  -5 -12   51.27    3.67
  -5   5  12   52.05    3.03
   4  -5 -12    6.45    1.14
   4  -5 -12    5.77    1.19
  -4   5  12    6.54    1.21
  -4   5  12    4.79    1.17
   3  -5 -12   87.80    3.99
   3  -5 -12   90.62    4.01
  -3   5  12   90.69    3.72
  -3   5  12   94.17    3.68
  -3   5  12   86.48    4.16
   2  -5 -12    1.16    0.59
   2  -5 -12    2.97    0.89
   2  -5 -12    2.95    0.98
  -2   5  12    2.06    0.87
  -2   5  12    0.52    0.59
  -2   5  12    1.36    0.60
   1  -5 -12   85.44    3.69
   1  -5 -12   77.44    3.41
   1  -5 -12   79.19    3.47
  -1   5  12   77.60    4.43
  -1   5  12   78.31    3.81
   0  -5 -12    5.99    1.06
   0  -5 -12    6.49    1.09
   0  -5 -12    6.10    1.16
   0   5  12    7.78    1.41
   0   5  12    8.69    1.10
   0   5  12    7.50    0.68
  -1  -5 -12   71.37    3.16
  -1  -5 -12   70.09    3.11
  -1  -5 -12   67.89    3.28
   1   5  12   70.28    3.66
   1   5  12   67.06    2.76
   1   5  12   79.43    3.82
  -2  -5 -12   33.25    2.09
  -2  -5 -12   32.51    2.04
  -2  -5 -12   33.18    2.25
   2   5  12   29.08    1.76
   2   5  12   30.63    2.41
   2   5  12   30.73    2.39
  -3  -5 -12   50.97    2.93
  -3  -5 -12   49.79    2.66
   3   5  12   46.87    2.96
   3   5  12   49.67    3.13
  -4  -5 -12   43.23    2.62
  -4  -5 -12   48.57    2.96
   4   5  12   43.18    3.04
   4   5  12   45.58    2.96
  -5  -5 -12   19.46    2.17
  -5  -5 -12   16.69    1.75
   5   5  12   22.35    2.25
   5   5  12   22.61    2.26
   5  -6 -12   56.69    3.25
  -5   6  12   49.43    3.07
   4  -6 -12    0.63    0.63
   4  -6 -12   -0.38    0.60
  -4   6  12    0.34    0.78
   3  -6 -12   67.38    3.39
   3  -6 -12   63.79    3.16
  -3   6  12   65.00    3.12
  -3   6  12   70.13    3.63
   2  -6 -12   13.34    1.36
   2  -6 -12   14.30    1.72
   2  -6 -12   13.96    1.49
  -2   6  12   11.92    1.36
  -2   6  12   13.22    1.75
  -2   6  12   12.57    1.34
   1  -6 -12   69.86    3.11
   1  -6 -12   65.53    3.17
   1  -6 -12   62.99    2.97
  -1   6  12   71.26    2.71
  -1   6  12   64.37    2.75
  -1   6  12   67.78    3.55
   0  -6 -12   29.00    2.00
   0  -6 -12   28.98    1.86
   0  -6 -12   26.68    1.80
   0   6  12   26.21    2.14
   0   6  12   25.13    1.40
   0   6  12   27.46    1.58
  -1  -6 -12   28.75    1.80
  -1  -6 -12   30.43    1.82
  -1  -6 -12   24.94    1.01
  -1  -6 -12   28.39    2.02
   1   6  12   28.82    2.30
   1   6  12   26.56    1.17
   1   6  12   24.45    1.43
  -2  -6 -12   54.76    2.61
  -2  -6 -12   57.20    2.96
  -2  -6 -12   58.64    2.66
   2   6  12   56.43    3.20
   2   6  12   56.01    2.17
   2   6  12   61.22    3.40
  -3  -6 -12   12.35    1.46
  -3  -6 -12   13.38    1.60
  -3  -6 -12   13.67    1.30
   3   6  12   12.35    1.84
   3   6  12   16.40    2.00
  -4  -6 -12   37.27    2.54
  -4  -6 -12   43.79    2.44
   4   6  12   42.20    2.90
   4   6  12   41.85    2.88
  -5  -6 -12    3.13    0.99
  -5  -6 -12    1.09    0.71
   5   6  12    2.03    0.93
   5   6  12    2.52    1.16
  -6  -6 -12   23.31    2.28
  -6  -6 -12   20.31    2.01
   6   6  12   21.03    2.24
   6   6  12   16.81    2.36
   4  -7 -12   12.09    1.68
   4  -7 -12   10.88    1.58
  -4   7  12    9.84    1.54
   3  -7 -12   51.60    2.74
   3  -7 -12   46.65    2.73
  -3   7  12   46.11    2.69
  -3   7  12   47.51    2.99
   2  -7 -12   41.82    2.32
   2  -7 -12   34.19    2.44
   2  -7 -12   40.50    2.48
  -2   7  12   35.95    2.17
  -2   7  12   43.44    2.77
   1  -7 -12   38.73    2.15
   1  -7 -12   38.50    2.15
   1  -7 -12   40.83    2.44
  -1   7  12   38.86    1.82
  -1   7  12   38.27    2.02
  -1   7  12   40.09    2.66
   0  -7 -12   63.42    3.06
   0  -7 -12   59.36    2.64
   0  -7 -12   60.11    2.59
   0   7  12   62.45    2.42
   0   7  12   59.65    3.25
   0   7  12   53.68    2.10
  -1  -7 -12   15.28    1.80
  -1  -7 -12   11.22    1.09
   1   7  12   11.39    0.91
   1   7  12   11.48    1.71
  -2  -7 -12   47.04    2.64
  -2  -7 -12   46.52    2.23
  -2  -7 -12   46.81    2.20
   2   7  12   47.79    2.88
   2   7  12   47.27    3.03
  -3  -7 -12    1.43    0.54
  -3  -7 -12    1.16    0.70
  -3  -7 -12    0.34    0.52
   3   7  12   -0.34    1.06
   3   7  12    0.98    0.74
  -4  -7 -12   38.29    2.45
  -4  -7 -12   48.00    2.38
  -4  -7 -12   51.99    2.97
   4   7  12   39.19    2.83
   4   7  12   46.03    2.95
  -5  -7 -12    2.20    0.78
  -5  -7 -12    0.83    0.56
   5   7  12    2.86    1.03
   5   7  12    0.41    0.86
  -6  -7 -12   24.18    2.30
  -6  -7 -12   28.88    2.89
   6   7  12   29.35    2.61
   6   7  12   34.90    2.92
   4  -8 -12   28.84    2.21
  -4   8  12   31.50    2.42
   3  -8 -12   12.22    1.54
   3  -8 -12   13.16    1.63
  -3   8  12   13.62    1.71
   2  -8 -12   49.66    2.52
   2  -8 -12   48.09    2.72
  -2   8  12   50.35    3.05
   1  -8 -12    5.54    0.95
   1  -8 -12    5.30    0.86
   1  -8 -12    3.71    0.88
  -1   8  12    4.35    0.92
  -1   8  12    2.67    0.89
   0  -8 -12   70.00    2.80
   0  -8 -12   72.37    2.87
   0  -8 -12   70.05    3.30
   0   8  12   71.76    3.67
   0   8  12   73.95    2.90
  -1  -8 -12    2.48    0.60
  -1  -8 -12    3.11    0.80
  -1  -8 -12    3.13    0.61
   1   8  12    1.68    0.82
   1   8  12    2.71    0.63
  -2  -8 -12   52.44    2.66
  -2  -8 -12   53.54    2.80
  -2  -8 -12   48.41    2.16
   2   8  12   50.10    3.09
   2   8  12   55.56    3.15
  -3  -8 -12    1.00    0.50
  -3  -8 -12    0.35    0.39
  -3  -8 -12   -0.30    0.58
   3   8  12   -0.81    0.58
   3   8  12    0.77    0.58
  -4  -8 -12   36.87    1.91
  -4  -8 -12   38.13    2.52
   4   8  12   37.79    2.69
   4   8  12   36.08    2.69
  -5  -8 -12    7.23    1.32
  -5  -8 -12    8.13    1.06
   5   8  12    6.88    1.37
   5   8  12    5.30    1.32
  -6  -8 -12   19.44    2.67
  -6  -8 -12   20.11    1.71
   6   8  12   25.68    2.32
   6   8  12   20.22    2.58
   4  -9 -12   27.31    2.08
   4  -9 -12   23.97    2.08
   4  -9 -12   29.32    2.22
  -4   9  12   31.79    3.40
   3  -9 -12    2.73    0.82
   3  -9 -12    2.15    0.82
   3  -9 -12    1.10    0.83
  -3   9  12    2.23    1.03
   2  -9 -12   54.30    2.88
   2  -9 -12   52.14    2.51
  -2   9  12   50.28    1.77
  -2   9  12   49.01    2.77
   1  -9 -12   -0.11    0.36
   1  -9 -12    0.82    0.64
   1  -9 -12    0.38    0.48
  -1   9  12    1.20    0.74
  -1   9  12   -0.17    0.61
   0  -9 -12   59.43    2.34
   0  -9 -12   52.58    2.81
   0  -9 -12   57.74    2.96
   0  -9 -12   51.09    2.04
   0   9  12   51.92    3.08
   0   9  12   55.77    2.61
  -1  -9 -12    6.07    0.98
  -1  -9 -12    5.19    1.04
  -1  -9 -12    7.05    0.81
   1   9  12    4.31    0.78
   1   9  12    4.56    1.02
  -2  -9 -12   50.19    2.72
  -2  -9 -12   45.81    2.13
  -2  -9 -12   46.47    1.94
   2   9  12   51.14    3.02
   2   9  12   51.50    2.20
  -3  -9 -12    6.65    0.79
  -3  -9 -12    6.34    1.23
  -3  -9 -12    6.47    0.77
   3   9  12    6.16    1.32
   3   9  12    3.65    1.21
  -4  -9 -12   23.55    1.35
  -4  -9 -12   25.50    2.04
  -4  -9 -12   26.88    1.43
   4   9  12   27.27    2.26
   4   9  12   23.78    2.22
  -5  -9 -12   15.17    1.91
  -5  -9 -12   13.04    1.17
   5   9  12   13.41    1.89
   5   9  12   16.11    2.03
  -6  -9 -12   19.88    1.53
   6   9  12   14.45    2.39
   6   9  12   20.96    2.09
   3 -10 -12   -0.33    0.73
   3 -10 -12    0.13    0.65
  -3  10  12    0.45    0.88
   2 -10 -12   44.92    2.31
   2 -10 -12   42.97    2.51
   2 -10 -12   44.39    2.65
  -2  10  12   43.93    1.89
  -2  10  12   48.04    2.87
   1 -10 -12    2.99    0.60
   1 -10 -12    3.54    0.96
  -1  10  12    2.22    0.93
  -1  10  12    2.18    0.53
   0 -10 -12   47.63    2.00
   0 -10 -12   47.83    2.06
   0 -10 -12   50.12    1.99
   0 -10 -12   49.60    2.68
   0  10  12   47.04    2.60
   0  10  12   47.70    2.91
  -1 -10 -12   14.83    1.68
  -1 -10 -12   11.05    0.73
  -1 -10 -12   11.32    0.89
   1  10  12    9.76    1.29
   1  10  12   12.77    1.77
  -2 -10 -12   31.69    1.23
  -2 -10 -12   33.83    2.17
   2  10  12   30.80    2.36
   2  10  12   35.14    2.00
  -3 -10 -12   20.96    0.90
  -3 -10 -12   20.43    0.88
  -3 -10 -12   19.72    1.83
   3  10  12   19.02    2.37
   3  10  12   22.38    2.06
  -4 -10 -12   28.54    1.17
  -4 -10 -12   28.06    2.14
  -4 -10 -12   28.36    1.17
   4  10  12   32.44    2.42
   4  10  12   29.18    3.99
  -5 -10 -12   15.08    1.04
  -5 -10 -12   14.53    1.96
  -5 -10 -12   12.79    1.16
   5  10  12   18.15    2.18
   5  10  12   15.83    2.24
  -6 -10 -12    9.47    2.00
  -6 -10 -12   10.36    1.07
   6  10  12    8.15    1.96
   6  10  12   11.96    1.82
   2 -11 -12   19.45    1.50
   2 -11 -12   21.76    1.84
  -2  11  12   23.94    2.18
  -2  11  12   26.90    1.76
   1 -11 -12    4.59    1.03
   1 -11 -12    3.54    0.68
   1 -11 -12    4.12    0.99
  -1  11  12    2.76    0.71
  -1  11  12    2.04    0.92
   0 -11 -12   19.07    1.66
   0 -11 -12   19.80    1.14
   0 -11 -12   16.12    1.28
   0 -11 -12   19.26    1.22
   0 -11 -12   20.05    1.62
   0  11  12   17.42    1.35
   0  11  12   20.63    1.91
  -1 -11 -12    8.28    0.66
  -1 -11 -12    7.35    0.86
  -1 -11 -12    7.95    1.20
  -1 -11 -12    8.65    1.30
  -1 -11 -12    8.94    0.97
   1  11  12    7.22    1.36
  -2 -11 -12   18.59    1.09
  -2 -11 -12   17.10    1.84
  -2 -11 -12   15.38    1.42
   2  11  12   18.44    1.62
   2  11  12   20.40    1.99
  -3 -11 -12   14.96    1.02
  -3 -11 -12   16.50    1.84
  -3 -11 -12   17.96    1.44
   3  11  12   16.80    2.02
  -4 -11 -12    8.03    1.37
  -4 -11 -12   11.67    1.22
  -4 -11 -12    9.74    0.87
   4  11  12    7.75    1.62
   4  11  12   12.22    1.76
  -5 -11 -12   26.04    1.52
  -5 -11 -12   24.54    2.13
   5  11  12   22.89    2.43
   5  11  12   24.41    2.21
   1 -12 -12   13.68    1.20
   1 -12 -12   13.07    2.40
   1 -12 -12   10.51    1.45
  -1  12  12   13.25    1.78
  -1  12  12   13.08    1.30
   0 -12 -12    7.95    0.93
   0 -12 -12   10.04    1.46
   0 -12 -12    8.64    1.35
   0 -12 -12    8.96    0.83
   0  12  12    8.77    1.56
   0  12  12   10.16    1.22
  -1 -12 -12   32.14    2.09
  -1 -12 -12   30.90    2.11
  -1 -12 -12   32.39    1.80
   1  12  12   32.02    1.90
   1  12  12   30.26    2.32
  -2 -12 -12    7.80    0.93
  -2 -12 -12    7.99    1.27
  -2 -12 -12    7.73    1.11
   2  12  12    8.89    1.37
  -3 -12 -12   44.15    2.56
  -3 -12 -12   41.25    1.94
  -3 -12 -12   43.28    2.29
   3  12  12   47.75    2.93
  -4 -12 -12    1.82    0.68
  -4 -12 -12    0.99    0.86
  -4 -12 -12    1.29    0.56
   4  12  12    0.55    0.80
  -5 -12 -12   44.35    2.81
  -5 -12 -12   42.31    2.48
  -5 -12 -12   44.63    2.05
   5  12  12   49.39    3.46
   5  12  12   40.31    2.81
   0 -13 -12    3.55    0.55
   0 -13 -12    4.55    0.93
   0  13  12    2.01    0.86
   0  13  12    0.37    1.00
  -1 -13 -12   44.82    2.43
  -1 -13 -12   41.18    2.32
  -1 -13 -12   43.37    2.49
   1  13  12   37.91    2.81
   1  13  12   40.76    2.32
  -2 -13 -12    2.39    0.94
  -2 -13 -12    3.75    0.88
  -2 -13 -12    2.25    0.72
   2  13  12    1.53    0.80
   2  13  12    0.82    0.93
  -3 -13 -12   58.53    2.56
  -3 -13 -12   54.63    2.89
  -3 -13 -12   53.17    2.66
  -4 -13 -12    0.68    0.74
  -4 -13 -12    0.18    0.78
  -4 -13 -12    1.50    0.69
   2   0 -13    9.09    1.50
  -2   0  13   16.03    2.84
  -2   0  13   13.66    2.03
   1   0 -13   32.34    2.33
  -1   0  13   33.63    2.94
   0   0 -13   23.93    2.13
   0   0 -13   24.73    2.43
   0   0  13   29.65    2.56
   3  -1 -13   34.18    2.78
   3  -1 -13   37.39    2.82
  -3   1  13   29.35    3.86
  -3   1  13   32.68    1.96
  -3   1  13   31.82    2.53
   2  -1 -13   29.62    2.31
   2  -1 -13   21.81    2.16
  -2   1  13   27.47    2.28
   1  -1 -13   15.97    1.88
   1  -1 -13   18.69    1.98
  -1   1  13   13.45    1.88
  -1   1  13   13.81    2.70
   0  -1 -13   45.33    3.33
   0  -1 -13   35.71    2.49
   0   1  13   35.39    2.67
  -1  -1 -13    2.18    0.96
  -1  -1 -13    2.74    1.64
   1   1  13    2.24    1.08
   1   1  13    0.36    1.71
   4  -2 -13   25.08    3.54
   4  -2 -13   33.94    2.44
  -4   2  13   30.52    2.49
  -4   2  13   30.55    2.08
   3  -2 -13   17.39    2.42
   3  -2 -13   22.34    2.08
  -3   2  13   18.68    1.59
  -3   2  13   21.96    2.13
   2  -2 -13   44.19    2.77
   2  -2 -13   49.71    3.10
  -2   2  13   50.80    3.14
  -2   2  13   47.90    3.00
  -2   2  13   50.41    2.79
   1  -2 -13    1.91    0.85
   1  -2 -13    3.51    1.02
  -1   2  13    2.14    0.94
  -1   2  13    2.75    1.03
   0  -2 -13   70.20    3.48
   0  -2 -13   67.62    3.54
   0   2  13   74.96    3.90
  -1  -2 -13    0.20    0.63
  -1  -2 -13   -0.43    0.73
   1   2  13    1.30    0.85
   1   2  13    0.23    0.82
  -2  -2 -13   47.37    2.92
  -2  -2 -13   49.95    3.89
   2   2  13   51.19    3.19
   4  -3 -13   32.69    2.84
  -4   3  13   27.44    2.42
  -4   3  13   28.84    2.05
   3  -3 -13    3.50    1.02
   3  -3 -13    4.85    1.20
  -3   3  13    2.59    0.87
  -3   3  13    2.68    1.01
   2  -3 -13   56.57    3.23
   2  -3 -13   54.16    3.06
  -2   3  13   54.68    2.25
  -2   3  13   52.36    3.10
  -2   3  13   54.43    3.20
   1  -3 -13   -0.90    0.60
  -1   3  13    0.24    0.81
  -1   3  13   -0.04    0.40
  -1   3  13   -0.12    0.71
   0  -3 -13   48.51    2.78
   0  -3 -13   47.64    2.82
   0   3  13   46.04    3.53
   0   3  13   44.61    2.95
  -1  -3 -13   13.29    1.72
  -1  -3 -13   11.35    1.61
   1   3  13    7.30    1.40
   1   3  13   12.81    1.87
  -2  -3 -13   37.60    2.59
  -2  -3 -13   40.46    2.65
  -2  -3 -13   33.90    1.65
   2   3  13   41.17    2.85
   2   3  13   40.34    2.89
  -3  -3 -13   17.96    3.23
  -3  -3 -13   16.84    2.30
   3   3  13   14.84    3.48
   3   3  13   18.23    2.28
   4  -4 -13   53.70    4.83
  -4   4  13   42.49    3.00
  -4   4  13   51.94    2.76
   3  -4 -13    4.50    1.06
   3  -4 -13    4.35    1.17
  -3   4  13    6.86    1.10
  -3   4  13    6.06    1.30
   2  -4 -13   40.63    2.60
   2  -4 -13   37.13    2.61
  -2   4  13   44.84    2.07
  -2   4  13   43.20    2.88
   1  -4 -13   24.39    2.02
   1  -4 -13   26.20    2.04
  -1   4  13   28.39    2.33
  -1   4  13   29.83    1.40
  -1   4  13   26.25    2.68
   0  -4 -13   29.40    2.15
   0  -4 -13   33.82    2.30
   0   4  13   27.77    2.34
  -1  -4 -13   50.82    2.78
  -1  -4 -13   46.73    2.74
   1   4  13   44.07    2.94
  -2  -4 -13   13.89    1.75
  -2  -4 -13   14.45    1.68
   2   4  13   12.82    1.96
   2   4  13   15.24    2.02
  -3  -4 -13   42.11    2.65
  -3  -4 -13   36.37    2.52
   3   4  13   34.12    2.69
   3   4  13   42.63    2.94
  -4  -4 -13    6.00    1.42
  -4  -4 -13    4.17    1.11
   4   4  13    7.18    1.90
   4   4  13    5.83    2.58
  -4   5  13   49.53    3.14
  -4   5  13   49.34    2.77
   3  -5 -13   21.26    1.98
   3  -5 -13   18.84    1.82
  -3   5  13   20.39    1.98
  -3   5  13   20.03    1.72
   2  -5 -13   40.32    2.58
   2  -5 -13   38.80    2.47
  -2   5  13   38.95    2.76
  -2   5  13   34.95    1.93
   1  -5 -13   42.74    2.53
   1  -5 -13   46.65    2.74
  -1   5  13   40.90    2.85
   0  -5 -13   26.67    1.87
   0  -5 -13   29.20    2.12
   0   5  13   28.11    1.17
   0   5  13   26.76    2.34
  -1  -5 -13   42.03    2.57
  -1  -5 -13   44.01    2.48
   1   5  13   38.39    2.81
  -2  -5 -13    8.31    1.42
  -2  -5 -13    7.52    1.19
   2   5  13    6.21    1.32
   2   5  13    6.96    1.49
  -3  -5 -13   33.44    2.21
  -3  -5 -13   34.82    2.47
   3   5  13   30.35    2.54
   3   5  13   35.68    2.67
  -4  -5 -13    0.61    0.92
   4   5  13   -0.11    0.94
   4   5  13    0.18    0.92
   4  -6 -13   28.81    2.38
  -4   6  13   31.54    2.27
   3  -6 -13   41.98    2.75
   3  -6 -13   39.67    2.56
  -3   6  13   37.65    2.69
  -3   6  13   39.43    2.37
   2  -6 -13   17.60    2.03
   2  -6 -13   19.88    1.73
  -2   6  13   17.64    1.54
  -2   6  13   18.19    1.87
   1  -6 -13   44.64    2.69
   1  -6 -13   38.86    2.40
  -1   6  13   39.51    1.89
  -1   6  13   35.97    2.65
   0  -6 -13    2.14    0.84
   0  -6 -13    3.65    0.92
   0   6  13    2.46    1.02
   0   6  13    2.64    0.54
  -1  -6 -13   53.14    2.66
  -1  -6 -13   50.31    2.81
   1   6  13   45.47    3.09
  -2  -6 -13    0.47    0.64
  -2  -6 -13    0.85    0.61
   2   6  13    0.59    0.73
   2   6  13   -0.57    0.74
  -3  -6 -13   33.75    2.44
  -3  -6 -13   36.18    2.20
   3   6  13   30.52    2.61
   3   6  13   34.82    2.68
  -4  -6 -13    0.80    0.66
  -4  -6 -13    2.22    0.92
   4   6  13    1.34    1.10
   4   6  13    0.96    1.02
  -5  -6 -13   25.37    2.30
  -5  -6 -13   26.41    2.20
   5   6  13   26.14    2.66
   4  -7 -13    7.86    1.44
   4  -7 -13    7.46    1.79
  -4   7  13    7.98    1.37
   3  -7 -13   30.02    2.24
   3  -7 -13   32.79    2.42
  -3   7  13   33.05    2.24
  -3   7  13   32.66    2.60
   2  -7 -13    2.68    0.76
   2  -7 -13    1.03    0.77
  -2   7  13    3.31    0.86
  -2   7  13    2.68    1.01
   1  -7 -13   46.99    2.73
   1  -7 -13   43.09    2.43
  -1   7  13   46.42    2.22
  -1   7  13   39.86    2.87
   0  -7 -13    0.94    0.94
   0  -7 -13    0.47    0.59
   0  -7 -13    0.14    0.70
   0   7  13    0.38    0.70
   0   7  13    0.48    0.49
  -1  -7 -13   44.17    2.68
  -1  -7 -13   43.78    2.30
   1   7  13   53.20    3.25
   1   7  13   47.86    1.78
  -2  -7 -13    3.44    0.86
  -2  -7 -13    4.98    0.95
   2   7  13    3.03    1.12
   2   7  13    3.87    1.18
  -3  -7 -13   46.30    2.88
  -3  -7 -13   43.84    2.29
   3   7  13   47.97    3.58
   3   7  13   44.81    3.08
  -4  -7 -13    3.86    1.05
  -4  -7 -13    3.00    0.79
   4   7  13    3.68    1.15
   4   7  13    3.35    1.22
  -5  -7 -13   17.97    2.45
  -5  -7 -13   16.03    2.09
   5   7  13   17.54    2.39
   5   7  13   21.89    2.20
   3  -8 -13   46.08    2.98
   3  -8 -13   42.61    2.70
  -3   8  13   41.71    2.56
   2  -8 -13    1.97    0.73
   2  -8 -13    3.47    1.01
  -2   8  13    1.27    0.88
  -2   8  13    1.53    0.79
   1  -8 -13   38.91    2.20
   1  -8 -13   40.51    2.52
  -1   8  13   36.54    2.13
  -1   8  13   34.59    2.59
   0  -8 -13    2.09    0.67
   0  -8 -13    1.17    0.66
   0  -8 -13    1.85    0.80
   0   8  13    0.64    0.90
   0   8  13    1.43    0.60
  -1  -8 -13   27.38    2.05
  -1  -8 -13   26.62    1.69
  -1  -8 -13   24.77    1.71
   1   8  13   26.79    1.64
   1   8  13   21.92    2.09
  -2  -8 -13    9.97    1.12
  -2  -8 -13    8.26    1.40
  -2  -8 -13   10.05    1.06
   2   8  13    7.23    1.40
  -3  -8 -13   32.44    1.80
  -3  -8 -13   36.95    2.48
   3   8  13   30.82    2.58
   3   8  13   32.04    2.60
  -4  -8 -13   13.69    1.27
  -4  -8 -13   13.16    1.78
   4   8  13   13.69    2.08
   4   8  13   10.28    1.80
  -5  -8 -13   27.13    1.84
  -5  -8 -13   21.20    2.83
   5   8  13   20.19    2.57
   5   8  13   24.65    2.31
   3  -9 -13   27.53    2.10
   3  -9 -13   29.36    2.35
  -3   9  13   29.42    2.41
   2  -9 -13    2.70    0.81
   2  -9 -13    1.60    0.84
  -2   9  13    1.90    0.87
   1  -9 -13   29.52    1.84
   1  -9 -13   38.40    2.43
  -1   9  13   31.97    2.60
   0  -9 -13    8.91    1.05
   0  -9 -13    8.77    1.31
   0   9  13    7.97    1.41
   0   9  13   11.08    1.33
  -1  -9 -13   27.42    2.11
  -1  -9 -13   28.62    1.64
  -1  -9 -13   26.85    1.56
   1   9  13   29.78    2.38
   1   9  13   29.89    1.71
  -2  -9 -13   13.43    1.67
  -2  -9 -13   14.84    1.14
  -2  -9 -13   12.64    1.16
   2   9  13   13.01    1.87
  -3  -9 -13   13.31    1.78
  -3  -9 -13   10.83    1.10
  -3  -9 -13   12.95    1.13
   3   9  13   12.01    1.82
   3   9  13   15.81    2.27
  -4  -9 -13   28.67    1.63
  -4  -9 -13   28.18    2.29
   4   9  13   30.96    2.71
   4   9  13   31.65    2.57
  -5  -9 -13    9.16    1.10
   5   9  13   10.79    1.76
   5   9  13   10.73    1.88
   2 -10 -13   24.41    2.05
   2 -10 -13   19.92    1.56
   2 -10 -13   15.14    2.24
  -2  10  13   22.07    1.92
   1 -10 -13   33.05    2.28
   1 -10 -13   29.37    1.75
  -1  10  13   30.87    2.25
   0 -10 -13   29.41    1.58
   0 -10 -13   25.75    1.78
   0 -10 -13   27.04    2.11
   0  10  13   30.18    2.30
   0  10  13   25.14    1.99
  -1 -10 -13   32.83    1.55
  -1 -10 -13   30.29    1.57
  -1 -10 -13   35.65    2.37
   1  10  13   30.74    2.50
   1  10  13   31.29    1.94
  -2 -10 -13   37.77    1.56
  -2 -10 -13   36.75    2.39
   2  10  13   33.48    2.65
  -3 -10 -13   13.52    0.91
  -3 -10 -13   14.02    1.21
  -3 -10 -13   14.26    1.83
   3  10  13   17.97    2.21
  -4 -10 -13   41.48    2.70
  -4 -10 -13   40.41    1.72
  -4 -10 -13   41.42    1.74
   4  10  13   48.48    3.37
   4  10  13   49.38    3.09
  -5 -10 -13    0.39    0.47
   5  10  13    1.31    1.13
   5  10  13    1.01    1.03
   1 -11 -13   16.55    1.78
   1 -11 -13   15.33    2.05
   1 -11 -13   16.51    1.30
  -1  11  13   14.89    1.77
   0 -11 -13   30.79    1.52
   0 -11 -13   28.66    2.07
   0 -11 -13   31.77    2.23
   0  11  13   28.18    2.20
  -1 -11 -13   14.08    1.66
  -1 -11 -13   13.73    0.95
  -1 -11 -13   14.12    0.87
   1  11  13   16.59    2.45
   1  11  13   14.88    2.08
  -2 -11 -13   39.84    2.53
   2  11  13   36.35    2.75
   2  11  13   34.11    2.14
  -3 -11 -13    4.82    1.23
   3  11  13    6.19    1.43
  -4 -11 -13   43.70    2.72
   4  11  13   42.64    3.23
   0 -12 -13   36.40    2.49
   0 -12 -13   37.53    2.40
   0 -12 -13   35.68    1.58
   0  12  13   40.65    2.66
   0  12  13   38.29    1.99
  -1 -12 -13    2.76    0.89
  -1 -12 -13    1.32    0.80
   1  12  13    2.00    1.08
  -2 -12 -13   40.51    2.36
  -2 -12 -13   40.25    2.51
   2  12  13   38.29    2.48
   2  12  13   40.88    2.93
  -3 -12 -13    1.93    0.79
  -3 -12 -13    3.67    1.05
   3  12  13    1.14    1.00
  -4 -12 -13   39.69    2.59
  -4 -12 -13   33.34    2.04
   4  12  13   37.80    2.74
   1  -2 -14   43.03    2.99
   1  -2 -14   50.36    2.90
  -1   2  14   49.22    3.17
   2  -3 -14    8.22    1.47
   2  -3 -14    9.25    1.59
  -2   3  14    9.07    1.69
  -1   3  14   25.50    2.46
   0  -3 -14   18.71    2.32
  -1  -3 -14   14.44    2.67
  -1  -3 -14   13.08    1.76
   1   3  14   15.42    2.07
   3  -4 -14   19.98    2.07
   3  -4 -14   21.07    2.36
  -3   4  14   20.33    1.69
  -3   4  14   17.92    2.28
   2  -4 -14   22.40    3.68
  -2   4  14   24.83    2.27
  -2   4  14   22.66    1.54
   1  -4 -14    5.55    1.12
   1  -4 -14    8.80    1.47
  -1   4  14    6.04    1.35
   0  -4 -14   26.74    2.19
   0  -4 -14   29.65    2.30
   0   4  14   24.66    2.36
  -1  -4 -14    1.31    0.88
  -1  -4 -14    0.31    0.80
   1   4  14    1.15    1.52
  -2  -4 -14   23.26    2.11
  -2  -4 -14   23.94    2.20
   2   4  14   19.63    2.41
   2   4  14   24.72    2.28
   3  -5 -14    5.76    1.26
   3  -5 -14    3.97    1.15
  -3   5  14    4.03    1.26
  -3   5  14    4.50    1.08
   2  -5 -14   43.16    3.50
   2  -5 -14   34.94    3.16
  -2   5  14   30.37    1.85
  -2   5  14   33.54    2.58
   1  -5 -14    1.91    0.74
   1  -5 -14   -0.54    0.66
  -1   5  14    0.95    0.89
   0  -5 -14   37.29    2.54
   0   5  14   35.56    2.69
  -1  -5 -14    0.28    0.70
  -1  -5 -14    0.60    0.68
   1   5  14    0.11    0.94
  -2  -5 -14   50.00    3.95
  -2  -5 -14   48.37    4.12
   2   5  14   36.88    2.94
  -3  -5 -14   -0.05    0.74
  -3  -5 -14    0.26    0.82
   3   5  14    1.52    1.04
   3   5  14    1.74    1.15
   3  -6 -14    0.87    0.83
   3  -6 -14    0.59    0.91
  -3   6  14    0.75    0.91
   2  -6 -14   35.55    2.55
   2  -6 -14   30.37    2.62
  -2   6  14   28.64    2.60
  -2   6  14   31.52    1.97
   1  -6 -14   -0.03    0.71
   1  -6 -14    0.59    0.71
  -1   6  14    0.63    0.54
  -1   6  14    0.63    0.91
   0  -6 -14   45.09    2.76
   0  -6 -14   41.69    2.54
   0   6  14   44.28    3.03
  -1  -6 -14   -0.41    0.56
  -1  -6 -14    0.70    0.71
   1   6  14   -0.40    0.81
  -2  -6 -14   29.36    2.28
  -2  -6 -14   28.25    2.05
   2   6  14   23.95    2.33
   2   6  14   30.35    2.67
  -3  -6 -14    3.80    1.40
  -3  -6 -14    3.88    1.21
   3   6  14    3.54    2.14
   3   6  14    3.75    2.16
   3  -7 -14    1.77    0.91
   3  -7 -14    1.09    0.79
  -3   7  14    1.58    0.91
  -3   7  14    0.68    0.81
   2  -7 -14   33.82    3.41
   2  -7 -14   31.32    2.44
  -2   7  14   23.88    2.45
  -2   7  14   27.10    2.20
   1  -7 -14    1.36    0.83
   1  -7 -14    0.29    0.58
  -1   7  14    1.83    1.09
  -1   7  14    1.19    0.73
   0  -7 -14   30.81    2.13
   0  -7 -14   28.81    2.24
   0   7  14   31.69    1.92
   0   7  14   31.09    2.64
  -1  -7 -14    7.36    1.37
   1   7  14    6.76    1.54
  -2  -7 -14   27.52    2.22
  -2  -7 -14   25.13    1.83
   2   7  14   24.59    2.39
  -3  -7 -14   16.70    1.56
   3   7  14   17.02    2.34
   2  -8 -14   18.86    2.66
   2  -8 -14   21.69    2.62
  -2   8  14   18.26    3.67
  -2   8  14   22.06    1.84
   1  -8 -14   14.09    1.60
   1  -8 -14   14.13    1.81
  -1   8  14   12.21    1.41
  -1   8  14   16.26    2.13
   0  -8 -14   17.66    1.53
   0  -8 -14   21.76    1.92
   0   8  14   17.44    2.21
   0   8  14   17.33    1.34
  -1  -8 -14   24.10    2.05
  -1  -8 -14   29.41    1.86
   1   8  14   28.48    2.48
   1   8  14   23.88    1.42
  -2  -8 -14   18.99    2.15
   2   8  14   20.30    2.49
  -3  -8 -14   27.92    1.80
  -3  -8 -14   23.00    2.69
   3   8  14   30.74    2.66
  -4  -8 -14    5.98    1.69
  -4  -8 -14    6.74    1.34
   4   8  14    6.02    1.77
   4   8  14    6.42    1.66
   2  -9 -14   35.13    2.26
  -2   9  14   33.65    2.78
  -2   9  14   35.42    2.42
   1  -9 -14   14.08    1.81
   1  -9 -14   13.57    1.38
  -1   9  14   14.13    1.64
   0  -9 -14   17.12    1.94
   0  -9 -14   14.36    1.30
   0   9  14   16.56    2.25
   0   9  14   16.71    1.50
  -1  -9 -14   30.96    1.87
  -1  -9 -14   40.96    2.55
   1   9  14   30.69    2.71
   1   9  14   34.70    1.79
  -2  -9 -14    3.37    0.73
  -2  -9 -14    2.25    0.97
   2   9  14    2.78    1.29
  -3  -9 -14   53.70    3.15
  -3  -9 -14   53.91    2.40
   3   9  14   53.28    3.52
  -4  -9 -14    0.15    0.94
  -4  -9 -14   -0.08    0.51
   4   9  14   -1.64    1.68
   4   9  14    1.64    0.94
   1 -10 -14   18.77    2.07
   1 -10 -14   16.84    1.65
  -1  10  14   14.01    2.07
  -1  10  14   19.43    1.89
   0 -10 -14   -0.16    0.47
   0 -10 -14    0.28    0.73
   0  10  14   -0.40    1.15
  -1 -10 -14   48.72    2.15
  -1 -10 -14   51.23    2.92
   1  10  14   51.92    3.87
   1  10  14   49.32    2.52
  -2 -10 -14    3.21    1.01
  -2 -10 -14    2.88    0.64
   2  10  14    3.03    1.24
  -3 -10 -14   60.38    2.34
  -3 -10 -14   64.22    3.41
   3  10  14   57.45    4.10
   0 -11 -14    0.42    0.49
   0 -11 -14    0.30    0.86
   0  11  14   -0.41    0.87
   0  11  14    1.62    0.96
  -1 -11 -14   44.84    1.80
  -1 -11 -14   44.89    2.77
   1  11  14   46.70    3.29
   1  11  14   43.60    2.54
  -2 -11 -14    8.08    0.80
  -2 -11 -14   10.12    1.63
  -2 -11 -14    8.95    0.67
   2  11  14    4.88    2.32
  -3 -11 -14   36.97    2.56
   3  11  14   36.72    4.78
   0  -6 -15   12.86    1.79
   0  -6 -15   12.93    1.69
   0   6  15   17.01    2.38
   0  -7 -15   23.79    2.08
   0  -7 -15   27.10    2.34
   0   7  15   26.87    2.62
  -1  -7 -15   22.14    2.10
  -1  -7 -15   20.79    1.88
   1   7  15   22.17    2.70
   0  -8 -15   50.92    3.14
   0  -8 -15   51.19    2.79
  -1  -8 -15    1.65    0.84
  -1  -8 -15    0.96    0.69
   1   8  15    0.74    1.06
   0   0   0    0.00    0.00
;
_shelx_hkl_checksum              2586
loop_
_space_group_symop_operation_xyz
'x, y, z'
'-x, -y, -z'
loop_
_atom_site_label
_atom_site_type_symbol
_atom_site_fract_x
_atom_site_fract_y
_atom_site_fract_z
_atom_site_U_iso_or_equiv
_atom_site_adp_type
_atom_site_occupancy
_atom_site_site_symmetry_order
_atom_site_calc_flag
_atom_site_refinement_flags_posn
_atom_site_refinement_flags_adp
_atom_site_refinement_flags_occupancy
_atom_site_disorder_assembly
_atom_site_disorder_group
Pb Pb 0.72963(2) -0.04971(2) 0.66246(2) 0.01229(3) Uani 1 1 d . . . . .
S1 S 0.69190(9) -0.12804(7) 0.44326(7) 0.01361(11) Uani 1 1 d . . . . .
N1 N 0.7061(3) 0.2040(3) 0.6424(2) 0.0144(4) Uani 1 1 d . . . . .
N2 N 0.7907(3) 0.1366(3) 0.4279(2) 0.0134(4) Uani 1 1 d . . . . .
N3 N 0.8428(4) 0.1108(3) 0.3104(2) 0.0159(4) Uani 1 1 d . . . . .
N4 N 0.8244(4) -0.0137(3) 0.1877(3) 0.0211(5) Uani 1 1 d . . . . .
H14A H 0.805(6) -0.090(4) 0.184(4) 0.025 Uiso 1 1 d . U . . .
H14B H 0.877(6) 0.044(5) 0.126(4) 0.025 Uiso 1 1 d . U . . .
N5 N 0.8539(4) 0.3659(3) 0.2800(3) 0.0166(4) Uani 1 1 d . . . . .
H15A H 0.872(5) 0.351(4) 0.207(4) 0.020 Uiso 1 1 d . U . . .
H15B H 0.856(5) 0.447(4) 0.268(4) 0.020 Uiso 1 1 d . U . . .
C1 C 0.6604(4) 0.2315(3) 0.7537(3) 0.0174(5) Uani 1 1 d . . . . .
H1 H 0.620813 0.154852 0.838885 0.021 Uiso 1 1 d R U . . .
C2 C 0.6703(4) 0.3621(3) 0.7510(3) 0.0192(5) Uani 1 1 d . . . . .
H2 H 0.630325 0.376588 0.829287 0.023 Uiso 1 1 d R U . . .
C3 C 0.7299(4) 0.4675(3) 0.6293(3) 0.0204(5) Uani 1 1 d . . . . .
H3 H 0.734232 0.556830 0.633349 0.025 Uiso 1 1 d R U . . .
C4 C 0.7754(4) 0.4406(3) 0.5131(3) 0.0172(5) Uani 1 1 d . . . . .
H4 H 0.811792 0.511747 0.431406 0.021 Uiso 1 1 d R U . . .
C5 C 0.7609(4) 0.3066(3) 0.5234(3) 0.0125(4) Uani 1 1 d . . . . .
C6 C 0.8034(4) 0.2678(3) 0.4046(3) 0.0126(4) Uani 1 1 d . . . . .
C7 C 0.7943(4) 0.0016(3) 0.3072(3) 0.0142(5) Uani 1 1 d . . . . .
N6 N 0.9004(4) 0.7312(3) 0.0550(3) 0.0197(5) Uani 1 1 d . . . . .
O1 O 0.8756(3) 0.8715(2) -0.0282(2) 0.0213(4) Uani 1 1 d . . . . .
O2 O 0.8297(4) 0.6909(3) 0.1740(2) 0.0258(5) Uani 1 1 d . . . . .
O3 O 1.0039(6) 0.6321(3) 0.0201(3) 0.0251(6) Uani 0.832(4) 1 d . . P A 1
O3B O 0.928(3) 0.644(2) 0.003(2) 0.027(4) Uiso 0.168(4) 1 d . . P A 2
O4 O 0.6536(6) 0.6526(5) -0.1837(4) 0.0498(8) Uiso 0.832(4) 1 d D . P A 1
H4A H 0.771990 0.588571 -0.153299 0.075 Uiso 0.832(4) 1 calc R U P A 1
C8 C 0.5534(9) 0.6403(7) -0.0697(6) 0.0498(8) Uiso 0.832(4) 1 d D . P A 1
H8A H 0.591996 0.531322 0.005933 0.075 Uiso 0.832(4) 1 calc R U P A 1
H8B H 0.407375 0.681989 -0.101774 0.075 Uiso 0.832(4) 1 calc R U P A 1
H8C H 0.587554 0.698756 -0.029965 0.075 Uiso 0.832(4) 1 calc R U P A 1
O5 O 0.643(3) 0.455(2) -0.0009(19) 0.0498(8) Uiso 0.168(4) 1 d D . P A -2
H5 H 0.758905 0.427861 -0.024343 0.075 Uiso 0.168(4) 1 d R U P A -2
C9 C 0.506(4) 0.545(3) -0.142(2) 0.0498(8) Uiso 0.168(4) 1 d D . P A -2
H9A H 0.455808 0.654492 -0.169763 0.075 Uiso 0.168(4) 1 calc R U P A -2
H9B H 0.391856 0.507697 -0.130488 0.075 Uiso 0.168(4) 1 calc R U P A -2
H9C H 0.580866 0.531647 -0.217589 0.075 Uiso 0.168(4) 1 calc R U P A -2
loop_
_atom_site_aniso_label
_atom_site_aniso_U_11
_atom_site_aniso_U_22
_atom_site_aniso_U_33
_atom_site_aniso_U_23
_atom_site_aniso_U_13
_atom_site_aniso_U_12
Pb 0.01461(5) 0.01224(5) 0.01209(5) -0.00596(3) 0.00412(3) -0.00748(3)
S1 0.0144(3) 0.0138(3) 0.0166(3) -0.0090(2) 0.0052(2) -0.0077(2)
N1 0.0139(10) 0.0139(10) 0.0176(10) -0.0083(8) 0.0047(8) -0.0068(8)
N2 0.0148(10) 0.0152(10) 0.0139(10) -0.0082(8) 0.0046(8) -0.0083(8)
N3 0.0221(11) 0.0190(11) 0.0141(10) -0.0107(9) 0.0077(8) -0.0127(9)
N4 0.0295(13) 0.0263(13) 0.0206(12) -0.0162(10) 0.0118(10) -0.0190(11)
N5 0.0230(11) 0.0144(11) 0.0145(10) -0.0063(9) 0.0048(9) -0.0105(9)
C1 0.0189(12) 0.0163(12) 0.0189(12) -0.0095(10) 0.0059(10) -0.0074(10)
C2 0.0226(13) 0.0170(13) 0.0206(13) -0.0117(11) 0.0058(10) -0.0062(10)
C3 0.0229(13) 0.0163(13) 0.0261(14) -0.0132(11) 0.0043(11) -0.0073(11)
C4 0.0193(12) 0.0149(12) 0.0188(12) -0.0073(10) 0.0044(10) -0.0092(10)
C5 0.0102(10) 0.0119(11) 0.0153(11) -0.0067(9) 0.0011(8) -0.0038(9)
C6 0.0115(10) 0.0122(11) 0.0142(11) -0.0061(9) 0.0017(8) -0.0052(9)
C7 0.0148(11) 0.0159(12) 0.0139(11) -0.0076(9) 0.0039(9) -0.0074(9)
N6 0.0313(13) 0.0162(11) 0.0157(11) -0.0084(9) 0.0053(9) -0.0122(10)
O1 0.0347(11) 0.0146(9) 0.0180(9) -0.0083(8) 0.0096(8) -0.0131(8)
O2 0.0437(13) 0.0247(11) 0.0163(9) -0.0097(8) 0.0124(9) -0.0225(10)
O3 0.0329(19) 0.0187(14) 0.0260(15) -0.0154(12) 0.0025(14) -0.0044(13)
loop_
_atom_type_symbol
_atom_type_description
_atom_type_scat_dispersion_real
_atom_type_scat_dispersion_imag
_atom_type_scat_source
C C 0.0033 0.0016 'International Tables Vol C Tables 4.2.6.8 and 6.1.1.4'
H H 0.0000 0.0000 'International Tables Vol C Tables 4.2.6.8 and 6.1.1.4'
N N 0.0061 0.0033 'International Tables Vol C Tables 4.2.6.8 and 6.1.1.4'
O O 0.0106 0.0060 'International Tables Vol C Tables 4.2.6.8 and 6.1.1.4'
Pb Pb -3.3944 10.1111 'International Tables Vol C Tables 4.2.6.8 and 6.1.1.4'
S S 0.1246 0.1234 'International Tables Vol C Tables 4.2.6.8 and 6.1.1.4'
loop_
_geom_angle_atom_site_label_1
_geom_angle_atom_site_label_2
_geom_angle_atom_site_label_3
_geom_angle
_geom_angle_site_symmetry_1
_geom_angle_site_symmetry_3
_geom_angle_publ_flag
N2 Pb N1 65.30(7) . . ?
N2 Pb S1 68.81(5) . . ?
N1 Pb S1 131.01(5) . . ?
N2 Pb N3 74.65(7) . 2_756 ?
N1 Pb N3 84.27(7) . 2_756 ?
S1 Pb N3 99.57(4) . 2_756 ?
N2 Pb S1 85.45(5) . 2_656 ?
N1 Pb S1 78.06(5) . 2_656 ?
S1 Pb S1 82.232(19) . 2_656 ?
N3 Pb S1 157.62(5) 2_756 2_656 ?
N2 Pb O4 143.24(9) . 1_546 ?
N1 Pb O4 150.08(9) . 1_546 ?
S1 Pb O4 74.59(7) . 1_546 ?
N3 Pb O4 108.93(9) 2_756 1_546 ?
S1 Pb O4 93.12(8) 2_656 1_546 ?
N2 Pb O1 128.85(6) . 1_546 ?
N1 Pb O1 74.36(6) . 1_546 ?
S1 Pb O1 153.13(4) . 1_546 ?
N3 Pb O1 71.20(6) 2_756 1_546 ?
S1 Pb O1 116.12(4) 2_656 1_546 ?
O4 Pb O1 84.48(8) 1_546 1_546 ?
C7 S1 Pb 98.04(9) . . ?
C7 S1 Pb 98.29(9) . 2_656 ?
Pb S1 Pb 97.768(19) . 2_656 ?
C1 N1 C5 119.6(2) . . ?
C1 N1 Pb 121.37(17) . . ?
C5 N1 Pb 118.66(16) . . ?
C6 N2 N3 111.8(2) . . ?
C6 N2 Pb 122.16(17) . . ?
N3 N2 Pb 125.47(15) . . ?
C7 N3 N2 116.8(2) . . ?
C7 N4 H14A 120(2) . . ?
C7 N4 H14B 116(3) . . ?
H14A N4 H14B 123(4) . . ?
C6 N5 H15A 123(2) . . ?
C6 N5 H15B 120(3) . . ?
H15A N5 H15B 117(3) . . ?
N1 C1 C2 122.0(3) . . ?
N1 C1 H1 117.8 . . ?
C2 C1 H1 120.2 . . ?
C1 C2 C3 118.8(3) . . ?
C1 C2 H2 117.6 . . ?
C3 C2 H2 123.5 . . ?
C2 C3 C4 119.5(2) . . ?
C2 C3 H3 115.3 . . ?
C4 C3 H3 125.2 . . ?
C3 C4 C5 118.5(2) . . ?
C3 C4 H4 119.5 . . ?
C5 C4 H4 122.0 . . ?
N1 C5 C4 121.6(2) . . ?
N1 C5 C6 115.6(2) . . ?
C4 C5 C6 122.8(2) . . ?
N2 C6 N5 122.9(2) . . ?
N2 C6 C5 117.5(2) . . ?
N5 C6 C5 119.5(2) . . ?
N3 C7 N4 117.4(2) . . ?
N3 C7 S1 126.8(2) . . ?
N4 C7 S1 115.84(19) . . ?
O3B N6 O2 117.0(9) . . ?
O3B N6 O1 119.2(9) . . ?
O2 N6 O1 119.2(2) . . ?
O2 N6 O3 121.3(3) . . ?
O1 N6 O3 119.5(3) . . ?
C8 O4 H4A 109.5 . . ?
O4 C8 H8A 109.5 . . ?
O4 C8 H8B 109.5 . . ?
H8A C8 H8B 109.5 . . ?
O4 C8 H8C 109.5 . . ?
H8A C8 H8C 109.5 . . ?
H8B C8 H8C 109.5 . . ?
C9 O5 H5 104.1 . . ?
O5 C9 H9A 109.5 . . ?
O5 C9 H9B 109.5 . . ?
H9A C9 H9B 109.5 . . ?
O5 C9 H9C 109.5 . . ?
H9A C9 H9C 109.5 . . ?
H9B C9 H9C 109.5 . . ?
loop_
_geom_bond_atom_site_label_1
_geom_bond_atom_site_label_2
_geom_bond_distance
_geom_bond_site_symmetry_2
_geom_bond_publ_flag
Pb N2 2.431(2) . ?
Pb N1 2.521(2) . ?
Pb S1 2.8495(6) . ?
Pb N3 2.863(2) 2_756 ?
Pb S1 2.8738(6) 2_656 ?
Pb O4 2.965(4) 1_546 ?
Pb O1 3.085(2) 1_546 ?
S1 C7 1.756(3) . ?
N1 C1 1.341(3) . ?
N1 C5 1.343(3) . ?
N2 C6 1.310(3) . ?
N2 N3 1.402(3) . ?
N3 C7 1.312(3) . ?
N4 C7 1.346(3) . ?
N4 H14A 0.86(4) . ?
N4 H14B 0.82(4) . ?
N5 C6 1.343(3) . ?
N5 H15A 0.86(4) . ?
N5 H15B 0.81(4) . ?
C1 C2 1.383(4) . ?
C1 H1 0.9782 . ?
C2 C3 1.388(4) . ?
C2 H2 0.9267 . ?
C3 C4 1.389(4) . ?
C3 H3 0.9691 . ?
C4 C5 1.395(3) . ?
C4 H4 0.9216 . ?
C5 C6 1.487(3) . ?
N6 O3B 1.240(19) . ?
N6 O2 1.254(3) . ?
N6 O1 1.254(3) . ?
N6 O3 1.271(4) . ?
O4 C8 1.340(6) . ?
O4 H4A 0.8400 . ?
C8 H8A 0.9800 . ?
C8 H8B 0.9800 . ?
C8 H8C 0.9800 . ?
O5 C9 1.487(17) . ?
O5 H5 0.8400 . ?
C9 H9A 0.9800 . ?
C9 H9B 0.9800 . ?
C9 H9C 0.9800 . ?
loop_
_geom_torsion_atom_site_label_1
_geom_torsion_atom_site_label_2
_geom_torsion_atom_site_label_3
_geom_torsion_atom_site_label_4
_geom_torsion
_geom_torsion_site_symmetry_1
_geom_torsion_site_symmetry_2
_geom_torsion_site_symmetry_3
_geom_torsion_site_symmetry_4
_geom_torsion_publ_flag
C6 N2 N3 C7 -165.7(2) . . . . ?
Pb N2 N3 C7 22.5(3) . . . . ?
C5 N1 C1 C2 -0.9(4) . . . . ?
Pb N1 C1 C2 172.2(2) . . . . ?
N1 C1 C2 C3 -0.1(4) . . . . ?
C1 C2 C3 C4 0.8(4) . . . . ?
C2 C3 C4 C5 -0.5(4) . . . . ?
C1 N1 C5 C4 1.2(4) . . . . ?
Pb N1 C5 C4 -172.04(19) . . . . ?
C1 N1 C5 C6 -178.5(2) . . . . ?
Pb N1 C5 C6 8.3(3) . . . . ?
C3 C4 C5 N1 -0.5(4) . . . . ?
C3 C4 C5 C6 179.1(2) . . . . ?
N3 N2 C6 N5 2.1(4) . . . . ?
Pb N2 C6 N5 174.18(19) . . . . ?
N3 N2 C6 C5 -177.4(2) . . . . ?
Pb N2 C6 C5 -5.3(3) . . . . ?
N1 C5 C6 N2 -2.3(3) . . . . ?
C4 C5 C6 N2 178.0(2) . . . . ?
N1 C5 C6 N5 178.2(2) . . . . ?
C4 C5 C6 N5 -1.4(4) . . . . ?
N2 N3 C7 N4 173.3(2) . . . . ?
N2 N3 C7 S1 -6.4(4) . . . . ?
Pb S1 C7 N3 -7.8(3) . . . . ?
Pb S1 C7 N3 91.3(2) 2_656 . . . ?
Pb S1 C7 N4 172.5(2) . . . . ?
Pb S1 C7 N4 -88.4(2) 2_656 . . . ?
