#------------------------------------------------------------------------------
#$Date: 2021-11-06 21:50:58 +0200 (Sat, 06 Nov 2021) $
#$Revision: 270425 $
#$URL: file:///home/coder/svn-repositories/cod/cif/7/24/35/7243538.cif $
#------------------------------------------------------------------------------
#
# This file is available in the Crystallography Open Database (COD),
# http://www.crystallography.net/
#
# All data on this site have been placed in the public domain by the
# contributors.
#
data_7243538
loop_
_publ_author_name
'Fu, Miao-Miao'
'Liu, Ce'
'Dong, Gui-Ying'
_publ_section_title
;
 Two Cd(ii)-based metal--organic frameworks for the highly effective
 detection of Fe3+ ions and levofloxacin in aqueous media
;
_journal_issue                   42
_journal_name_full               CrystEngComm
_journal_page_first              7397
_journal_page_last               7405
_journal_paper_doi               10.1039/D1CE01128F
_journal_volume                  23
_journal_year                    2021
_chemical_formula_moiety         'C15 H13 Cd N2 O5 S'
_chemical_formula_sum            'C15 H13 Cd N2 O5 S'
_chemical_formula_weight         445.73
_space_group_crystal_system      triclinic
_space_group_IT_number           2
_space_group_name_Hall           '-P 1'
_space_group_name_H-M_alt        'P -1'
_atom_sites_solution_hydrogens   mixed
_atom_sites_solution_primary     iterative
_audit_block_doi                 10.5517/ccdc.csd.cc26l3c9
_audit_creation_date             2020-10-13
_audit_creation_method
;
Olex2 1.2-beta
(compiled 2018.05.29 svn.r3508 for OlexSys, GUI svn.r5506)
;
_audit_update_record
;
2020-11-09 deposited with the CCDC.	2021-09-16 downloaded from the CCDC.
;
_cell_angle_alpha                111.317(3)
_cell_angle_beta                 96.567(3)
_cell_angle_gamma                105.524(4)
_cell_formula_units_Z            2
_cell_length_a                   6.2638(3)
_cell_length_b                   10.7726(4)
_cell_length_c                   12.3880(4)
_cell_measurement_reflns_used    8710
_cell_measurement_temperature    293(2)
_cell_measurement_theta_max      30.4010
_cell_measurement_theta_min      2.2070
_cell_volume                     729.15(6)
_computing_molecular_graphics    'Olex2 (Dolomanov et al., 2009)'
_computing_publication_material  'Olex2 (Dolomanov et al., 2009)'
_computing_structure_refinement  'ShelXL (Sheldrick, 2015)'
_computing_structure_solution    'olex2.solve (Bourhis et al., 2015)'
_diffrn_ambient_temperature      296(2)
_diffrn_measured_fraction_theta_full 0.992
_diffrn_measured_fraction_theta_max 0.990
_diffrn_measurement_device_type  'XtaLAB Mini II'
_diffrn_measurement_method       '\w scans'
_diffrn_radiation_type           MoK\a
_diffrn_radiation_wavelength     0.71073
_diffrn_reflns_av_R_equivalents  0.0357
_diffrn_reflns_av_unetI/netI     0.0198
_diffrn_reflns_Laue_measured_fraction_full 0.992
_diffrn_reflns_Laue_measured_fraction_max 0.990
_diffrn_reflns_limit_h_max       7
_diffrn_reflns_limit_h_min       -7
_diffrn_reflns_limit_k_max       13
_diffrn_reflns_limit_k_min       -13
_diffrn_reflns_limit_l_max       15
_diffrn_reflns_limit_l_min       -15
_diffrn_reflns_number            16486
_diffrn_reflns_point_group_measured_fraction_full 0.992
_diffrn_reflns_point_group_measured_fraction_max 0.990
_diffrn_reflns_theta_full        25.242
_diffrn_reflns_theta_max         26.022
_diffrn_reflns_theta_min         2.171
_exptl_absorpt_coefficient_mu    1.672
_exptl_crystal_density_diffrn    2.030
_exptl_crystal_description       block
_exptl_crystal_F_000             442
_refine_diff_density_max         0.340
_refine_diff_density_min         -0.753
_refine_diff_density_rms         0.108
_refine_ls_extinction_method     none
_refine_ls_goodness_of_fit_ref   1.128
_refine_ls_hydrogen_treatment    mixed
_refine_ls_matrix_type           full
_refine_ls_number_parameters     222
_refine_ls_number_reflns         2856
_refine_ls_number_restraints     0
_refine_ls_restrained_S_all      1.128
_refine_ls_R_factor_all          0.0218
_refine_ls_R_factor_gt           0.0208
_refine_ls_shift/su_max          0.001
_refine_ls_shift/su_mean         0.000
_refine_ls_structure_factor_coef Fsqd
_refine_ls_weighting_details
'w=1/[\s^2^(Fo^2^)+(0.0291P)^2^+0.4866P] where P=(Fo^2^+2Fc^2^)/3'
_refine_ls_weighting_scheme      calc
_refine_ls_wR_factor_gt          0.0545
_refine_ls_wR_factor_ref         0.0549
_reflns_Friedel_coverage         0.000
_reflns_number_gt                2733
_reflns_number_total             2856
_reflns_threshold_expression     'I > 2\s(I)'
_cod_data_source_file            d1ce01128f2.cif
_cod_data_source_block           2
_cod_depositor_comments
'Adding full bibliography for 7243538--7243539.cif.'
_cod_original_cell_volume        729.15(5)
_cod_database_code               7243538
_shelx_shelxl_version_number     2018/3
_shelx_space_group_comment
;
The symmetry employed for this shelxl refinement is uniquely defined
by the following loop, which should always be used as a source of
symmetry information in preference to the above space-group names.
They are only intended as comments.
;
_olex2_refinement_description
;
1. Fixed Uiso
 At 1.2 times of:
  All C(H) groups, All C(H,H) groups, All N(H) groups
 At 1.5 times of:
  All O(H) groups
2.a Rotating group:
 O5(H5A)
2.b Secondary CH2 refined with riding coordinates:
 C8(H8A,H8B), C9(H9A,H9B)
2.c Aromatic/amide H refined with riding coordinates:
 N2(H2), C12(H12), C3(H3), C13(H13), C5(H5), C4(H4), C6(H6)
;
_shelx_res_file
;
TITL mm-14_a.res in P-1
    2.res
    created by SHELXL-2018/3 at 10:17:44 on 13-Oct-2020
CELL 0.71073 6.2638 10.7726 12.388 111.317 96.567 105.524
ZERR 2 0.0003 0.0004 0.0004 0.003 0.003 0.004
LATT 1
SFAC C H Cd N O S
UNIT 30 26 2 4 10 2

L.S. 16
PLAN  5
BOND $H
LIST 6
fmap 2
acta
SHEL 999 0.81
OMIT 0 0 1
OMIT 0 1 0
REM <olex2.extras>
REM <HklSrc "%.\\2.hkl">
REM </olex2.extras>

WGHT    0.029100    0.486600
FVAR       0.72347
CD1   3    0.580058    1.033311    0.866663    11.00000    0.02109    0.01523 =
         0.01798    0.00767    0.00473    0.00601
S1    6    0.593524    0.514267    0.825554    11.00000    0.02469    0.01731 =
         0.02490    0.00976    0.00991    0.00823
O4    5    0.328589    0.158556    0.855257    11.00000    0.03333    0.01846 =
         0.02752    0.01251    0.01076    0.01216
O2    5    0.403849    0.851869    0.921552    11.00000    0.03791    0.01637 =
         0.02151    0.00786    0.00749    0.01242
O5    5    0.953689    1.146288    0.943793    11.00000    0.02188    0.04092 =
         0.03304    0.01750    0.00695    0.00412
AFIX   7
H5A   2    0.999806    1.149188    1.016991    11.00000   -1.50000
AFIX   0
O1    5    0.708411    0.814331    0.857952    11.00000    0.03276    0.02717 =
         0.03740    0.01923    0.01097    0.00559
O3    5    0.620467    0.233626    0.783582    11.00000    0.03220    0.02177 =
         0.05921    0.01239    0.01997    0.01382
N1    4    0.450276    0.889411    0.671961    11.00000    0.01838    0.01985 =
         0.01953    0.00844    0.00653    0.00675
N2    4    0.417547    0.790582    0.477380    11.00000    0.02908    0.02874 =
         0.01649    0.00819    0.00870    0.01080
AFIX  43
H2    2    0.453568    0.772247    0.409699    11.00000   -1.20000
AFIX   0
C15   1    0.451550    0.248305    0.824191    11.00000    0.02497    0.01428 =
         0.01762    0.00315    0.00074    0.00626
C14   1    0.396475    0.379394    0.841309    11.00000    0.02507    0.01548 =
         0.01608    0.00752    0.00425    0.00582
C12   1    0.240611    0.558687    0.895925    11.00000    0.02349    0.01756 =
         0.02334    0.00804    0.00596    0.00958
AFIX  43
H12   2    0.134473    0.601861    0.921436    11.00000   -1.20000
AFIX   0
C2    1    0.230666    0.789494    0.618318    11.00000    0.02109    0.01723 =
         0.02193    0.00833    0.00307    0.00622
C3    1    0.047902    0.752774    0.667644    11.00000    0.02527    0.02870 =
         0.02805    0.01389    0.00794    0.00602
AFIX  43
H3    2    0.060208    0.793370    0.749395    11.00000   -1.20000
AFIX   0
C13   1    0.217679    0.418559    0.878265    11.00000    0.02305    0.01878 =
         0.02302    0.00858    0.00603    0.00681
AFIX  43
H13   2    0.094107    0.358981    0.890436    11.00000   -1.20000
AFIX   0
C1    1    0.554476    0.886486    0.584546    11.00000    0.02300    0.02169 =
         0.02152    0.01120    0.00919    0.01188
C10   1    0.524265    0.772458    0.884340    11.00000    0.03149    0.01627 =
         0.01391    0.00682    0.00091    0.00562
C11   1    0.436568    0.624336    0.871361    11.00000    0.02570    0.01518 =
         0.01645    0.00625    0.00308    0.00688
C7    1    0.209719    0.727167    0.495502    11.00000    0.02682    0.02120 =
         0.02345    0.00956    0.00362    0.00932
C8    1    0.792095    0.978404    0.601830    11.00000    0.02063    0.02732 =
         0.02492    0.01264    0.00961    0.00963
AFIX  23
H8A   2    0.893879    0.962705    0.656798    11.00000   -1.20000
H8B   2    0.800481    1.076458    0.638533    11.00000   -1.20000
AFIX   0
C9    1    0.876494    0.953860    0.487566    11.00000    0.02255    0.02429 =
         0.02643    0.01170    0.01113    0.01070
AFIX  23
H9A   2    0.863482    0.855198    0.448609    11.00000   -1.20000
H9B   2    0.780931    0.974580    0.433757    11.00000   -1.20000
AFIX   0
C5    1   -0.170935    0.590148    0.467542    11.00000    0.02570    0.02805 =
         0.04254    0.01442   -0.00775   -0.00126
AFIX  43
H5    2   -0.308490    0.522650    0.418340    11.00000   -1.20000
AFIX   0
C4    1   -0.152567    0.653399    0.589872    11.00000    0.02128    0.03318 =
         0.04555    0.02160    0.00459    0.00376
AFIX  43
H4    2   -0.278833    0.627961    0.619936    11.00000   -1.20000
AFIX   0
C6    1    0.008994    0.624808    0.417441    11.00000    0.03755    0.02587 =
         0.02358    0.00669   -0.00453    0.00675
AFIX  43
H6    2   -0.003050    0.582098    0.335848    11.00000   -1.20000
AFIX   0
H5B   2    1.050485    1.141261    0.910403    11.00000    0.05635
HKLF 4




REM  mm-14_a.res in P-1
REM wR2 = 0.0549, GooF = S = 1.128, Restrained GooF = 1.128 for all data
REM R1 = 0.0208 for 2733 Fo > 4sig(Fo) and 0.0218 for all 2856 data
REM 222 parameters refined using 0 restraints

END

WGHT      0.0291      0.4866

REM Highest difference peak  0.340,  deepest hole -0.753,  1-sigma level  0.108
Q1    1   0.9371  1.0609  0.9408  11.00000  0.05    0.34
Q2    1   1.0000  1.0000  0.5000  10.50000  0.05    0.33
Q3    1   0.5418  0.0774  0.7032  11.00000  0.05    0.32
Q4    1   0.6746  1.1850  0.9425  11.00000  0.05    0.32
Q5    1   0.4278  0.8002  0.7398  11.00000  0.05    0.29
;
_shelx_res_checksum              66523
_shelx_hkl_file
;
  -8  -2   3   29.35    7.30
  -8  -2   4    6.01    4.98
  -8  -2   5  257.97   19.23
  -8  -2   6  111.72   12.77
  -8  -1   0   43.08    8.47
  -8  -1   1    6.19    5.12
  -8  -1   1    1.10    4.81
  -8  -1   2  162.40   15.41
  -8  -1   2  162.89   14.80
  -8  -1   3  103.14   12.28
  -8  -1   4  101.74   12.12
  -8  -1   5   69.59   10.11
  -8  -1   6  179.10   15.96
  -8   0  -2  137.38   14.56
  -8   0  -1  249.52   18.98
  -8   0  -1  245.03   19.48
  -8   0   0  130.88   13.75
  -8   0   0  141.22   14.46
  -8   0   1   68.66   10.17
  -8   0   1   55.46    9.43
  -8   0   2  235.62   17.77
  -8   0   2  208.59   17.33
  -8   0   3  177.81   15.87
  -8   0   4   28.32    7.12
  -8   0   5   63.25    9.44
  -8   1  -2   10.27    5.46
  -8   1  -1  209.00   17.25
  -8   1   0  148.23   14.33
  -8   1   0  164.14   14.95
  -8   1   1   31.07    6.99
  -8   1   1   32.29    7.81
  -8   1   2   43.86    8.06
  -8   1   2   28.63    6.77
  -8   1   3   63.30    9.32
  -8   1   4  288.41   19.95
  -8   2  -4  141.08   14.37
  -8   2  -3   66.16   10.11
  -8   2  -3   60.08    8.88
  -8   2  -3   63.61    9.32
  -8   2  -3   70.92    9.53
  -8   2  -2   52.16    8.91
  -8   2  -1  247.74   18.47
  -8   2   0  237.69   17.76
  -8   2   1   -2.08    4.30
  -8   2   1   -3.14    5.49
  -8   2   2   91.12   10.64
  -8   2   3  184.59   15.28
  -8   3  -4  152.91   13.80
  -8   3  -4  145.23   13.46
  -8   3  -4  129.00   12.73
  -8   3  -3   23.31    6.03
  -8   3  -3   27.45    6.73
  -8   3  -3   22.33    6.25
  -8   3  -2    2.14    4.30
  -8   3  -1   65.70    9.49
  -8   3   0  120.86   12.35
  -8   3   9    8.37    4.34
  -8   4  -5   12.21    5.36
  -8   4  -5    7.12    4.77
  -8   4  -5   23.60    6.42
  -8   4  -4  274.78   19.38
  -8   4  -4  309.78   20.22
  -8   4  -3  106.71   11.27
  -8   4  -3  101.91   11.13
  -8   4  -3   94.28   10.70
  -8   4   8   51.21    7.31
  -8   5   8  300.07   17.69
  -7  -5   2   50.36    8.40
  -7  -5   3  220.13   16.46
  -7  -5   3  212.74   17.65
  -7  -5   4    0.97    4.99
  -7  -5   4    5.73    5.13
  -7  -5   5    6.70    4.88
  -7  -5   6  328.05   21.54
  -7  -5   7  116.84   12.42
  -7  -5   8   -2.13    4.15
  -7  -5   9  171.57   14.86
  -7  -4   0   13.32    5.39
  -7  -4   0   12.65    6.65
  -7  -4   1   63.20    9.45
  -7  -4   1   65.13   10.18
  -7  -4   2  457.99   25.01
  -7  -4   2  458.44   27.07
  -7  -4   3  266.08   18.38
  -7  -4   3  275.57   20.04
  -7  -4   4   17.36    6.05
  -7  -4   4   21.44    6.35
  -7  -4   5   70.41    9.96
  -7  -4   6  252.37   18.61
  -7  -4   7    9.61    5.00
  -7  -4   8   18.04    5.60
  -7  -4  11   11.25    5.50
  -7  -3  -2   52.40   10.08
  -7  -3  -1   97.85   12.48
  -7  -3  -1   92.98   11.09
  -7  -3   0   83.46   10.51
  -7  -3   0   78.93   11.24
  -7  -3   1   14.94    5.50
  -7  -3   1    4.78    5.60
  -7  -3   2  161.28   14.25
  -7  -3   2  165.13   15.35
  -7  -3   3  233.74   18.14
  -7  -3   3  243.31   17.57
  -7  -3   4  142.18   13.71
  -7  -3   4  109.33   11.82
  -7  -3   5   -1.08    3.94
  -7  -3   6  171.42   14.87
  -7  -3   7  304.34   20.35
  -7  -3   8   61.31    9.37
  -7  -3  10  253.54   16.91
  -7  -3  11  155.19   13.19
  -7  -2  -3   -0.90    4.50
  -7  -2  -3   -0.91    4.54
  -7  -2  -3   -3.62    4.99
  -7  -2  -3   -3.91    5.83
  -7  -2  -3    1.10    4.78
  -7  -2  -2  140.16   12.54
  -7  -2  -2  118.08   12.75
  -7  -2  -2  108.80   13.37
  -7  -2  -2  134.21   12.12
  -7  -2  -2  158.79   13.10
  -7  -2  -1  176.74   15.09
  -7  -2  -1  198.43   17.01
  -7  -2   0  145.91   13.38
  -7  -2   0  131.98   13.94
  -7  -2   1   14.74    5.61
  -7  -2   1   17.29    6.07
  -7  -2   2  208.55   17.27
  -7  -2   2  245.67   17.28
  -7  -2   3  225.67   16.64
  -7  -2   3  222.24   17.52
  -7  -2   4    4.28    3.91
  -7  -2   5   27.37    6.85
  -7  -2   6  319.53   20.87
  -7  -2   7   58.61    8.87
  -7  -2   9   56.58    7.75
  -7  -2  10   68.43    8.93
  -7  -2  11  191.75   14.55
  -7  -1  -5  256.23   20.35
  -7  -1  -4   41.00    8.66
  -7  -1  -4   43.21    7.60
  -7  -1  -4   49.67    7.97
  -7  -1  -4   45.43    7.82
  -7  -1  -3    5.41    5.28
  -7  -1  -3   -2.69    5.61
  -7  -1  -3    4.97    5.43
  -7  -1  -3    4.48    4.95
  -7  -1  -3   10.86    5.30
  -7  -1  -2    7.33    4.58
  -7  -1  -2   16.67    5.14
  -7  -1  -2    7.23    4.85
  -7  -1  -2    6.14    4.53
  -7  -1  -2    6.19    4.57
  -7  -1  -1  135.15   13.00
  -7  -1  -1  128.46   13.66
  -7  -1   0   69.29    9.60
  -7  -1   0   70.25   10.01
  -7  -1   1   25.29    6.38
  -7  -1   1   19.35    5.93
  -7  -1   2   21.90    5.75
  -7  -1   2   19.35    5.68
  -7  -1   3   83.09   10.13
  -7  -1   3   96.80   11.03
  -7  -1   4  138.57   13.18
  -7  -1   5   41.01    8.08
  -7  -1   6  322.84   20.66
  -7  -1   9   -0.75    3.34
  -7  -1  10  278.17   17.30
  -7  -1  11  323.53   19.27
  -7  -1  12   16.77    5.26
  -7   0  -5  166.85   13.89
  -7   0  -5  152.19   13.44
  -7   0  -5  142.44   13.15
  -7   0  -4  305.52   19.14
  -7   0  -4  276.61   18.38
  -7   0  -4  277.17   20.62
  -7   0  -4  334.35   21.42
  -7   0  -4  274.04   18.54
  -7   0  -3  365.58   22.02
  -7   0  -3  303.34   19.14
  -7   0  -3  293.48   21.18
  -7   0  -3  315.59   19.38
  -7   0  -3  297.61   19.08
  -7   0  -2   24.17    5.83
  -7   0  -2   21.54    6.21
  -7   0  -2   38.35    6.90
  -7   0  -2   26.76    6.12
  -7   0  -2   37.94    7.53
  -7   0  -1  299.35   19.32
  -7   0  -1  236.21   18.28
  -7   0   0  360.56   22.94
  -7   0   0  392.70   22.51
  -7   0   1    6.25    4.43
  -7   0   1    0.95    4.80
  -7   0   2   93.74   10.94
  -7   0   2  101.90   11.18
  -7   0   3  232.71   16.56
  -7   0   3  216.19   16.47
  -7   0   4   90.43   10.55
  -7   0   5   28.91    6.99
  -7   0   6  240.48   17.46
  -7   0   8   54.16    7.14
  -7   0   9   21.95    5.23
  -7   0  10  162.83   13.06
  -7   0  11   80.00    9.32
  -7   0  12   21.65    5.70
  -7   1  -6    2.93    4.57
  -7   1  -6    6.83    4.26
  -7   1  -5  207.35   15.60
  -7   1  -5  190.51   14.95
  -7   1  -5  192.34   15.19
  -7   1  -4  122.10   12.57
  -7   1  -4  118.37   11.83
  -7   1  -4  115.66   11.81
  -7   1  -4  126.42   12.23
  -7   1  -3  196.37   14.73
  -7   1  -3  195.48   14.83
  -7   1  -3  154.61   14.14
  -7   1  -3  155.41   13.50
  -7   1  -2   28.83    6.38
  -7   1  -2   18.65    5.13
  -7   1  -2   19.95    6.00
  -7   1  -2   17.96    5.11
  -7   1  -2   28.91    6.18
  -7   1  -1  169.04   14.15
  -7   1  -1  132.90   13.13
  -7   1   0  309.64   19.37
  -7   1   0  287.63   19.27
  -7   1   1  100.39   11.02
  -7   1   1   90.58   10.33
  -7   1   2   13.41    5.05
  -7   1   2   13.74    5.07
  -7   1   3  360.44   21.48
  -7   1   4  420.65   23.45
  -7   1   5   77.92    9.98
  -7   1   7  455.44   21.16
  -7   1   8  389.02   19.72
  -7   1   9   30.46    6.14
  -7   1  10  256.08   16.30
  -7   1  11  202.63   14.52
  -7   2  -7  207.81   16.43
  -7   2  -7  198.33   15.89
  -7   2  -7  217.77   16.57
  -7   2  -6   69.82    9.48
  -7   2  -6   73.65    9.80
  -7   2  -5   20.42    6.23
  -7   2  -5   13.92    5.14
  -7   2  -5   18.74    5.58
  -7   2  -4  339.49   19.97
  -7   2  -4  321.43   19.58
  -7   2  -4  314.10   19.16
  -7   2  -4  276.84   19.46
  -7   2  -3  316.26   18.94
  -7   2  -3  294.09   18.45
  -7   2  -3  309.66   20.14
  -7   2  -3  295.87   18.42
  -7   2  -2   14.24    5.05
  -7   2  -2   19.23    5.80
  -7   2  -2   15.78    5.14
  -7   2  -2   12.46    4.81
  -7   2  -1  189.27   15.04
  -7   2  -1  222.90   15.99
  -7   2   0  570.39   27.24
  -7   2   0  489.20   25.85
  -7   2   1  155.34   13.51
  -7   2   1  185.88   14.32
  -7   2   2   48.24    7.78
  -7   2   2   57.49    8.25
  -7   2   3  541.51   26.79
  -7   2   4  427.76   23.32
  -7   2   7  136.74   10.81
  -7   2   8   95.99    9.16
  -7   2   9   20.32    4.89
  -7   2  10   29.14    6.04
  -7   2  11   34.81    6.34
  -7   3  -7  100.90   11.19
  -7   3  -7  114.91   11.97
  -7   3  -7   98.66   11.19
  -7   3  -6    2.88    3.86
  -7   3  -6    4.81    4.20
  -7   3  -6    0.97    3.54
  -7   3  -5   18.53    5.45
  -7   3  -5   28.38    6.48
  -7   3  -5   26.77    6.14
  -7   3  -5   26.57    6.23
  -7   3  -4   48.90    7.62
  -7   3  -4   61.17    8.23
  -7   3  -4   59.23    8.47
  -7   3  -4   53.77    7.88
  -7   3  -3   33.01    6.95
  -7   3  -3   20.96    5.71
  -7   3  -3   29.52    6.27
  -7   3  -3   26.01    6.06
  -7   3  -2    5.68    4.04
  -7   3  -2    7.36    4.31
  -7   3  -2    7.37    4.08
  -7   3  -2    4.05    3.63
  -7   3  -1   28.60    6.28
  -7   3   0  129.67   11.99
  -7   3   1  224.46   15.87
  -7   3   1  245.67   16.13
  -7   3   2   62.40    8.44
  -7   3   6   35.60    5.82
  -7   3   7  356.98   18.30
  -7   3   8  437.12   21.52
  -7   3   9  175.47   12.93
  -7   3  10   40.80    6.64
  -7   3  11  217.74   15.13
  -7   4  -8   29.24    7.02
  -7   4  -8   17.94    6.38
  -7   4  -8   26.14    6.57
  -7   4  -7  302.80   20.12
  -7   4  -7  299.52   19.91
  -7   4  -7  333.40   20.68
  -7   4  -6  315.81   19.76
  -7   4  -6  279.30   18.92
  -7   4  -6  313.83   19.89
  -7   4  -5   15.25    5.20
  -7   4  -5   15.26    5.20
  -7   4  -5   19.90    5.46
  -7   4  -4  189.42   14.44
  -7   4  -4  188.55   14.42
  -7   4  -4  185.86   14.22
  -7   4  -3  344.75   19.45
  -7   4  -3  313.17   18.69
  -7   4  -3  333.79   19.28
  -7   4  -2  187.13   13.84
  -7   4  -2  185.22   13.95
  -7   4  -2  203.30   14.26
  -7   4   6   -1.87    4.34
  -7   4   7   39.72    6.45
  -7   4   8   67.42    7.96
  -7   4   9   89.10    9.47
  -7   4  10    0.78    3.58
  -7   5  -8   30.12    7.55
  -7   5  -8   40.08    7.54
  -7   5  -8   18.53    5.99
  -7   5  -7  151.63   13.66
  -7   5  -7  160.14   14.02
  -7   5  -7  182.48   14.64
  -7   5  -6   96.95   10.72
  -7   5  -6  107.17   11.13
  -7   5  -6  122.92   11.68
  -7   5  -5   21.15    5.66
  -7   5  -5   13.95    4.99
  -7   5  -5   27.03    6.28
  -7   5  -4   52.95    7.60
  -7   5  -4   48.43    7.32
  -7   5  -4   46.36    7.07
  -7   5  -3  543.44   25.58
  -7   5  -3  550.24   25.71
  -7   5  -3  521.41   25.24
  -7   5   5  690.78   27.87
  -7   5   6   60.87    7.81
  -7   5   7   54.17    7.44
  -7   5   8  387.25   20.32
  -7   5   9  174.23   13.20
  -7   8  -8   92.52   10.27
  -7   8  -8   94.72   10.24
  -7   8  -7  198.73   14.76
  -7   8  -7  209.72   15.00
  -7   8  -6  275.29   17.07
  -7   8  -6  253.93   16.72
  -7   8  -5  102.72    9.96
  -7   8  -5   98.64    9.89
  -7   8  -4   18.94    5.16
  -7   8  -4   23.92    5.51
  -7   9  -8   60.12    8.59
  -7   9  -8   62.55    8.64
  -7   9  -7   92.22   10.11
  -7   9  -7  107.54   11.05
  -7   9  -6  165.97   13.42
  -7   9  -6  176.82   13.57
  -7   9  -5  214.91   14.97
  -7   9  -5  238.96   15.81
  -7   9   4   11.58    4.47
  -7   9   5  297.11   17.89
  -7   9   6  342.28   19.58
  -7  10  -7   26.19    6.60
  -7  10  -7   46.73    7.99
  -7  10  -6  233.93   16.37
  -7  10  -6  240.38   16.64
  -7  10   4   39.33    6.96
  -7  11  -7    5.60    3.98
  -7  11  -7   12.07    4.88
  -7  12  -2  163.92   14.32
  -6  -8   5  412.24   23.90
  -6  -7   2   25.73    6.76
  -6  -7   3   71.53    9.83
  -6  -7   4    1.05    3.69
  -6  -7   5   92.82   11.01
  -6  -7   6   34.75    6.91
  -6  -7   7   75.47    9.61
  -6  -7  10   85.92   10.87
  -6  -7  11   36.53    7.41
  -6  -6  -1  323.55   20.19
  -6  -6   0   38.85    8.20
  -6  -6   0   42.49    7.41
  -6  -6   1   50.44    7.70
  -6  -6   1   36.46    8.40
  -6  -6   2  261.30   17.58
  -6  -6   2  286.34   19.95
  -6  -6   3  401.96   24.08
  -6  -6   3  391.42   21.67
  -6  -6   4    0.86    4.18
  -6  -6   4    1.04    3.92
  -6  -6   5  168.84   13.46
  -6  -6   5  148.88   13.71
  -6  -6   6  295.28   19.36
  -6  -6   7   71.92    9.32
  -6  -6   8   32.15    6.77
  -6  -6   9  203.82   15.56
  -6  -6   9  205.04   15.71
  -6  -6  10  162.34   13.99
  -6  -6  11    8.96    4.77
  -6  -6  12    5.16    4.39
  -6  -5  -2  142.33   14.49
  -6  -5  -2  103.61   11.39
  -6  -5  -1  158.73   15.36
  -6  -5  -1  163.48   13.83
  -6  -5   0   29.27    6.29
  -6  -5   0   23.07    6.41
  -6  -5   1    6.25    4.18
  -6  -5   1    3.34    4.62
  -6  -5   2   66.33    8.51
  -6  -5   2   58.20    9.08
  -6  -5   3  111.68   12.15
  -6  -5   3  131.33   11.94
  -6  -5   4   91.43   10.83
  -6  -5   4  107.90   10.63
  -6  -5   5    1.98    3.98
  -6  -5   6   50.11    7.98
  -6  -5   7  494.59   25.67
  -6  -5   8   61.21    8.68
  -6  -5   9   85.52    9.67
  -6  -5   9   87.41   10.43
  -6  -5  10  444.06   24.11
  -6  -5  11  206.05   16.02
  -6  -5  12    6.91    4.82
  -6  -4  -4  448.48   27.58
  -6  -4  -3   -0.81    4.95
  -6  -4  -3    2.51    4.57
  -6  -4  -3   -6.50    5.66
  -6  -4  -3   -4.10    5.06
  -6  -4  -2   79.79    9.10
  -6  -4  -2   95.76    9.93
  -6  -4  -2   82.11    9.11
  -6  -4  -2   85.64   11.22
  -6  -4  -1  389.70   24.26
  -6  -4  -1  379.80   21.94
  -6  -4   0  373.69   21.33
  -6  -4   0  380.87   23.50
  -6  -4   1   20.54    6.08
  -6  -4   1   16.68    5.37
  -6  -4   2  390.25   23.12
  -6  -4   2  372.70   21.08
  -6  -4   3  459.53   23.83
  -6  -4   3  507.86   26.46
  -6  -4   4    8.89    4.63
  -6  -4   4   11.76    4.99
  -6  -4   5  144.09   13.14
  -6  -4   6  239.00   17.04
  -6  -4   7  392.59   22.21
  -6  -4   8   13.14    5.27
  -6  -4   8   10.78    4.33
  -6  -4   9   40.79    6.89
  -6  -4  10  103.09   10.80
  -6  -4  11  124.86   12.06
  -6  -4  12   12.24    5.21
  -6  -4  13   47.85    8.13
  -6  -3  -5  278.07   17.89
  -6  -3  -5  316.40   18.85
  -6  -3  -5  304.78   18.69
  -6  -3  -5  270.61   21.32
  -6  -3  -4  222.18   15.33
  -6  -3  -4  232.71   15.67
  -6  -3  -4  205.20   18.02
  -6  -3  -4  213.79   15.12
  -6  -3  -3   38.60    7.14
  -6  -3  -3   39.37    7.22
  -6  -3  -3   52.02    9.65
  -6  -3  -3   34.04    6.75
  -6  -3  -2    1.16    4.81
  -6  -3  -2    0.79    3.75
  -6  -3  -2    1.58    3.62
  -6  -3  -2    3.93    3.91
  -6  -3  -1  230.49   15.68
  -6  -3  -1  242.31   15.85
  -6  -3  -1  273.56   17.63
  -6  -3  -1  259.10   19.20
  -6  -3  -1  257.71   16.17
  -6  -3   0  240.43   18.04
  -6  -3   0  246.19   16.79
  -6  -3   1  106.12   11.51
  -6  -3   1  102.42   10.53
  -6  -3   2  164.46   12.95
  -6  -3   2  131.32   13.05
  -6  -3   3  455.18   22.96
  -6  -3   3  409.28   23.63
  -6  -3   4  381.21   21.97
  -6  -3   4  374.27   20.64
  -6  -3   5   27.14    6.24
  -6  -3   6  404.08   22.55
  -6  -3   7  926.56   38.26
  -6  -3   7  908.32   35.08
  -6  -3   8  246.51   15.55
  -6  -3   8  269.42   17.88
  -6  -3   9   -0.77    3.43
  -6  -3  10  434.72   22.58
  -6  -3  11  607.58   28.64
  -6  -3  12   85.98    9.85
  -6  -3  13   88.69   10.22
  -6  -2  -6   -3.90    4.74
  -6  -2  -6   -0.88    4.21
  -6  -2  -6    4.44    3.97
  -6  -2  -6    4.41    4.03
  -6  -2  -5   94.05   11.90
  -6  -2  -5   88.07    9.68
  -6  -2  -5   74.72    9.10
  -6  -2  -5   89.94    9.68
  -6  -2  -4  272.20   20.76
  -6  -2  -4  305.41   18.31
  -6  -2  -4  320.21   18.55
  -6  -2  -4  293.51   18.11
  -6  -2  -3   50.63    7.69
  -6  -2  -3   63.01    8.28
  -6  -2  -3   65.83    9.69
  -6  -2  -3   60.17    8.11
  -6  -2  -2   16.15    4.76
  -6  -2  -2   10.08    4.02
  -6  -2  -2   13.29    5.62
  -6  -2  -2   11.54    4.19
  -6  -2  -1  331.15   19.80
  -6  -2  -1  350.25   19.08
  -6  -2  -1  370.51   19.49
  -6  -2  -1  297.59   20.72
  -6  -2  -1  353.40   19.26
  -6  -2   0  241.67   17.84
  -6  -2   0  279.23   17.56
  -6  -2   1   71.39    8.94
  -6  -2   1   76.56    9.71
  -6  -2   2  120.36   11.18
  -6  -2   2  119.54   12.00
  -6  -2   3  514.43   26.63
  -6  -2   3  552.07   25.75
  -6  -2   4  408.27   21.20
  -6  -2   4  352.82   21.18
  -6  -2   5    4.54    3.97
  -6  -2   6  329.51   19.81
  -6  -2   7  433.89   20.54
  -6  -2   7  409.07   22.80
  -6  -2   8  101.23    9.38
  -6  -2   9    1.45    3.40
  -6  -2  10   50.40    7.50
  -6  -2  11  220.99   15.54
  -6  -2  12   14.63    5.32
  -6  -2  13   18.89    5.78
  -6  -1  -7  133.92   14.76
  -6  -1  -7  175.13   14.33
  -6  -1  -7  158.48   13.57
  -6  -1  -7  190.76   14.85
  -6  -1  -6    3.53    3.75
  -6  -1  -6    3.70    3.99
  -6  -1  -6    2.66    3.78
  -6  -1  -6    5.28    4.21
  -6  -1  -5   94.41   10.05
  -6  -1  -5   62.81   10.01
  -6  -1  -5   89.44    9.66
  -6  -1  -5   91.21    9.84
  -6  -1  -4   99.98   11.90
  -6  -1  -4  109.29   10.72
  -6  -1  -4  120.68   11.05
  -6  -1  -4  144.82   12.08
  -6  -1  -3   32.67    7.11
  -6  -1  -3   34.16    6.41
  -6  -1  -3   38.84    7.05
  -6  -1  -3   34.47    6.19
  -6  -1  -2    0.76    3.77
  -6  -1  -2    1.50    3.88
  -6  -1  -2    2.25    3.52
  -6  -1  -2    5.22    3.95
  -6  -1  -1   45.39    6.55
  -6  -1  -1   45.39    6.59
  -6  -1  -1   37.65    6.32
  -6  -1  -1   30.22    7.03
  -6  -1  -1   32.84    6.50
  -6  -1   0   47.00    7.28
  -6  -1   0   40.82    7.44
  -6  -1   1   45.19    7.26
  -6  -1   1   39.34    6.69
  -6  -1   2    2.42    3.85
  -6  -1   2   10.07    4.65
  -6  -1   3   52.11    7.51
  -6  -1   3   70.05    8.87
  -6  -1   4  287.33   18.16
  -6  -1   5  242.57   16.50
  -6  -1   6    1.69    3.06
  -6  -1   6    0.89    4.33
  -6  -1   7  350.86   17.67
  -6  -1   8  476.73   22.04
  -6  -1   9   51.07    7.10
  -6  -1  10  114.49   10.44
  -6  -1  11  481.80   23.82
  -6  -1  12  121.25   11.18
  -6  -1  13   -0.87    4.08
  -6   0  -8  118.02   12.02
  -6   0  -8  106.47   11.55
  -6   0  -8   97.01   10.70
  -6   0  -7  264.14   18.07
  -6   0  -7  279.55   18.26
  -6   0  -7  301.96   18.84
  -6   0  -6  225.24   15.69
  -6   0  -6  198.34   14.84
  -6   0  -6  207.90   15.22
  -6   0  -6  207.18   17.37
  -6   0  -5   27.57    6.07
  -6   0  -5   12.14    5.83
  -6   0  -5   20.07    5.26
  -6   0  -5   23.60    5.54
  -6   0  -4  475.87   23.35
  -6   0  -4  474.76   23.30
  -6   0  -4  406.92   24.79
  -6   0  -4  463.95   23.07
  -6   0  -3  575.90   29.67
  -6   0  -3  651.94   28.21
  -6   0  -3  598.51   27.40
  -6   0  -3  672.62   28.51
  -6   0  -2   47.77    7.89
  -6   0  -2   54.96    7.27
  -6   0  -2   54.67    7.15
  -6   0  -2   44.31    7.26
  -6   0  -2   41.06    6.65
  -6   0  -1  352.98   18.88
  -6   0  -1  354.09   18.93
  -6   0  -1  373.79   19.21
  -6   0  -1  385.40   20.96
  -6   0  -1  325.19   20.40
  -6   0   0 1050.98   39.99
  -6   0   0  979.64   40.79
  -6   0   1  389.67   22.12
  -6   0   1  467.40   22.61
  -6   0   2   19.65    4.69
  -6   0   2   13.81    4.79
  -6   0   3  367.05   19.67
  -6   0   3  338.23   20.05
  -6   0   4  554.55   26.50
  -6   0   5  232.70   15.93
  -6   0   5  229.04   12.72
  -6   0   6   13.63    3.85
  -6   0   7   53.22    6.68
  -6   0   8  248.20   14.86
  -6   0   9   15.64    4.57
  -6   0  10    4.35    3.75
  -6   0  11  117.03   11.11
  -6   0  12   51.27    7.66
  -6   0  13   35.85    6.98
  -6   1  -9   -2.03    4.54
  -6   1  -9    3.02    4.28
  -6   1  -9   -5.04    4.40
  -6   1  -8   68.37    9.57
  -6   1  -8   69.19    9.46
  -6   1  -8   97.84   11.21
  -6   1  -7   96.93   11.00
  -6   1  -7  119.96   11.69
  -6   1  -7   99.66   11.10
  -6   1  -6   18.21    5.77
  -6   1  -6   29.82    6.14
  -6   1  -6   17.37    5.32
  -6   1  -5   11.54    4.56
  -6   1  -5   10.70    4.76
  -6   1  -5   10.82    3.99
  -6   1  -4   93.01    9.59
  -6   1  -4   78.81    8.87
  -6   1  -4  100.14    9.90
  -6   1  -3  104.13   10.01
  -6   1  -3  113.77   10.19
  -6   1  -3  113.41   10.36
  -6   1  -3   89.36   10.27
  -6   1  -2   10.79    4.16
  -6   1  -2   19.22    5.23
  -6   1  -2    8.56    3.70
  -6   1  -2    8.56    4.13
  -6   1  -2   12.56    4.72
  -6   1  -1    6.46    3.94
  -6   1  -1    1.40    3.20
  -6   1  -1   13.87    4.71
  -6   1  -1    8.99    4.16
  -6   1  -1    1.38    3.38
  -6   1   0  878.54   34.22
  -6   1   0  754.07   33.52
  -6   1   1   72.21    8.83
  -6   1   1   68.70    8.16
  -6   1   2  278.78   16.50
  -6   1   2  262.29   16.65
  -6   1   3  151.70   12.41
  -6   1   4  538.22   25.84
  -6   1   5  293.66   17.58
  -6   1   5  273.49   14.18
  -6   1   6   77.75    7.34
  -6   1   7  120.32    9.61
  -6   1   8  482.82   22.01
  -6   1   9  126.14   10.63
  -6   1  10    6.48    3.98
  -6   1  11  433.36   22.00
  -6   1  12  127.88   11.57
  -6   1  13   37.09    7.19
  -6   2  -9   45.44    8.15
  -6   2  -9   48.37    8.14
  -6   2  -9   40.67    7.59
  -6   2  -8  133.16   12.58
  -6   2  -8  118.80   12.14
  -6   2  -8  113.20   11.62
  -6   2  -7  388.02   21.85
  -6   2  -7  359.29   21.25
  -6   2  -7  367.62   21.43
  -6   2  -6  274.36   17.47
  -6   2  -6  249.85   16.86
  -6   2  -6  285.42   17.72
  -6   2  -5   15.53    4.81
  -6   2  -5   21.07    4.96
  -6   2  -5   13.76    4.83
  -6   2  -4  414.85   21.20
  -6   2  -4  424.45   21.59
  -6   2  -4  395.38   20.94
  -6   2  -3  794.04   31.84
  -6   2  -3  818.46   32.16
  -6   2  -3  721.85   32.42
  -6   2  -3  764.84   31.62
  -6   2  -2  382.58   20.41
  -6   2  -2  384.02   19.41
  -6   2  -2  366.17   19.11
  -6   2  -2  330.76   19.46
  -6   2  -2  360.21   19.01
  -6   2  -1  436.86   21.05
  -6   2  -1  421.26   22.08
  -6   2  -1  439.24   21.17
  -6   2  -1  478.53   22.79
  -6   2  -1  433.09   21.03
  -6   2   0 1076.12   40.80
  -6   2   0 1056.14   40.41
  -6   2   1 1073.22   40.09
  -6   2   1 1042.03   39.86
  -6   2   2  142.96   11.62
  -6   2   2  153.28   11.78
  -6   2   3  806.90   32.99
  -6   2   4 1032.39   35.38
  -6   2   5  112.03    8.57
  -6   2   6    3.83    2.97
  -6   2   7  347.74   17.39
  -6   2   8  139.88   10.67
  -6   2   9  102.26    9.26
  -6   2  10   -3.60    3.44
  -6   2  11   51.67    7.36
  -6   2  12   83.33    9.26
  -6   2  13  165.55   13.15
  -6   3 -10  185.16   16.10
  -6   3 -10  201.90   16.32
  -6   3 -10  202.70   16.55
  -6   3  -9    6.04    4.91
  -6   3  -9    1.01    4.50
  -6   3  -9   10.13    5.04
  -6   3  -8   32.61    7.20
  -6   3  -8   44.67    7.94
  -6   3  -8   40.95    7.62
  -6   3  -7  187.10   14.95
  -6   3  -7  181.84   14.44
  -6   3  -7  189.37   14.73
  -6   3  -6   13.60    4.71
  -6   3  -6   12.65    4.60
  -6   3  -6   22.74    5.47
  -6   3  -5   14.39    4.94
  -6   3  -5    7.12    4.31
  -6   3  -5    4.76    3.79
  -6   3  -4   85.60    9.03
  -6   3  -4  101.34    9.82
  -6   3  -4  101.70    9.76
  -6   3  -3   78.18    8.71
  -6   3  -3   78.80    8.45
  -6   3  -3   74.56    8.28
  -6   3  -3   68.90    8.07
  -6   3  -2  129.52   10.57
  -6   3  -2  157.36   12.15
  -6   3  -2  145.05   11.01
  -6   3  -2  135.31   10.77
  -6   3  -1   12.98    4.39
  -6   3  -1    4.58    3.32
  -6   3  -1    6.49    3.64
  -6   3  -1   -0.74    3.74
  -6   3  -1    5.66    3.79
  -6   3   0   15.86    4.62
  -6   3   0    3.49    3.67
  -6   3   1  402.69   20.95
  -6   3   1  473.57   21.75
  -6   3   2  428.47   21.03
  -6   3   4  129.29    9.07
  -6   3   5  703.45   27.01
  -6   3   6   87.08    8.12
  -6   3   7  261.10   14.71
  -6   3   8  647.33   26.98
  -6   3   9  328.05   17.86
  -6   3  10   -2.90    4.58
  -6   3  11  238.44   15.72
  -6   3  12  293.52   17.78
  -6   4 -10  199.92   16.39
  -6   4 -10  195.33   16.26
  -6   4 -10  208.56   16.63
  -6   4  -9  209.18   16.58
  -6   4  -9  206.10   16.37
  -6   4  -9  226.34   16.80
  -6   4  -8   15.02    5.58
  -6   4  -8   11.35    5.31
  -6   4  -8   14.06    5.27
  -6   4  -7  272.39   17.63
  -6   4  -7  260.81   17.50
  -6   4  -7  253.23   17.13
  -6   4  -6  661.20   29.99
  -6   4  -6  723.43   30.95
  -6   4  -6  696.79   30.55
  -6   4  -5  230.41   15.39
  -6   4  -5  242.82   15.67
  -6   4  -5  263.83   16.11
  -6   4  -4  136.61   11.39
  -6   4  -4  135.06   11.58
  -6   4  -4  176.10   12.44
  -6   4  -4  158.16   11.98
  -6   4  -3 1115.07   41.36
  -6   4  -3 1091.88   41.76
  -6   4  -3 1163.54   41.83
  -6   4  -3 1192.90   41.96
  -6   4  -2  365.79   18.44
  -6   4  -2  369.27   18.60
  -6   4  -2  341.00   18.58
  -6   4  -2  358.04   18.30
  -6   4  -1  190.18   12.48
  -6   4  -1  164.24   11.79
  -6   4  -1  185.31   12.72
  -6   4  -1  199.60   12.73
  -6   4   0  356.81   18.69
  -6   4   1  374.20   18.65
  -6   4   3   35.63    4.61
  -6   4   4    3.04    3.28
  -6   4   5  418.54   19.01
  -6   4   6   30.30    5.37
  -6   4   7    8.71    4.12
  -6   4   8  124.37   10.43
  -6   4   9  133.86   11.09
  -6   4  10  118.34   10.77
  -6   4  11    3.88    4.28
  -6   4  12   65.68    8.59
  -6   5 -11   59.69    9.47
  -6   5 -11   50.44    8.70
  -6   5 -11   63.53    9.74
  -6   5 -10  162.47   14.65
  -6   5 -10  183.21   15.42
  -6   5 -10  192.38   15.67
  -6   5  -9  135.32   12.97
  -6   5  -9  161.80   14.12
  -6   5  -9  141.44   13.14
  -6   5  -8   70.45    9.45
  -6   5  -8   88.36   10.05
  -6   5  -8   69.88    9.16
  -6   5  -7   53.20    7.87
  -6   5  -7   36.37    7.43
  -6   5  -7   52.45    7.84
  -6   5  -6  758.88   31.93
  -6   5  -6  731.95   31.61
  -6   5  -6  729.35   31.63
  -6   5  -5  108.09    9.98
  -6   5  -5   80.62    9.04
  -6   5  -5  110.68   10.31
  -6   5  -4   24.37    5.11
  -6   5  -4   22.95    5.15
  -6   5  -4   11.93    4.14
  -6   5  -3  417.80   20.31
  -6   5  -3  458.59   20.98
  -6   5  -3  415.32   20.25
  -6   5  -2  759.76   30.38
  -6   5  -2  814.53   30.96
  -6   5  -2  798.14   30.80
  -6   5   3   40.16    5.34
  -6   5   4   31.23    5.16
  -6   5   5 1125.25   39.53
  -6   5   6  283.06   15.63
  -6   5   7   12.33    4.66
  -6   5   8  382.83   18.97
  -6   5   8  378.84   19.52
  -6   5   9  636.29   27.25
  -6   5   9  588.57   25.95
  -6   5  10  134.22   11.60
  -6   5  10  129.04   10.95
  -6   5  11   36.47    6.89
  -6   5  11   29.46    5.91
  -6   6 -11    3.23    4.71
  -6   6 -11   -1.08    4.58
  -6   6 -11    5.43    4.24
  -6   6 -10   98.67   11.36
  -6   6 -10  112.02   12.06
  -6   6 -10  111.08   11.99
  -6   6  -9  138.82   11.93
  -6   6  -9  158.75   12.78
  -6   6  -9  111.89   12.08
  -6   6  -9  164.48   13.94
  -6   6  -9  150.29   13.44
  -6   6  -8   26.81    6.14
  -6   6  -8   27.70    5.85
  -6   6  -8   18.91    5.66
  -6   6  -8   30.91    6.02
  -6   6  -8   19.62    5.61
  -6   6  -7    9.59    4.61
  -6   6  -7    8.32    4.14
  -6   6  -7    3.32    3.63
  -6   6  -7    3.35    4.09
  -6   6  -7    8.81    4.18
  -6   6  -6  682.25   28.73
  -6   6  -6  685.53   28.75
  -6   6  -5  278.04   15.93
  -6   6  -5  288.74   16.27
  -6   6  -4   40.67    5.93
  -6   6  -4   40.47    6.17
  -6   6  -3  308.68   15.98
  -6   6  -3  289.08   15.61
  -6   6  -2 1014.18   36.53
  -6   6  -2 1052.79   36.88
  -6   6  -1  271.39   14.04
  -6   6  -1  258.44   13.86
  -6   6   3    5.65    3.17
  -6   6   4   91.93    8.41
  -6   6   5  294.72   15.98
  -6   6   6   98.82    8.90
  -6   6   7    9.39    3.93
  -6   6   8    9.07    4.03
  -6   6   9  145.16   11.75
  -6   6  10   52.90    7.32
  -6   7 -11   44.25    7.45
  -6   7 -11   58.15    8.04
  -6   7 -10  257.02   16.79
  -6   7 -10  227.33   15.91
  -6   7  -9   58.82    8.09
  -6   7  -9   61.84    8.33
  -6   7  -8   -0.79    3.08
  -6   7  -8    0.79    3.79
  -6   7  -7   53.09    7.48
  -6   7  -7   61.09    7.83
  -6   7  -6  157.51   12.08
  -6   7  -6  180.72   12.91
  -6   7  -5   12.93    4.11
  -6   7  -5   14.21    4.09
  -6   7  -4   15.28    4.28
  -6   7  -4   13.45    4.26
  -6   7  -3   19.79    4.45
  -6   7  -3   17.88    4.38
  -6   7  -2  146.02   10.16
  -6   7  -2  146.41   10.35
  -6   7   2  508.74   22.52
  -6   7   3  373.62   18.44
  -6   7   4   15.34    4.16
  -6   7   5  533.78   23.83
  -6   7   6  653.81   27.87
  -6   7   7   82.19    9.03
  -6   7   8   33.75    6.53
  -6   7   9  325.51   18.69
  -6   7  10  226.17   15.50
  -6   8 -11    5.47    4.17
  -6   8 -11    4.57    4.37
  -6   8 -10  178.60   14.35
  -6   8 -10  216.91   15.54
  -6   8  -9  375.39   21.12
  -6   8  -9  367.76   20.70
  -6   8  -8  310.57   18.75
  -6   8  -8  318.64   18.77
  -6   8  -7    0.78    3.96
  -6   8  -7   -0.79    3.76
  -6   8  -6  581.64   26.30
  -6   8  -6  579.80   26.39
  -6   8  -5  319.26   17.68
  -6   8  -5  323.94   17.76
  -6   8  -4  120.46   10.09
  -6   8  -4  125.02   10.18
  -6   8  -3  106.36    9.06
  -6   8  -3  111.33    9.44
  -6   8  -1   96.15    9.65
  -6   8   0   -0.73    3.03
  -6   8   2  145.47   10.95
  -6   8   3   36.99    6.17
  -6   8   4   12.40    4.95
  -6   8   5  200.98   13.70
  -6   8   6   14.06    4.81
  -6   8   7   71.21    8.41
  -6   8   8   -0.80    3.81
  -6   9 -10   60.01    8.66
  -6   9 -10   62.48    8.89
  -6   9  -9  167.30   13.61
  -6   9  -9  137.08   12.52
  -6   9  -8  135.25   12.24
  -6   9  -8  126.79   11.68
  -6   9  -7    0.81    3.63
  -6   9  -7   -1.63    4.22
  -6   9  -6  113.26   10.54
  -6   9  -6  124.11   11.00
  -6   9  -5  104.14    9.76
  -6   9  -5   92.36    9.34
  -6   9  -4  215.41   13.91
  -6   9  -4  197.64   13.53
  -6   9  -2   72.58    8.65
  -6   9  -1  354.01   19.80
  -6   9   0   28.28    5.84
  -6   9   2  305.92   17.44
  -6   9   3  513.68   24.18
  -6   9   4   54.20    7.36
  -6   9   5  130.28   11.18
  -6   9   6  333.96   18.95
  -6   9   7  306.24   18.25
  -6  10 -10   31.47    6.76
  -6  10 -10   31.65    7.12
  -6  10  -9  378.32   22.04
  -6  10  -9  397.80   22.45
  -6  10  -8  388.29   22.11
  -6  10  -8  409.69   22.46
  -6  10  -7    6.82    4.16
  -6  10  -7    5.08    3.88
  -6  10  -6  231.10   15.26
  -6  10  -6  192.91   14.33
  -6  10  -5  705.51   30.03
  -6  10  -5  688.62   29.89
  -6  10  -3   48.68    8.30
  -6  10  -2  605.58   28.58
  -6  10  -1  424.83   22.72
  -6  10   0   16.69    5.30
  -6  10   2  262.13   16.56
  -6  10   3   96.09    9.79
  -6  10   4   10.26    5.00
  -6  10   5   -2.42    4.79
  -6  10   6   85.17    9.79
  -6  11  -9  121.46   12.13
  -6  11  -9  113.02   11.73
  -6  11  -8   34.19    6.88
  -6  11  -8   39.04    7.27
  -6  11  -7   41.58    7.30
  -6  11  -7   37.36    7.08
  -6  11  -6    3.39    3.79
  -6  11  -6    9.27    4.43
  -6  11  -4  258.98   17.79
  -6  11  -3   57.42    8.46
  -6  11  -2   61.12    8.86
  -6  11  -1  314.93   19.69
  -6  11   0  465.47   24.95
  -6  11   3  222.18   15.46
  -6  11   4  139.55   12.21
  -6  12  -9  198.89   15.78
  -6  12  -9  191.08   15.40
  -6  12  -8  251.12   17.83
  -6  12  -8  269.13   18.32
  -6  12  -7   93.25   10.37
  -6  12  -7  101.02   10.55
  -6  12  -4  268.42   18.45
  -6  12  -3   17.86    6.14
  -6  12  -2   70.55    9.74
  -6  12  -1  242.40   17.58
  -6  12   0  252.67   18.18
  -6  12   1    1.01    4.63
  -6  13  -5  102.43   11.79
  -6  13  -4  110.70   11.85
  -6  13  -3   83.83   10.40
  -6  13  -2    4.15    4.53
  -6  13  -1   75.17    9.93
  -6  13   0  306.46   20.35
  -5  -9   9   37.01    7.65
  -5  -9  10  260.37   18.91
  -5  -9  11  148.61   14.63
  -5  -8   0  217.17   17.13
  -5  -8   1   13.59    5.41
  -5  -8   2  221.95   16.96
  -5  -8   3  411.08   23.16
  -5  -8   4    8.48    4.41
  -5  -8   8    2.93    4.95
  -5  -8   9  308.35   20.40
  -5  -8  10  288.41   19.76
  -5  -8  11   55.20    9.03
  -5  -8  12   15.12    5.97
  -5  -7  -2  243.88   18.90
  -5  -7  -1  113.16   12.53
  -5  -7   0   79.88   10.36
  -5  -7   1   18.41    5.49
  -5  -7   2   76.92    9.84
  -5  -7   3  193.15   15.13
  -5  -7   4  236.59   16.48
  -5  -7   5    0.89    3.48
  -5  -7   6  176.64   13.67
  -5  -7   7  252.86   16.59
  -5  -7   7  227.35   16.21
  -5  -7   8  219.78   16.45
  -5  -7   9   72.22    9.92
  -5  -7  10  170.43   14.62
  -5  -7  11  250.68   17.79
  -5  -7  12   70.87    9.75
  -5  -7  13   59.95    9.26
  -5  -6  -4  348.62   23.58
  -5  -6  -3   18.86    6.21
  -5  -6  -2   92.69   11.36
  -5  -6  -1  197.88   16.36
  -5  -6   0  270.96   16.91
  -5  -6   0  278.53   19.05
  -5  -6   1   -1.98    4.11
  -5  -6   1    1.56    3.41
  -5  -6   2  207.75   14.22
  -5  -6   2  195.24   15.37
  -5  -6   3  585.15   28.25
  -5  -6   3  575.25   26.03
  -5  -6   4   79.45    8.57
  -5  -6   4   58.23    8.27
  -5  -6   5   60.93    8.19
  -5  -6   5   49.82    6.98
  -5  -6   6  421.73   22.30
  -5  -6   7  479.73   23.11
  -5  -6   7  370.02   21.05
  -5  -6   8   13.09    4.73
  -5  -6   8   11.04    5.44
  -5  -6   9  160.77   13.31
  -5  -6   9  171.07   13.28
  -5  -6  10   99.24   11.41
  -5  -6  11   56.67    8.88
  -5  -6  12    0.98    3.92
  -5  -6  13   28.11    6.90
  -5  -6  14   60.89    9.04
  -5  -5  -5  193.89   17.19
  -5  -5  -4  124.68   13.55
  -5  -5  -3   -1.15    4.18
  -5  -5  -2  148.62   13.99
  -5  -5  -1   65.77    9.22
  -5  -5  -1   67.15    7.67
  -5  -5  -1   66.61    7.67
  -5  -5  -1   62.49    7.46
  -5  -5   0  195.68   15.27
  -5  -5   0  157.74   12.56
  -5  -5   1   15.23    4.54
  -5  -5   1   18.17    5.69
  -5  -5   2   65.43    7.94
  -5  -5   2   53.52    8.16
  -5  -5   3  211.38   15.28
  -5  -5   3  212.74   14.18
  -5  -5   4  226.54   14.78
  -5  -5   4  241.59   16.22
  -5  -5   5   93.09    9.24
  -5  -5   5  105.47   10.36
  -5  -5   6   60.26    7.87
  -5  -5   6   53.17    7.05
  -5  -5   7  626.70   28.10
  -5  -5   7  598.05   27.12
  -5  -5   8  527.36   25.49
  -5  -5   8  571.61   26.23
  -5  -5   9   29.37    6.20
  -5  -5   9   22.00    5.83
  -5  -5  10  197.28   14.61
  -5  -5  11  439.15   23.51
  -5  -5  12  146.83   13.16
  -5  -5  13  159.37   13.96
  -5  -5  14  194.21   15.60
  -5  -4  -6  120.47   13.61
  -5  -4  -5   46.16    8.56
  -5  -4  -4  234.28   15.08
  -5  -4  -4  255.83   19.03
  -5  -4  -4  218.07   14.59
  -5  -4  -4  221.11   14.65
  -5  -4  -3  253.34   19.10
  -5  -4  -3  279.75   16.30
  -5  -4  -3  285.96   16.44
  -5  -4  -3  266.48   15.97
  -5  -4  -2   14.37    4.34
  -5  -4  -2   19.95    5.80
  -5  -4  -2    6.21    3.51
  -5  -4  -2    8.21    3.60
  -5  -4  -1  245.05   17.60
  -5  -4  -1  240.26   14.69
  -5  -4  -1  247.60   14.89
  -5  -4  -1  261.00   15.26
  -5  -4   0  540.50   27.23
  -5  -4   0  543.88   25.11
  -5  -4   1   72.35    9.26
  -5  -4   1   53.25    7.29
  -5  -4   2  198.58   13.43
  -5  -4   2  175.39   14.00
  -5  -4   3  721.19   31.59
  -5  -4   3  692.63   29.20
  -5  -4   4  388.69   19.79
  -5  -4   4  391.72   21.10
  -5  -4   5    1.42    2.86
  -5  -4   5    1.64    3.66
  -5  -4   5    2.39    3.20
  -5  -4   6  127.32   10.30
  -5  -4   6  152.64   12.20
  -5  -4   7  334.28   18.75
  -5  -4   7  316.10   17.51
  -5  -4   8  152.16   12.55
  -5  -4   8  157.48   12.14
  -5  -4   9    9.86    4.06
  -5  -4  10   30.31    5.98
  -5  -4  11  132.36   11.88
  -5  -4  12  101.64   10.72
  -5  -4  13    2.73    3.77
  -5  -4  14   11.31    5.53
  -5  -4  15  151.36   13.66
  -5  -3  -8  319.99   23.25
  -5  -3  -7  286.54   21.35
  -5  -3  -7  256.47   16.85
  -5  -3  -7  289.12   17.61
  -5  -3  -7  282.23   17.54
  -5  -3  -6   11.12    4.39
  -5  -3  -6   13.37    4.74
  -5  -3  -6    8.55    5.34
  -5  -3  -6    6.30    3.93
  -5  -3  -5  142.00   14.08
  -5  -3  -5  110.91   10.33
  -5  -3  -5  125.04   10.91
  -5  -3  -5  125.15   10.87
  -5  -3  -4  485.66   23.15
  -5  -3  -4  487.22   23.21
  -5  -3  -4  506.64   27.53
  -5  -3  -4  491.52   23.27
  -5  -3  -3  178.05   12.77
  -5  -3  -3  206.82   16.18
  -5  -3  -3  162.96   12.19
  -5  -3  -3  184.97   12.85
  -5  -3  -2   -1.34    3.00
  -5  -3  -2    0.66    4.15
  -5  -3  -2   -6.65    3.67
  -5  -3  -2    1.00    3.90
  -5  -3  -1  256.49   17.92
  -5  -3  -1  268.21   15.54
  -5  -3  -1  301.66   16.17
  -5  -3  -1  292.31   15.97
  -5  -3   0  690.53   27.51
  -5  -3   0  658.14   27.19
  -5  -3   0  615.85   26.68
  -5  -3   0  678.19   28.60
  -5  -3   0  638.76   29.96
  -5  -3   1  275.91   17.63
  -5  -3   1  286.38   16.47
  -5  -3   2    5.61    3.69
  -5  -3   2    5.07    3.96
  -5  -3   3  762.66   32.69
  -5  -3   3  787.30   31.28
  -5  -3   4  742.50   32.11
  -5  -3   4  788.68   31.14
  -5  -3   5  280.71   16.86
  -5  -3   5  271.90   14.60
  -5  -3   6   45.21    6.69
  -5  -3   6   40.75    5.65
  -5  -3   7  811.28   32.94
  -5  -3   7  767.67   30.55
  -5  -3   8  404.77   20.98
  -5  -3   8  377.45   19.35
  -5  -3   9  108.57    9.91
  -5  -3  10  247.28   15.74
  -5  -3  11  579.65   26.75
  -5  -3  12  344.15   19.79
  -5  -3  13   12.12    4.79
  -5  -3  14  181.14   14.71
  -5  -3  15  318.85   19.90
  -5  -2  -9    3.59    4.20
  -5  -2  -9   -2.63    4.80
  -5  -2  -9    1.80    3.82
  -5  -2  -9    4.52    4.32
  -5  -2  -8   38.69    7.08
  -5  -2  -8   37.90    6.79
  -5  -2  -8   26.88    6.34
  -5  -2  -8   35.52    7.98
  -5  -2  -7  216.51   17.74
  -5  -2  -7  199.60   14.58
  -5  -2  -7  205.47   14.77
  -5  -2  -7  196.71   14.54
  -5  -2  -6  122.17   10.85
  -5  -2  -6  100.10   10.09
  -5  -2  -6  119.17   10.87
  -5  -2  -6  107.94   12.36
  -5  -2  -5   13.38    4.66
  -5  -2  -5   12.76    4.29
  -5  -2  -5   19.85    6.10
  -5  -2  -5   11.91    4.13
  -5  -2  -4  381.02   22.96
  -5  -2  -4  410.22   20.23
  -5  -2  -4  387.60   19.89
  -5  -2  -4  382.95   19.81
  -5  -2  -3  537.79   24.10
  -5  -2  -3  544.25   24.30
  -5  -2  -3  516.42   27.03
  -5  -2  -3  550.91   24.28
  -5  -2  -2   76.99    9.58
  -5  -2  -2   83.91    8.23
  -5  -2  -2   79.44    8.00
  -5  -2  -2   73.62    7.65
  -5  -2  -1  300.93   16.01
  -5  -2  -1  296.44   15.95
  -5  -2  -1  268.89   15.31
  -5  -2  -1  269.96   17.71
  -5  -2   0  965.16   38.56
  -5  -2   0  956.45   35.31
  -5  -2   0 1001.62   35.74
  -5  -2   0  898.15   36.16
  -5  -2   0  956.31   35.29
  -5  -2   1 1470.19   52.81
  -5  -2   1 1483.25   51.02
  -5  -2   2  108.92   10.33
  -5  -2   2   99.23    8.91
  -5  -2   3  347.99   19.59
  -5  -2   3  391.54   19.20
  -5  -2   4 1702.86   59.12
  -5  -2   4 1753.21   54.86
  -5  -2   4 1746.11   58.03
  -5  -2   5  272.21   13.86
  -5  -2   5  250.09   15.81
  -5  -2   6  325.38   16.23
  -5  -2   6  344.21   18.74
  -5  -2   7  753.96   31.26
  -5  -2   7  730.58   28.72
  -5  -2   8  321.12   16.94
  -5  -2   9   -0.67    3.13
  -5  -2  10  274.41   16.13
  -5  -2  11  269.97   16.72
  -5  -2  12  299.75   18.03
  -5  -2  13    1.66    3.72
  -5  -2  14   18.10    6.03
  -5  -2  15  221.33   16.18
  -5  -1  -9    2.72    4.24
  -5  -1  -9    7.26    3.86
  -5  -1  -9    1.83    4.28
  -5  -1  -8   89.61   10.00
  -5  -1  -8   99.53   12.14
  -5  -1  -8   86.39    9.82
  -5  -1  -8   99.16   10.40
  -5  -1  -7  304.08   17.97
  -5  -1  -7  268.90   19.84
  -5  -1  -7  284.50   17.63
  -5  -1  -7  295.32   17.87
  -5  -1  -6   14.15    5.93
  -5  -1  -6   22.49    5.05
  -5  -1  -6   17.18    4.72
  -5  -1  -6   20.90    5.09
  -5  -1  -5   43.91    6.61
  -5  -1  -5   42.50    6.47
  -5  -1  -5   39.12    6.39
  -5  -1  -5   56.68    8.96
  -5  -1  -4  369.64   19.24
  -5  -1  -4  372.92   21.94
  -5  -1  -4  373.63   19.47
  -5  -1  -4  416.57   20.03
  -5  -1  -3  176.50   12.13
  -5  -1  -3  139.28   12.67
  -5  -1  -3  161.24   11.64
  -5  -1  -3  194.96   12.55
  -5  -1  -2   42.91    6.20
  -5  -1  -2   44.35    6.05
  -5  -1  -2   36.86    5.57
  -5  -1  -2   46.35    7.13
  -5  -1  -1    1.20    2.88
  -5  -1  -1    0.60    3.11
  -5  -1  -1   -0.83    3.64
  -5  -1  -1    1.21    2.90
  -5  -1   0  447.16   22.78
  -5  -1   0  482.26   21.09
  -5  -1   0  458.82   20.71
  -5  -1   0  442.42   20.49
  -5  -1   0  466.14   21.80
  -5  -1   1  215.98   13.58
  -5  -1   1  221.60   14.81
  -5  -1   2  436.80   20.56
  -5  -1   2  396.34   20.79
  -5  -1   3  200.46   13.77
  -5  -1   3  197.83   12.81
  -5  -1   4  472.67   22.13
  -5  -1   4  425.15   18.13
  -5  -1   5  718.78   26.82
  -5  -1   5  737.78   30.42
  -5  -1   6  171.84   12.37
  -5  -1   6  152.91   10.31
  -5  -1   7    1.11    2.90
  -5  -1   8  968.50   35.43
  -5  -1   9  243.86   14.62
  -5  -1  10    3.40    3.63
  -5  -1  11  491.23   23.31
  -5  -1  12  450.15   22.73
  -5  -1  13   30.53    6.28
  -5  -1  14   44.59    7.39
  -5  -1  15  446.47   23.83
  -5   0 -10   57.49    8.67
  -5   0 -10   50.83    8.05
  -5   0 -10   39.67    7.18
  -5   0  -9  136.85   12.39
  -5   0  -9  145.82   12.76
  -5   0  -9  135.19   12.42
  -5   0  -8   14.67    4.99
  -5   0  -8   10.43    4.96
  -5   0  -8   14.66    4.77
  -5   0  -7  193.28   14.18
  -5   0  -7  173.02   15.05
  -5   0  -7  203.68   14.49
  -5   0  -7  200.79   14.37
  -5   0  -6  391.57   20.19
  -5   0  -6  370.80   19.57
  -5   0  -6  363.21   19.42
  -5   0  -5    0.72    3.28
  -5   0  -5   -0.95    3.34
  -5   0  -5    2.17    3.16
  -5   0  -5    2.88    3.51
  -5   0  -4  207.85   13.45
  -5   0  -4  182.60   14.30
  -5   0  -4  196.07   13.22
  -5   0  -4  210.74   13.55
  -5   0  -3 1266.16   44.11
  -5   0  -3 1192.98   46.41
  -5   0  -3 1278.39   44.25
  -5   0  -3 1243.54   44.04
  -5   0  -2  390.10   18.80
  -5   0  -2  391.41   18.77
  -5   0  -2  394.18   18.79
  -5   0  -2  382.90   20.80
  -5   0  -1   42.90    5.87
  -5   0  -1   30.04    5.83
  -5   0  -1   38.24    5.76
  -5   0  -1   49.68    6.18
  -5   0   0 1866.78   59.61
  -5   0   0 1795.20   61.85
  -5   0   0 1912.91   61.31
  -5   0   0 1875.73   59.60
  -5   0   0 1821.41   59.38
  -5   0   1  485.78   22.98
  -5   0   1  488.63   22.23
  -5   0   2  350.96   17.72
  -5   0   2  326.21   18.00
  -5   0   3  210.52   13.70
  -5   0   3  206.33   10.51
  -5   0   3  202.12   12.98
  -5   0   4 1098.93   40.75
  -5   0   4 1112.80   36.67
  -5   0   5   90.75    7.31
  -5   0   5   98.39    9.25
  -5   0   6   58.11    6.13
  -5   0   7  155.36   10.45
  -5   0   8  546.51   23.22
  -5   0   9  192.68   12.61
  -5   0  10   -0.66    3.60
  -5   0  11   84.78    8.80
  -5   0  12  251.71   15.90
  -5   0  13  121.73   11.05
  -5   0  14   27.29    6.08
  -5   0  15  175.00   13.82
  -5   1 -11  122.73   12.44
  -5   1 -11  137.38   13.18
  -5   1 -11  154.15   13.78
  -5   1 -10  225.85   16.83
  -5   1 -10  231.13   16.88
  -5   1 -10  233.78   17.05
  -5   1  -9   52.89    8.16
  -5   1  -9   54.77    8.12
  -5   1  -9   66.40    8.82
  -5   1  -8   24.23    5.57
  -5   1  -8   21.44    5.58
  -5   1  -8   18.03    5.39
  -5   1  -7  390.56   20.99
  -5   1  -7  427.31   21.51
  -5   1  -7  364.15   20.35
  -5   1  -6  212.84   14.22
  -5   1  -6  212.68   14.38
  -5   1  -6  192.33   15.02
  -5   1  -6  229.90   14.77
  -5   1  -5   66.81    7.68
  -5   1  -5   55.91    7.15
  -5   1  -5   67.38    7.69
  -5   1  -5   65.27    8.55
  -5   1  -4    9.95    3.90
  -5   1  -4   15.11    4.46
  -5   1  -4   17.84    4.76
  -5   1  -4   19.09    4.69
  -5   1  -3  524.22   22.83
  -5   1  -3  471.14   23.62
  -5   1  -3  523.87   22.78
  -5   1  -3  520.04   22.67
  -5   1  -2  857.02   32.24
  -5   1  -2  933.99   32.98
  -5   1  -2  894.91   32.59
  -5   1  -1   51.32    6.98
  -5   1  -1   53.13    6.73
  -5   1  -1   61.34    6.76
  -5   1  -1   51.27    6.32
  -5   1  -1   52.85    6.30
  -5   1   0    7.12    3.21
  -5   1   0    5.98    3.05
  -5   1   0    8.20    3.43
  -5   1   0    7.06    3.05
  -5   1   0    4.08    3.39
  -5   1   1 1311.25   45.05
  -5   1   1 1288.39   45.62
  -5   1   2  709.98   24.19
  -5   1   2  677.61   27.89
  -5   1   2  704.99   28.71
  -5   1   3  232.10   14.08
  -5   1   3  228.75   11.25
  -5   1   4  484.16   22.68
  -5   1   4  525.76   20.09
  -5   1   5  389.59   16.99
  -5   1   6 1185.62   40.00
  -5   1   7    0.53    3.34
  -5   1   8  551.39   23.31
  -5   1   9  964.41   35.60
  -5   1  10  259.78   15.28
  -5   1  11    8.42    4.39
  -5   1  12  599.56   26.82
  -5   1  13  179.57   13.42
  -5   1  14   13.03    4.98
  -5   2 -11   50.55    8.47
  -5   2 -11   47.93    8.20
  -5   2 -11   53.02    8.72
  -5   2 -10  161.46   13.84
  -5   2 -10  191.52   14.97
  -5   2 -10  145.96   13.54
  -5   2  -9  111.82   11.33
  -5   2  -9  103.67   10.83
  -5   2  -9   99.19   10.75
  -5   2  -8   -0.85    3.52
  -5   2  -8   -2.55    3.71
  -5   2  -8   -0.86    3.75
  -5   2  -7  581.51   26.80
  -5   2  -7  591.72   27.05
  -5   2  -7  577.39   26.84
  -5   2  -6  201.40   13.89
  -5   2  -6  174.62   12.93
  -5   2  -6  183.65   13.34
  -5   2  -5  475.03   23.40
  -5   2  -5  536.74   23.67
  -5   2  -5  497.89   23.03
  -5   2  -5  489.37   22.90
  -5   2  -4  224.66   14.92
  -5   2  -4  259.41   14.88
  -5   2  -4  272.25   15.14
  -5   2  -4  270.09   15.11
  -5   2  -3  769.61   29.61
  -5   2  -3  785.85   29.78
  -5   2  -3  744.68   29.36
  -5   2  -3  718.42   30.25
  -5   2  -2  754.72   28.80
  -5   2  -2  717.03   29.74
  -5   2  -2  744.01   28.76
  -5   2  -2  763.13   28.81
  -5   2  -1   34.50    5.61
  -5   2  -1   39.06    5.19
  -5   2  -1   28.38    4.87
  -5   2  -1   35.63    5.24
  -5   2  -1   28.44    5.05
  -5   2   0  449.03   19.69
  -5   2   0  451.41   20.75
  -5   2   0  442.80   19.62
  -5   2   0  457.23   19.86
  -5   2   0  479.03   21.03
  -5   2   1 1623.58   53.62
  -5   2   1 1622.02   53.57
  -5   2   2  234.70   13.59
  -5   2   2  215.37   10.69
  -5   2   2  239.72   13.53
  -5   2   3  320.85   16.58
  -5   2   3  297.90   13.59
  -5   2   4 1636.15   51.21
  -5   2   5  428.28   18.23
  -5   2   6  139.86    9.60
  -5   2   7  563.59   23.13
  -5   2   8  262.99   14.55
  -5   2   9  327.35   16.25
  -5   2   9  335.09   17.17
  -5   2  10   86.31    8.14
  -5   2  10   96.68    9.06
  -5   2  11    4.55    3.04
  -5   2  11   -1.40    3.56
  -5   2  12  123.27   10.86
  -5   2  12  120.76   10.38
  -5   2  13  235.11   15.38
  -5   2  13  235.75   15.65
  -5   2  14   88.53    9.99
  -5   2  14   70.37    9.07
  -5   3 -12    1.08    4.20
  -5   3 -12    6.45    5.14
  -5   3 -12   -1.09    4.75
  -5   3 -11  208.35   16.24
  -5   3 -11  218.65   16.67
  -5   3 -11  196.34   16.06
  -5   3 -10  229.98   17.10
  -5   3 -10  282.25   18.50
  -5   3 -10  259.74   17.73
  -5   3  -9  176.83   14.05
  -5   3  -9  159.47   13.65
  -5   3  -9  164.83   13.65
  -5   3  -8   46.22    7.48
  -5   3  -8   36.96    6.77
  -5   3  -8   52.62    7.73
  -5   3  -7  432.83   22.67
  -5   3  -7  491.48   23.38
  -5   3  -7  458.36   22.73
  -5   3  -6  285.17   16.63
  -5   3  -6  278.27   16.48
  -5   3  -6  310.75   17.17
  -5   3  -5  373.13   18.92
  -5   3  -5  363.87   18.64
  -5   3  -5  370.59   18.91
  -5   3  -4  115.37    9.68
  -5   3  -4  126.94    9.96
  -5   3  -4  103.86    9.31
  -5   3  -3  114.17    8.95
  -5   3  -3  100.75    8.78
  -5   3  -3  102.08    8.77
  -5   3  -3  110.65    8.78
  -5   3  -2  244.11   13.43
  -5   3  -2  240.05   13.90
  -5   3  -2  242.20   13.32
  -5   3  -2  238.18   13.50
  -5   3  -2  240.94   13.32
  -5   3  -1  280.09   14.48
  -5   3  -1  291.03   14.80
  -5   3  -1  282.79   15.19
  -5   3  -1  309.16   15.03
  -5   3  -1  278.59   14.85
  -5   3   0    3.50    2.72
  -5   3   0    6.56    2.96
  -5   3   0    5.50    2.97
  -5   3   0    6.07    2.64
  -5   3   0    9.11    3.38
  -5   3   1  130.63    9.87
  -5   3   1  123.94    7.41
  -5   3   1  143.42    9.89
  -5   3   2  389.78   16.39
  -5   3   2  460.66   19.78
  -5   3   3  189.60   10.31
  -5   3   4  145.09    9.05
  -5   3   5  697.32   25.26
  -5   3   5  688.21   25.96
  -5   3   6  652.06   25.19
  -5   3   6  632.26   24.00
  -5   3   7    8.29    3.01
  -5   3   7    5.31    2.98
  -5   3   8  429.48   19.25
  -5   3   8  446.15   20.25
  -5   3   9  475.31   21.73
  -5   3   9  472.69   21.07
  -5   3  10  130.94   10.36
  -5   3  10  152.22   11.38
  -5   3  11   91.55    8.84
  -5   3  11   95.18    9.53
  -5   3  12  174.08   13.00
  -5   3  12  165.95   12.83
  -5   3  13  211.77   14.48
  -5   3  13  190.66   14.04
  -5   4 -12   13.95    6.13
  -5   4 -12   21.45    6.30
  -5   4 -12   22.82    6.72
  -5   4 -11    5.07    4.42
  -5   4 -11    2.06    3.89
  -5   4 -11   -2.03    4.64
  -5   4 -10  221.04   16.33
  -5   4 -10  215.15   16.05
  -5   4 -10  207.52   16.03
  -5   4  -9  423.91   22.90
  -5   4  -9  402.68   22.42
  -5   4  -9  451.38   23.48
  -5   4  -8   49.51    7.36
  -5   4  -8   58.61    7.83
  -5   4  -8   62.53    8.24
  -5   4  -7  102.00    9.98
  -5   4  -7   85.84    8.39
  -5   4  -7  109.50    9.25
  -5   4  -7   96.94    9.72
  -5   4  -7   81.53    9.00
  -5   4  -6  783.55   31.63
  -5   4  -6  794.58   30.46
  -5   4  -6  818.07   32.07
  -5   4  -6  759.08   30.02
  -5   4  -6  797.13   31.93
  -5   4  -5  977.75   35.66
  -5   4  -5  979.04   36.93
  -5   4  -5  997.71   35.84
  -5   4  -5 1000.66   37.28
  -5   4  -5 1054.92   37.55
  -5   4  -4    1.06    2.58
  -5   4  -4   -0.59    2.83
  -5   4  -4    1.58    2.46
  -5   4  -4    4.16    3.23
  -5   4  -4    5.99    2.98
  -5   4  -3  469.84   21.12
  -5   4  -3  501.01   21.18
  -5   4  -3  493.82   21.08
  -5   4  -3  462.11   20.08
  -5   4  -3  464.34   20.15
  -5   4  -3  513.05   21.31
  -5   4  -2 1161.80   38.23
  -5   4  -2 1096.13   39.11
  -5   4  -2 1142.45   38.88
  -5   4  -2 1130.17   38.76
  -5   4  -2 1122.95   38.02
  -5   4  -2 1100.59   38.55
  -5   4  -1  350.19   16.37
  -5   4  -1  352.52   16.91
  -5   4  -1  335.93   16.07
  -5   4  -1  345.65   16.26
  -5   4  -1  361.21   16.39
  -5   4   0  144.90    9.86
  -5   4   0  147.31    9.75
  -5   4   1  402.62   16.71
  -5   4   1  398.49   16.14
  -5   4   2  727.56   25.92
  -5   4   2  711.99   25.68
  -5   4   3   36.48    4.68
  -5   4   3   32.63    4.62
  -5   4   4   17.37    3.53
  -5   4   4   14.87    3.65
  -5   4   5  430.57   18.51
  -5   4   5  435.22   18.94
  -5   4   6  304.15   14.91
  -5   4   6  301.81   15.37
  -5   4   7   76.56    7.73
  -5   4   7   92.60    8.00
  -5   4   8   64.48    7.43
  -5   4   8   73.85    7.40
  -5   4   9  104.34    9.37
  -5   4   9  100.76    8.90
  -5   4  10  165.54   12.24
  -5   4  10  173.03   12.23
  -5   4  11   24.90    5.60
  -5   4  11   26.86    5.93
  -5   4  12   43.34    6.88
  -5   4  12   33.41    6.50
  -5   4  13   93.22    9.97
  -5   4  13  118.13   10.79
  -5   5 -12   56.25    8.86
  -5   5 -12   53.14    9.11
  -5   5 -12   60.36    9.35
  -5   5 -11   51.12    8.22
  -5   5 -11   40.13    7.62
  -5   5 -11   47.73    7.96
  -5   5 -10  293.79   19.26
  -5   5 -10  313.85   19.76
  -5   5 -10  327.63   18.08
  -5   5 -10  326.38   19.80
  -5   5 -10  306.34   17.67
  -5   5  -9  431.56   21.17
  -5   5  -9  432.46   22.93
  -5   5  -9  406.59   22.48
  -5   5  -9  408.82   22.32
  -5   5  -9  428.20   21.00
  -5   5  -8    2.69    3.14
  -5   5  -8    0.81    3.55
  -5   5  -8    2.02    3.23
  -5   5  -8    0.81    3.60
  -5   5  -8    1.61    3.34
  -5   5  -7   71.42    7.80
  -5   5  -7   79.19    8.73
  -5   5  -7   88.69    9.20
  -5   5  -7   87.30    9.18
  -5   5  -7   92.96    8.69
  -5   5  -6  380.46   19.66
  -5   5  -6  395.31   19.73
  -5   5  -6  429.03   19.48
  -5   5  -6  394.48   18.97
  -5   5  -6  368.50   19.24
  -5   5  -5  525.57   22.63
  -5   5  -5  525.99   22.72
  -5   5  -5  485.36   21.52
  -5   5  -5  455.12   21.20
  -5   5  -5  533.73   22.88
  -5   5  -4    6.89    3.24
  -5   5  -4   11.73    3.69
  -5   5  -4   10.77    3.68
  -5   5  -4    7.36    3.55
  -5   5  -4    7.43    3.40
  -5   5  -3  141.14    9.69
  -5   5  -3  136.48    9.39
  -5   5  -3  127.47    9.36
  -5   5  -3  122.84    9.01
  -5   5  -3  144.78    9.76
  -5   5  -2  703.71   26.61
  -5   5  -2  752.96   27.15
  -5   5  -2  706.59   26.63
  -5   5  -2  711.47   26.46
  -5   5  -2  690.81   26.25
  -5   5  -1  409.86   17.64
  -5   5  -1  444.57   18.42
  -5   5  -1  438.10   18.37
  -5   5  -1  420.00   17.76
  -5   5  -1  416.72   18.07
  -5   5   0    5.43    2.96
  -5   5   0    6.24    2.93
  -5   5   1  313.57   14.78
  -5   5   1  324.57   15.26
  -5   5   2  956.04   33.22
  -5   5   3  471.00   19.14
  -5   5   3  424.78   18.64
  -5   5   4   12.48    3.56
  -5   5   4   10.99    3.82
  -5   5   5  180.79   11.35
  -5   5   5  170.39   10.80
  -5   5   6 1192.01   42.71
  -5   5   6 1319.15   43.10
  -5   5   7   77.53    7.99
  -5   5   7   79.43    7.99
  -5   5   8    1.83    2.92
  -5   5   8   -0.64    3.25
  -5   5   9  469.21   22.18
  -5   5   9  480.66   21.97
  -5   5  10  300.73   17.45
  -5   5  10  307.20   17.28
  -5   5  11    0.74    3.62
  -5   5  12  185.44   13.67
  -5   6 -13   99.16   11.75
  -5   6 -13   95.31   11.59
  -5   6 -13   84.70   11.18
  -5   6 -12  212.60   14.84
  -5   6 -12  180.49   15.55
  -5   6 -12  219.43   16.73
  -5   6 -12  165.40   15.01
  -5   6 -12  211.74   14.85
  -5   6 -11  145.38   13.44
  -5   6 -11  127.46   12.68
  -5   6 -11  141.40   13.47
  -5   6 -11  143.15   12.16
  -5   6 -11  147.27   12.16
  -5   6 -10   98.28    9.81
  -5   6 -10  102.31   10.09
  -5   6 -10   94.25   10.60
  -5   6 -10  108.55   11.23
  -5   6 -10   94.33   10.50
  -5   6  -9  368.17   19.50
  -5   6  -9  366.43   20.56
  -5   6  -9  354.46   20.37
  -5   6  -9  323.47   19.83
  -5   6  -8  616.53   26.30
  -5   6  -8  561.05   26.71
  -5   6  -8  581.99   26.70
  -5   6  -8  573.24   26.61
  -5   6  -8  635.95   26.51
  -5   6  -7   80.45    8.66
  -5   6  -7   91.03    8.72
  -5   6  -7  102.99    9.27
  -5   6  -7   87.80    9.08
  -5   6  -7   92.64    9.08
  -5   6  -6  449.78   21.11
  -5   6  -6  486.11   21.33
  -5   6  -6  454.05   20.89
  -5   6  -6  453.09   21.25
  -5   6  -6  424.05   20.78
  -5   6  -5 1185.87   41.01
  -5   6  -5 1139.47   40.74
  -5   6  -5 1148.87   40.77
  -5   6  -5 1189.71   41.00
  -5   6  -5 1176.74   40.98
  -5   6  -4  238.81   13.19
  -5   6  -4  216.66   12.86
  -5   6  -3   28.54    4.83
  -5   6  -3   28.37    4.85
  -5   6  -2 2064.43   63.91
  -5   6  -2 2066.74   63.81
  -5   6  -1  989.80   34.05
  -5   6  -1 1038.81   36.39
  -5   6  -1  991.52   34.11
  -5   6   0   57.83    6.71
  -5   6   1 1602.11   52.12
  -5   6   1 1563.97   50.97
  -5   6   2 1322.95   43.95
  -5   6   2 1304.09   44.60
  -5   6   3  529.77   22.14
  -5   6   4   16.03    4.30
  -5   6   5  486.27   21.54
  -5   6   6  412.23   19.63
  -5   6   7   57.85    7.14
  -5   6   8   32.95    5.89
  -5   6   9  100.75    9.43
  -5   6  10  166.30   12.60
  -5   6  11   57.20    7.77
  -5   7 -13  286.72   20.28
  -5   7 -13  303.25   20.72
  -5   7 -13  367.16   20.34
  -5   7 -13  325.32   19.50
  -5   7 -13  298.49   20.46
  -5   7 -12  215.01   15.17
  -5   7 -12  230.55   15.53
  -5   7 -12  173.85   15.25
  -5   7 -12  163.57   15.04
  -5   7 -12  194.35   15.86
  -5   7 -11    2.46    4.39
  -5   7 -11   -0.82    4.51
  -5   7 -10  147.23   12.21
  -5   7 -10  127.57   11.34
  -5   7  -9  205.70   14.22
  -5   7  -9  194.00   13.73
  -5   7  -8  213.98   14.35
  -5   7  -8  242.90   15.12
  -5   7  -7    9.59    4.09
  -5   7  -7   27.21    5.37
  -5   7  -6  118.96    9.91
  -5   7  -6   94.50    8.98
  -5   7  -5   62.62    7.12
  -5   7  -5   56.18    6.57
  -5   7  -4  144.92   10.41
  -5   7  -4  159.78   10.69
  -5   7  -3   66.05    7.01
  -5   7  -3   71.91    6.95
  -5   7  -2   78.55    7.15
  -5   7  -2   68.71    7.64
  -5   7  -2   84.95    7.40
  -5   7  -1  497.51   20.00
  -5   7  -1  478.65   22.03
  -5   7   0  376.35   18.71
  -5   7   1    2.54    3.04
  -5   7   1    2.77    3.20
  -5   7   2  486.23   21.74
  -5   7   2  439.11   20.19
  -5   7   3 1082.70   38.43
  -5   7   4  156.22   11.16
  -5   7   5  391.59   19.12
  -5   7   6  449.77   21.20
  -5   7   7  439.07   21.17
  -5   7   8    5.69    3.54
  -5   7   9  351.89   19.37
  -5   7  10  339.40   19.15
  -5   8 -13  137.59   12.77
  -5   8 -13  152.74   13.25
  -5   8 -12  279.37   17.89
  -5   8 -12  241.13   16.99
  -5   8 -11   60.02    8.39
  -5   8 -11   57.98    8.31
  -5   8 -10    0.83    4.11
  -5   8 -10    3.28    4.00
  -5   8  -9  380.07   20.66
  -5   8  -9  397.64   21.00
  -5   8  -8  719.49   30.54
  -5   8  -8  733.91   30.80
  -5   8  -7    3.59    3.36
  -5   8  -7    2.14    3.69
  -5   8  -6  150.62   11.61
  -5   8  -6  179.43   12.40
  -5   8  -5  921.45   35.04
  -5   8  -5  948.84   35.20
  -5   8  -4  346.66   17.48
  -5   8  -4  360.65   17.66
  -5   8  -3    7.16    3.44
  -5   8  -3    4.33    3.86
  -5   8  -3    7.20    3.11
  -5   8  -2  529.69   21.78
  -5   8  -2  503.75   23.68
  -5   8  -2  534.72   22.00
  -5   8  -1  638.65   27.50
  -5   8   0   69.52    8.02
  -5   8   1   -1.43    3.19
  -5   8   1    1.83    3.31
  -5   8   2  285.87   15.36
  -5   8   2  245.69   15.39
  -5   8   3  456.03   21.12
  -5   8   4    5.94    3.76
  -5   8   5    7.51    3.89
  -5   8   6  122.17   10.55
  -5   8   7  238.70   15.23
  -5   8   8    5.34    3.87
  -5   8   9    0.79    3.78
  -5   9 -13  277.88   18.31
  -5   9 -13  268.02   18.06
  -5   9 -12   90.63   10.30
  -5   9 -12   85.71   10.21
  -5   9 -11  156.63   13.34
  -5   9 -11  171.93   14.00
  -5   9 -10   33.72    6.65
  -5   9 -10   31.81    6.61
  -5   9  -9  196.95   14.39
  -5   9  -9  173.11   13.71
  -5   9  -8  273.24   16.81
  -5   9  -8  260.43   16.63
  -5   9  -7   47.54    6.95
  -5   9  -7   33.80    6.05
  -5   9  -6    9.96    3.94
  -5   9  -6   10.72    3.89
  -5   9  -5  325.74   17.26
  -5   9  -5  292.15   16.64
  -5   9  -4  462.57   23.09
  -5   9  -4  476.97   21.71
  -5   9  -4  472.16   21.63
  -5   9  -3  174.16   13.09
  -5   9  -3  181.05   11.88
  -5   9  -3  169.03   11.54
  -5   9  -2   20.19    5.22
  -5   9  -1  279.04   16.95
  -5   9   0  476.17   23.28
  -5   9   1  357.57   18.47
  -5   9   1  383.02   20.21
  -5   9   2   47.17    7.06
  -5   9   2   51.09    6.82
  -5   9   3  357.56   18.70
  -5   9   4  358.78   19.09
  -5   9   5   33.82    6.03
  -5   9   6  223.73   14.99
  -5   9   7  496.05   24.22
  -5   9   8   26.74    5.85
  -5  10 -12   44.24    7.69
  -5  10 -12   62.17    8.67
  -5  10 -11   90.50   10.43
  -5  10 -11   90.24   10.40
  -5  10 -10   19.85    5.52
  -5  10 -10   18.85    5.63
  -5  10  -9  127.03   12.16
  -5  10  -9  126.47   11.81
  -5  10  -8  158.33   12.87
  -5  10  -8  163.47   13.12
  -5  10  -7  133.97   11.60
  -5  10  -7  128.18   11.30
  -5  10  -6   52.85    7.88
  -5  10  -6   61.68    8.02
  -5  10  -5  503.94   23.03
  -5  10  -5  481.00   24.30
  -5  10  -5  436.74   22.09
  -5  10  -4  690.49   27.97
  -5  10  -4  645.06   29.36
  -5  10  -4  630.58   27.26
  -5  10  -3   16.80    5.07
  -5  10  -2  251.96   16.42
  -5  10  -1  710.61   31.32
  -5  10   0  138.28   12.15
  -5  10   1   -0.72    3.29
  -5  10   1   -0.86    3.55
  -5  10   2  259.07   17.07
  -5  10   2  273.51   16.34
  -5  10   3   52.98    7.90
  -5  10   3   57.05    7.45
  -5  10   4   34.35    6.26
  -5  10   5    7.85    4.60
  -5  10   6   56.48    8.06
  -5  10   7   43.04    7.04
  -5  11 -11  136.22   12.88
  -5  11 -11  111.41   11.85
  -5  11 -10   26.42    6.61
  -5  11 -10   26.31    6.46
  -5  11  -9   78.44    9.61
  -5  11  -9   92.63   10.51
  -5  11  -8  193.75   14.55
  -5  11  -8  204.81   14.90
  -5  11  -7  124.08   11.41
  -5  11  -7  131.29   11.76
  -5  11  -6   25.50    5.79
  -5  11  -6   23.99    5.71
  -5  11  -6   11.78    5.69
  -5  11  -5   44.11    7.81
  -5  11  -5   53.63    7.40
  -5  11  -5   42.44    7.13
  -5  11  -4  309.15   19.09
  -5  11  -3  263.46   17.53
  -5  11  -2   20.65    6.10
  -5  11  -1  234.63   16.32
  -5  11   0  471.53   24.66
  -5  11   1  283.59   18.44
  -5  11   2   92.38    9.53
  -5  11   2   75.57    9.47
  -5  11   3  285.56   17.39
  -5  11   3  276.79   18.55
  -5  11   4  308.75   18.36
  -5  11   5   24.03    5.87
  -5  12 -11  285.55   19.25
  -5  12 -11  285.60   19.39
  -5  12 -10  108.89   11.68
  -5  12 -10  103.64   11.41
  -5  12  -9   89.14   10.42
  -5  12  -9   62.79    9.31
  -5  12  -8  376.11   21.52
  -5  12  -8  367.30   21.41
  -5  12  -7  429.35   22.79
  -5  12  -7  390.13   22.14
  -5  12  -6   20.18    5.70
  -5  12  -6   14.35    4.89
  -5  12  -6   18.99    5.95
  -5  12  -5  219.31   16.11
  -5  12  -4  423.60   23.32
  -5  12  -3  188.35   15.01
  -5  12  -2   12.37    5.81
  -5  12  -1  226.81   16.70
  -5  12   0  389.22   22.50
  -5  12   1   61.53    9.44
  -5  12   2   65.87    8.44
  -5  12   2   79.03    9.97
  -5  12   3  179.21   13.65
  -5  12   3  161.43   14.28
  -5  13  -9   40.36    7.33
  -5  13  -9   39.50    7.29
  -5  13  -8   76.29    9.60
  -5  13  -8   84.20   10.07
  -5  13  -7  125.03   11.98
  -5  13  -7  139.29   12.35
  -5  13  -7  102.63   11.74
  -5  13  -6   77.86    9.98
  -5  13  -5   31.54    7.05
  -5  13  -4   28.67    6.59
  -5  13  -3  115.09   12.10
  -5  13  -2   35.89    7.28
  -5  13  -1    9.04    5.28
  -5  13   0  103.37   11.49
  -5  13   1  180.22   15.07
  -5  13   2    1.03    4.84
  -5  14  -8  120.17   12.15
  -5  14  -8   94.84   11.15
  -5  14  -7  846.38   37.55
  -5  14  -6  141.34   13.74
  -5  14  -5   32.60    7.22
  -5  14  -4  402.68   23.63
  -5  14  -3  360.46   22.25
  -5  14  -2   39.31    7.95
  -4 -11   8   -2.20    4.91
  -4 -11   9   48.84    8.76
  -4 -10   7  156.89   14.40
  -4 -10   8   19.05    6.55
  -4 -10   9  176.87   15.68
  -4 -10  10  486.78   27.26
  -4 -10  11   19.81    6.64
  -4 -10  12   30.11    7.81
  -4  -9  -1  129.68   12.83
  -4  -9   0    2.96    3.73
  -4  -9   1    5.66    4.32
  -4  -9   7  160.88   14.52
  -4  -9   8  186.33   15.59
  -4  -9   9    6.12    4.98
  -4  -9  10  292.48   19.98
  -4  -9  11  316.00   21.04
  -4  -9  12   88.17   11.45
  -4  -9  13   69.89   10.34
  -4  -8  -3  166.70   15.10
  -4  -8  -2   10.55    5.64
  -4  -8  -1  447.44   24.88
  -4  -8   0  382.35   22.02
  -4  -8   1  172.92   14.21
  -4  -8   2  339.16   20.00
  -4  -8   3  739.26   31.91
  -4  -8   4  339.68   19.30
  -4  -8   6  311.61   19.56
  -4  -8   7  303.83   19.43
  -4  -8   8   29.09    6.46
  -4  -8   9   77.68    9.77
  -4  -8  10  164.87   14.38
  -4  -8  11   39.16    8.32
  -4  -8  12   -4.11    5.84
  -4  -8  13   32.10    7.27
  -4  -8  14  174.50   15.15
  -4  -7  -4  273.39   19.86
  -4  -7  -3   23.69    6.84
  -4  -7  -2   56.30    8.95
  -4  -7  -1  244.85   17.31
  -4  -7   0  254.80   17.33
  -4  -7   1   55.42    8.19
  -4  -7   2   70.51    8.72
  -4  -7   3  472.76   23.50
  -4  -7   4  630.92   28.00
  -4  -7   5  154.51   11.94
  -4  -7   5  110.68   10.70
  -4  -7   6   83.00    9.78
  -4  -7   6  111.63   10.03
  -4  -7   7  488.10   24.58
  -4  -7   8  422.50   22.56
  -4  -7   9   29.49    6.91
  -4  -7  10  190.43   15.09
  -4  -7  11  497.57   25.91
  -4  -7  12  188.47   15.17
  -4  -7  13   21.64    6.39
  -4  -7  14  461.92   25.61
  -4  -7  15  305.03   20.09
  -4  -6  -6   19.39    6.50
  -4  -6  -5   52.00    9.27
  -4  -6  -4  274.56   19.52
  -4  -6  -3  342.91   21.65
  -4  -6  -2    1.97    3.72
  -4  -6  -1  444.04   23.89
  -4  -6   0  934.39   38.31
  -4  -6   1  333.21   17.43
  -4  -6   1  323.33   19.09
  -4  -6   2   77.77    8.91
  -4  -6   2   73.99    7.70
  -4  -6   3  874.16   34.26
  -4  -6   3 1032.02   37.94
  -4  -6   4 1376.25   47.39
  -4  -6   4 1390.48   45.43
  -4  -6   5  125.18    9.52
  -4  -6   5  132.62   10.67
  -4  -6   6  141.67   11.50
  -4  -6   6  135.61   10.99
  -4  -6   7  789.92   30.49
  -4  -6   7  670.44   30.13
  -4  -6   8  487.36   22.34
  -4  -6   8  440.33   22.75
  -4  -6   9   15.69    5.36
  -4  -6  10  124.53   11.48
  -4  -6  11  250.91   17.21
  -4  -6  12   34.37    7.34
  -4  -6  13   -1.86    4.16
  -4  -6  14   80.17   10.09
  -4  -6  15  120.43   12.29
  -4  -6  16  123.81   12.35
  -4  -5  -7   45.72    9.19
  -4  -5  -6   10.59    5.86
  -4  -5  -5   61.37    9.76
  -4  -5  -4  146.66   13.96
  -4  -5  -3   26.84    6.47
  -4  -5  -2   42.21    7.35
  -4  -5  -1  172.94   11.23
  -4  -5  -1  161.11   11.07
  -4  -5  -1  173.42   13.79
  -4  -5  -1  171.87   11.24
  -4  -5   0  154.83   10.62
  -4  -5   0  143.55   10.25
  -4  -5   0  163.04   10.77
  -4  -5   0  156.60   12.68
  -4  -5   1   13.78    4.06
  -4  -5   1    7.17    4.05
  -4  -5   2   14.48    4.42
  -4  -5   2   20.10    4.47
  -4  -5   3  473.70   22.83
  -4  -5   3  476.16   21.20
  -4  -5   4   21.82    4.61
  -4  -5   4   16.56    3.77
  -4  -5   4   15.70    4.59
  -4  -5   5  435.54   20.24
  -4  -5   5  439.52   20.88
  -4  -5   5  499.68   22.36
  -4  -5   6    0.66    3.99
  -4  -5   6    9.58    4.01
  -4  -5   7  362.31   18.44
  -4  -5   7  342.28   18.43
  -4  -5   8  530.20   24.79
  -4  -5   8  569.08   24.66
  -4  -5   9  194.79   13.78
  -4  -5  10   73.91    8.71
  -4  -5  11  760.31   32.47
  -4  -5  12  344.69   20.08
  -4  -5  13   16.70    5.64
  -4  -5  14  350.13   20.82
  -4  -5  15  183.57   15.04
  -4  -5  16  124.78   12.37
  -4  -4  -8  114.28   13.55
  -4  -4  -7  173.29   16.16
  -4  -4  -6  305.64   21.35
  -4  -4  -5    1.99    2.67
  -4  -4  -5   -1.98    3.28
  -4  -4  -5    0.66    2.95
  -4  -4  -5   -3.20    5.10
  -4  -4  -4  201.77   15.94
  -4  -4  -4  183.10   12.53
  -4  -4  -4  214.41   13.20
  -4  -4  -4  198.63   12.80
  -4  -4  -3  817.82   31.12
  -4  -4  -3  830.48   35.70
  -4  -4  -3  802.41   31.04
  -4  -4  -3  818.35   31.26
  -4  -4  -2  286.99   14.98
  -4  -4  -2  260.40   14.44
  -4  -4  -2  281.74   17.95
  -4  -4  -2  272.33   14.70
  -4  -4  -1    5.00    3.64
  -4  -4  -1    2.20    2.47
  -4  -4  -1    7.11    3.02
  -4  -4  -1    4.92    2.77
  -4  -4   0  727.17   27.87
  -4  -4   0  773.68   31.69
  -4  -4   0  723.84   27.73
  -4  -4   0  705.03   27.69
  -4  -4   1 1441.03   48.33
  -4  -4   1 1401.97   50.31
  -4  -4   2   30.25    5.52
  -4  -4   2   16.98    4.46
  -4  -4   3  201.80   12.41
  -4  -4   3  196.36   11.68
  -4  -4   3  205.34   13.44
  -4  -4   4  339.58   17.06
  -4  -4   4  388.43   18.96
  -4  -4   4  350.47   16.77
  -4  -4   5  481.33   21.33
  -4  -4   5  501.64   22.56
  -4  -4   6   46.89    6.91
  -4  -4   6   42.19    6.22
  -4  -4   7  365.65   18.67
  -4  -4   7  376.40   18.54
  -4  -4   8  154.44   11.42
  -4  -4   8  156.43   11.43
  -4  -4   9  367.79   18.97
  -4  -4  10   29.02    5.67
  -4  -4  11  196.35   13.93
  -4  -4  12  434.52   22.26
  -4  -4  13  116.83   11.07
  -4  -4  14    3.46    4.55
  -4  -4  15   87.84   10.11
  -4  -4  16  311.55   19.40
  -4  -3  -9   27.84    7.94
  -4  -3  -8  134.07   11.49
  -4  -3  -8  148.43   15.04
  -4  -3  -8  149.12   12.20
  -4  -3  -8  153.86   12.21
  -4  -3  -7  566.62   25.05
  -4  -3  -7  523.92   24.42
  -4  -3  -7  501.97   24.20
  -4  -3  -7  545.55   29.17
  -4  -3  -6   93.44    8.97
  -4  -3  -6   85.06   10.98
  -4  -3  -6   83.72    8.51
  -4  -3  -6   94.64    8.98
  -4  -3  -5  106.70    9.34
  -4  -3  -5   97.00   11.20
  -4  -3  -5  118.72    9.73
  -4  -3  -5   95.25    8.89
  -4  -3  -4  861.96   36.25
  -4  -3  -4  820.38   31.45
  -4  -3  -4  801.96   31.33
  -4  -3  -4  811.31   31.41
  -4  -3  -3  369.17   17.96
  -4  -3  -3  428.88   22.36
  -4  -3  -3  362.52   17.90
  -4  -3  -3  385.14   18.41
  -4  -3  -2  200.77   14.34
  -4  -3  -2  197.37   11.93
  -4  -3  -2  208.17   12.24
  -4  -3  -2  189.98   11.90
  -4  -3  -1   78.48    7.26
  -4  -3  -1   66.47    6.84
  -4  -3  -1   79.69    7.34
  -4  -3  -1   70.97    8.47
  -4  -3   0  379.60   17.41
  -4  -3   0  389.59   20.03
  -4  -3   0  385.45   17.49
  -4  -3   0  373.61   17.27
  -4  -3   1 1249.15   44.52
  -4  -3   1 1215.43   42.50
  -4  -3   2    8.16    3.64
  -4  -3   2    7.30    3.06
  -4  -3   3   31.72    5.73
  -4  -3   3   42.26    4.84
  -4  -3   3   51.22    5.96
  -4  -3   4  664.39   26.32
  -4  -3   4  659.09   24.99
  -4  -3   4  665.42   27.37
  -4  -3   5  810.42   31.45
  -4  -3   5  804.84   29.59
  -4  -3   6   24.33    4.42
  -4  -3   6    5.10    2.87
  -4  -3   7   70.55    7.16
  -4  -3   7   64.39    7.19
  -4  -3   8  771.56   29.96
  -4  -3   9  712.73   28.81
  -4  -3  10    5.44    3.51
  -4  -3  11  331.51   18.35
  -4  -3  12  832.22   33.71
  -4  -3  13  341.72   19.36
  -4  -3  14    4.10    4.08
  -4  -3  15  189.75   14.28
  -4  -3  16  409.41   22.38
  -4  -2 -10   61.06    8.21
  -4  -2 -10   50.73    7.68
  -4  -2 -10   63.45    8.51
  -4  -2 -10   69.38   10.71
  -4  -2  -9   49.44    7.27
  -4  -2  -9   42.23    8.68
  -4  -2  -9   53.01    7.59
  -4  -2  -9   54.69    7.68
  -4  -2  -8    5.39    3.69
  -4  -2  -8   18.31    6.22
  -4  -2  -8   10.77    4.32
  -4  -2  -8    8.53    4.55
  -4  -2  -7  271.74   16.16
  -4  -2  -7  262.43   18.87
  -4  -2  -7  246.11   15.50
  -4  -2  -7  265.22   15.82
  -4  -2  -6  569.86   24.74
  -4  -2  -6  566.26   24.79
  -4  -2  -6  517.82   27.53
  -4  -2  -6  550.36   24.50
  -4  -2  -5   25.51    6.23
  -4  -2  -5   37.36    5.75
  -4  -2  -5   27.18    5.11
  -4  -2  -5   26.78    5.19
  -4  -2  -4  334.29   16.76
  -4  -2  -4  305.87   16.37
  -4  -2  -4  346.41   19.74
  -4  -2  -4  306.13   16.36
  -4  -2  -3 1174.52   44.45
  -4  -2  -3 1170.73   40.56
  -4  -2  -3 1195.09   40.75
  -4  -2  -3 1152.39   40.58
  -4  -2  -2 1226.81   40.89
  -4  -2  -2 1194.74   40.69
  -4  -2  -2 1165.86   43.98
  -4  -2  -2 1170.78   40.61
  -4  -2  -1    9.60    3.28
  -4  -2  -1    9.01    3.06
  -4  -2  -1   13.52    3.36
  -4  -2  -1    6.51    3.81
  -4  -2   0 1528.32   49.04
  -4  -2   0 1498.07   48.84
  -4  -2   0 1510.24   52.05
  -4  -2   0 1514.15   48.97
  -4  -2   1 1018.74   36.20
  -4  -2   1 1007.38   37.62
  -4  -2   1 1020.85   35.20
  -4  -2   1 1030.04   35.32
  -4  -2   2  845.39   28.02
  -4  -2   2  841.48   30.78
  -4  -2   2  782.26   31.63
  -4  -2   3  494.88   19.05
  -4  -2   3  500.78   21.03
  -4  -2   3  476.64   21.81
  -4  -2   4 1464.81   48.11
  -4  -2   4 1429.78   45.94
  -4  -2   4 1461.25   49.22
  -4  -2   5 1308.10   42.95
  -4  -2   5 1343.15   45.68
  -4  -2   6  439.95   20.27
  -4  -2   6  410.06   18.24
  -4  -2   7  449.47   19.62
  -4  -2   8 1237.07   42.48
  -4  -2   9   47.48    6.31
  -4  -2  10  151.16   11.05
  -4  -2  11  242.27   14.92
  -4  -2  12   89.39    9.41
  -4  -2  13   77.67    8.74
  -4  -2  14   21.31    5.64
  -4  -2  15   32.70    6.64
  -4  -1 -11  207.80   15.54
  -4  -1 -11  204.59   15.43
  -4  -1 -11  222.35   15.96
  -4  -1 -10  275.84   17.46
  -4  -1 -10  227.36   16.23
  -4  -1 -10  245.85   16.83
  -4  -1 -10  219.47   18.27
  -4  -1  -9    9.80    4.75
  -4  -1  -9   23.84    6.67
  -4  -1  -9   25.32    6.14
  -4  -1  -9   27.27    5.95
  -4  -1  -8  134.02   13.35
  -4  -1  -8  143.15   11.71
  -4  -1  -8  152.45   12.08
  -4  -1  -8  146.35   11.97
  -4  -1  -7  463.60   21.96
  -4  -1  -7  467.07   21.96
  -4  -1  -7  445.87   21.70
  -4  -1  -6  551.63   23.99
  -4  -1  -6  529.54   23.65
  -4  -1  -6  502.50   26.30
  -4  -1  -6  529.59   23.66
  -4  -1  -5   91.99    8.68
  -4  -1  -5   99.46   10.35
  -4  -1  -5  105.17    9.13
  -4  -1  -5  100.13    8.85
  -4  -1  -4   81.08    7.72
  -4  -1  -4   85.93    9.43
  -4  -1  -4   71.81    7.52
  -4  -1  -4   79.77    7.56
  -4  -1  -3 1222.11   42.08
  -4  -1  -3 1304.70   42.50
  -4  -1  -3 1194.81   41.79
  -4  -1  -3 1225.53   45.29
  -4  -1  -2  179.24   11.26
  -4  -1  -2  198.64   13.34
  -4  -1  -2  215.59   12.00
  -4  -1  -2  205.69   11.78
  -4  -1  -1    1.99    2.90
  -4  -1  -1    3.82    2.64
  -4  -1  -1    0.96    2.38
  -4  -1  -1    2.89    2.21
  -4  -1   0  348.88   15.71
  -4  -1   0  332.13   15.55
  -4  -1   0  345.95   17.59
  -4  -1   0  343.66   15.68
  -4  -1   1  442.62   20.98
  -4  -1   1  509.49   20.81
  -4  -1   1  480.96   19.59
  -4  -1   1  452.01   19.32
  -4  -1   1  465.44   16.83
  -4  -1   1  483.84   19.65
  -4  -1   2  745.97   30.00
  -4  -1   2  803.73   26.32
  -4  -1   2  821.86   29.78
  -4  -1   3   15.15    3.72
  -4  -1   3    8.33    2.47
  -4  -1   3    5.84    3.13
  -4  -1   4  444.20   17.94
  -4  -1   4  485.11   20.91
  -4  -1   5 2059.94   63.02
  -4  -1   5 2089.82   65.91
  -4  -1   6  615.31   23.55
  -4  -1   7   92.04    7.69
  -4  -1   8 1965.54   62.00
  -4  -1   9 1044.68   37.17
  -4  -1  10  303.71   16.20
  -4  -1  11  186.36   11.82
  -4  -1  11  183.31   12.69
  -4  -1  12  685.96   27.48
  -4  -1  12  642.33   27.85
  -4  -1  13  277.34   16.83
  -4  -1  13  311.21   17.14
  -4  -1  14    3.06    3.73
  -4  -1  14   -0.77    3.97
  -4  -1  15  221.46   15.44
  -4  -1  15  213.33   14.98
  -4  -1  16  236.54   16.58
  -4   0 -12   18.50    5.88
  -4   0 -12   19.73    5.64
  -4   0 -12   24.37    6.33
  -4   0 -11   38.85    7.41
  -4   0 -11   43.12    7.39
  -4   0 -11   34.20    7.00
  -4   0 -10  341.45   20.03
  -4   0 -10  343.34   20.14
  -4   0 -10  339.15   19.99
  -4   0  -9  242.04   15.92
  -4   0  -9  218.97   15.41
  -4   0  -9  225.13   15.57
  -4   0  -9  209.29   16.76
  -4   0  -8   61.44    7.63
  -4   0  -8   53.02    7.35
  -4   0  -8   55.33    7.44
  -4   0  -8   56.29    8.54
  -4   0  -7  226.53   14.32
  -4   0  -7  203.61   14.02
  -4   0  -7  202.97   15.50
  -4   0  -7  235.74   14.60
  -4   0  -6  888.06   33.04
  -4   0  -6  763.42   34.35
  -4   0  -6  881.94   33.00
  -4   0  -6  810.75   32.39
  -4   0  -5  410.48   19.23
  -4   0  -5  409.48   19.27
  -4   0  -5  380.43   20.67
  -4   0  -5  416.02   19.54
  -4   0  -4  115.08   10.57
  -4   0  -4  136.76    9.84
  -4   0  -4  134.62    9.84
  -4   0  -4  136.15    9.96
  -4   0  -3 1203.85   44.57
  -4   0  -3 1283.68   42.63
  -4   0  -3 1273.65   42.50
  -4   0  -3 1270.03   42.49
  -4   0  -2  796.65   28.84
  -4   0  -2  770.62   28.48
  -4   0  -2  810.22   28.81
  -4   0  -2  719.15   30.03
  -4   0  -1  164.92   11.19
  -4   0  -1  157.61    9.71
  -4   0  -1  145.51    9.44
  -4   0  -1  156.78    9.67
  -4   0   0  357.47   16.05
  -4   0   0  387.89   17.20
  -4   0   0  370.21   16.34
  -4   0   0  353.38   17.59
  -4   0   0  358.12   16.07
  -4   0   1 1418.39   47.20
  -4   0   1 1386.73   42.08
  -4   0   1 1447.83   46.45
  -4   0   2  279.29   14.78
  -4   0   2  285.95   11.94
  -4   0   2  314.08   14.82
  -4   0   3  187.31    9.27
  -4   0   3  175.87   11.12
  -4   0   3  176.19   10.79
  -4   0   4  648.01   25.92
  -4   0   4  666.96   23.52
  -4   0   5  911.75   30.69
  -4   0   5  876.19   32.96
  -4   0   6  127.80    8.64
  -4   0   7    1.41    2.29
  -4   0   7    5.20    2.88
  -4   0   8  353.99   15.35
  -4   0   8  345.17   16.47
  -4   0   9  226.32   12.44
  -4   0   9  245.69   13.61
  -4   0  10   69.38    6.94
  -4   0  10   56.46    6.80
  -4   0  11   -0.64    3.68
  -4   0  11    6.47    3.68
  -4   0  12  130.87   10.64
  -4   0  12  127.43   10.38
  -4   0  13   26.63    5.58
  -4   0  13   30.17    5.83
  -4   0  14   47.94    7.64
  -4   0  14   38.31    6.82
  -4   0  15   38.29    7.41
  -4   1 -12   70.17    9.36
  -4   1 -12   71.09    9.50
  -4   1 -12   78.28    9.89
  -4   1 -11  194.90   15.19
  -4   1 -11  221.75   16.17
  -4   1 -11  199.74   15.39
  -4   1 -10  369.24   21.26
  -4   1 -10  351.66   20.86
  -4   1 -10  413.83   21.97
  -4   1  -9  421.32   22.10
  -4   1  -9  439.97   22.62
  -4   1  -9  426.04   22.10
  -4   1  -8   10.66    4.58
  -4   1  -8    1.79    3.60
  -4   1  -8    8.25    4.01
  -4   1  -8    9.76    4.40
  -4   1  -7  456.86   21.46
  -4   1  -7  456.50   21.52
  -4   1  -7  459.36   21.64
  -4   1  -6  683.26   27.64
  -4   1  -6  655.42   27.27
  -4   1  -6  620.50   28.31
  -4   1  -6  694.70   27.79
  -4   1  -5  414.07   21.44
  -4   1  -5  471.64   20.88
  -4   1  -5  459.96   20.60
  -4   1  -5  475.31   20.79
  -4   1  -4   60.01    6.96
  -4   1  -4   65.50    6.92
  -4   1  -4   47.04    5.97
  -4   1  -4   54.16    6.33
  -4   1  -3  404.37   19.92
  -4   1  -3  468.44   19.56
  -4   1  -3  472.32   19.64
  -4   1  -3  459.61   19.42
  -4   1  -2  786.37   28.24
  -4   1  -2  746.24   27.79
  -4   1  -2  803.32   28.28
  -4   1  -2  746.73   29.28
  -4   1  -1  726.08   26.28
  -4   1  -1  717.72   26.15
  -4   1  -1  706.88   26.08
  -4   1  -1  712.40   27.60
  -4   1   0    4.15    2.43
  -4   1   0    2.93    2.39
  -4   1   0    0.41    1.35
  -4   1   0    8.18    2.35
  -4   1   0    1.66    2.15
  -4   1   1 1405.46   43.16
  -4   1   1 1548.97   47.49
  -4   1   1 1445.99   47.49
  -4   1   2 1564.24   49.03
  -4   1   2 1544.12   49.39
  -4   1   2 1474.04   45.62
  -4   1   3  708.44   24.19
  -4   1   3  697.29   22.76
  -4   1   3  707.15   26.81
  -4   1   4  412.17   16.30
  -4   1   4  423.71   18.53
  -4   1   4  391.41   14.79
  -4   1   5 1590.28   47.85
  -4   1   5 1578.35   49.38
  -4   1   6 2373.13   70.68
  -4   1   6 2443.99   72.37
  -4   1   7  412.23   16.96
  -4   1   7  420.38   17.99
  -4   1   8  140.01    9.79
  -4   1   8  129.25    8.66
  -4   1   9 1967.98   61.96
  -4   1   9 2017.76   63.14
  -4   1  10  886.87   32.44
  -4   1  10  875.63   32.98
  -4   1  11   81.37    7.97
  -4   1  11   70.48    7.61
  -4   1  12  468.06   21.97
  -4   1  12  456.78   21.86
  -4   1  13  689.38   29.62
  -4   1  13  723.96   29.78
  -4   1  14  122.09   11.14
  -4   1  14  110.91   10.31
  -4   1  15   18.16    5.62
  -4   2 -13   52.52    9.14
  -4   2 -13   42.05    7.98
  -4   2 -13   51.27    8.50
  -4   2 -12   66.99    9.21
  -4   2 -12   59.02    8.90
  -4   2 -12   64.85    9.17
  -4   2 -11    1.88    3.89
  -4   2 -11   -0.95    3.83
  -4   2 -11    3.76    4.10
  -4   2 -10  182.98   14.26
  -4   2 -10  166.96   13.67
  -4   2 -10  177.18   14.09
  -4   2  -9  479.25   23.96
  -4   2  -9  493.87   24.10
  -4   2  -9  486.98   23.94
  -4   2  -8  461.53   22.41
  -4   2  -8  443.79   22.06
  -4   2  -8  471.77   22.77
  -4   2  -7   96.42    9.17
  -4   2  -7   80.01    8.28
  -4   2  -7   88.27    8.68
  -4   2  -6  488.18   21.80
  -4   2  -6  528.59   22.37
  -4   2  -6  503.93   21.99
  -4   2  -5 1360.16   45.11
  -4   2  -5 1408.40   45.46
  -4   2  -5 1383.59   45.31
  -4   2  -4  605.14   23.28
  -4   2  -4  567.08   22.89
  -4   2  -4  560.40   22.81
  -4   2  -3  491.68   20.07
  -4   2  -3  443.27   20.04
  -4   2  -3  519.27   20.39
  -4   2  -3  471.11   19.85
  -4   2  -2 1028.79   36.53
  -4   2  -2 1090.39   36.13
  -4   2  -2 1057.22   35.86
  -4   2  -2 1083.66   36.02
  -4   2  -1 1455.63   46.76
  -4   2  -1 1489.88   46.00
  -4   2  -1 1389.17   46.65
  -4   2  -1 1448.85   45.82
  -4   2  -1 1418.76   45.77
  -4   2   0   17.33    3.48
  -4   2   0   18.32    2.46
  -4   2   0   12.99    2.92
  -4   2   0   21.84    3.72
  -4   2   0   18.61    3.73
  -4   2   1 1711.56   50.96
  -4   2   1 1791.92   54.49
  -4   2   1 1828.19   54.77
  -4   2   1 1660.07   51.05
  -4   2   2 1716.74   53.56
  -4   2   2 1814.77   53.19
  -4   2   3  557.24   19.56
  -4   2   3  561.06   20.34
  -4   2   4  569.47   21.61
  -4   2   4  612.88   20.96
  -4   2   5 1195.09   38.52
  -4   2   5 1163.06   37.36
  -4   2   6  367.29   15.42
  -4   2   6  369.78   16.22
  -4   2   7   85.71    7.24
  -4   2   7   89.40    7.12
  -4   2   8  586.10   23.35
  -4   2   8  569.50   22.63
  -4   2   9  116.21    9.22
  -4   2   9  113.85    8.79
  -4   2  10  260.11   14.54
  -4   2  10  281.45   15.23
  -4   2  11   22.39    5.14
  -4   2  11   21.82    4.81
  -4   2  12   84.53    8.50
  -4   2  12   77.86    8.66
  -4   2  13  383.44   20.08
  -4   2  13  383.95   20.38
  -4   2  14  153.57   12.66
  -4   3 -13  251.44   18.41
  -4   3 -13  227.14   17.64
  -4   3 -13  243.91   18.36
  -4   3 -12  111.28   11.84
  -4   3 -12   98.29   11.27
  -4   3 -12  109.12   11.74
  -4   3 -11   17.85    5.66
  -4   3 -11   14.09    5.59
  -4   3 -11    8.59    4.67
  -4   3 -10  185.74   14.25
  -4   3 -10  188.74   14.50
  -4   3 -10  189.16   14.45
  -4   3  -9  564.24   26.43
  -4   3  -9  561.05   26.42
  -4   3  -9  555.17   26.06
  -4   3  -8   11.73    4.42
  -4   3  -8   12.67    4.61
  -4   3  -8    9.52    3.99
  -4   3  -8    7.30    3.39
  -4   3  -8    9.02    3.70
  -4   3  -7   81.58    7.45
  -4   3  -7   85.01    8.28
  -4   3  -7   83.23    8.45
  -4   3  -7   75.16    7.98
  -4   3  -7   80.88    7.34
  -4   3  -6  313.46   16.36
  -4   3  -6  297.99   15.01
  -4   3  -6  316.45   16.57
  -4   3  -6  314.30   16.47
  -4   3  -6  311.29   15.10
  -4   3  -5  465.11   20.05
  -4   3  -5  424.94   18.53
  -4   3  -5  424.16   19.47
  -4   3  -5  432.29   18.62
  -4   3  -5  480.59   20.23
  -4   3  -4   10.09    2.85
  -4   3  -4    2.17    2.44
  -4   3  -4    5.99    2.84
  -4   3  -4    5.45    2.78
  -4   3  -4    2.19    2.38
  -4   3  -4    3.96    2.82
  -4   3  -3  438.64   18.16
  -4   3  -3  460.71   18.89
  -4   3  -3  451.05   18.27
  -4   3  -3  479.11   19.11
  -4   3  -3  453.45   18.94
  -4   3  -3  449.70   18.83
  -4   3  -2  114.28    7.56
  -4   3  -2  124.31    8.26
  -4   3  -2  132.75    8.34
  -4   3  -2  112.71    7.81
  -4   3  -2  108.85    7.57
  -4   3  -2  114.11    7.87
  -4   3  -1  919.18   31.50
  -4   3  -1  938.07   31.52
  -4   3  -1  983.71   32.27
  -4   3  -1  921.89   30.91
  -4   3  -1  933.16   30.96
  -4   3  -1  954.17   32.29
  -4   3  -1  912.03   31.37
  -4   3   0   21.64    2.82
  -4   3   0   26.03    3.73
  -4   3   0   24.39    3.62
  -4   3   0   17.22    3.50
  -4   3   0   20.45    3.30
  -4   3   0   29.30    4.00
  -4   3   1    3.44    2.01
  -4   3   1    2.71    2.08
  -4   3   1    2.86    1.61
  -4   3   2 1767.14   54.19
  -4   3   2 1862.67   54.47
  -4   3   2 1817.59   54.47
  -4   3   3  793.85   27.12
  -4   3   3  785.02   26.32
  -4   3   3  791.74   26.72
  -4   3   4  361.60   15.03
  -4   3   4  380.41   15.79
  -4   3   5  309.15   14.00
  -4   3   5  339.56   14.89
  -4   3   6 1153.65   39.14
  -4   3   6 1186.61   38.59
  -4   3   7  325.84   15.26
  -4   3   7  318.57   15.48
  -4   3   8  150.05   10.03
  -4   3   8  154.83   10.19
  -4   3   9  258.08   14.12
  -4   3   9  259.17   14.13
  -4   3  10  505.55   22.33
  -4   3  10  503.53   22.40
  -4   3  11    2.60    3.81
  -4   3  11   11.38    4.08
  -4   3  12  202.31   13.54
  -4   3  12  224.78   14.48
  -4   3  13  216.47   14.72
  -4   3  13  205.19   14.26
  -4   3  14   91.17    9.76
  -4   4 -13  124.60   13.01
  -4   4 -13  135.09   13.69
  -4   4 -13  139.45   13.54
  -4   4 -12  313.69   19.86
  -4   4 -12  284.13   19.48
  -4   4 -12  270.73   18.95
  -4   4 -11   26.20    6.30
  -4   4 -11   25.28    5.16
  -4   4 -11   23.19    4.97
  -4   4 -11   35.16    7.22
  -4   4 -11   25.26    6.43
  -4   4 -10   74.98    7.94
  -4   4 -10   74.56    9.52
  -4   4 -10   76.19    9.55
  -4   4 -10   79.75    8.14
  -4   4 -10   75.28    9.32
  -4   4  -9  519.09   25.43
  -4   4  -9  538.36   25.59
  -4   4  -9  549.24   23.53
  -4   4  -9  551.20   25.81
  -4   4  -9  566.08   23.76
  -4   4  -8  287.38   15.36
  -4   4  -8  290.78   17.01
  -4   4  -8  295.59   15.48
  -4   4  -8  304.95   16.98
  -4   4  -8  310.09   17.11
  -4   4  -7   63.90    6.57
  -4   4  -7   71.88    7.68
  -4   4  -7   67.58    7.36
  -4   4  -7   53.33    6.16
  -4   4  -7   50.65    6.54
  -4   4  -6  486.79   20.40
  -4   4  -6  467.52   20.24
  -4   4  -6  494.81   21.59
  -4   4  -6  461.16   21.00
  -4   4  -6  485.31   21.24
  -4   4  -5 1684.20   54.87
  -4   4  -5 1770.40   55.11
  -4   4  -5 1681.47   54.70
  -4   4  -5 1683.20   53.96
  -4   4  -5 1709.57   54.03
  -4   4  -4  163.01   10.06
  -4   4  -4  133.40    9.04
  -4   4  -4  158.48    9.68
  -4   4  -4  167.77   10.10
  -4   4  -4  156.28    9.82
  -4   4  -3  242.69   12.31
  -4   4  -3  265.24   12.80
  -4   4  -3  279.13   13.09
  -4   4  -3  260.67   12.77
  -4   4  -3  259.87   12.59
  -4   4  -2 1834.09   56.26
  -4   4  -2 1965.65   56.25
  -4   4  -2 1809.21   56.21
  -4   4  -2 1741.03   55.93
  -4   4  -2 1829.66   56.63
  -4   4  -2 1848.58   56.36
  -4   4  -2 1867.05   56.38
  -4   4  -1 2032.63   61.53
  -4   4  -1 2074.79   61.90
  -4   4  -1 2075.07   61.87
  -4   4  -1 2022.57   61.53
  -4   4  -1 2032.93   61.81
  -4   4  -1 1993.85   62.12
  -4   4  -1 2198.64   62.09
  -4   4   0   72.81    5.84
  -4   4   0   70.27    5.42
  -4   4   0   70.69    5.37
  -4   4   0   74.42    5.89
  -4   4   0   66.73    6.04
  -4   4   1  604.06   21.14
  -4   4   1  592.48   21.48
  -4   4   1  572.07   20.43
  -4   4   1  608.05   22.21
  -4   4   1  582.64   20.46
  -4   4   2 1337.83   43.56
  -4   4   2 1417.45   43.24
  -4   4   2 1368.48   43.15
  -4   4   3  641.20   23.01
  -4   4   3  621.94   22.75
  -4   4   3  604.45   22.75
  -4   4   4  189.43   10.13
  -4   4   4  169.16   10.02
  -4   4   5  140.98    9.06
  -4   4   5  153.82    9.63
  -4   4   6  742.18   26.83
  -4   4   6  700.12   26.96
  -4   4   7   24.74    4.86
  -4   4   7   36.77    5.15
  -4   4   8   15.35    3.95
  -4   4   8   11.81    4.12
  -4   4   9  184.72   12.03
  -4   4   9  184.93   12.22
  -4   4  10  244.32   14.70
  -4   4  10  245.93   14.57
  -4   4  11   43.84    6.70
  -4   4  11   48.18    6.84
  -4   4  12   11.91    5.04
  -4   4  12   13.46    5.07
  -4   4  13   64.72    8.25
  -4   5 -14   35.05    7.48
  -4   5 -14   40.15    8.36
  -4   5 -14   46.87    8.57
  -4   5 -13  214.55   17.34
  -4   5 -13  248.81   18.03
  -4   5 -13  223.25   17.23
  -4   5 -12  399.11   19.78
  -4   5 -12  356.90   21.91
  -4   5 -12  377.80   19.41
  -4   5 -12  309.01   20.57
  -4   5 -12  337.06   21.32
  -4   5 -11    7.40    5.19
  -4   5 -11    7.40    5.03
  -4   5 -11    5.49    3.91
  -4   5 -11    8.96    3.93
  -4   5 -11    3.75    4.93
  -4   5 -10  291.93   17.99
  -4   5 -10  292.60   16.36
  -4   5 -10  264.84   17.33
  -4   5 -10  287.81   18.06
  -4   5 -10  300.35   16.46
  -4   5  -9  201.55   12.74
  -4   5  -9  187.64   13.68
  -4   5  -9  175.77   13.11
  -4   5  -9  178.16   12.17
  -4   5  -9  195.88   13.79
  -4   5  -8   78.42    7.97
  -4   5  -8   71.49    7.61
  -4   5  -8   87.82    8.72
  -4   5  -8   92.79    9.10
  -4   5  -8   75.15    8.19
  -4   5  -7    5.66    3.37
  -4   5  -7   10.85    3.90
  -4   5  -7    9.43    3.99
  -4   5  -7   12.21    3.60
  -4   5  -7   12.85    3.63
  -4   5  -6  544.64   22.54
  -4   5  -6  508.82   22.29
  -4   5  -6  506.67   22.09
  -4   5  -6  555.49   22.17
  -4   5  -6  505.24   21.61
  -4   5  -5   56.57    5.89
  -4   5  -5   59.60    6.26
  -4   5  -5   62.97    6.34
  -4   5  -5   63.02    6.30
  -4   5  -5   55.99    6.05
  -4   5  -4   52.56    5.59
  -4   5  -4   54.25    5.62
  -4   5  -4   52.85    5.49
  -4   5  -4   52.83    5.59
  -4   5  -4   50.66    5.46
  -4   5  -3  101.10    7.11
  -4   5  -3   79.10    6.67
  -4   5  -3   81.61    6.61
  -4   5  -3   97.74    7.05
  -4   5  -3   84.62    6.87
  -4   5  -2  361.65   15.51
  -4   5  -2  362.00   15.25
  -4   5  -2  373.00   15.30
  -4   5  -2  372.78   15.70
  -4   5  -2  384.44   15.46
  -4   5  -1  668.81   23.76
  -4   5  -1  680.66   23.85
  -4   5  -1  686.69   23.99
  -4   5  -1  669.40   23.57
  -4   5  -1  650.28   23.42
  -4   5  -1  681.33   23.65
  -4   5  -1  703.13   25.74
  -4   5   0  234.54   11.72
  -4   5   0  270.59   13.05
  -4   5   0  239.21   10.94
  -4   5   0  231.60   10.86
  -4   5   1   51.68    4.53
  -4   5   1   53.55    4.51
  -4   5   1   74.87    6.55
  -4   5   1   70.48    5.87
  -4   5   2  132.87    8.43
  -4   5   2  120.48    8.47
  -4   5   3  902.31   30.81
  -4   5   3  853.81   31.00
  -4   5   4  638.80   25.26
  -4   5   4  708.69   25.51
  -4   5   5   18.61    3.89
  -4   5   5   29.99    4.72
  -4   5   6  264.05   13.98
  -4   5   6  261.71   13.77
  -4   5   7  788.99   29.69
  -4   5   7  773.09   29.51
  -4   5   8  312.18   16.17
  -4   5   9  219.74   13.65
  -4   5  10  338.06   18.06
  -4   5  11  256.12   15.82
  -4   5  12    6.20    4.35
  -4   6 -14   15.40    5.70
  -4   6 -14   18.98    5.88
  -4   6 -14   14.31    5.39
  -4   6 -13   14.59    5.95
  -4   6 -13   19.03    5.95
  -4   6 -13   27.08    6.84
  -4   6 -12  615.19   30.54
  -4   6 -12  588.20   29.84
  -4   6 -12  686.46   28.75
  -4   6 -12  724.92   29.28
  -4   6 -12  595.45   30.07
  -4   6 -11  105.18   10.03
  -4   6 -11   90.93   10.31
  -4   6 -11   86.88   10.17
  -4   6 -11   93.18    9.59
  -4   6 -11  109.58   11.03
  -4   6 -10  121.75   10.38
  -4   6 -10   96.44   10.07
  -4   6 -10  103.16   10.53
  -4   6 -10   99.11    9.37
  -4   6 -10  107.02   10.59
  -4   6  -9  515.39   23.00
  -4   6  -9  474.98   23.33
  -4   6  -9  543.49   23.35
  -4   6  -9  479.02   23.43
  -4   6  -9  480.80   23.61
  -4   6  -8  888.31   33.07
  -4   6  -8  831.15   33.32
  -4   6  -8  834.28   33.36
  -4   6  -8  823.97   33.54
  -4   6  -7  337.47   17.24
  -4   6  -7  354.18   17.75
  -4   6  -7  363.04   17.50
  -4   6  -7  338.32   17.39
  -4   6  -7  379.42   17.77
  -4   6  -6  175.88   11.32
  -4   6  -6  185.43   11.50
  -4   6  -6  210.53   12.18
  -4   6  -6  202.95   12.07
  -4   6  -6  190.08   11.69
  -4   6  -5 1073.89   37.15
  -4   6  -5 1134.66   38.20
  -4   6  -5 1069.61   37.21
  -4   6  -5 1139.23   38.22
  -4   6  -5 1090.67   37.24
  -4   6  -4 1246.04   40.70
  -4   6  -4 1227.38   40.65
  -4   6  -4 1255.87   41.69
  -4   6  -4 1256.35   40.75
  -4   6  -4 1290.93   41.88
  -4   6  -3   43.12    5.65
  -4   6  -3   47.78    5.33
  -4   6  -3   41.88    5.11
  -4   6  -2 1070.35   36.34
  -4   6  -2 1137.32   38.61
  -4   6  -2 1107.00   36.54
  -4   6  -1 2096.15   63.41
  -4   6  -1 2098.17   63.46
  -4   6  -1 2184.77   66.45
  -4   6   0  265.16   11.86
  -4   6   0  292.02   14.50
  -4   6   0  273.01   13.26
  -4   6   0  249.80   11.64
  -4   6   1  344.00   15.63
  -4   6   1  323.14   16.14
  -4   6   2 1096.06   39.12
  -4   6   2 1175.44   38.58
  -4   6   3  833.33   31.42
  -4   6   3  873.66   30.95
  -4   6   4   48.03    5.67
  -4   6   4   44.73    5.90
  -4   6   5  446.50   19.69
  -4   6   6  306.97   15.77
  -4   6   7  167.07   11.40
  -4   6   8   21.35    4.86
  -4   6   9  103.27    9.37
  -4   6  10   83.32    8.86
  -4   6  11  244.72   15.85
  -4   6  12   41.56    6.85
  -4   7 -14   12.00    5.43
  -4   7 -14   -1.07    4.80
  -4   7 -14    1.08    4.20
  -4   7 -13  222.48   16.90
  -4   7 -13  233.83   15.93
  -4   7 -13  221.59   16.70
  -4   7 -13  232.67   15.83
  -4   7 -13  215.42   16.64
  -4   7 -12  304.30   19.62
  -4   7 -12  339.07   18.79
  -4   7 -12  263.98   18.51
  -4   7 -12  298.91   19.40
  -4   7 -12  352.55   19.00
  -4   7 -11  110.98   10.26
  -4   7 -11  100.34    9.72
  -4   7 -11  108.64   10.76
  -4   7 -11  104.42   10.65
  -4   7 -11   95.71   10.31
  -4   7 -10   14.45    4.86
  -4   7 -10   20.12    5.18
  -4   7 -10   23.12    5.48
  -4   7 -10   21.98    5.17
  -4   7 -10   18.48    5.34
  -4   7  -9  460.18   21.74
  -4   7  -9  448.75   21.59
  -4   7  -8  818.81   31.82
  -4   7  -8  804.73   31.74
  -4   7  -7   53.83    6.70
  -4   7  -7   44.84    5.99
  -4   7  -6   26.51    4.66
  -4   7  -6   28.15    4.91
  -4   7  -5  857.89   30.94
  -4   7  -5  775.23   30.15
  -4   7  -4  814.91   29.82
  -4   7  -4  808.51   31.33
  -4   7  -4  812.87   29.81
  -4   7  -3  572.25   24.34
  -4   7  -3  582.02   22.74
  -4   7  -3  577.20   22.67
  -4   7  -2   24.72    5.09
  -4   7  -2   30.65    4.41
  -4   7  -2   32.03    4.50
  -4   7  -1  536.49   20.97
  -4   7  -1  565.33   21.27
  -4   7  -1  604.73   24.33
  -4   7   0 1469.07   47.87
  -4   7   0 1470.47   49.42
  -4   7   1  336.41   17.03
  -4   7   1  320.20   15.67
  -4   7   2  131.08    9.32
  -4   7   2  118.54    9.74
  -4   7   3 1708.75   54.98
  -4   7   3 1693.02   56.24
  -4   7   4  418.90   20.49
  -4   7   4  464.03   20.20
  -4   7   5    4.12    3.15
  -4   7   6  640.53   26.31
  -4   7   7  967.64   36.07
  -4   7   8   44.27    6.42
  -4   7   9  100.39    9.42
  -4   7  10  304.93   17.76
  -4   7  11  265.81   16.79
  -4   8 -14  104.11   10.98
  -4   8 -14  106.93   10.95
  -4   8 -13   63.59    8.38
  -4   8 -13   41.31    7.21
  -4   8 -12   95.76   10.07
  -4   8 -12  102.04   10.44
  -4   8 -11  467.59   23.75
  -4   8 -11  533.18   24.78
  -4   8 -10   12.16    4.46
  -4   8 -10   13.62    4.62
  -4   8  -9   98.25    9.49
  -4   8  -9   93.56    9.34
  -4   8  -8 1085.01   39.61
  -4   8  -8 1038.15   39.32
  -4   8  -7  622.75   26.63
  -4   8  -7  654.09   27.05
  -4   8  -6    3.08    3.29
  -4   8  -6    1.85    3.19
  -4   8  -5  736.33   29.07
  -4   8  -5  767.08   30.74
  -4   8  -5  756.77   29.33
  -4   8  -4 1435.74   50.96
  -4   8  -4 1528.32   49.65
  -4   8  -4 1516.67   49.59
  -4   8  -3  339.56   16.18
  -4   8  -3  343.67   18.03
  -4   8  -3  350.00   16.34
  -4   8  -2   74.63    8.00
  -4   8  -2   86.06    7.05
  -4   8  -2   64.82    6.41
  -4   8  -1  571.09   24.99
  -4   8   0  557.96   24.63
  -4   8   0  566.47   23.32
  -4   8   1   15.24    3.99
  -4   8   1   14.25    4.60
  -4   8   2   54.55    6.55
  -4   8   2   54.62    6.87
  -4   8   3  481.11   23.56
  -4   8   3  603.49   23.96
  -4   8   4   57.00    7.08
  -4   8   4   75.02    8.32
  -4   8   5    1.95    3.59
  -4   8   6  138.82   10.91
  -4   8   7  269.04   16.01
  -4   8   8   32.06    6.09
  -4   8   9    0.76    3.64
  -4   8  10   64.55    7.99
  -4   9 -14   19.09    5.42
  -4   9 -14   23.51    5.95
  -4   9 -13   39.69    7.24
  -4   9 -13   44.32    7.43
  -4   9 -12  464.07   23.39
  -4   9 -12  390.06   22.02
  -4   9 -11  105.43   10.57
  -4   9 -11   96.66   10.45
  -4   9 -10   -0.80    4.76
  -4   9 -10   -0.80    4.68
  -4   9  -9  263.65   16.48
  -4   9  -9  288.08   17.06
  -4   9  -8  641.35   28.49
  -4   9  -8  703.38   29.26
  -4   9  -7  136.37   11.14
  -4   9  -7  112.13   10.29
  -4   9  -6   -1.33    3.49
  -4   9  -6    0.67    3.44
  -4   9  -6    3.00    3.19
  -4   9  -5  406.24   20.62
  -4   9  -5  393.07   19.39
  -4   9  -5  405.23   19.57
  -4   9  -4  837.00   31.73
  -4   9  -4  826.34   31.73
  -4   9  -4  858.42   33.71
  -4   9  -3  407.11   20.80
  -4   9  -3  427.61   19.06
  -4   9  -3  402.88   18.83
  -4   9  -2   -0.73    3.89
  -4   9  -1  469.91   22.52
  -4   9   0  709.16   29.85
  -4   9   0  720.47   28.43
  -4   9   1  603.25   25.26
  -4   9   1  602.13   26.81
  -4   9   2   -5.72    3.34
  -4   9   2   -2.29    3.80
  -4   9   3  605.49   27.09
  -4   9   3  601.10   25.81
  -4   9   4  733.76   31.51
  -4   9   4  759.99   30.46
  -4   9   5  441.54   22.57
  -4   9   5  417.86   20.99
  -4   9   6   87.54    9.23
  -4   9   7  590.10   26.66
  -4   9   8  340.32   19.39
  -4   9   9    8.84    4.51
  -4  10 -14  107.83   11.56
  -4  10 -14  129.93   12.43
  -4  10 -13   90.64   10.61
  -4  10 -13   78.02    9.90
  -4  10 -12   29.70    6.38
  -4  10 -12   25.27    5.95
  -4  10 -11  190.29   14.66
  -4  10 -11  179.46   14.22
  -4  10 -10  371.01   20.79
  -4  10 -10  359.30   20.63
  -4  10  -9   46.46    7.33
  -4  10  -9   37.57    6.81
  -4  10  -8  192.46   14.18
  -4  10  -8  228.11   15.03
  -4  10  -7  354.82   19.45
  -4  10  -7  352.52   19.29
  -4  10  -6  250.34   16.16
  -4  10  -6  280.03   16.13
  -4  10  -6  260.43   15.92
  -4  10  -5    1.37    3.13
  -4  10  -5    7.90    4.43
  -4  10  -5    2.05    3.20
  -4  10  -4  722.95   29.81
  -4  10  -4  753.62   30.22
  -4  10  -4  786.76   32.09
  -4  10  -3  205.90   14.25
  -4  10  -2    4.73    3.52
  -4  10  -1  375.91   20.11
  -4  10   0  449.64   22.56
  -4  10   1   60.20    8.27
  -4  10   1   52.19    6.88
  -4  10   2   24.18    5.54
  -4  10   2   43.97    7.20
  -4  10   3  170.16   12.62
  -4  10   3  162.89   13.26
  -4  10   4   69.67    8.11
  -4  10   4   86.91    9.70
  -4  10   5  100.95   10.97
  -4  10   5  137.49   11.51
  -4  10   6   -3.89    4.16
  -4  10   7   52.22    7.69
  -4  11 -13   -1.92    4.40
  -4  11 -13   -0.97    3.52
  -4  11 -12  177.01   14.70
  -4  11 -12  177.53   14.54
  -4  11 -11  248.64   17.47
  -4  11 -11  286.55   18.28
  -4  11 -10  190.49   14.66
  -4  11 -10  188.30   14.74
  -4  11  -9   12.98    5.08
  -4  11  -9   11.27    5.15
  -4  11  -8  161.28   13.05
  -4  11  -8  154.83   12.87
  -4  11  -7   87.56   10.01
  -4  11  -7  100.73   10.27
  -4  11  -7   96.55   10.16
  -4  11  -6  331.44   19.22
  -4  11  -6  366.22   19.95
  -4  11  -6  401.38   21.13
  -4  11  -5    5.87    4.18
  -4  11  -5    4.44    3.68
  -4  11  -5   10.37    4.16
  -4  11  -4   62.95    8.24
  -4  11  -3  279.85   17.52
  -4  11  -2  249.16   16.41
  -4  11  -1   -5.96    4.16
  -4  11   0  602.19   28.17
  -4  11   1  351.10   20.12
  -4  11   1  328.05   18.43
  -4  11   2  129.90   10.99
  -4  11   2  119.64   11.65
  -4  11   3  231.43   16.24
  -4  11   3  208.16   14.64
  -4  11   4  284.14   18.69
  -4  11   4  316.72   18.19
  -4  11   5  404.53   22.99
  -4  11   5  411.81   21.74
  -4  11   6    2.47    4.01
  -4  12 -12   33.45    6.89
  -4  12 -12   20.61    6.25
  -4  12 -11  410.26   23.30
  -4  12 -11  426.52   23.56
  -4  12 -10  328.91   20.54
  -4  12 -10  351.70   21.07
  -4  12  -9   43.86    7.80
  -4  12  -9   39.24    7.26
  -4  12  -8  253.68   17.05
  -4  12  -8  230.87   16.23
  -4  12  -8  228.51   16.21
  -4  12  -7  387.77   21.73
  -4  12  -7  445.86   23.24
  -4  12  -7  416.87   22.47
  -4  12  -6  702.07   31.61
  -4  12  -6  726.99   31.93
  -4  12  -5  242.27   16.79
  -4  12  -4  116.51   11.61
  -4  12  -3  556.94   27.11
  -4  12  -2   64.74    8.77
  -4  12  -1  171.40   13.97
  -4  12   0  359.75   20.97
  -4  12   1  166.93   14.05
  -4  12   2   -3.20    4.13
  -4  12   2   -0.95    4.25
  -4  12   3  166.62   14.49
  -4  12   3  182.12   13.74
  -4  12   4  171.82   13.68
  -4  12   4  198.16   15.58
  -4  12   5  105.55   11.33
  -4  13 -11  222.02   16.87
  -4  13 -11  228.59   17.17
  -4  13 -10   53.75    8.21
  -4  13 -10   49.91    8.44
  -4  13  -9   -2.87    4.58
  -4  13  -9   -7.63    4.75
  -4  13  -8   26.07    6.20
  -4  13  -8   21.46    6.07
  -4  13  -8   25.06    6.18
  -4  13  -7  282.69   17.99
  -4  13  -7  226.80   16.32
  -4  13  -7  254.52   16.98
  -4  13  -6   89.96   10.21
  -4  13  -5    6.51    4.81
  -4  13  -4    0.93    5.08
  -4  13  -3  209.79   15.74
  -4  13  -2  266.41   17.94
  -4  13  -1   33.49    6.98
  -4  13   0    9.68    4.82
  -4  13   1  302.62   19.84
  -4  13   2  211.65   16.63
  -4  14 -10  232.43   17.33
  -4  14 -10  265.33   18.26
  -4  14  -9   46.53    7.86
  -4  14  -9   58.18    8.84
  -4  14  -9   54.55    8.33
  -4  14  -8   74.64    9.73
  -4  14  -8   91.86   10.53
  -4  14  -8   82.39   10.08
  -4  14  -7  483.01   25.47
  -4  14  -6  213.29   16.13
  -4  14  -5    2.91    4.54
  -4  14  -4  296.44   19.67
  -4  14  -3  547.16   27.96
  -4  14  -2   32.69    7.48
  -4  14  -1   49.95    8.60
  -3 -12   7  334.20   22.45
  -3 -12   8   46.07    8.72
  -3 -12   9   36.03    8.49
  -3 -12  10  233.25   18.45
  -3 -11   6  168.64   15.38
  -3 -11   7  322.96   21.43
  -3 -11   8  166.06   15.12
  -3 -11   9    2.18    4.98
  -3 -11  10  255.29   19.21
  -3 -11  11  307.21   20.98
  -3 -11  12   94.11   11.78
  -3 -10   5    1.03    5.11
  -3 -10   6  391.12   23.60
  -3 -10   7  536.26   28.11
  -3 -10   8   68.26    9.75
  -3 -10   9   84.89   10.89
  -3 -10  10  393.92   23.54
  -3 -10  11  182.68   15.56
  -3 -10  12   -2.11    5.03
  -3 -10  13   61.57    9.69
  -3 -10  14  101.79   11.91
  -3  -9  -4  104.59   12.42
  -3  -9  -3    8.12    5.15
  -3  -9  -2   13.48    5.33
  -3  -9  -1  147.00   12.97
  -3  -9   0   83.73    9.50
  -3  -9   4   79.33   10.19
  -3  -9   5   67.37    9.56
  -3  -9   6    6.76    5.16
  -3  -9   7   18.30    5.89
  -3  -9   8  161.84   13.97
  -3  -9   9   41.94    8.32
  -3  -9  10  140.94   13.67
  -3  -9  11  260.48   18.43
  -3  -9  12  240.78   17.54
  -3  -9  13   11.20    5.97
  -3  -9  14  349.55   22.17
  -3  -9  15  389.47   23.38
  -3  -8  -5   48.33    8.80
  -3  -8  -4  261.61   18.81
  -3  -8  -3  180.31   15.03
  -3  -8  -2    1.86    4.06
  -3  -8  -1  341.88   20.07
  -3  -8   0  846.41   34.99
  -3  -8   1  423.63   21.59
  -3  -8   2   22.83    5.12
  -3  -8   3  532.97   23.72
  -3  -8   3  482.95   25.02
  -3  -8   4 1390.79   51.25
  -3  -8   5   -2.64    5.50
  -3  -8   6   20.36    6.66
  -3  -8   7  520.25   25.97
  -3  -8   8  193.39   14.82
  -3  -8   9    9.94    4.99
  -3  -8  10  139.97   12.75
  -3  -8  11  124.67   12.30
  -3  -8  12   84.39   10.43
  -3  -8  13   -5.81    5.75
  -3  -8  14   34.07    7.10
  -3  -8  15  184.22   15.25
  -3  -8  16   11.91    5.23
  -3  -7  -6   44.06    8.55
  -3  -7  -5   27.80    7.04
  -3  -7  -4  524.22   27.30
  -3  -7  -3  268.58   18.19
  -3  -7  -2   15.97    5.42
  -3  -7  -1  292.50   17.92
  -3  -7   0  373.56   20.05
  -3  -7   1  378.50   19.76
  -3  -7   2  125.68   10.39
  -3  -7   3  215.68   15.03
  -3  -7   3  239.52   14.29
  -3  -7   4  597.87   24.50
  -3  -7   4  498.76   25.18
  -3  -7   5  225.66   15.64
  -3  -7   5  291.21   15.24
  -3  -7   6  119.62    9.27
  -3  -7   6   95.77    9.95
  -3  -7   7  366.31   20.09
  -3  -7   8  671.93   29.72
  -3  -7   9   87.84    9.82
  -3  -7  10   -3.39    4.89
  -3  -7  11  525.04   25.99
  -3  -7  12  478.47   24.82
  -3  -7  13   96.68   10.61
  -3  -7  14  114.27   11.47
  -3  -7  15  368.48   21.74
  -3  -7  16   88.35   10.55
  -3  -6  -8  115.57   13.21
  -3  -6  -7   54.35    9.35
  -3  -6  -6  150.85   14.37
  -3  -6  -5    8.23    4.82
  -3  -6  -4  339.25   20.76
  -3  -6  -3  815.65   35.00
  -3  -6  -2  107.36   10.78
  -3  -6  -1  140.89   11.65
  -3  -6   0 1489.67   51.91
  -3  -6   1 1032.26   38.55
  -3  -6   2   97.07    8.87
  -3  -6   2  100.46    7.98
  -3  -6   3 1876.98   58.85
  -3  -6   3 1873.31   56.67
  -3  -6   4 1196.48   39.89
  -3  -6   4 1152.17   37.68
  -3  -6   5 1118.85   36.32
  -3  -6   5 1077.10   37.33
  -3  -6   6   98.32    8.33
  -3  -6   6   67.82    8.20
  -3  -6   7 2468.70   71.84
  -3  -6   7 2093.08   73.12
  -3  -6   8 1121.99   43.16
  -3  -6   8 1267.90   41.81
  -3  -6   9  200.91   13.87
  -3  -6  10  130.15   11.41
  -3  -6  11  768.94   32.66
  -3  -6  12  399.45   21.63
  -3  -6  13   43.96    7.29
  -3  -6  14   23.49    5.67
  -3  -6  15  131.86   12.22
  -3  -5  -9   13.65    6.18
  -3  -5  -8  139.22   13.94
  -3  -5  -7  396.80   24.19
  -3  -5  -6  280.51   19.45
  -3  -5  -5    1.96    5.14
  -3  -5  -4  337.53   20.17
  -3  -5  -3  499.56   24.86
  -3  -5  -2  164.62   10.25
  -3  -5  -2  151.90    9.91
  -3  -5  -2  171.12   10.30
  -3  -5  -2  150.26   12.30
  -3  -5  -1   11.39    3.00
  -3  -5  -1   10.39    2.85
  -3  -5  -1   17.16    3.54
  -3  -5  -1   19.74    5.01
  -3  -5   0  215.50   11.61
  -3  -5   0  223.78   11.79
  -3  -5   0  220.25   11.77
  -3  -5   0  239.34   14.39
  -3  -5   1  416.07   19.87
  -3  -5   2   10.35    3.89
  -3  -5   2    9.10    3.46
  -3  -5   2    8.58    2.95
  -3  -5   3   11.60    3.97
  -3  -5   3    9.87    3.21
  -3  -5   3    7.48    2.75
  -3  -5   4  338.37   15.51
  -3  -5   4  351.84   16.76
  -3  -5   4  312.86   16.51
  -3  -5   5  216.65   13.52
  -3  -5   5  254.34   13.57
  -3  -5   6  191.97   12.39
  -3  -5   6  183.28   11.47
  -3  -5   7  591.51   23.42
  -3  -5   7  534.11   23.92
  -3  -5   8  405.39   20.19
  -3  -5   8  448.03   19.55
  -3  -5   9 1182.84   42.86
  -3  -5  10   11.42    4.63
  -3  -5  11  495.81   23.60
  -3  -5  12  707.29   30.27
  -3  -5  13  157.52   12.58
  -3  -5  14    7.39    4.47
  -3  -5  15  329.75   19.69
  -3  -4 -10  114.19   13.46
  -3  -4  -9   25.37    7.67
  -3  -4  -8   14.85    6.22
  -3  -4  -7  228.19   17.35
  -3  -4  -6  434.76   24.18
  -3  -4  -5  346.17   16.49
  -3  -4  -5  326.66   19.94
  -3  -4  -5  311.11   15.96
  -3  -4  -5  299.14   15.78
  -3  -4  -4  197.90   11.63
  -3  -4  -4  191.31   11.42
  -3  -4  -4  197.61   14.56
  -3  -4  -4  182.88   11.32
  -3  -4  -3  318.86   18.45
  -3  -4  -3  333.35   15.65
  -3  -4  -3  339.80   15.81
  -3  -4  -3  327.20   15.61
  -3  -4  -2 2203.89   66.97
  -3  -4  -2 2194.46   71.24
  -3  -4  -2 2172.01   66.81
  -3  -4  -2 2197.39   66.89
  -3  -4  -1  228.97   11.66
  -3  -4  -1  214.90   11.39
  -3  -4  -1  225.85   14.27
  -3  -4  -1  198.86   11.16
  -3  -4   0  272.77   15.07
  -3  -4   0  241.30   12.36
  -3  -4   0  261.20   12.62
  -3  -4   0  264.82   12.69
  -3  -4   1 1838.33   57.93
  -3  -4   1 1877.60   59.95
  -3  -4   2  703.19   27.68
  -3  -4   2  708.89   26.50
  -3  -4   2  728.87   26.49
  -3  -4   3   -1.43    2.91
  -3  -4   3    0.54    2.49
  -3  -4   3    6.24    1.95
  -3  -4   4 1418.02   44.68
  -3  -4   4 1336.25   45.12
  -3  -4   4 1360.62   45.62
  -3  -4   5 1074.32   38.26
  -3  -4   5 1172.04   38.98
  -3  -4   6  199.47   12.21
  -3  -4   6  211.61   12.04
  -3  -4   7  402.42   18.25
  -3  -4   7  416.49   19.00
  -3  -4   8  294.02   15.70
  -3  -4   9 1342.55   46.21
  -3  -4  10    1.30    3.23
  -3  -4  11   56.57    7.11
  -3  -4  12  419.78   20.99
  -3  -4  13  227.09   15.08
  -3  -4  14   14.74    4.50
  -3  -4  15   65.32    8.30
  -3  -4  16  163.57   13.67
  -3  -4  17   90.55   10.84
  -3  -3 -11  129.03   14.42
  -3  -3 -10  296.36   21.40
  -3  -3  -9  103.13   12.34
  -3  -3  -8  147.56   14.29
  -3  -3  -8  160.34   11.79
  -3  -3  -8  159.72   11.67
  -3  -3  -8  142.27   11.19
  -3  -3  -7  534.46   27.44
  -3  -3  -7  508.22   22.77
  -3  -3  -7  509.76   22.96
  -3  -3  -7  522.07   22.96
  -3  -3  -6  606.75   28.53
  -3  -3  -6  555.85   23.86
  -3  -3  -6  596.76   24.37
  -3  -3  -6  555.44   23.92
  -3  -3  -5   12.92    5.12
  -3  -3  -5    6.50    3.13
  -3  -3  -5    5.46    2.83
  -3  -3  -5    9.75    3.51
  -3  -3  -4  437.13   18.90
  -3  -3  -4  412.69   18.70
  -3  -3  -4  435.75   18.91
  -3  -3  -4  470.51   22.77
  -3  -3  -3  167.04   10.31
  -3  -3  -3  190.32   10.79
  -3  -3  -3  179.89   10.61
  -3  -3  -3  170.06   12.56
  -3  -3  -2  708.87   26.56
  -3  -3  -2  732.37   26.82
  -3  -3  -2  778.95   27.08
  -3  -3  -2  759.90   30.19
  -3  -3  -1   11.91    2.82
  -3  -3  -1   11.81    2.93
  -3  -3  -1    8.15    2.59
  -3  -3  -1   13.61    3.92
  -3  -3   0    9.33    2.48
  -3  -3   0   16.32    3.10
  -3  -3   0   14.77    2.98
  -3  -3   0   15.57    3.79
  -3  -3   0   12.15    2.75
  -3  -3   1  377.37   15.51
  -3  -3   1  403.34   18.02
  -3  -3   1  381.88   15.85
  -3  -3   1  371.14   15.73
  -3  -3   1  374.85   15.79
  -3  -3   2  833.34   28.49
  -3  -3   2  829.75   30.39
  -3  -3   2  821.74   29.16
  -3  -3   3  133.48    8.42
  -3  -3   3  133.26    9.17
  -3  -3   3  130.59    8.38
  -3  -3   4  271.08   13.80
  -3  -3   4  262.66   12.88
  -3  -3   4  275.27   13.26
  -3  -3   5 1076.93   36.36
  -3  -3   5 1022.85   35.27
  -3  -3   6 1264.90   42.61
  -3  -3   6 1291.72   42.37
  -3  -3   7   70.45    6.82
  -3  -3   8  174.33   11.03
  -3  -3   9 1613.48   53.27
  -3  -3   9 1642.86   51.17
  -3  -3  10  509.17   21.08
  -3  -3  10  532.68   22.90
  -3  -3  11    4.45    3.17
  -3  -3  11    4.47    3.18
  -3  -3  12  674.37   28.31
  -3  -3  12  682.21   27.63
  -3  -3  13 1025.29   38.67
  -3  -3  13 1030.91   38.52
  -3  -3  14   33.70    5.91
  -3  -3  14   28.30    6.17
  -3  -3  15  132.38   11.98
  -3  -3  16  746.85   33.15
  -3  -3  17  143.06   13.18
  -3  -2 -12    6.39    5.58
  -3  -2 -11   -0.84    3.40
  -3  -2 -11    0.83    3.71
  -3  -2 -11    2.49    4.05
  -3  -2 -11   -2.45    4.93
  -3  -2 -10  193.00   14.47
  -3  -2 -10  249.49   15.72
  -3  -2 -10  239.74   15.52
  -3  -2 -10  209.45   17.77
  -3  -2  -9  162.92   12.27
  -3  -2  -9  162.83   12.18
  -3  -2  -9  151.07   14.52
  -3  -2  -9  150.72   11.82
  -3  -2  -8  165.60   11.84
  -3  -2  -8  166.64   11.88
  -3  -2  -8  154.37   14.31
  -3  -2  -8  169.67   12.22
  -3  -2  -7   74.91    9.51
  -3  -2  -7   83.21    8.34
  -3  -2  -7   77.77    7.97
  -3  -2  -7   90.88    8.40
  -3  -2  -6  852.91   32.57
  -3  -2  -6  924.87   33.01
  -3  -2  -6  860.63   36.31
  -3  -2  -6  869.76   32.53
  -3  -2  -5  657.10   25.46
  -3  -2  -5  629.53   25.23
  -3  -2  -5  672.94   25.74
  -3  -2  -5  634.29   28.71
  -3  -2  -4    5.78    2.66
  -3  -2  -4    8.01    4.38
  -3  -2  -4    6.27    2.62
  -3  -2  -4    6.33    2.85
  -3  -2  -3  869.95   32.94
  -3  -2  -3  806.62   29.47
  -3  -2  -3  837.93   29.61
  -3  -2  -3  837.10   29.66
  -3  -2  -2 2157.12   66.06
  -3  -2  -2 2174.04   66.12
  -3  -2  -2 2216.46   69.48
  -3  -2  -2 2234.17   66.36
  -3  -2  -1  258.59   14.05
  -3  -2  -1  248.75   12.04
  -3  -2  -1  247.79   12.01
  -3  -2  -1  258.67   12.21
  -3  -2   0  418.40   17.14
  -3  -2   0  440.63   15.77
  -3  -2   0  446.65   17.45
  -3  -2   0  446.15   17.52
  -3  -2   0  461.32   19.73
  -3  -2   1 2953.53   90.69
  -3  -2   1 3038.51   89.34
  -3  -2   1 3045.02   88.61
  -3  -2   1 3031.19   88.59
  -3  -2   1 3022.87   88.61
  -3  -2   1 3162.38   87.20
  -3  -2   2 2966.69   86.14
  -3  -2   2 2983.84   84.40
  -3  -2   2 2810.29   87.09
  -3  -2   3   48.11    5.46
  -3  -2   3   53.02    4.82
  -3  -2   4  961.80   31.49
  -3  -2   4  927.96   32.96
  -3  -2   5 3204.16   97.82
  -3  -2   5 3294.39   96.49
  -3  -2   5 3400.80   93.22
  -3  -2   6  853.77   26.87
  -3  -2   6  873.35   30.63
  -3  -2   6  795.30   29.11
  -3  -2   7    3.62    2.65
  -3  -2   7    4.25    2.16
  -3  -2   8  504.50   20.88
  -3  -2   8  504.03   19.26
  -3  -2   9  168.23    9.99
  -3  -2   9  179.09   11.15
  -3  -2  10  143.07   10.45
  -3  -2  10  156.12   10.10
  -3  -2  11   38.47    5.85
  -3  -2  11   41.05    5.85
  -3  -2  12    3.78    3.48
  -3  -2  12    0.64    3.35
  -3  -2  13  129.47   10.53
  -3  -2  13  130.44   10.87
  -3  -2  14   73.28    8.79
  -3  -2  14   77.68    8.50
  -3  -2  15    1.68    4.34
  -3  -2  16  102.07   11.21
  -3  -1 -12   13.51    5.21
  -3  -1 -12   10.95    4.80
  -3  -1 -12    7.20    4.57
  -3  -1 -11   68.43   10.42
  -3  -1 -11   79.71    9.26
  -3  -1 -11   66.96    8.69
  -3  -1 -11   68.93    8.86
  -3  -1 -10  515.77   28.22
  -3  -1 -10  534.73   25.35
  -3  -1 -10  550.02   25.55
  -3  -1 -10  543.59   25.76
  -3  -1  -9  274.07   16.56
  -3  -1  -9  300.59   17.23
  -3  -1  -9  306.59   20.00
  -3  -1  -9  281.46   16.91
  -3  -1  -8    3.79    4.54
  -3  -1  -8   15.03    4.38
  -3  -1  -8    7.42    3.49
  -3  -1  -8    8.09    3.95
  -3  -1  -7  104.95   10.70
  -3  -1  -7   94.65    8.52
  -3  -1  -7   92.32    8.55
  -3  -1  -7   96.41    8.66
  -3  -1  -6  747.23   28.66
  -3  -1  -6  712.75   31.23
  -3  -1  -6  759.03   28.78
  -3  -1  -6  749.37   28.96
  -3  -1  -5   32.55    6.05
  -3  -1  -5   47.73    5.54
  -3  -1  -5   37.10    5.27
  -3  -1  -5   43.74    5.36
  -3  -1  -4    0.93    2.35
  -3  -1  -4    7.90    3.63
  -3  -1  -4    1.85    2.60
  -3  -1  -4    2.34    2.46
  -3  -1  -3  357.98   15.47
  -3  -1  -3  333.71   17.17
  -3  -1  -3  340.03   15.28
  -3  -1  -3  340.30   15.23
  -3  -1  -2  746.47   26.81
  -3  -1  -2  795.61   27.16
  -3  -1  -2  762.01   29.28
  -3  -1  -2  778.43   27.11
  -3  -1  -1  168.26    9.04
  -3  -1  -1  164.80    8.94
  -3  -1  -1  149.34    8.61
  -3  -1  -1  153.69    6.45
  -3  -1  -1  168.59   10.34
  -3  -1   0  341.59   12.14
  -3  -1   0  319.19   14.01
  -3  -1   0  348.11   15.82
  -3  -1   0  322.22   14.11
  -3  -1   0  335.22   14.19
  -3  -1   0  375.77   13.02
  -3  -1   1 1153.55   38.17
  -3  -1   1 1156.02   36.25
  -3  -1   1 1138.79   39.74
  -3  -1   1 1178.95   38.24
  -3  -1   1 1187.04   38.95
  -3  -1   1 1142.19   38.10
  -3  -1   2 1139.46   38.22
  -3  -1   2 1188.80   35.51
  -3  -1   2 1076.65   32.36
  -3  -1   2 1302.00   34.43
  -3  -1   2 1219.07   37.83
  -3  -1   3   65.06    4.13
  -3  -1   3   55.70    4.56
  -3  -1   3   62.37    4.05
  -3  -1   3   60.25    5.67
  -3  -1   3   49.20    2.92
  -3  -1   3   67.38    5.54
  -3  -1   4   25.71    2.54
  -3  -1   4   24.01    2.37
  -3  -1   4   25.42    3.33
  -3  -1   4   31.00    2.72
  -3  -1   4   23.80    3.84
  -3  -1   5 2230.63   63.81
  -3  -1   5 2330.79   64.00
  -3  -1   5 2182.00   64.20
  -3  -1   5 2202.07   66.49
  -3  -1   5 2250.80   68.32
  -3  -1   6 1594.81   48.45
  -3  -1   6 1670.76   50.58
  -3  -1   7  182.63    9.22
  -3  -1   7  167.06    9.87
  -3  -1   8  218.15   11.81
  -3  -1   8  209.38   10.79
  -3  -1   9 2361.13   70.23
  -3  -1   9 2266.97   70.93
  -3  -1  10  200.58   11.98
  -3  -1  10  182.33   11.31
  -3  -1  11   10.97    3.88
  -3  -1  11   13.79    4.06
  -3  -1  12  680.69   27.72
  -3  -1  12  661.84   27.22
  -3  -1  13  625.30   25.98
  -3  -1  13  576.89   26.16
  -3  -1  14   56.08    7.86
  -3  -1  15  175.94   13.87
  -3  -1  16  229.57   16.42
  -3   0 -13  229.73   16.88
  -3   0 -13  263.24   17.81
  -3   0 -13  213.62   16.36
  -3   0 -12   87.20   10.13
  -3   0 -12   74.59    9.66
  -3   0 -12   80.74    9.60
  -3   0 -11   51.58    7.65
  -3   0 -11   51.56    7.79
  -3   0 -11   38.40    6.82
  -3   0 -10  381.95   20.32
  -3   0 -10  327.31   21.19
  -3   0 -10  370.10   20.18
  -3   0 -10  372.93   20.15
  -3   0  -9  462.37   22.39
  -3   0  -9  425.39   23.64
  -3   0  -9  461.07   22.21
  -3   0  -9  433.35   21.71
  -3   0  -8  332.05   20.11
  -3   0  -8  380.66   18.99
  -3   0  -8  408.19   19.48
  -3   0  -8  353.65   18.54
  -3   0  -7  130.72   10.18
  -3   0  -7  123.08   11.12
  -3   0  -7  152.62   10.81
  -3   0  -7  120.34    9.90
  -3   0  -6  601.54   24.08
  -3   0  -6  556.43   23.49
  -3   0  -6  536.87   25.34
  -3   0  -6  623.22   24.21
  -3   0  -5  901.51   31.74
  -3   0  -5  889.37   31.62
  -3   0  -5  879.82   31.74
  -3   0  -5  865.13   33.65
  -3   0  -4  430.73   18.27
  -3   0  -4  458.28   18.55
  -3   0  -4  428.26   19.93
  -3   0  -4  450.76   18.58
  -3   0  -3  526.10   20.40
  -3   0  -3  544.00   20.50
  -3   0  -3  513.80   20.33
  -3   0  -3  529.87   22.00
  -3   0  -2 3054.22   87.81
  -3   0  -2 3072.14   89.87
  -3   0  -2 3009.54   87.63
  -3   0  -2 2940.16   87.52
  -3   0  -1  348.12   14.45
  -3   0  -1  356.08   14.57
  -3   0  -1  385.13   13.78
  -3   0  -1  340.21   11.54
  -3   0  -1  367.03   14.72
  -3   0  -1  361.45   16.09
  -3   0   0   53.15    4.59
  -3   0   0   36.87    4.14
  -3   0   0   48.84    3.73
  -3   0   0   44.31    3.08
  -3   0   0   46.79    4.39
  -3   0   0   45.18    5.00
  -3   0   1 3699.30  111.73
  -3   0   1 4345.41  110.42
  -3   0   1 4407.70  110.41
  -3   0   1 3707.31  109.53
  -3   0   1 3691.31  111.61
  -3   0   1 4313.41  110.43
  -3   0   1 3611.50  112.97
  -3   0   1 3673.24  112.46
  -3   0   1 3693.45  111.63
  -3   0   2 1251.56   42.08
  -3   0   2 1466.17   39.49
  -3   0   2 1500.35   39.54
  -3   0   2 1324.73   41.87
  -3   0   2 1269.82   39.56
  -3   0   2 1202.76   37.75
  -3   0   3 1013.53   29.70
  -3   0   3  966.59   29.00
  -3   0   3  932.04   30.60
  -3   0   3  935.39   32.71
  -3   0   3 1002.85   29.73
  -3   0   4  676.65   22.46
  -3   0   4  650.21   20.79
  -3   0   4  637.35   20.20
  -3   0   4  671.45   24.29
  -3   0   4  626.78   20.16
  -3   0   5  358.65   14.95
  -3   0   5  383.99   13.95
  -3   0   6  646.51   22.48
  -3   0   6  671.79   23.75
  -3   0   7  163.32    8.74
  -3   0   7  148.45    9.11
  -3   0   8   49.06    5.30
  -3   0   8   50.18    5.62
  -3   0   9  490.13   20.60
  -3   0   9  512.12   20.63
  -3   0  10   77.72    7.28
  -3   0  10   78.45    7.55
  -3   0  11  137.21   10.35
  -3   0  11  144.87   10.20
  -3   0  12   16.30    4.70
  -3   0  12   16.34    4.53
  -3   0  13  160.15   12.39
  -3   0  13  164.29   11.69
  -3   0  14   89.56    9.51
  -3   0  15   31.51    7.10
  -3   0  16    0.91    4.35
  -3   1 -13  455.89   25.28
  -3   1 -13  481.32   25.84
  -3   1 -13  474.88   25.89
  -3   1 -12  233.73   16.89
  -3   1 -12  221.51   16.39
  -3   1 -12  235.23   16.85
  -3   1 -11   16.48    5.36
  -3   1 -11    7.81    4.65
  -3   1 -11   16.72    5.77
  -3   1 -10  569.97   26.14
  -3   1 -10  512.22   25.05
  -3   1 -10  540.95   25.57
  -3   1  -9  791.26   34.79
  -3   1  -9  875.91   34.43
  -3   1  -9  871.45   34.63
  -3   1  -9  886.42   34.54
  -3   1  -8  235.92   15.81
  -3   1  -8  285.70   15.98
  -3   1  -8  276.74   15.71
  -3   1  -8  271.59   15.54
  -3   1  -7  318.39   16.60
  -3   1  -7  354.79   17.19
  -3   1  -7  283.86   16.88
  -3   1  -7  323.75   16.63
  -3   1  -6  662.18   25.09
  -3   1  -6  614.65   24.59
  -3   1  -6  636.48   25.07
  -3   1  -5  793.57   28.53
  -3   1  -5  793.01   28.47
  -3   1  -5  695.77   28.72
  -3   1  -5  787.14   28.52
  -3   1  -4  153.15    9.42
  -3   1  -4  190.55   10.20
  -3   1  -4  179.97    9.93
  -3   1  -4  138.59    9.79
  -3   1  -3  850.34   28.57
  -3   1  -3  790.31   28.22
  -3   1  -3  843.97   28.52
  -3   1  -3  804.92   29.26
  -3   1  -2  747.36   22.24
  -3   1  -2  823.58   26.66
  -3   1  -2  783.03   26.38
  -3   1  -2  801.30   26.63
  -3   1  -2  788.14   27.56
  -3   1  -1  952.28   30.47
  -3   1  -1  943.93   30.34
  -3   1  -1  984.64   29.73
  -3   1  -1  962.71   30.49
  -3   1  -1  936.40   31.44
  -3   1  -1  875.66   27.08
  -3   1   0  658.29   21.43
  -3   1   0  696.16   24.63
  -3   1   0  737.63   24.59
  -3   1   0  714.46   23.74
  -3   1   0  722.29   23.88
  -3   1   0  709.01   23.68
  -3   1   1  628.30   20.56
  -3   1   1  669.18   21.21
  -3   1   1  694.10   23.56
  -3   1   1  715.61   24.02
  -3   1   2 1640.72   48.18
  -3   1   2 1522.67   44.82
  -3   1   2 1598.58   48.20
  -3   1   2 1505.54   45.67
  -3   1   3  966.33   30.03
  -3   1   3  963.53   32.00
  -3   1   3  940.37   27.97
  -3   1   3  924.32   28.83
  -3   1   4    4.47    1.91
  -3   1   4    2.85    1.64
  -3   1   4    4.29    1.25
  -3   1   5  199.24    9.30
  -3   1   5  208.78   10.11
  -3   1   6 1155.80   36.25
  -3   1   6 1118.62   36.85
  -3   1   7  755.62   26.57
  -3   1   7  774.22   27.19
  -3   1   8  222.40   11.78
  -3   1   8  210.78   11.42
  -3   1   9  554.76   22.10
  -3   1   9  537.72   21.93
  -3   1  10 1485.56   48.96
  -3   1  10 1472.97   48.67
  -3   1  11  283.83   15.48
  -3   1  11  286.54   15.16
  -3   1  12  205.89   13.79
  -3   1  12  246.23   14.12
  -3   1  13  813.43   32.96
  -3   1  14  313.27   18.60
  -3   1  15   31.80    6.66
  -3   2 -14    8.58    4.80
  -3   2 -14    4.23    4.73
  -3   2 -14    9.51    5.06
  -3   2 -13   41.63    7.83
  -3   2 -13   41.03    7.90
  -3   2 -13   51.09    8.26
  -3   2 -12   63.76    8.82
  -3   2 -12   56.28    8.65
  -3   2 -12   67.60    9.09
  -3   2 -11  151.98   12.95
  -3   2 -11  150.81   12.99
  -3   2 -11  133.26   12.41
  -3   2 -10    4.88    4.20
  -3   2 -10    8.82    4.29
  -3   2 -10   12.03    4.77
  -3   2  -9  522.67   23.77
  -3   2  -9  509.31   23.47
  -3   2  -9  479.79   23.14
  -3   2  -9  471.20   20.33
  -3   2  -9  471.33   20.26
  -3   2  -8  258.23   13.30
  -3   2  -8  277.44   15.69
  -3   2  -8  270.71   15.67
  -3   2  -8  269.34   13.52
  -3   2  -8  276.03   15.55
  -3   2  -7   88.21    7.01
  -3   2  -7   87.56    8.15
  -3   2  -7   73.69    6.55
  -3   2  -7   77.43    7.72
  -3   2  -7  100.02    8.45
  -3   2  -7  100.77    8.64
  -3   2  -6  558.62   20.88
  -3   2  -6  558.82   22.60
  -3   2  -6  534.19   20.64
  -3   2  -6  558.47   22.48
  -3   2  -6  538.40   22.22
  -3   2  -5 3190.78   90.87
  -3   2  -5 3199.98   92.31
  -3   2  -5 3270.07   92.54
  -3   2  -5 3153.72   90.84
  -3   2  -5 3149.49   92.48
  -3   2  -4  547.50   22.44
  -3   2  -4  626.46   22.02
  -3   2  -4  617.33   22.90
  -3   2  -4  621.82   22.75
  -3   2  -4  608.44   22.61
  -3   2  -4  628.41   22.08
  -3   2  -3   23.92    3.57
  -3   2  -3   20.40    3.32
  -3   2  -3   17.80    2.89
  -3   2  -3   16.26    2.97
  -3   2  -3   18.85    2.98
  -3   2  -3   16.55    2.88
  -3   2  -3   21.06    3.31
  -3   2  -2 3664.22   98.86
  -3   2  -2 3490.70   99.21
  -3   2  -2 3536.75   99.27
  -3   2  -2 3361.07   98.60
  -3   2  -2 3331.08   99.44
  -3   2  -2 3375.69   98.68
  -3   2  -2 3524.65   99.31
  -3   2  -1 5033.11  138.13
  -3   2  -1 5041.28  140.77
  -3   2  -1 4959.85  140.18
  -3   2  -1 4991.21  140.26
  -3   2  -1 5077.39  140.85
  -3   2  -1 5095.46  140.79
  -3   2  -1 4984.87  141.26
  -3   2   0 2455.12   70.74
  -3   2   0 2447.57   69.10
  -3   2   0 2452.76   70.02
  -3   2   0 2403.96   70.66
  -3   2   0 2361.90   71.35
  -3   2   0 2478.53   71.56
  -3   2   0 2505.54   70.14
  -3   2   0 2425.73   70.70
  -3   2   1  406.02   14.74
  -3   2   1  445.15   16.37
  -3   2   1  411.92   14.55
  -3   2   1  419.43   16.08
  -3   2   1  403.35   14.59
  -3   2   2 4745.16  130.16
  -3   2   2 4480.74  129.46
  -3   2   2 4782.28  129.74
  -3   2   3 1392.23   41.48
  -3   2   3 1432.09   42.67
  -3   2   3 1371.84   41.89
  -3   2   4  141.06    7.75
  -3   2   4  144.33    7.36
  -3   2   5  976.03   32.29
  -3   2   5  987.82   31.79
  -3   2   6 1846.57   56.01
  -3   2   6 1844.84   56.39
  -3   2   7   21.22    3.96
  -3   2   7   25.83    4.19
  -3   2   8   99.70    7.51
  -3   2   8   92.31    7.43
  -3   2   9  342.57   15.62
  -3   2   9  276.60   14.70
  -3   2  10  647.58   26.05
  -3   2  10  696.80   26.88
  -3   2  11   78.27    7.92
  -3   2  11   57.80    6.85
  -3   2  12    0.69    3.31
  -3   2  12   -1.82    4.01
  -3   2  13  268.51   16.55
  -3   2  14  225.78   15.53
  -3   2  15  187.11   14.32
  -3   3 -14   -2.16    5.49
  -3   3 -14    5.33    4.65
  -3   3 -14    1.07    4.41
  -3   3 -13  198.44   15.92
  -3   3 -13  204.71   16.15
  -3   3 -13  232.88   17.13
  -3   3 -12  532.25   26.73
  -3   3 -12  529.59   26.84
  -3   3 -12  507.19   26.33
  -3   3 -11  492.01   24.98
  -3   3 -11  504.33   25.03
  -3   3 -11  476.12   24.58
  -3   3 -10  273.12   16.75
  -3   3 -10  265.96   14.15
  -3   3 -10  265.50   14.26
  -3   3 -10  249.45   16.40
  -3   3 -10  263.04   16.75
  -3   3  -9  145.06   11.67
  -3   3  -9  166.25   12.37
  -3   3  -9  149.59   11.79
  -3   3  -9  141.35    9.83
  -3   3  -9  165.33   10.40
  -3   3  -8  916.52   34.70
  -3   3  -8  945.12   35.14
  -3   3  -8  869.36   34.27
  -3   3  -8  893.01   32.25
  -3   3  -8  959.05   32.72
  -3   3  -7   25.89    4.83
  -3   3  -7   30.14    4.39
  -3   3  -7   28.50    4.21
  -3   3  -7   27.86    4.80
  -3   3  -7   26.68    4.96
  -3   3  -6  331.39   14.84
  -3   3  -6  371.80   16.66
  -3   3  -6  354.92   16.47
  -3   3  -6  338.99   14.97
  -3   3  -6  364.88   16.48
  -3   3  -5 1645.06   51.23
  -3   3  -5 1630.64   50.13
  -3   3  -5 1697.57   51.51
  -3   3  -5 1466.72   49.50
  -3   3  -5 1651.00   51.21
  -3   3  -5 1638.01   50.20
  -3   3  -4  599.90   21.58
  -3   3  -4  526.12   20.30
  -3   3  -4  540.03   20.61
  -3   3  -4  587.82   20.97
  -3   3  -4  586.07   21.45
  -3   3  -4  589.04   21.56
  -3   3  -3   43.58    4.28
  -3   3  -3   39.81    4.20
  -3   3  -3   42.27    4.47
  -3   3  -3   57.57    4.65
  -3   3  -3   39.76    4.27
  -3   3  -3   43.45    4.40
  -3   3  -3   51.41    4.75
  -3   3  -2  541.00   19.64
  -3   3  -2  580.28   20.02
  -3   3  -2  559.37   19.87
  -3   3  -2  567.04   19.97
  -3   3  -2  587.26   19.88
  -3   3  -2  544.19   19.71
  -3   3  -1 2172.33   63.16
  -3   3  -1 2177.80   63.08
  -3   3  -1 2157.22   63.05
  -3   3  -1 2208.78   63.41
  -3   3  -1 2185.25   63.67
  -3   3  -1 2160.85   63.14
  -3   3  -1 2133.73   63.09
  -3   3   0 2183.20   62.98
  -3   3   0 2213.25   63.04
  -3   3   0 2280.62   62.94
  -3   3   0 2176.95   63.36
  -3   3   0 2198.56   64.09
  -3   3   0 2153.86   63.37
  -3   3   0 2088.42   63.18
  -3   3   0 2296.32   64.10
  -3   3   0 2143.65   63.31
  -3   3   0 2134.70   63.88
  -3   3   1  257.32   10.79
  -3   3   1  260.69   10.16
  -3   3   1  261.22   10.12
  -3   3   1  284.04   11.62
  -3   3   1  270.76   11.12
  -3   3   2  260.33   10.73
  -3   3   2  212.42    8.70
  -3   3   2  226.55   10.10
  -3   3   2  249.44   10.36
  -3   3   2  229.27    8.84
  -3   3   3 1670.89   52.19
  -3   3   3 1782.20   52.64
  -3   3   3 1794.11   52.23
  -3   3   4 2501.97   68.98
  -3   3   4 2557.08   69.10
  -3   3   4 2224.62   69.11
  -3   3   4 2319.64   69.64
  -3   3   4 2212.59   68.94
  -3   3   5   49.49    5.01
  -3   3   5   41.52    4.67
  -3   3   5   53.60    4.87
  -3   3   6 1220.85   38.68
  -3   3   6 1148.55   38.53
  -3   3   7 1162.74   37.84
  -3   3   7 1091.00   37.52
  -3   3   8  137.22    9.51
  -3   3   8  154.94    9.80
  -3   3   9  230.52   12.76
  -3   3   9  223.61   13.03
  -3   3  10 1113.04   38.85
  -3   3  10 1111.61   39.63
  -3   3  11  152.95   11.39
  -3   3  11  148.39   10.94
  -3   3  12   10.71    4.36
  -3   3  13  225.29   15.11
  -3   3  14  255.75   16.71
  -3   4 -15   13.48    6.21
  -3   4 -15   16.83    6.30
  -3   4 -15   10.24    5.78
  -3   4 -14    1.09    4.50
  -3   4 -14    1.07    4.89
  -3   4 -14    2.14    5.51
  -3   4 -13   84.84   10.70
  -3   4 -13   78.55   10.22
  -3   4 -13   65.39    9.43
  -3   4 -12  325.13   20.33
  -3   4 -12  315.68   19.84
  -3   4 -12  347.09   20.67
  -3   4 -11  143.19   12.48
  -3   4 -11  116.98   11.54
  -3   4 -11  151.38   12.82
  -3   4 -11  127.73   10.03
  -3   4 -11  155.35   10.72
  -3   4 -10    1.58    3.54
  -3   4 -10    3.89    2.97
  -3   4 -10    0.79    3.28
  -3   4 -10    4.47    2.94
  -3   4 -10   -0.80    3.84
  -3   4  -9  233.32   13.01
  -3   4  -9  227.73   12.93
  -3   4  -9  250.99   15.47
  -3   4  -9  239.82   14.88
  -3   4  -9  259.46   15.46
  -3   4  -8  844.05   30.18
  -3   4  -8  810.52   31.99
  -3   4  -8  848.63   30.30
  -3   4  -8  811.28   31.84
  -3   4  -8  798.76   31.79
  -3   4  -7  611.72   23.72
  -3   4  -7  607.86   25.26
  -3   4  -7  605.25   25.00
  -3   4  -7  657.44   24.14
  -3   4  -7  618.32   25.23
  -3   4  -6  330.40   15.80
  -3   4  -6  333.50   15.85
  -3   4  -6  332.63   16.06
  -3   4  -6  344.15   15.21
  -3   4  -6  341.16   15.22
  -3   4  -5 1432.24   46.17
  -3   4  -5 1411.88   45.88
  -3   4  -5 1484.89   46.19
  -3   4  -5 1439.35   45.58
  -3   4  -5 1434.51   45.54
  -3   4  -4 3280.34   91.49
  -3   4  -4 3212.72   93.35
  -3   4  -4 3204.92   93.31
  -3   4  -4 3120.93   93.20
  -3   4  -4 3247.55   93.25
  -3   4  -4 3241.82   93.26
  -3   4  -3   67.37    4.51
  -3   4  -3   68.62    5.30
  -3   4  -3   66.75    5.30
  -3   4  -3   61.06    5.09
  -3   4  -3   65.41    5.23
  -3   4  -3   66.66    5.26
  -3   4  -2 1229.04   38.10
  -3   4  -2 1161.12   38.41
  -3   4  -2 1289.21   40.07
  -3   4  -2 1196.30   38.59
  -3   4  -2 1347.67   37.69
  -3   4  -2 1225.87   38.05
  -3   4  -2 1258.11   38.20
  -3   4  -2 1242.22   38.12
  -3   4  -1 4543.85  128.21
  -3   4  -1 4447.19  127.88
  -3   4  -1 4535.11  128.20
  -3   4  -1 4550.53  127.70
  -3   4  -1 4812.12  127.77
  -3   4  -1 4532.36  127.68
  -3   4  -1 4484.76  127.67
  -3   4  -1 4796.18  130.16
  -3   4   0  892.17   29.24
  -3   4   0  828.21   26.94
  -3   4   0  832.28   26.96
  -3   4   0  912.51   28.39
  -3   4   1   56.86    3.95
  -3   4   1   58.48    4.03
  -3   4   1   65.84    5.42
  -3   4   2 1948.77   57.00
  -3   4   2 1825.06   53.47
  -3   4   2 1853.15   53.47
  -3   4   2 1945.34   56.26
  -3   4   3 1469.31   44.48
  -3   4   3 1412.98   44.79
  -3   4   3 1402.35   44.14
  -3   4   4  656.03   23.81
  -3   4   4  653.82   23.97
  -3   4   4  671.89   23.78
  -3   4   5  428.62   17.69
  -3   4   5  425.48   17.55
  -3   4   5  434.58   17.59
  -3   4   6  772.69   27.07
  -3   4   6  705.33   26.57
  -3   4   7  686.98   25.92
  -3   4   7  690.98   26.01
  -3   4   8  167.49   10.65
  -3   4   8  161.51   10.62
  -3   4   9  149.42   10.36
  -3   4   9  155.68   10.84
  -3   4  10  159.58   11.16
  -3   4  10  166.06   11.60
  -3   4  11  114.26    9.98
  -3   4  12   39.80    6.52
  -3   4  13   26.07    6.21
  -3   5 -15  180.92   15.86
  -3   5 -15  191.19   16.17
  -3   5 -15  166.95   15.75
  -3   5 -14    9.70    5.86
  -3   5 -14    6.37    4.64
  -3   5 -14    6.38    4.98
  -3   5 -13  114.90   12.47
  -3   5 -13  133.71   13.15
  -3   5 -13  117.93   12.50
  -3   5 -12  611.84   29.48
  -3   5 -12  654.53   30.09
  -3   5 -12  609.95   29.59
  -3   5 -11   33.24    5.30
  -3   5 -11   14.68    4.34
  -3   5 -11   18.84    5.12
  -3   5 -11   23.09    5.69
  -3   5 -11   25.26    6.04
  -3   5 -10   11.91    4.25
  -3   5 -10    6.41    3.42
  -3   5 -10    1.76    3.08
  -3   5 -10    7.01    4.03
  -3   5 -10   13.27    4.24
  -3   5  -9  839.58   31.03
  -3   5  -9  805.96   32.54
  -3   5  -9  810.92   32.67
  -3   5  -9  787.83   32.36
  -3   5  -9  851.06   31.13
  -3   5  -8  175.26   12.03
  -3   5  -8  179.97   12.34
  -3   5  -8  206.32   11.76
  -3   5  -8  190.46   12.46
  -3   5  -8  194.23   11.52
  -3   5  -7  115.86    9.12
  -3   5  -7  128.41    9.38
  -3   5  -7  122.28    8.72
  -3   5  -7  115.08    8.54
  -3   5  -7  125.26    9.20
  -3   5  -6   97.34    7.54
  -3   5  -6  105.55    7.73
  -3   5  -6   95.82    7.58
  -3   5  -6   99.11    7.69
  -3   5  -6  100.97    7.80
  -3   5  -5  151.87    8.92
  -3   5  -5  152.36    8.95
  -3   5  -5  146.51    8.87
  -3   5  -5  142.73    9.00
  -3   5  -5  149.34    9.07
  -3   5  -4  192.71    9.80
  -3   5  -4  211.39   10.18
  -3   5  -4  196.39   10.45
  -3   5  -4  206.62   10.14
  -3   5  -4  216.08   10.78
  -3   5  -3  389.94   16.42
  -3   5  -3  368.56   14.14
  -3   5  -3  384.62   15.24
  -3   5  -3  354.04   13.53
  -3   5  -3  345.35   13.93
  -3   5  -3  387.50   15.29
  -3   5  -3  343.86   14.01
  -3   5  -2    4.72    2.11
  -3   5  -2    5.76    1.74
  -3   5  -2    4.36    1.54
  -3   5  -2    3.81    1.52
  -3   5  -2    2.40    1.39
  -3   5  -2    3.16    1.83
  -3   5  -2    7.33    2.88
  -3   5  -1  140.87    7.51
  -3   5  -1  144.39    6.78
  -3   5  -1  134.15    6.62
  -3   5  -1  133.18    7.45
  -3   5  -1  146.59    8.97
  -3   5  -1  151.19    6.85
  -3   5   0  336.91   13.12
  -3   5   0  371.90   14.68
  -3   5   0  364.56   15.58
  -3   5   1  207.05   10.96
  -3   5   1  203.56    8.60
  -3   5   1  197.51   10.08
  -3   5   1  196.77    8.50
  -3   5   2  121.04    7.65
  -3   5   2  101.84    7.54
  -3   5   3  565.18   21.18
  -3   5   3  486.58   19.76
  -3   5   4 1448.00   46.90
  -3   5   4 1455.46   46.15
  -3   5   5   40.65    5.08
  -3   5   5   42.69    5.19
  -3   5   6  238.77   12.93
  -3   5   6  228.65   12.43
  -3   5   7 1545.94   50.49
  -3   5   8 1169.02   40.72
  -3   5   9    4.92    3.50
  -3   5  10  390.08   19.50
  -3   5  11  676.52   28.65
  -3   5  12  141.83   11.90
  -3   5  13   81.33    9.39
  -3   6 -15   92.73   11.56
  -3   6 -15  115.82   12.70
  -3   6 -15  115.37   12.74
  -3   6 -14   41.53    7.81
  -3   6 -14   42.87    8.13
  -3   6 -14   55.50    8.64
  -3   6 -13   12.79    5.27
  -3   6 -13   15.71    5.60
  -3   6 -13   14.99    5.44
  -3   6 -12  148.88   13.43
  -3   6 -12  193.50   12.90
  -3   6 -12  175.38   14.23
  -3   6 -12  151.32   13.52
  -3   6 -12  220.95   13.57
  -3   6 -11  694.09   27.40
  -3   6 -11  569.24   28.11
  -3   6 -11  565.30   27.78
  -3   6 -11  680.10   27.12
  -3   6 -11  608.58   28.43
  -3   6 -10   36.48    6.35
  -3   6 -10   40.26    6.72
  -3   6 -10   44.91    6.20
  -3   6 -10   41.89    6.45
  -3   6 -10   45.72    6.19
  -3   6  -9  139.67   11.09
  -3   6  -9  142.27   11.25
  -3   6  -9  169.21   11.21
  -3   6  -9  142.63   11.14
  -3   6  -9  158.63   10.87
  -3   6  -8 1245.61   44.38
  -3   6  -8 1327.93   44.11
  -3   6  -8 1312.21   44.86
  -3   6  -8 1308.30   43.96
  -3   6  -8 1281.41   44.83
  -3   6  -7 1368.07   46.58
  -3   6  -7 1371.11   46.46
  -3   6  -7 1449.38   46.91
  -3   6  -7 1496.67   47.17
  -3   6  -7 1373.46   46.44
  -3   6  -6   18.27    3.72
  -3   6  -6   17.40    4.03
  -3   6  -6   18.72    3.67
  -3   6  -6   23.73    4.26
  -3   6  -6   16.27    3.54
  -3   6  -5  444.55   18.29
  -3   6  -5  404.16   16.80
  -3   6  -5  417.75   16.93
  -3   6  -5  446.34   18.35
  -3   6  -5  423.56   17.21
  -3   6  -4 1795.04   55.67
  -3   6  -4 1696.15   51.99
  -3   6  -4 1785.07   54.19
  -3   6  -4 1687.23   51.96
  -3   6  -4 1719.72   52.15
  -3   6  -4 1806.74   54.29
  -3   6  -3  993.40   32.82
  -3   6  -3  906.82   32.31
  -3   6  -3 1022.08   34.36
  -3   6  -2   -0.49    2.67
  -3   6  -2    1.77    1.80
  -3   6  -2    1.77    2.02
  -3   6  -1  802.15   28.45
  -3   6  -1  739.92   25.82
  -3   6  -1  764.29   25.97
  -3   6   0  929.53   32.45
  -3   6   0  903.10   29.36
  -3   6   0  892.83   31.03
  -3   6   0  919.78   29.39
  -3   6   1    1.99    2.48
  -3   6   1    1.25    2.43
  -3   6   2  252.80   13.55
  -3   6   2  273.76   13.10
  -3   6   3  811.07   29.81
  -3   6   3  800.77   28.78
  -3   6   4  149.01   10.08
  -3   6   4  142.71    9.47
  -3   6   5   67.41    7.00
  -3   6   5   65.09    6.41
  -3   6   6   17.25    4.37
  -3   6   6   20.07    4.19
  -3   6   7  225.48   13.14
  -3   6   8  116.18    9.42
  -3   6   9   45.64    6.60
  -3   6  10    1.39    3.46
  -3   6  11  207.44   14.03
  -3   6  12  119.45   10.80
  -3   7 -15  141.53   14.04
  -3   7 -15  139.15   13.78
  -3   7 -15  165.85   14.69
  -3   7 -14  118.45   12.30
  -3   7 -14  124.71   12.60
  -3   7 -14  102.02   11.33
  -3   7 -13   39.17    7.13
  -3   7 -13   34.10    6.95
  -3   7 -13   46.85    6.71
  -3   7 -13   42.95    6.72
  -3   7 -13   45.95    7.73
  -3   7 -12  246.09   14.88
  -3   7 -12  244.21   14.90
  -3   7 -12  182.35   14.76
  -3   7 -12  210.74   15.35
  -3   7 -12  187.19   14.88
  -3   7 -11  360.28   20.53
  -3   7 -11  375.60   20.80
  -3   7 -11  441.17   20.70
  -3   7 -11  456.89   21.03
  -3   7 -11  367.91   20.89
  -3   7 -10   13.74    4.19
  -3   7 -10    8.07    4.18
  -3   7 -10    7.47    4.06
  -3   7 -10   11.76    4.31
  -3   7 -10    4.59    3.57
  -3   7  -9  133.45   10.32
  -3   7  -9   94.53    9.09
  -3   7  -9  103.28    9.32
  -3   7  -9  135.67   10.27
  -3   7  -9  104.09    9.33
  -3   7  -8  781.55   29.53
  -3   7  -8  724.95   29.04
  -3   7  -7  720.21   28.39
  -3   7  -7  758.67   28.77
  -3   7  -6    3.72    3.07
  -3   7  -6    2.66    2.89
  -3   7  -5  163.52   10.98
  -3   7  -5  156.55   10.13
  -3   7  -5  169.35   10.45
  -3   7  -4  439.03   18.48
  -3   7  -4  436.56   19.47
  -3   7  -4  407.97   18.10
  -3   7  -3  971.68   33.77
  -3   7  -3  989.09   35.34
  -3   7  -3  998.43   33.97
  -3   7  -2   11.03    3.46
  -3   7  -2   11.37    3.03
  -3   7  -2   12.64    3.27
  -3   7  -1   56.83    5.33
  -3   7  -1   59.48    6.41
  -3   7  -1   55.53    5.23
  -3   7   0  879.03   32.60
  -3   7   0  892.76   29.71
  -3   7   0  910.26   31.52
  -3   7   0  900.85   29.72
  -3   7   1  622.65   24.19
  -3   7   1  651.12   25.60
  -3   7   2    0.49    2.78
  -3   7   2   -1.73    2.93
  -3   7   3  849.39   32.77
  -3   7   3  919.26   32.06
  -3   7   4 1040.96   37.64
  -3   7   4 1042.26   36.45
  -3   7   5   50.69    6.60
  -3   7   5   54.39    6.27
  -3   7   6   83.75    7.95
  -3   7   6  103.37    9.08
  -3   7   7  784.91   30.47
  -3   7   8  248.97   14.78
  -3   7   9    3.44    3.43
  -3   7  10  148.26   11.80
  -3   7  11  234.72   15.34
  -3   8 -13    0.78    4.96
  -3   8 -13    0.79    5.09
  -3   8 -12  194.52   13.98
  -3   8 -12  200.02   14.12
  -3   8 -11  739.66   30.46
  -3   8 -11  705.66   30.06
  -3   8 -10  388.46   19.87
  -3   8 -10  393.35   19.88
  -3   8  -9    9.43    4.06
  -3   8  -9    9.45    4.07
  -3   8  -8 1122.85   40.85
  -3   8  -8 1159.91   41.17
  -3   8  -7 1753.53   57.73
  -3   8  -7 1760.91   57.79
  -3   8  -6  310.54   16.63
  -3   8  -6  326.28   16.65
  -3   8  -6  336.49   16.85
  -3   8  -5   58.07    7.17
  -3   8  -5   66.38    7.10
  -3   8  -5   62.25    6.87
  -3   8  -4 3109.05   94.55
  -3   8  -4 3314.56   96.50
  -3   8  -4 3116.42   94.61
  -3   8  -3 1538.85   51.06
  -3   8  -3 1571.70   51.27
  -3   8  -3 1668.04   53.19
  -3   8  -2   15.31    3.48
  -3   8  -2   17.71    3.66
  -3   8  -2   16.51    4.28
  -3   8  -1  734.32   26.80
  -3   8  -1  752.18   29.26
  -3   8  -1  747.78   26.92
  -3   8   0 1554.25   49.93
  -3   8   0 1512.54   51.43
  -3   8   1 1313.40   45.30
  -3   8   1 1296.85   43.69
  -3   8   2   16.02    4.22
  -3   8   2   22.95    4.78
  -3   8   2   30.40    5.46
  -3   8   3  187.68   11.92
  -3   8   3  213.24   13.39
  -3   8   4  961.03   36.12
  -3   8   4  931.43   34.63
  -3   8   5  108.74    9.71
  -3   8   5   96.09    8.80
  -3   8   6   35.10    5.99
  -3   8   6   37.29    6.42
  -3   8   7  280.99   16.96
  -3   8   7  270.59   15.76
  -3   8   8   68.28    7.88
  -3   8   9   37.60    6.15
  -3   8  10   -3.02    3.61
  -3   9 -14  167.03   13.65
  -3   9 -14  162.16   13.40
  -3   9 -13    0.83    3.87
  -3   9 -13    2.49    3.88
  -3   9 -12  343.78   19.50
  -3   9 -12  343.76   19.55
  -3   9 -11  391.82   20.91
  -3   9 -11  422.20   21.39
  -3   9 -10  133.63   11.22
  -3   9 -10  133.06   11.35
  -3   9  -9  103.82    9.81
  -3   9  -9   81.29    9.18
  -3   9  -8  301.26   16.78
  -3   9  -8  274.35   16.16
  -3   9  -7  215.04   13.94
  -3   9  -7  212.57   13.70
  -3   9  -7  226.84   14.12
  -3   9  -6   27.30    5.33
  -3   9  -6   35.49    5.86
  -3   9  -6   26.09    4.91
  -3   9  -5    8.69    3.69
  -3   9  -5    8.11    4.23
  -3   9  -5    9.34    3.80
  -3   9  -4 1681.82   55.68
  -3   9  -4 1646.50   54.34
  -3   9  -4 1644.96   54.38
  -3   9  -3   11.14    3.85
  -3   9  -3    6.70    3.82
  -3   9  -3   10.07    3.42
  -3   9  -2   64.51    6.72
  -3   9  -2   71.12    7.03
  -3   9  -2   74.47    8.21
  -3   9  -1  337.34   17.77
  -3   9   0  906.18   35.08
  -3   9   0  928.31   33.66
  -3   9   1  470.26   22.17
  -3   9   1  500.91   22.19
  -3   9   1  438.57   20.49
  -3   9   2   51.54    6.96
  -3   9   2   43.75    6.13
  -3   9   3  158.37   12.10
  -3   9   3  170.91   11.62
  -3   9   4  806.07   33.94
  -3   9   4  921.35   33.73
  -3   9   5  418.31   21.71
  -3   9   5  428.40   20.69
  -3   9   6   32.02    5.78
  -3   9   6   29.46    6.14
  -3   9   7  532.39   24.91
  -3   9   7  586.49   26.99
  -3   9   8  321.92   18.32
  -3   9   9   65.72    8.21
  -3  10 -15  133.06   12.43
  -3  10 -15  138.84   12.62
  -3  10 -14  173.43   13.96
  -3  10 -14  169.39   13.70
  -3  10 -13  307.70   18.84
  -3  10 -13  283.07   18.25
  -3  10 -12    2.56    3.63
  -3  10 -12    0.86    3.64
  -3  10 -11  240.68   16.23
  -3  10 -11  260.14   16.73
  -3  10 -10  939.52   37.69
  -3  10 -10  950.79   37.89
  -3  10  -9  190.18   13.77
  -3  10  -9  183.48   13.58
  -3  10  -8   35.05    6.45
  -3  10  -8   39.79    6.36
  -3  10  -8   29.93    5.97
  -3  10  -7  570.05   26.14
  -3  10  -7  573.24   26.14
  -3  10  -7  649.87   27.15
  -3  10  -6 1035.67   40.24
  -3  10  -6 1069.56   40.56
  -3  10  -5    1.36    3.46
  -3  10  -5    4.75    3.57
  -3  10  -5    0.73    3.48
  -3  10  -4  543.65   24.05
  -3  10  -4  481.35   22.34
  -3  10  -4  485.09   22.38
  -3  10  -3  713.46   28.89
  -3  10  -3  779.26   30.89
  -3  10  -3  727.14   29.05
  -3  10  -2  394.02   20.27
  -3  10  -1  124.43   10.85
  -3  10   0  972.37   38.14
  -3  10   0 1050.26   37.08
  -3  10   0  973.10   37.93
  -3  10   1  345.76   18.64
  -3  10   1  334.72   18.50
  -3  10   1  317.20   17.08
  -3  10   2   33.39    5.85
  -3  10   2   32.15    6.18
  -3  10   3  143.36   11.96
  -3  10   3  133.85   10.76
  -3  10   4  164.16   12.33
  -3  10   4  181.07   13.67
  -3  10   5  192.66   13.24
  -3  10   5  181.47   14.07
  -3  10   6    4.50    3.73
  -3  10   6    1.77    5.40
  -3  10   7    7.33    5.15
  -3  10   7   11.58    4.83
  -3  10   8  109.68   10.45
  -3  11 -14  229.60   16.64
  -3  11 -14  227.37   16.37
  -3  11 -13  130.55   12.35
  -3  11 -13  124.30   12.24
  -3  11 -12   -2.71    5.22
  -3  11 -12   -0.90    5.64
  -3  11 -11  361.44   20.53
  -3  11 -11  319.44   19.70
  -3  11 -10  233.59   16.27
  -3  11 -10  247.81   16.58
  -3  11  -9  127.16   11.62
  -3  11  -9  120.02   11.20
  -3  11  -8   20.50    5.41
  -3  11  -8   28.29    5.93
  -3  11  -8   26.32    5.88
  -3  11  -7  197.62   14.01
  -3  11  -7  185.03   13.70
  -3  11  -7  199.33   14.22
  -3  11  -6  408.14   20.70
  -3  11  -6  360.83   19.69
  -3  11  -6  360.82   19.71
  -3  11  -5   62.23    8.14
  -3  11  -5   61.35    7.85
  -3  11  -5   65.50    7.72
  -3  11  -4   -2.34    3.40
  -3  11  -4    2.13    3.25
  -3  11  -4    0.71    3.24
  -3  11  -3  247.58   15.87
  -3  11  -2  774.02   32.44
  -3  11  -1  117.84   10.82
  -3  11   0   73.37    8.92
  -3  11   0   80.72    9.06
  -3  11   1  545.21   24.93
  -3  11   1  591.71   27.01
  -3  11   2  489.81   23.51
  -3  11   2  545.34   25.79
  -3  11   3   -0.87    4.41
  -3  11   3   -0.73    3.54
  -3  11   4  257.37   15.91
  -3  11   4  256.82   17.20
  -3  11   5  529.83   27.16
  -3  11   5  576.44   26.11
  -3  11   6   85.28    9.33
  -3  11   6   81.58   10.22
  -3  12 -13  257.54   17.90
  -3  12 -13  229.00   16.91
  -3  12 -12    7.59    4.99
  -3  12 -12    7.61    4.55
  -3  12 -11   85.16   10.20
  -3  12 -11  104.58   11.11
  -3  12 -10  446.97   23.99
  -3  12 -10  456.61   24.21
  -3  12  -9  335.74   20.61
  -3  12  -9  372.42   20.51
  -3  12  -9  376.25   21.21
  -3  12  -8   -0.87    3.60
  -3  12  -8    4.95    3.69
  -3  12  -8    6.11    4.34
  -3  12  -7  803.25   32.50
  -3  12  -7  708.09   31.66
  -3  12  -7  704.28   31.52
  -3  12  -6  728.77   31.83
  -3  12  -6  715.87   31.62
  -3  12  -6  814.65   32.91
  -3  12  -5  232.78   15.45
  -3  12  -5  252.52   16.20
  -3  12  -4  191.51   14.24
  -3  12  -3  639.90   28.93
  -3  12  -2  509.76   25.04
  -3  12  -1   10.32    4.76
  -3  12   0  109.17   10.98
  -3  12   0  124.29   11.51
  -3  12   1  245.77   15.69
  -3  12   1  271.57   17.65
  -3  12   2   71.98    8.29
  -3  12   2   57.30    8.60
  -3  12   3    3.72    4.63
  -3  12   3    0.77    4.06
  -3  12   4  132.24   12.44
  -3  12   4  130.97   11.50
  -3  12   5   51.53    7.55
  -3  12   5   53.61    8.57
  -3  13 -12   30.63    6.86
  -3  13 -12   27.73    6.67
  -3  13 -11   59.60    8.90
  -3  13 -11   46.76    7.96
  -3  13 -10  130.82   12.57
  -3  13 -10  145.63   13.11
  -3  13  -9   21.57    5.82
  -3  13  -9   30.99    6.09
  -3  13  -9   19.62    5.66
  -3  13  -8    8.62    4.55
  -3  13  -8   15.44    5.11
  -3  13  -7  135.13   12.18
  -3  13  -7  133.48   12.09
  -3  13  -7  127.60   11.92
  -3  13  -6  260.39   17.13
  -3  13  -6  264.67   17.21
  -3  13  -6  252.97   16.82
  -3  13  -5  175.03   13.89
  -3  13  -4    0.88    4.13
  -3  13  -3  169.88   13.83
  -3  13  -2  573.44   27.66
  -3  13  -1  193.07   14.83
  -3  13   0    9.31    5.14
  -3  13   0    5.62    4.48
  -3  13   1  365.71   21.67
  -3  13   2  371.40   22.37
  -3  13   2  417.42   21.61
  -3  14 -11   16.13    5.83
  -3  14 -11    9.05    4.82
  -3  14 -10  181.78   15.05
  -3  14 -10  210.96   16.05
  -3  14  -9  168.30   13.57
  -3  14  -9  153.84   13.65
  -3  14  -9  170.97   14.34
  -3  14  -8   14.34    4.96
  -3  14  -8    9.42    4.42
  -3  14  -8    8.52    4.81
  -3  14  -7  143.65   12.91
  -3  14  -7  160.90   13.44
  -3  14  -7  127.62   12.38
  -3  14  -6  232.25   16.43
  -3  14  -5   83.62    9.83
  -3  14  -4   17.64    5.53
  -3  14  -3  112.35   11.56
  -3  14  -2  131.78   12.71
  -3  14  -1   -9.61    5.14
  -3  14   0   42.95    7.88
  -3  15  -8   16.66    5.44
  -3  15  -8   16.41    5.60
  -3  15  -8   26.17    6.29
  -3  15  -7   16.87    5.87
  -3  15  -6   94.62   10.55
  -3  15  -5  113.78   11.68
  -2 -13   5   39.00    8.80
  -2 -13   6  128.67   14.29
  -2 -13   7  129.96   14.14
  -2 -13   8   33.32    8.66
  -2 -13   9    4.56    6.00
  -2 -12   4  550.46   29.42
  -2 -12   5   74.22   10.89
  -2 -12   6  131.55   13.87
  -2 -12   7  704.38   34.40
  -2 -12   8  186.59   16.42
  -2 -12   9   13.24    6.10
  -2 -12  10  262.24   19.44
  -2 -12  11  372.87   23.45
  -2 -12  12   15.14    5.98
  -2 -12  13   11.79    5.93
  -2 -11   3  222.61   17.26
  -2 -11   4  112.86   12.25
  -2 -11   5  166.17   15.14
  -2 -11   6  166.02   14.89
  -2 -11   7  126.60   13.08
  -2 -11   8  471.98   26.51
  -2 -11   9   71.75   10.63
  -2 -11  10  132.67   13.30
  -2 -11  11  560.59   28.93
  -2 -11  12  371.83   22.87
  -2 -11  13   34.11    8.43
  -2 -11  14  236.72   17.79
  -2 -10   3  461.88   25.22
  -2 -10   4  923.67   39.41
  -2 -10   5  101.83   11.69
  -2 -10   6  332.37   21.03
  -2 -10   7  479.90   26.03
  -2 -10   8  619.64   30.43
  -2 -10   9    3.97    4.84
  -2 -10  10  677.46   31.99
  -2 -10  11  356.78   21.97
  -2 -10  12  221.22   16.72
  -2 -10  13   19.75    6.70
  -2 -10  14  143.83   13.41
  -2 -10  15  184.59   15.43
  -2  -9  -5   23.61    6.52
  -2  -9  -4  303.15   19.61
  -2  -9  -3  220.28   16.03
  -2  -9  -2   28.96    6.16
  -2  -9  -1  130.20   11.45
  -2  -9   0  288.64   17.03
  -2  -9   2   35.27    7.42
  -2  -9   3   23.17    6.55
  -2  -9   4  717.00   32.52
  -2  -9   5   45.54    8.15
  -2  -9   6  156.64   13.75
  -2  -9   7   93.31   11.14
  -2  -9   8  737.21   33.10
  -2  -9   9  172.26   14.15
  -2  -9  10   13.84    6.12
  -2  -9  11  291.40   18.81
  -2  -9  12  612.30   29.45
  -2  -9  13   81.37   10.03
  -2  -9  14   79.50   10.26
  -2  -9  15  357.73   21.45
  -2  -8  -7   87.61   11.21
  -2  -8  -6   46.44    8.27
  -2  -8  -5    3.97    4.95
  -2  -8  -4   60.43    8.47
  -2  -8  -3  227.41   15.83
  -2  -8  -2   85.60    9.57
  -2  -8  -1    3.00    3.94
  -2  -8   0  111.69    9.97
  -2  -8   1  508.55   25.15
  -2  -8   1  519.11   23.10
  -2  -8   2  134.44   12.45
  -2  -8   2  149.98   10.60
  -2  -8   3  354.57   20.22
  -2  -8   4  441.02   22.96
  -2  -8   5  578.37   27.57
  -2  -8   6    3.41    5.46
  -2  -8   7  307.52   18.64
  -2  -8   8  821.22   34.57
  -2  -8   9    1.69    4.45
  -2  -8  10   10.17    4.69
  -2  -8  11  157.23   13.13
  -2  -8  12  140.29   12.56
  -2  -8  13   17.63    5.91
  -2  -8  14    9.85    4.87
  -2  -8  15   52.10    8.11
  -2  -7  -8  136.98   14.13
  -2  -7  -7  591.20   30.49
  -2  -7  -6  367.48   22.46
  -2  -7  -5   -0.96    4.48
  -2  -7  -4  362.50   21.01
  -2  -7  -3 1098.86   42.18
  -2  -7  -2    4.55    3.77
  -2  -7  -1   -0.70    3.48
  -2  -7   0  741.25   29.74
  -2  -7   1  367.59   19.71
  -2  -7   1  352.77   17.56
  -2  -7   2  115.44   10.88
  -2  -7   2  111.80    8.94
  -2  -7   3   95.01    9.98
  -2  -7   3   91.93    7.73
  -2  -7   4  406.21   18.10
  -2  -7   4  436.59   21.67
  -2  -7   5 1348.22   49.95
  -2  -7   5 1473.90   46.38
  -2  -7   6  411.83   21.32
  -2  -7   7   21.32    5.74
  -2  -7   8  963.29   37.51
  -2  -7   9  715.19   30.35
  -2  -7  10  793.22   32.74
  -2  -7  11  116.40   10.84
  -2  -7  12  320.02   18.75
  -2  -7  13  548.57   26.16
  -2  -7  14   35.84    6.53
  -2  -6  -9   37.05    8.06
  -2  -6  -8    6.77    5.40
  -2  -6  -7  142.83   13.65
  -2  -6  -6  313.68   20.08
  -2  -6  -5  364.55   21.10
  -2  -6  -4    1.68    4.27
  -2  -6  -3  728.85   30.89
  -2  -6  -2  436.09   21.24
  -2  -6  -1  370.79   18.63
  -2  -6   0 1038.80   37.88
  -2  -6   0  996.83   36.58
  -2  -6   1  917.08   33.22
  -2  -6   1  914.54   35.00
  -2  -6   2  285.82   16.36
  -2  -6   2  292.85   14.46
  -2  -6   2  284.59   13.02
  -2  -6   3  236.83   14.66
  -2  -6   3  239.55   12.58
  -2  -6   3  238.52   11.36
  -2  -6   4 2068.01   60.94
  -2  -6   4 2091.89   62.64
  -2  -6   5 1535.11   55.29
  -2  -6   5 1776.16   52.94
  -2  -6   6   49.70    7.35
  -2  -6   6   47.33    5.13
  -2  -6   7  598.93   27.22
  -2  -6   7  729.76   25.12
  -2  -6   8 1731.47   57.84
  -2  -6   9  458.89   21.76
  -2  -6  10    3.50    3.62
  -2  -6  11  629.61   27.52
  -2  -6  12  356.20   19.12
  -2  -6  12  338.48   18.14
  -2  -6  13  111.89   10.51
  -2  -6  13  114.45   10.43
  -2  -6  14    1.55    3.39
  -2  -6  14    1.59    4.18
  -2  -6  15  177.76   14.09
  -2  -6  16  116.71   12.07
  -2  -6  17  157.94   14.33
  -2  -5 -10  295.70   21.48
  -2  -5  -9  247.24   19.00
  -2  -5  -8  111.50   12.55
  -2  -5  -7  461.93   25.23
  -2  -5  -6  736.50   32.90
  -2  -5  -5  133.16   12.24
  -2  -5  -4  218.18   14.93
  -2  -5  -3  858.06   33.92
  -2  -5  -2  646.55   22.76
  -2  -5  -2  608.89   22.43
  -2  -5  -2  595.37   22.32
  -2  -5  -2  645.18   26.41
  -2  -5  -1   70.77    5.55
  -2  -5  -1   77.53    5.76
  -2  -5  -1   84.70    7.67
  -2  -5  -1   69.07    5.48
  -2  -5   0  657.68   27.34
  -2  -5   0  714.93   27.47
  -2  -5   0  737.40   24.67
  -2  -5   0  712.62   24.52
  -2  -5   0  731.51   24.63
  -2  -5   1  932.30   34.36
  -2  -5   1  958.06   33.53
  -2  -5   2  482.90   19.11
  -2  -5   2  470.22   17.56
  -2  -5   3    3.43    1.53
  -2  -5   3    0.43    1.90
  -2  -5   4  526.31   19.00
  -2  -5   4  513.03   19.88
  -2  -5   5  534.49   23.41
  -2  -5   5  611.71   22.14
  -2  -5   6  725.14   28.37
  -2  -5   6  738.89   26.18
  -2  -5   7    0.73    2.12
  -2  -5   7    2.05    1.88
  -2  -5   7   -2.89    3.14
  -2  -5   8  237.86   12.14
  -2  -5   8  252.01   14.17
  -2  -5   9 1049.49   36.39
  -2  -5   9 1072.52   38.26
  -2  -5  10  160.00   11.64
  -2  -5  10  173.03   11.13
  -2  -5  11   29.67    5.26
  -2  -5  11   18.63    4.55
  -2  -5  12 1030.25   37.97
  -2  -5  12  996.31   37.61
  -2  -5  13  331.96   18.16
  -2  -5  13  336.22   18.48
  -2  -5  14   50.76    7.71
  -2  -5  14   37.84    6.34
  -2  -5  15  186.26   14.43
  -2  -5  16  322.20   20.15
  -2  -5  17  131.59   12.72
  -2  -4 -11   93.77   12.70
  -2  -4 -10  195.41   17.01
  -2  -4  -9  364.40   23.20
  -2  -4  -8   25.87    6.42
  -2  -4  -7  129.19   12.42
  -2  -4  -6  510.35   21.18
  -2  -4  -6  516.15   21.11
  -2  -4  -6  527.70   25.77
  -2  -4  -6  478.40   20.73
  -2  -4  -5  959.05   37.10
  -2  -4  -5  905.45   31.70
  -2  -4  -5  903.38   31.71
  -2  -4  -5  883.33   31.68
  -2  -4  -4    0.73    4.01
  -2  -4  -4    2.94    2.17
  -2  -4  -4    3.75    2.23
  -2  -4  -4    5.00    2.47
  -2  -4  -3  415.90   19.84
  -2  -4  -3  380.38   16.03
  -2  -4  -3  390.09   16.19
  -2  -4  -3  390.56   16.15
  -2  -4  -2 2236.83   65.75
  -2  -4  -2 2166.38   69.53
  -2  -4  -2 2231.60   65.74
  -2  -4  -2 2210.20   65.80
  -2  -4  -1 1835.42   53.57
  -2  -4  -1 1768.74   53.41
  -2  -4  -1 1701.60   55.58
  -2  -4  -1 1794.51   53.45
  -2  -4  -1 1755.32   56.76
  -2  -4   0  539.75   19.08
  -2  -4   0  507.66   21.10
  -2  -4   0  543.89   19.09
  -2  -4   0  531.79   21.52
  -2  -4   0  519.18   18.96
  -2  -4   1 3173.71   88.96
  -2  -4   1 3244.17   87.95
  -2  -4   1 3098.29   88.80
  -2  -4   1 3167.01   88.90
  -2  -4   1 3077.51   91.34
  -2  -4   2 4350.92  121.94
  -2  -4   2 4569.51  119.97
  -2  -4   2 4317.10  123.44
  -2  -4   3  535.43   22.09
  -2  -4   3  585.15   21.60
  -2  -4   3  581.27   20.58
  -2  -4   4 1695.93   48.56
  -2  -4   4 1643.20   51.71
  -2  -4   4 1613.40   52.80
  -2  -4   4 1719.73   51.02
  -2  -4   5 1957.53   56.50
  -2  -4   5 1932.40   60.21
  -2  -4   5 1917.16   58.79
  -2  -4   6 1450.82   44.13
  -2  -4   6 1476.14   45.75
  -2  -4   6 1427.72   47.18
  -2  -4   7  118.94    8.78
  -2  -4   7  113.11    7.27
  -2  -4   8  702.73   26.49
  -2  -4   8  655.46   24.51
  -2  -4   9  454.48   19.82
  -2  -4   9  427.61   18.47
  -2  -4  10  321.63   16.49
  -2  -4  10  334.97   16.06
  -2  -4  11  374.35   18.33
  -2  -4  11  388.99   18.49
  -2  -4  12  259.34   14.83
  -2  -4  12  254.58   15.24
  -2  -4  13  299.50   17.38
  -2  -4  13  330.91   17.36
  -2  -4  14   49.62    7.53
  -2  -4  15   17.08    5.67
  -2  -4  16  230.27   16.68
  -2  -4  17   82.92   10.66
  -2  -3 -12  108.52   13.24
  -2  -3 -11   10.85    6.23
  -2  -3 -10  320.94   21.52
  -2  -3  -9  350.19   17.99
  -2  -3  -9  335.22   21.52
  -2  -3  -9  323.48   17.53
  -2  -3  -9  342.14   17.76
  -2  -3  -8   10.77    5.32
  -2  -3  -8    6.62    3.28
  -2  -3  -8    5.42    3.58
  -2  -3  -8   11.59    4.09
  -2  -3  -7  140.31   10.01
  -2  -3  -7  141.46   10.05
  -2  -3  -7  140.23   12.62
  -2  -3  -7  144.34   10.14
  -2  -3  -6  870.57   31.47
  -2  -3  -6  938.36   36.43
  -2  -3  -6  885.72   31.60
  -2  -3  -6  859.51   31.56
  -2  -3  -5   57.73    7.58
  -2  -3  -5   47.65    5.24
  -2  -3  -5   42.69    5.13
  -2  -3  -5   51.26    5.39
  -2  -3  -4  219.15   11.15
  -2  -3  -4  247.51   14.37
  -2  -3  -4  212.98   11.07
  -2  -3  -4  208.02   11.05
  -2  -3  -3  385.97   15.60
  -2  -3  -3  374.99   15.41
  -2  -3  -3  392.02   18.54
  -2  -3  -3  355.38   15.20
  -2  -3  -2  792.71   28.80
  -2  -3  -2  754.61   25.56
  -2  -3  -2  758.27   25.57
  -2  -3  -2  738.62   25.52
  -2  -3  -2  732.86   26.17
  -2  -3  -1  389.93   16.57
  -2  -3  -1  434.09   15.93
  -2  -3  -1  398.29   15.58
  -2  -3  -1  447.07   18.34
  -2  -3  -1  415.41   15.83
  -2  -3   0  242.09    9.61
  -2  -3   0  253.80   12.27
  -2  -3   0  223.71   10.06
  -2  -3   0  228.41   10.09
  -2  -3   0  227.27   10.16
  -2  -3   0  216.20   11.02
  -2  -3   1   21.39    2.80
  -2  -3   1   19.29    2.26
  -2  -3   1   22.80    2.86
  -2  -3   1   20.59    3.65
  -2  -3   1   25.74    3.00
  -2  -3   1   25.15    3.63
  -2  -3   2 3814.25   98.98
  -2  -3   2 3560.49  102.54
  -2  -3   2 3415.92   96.94
  -2  -3   2 3630.09   97.18
  -2  -3   2 3652.28  101.58
  -2  -3   2 3583.13  102.37
  -2  -3   3 1487.30   43.84
  -2  -3   3 1449.67   47.73
  -2  -3   3 1547.14   47.20
  -2  -3   3 1513.90   47.93
  -2  -3   4 1114.12   33.53
  -2  -3   4 1039.33   35.23
  -2  -3   4 1122.80   34.72
  -2  -3   4 1110.10   33.50
  -2  -3   4 1050.16   35.15
  -2  -3   4 1080.05   32.15
  -2  -3   4 1101.57   34.61
  -2  -3   5 1444.09   40.61
  -2  -3   5 1412.44   40.41
  -2  -3   5 1287.71   42.16
  -2  -3   5 1253.22   39.40
  -2  -3   5 1253.88   41.68
  -2  -3   6 1281.58   41.10
  -2  -3   6 1261.29   38.86
  -2  -3   7 1302.63   42.51
  -2  -3   7 1317.05   40.95
  -2  -3   8    7.88    2.94
  -2  -3   8   10.39    3.13
  -2  -3   9  849.68   30.68
  -2  -3   9  853.06   30.10
  -2  -3  10 1425.42   47.45
  -2  -3  10 1459.61   47.47
  -2  -3  11    9.27    3.71
  -2  -3  11    7.76    3.12
  -2  -3  12  144.88   10.53
  -2  -3  12  150.75   11.22
  -2  -3  13 1135.73   42.11
  -2  -3  13 1164.72   41.07
  -2  -3  14  395.22   21.00
  -2  -3  15   62.80    8.53
  -2  -3  16  370.33   21.65
  -2  -3  17  233.92   17.11
  -2  -2 -13  211.90   18.33
  -2  -2 -12  176.86   16.43
  -2  -2 -11    3.45    5.01
  -2  -2 -11    7.01    4.50
  -2  -2 -11    4.67    3.80
  -2  -2 -11    3.95    4.30
  -2  -2 -10    6.59    4.17
  -2  -2 -10   15.04    5.93
  -2  -2 -10   12.26    4.29
  -2  -2 -10    5.77    3.73
  -2  -2  -9  480.71   25.88
  -2  -2  -9  502.61   22.62
  -2  -2  -9  477.33   22.28
  -2  -2  -9  492.90   22.70
  -2  -2  -8  517.87   22.71
  -2  -2  -8  530.66   26.27
  -2  -2  -8  512.96   22.46
  -2  -2  -8  498.03   22.34
  -2  -2  -7   84.76    7.55
  -2  -2  -7   88.45    9.57
  -2  -2  -7   74.93    7.27
  -2  -2  -7   80.47    7.50
  -2  -2  -6  637.00   28.45
  -2  -2  -6  682.49   25.46
  -2  -2  -6  657.62   25.24
  -2  -2  -6  664.98   25.45
  -2  -2  -5  808.41   28.41
  -2  -2  -5  806.13   31.83
  -2  -2  -5  796.72   28.32
  -2  -2  -5  786.35   28.40
  -2  -2  -4  602.76   24.20
  -2  -2  -4  546.62   20.80
  -2  -2  -4  528.97   20.54
  -2  -2  -4  553.97   20.80
  -2  -2  -3  243.58   13.22
  -2  -2  -3  237.20   11.17
  -2  -2  -3  245.03   11.22
  -2  -2  -3  244.92   11.23
  -2  -2  -2 4090.52  117.36
  -2  -2  -2 4184.69  117.49
  -2  -2  -2 4133.73  116.64
  -2  -2  -2 4186.18  117.58
  -2  -2  -2 4226.10  120.45
  -2  -2  -1 1389.02   37.61
  -2  -2  -1 1324.62   39.76
  -2  -2  -1 1348.53   39.66
  -2  -2  -1 1295.40   39.70
  -2  -2  -1 1318.36   42.92
  -2  -2  -1 1271.65   40.38
  -2  -2  -1 1388.98   40.24
  -2  -2  -1 1276.45   40.43
  -2  -2  -1 1271.14   40.37
  -2  -2   0    0.41    0.60
  -2  -2   0    1.92    1.73
  -2  -2   0    3.72    2.02
  -2  -2   0    3.02    1.41
  -2  -2   0    5.61    1.79
  -2  -2   0    0.21    0.49
  -2  -2   0    6.05    1.71
  -2  -2   0    2.36    0.96
  -2  -2   1 1124.14   31.70
  -2  -2   1 1048.22   33.17
  -2  -2   1 1091.02   33.42
  -2  -2   1 1074.46   33.21
  -2  -2   1 1056.24   33.15
  -2  -2   1 1029.28   34.57
  -2  -2   2 6538.44  169.93
  -2  -2   2 6809.56  168.56
  -2  -2   2 5766.99  167.06
  -2  -2   2 6463.10  171.17
  -2  -2   2 6570.80  169.96
  -2  -2   2 5915.91  172.05
  -2  -2   2 6312.87  171.46
  -2  -2   3 2202.65   59.82
  -2  -2   3 1980.80   57.53
  -2  -2   3 2126.64   61.53
  -2  -2   3 2134.63   61.18
  -2  -2   3 2272.69   59.92
  -2  -2   3 2080.68   61.96
  -2  -2   3 2070.56   58.09
  -2  -2   4   28.22    2.62
  -2  -2   4   26.65    3.15
  -2  -2   4   23.23    2.32
  -2  -2   4   29.77    2.69
  -2  -2   4   27.94    3.22
  -2  -2   4   25.82    3.29
  -2  -2   4   24.08    3.20
  -2  -2   5 3375.39   86.30
  -2  -2   5 3399.10   86.33
  -2  -2   5 2801.95   85.73
  -2  -2   5 2711.76   87.84
  -2  -2   5 2870.96   87.79
  -2  -2   6 2254.14   71.97
  -2  -2   6 2256.57   70.56
  -2  -2   6 2600.05   70.35
  -2  -2   6 2651.92   70.43
  -2  -2   7  559.54   21.06
  -2  -2   7  558.92   20.21
  -2  -2   8  193.94   10.57
  -2  -2   8  192.81   10.25
  -2  -2   9 1792.96   56.72
  -2  -2   9 1850.21   56.75
  -2  -2  10  307.28   15.33
  -2  -2  10  334.09   15.77
  -2  -2  11  233.94   13.75
  -2  -2  11  256.82   13.59
  -2  -2  12   17.11    4.16
  -2  -2  12   15.47    4.73
  -2  -2  13  460.75   22.30
  -2  -2  14  427.30   21.96
  -2  -2  15   69.35    8.89
  -2  -2  16   10.93    5.34
  -2  -1 -14   29.57    7.14
  -2  -1 -14   29.05    6.66
  -2  -1 -14   32.43    6.70
  -2  -1 -13  411.10   22.57
  -2  -1 -13  391.71   22.28
  -2  -1 -13  399.22   22.49
  -2  -1 -12  282.26   20.33
  -2  -1 -12  275.84   17.71
  -2  -1 -12  293.02   18.34
  -2  -1 -12  295.67   18.17
  -2  -1 -11   -3.23    5.46
  -2  -1 -11    4.75    3.94
  -2  -1 -11    0.79    3.87
  -2  -1 -11   -1.61    4.30
  -2  -1 -10  132.97   11.25
  -2  -1 -10  139.39   11.44
  -2  -1 -10  112.51   12.21
  -2  -1 -10  141.37   11.70
  -2  -1  -9  784.26   31.31
  -2  -1  -9  811.34   34.78
  -2  -1  -9  786.09   31.27
  -2  -1  -9  777.92   31.46
  -2  -1  -8  599.49   27.75
  -2  -1  -8  576.48   24.51
  -2  -1  -8  585.26   24.72
  -2  -1  -8  595.12   24.71
  -2  -1  -7   72.66    7.00
  -2  -1  -7   59.26    6.62
  -2  -1  -7   56.33    7.58
  -2  -1  -7   62.85    6.85
  -2  -1  -6  403.36   17.70
  -2  -1  -6  345.49   18.76
  -2  -1  -6  399.51   17.39
  -2  -1  -6  412.78   17.63
  -2  -1  -5 1256.44   41.07
  -2  -1  -5 1263.23   41.11
  -2  -1  -5 1275.80   41.28
  -2  -1  -5 1265.95   43.94
  -2  -1  -4 1235.98   42.80
  -2  -1  -4 1278.30   40.67
  -2  -1  -4 1292.00   40.63
  -2  -1  -4 1292.97   40.64
  -2  -1  -3  468.15   15.28
  -2  -1  -3  436.09   16.69
  -2  -1  -3  430.14   16.62
  -2  -1  -3  427.93   18.53
  -2  -1  -3  421.82   16.64
  -2  -1  -2 1104.66   30.45
  -2  -1  -2 1036.08   31.27
  -2  -1  -2 1036.73   31.16
  -2  -1  -2  967.68   32.02
  -2  -1  -2 1006.57   29.50
  -2  -1  -2  994.73   32.04
  -2  -1  -2 1007.62   31.05
  -2  -1  -2  979.74   31.97
  -2  -1  -2  952.53   33.68
  -2  -1  -1 2084.55   56.79
  -2  -1  -1 2072.52   56.77
  -2  -1  -1 2098.58   58.79
  -2  -1  -1 2312.46   55.99
  -2  -1  -1 1406.60   54.58
  -2  -1  -1 2241.74   54.36
  -2  -1  -1 2135.40   54.58
  -2  -1  -1 1365.92   54.53
  -2  -1  -1 2133.11   56.97
  -2  -1   0  375.88   14.94
  -2  -1   0  393.46   12.77
  -2  -1   0  369.92   13.71
  -2  -1   0  377.20   12.54
  -2  -1   0  367.57   13.64
  -2  -1   0  364.54   13.62
  -2  -1   1   40.32    3.98
  -2  -1   1   41.44    3.03
  -2  -1   1   39.55    3.51
  -2  -1   1   41.28    3.48
  -2  -1   1   47.35    3.75
  -2  -1   1   41.56    3.55
  -2  -1   1   41.42    3.05
  -2  -1   1   46.90    2.73
  -2  -1   2  868.73   26.33
  -2  -1   2  870.57   26.64
  -2  -1   2 1091.94   28.28
  -2  -1   2 1087.51   28.26
  -2  -1   2  917.57   28.60
  -2  -1   2  954.52   29.71
  -2  -1   2  968.81   30.28
  -2  -1   3 1719.43   45.83
  -2  -1   3 1495.27   44.98
  -2  -1   3 1477.74   46.75
  -2  -1   3 1758.01   45.88
  -2  -1   3 1509.41   47.93
  -2  -1   4    1.27    1.41
  -2  -1   4    1.62    0.84
  -2  -1   4    2.80    0.99
  -2  -1   4    4.75    1.85
  -2  -1   5    3.44    1.86
  -2  -1   5    5.63    1.77
  -2  -1   5    3.45    0.97
  -2  -1   5    4.96    1.18
  -2  -1   6 1851.87   54.09
  -2  -1   6 1802.49   54.82
  -2  -1   7 1680.80   50.88
  -2  -1   7 1669.39   51.34
  -2  -1   8   85.32    6.63
  -2  -1   8   89.74    6.75
  -2  -1   9  933.88   32.48
  -2  -1   9  937.32   32.19
  -2  -1  10 1158.52   39.92
  -2  -1  10 1181.52   39.33
  -2  -1  11  479.33   21.03
  -2  -1  11  462.59   19.83
  -2  -1  12  175.30   12.12
  -2  -1  12  174.03   11.21
  -2  -1  13  388.02   19.95
  -2  -1  14  316.76   18.38
  -2  -1  15    2.55    3.89
  -2  -1  16   20.00    6.30
  -2   0 -14   44.80    8.15
  -2   0 -14   42.24    8.10
  -2   0 -14   39.25    8.09
  -2   0 -13  191.07   15.04
  -2   0 -13  192.20   15.08
  -2   0 -13  170.82   14.42
  -2   0 -12   57.29    8.20
  -2   0 -12   69.54    8.84
  -2   0 -12   55.55    8.37
  -2   0 -11    3.28    3.83
  -2   0 -11    8.04    4.22
  -2   0 -11   -4.00    5.17
  -2   0 -11    2.41    3.60
  -2   0 -10   13.52    4.22
  -2   0 -10   14.79    5.50
  -2   0 -10    5.16    3.68
  -2   0 -10   16.24    4.79
  -2   0  -9  811.88   34.75
  -2   0  -9  861.48   33.11
  -2   0  -9  830.87   33.01
  -2   0  -9  868.94   33.18
  -2   0  -8   12.62    4.12
  -2   0  -8   15.31    4.11
  -2   0  -8   11.49    4.86
  -2   0  -8   12.64    3.78
  -2   0  -7  133.77    9.59
  -2   0  -7  123.76    9.46
  -2   0  -7  148.87   11.05
  -2   0  -7  146.39    9.92
  -2   0  -6  488.56   19.87
  -2   0  -6  435.13   20.79
  -2   0  -6  483.87   20.06
  -2   0  -6  479.22   19.82
  -2   0  -5 1240.34   40.06
  -2   0  -5 1204.77   41.72
  -2   0  -5 1230.06   39.98
  -2   0  -5 1253.25   40.26
  -2   0  -4 2073.12   67.39
  -2   0  -4 2118.93   65.87
  -2   0  -4 2147.09   65.93
  -2   0  -4 2174.57   66.11
  -2   0  -3    3.02    1.45
  -2   0  -3    0.95    1.19
  -2   0  -3    3.50    2.18
  -2   0  -3    4.18    1.89
  -2   0  -3    6.35    2.13
  -2   0  -3    3.88    1.84
  -2   0  -2 1018.55   30.92
  -2   0  -2 1021.33   30.01
  -2   0  -2 1067.28   30.31
  -2   0  -2  981.56   30.78
  -2   0  -2  944.95   27.21
  -2   0  -2  992.90   30.92
  -2   0  -2 1047.37   32.54
  -2   0  -1 3986.64  114.96
  -2   0  -1 4364.82  119.22
  -2   0  -1 4485.37  117.07
  -2   0  -1 4162.68  117.69
  -2   0  -1 4178.68  117.70
  -2   0  -1 4158.69  117.72
  -2   0  -1 4531.97  116.41
  -2   0   0 1818.06   54.29
  -2   0   0 1906.50   53.59
  -2   0   0 1821.68   54.31
  -2   0   0 1856.20   55.38
  -2   0   0 1793.70   52.57
  -2   0   0 1957.55   53.68
  -2   0   0 1834.56   54.45
  -2   0   1  167.59    6.13
  -2   0   1  171.45    7.01
  -2   0   1  201.62    7.08
  -2   0   1  189.07    7.16
  -2   0   1  186.01    7.17
  -2   0   1  191.65    8.31
  -2   0   1  204.82    8.89
  -2   0   2 2991.55   80.34
  -2   0   2 2771.10   79.80
  -2   0   2 2908.60   81.11
  -2   0   2 2977.71   80.33
  -2   0   2 2936.41   82.48
  -2   0   2 2776.16   82.49
  -2   0   3  515.74   15.80
  -2   0   3  472.17   14.87
  -2   0   3  506.52   17.25
  -2   0   3  492.23   16.23
  -2   0   3  673.30   18.74
  -2   0   3  501.81   15.74
  -2   0   3  698.25   18.86
  -2   0   3  528.72   18.46
  -2   0   4  261.52   10.24
  -2   0   4  194.95    7.16
  -2   0   4  268.16   10.32
  -2   0   4  191.73    6.84
  -2   0   4  217.20    9.28
  -2   0   4  215.72    8.56
  -2   0   4  208.03    7.25
  -2   0   5  378.48   12.04
  -2   0   5  375.45   14.45
  -2   0   5  362.71   11.79
  -2   0   5  370.98   13.87
  -2   0   5  369.29   11.80
  -2   0   5  437.97   15.82
  -2   0   5  436.92   15.85
  -2   0   6 2191.40   63.22
  -2   0   6 2318.29   65.89
  -2   0   6 2318.83   66.29
  -2   0   7  324.48   13.99
  -2   0   7  341.12   14.19
  -2   0   8   55.74    5.59
  -2   0   8   49.52    4.91
  -2   0   9  492.19   19.52
  -2   0   9  485.89   20.07
  -2   0  10  764.25   27.51
  -2   0  10  734.14   28.18
  -2   0  11  563.95   23.41
  -2   0  11  521.57   21.80
  -2   0  12   34.79    5.84
  -2   0  13   32.54    5.88
  -2   0  14  255.95   16.55
  -2   0  15  119.49   11.52
  -2   0  16   -8.19    6.76
  -2   1 -14   31.67    7.14
  -2   1 -14   45.13    8.20
  -2   1 -14   49.21    8.21
  -2   1 -13  265.61   18.27
  -2   1 -13  266.06   18.28
  -2   1 -13  254.24   17.85
  -2   1 -12  596.23   28.10
  -2   1 -12  559.65   27.80
  -2   1 -12  594.66   27.99
  -2   1 -11   54.69    8.02
  -2   1 -10  613.29   28.44
  -2   1 -10  642.17   27.90
  -2   1  -9 1666.77   58.84
  -2   1  -9 1812.75   58.62
  -2   1  -8  439.91   21.41
  -2   1  -8  457.63   18.09
  -2   1  -8  451.15   18.03
  -2   1  -8  500.13   21.57
  -2   1  -7  152.75   11.00
  -2   1  -7  172.73    9.08
  -2   1  -7  165.14    8.92
  -2   1  -7  169.74   11.09
  -2   1  -6 2089.15   61.91
  -2   1  -6 2077.12   64.57
  -2   1  -6 2155.23   64.54
  -2   1  -6 2102.67   64.37
  -2   1  -6 2127.38   62.04
  -2   1  -6 1983.82   65.03
  -2   1  -5 3213.79   93.32
  -2   1  -5 3250.11   95.14
  -2   1  -5 3173.44   93.31
  -2   1  -5 3330.20   95.46
  -2   1  -5 3034.31   95.59
  -2   1  -5 3245.30   95.17
  -2   1  -4  179.25    9.87
  -2   1  -4  203.77    9.84
  -2   1  -4  188.83    9.60
  -2   1  -4  182.08    9.59
  -2   1  -4  191.05    8.87
  -2   1  -4  178.01    8.67
  -2   1  -3   18.76    2.79
  -2   1  -3   24.77    3.41
  -2   1  -3   25.86    2.86
  -2   1  -3   23.82    2.70
  -2   1  -3   26.02    3.15
  -2   1  -3   27.43    3.18
  -2   1  -3   23.16    2.75
  -2   1  -3   25.48    3.15
  -2   1  -2 1432.03   41.71
  -2   1  -2 1460.68   41.93
  -2   1  -2 1394.07   42.30
  -2   1  -2 1398.77   42.58
  -2   1  -2 1420.40   42.19
  -2   1  -2 1442.93   41.74
  -2   1  -2 1402.11   42.11
  -2   1  -2 1331.04   41.73
  -2   1  -1  903.96   28.76
  -2   1  -1  930.31   28.31
  -2   1  -1  898.93   27.91
  -2   1  -1  987.95   28.28
  -2   1  -1  864.73   26.13
  -2   1  -1  926.95   28.29
  -2   1  -1 1037.02   28.15
  -2   1  -1  910.15   28.33
  -2   1  -1  917.89   27.97
  -2   1   0 2193.60   63.27
  -2   1   0 2219.19   61.29
  -2   1   0 2256.16   62.60
  -2   1   0 2239.43   62.59
  -2   1   0 2260.46   62.61
  -2   1   0 2056.66   61.30
  -2   1   0 2253.90   63.10
  -2   1   1   25.18    2.70
  -2   1   1   17.70    1.86
  -2   1   1   18.08    1.77
  -2   1   1   15.79    1.88
  -2   1   1   25.91    2.54
  -2   1   2   68.03    3.78
  -2   1   2   68.87    4.10
  -2   1   2   65.89    3.48
  -2   1   2   76.66    4.87
  -2   1   3  992.97   32.16
  -2   1   3 1354.38   34.75
  -2   1   3 1389.07   34.83
  -2   1   3 1016.63   33.39
  -2   1   3 1048.79   32.97
  -2   1   4  161.46    6.64
  -2   1   4  145.07    5.25
  -2   1   4  154.00    7.51
  -2   1   4  155.37    5.32
  -2   1   4  214.35    8.88
  -2   1   4  225.19    9.04
  -2   1   4  154.27    7.37
  -2   1   5  131.69    7.47
  -2   1   5   91.93    5.97
  -2   1   5  134.96    7.52
  -2   1   5   92.04    6.09
  -2   1   5  108.58    5.42
  -2   1   6 1246.65   38.84
  -2   1   6 1240.99   38.80
  -2   1   6 1233.58   37.13
  -2   1   7  736.96   25.42
  -2   1   7  705.21   24.97
  -2   1   8  415.65   17.58
  -2   1   8  425.91   17.19
  -2   1   9   22.43    3.92
  -2   1   9   32.70    4.91
  -2   1  10 1234.43   41.94
  -2   1  10 1225.98   40.71
  -2   1  11  678.78   26.86
  -2   1  11  620.18   24.65
  -2   1  12   19.97    4.71
  -2   1  13  195.17   13.87
  -2   1  14  512.71   24.76
  -2   1  15  101.32   10.53
  -2   2 -15   90.64   11.38
  -2   2 -15   78.29   10.58
  -2   2 -15   70.91   10.23
  -2   2 -14   46.72    8.08
  -2   2 -14   61.08    9.25
  -2   2 -14   41.81    7.88
  -2   2 -13    4.88    4.47
  -2   2 -12   53.55    8.43
  -2   2 -11  407.87   21.77
  -2   2 -10    4.58    4.08
  -2   2  -9    0.41    2.29
  -2   2  -9    0.67    3.88
  -2   2  -9   -0.69    3.91
  -2   2  -9   -1.23    2.43
  -2   2  -8 1318.97   44.05
  -2   2  -8 1292.58   40.31
  -2   2  -8 1264.98   40.23
  -2   2  -7  257.86   14.01
  -2   2  -7  278.76   12.59
  -2   2  -7  286.07   14.62
  -2   2  -7  297.49   12.85
  -2   2  -6    5.55    3.04
  -2   2  -6   10.97    2.53
  -2   2  -6   10.26    2.46
  -2   2  -6   10.07    3.00
  -2   2  -5 1788.82   59.66
  -2   2  -5 1997.81   59.07
  -2   2  -5 2018.52   60.94
  -2   2  -5 2001.27   60.66
  -2   2  -5 2003.28   59.10
  -2   2  -5 1990.27   60.61
  -2   2  -4 1574.73   47.34
  -2   2  -4 1680.87   48.71
  -2   2  -4 1795.45   49.26
  -2   2  -4 1671.46   48.53
  -2   2  -4 1694.70   48.60
  -2   2  -4 1546.96   43.73
  -2   2  -4 1443.63   47.42
  -2   2  -4 1568.75   47.36
  -2   2  -3  217.98    9.51
  -2   2  -3  219.98    9.52
  -2   2  -3  206.24    8.98
  -2   2  -3  206.91    9.02
  -2   2  -3  202.60    9.02
  -2   2  -3  213.16    9.58
  -2   2  -3  214.60    9.92
  -2   2  -2  375.80   14.17
  -2   2  -2  375.27   14.20
  -2   2  -2  434.54   14.59
  -2   2  -2  442.10   15.24
  -2   2  -2  429.94   14.54
  -2   2  -2  389.01   14.14
  -2   2  -2  438.24   14.64
  -2   2  -1 2894.40   81.51
  -2   2  -1 2942.82   81.58
  -2   2  -1 2970.50   81.64
  -2   2  -1 2891.21   81.64
  -2   2  -1 2903.23   81.51
  -2   2  -1 2836.14   81.49
  -2   2   0 1175.96   34.38
  -2   2   0 1164.33   34.38
  -2   2   0 1235.43   35.09
  -2   2   0 1131.15   34.17
  -2   2   0 1198.83   35.18
  -2   2   0 1180.46   34.53
  -2   2   0 1182.85   34.98
  -2   2   0 1160.14   34.52
  -2   2   0 1179.23   34.53
  -2   2   0 1179.64   34.57
  -2   2   1   38.54    2.57
  -2   2   1   41.14    3.26
  -2   2   1   42.85    3.12
  -2   2   1   42.87    2.68
  -2   2   1   45.86    3.17
  -2   2   2 1778.49   52.37
  -2   2   2 1773.39   53.94
  -2   2   2 1905.48   54.35
  -2   2   2 2025.31   54.16
  -2   2   2 2214.33   56.22
  -2   2   2 1917.88   54.30
  -2   2   2 1785.73   52.40
  -2   2   2 2042.92   54.22
  -2   2   3 3325.20   94.88
  -2   2   3 3277.87   94.52
  -2   2   3 3467.33   94.72
  -2   2   3 3632.99   96.38
  -2   2   3 3158.87   94.16
  -2   2   3 3431.89   94.68
  -2   2   4   95.24    5.77
  -2   2   4  105.78    6.08
  -2   2   4   82.85    5.60
  -2   2   4   94.13    5.34
  -2   2   4   84.18    5.55
  -2   2   5  173.75    9.03
  -2   2   5  167.68    8.56
  -2   2   5  172.25    8.05
  -2   2   5  162.70    8.75
  -2   2   5  161.17    8.41
  -2   2   6 2099.32   62.75
  -2   2   6 2123.44   62.04
  -2   2   6 2120.72   62.98
  -2   2   7  259.66   11.71
  -2   2   7  283.16   12.90
  -2   2   7  262.43   12.22
  -2   2   8   15.24    3.06
  -2   2   8   13.42    3.49
  -2   2   9   30.00    4.23
  -2   2   9   29.27    4.82
  -2   2  10  319.95   14.98
  -2   2  10  313.34   16.01
  -2   2  11   63.33    7.12
  -2   2  12   34.13    5.99
  -2   2  13   13.35    4.97
  -2   2  14  236.58   16.03
  -2   2  15   39.46    7.33
  -2   3 -15  266.36   19.30
  -2   3 -14   82.75   10.90
  -2   3 -13  247.84   17.68
  -2   3 -12  907.47   37.84
  -2   3 -11  577.64   27.29
  -2   3 -10   28.68    4.45
  -2   3 -10   29.80    6.11
  -2   3 -10   31.61    4.52
  -2   3  -9 1058.68   35.60
  -2   3  -9 1044.47   39.08
  -2   3  -9 1069.50   35.71
  -2   3  -8 1655.04   51.85
  -2   3  -8 1683.25   55.22
  -2   3  -8 1681.89   51.97
  -2   3  -7 1301.49   39.58
  -2   3  -7 1286.50   39.50
  -2   3  -7 1289.59   42.22
  -2   3  -6   -0.45    2.69
  -2   3  -6    0.69    1.88
  -2   3  -6    0.33    1.75
  -2   3  -6    2.68    1.90
  -2   3  -5 2129.31   60.17
  -2   3  -5 2124.64   60.17
  -2   3  -5 2133.38   61.80
  -2   3  -4 1861.26   57.29
  -2   3  -4 1889.17   57.32
  -2   3  -4 2083.28   55.36
  -2   3  -4 1999.94   57.99
  -2   3  -4 1716.64   55.82
  -2   3  -4 1998.50   57.99
  -2   3  -4 2129.81   59.58
  -2   3  -4 2006.53   58.15
  -2   3  -3  774.02   25.23
  -2   3  -3  800.49   26.80
  -2   3  -3  765.38   25.21
  -2   3  -3  776.97   25.15
  -2   3  -3  872.77   24.10
  -2   3  -3  766.80   25.12
  -2   3  -3  750.56   23.93
  -2   3  -3  766.39   25.25
  -2   3  -2  324.07   11.02
  -2   3  -2  303.33   11.51
  -2   3  -2  307.78   12.27
  -2   3  -2  295.83   11.06
  -2   3  -2  321.76   12.62
  -2   3  -2  285.27   11.39
  -2   3  -2  292.75   11.05
  -2   3  -2  312.07   10.58
  -2   3  -2  296.63   11.20
  -2   3  -1 1268.38   37.48
  -2   3  -1 1211.40   35.57
  -2   3  -1 1196.17   35.55
  -2   3  -1 1190.58   35.64
  -2   3  -1 1312.03   35.61
  -2   3  -1 1200.60   36.14
  -2   3  -1 1213.61   36.17
  -2   3  -1 1181.04   35.54
  -2   3   0 1976.53   57.79
  -2   3   0 1927.69   56.11
  -2   3   0 2032.29   55.91
  -2   3   0 2033.34   55.91
  -2   3   0 1947.97   56.12
  -2   3   0 1952.66   57.03
  -2   3   0 1963.69   55.85
  -2   3   1  571.75   18.21
  -2   3   1  669.95   20.64
  -2   3   1  622.66   20.45
  -2   3   1  569.56   18.21
  -2   3   1  625.98   19.87
  -2   3   2  506.67   17.39
  -2   3   2  541.31   16.42
  -2   3   2  518.65   16.35
  -2   3   2  496.10   17.30
  -2   3   2  522.37   17.88
  -2   3   2  471.90   15.13
  -2   3   2  470.36   15.12
  -2   3   3 2452.25   65.78
  -2   3   3 2308.93   66.60
  -2   3   3 2383.68   66.85
  -2   3   3 2187.61   62.93
  -2   3   3 2496.96   66.92
  -2   3   3 2302.41   65.36
  -2   3   3 2626.10   68.54
  -2   3   3 2449.50   65.77
  -2   3   3 2203.81   62.95
  -2   3   4 4319.84  118.60
  -2   3   4 4062.52  117.23
  -2   3   4 4174.54  118.91
  -2   3   4 4238.02  118.98
  -2   3   4 4295.98  119.03
  -2   3   4 4272.33  118.45
  -2   3   5  661.24   23.63
  -2   3   5  695.42   23.68
  -2   3   5  672.17   23.42
  -2   3   6  877.01   29.85
  -2   3   6  899.27   29.48
  -2   3   6  843.03   29.27
  -2   3   7 1580.19   50.69
  -2   3   7 1704.53   50.58
  -2   3   7 1572.67   50.11
  -2   3   8 1473.39   47.05
  -2   3   8 1413.36   45.88
  -2   3   9    1.37    2.71
  -2   3   9    1.07    3.21
  -2   3  10  465.53   19.54
  -2   3  10  452.73   20.62
  -2   3  11  532.28   23.77
  -2   3  12  115.49   10.36
  -2   3  13   87.33    9.29
  -2   3  14  251.82   16.45
  -2   4 -15  161.88   14.92
  -2   4 -14   36.74    7.93
  -2   4 -13    9.82    5.08
  -2   4 -12  541.11   26.76
  -2   4 -11  534.71   25.90
  -2   4 -10  397.16   17.58
  -2   4 -10  396.18   20.51
  -2   4 -10  378.67   17.34
  -2   4  -9  138.67    9.10
  -2   4  -9  144.11    9.22
  -2   4  -9  132.16   10.82
  -2   4  -8 1177.03   41.84
  -2   4  -8 1176.52   38.97
  -2   4  -8 1214.68   39.19
  -2   4  -7 2898.38   85.63
  -2   4  -7 2782.85   83.11
  -2   4  -7 2836.12   83.25
  -2   4  -6  977.72   32.03
  -2   4  -6  971.01   33.36
  -2   4  -6  948.89   31.92
  -2   4  -5 1263.01   38.33
  -2   4  -5 1162.37   35.39
  -2   4  -5 1194.82   38.59
  -2   4  -5 1231.75   38.24
  -2   4  -4 3280.58   95.17
  -2   4  -4 3500.67   94.04
  -2   4  -4 3304.81   94.94
  -2   4  -4 3293.54   94.78
  -2   4  -4 3346.90   92.07
  -2   4  -4 3220.34   95.10
  -2   4  -4 3321.85   94.81
  -2   4  -3 1904.33   56.42
  -2   4  -3 2021.10   58.75
  -2   4  -3 1860.94   56.34
  -2   4  -3 1883.18   57.54
  -2   4  -3 1943.63   59.09
  -2   4  -3 2100.93   56.84
  -2   4  -3 2019.20   54.47
  -2   4  -3 1883.10   57.59
  -2   4  -3 1911.51   56.55
  -2   4  -2    3.72    1.19
  -2   4  -2    5.43    1.88
  -2   4  -2    5.63    1.24
  -2   4  -2    4.18    1.80
  -2   4  -2    2.26    1.14
  -2   4  -2    3.67    1.47
  -2   4  -2    4.58    1.34
  -2   4  -1 7056.37  198.43
  -2   4  -1 7063.99  198.46
  -2   4  -1 7091.69  200.08
  -2   4  -1 7846.78  199.15
  -2   4  -1 7122.62  196.78
  -2   4  -1 7212.03  196.76
  -2   4  -1 7226.97  196.75
  -2   4   0 2418.03   69.24
  -2   4   0 2429.74   69.69
  -2   4   0 2534.08   70.57
  -2   4   0 2490.13   71.50
  -2   4   0 2397.83   69.23
  -2   4   1   41.25    3.93
  -2   4   1   52.36    4.17
  -2   4   1   48.10    4.18
  -2   4   1   51.13    3.25
  -2   4   1   49.67    3.21
  -2   4   1   40.96    4.15
  -2   4   2 2472.10   68.97
  -2   4   2 2298.10   67.84
  -2   4   2 2380.03   65.60
  -2   4   2 2349.02   65.57
  -2   4   2 2238.02   65.14
  -2   4   2 2233.44   65.15
  -2   4   2 2330.09   68.01
  -2   4   3 3562.01   99.68
  -2   4   3 3342.97   98.52
  -2   4   3 3528.70   99.05
  -2   4   4 1950.58   57.66
  -2   4   4 1921.34   57.97
  -2   4   4 1881.01   56.74
  -2   4   5    2.77    2.22
  -2   4   5   -0.38    2.31
  -2   4   6  829.73   29.23
  -2   4   6  840.90   29.35
  -2   4   7  756.26   27.11
  -2   4   7  701.13   26.80
  -2   4   8  557.06   22.36
  -2   4   8  525.35   22.11
  -2   4   9    0.57    3.32
  -2   4  10  141.57   10.67
  -2   4  11  116.87    9.96
  -2   4  12   81.59    8.65
  -2   4  13   10.06    4.60
  -2   5 -16   69.26   10.18
  -2   5 -15  261.55   19.08
  -2   5 -14  138.87   13.42
  -2   5 -13   34.14    7.18
  -2   5 -12  763.64   33.38
  -2   5 -11  799.16   30.10
  -2   5 -11  815.76   30.27
  -2   5 -11  780.96   33.62
  -2   5 -10  109.35    8.59
  -2   5 -10  114.80    8.83
  -2   5 -10  113.91   10.55
  -2   5  -9  334.24   16.08
  -2   5  -9  347.85   18.10
  -2   5  -9  360.79   16.49
  -2   5  -8  608.24   25.68
  -2   5  -8  650.64   24.48
  -2   5  -8  660.16   24.52
  -2   5  -7 1035.72   37.16
  -2   5  -7 1110.01   36.37
  -2   5  -7 1084.98   36.25
  -2   5  -6   76.13    6.33
  -2   5  -6   85.22    6.75
  -2   5  -5   80.43    6.31
  -2   5  -5   85.11    6.39
  -2   5  -5   75.97    5.94
  -2   5  -4   26.23    3.95
  -2   5  -4   30.20    3.35
  -2   5  -4   32.98    4.03
  -2   5  -4   28.38    3.34
  -2   5  -4   29.73    3.23
  -2   5  -4   37.72    3.67
  -2   5  -4   32.03    4.06
  -2   5  -3 1882.20   54.72
  -2   5  -3 1877.56   54.14
  -2   5  -3 1868.59   55.87
  -2   5  -3 1838.39   54.62
  -2   5  -3 1770.11   52.16
  -2   5  -3 1790.33   52.18
  -2   5  -3 1767.73   52.23
  -2   5  -2  198.89   10.39
  -2   5  -2  206.66    9.64
  -2   5  -2  185.94    9.41
  -2   5  -2  218.32    9.77
  -2   5  -2  191.95    7.42
  -2   5  -2  205.62    7.53
  -2   5  -2  200.40    7.46
  -2   5  -1  351.99   14.89
  -2   5  -1  328.69   13.35
  -2   5  -1  357.50   12.41
  -2   5  -1  367.42   14.12
  -2   5  -1  329.08   13.77
  -2   5  -1  358.52   13.66
  -2   5   0  981.16   32.29
  -2   5   0  944.74   30.05
  -2   5   0  933.05   30.00
  -2   5   0  980.96   31.86
  -2   5   0  940.94   30.04
  -2   5   0 1028.16   31.37
  -2   5   1  933.54   28.82
  -2   5   1  959.28   30.68
  -2   5   1  917.84   30.98
  -2   5   1 1010.89   30.78
  -2   5   1  883.34   28.66
  -2   5   1  947.88   31.52
  -2   5   2  215.58    8.69
  -2   5   2  228.31   11.08
  -2   5   2  225.87   11.32
  -2   5   2  229.25    8.82
  -2   5   2  225.81   10.71
  -2   5   3 1473.23   46.75
  -2   5   3 1397.02   45.86
  -2   5   3 1558.41   46.11
  -2   5   4  870.47   30.62
  -2   5   4  913.43   30.90
  -2   5   4  956.92   31.88
  -2   5   5 1128.87   37.66
  -2   5   5 1156.27   38.43
  -2   5   6  125.82    8.80
  -2   5   6  131.12    9.17
  -2   5   7  604.55   24.15
  -2   5   7  589.95   23.67
  -2   5   8 1645.73   54.51
  -2   5   8 1741.21   55.51
  -2   5   9   20.92    4.84
  -2   5  10  256.25   14.97
  -2   5  11  722.42   29.74
  -2   5  12  205.57   14.24
  -2   5  13   -7.09    5.27
  -2   6 -16   22.81    6.70
  -2   6 -15   38.10    7.87
  -2   6 -14  264.71   18.51
  -2   6 -13    4.80    4.40
  -2   6 -12   32.53    5.44
  -2   6 -12   25.73    6.10
  -2   6 -12   23.38    5.08
  -2   6 -11  560.10   23.60
  -2   6 -11  522.27   25.47
  -2   6 -11  542.32   23.34
  -2   6 -10  317.05   16.11
  -2   6 -10  340.58   16.47
  -2   6 -10  297.70   17.52
  -2   6  -9   16.95    4.67
  -2   6  -9   20.33    4.18
  -2   6  -9   28.93    5.02
  -2   6  -8  694.12   26.62
  -2   6  -8  648.08   26.81
  -2   6  -8  728.33   26.95
  -2   6  -7 1083.51   36.53
  -2   6  -7 1085.64   36.57
  -2   6  -7  990.60   35.93
  -2   6  -6  346.92   15.73
  -2   6  -6  314.91   14.48
  -2   6  -6  357.95   15.92
  -2   6  -5  449.44   18.62
  -2   6  -5  450.00   18.37
  -2   6  -5  439.24   18.26
  -2   6  -5  414.70   16.48
  -2   6  -4  235.10   12.13
  -2   6  -4  239.16   11.83
  -2   6  -4  207.53    9.38
  -2   6  -4  224.74    9.47
  -2   6  -4  231.38    9.54
  -2   6  -4  262.99   12.14
  -2   6  -3 5488.15  151.83
  -2   6  -3 5267.21  150.69
  -2   6  -3 5280.56  150.71
  -2   6  -2  378.52   16.69
  -2   6  -2  394.02   15.89
  -2   6  -2  386.66   15.82
  -2   6  -1    8.94    2.67
  -2   6  -1   15.80    3.48
  -2   6  -1   25.19    3.33
  -2   6  -1   22.99    3.36
  -2   6  -1   14.16    2.93
  -2   6   0 2644.78   77.06
  -2   6   0 2608.65   77.10
  -2   6   0 2474.31   74.60
  -2   6   0 2660.59   75.85
  -2   6   0 2535.55   74.74
  -2   6   1 1621.02   48.74
  -2   6   1 1605.24   51.44
  -2   6   1 1666.95   51.62
  -2   6   1 1600.58   48.71
  -2   6   1 1679.29   50.60
  -2   6   2    2.74    2.89
  -2   6   2    3.16    2.44
  -2   6   2    0.93    2.71
  -2   6   3  586.08   22.97
  -2   6   3  583.97   22.03
  -2   6   3  577.40   22.70
  -2   6   4  604.48   23.73
  -2   6   4  583.13   22.58
  -2   6   5  225.43   12.86
  -2   6   5  216.81   11.89
  -2   6   6   21.31    4.30
  -2   6   6   21.99    4.86
  -2   6   7   65.07    7.37
  -2   6   7   73.35    7.27
  -2   6   8  545.65   23.84
  -2   6   8  516.12   22.66
  -2   6   9   37.95    5.91
  -2   6  10    4.05    3.36
  -2   6  11  171.13   12.61
  -2   6  12  455.31   22.93
  -2   7 -16    3.34    4.74
  -2   7 -15  244.23   18.22
  -2   7 -14  589.99   29.35
  -2   7 -13   36.43    6.97
  -2   7 -13   47.89    6.89
  -2   7 -13   37.72    6.12
  -2   7 -12    6.62    3.36
  -2   7 -12    6.90    4.38
  -2   7 -12    8.62    3.61
  -2   7 -11  695.65   30.53
  -2   7 -11  762.98   29.73
  -2   7 -11  731.15   29.35
  -2   7 -10  417.50   19.72
  -2   7 -10  382.30   19.90
  -2   7 -10  402.55   19.30
  -2   7  -9  167.55   11.31
  -2   7  -9  147.82   10.95
  -2   7  -9  171.13   11.46
  -2   7  -8  491.90   20.99
  -2   7  -8  513.93   21.30
  -2   7  -7  437.49   19.71
  -2   7  -7  457.80   20.02
  -2   7  -6  245.27   13.18
  -2   7  -6  239.32   13.04
  -2   7  -6  224.68   12.73
  -2   7  -5   48.12    5.77
  -2   7  -5   58.81    6.27
  -2   7  -5   40.75    5.26
  -2   7  -4  836.00   30.53
  -2   7  -4  799.19   30.31
  -2   7  -3  589.10   22.92
  -2   7  -3  559.39   22.05
  -2   7  -3  553.31   22.09
  -2   7  -2  395.91   17.33
  -2   7  -2  382.39   17.13
  -2   7  -2  368.69   16.29
  -2   7  -2  357.22   16.03
  -2   7  -1  342.30   15.08
  -2   7  -1  363.63   16.43
  -2   7  -1  370.47   16.81
  -2   7  -1  322.63   14.96
  -2   7  -1  362.51   15.35
  -2   7   0  332.91   15.63
  -2   7   0  306.91   15.34
  -2   7   0  303.54   13.84
  -2   7   0  341.03   14.77
  -2   7   0  325.84   14.17
  -2   7   1 1639.41   51.25
  -2   7   1 1598.51   52.33
  -2   7   1 1645.54   52.74
  -2   7   2  748.69   26.78
  -2   7   2  708.31   27.43
  -2   7   2  713.02   27.63
  -2   7   3  129.76    9.42
  -2   7   3  110.05    9.11
  -2   7   3  126.99    8.78
  -2   7   4  424.90   19.67
  -2   7   4  442.76   18.99
  -2   7   5  528.57   22.90
  -2   7   5  516.83   21.62
  -2   7   6  114.92    9.22
  -2   7   6  124.69   10.10
  -2   7   7  107.49    9.10
  -2   7   7  135.81   10.81
  -2   7   8  196.78   13.61
  -2   7   8  183.01   12.36
  -2   7   9   71.76    7.86
  -2   7  10    0.71    3.71
  -2   7  11   99.51    9.74
  -2   8 -16    9.71    5.27
  -2   8 -15  147.55   13.85
  -2   8 -13   66.16    7.87
  -2   8 -13   67.75    8.08
  -2   8 -12   15.03    5.09
  -2   8 -12    2.87    3.96
  -2   8 -11  160.25   12.16
  -2   8 -11  182.11   12.75
  -2   8 -10  704.23   29.09
  -2   8 -10  703.77   28.97
  -2   8  -9  133.94   10.54
  -2   8  -9  130.26   10.42
  -2   8  -8   22.63    4.94
  -2   8  -8   41.65    5.96
  -2   8  -7 1362.00   44.67
  -2   8  -7 1284.84   44.65
  -2   8  -7 1244.36   44.36
  -2   8  -6 1184.04   39.56
  -2   8  -6 1099.58   39.26
  -2   8  -6 1070.16   39.09
  -2   8  -5   21.85    4.38
  -2   8  -5   19.63    4.55
  -2   8  -5   23.67    5.01
  -2   8  -4 2451.67   72.04
  -2   8  -4 2259.07   71.25
  -2   8  -4 2219.82   71.04
  -2   8  -3 2337.56   72.33
  -2   8  -3 2249.66   72.06
  -2   8  -2  660.11   25.92
  -2   8  -2  723.74   27.35
  -2   8  -2  669.71   26.04
  -2   8  -2  701.02   27.40
  -2   8  -1  143.71   10.04
  -2   8  -1  124.71    9.81
  -2   8  -1  122.97    8.61
  -2   8  -1  124.71    8.65
  -2   8  -1  136.18    9.10
  -2   8   0 2429.67   77.41
  -2   8   0 2552.88   76.07
  -2   8   0 2580.70   78.29
  -2   8   1 1495.01   50.43
  -2   8   1 1534.33   51.02
  -2   8   1 1522.64   49.04
  -2   8   2  190.59   12.34
  -2   8   2  197.07   12.43
  -2   8   2  185.32   11.33
  -2   8   3  121.52    9.75
  -2   8   3  109.38    9.38
  -2   8   3  114.50    8.81
  -2   8   4  967.95   35.70
  -2   8   4 1055.23   37.63
  -2   8   5  506.36   22.79
  -2   8   5  454.99   20.91
  -2   8   6   67.50    7.88
  -2   8   6   68.28    7.32
  -2   8   7  151.55   12.23
  -2   8   7  152.84   11.11
  -2   8   8  205.03   14.41
  -2   8   8  173.89   12.40
  -2   8   9  149.71   11.50
  -2   8  10   34.21    6.34
  -2   9 -14  755.32   31.69
  -2   9 -14  691.94   30.86
  -2   9 -13   48.07    7.39
  -2   9 -13   55.22    7.78
  -2   9 -12   45.69    7.18
  -2   9 -12   54.31    7.39
  -2   9 -11  752.32   31.54
  -2   9 -11  758.06   31.65
  -2   9 -10  292.29   17.20
  -2   9 -10  302.20   17.32
  -2   9  -9    1.42    3.33
  -2   9  -9    7.14    3.82
  -2   9  -8  153.44   10.93
  -2   9  -8  150.47   11.46
  -2   9  -8  124.75   10.72
  -2   9  -7  361.62   17.79
  -2   9  -7  367.63   18.48
  -2   9  -7  323.20   17.65
  -2   9  -6  268.92   14.72
  -2   9  -6  224.27   14.06
  -2   9  -6  260.44   14.92
  -2   9  -5    6.88    3.34
  -2   9  -5   -0.61    2.68
  -2   9  -5    4.40    3.42
  -2   9  -4   59.32    7.02
  -2   9  -4   68.82    7.33
  -2   9  -4   55.27    6.72
  -2   9  -3  493.70   21.58
  -2   9  -3  448.61   20.75
  -2   9  -3  512.14   22.25
  -2   9  -3  455.00   20.87
  -2   9  -2  219.05   13.18
  -2   9  -2  228.47   13.84
  -2   9  -2  204.58   12.54
  -2   9  -2  204.86   12.50
  -2   9  -1   36.65    5.96
  -2   9  -1   32.06    5.49
  -2   9   0  215.85   13.37
  -2   9   0  223.77   13.94
  -2   9   0  213.10   12.26
  -2   9   1  360.06   18.31
  -2   9   1  346.45   18.44
  -2   9   1  385.40   17.53
  -2   9   2  279.61   16.06
  -2   9   2  318.96   17.01
  -2   9   2  275.14   14.92
  -2   9   3   -0.59    3.20
  -2   9   3    0.70    3.41
  -2   9   4  322.89   17.62
  -2   9   4  291.90   16.08
  -2   9   5  641.93   28.21
  -2   9   5  643.44   26.81
  -2   9   6  139.99   11.83
  -2   9   6  138.92   10.88
  -2   9   7   31.69    6.48
  -2   9   7   37.26    6.13
  -2   9   8  414.81   21.07
  -2   9   8  417.21   22.68
  -2  10 -14  140.87   12.36
  -2  10 -14  149.53   12.59
  -2  10 -13  281.19   17.81
  -2  10 -13  289.37   18.03
  -2  10 -12  109.62   10.78
  -2  10 -12  116.56   10.99
  -2  10 -11  329.80   18.84
  -2  10 -11  315.33   18.52
  -2  10 -10  493.86   23.70
  -2  10 -10  452.47   23.10
  -2  10  -9  594.93   25.77
  -2  10  -9  592.90   26.92
  -2  10  -9  582.97   26.74
  -2  10  -8    7.49    3.88
  -2  10  -8   15.48    4.22
  -2  10  -8   12.04    4.59
  -2  10  -7  688.08   28.12
  -2  10  -7  690.12   28.94
  -2  10  -7  650.41   28.43
  -2  10  -6 1129.48   39.76
  -2  10  -6 1018.18   39.52
  -2  10  -6 1081.67   40.11
  -2  10  -5  364.41   18.31
  -2  10  -5  345.86   18.32
  -2  10  -5  341.03   18.48
  -2  10  -4  130.90   10.51
  -2  10  -4  132.69   10.55
  -2  10  -4  126.87   10.30
  -2  10  -3  926.87   34.60
  -2  10  -3  813.50   33.10
  -2  10  -3  984.26   35.83
  -2  10  -3  866.58   33.68
  -2  10  -2  559.63   25.13
  -2  10  -2  606.19   26.17
  -2  10  -1    9.71    3.90
  -2  10  -1   14.04    4.46
  -2  10   0  547.28   25.11
  -2  10   0  538.56   23.53
  -2  10   1  317.28   17.58
  -2  10   1  315.95   16.40
  -2  10   1  294.63   17.57
  -2  10   2   94.52    9.64
  -2  10   2   96.23    9.40
  -2  10   2   86.50    8.53
  -2  10   3  152.66   12.24
  -2  10   3  175.98   12.03
  -2  10   4   97.41    9.90
  -2  10   4   91.61    8.77
  -2  10   5  272.87   17.10
  -2  10   5  272.49   16.10
  -2  10   6   10.36    4.54
  -2  10   7    2.69    4.55
  -2  10   8   40.97    7.29
  -2  11 -15   82.62    9.74
  -2  11 -15   90.86   10.14
  -2  11 -14  287.20   18.41
  -2  11 -14  296.67   18.85
  -2  11 -13  253.15   17.11
  -2  11 -13  265.52   17.50
  -2  11 -12   16.71    5.32
  -2  11 -12   24.70    6.05
  -2  11 -11  391.17   21.58
  -2  11 -11  400.81   21.65
  -2  11 -10  481.30   24.57
  -2  11 -10  525.43   25.35
  -2  11  -9  313.60   17.39
  -2  11  -9  313.79   18.43
  -2  11  -9  289.68   17.89
  -2  11  -8   12.16    3.95
  -2  11  -8    3.22    3.78
  -2  11  -8    8.03    4.22
  -2  11  -7  289.30   16.73
  -2  11  -7  302.77   17.72
  -2  11  -7  308.97   17.94
  -2  11  -6  655.55   28.79
  -2  11  -6  684.21   28.52
  -2  11  -6  656.85   28.86
  -2  11  -5  254.18   15.58
  -2  11  -5  263.99   15.90
  -2  11  -5  221.98   14.52
  -2  11  -4   64.75    8.22
  -2  11  -4   57.33    7.65
  -2  11  -4   79.80    8.41
  -2  11  -4   71.63    8.19
  -2  11  -3  130.15   10.98
  -2  11  -3  116.48   10.30
  -2  11  -3  147.52   12.17
  -2  11  -3  145.38   11.35
  -2  11  -2  395.00   20.40
  -2  11  -2  389.95   20.79
  -2  11  -1  544.99   25.50
  -2  11  -1  586.40   26.59
  -2  11   0    8.22    4.47
  -2  11   0    0.77    4.59
  -2  11   1  335.58   19.14
  -2  11   1  304.63   18.20
  -2  11   1  330.08   17.31
  -2  11   2  365.68   19.90
  -2  11   2  319.53   17.53
  -2  11   3  178.75   13.81
  -2  11   4  165.49   13.28
  -2  11   5  373.75   21.43
  -2  11   6  200.54   15.46
  -2  12 -14   27.43    6.43
  -2  12 -14   19.90    5.66
  -2  12 -13  269.59   18.16
  -2  12 -13  282.62   18.57
  -2  12 -12  203.24   15.58
  -2  12 -12  218.82   15.92
  -2  12 -11    3.62    4.42
  -2  12 -11    0.91    3.97
  -2  12 -10  287.03   18.48
  -2  12 -10  331.04   19.52
  -2  12  -9  884.92   36.69
  -2  12  -9  897.17   36.97
  -2  12  -8  213.04   15.33
  -2  12  -8  217.95   14.66
  -2  12  -8  226.02   15.62
  -2  12  -7  250.39   16.15
  -2  12  -7  276.93   17.11
  -2  12  -7  243.97   16.29
  -2  12  -6 1245.10   44.44
  -2  12  -6 1181.19   44.60
  -2  12  -6 1143.67   44.33
  -2  12  -5  748.47   31.56
  -2  12  -5  760.91   32.09
  -2  12  -5  763.85   32.09
  -2  12  -4   -3.13    4.70
  -2  12  -4    2.53    4.19
  -2  12  -4    9.97    4.73
  -2  12  -4    6.18    4.52
  -2  12  -3  349.49   19.71
  -2  12  -3  379.00   20.82
  -2  12  -2  948.05   38.73
  -2  12  -2 1070.69   40.56
  -2  12  -1  174.95   13.57
  -2  12  -1  179.72   14.12
  -2  12   0    2.52    4.49
  -2  12   0    5.29    4.30
  -2  12   1  295.55   18.76
  -2  12   1  267.68   17.47
  -2  12   2  179.53   14.13
  -2  12   3  150.03   13.32
  -2  12   4   34.28    7.78
  -2  13 -13  316.27   20.20
  -2  13 -13  311.40   20.15
  -2  13 -12   70.73    9.37
  -2  13 -12   65.25    9.12
  -2  13 -11    3.77    4.21
  -2  13 -11    4.73    4.43
  -2  13 -10   95.42   10.79
  -2  13 -10   76.32   10.13
  -2  13  -9  256.30   17.45
  -2  13  -9  272.20   18.04
  -2  13  -8   83.35    9.08
  -2  13  -8   77.48    9.50
  -2  13  -8   66.23    8.97
  -2  13  -7    7.88    4.61
  -2  13  -7    9.58    4.50
  -2  13  -7    6.47    4.61
  -2  13  -6  180.57   13.74
  -2  13  -6  176.64   13.95
  -2  13  -6  181.80   14.19
  -2  13  -5  250.20   16.46
  -2  13  -5  274.14   17.05
  -2  13  -5  234.83   16.05
  -2  13  -4   64.43    8.60
  -2  13  -4   69.22    9.29
  -2  13  -3   59.57    8.22
  -2  13  -3   82.72    9.73
  -2  13  -2  445.85   23.54
  -2  13  -2  479.28   24.85
  -2  13  -1  266.29   17.76
  -2  13  -1  247.36   17.13
  -2  13   0    8.08    5.27
  -2  13   0   27.16    6.91
  -2  13   1  123.59   12.11
  -2  13   2  620.55   29.63
  -2  14 -11   61.28    9.27
  -2  14 -11   67.39    9.50
  -2  14 -10   81.44   10.11
  -2  14 -10  104.93   11.27
  -2  14  -9  220.23   16.41
  -2  14  -9  239.35   16.94
  -2  14  -8  276.80   18.15
  -2  14  -8  271.66   18.02
  -2  14  -7    7.25    4.33
  -2  14  -7    8.17    4.69
  -2  14  -7   -1.70    5.05
  -2  14  -6  123.34   11.47
  -2  14  -5  271.86   17.66
  -2  14  -4  117.99   11.61
  -2  14  -4  120.40   12.31
  -2  14  -3  112.63   11.45
  -2  14  -3  130.24   12.61
  -2  14  -2  264.23   18.06
  -2  14  -2  237.83   16.90
  -2  14  -1  127.23   12.49
  -2  14  -1   96.96   10.82
  -2  14   0   32.25    7.00
  -2  15  -9  103.94   11.04
  -2  15  -9   74.47    9.68
  -2  15  -8  138.51   12.76
  -2  15  -8  128.36   12.19
  -2  15  -6   12.63    4.75
  -2  15  -5   91.62   10.30
  -2  15  -4   77.08    9.52
  -1 -13   3   36.31    8.49
  -1 -13   4   35.29    8.29
  -1 -13   5   -2.27    5.87
  -1 -13   6   52.08    9.61
  -1 -13   7  107.88   12.84
  -1 -13   8    6.74    5.91
  -1 -13   9   52.44    9.47
  -1 -13  10   38.69    8.35
  -1 -13  11  184.36   16.03
  -1 -13  12   55.68    9.35
  -1 -12   2   43.51    9.08
  -1 -12   3  177.08   15.98
  -1 -12   4  502.84   27.60
  -1 -12   5  408.40   24.64
  -1 -12   6  217.15   17.35
  -1 -12   7  444.29   25.67
  -1 -12   8  608.17   30.79
  -1 -12   9   77.88   10.92
  -1 -12  10  337.47   21.84
  -1 -12  11  329.69   21.45
  -1 -12  12  168.64   14.93
  -1 -12  13    4.06    4.54
  -1 -12  14   78.10   10.23
  -1 -11   1   63.65    9.66
  -1 -11   2    5.14    5.67
  -1 -11   3   82.19   10.60
  -1 -11   4  242.12   17.95
  -1 -11   5   40.84    8.47
  -1 -11   6   40.77    8.57
  -1 -11   7  118.58   12.80
  -1 -11   8  423.08   24.18
  -1 -11   9  500.75   26.86
  -1 -11  10   28.06    7.16
  -1 -11  11  135.16   13.14
  -1 -11  12  745.99   34.23
  -1 -11  13  204.59   15.85
  -1 -11  14   37.35    8.26
  -1 -10   1 1326.36   50.59
  -1 -10   2  177.07   14.86
  -1 -10   3  181.43   14.87
  -1 -10   4 1264.07   48.67
  -1 -10   5  584.23   28.66
  -1 -10   6   52.33    8.72
  -1 -10   7  487.59   25.76
  -1 -10   8  752.38   33.78
  -1 -10   9  267.95   18.15
  -1 -10  10  101.75   11.27
  -1 -10  11  120.82   12.08
  -1 -10  12  420.96   23.34
  -1 -10  13   -0.91    4.43
  -1 -10  14   29.98    6.68
  -1  -9  -7  196.19   16.26
  -1  -9  -6  256.62   18.26
  -1  -9  -5    0.95    4.23
  -1  -9  -4  107.19   11.09
  -1  -9  -3  428.88   22.30
  -1  -9  -2  217.76   14.52
  -1  -9  -1  123.57   10.43
  -1  -9   0  249.45   17.00
  -1  -9   1 1321.85   49.19
  -1  -9   2   42.08    7.64
  -1  -9   3  190.32   14.91
  -1  -9   4 1026.88   41.01
  -1  -9   5 1078.36   42.35
  -1  -9   6  142.41   12.78
  -1  -9   7  141.78   12.78
  -1  -9   8  685.12   30.93
  -1  -9   9  792.54   34.00
  -1  -9  10   43.86    7.46
  -1  -9  11  105.88   11.08
  -1  -9  12  910.06   37.19
  -1  -9  13  171.03   13.66
  -1  -8  -8    4.43    4.96
  -1  -8  -7  154.30   14.48
  -1  -8  -6  128.60   12.59
  -1  -8  -5  170.17   13.88
  -1  -8  -4   12.53    4.48
  -1  -8  -3  146.68   11.92
  -1  -8  -2  385.95   19.66
  -1  -8  -1  217.72   14.94
  -1  -8  -1  208.23   13.34
  -1  -8   0    0.57    2.80
  -1  -8   0   -0.78    4.64
  -1  -8   1 1103.94   41.36
  -1  -8   1 1060.40   37.29
  -1  -8   2 1202.85   44.79
  -1  -8   3  131.17   11.69
  -1  -8   4  615.50   27.81
  -1  -8   5 2213.99   72.83
  -1  -8   6  738.58   31.42
  -1  -8   7   -1.60    4.81
  -1  -8   8  600.58   27.39
  -1  -8   9  466.71   23.17
  -1  -8  10  143.65   11.92
  -1  -8  10  138.15   11.01
  -1  -8  11   66.59    7.96
  -1  -8  11   59.16    8.04
  -1  -8  12   83.65    9.33
  -1  -8  12   82.15    9.18
  -1  -8  13  200.46   14.52
  -1  -8  13  216.47   14.89
  -1  -8  14    2.60    3.97
  -1  -8  15   11.88    5.58
  -1  -8  16  102.64   11.57
  -1  -8  17   40.82    8.20
  -1  -7  -9  156.04   14.92
  -1  -7  -8    1.09    4.74
  -1  -7  -7  444.06   24.88
  -1  -7  -6  486.58   25.46
  -1  -7  -5   68.01    8.84
  -1  -7  -4   94.68    9.80
  -1  -7  -3 1006.53   38.03
  -1  -7  -2   67.47    7.71
  -1  -7  -1   29.82    5.08
  -1  -7  -1   34.95    6.33
  -1  -7   0  199.98   13.32
  -1  -7   0  192.90   11.53
  -1  -7   1  652.01   25.02
  -1  -7   1  682.55   28.26
  -1  -7   2   78.79    8.53
  -1  -7   2   68.18    6.22
  -1  -7   3   38.15    4.30
  -1  -7   3   40.14    6.86
  -1  -7   4   48.76    7.55
  -1  -7   5  929.01   35.93
  -1  -7   6  556.26   22.31
  -1  -7   6  535.08   24.82
  -1  -7   7  317.83   15.60
  -1  -7   7  292.32   17.12
  -1  -7   8  502.92   23.29
  -1  -7   8  487.55   21.42
  -1  -7   9  971.29   36.39
  -1  -7   9  921.83   34.69
  -1  -7  10  669.39   28.21
  -1  -7  10  649.51   27.24
  -1  -7  11   71.93    8.40
  -1  -7  11   85.99    8.82
  -1  -7  12  781.99   32.76
  -1  -7  12  856.54   33.50
  -1  -7  13  797.04   31.65
  -1  -7  13  716.95   31.66
  -1  -7  14  401.78   22.11
  -1  -7  15   21.72    6.27
  -1  -7  16  395.28   22.75
  -1  -7  17  408.60   23.92
  -1  -6 -10   93.12   12.03
  -1  -6  -9   79.68   11.16
  -1  -6  -8   17.79    6.31
  -1  -6  -7   12.59    5.76
  -1  -6  -6  196.00   15.03
  -1  -6  -5  959.36   38.26
  -1  -6  -4   42.74    6.92
  -1  -6  -3  404.77   19.87
  -1  -6  -2 1463.67   48.15
  -1  -6  -2 1378.62   47.72
  -1  -6  -1 1528.63   50.01
  -1  -6  -1 1532.95   50.97
  -1  -6   0    2.35    2.71
  -1  -6   0    7.20    4.10
  -1  -6   1 2298.30   70.49
  -1  -6   1 2174.47   67.05
  -1  -6   2 1190.35   40.72
  -1  -6   2 1096.30   36.57
  -1  -6   3 1153.03   37.43
  -1  -6   3 1173.28   41.71
  -1  -6   3 1185.56   35.80
  -1  -6   3 1174.90   37.33
  -1  -6   4  312.87   13.89
  -1  -6   4  321.37   16.82
  -1  -6   4  307.81   12.96
  -1  -6   5  696.07   28.59
  -1  -6   5  729.25   24.30
  -1  -6   5  718.41   26.04
  -1  -6   6 1417.39   45.21
  -1  -6   6 1353.14   47.30
  -1  -6   7   52.31    7.26
  -1  -6   7   47.05    5.51
  -1  -6   8  497.06   22.23
  -1  -6   8  508.22   21.28
  -1  -6   9  826.95   31.11
  -1  -6   9  830.50   31.79
  -1  -6  10  171.51   11.66
  -1  -6  10  139.59   10.78
  -1  -6  11   52.13    6.76
  -1  -6  11   38.15    6.38
  -1  -6  12  831.51   31.28
  -1  -6  12  715.82   31.05
  -1  -6  13  110.00   10.71
  -1  -6  14  178.62   13.90
  -1  -6  15    3.55    4.16
  -1  -6  16  141.24   13.18
  -1  -6  17  140.38   13.56
  -1  -5 -11    6.13    5.74
  -1  -5 -10  313.22   21.55
  -1  -5  -9  215.59   17.33
  -1  -5  -8   81.96   10.46
  -1  -5  -7  176.33   14.20
  -1  -5  -6  521.11   25.37
  -1  -5  -5  573.98   26.05
  -1  -5  -4   70.34    7.92
  -1  -5  -3  430.69   18.39
  -1  -5  -3  393.28   19.21
  -1  -5  -2 1302.79   39.82
  -1  -5  -2 1325.91   44.26
  -1  -5  -2 1378.51   43.84
  -1  -5  -2 1307.38   39.89
  -1  -5  -2 1282.74   39.73
  -1  -5  -1 1417.91   47.78
  -1  -5  -1 1572.80   48.94
  -1  -5  -1 1506.37   44.40
  -1  -5  -1 1475.09   44.32
  -1  -5  -1 1514.25   44.46
  -1  -5   0  140.79    8.88
  -1  -5   0  163.68   10.36
  -1  -5   0  153.56    7.06
  -1  -5   0  153.84    7.08
  -1  -5   0  151.04    7.01
  -1  -5   1  676.81   25.82
  -1  -5   1  659.16   21.80
  -1  -5   1  633.39   23.21
  -1  -5   2  749.19   28.09
  -1  -5   2  752.93   24.40
  -1  -5   2  717.99   23.67
  -1  -5   2  718.19   25.02
  -1  -5   2  758.57   23.96
  -1  -5   3  988.14   29.78
  -1  -5   3  971.39   29.11
  -1  -5   3  916.14   34.09
  -1  -5   3  949.52   30.86
  -1  -5   3  952.91   29.61
  -1  -5   3  944.33   30.73
  -1  -5   4    5.07    1.91
  -1  -5   4    3.37    1.41
  -1  -5   4    2.05    1.70
  -1  -5   4    5.96    1.74
  -1  -5   4    4.28    3.50
  -1  -5   4    3.10    1.39
  -1  -5   5   88.43    6.74
  -1  -5   5   96.97    8.22
  -1  -5   5  109.06    6.52
  -1  -5   5   98.49    6.10
  -1  -5   5   96.20    5.85
  -1  -5   5   93.04    6.01
  -1  -5   6  698.05   22.52
  -1  -5   6  586.91   25.02
  -1  -5   6  663.55   22.03
  -1  -5   6  616.57   23.59
  -1  -5   7  143.13    9.82
  -1  -5   7  123.20    8.55
  -1  -5   8    0.52    2.75
  -1  -5   8    1.94    2.55
  -1  -5   9  617.31   24.24
  -1  -5   9  566.50   23.81
  -1  -5  10 1359.10   47.06
  -1  -5  10 1432.51   46.94
  -1  -5  11    4.57    3.35
  -1  -5  11    1.94    3.69
  -1  -5  12  140.93   10.42
  -1  -5  12  151.00   11.89
  -1  -5  13  780.40   32.40
  -1  -5  14  478.72   24.18
  -1  -5  15   -0.88    4.47
  -1  -5  16  235.29   17.02
  -1  -5  17  165.58   14.66
  -1  -4 -12  108.75   13.18
  -1  -4 -11   17.74    7.04
  -1  -4 -10  240.84   18.49
  -1  -4  -9  216.03   16.78
  -1  -4  -8  124.13   12.42
  -1  -4  -7   68.63    9.05
  -1  -4  -6 1239.55   43.98
  -1  -4  -6 1138.16   37.99
  -1  -4  -6 1154.30   38.10
  -1  -4  -6 1118.43   38.01
  -1  -4  -5  581.96   24.97
  -1  -4  -5  543.29   20.36
  -1  -4  -5  545.54   20.38
  -1  -4  -5  514.82   20.23
  -1  -4  -4  157.12   11.05
  -1  -4  -4  144.36    8.04
  -1  -4  -4  158.02    8.30
  -1  -4  -4  130.49    7.82
  -1  -4  -3  302.30   12.31
  -1  -4  -3  289.65   12.29
  -1  -4  -3  317.89   13.98
  -1  -4  -3  303.29   12.30
  -1  -4  -3  311.97   15.66
  -1  -4  -2 4390.14  126.34
  -1  -4  -2 4365.18  122.30
  -1  -4  -2 4468.92  125.08
  -1  -4  -2 4364.18  122.24
  -1  -4  -2 4325.42  122.19
  -1  -4  -1 2824.00   84.35
  -1  -4  -1 2825.72   80.97
  -1  -4  -1 2854.82   84.23
  -1  -4  -1 2843.41   81.00
  -1  -4  -1 2889.08   80.99
  -1  -4  -1 2883.09   80.99
  -1  -4  -1 2902.90   81.04
  -1  -4   0  358.38   12.04
  -1  -4   0  370.92   15.20
  -1  -4   0  379.24   13.68
  -1  -4   0  362.98   13.35
  -1  -4   0  381.28   13.50
  -1  -4   0  377.25   13.06
  -1  -4   0  380.21   16.08
  -1  -4   0  353.11   12.89
  -1  -4   0  378.27   13.07
  -1  -4   1 2518.30   69.86
  -1  -4   1 2461.21   70.10
  -1  -4   1 2367.44   73.26
  -1  -4   1 2453.19   69.51
  -1  -4   1 2421.79   70.03
  -1  -4   1 2407.19   71.44
  -1  -4   1 2469.74   68.25
  -1  -4   2 1544.77   91.12
  -1  -4   2 4970.00   94.02
  -1  -4   2 4822.72   96.21
  -1  -4   2 4583.62   99.79
  -1  -4   2 1563.59   91.14
  -1  -4   2 5064.44   94.58
  -1  -4   2 4756.90   94.57
  -1  -4   2 4992.64   92.71
  -1  -4   3 2448.01   67.84
  -1  -4   3 2369.96   69.12
  -1  -4   3 2336.73   68.29
  -1  -4   3 2428.41   69.28
  -1  -4   3 2561.33   69.11
  -1  -4   4  433.90   14.83
  -1  -4   4  379.92   14.59
  -1  -4   4  381.19   15.08
  -1  -4   4  402.91   13.47
  -1  -4   4  366.37   16.69
  -1  -4   4  400.12   15.16
  -1  -4   4  393.83   14.75
  -1  -4   4  418.52   14.83
  -1  -4   4  419.01   15.32
  -1  -4   5 4001.93  114.58
  -1  -4   5 4407.02  113.90
  -1  -4   5 4168.78  115.20
  -1  -4   5 3805.07  111.97
  -1  -4   5 3918.92  114.47
  -1  -4   5 4130.53  113.87
  -1  -4   5 4213.27  117.26
  -1  -4   6  795.82   27.94
  -1  -4   6  794.58   26.88
  -1  -4   6  848.55   25.37
  -1  -4   7   31.95    4.28
  -1  -4   7   16.45    3.81
  -1  -4   8  446.44   18.74
  -1  -4   8  456.25   18.90
  -1  -4   9 1385.18   44.64
  -1  -4   9 1341.51   45.10
  -1  -4  10  146.85    9.73
  -1  -4  10  132.84   10.23
  -1  -4  11   11.26    3.45
  -1  -4  11   21.87    4.78
  -1  -4  12   62.54    7.63
  -1  -4  13  256.91   16.08
  -1  -4  14   43.68    7.74
  -1  -4  15    0.87    3.90
  -1  -4  16   71.04    9.58
  -1  -4  17   30.60    7.44
  -1  -3 -13  269.66   20.88
  -1  -3 -12  387.65   24.75
  -1  -3 -11   15.75    7.13
  -1  -3 -10  135.11   13.51
  -1  -3  -9  548.19   27.41
  -1  -3  -9  552.10   23.33
  -1  -3  -9  521.68   23.06
  -1  -3  -9  549.52   23.50
  -1  -3  -8  848.91   35.47
  -1  -3  -8  812.34   30.71
  -1  -3  -8  854.26   31.08
  -1  -3  -8  830.55   31.01
  -1  -3  -7  408.33   18.29
  -1  -3  -7  424.42   21.82
  -1  -3  -7  427.51   18.33
  -1  -3  -7  410.83   18.11
  -1  -3  -6  561.72   24.68
  -1  -3  -6  525.75   20.59
  -1  -3  -6  501.41   20.35
  -1  -3  -6  518.65   20.65
  -1  -3  -5 1305.06   43.42
  -1  -3  -5 1222.49   38.84
  -1  -3  -5 1161.70   38.54
  -1  -3  -5 1208.72   38.91
  -1  -3  -4    0.96    1.97
  -1  -3  -4    7.78    3.26
  -1  -3  -4    4.11    2.03
  -1  -3  -4    3.46    2.06
  -1  -3  -4    1.89    1.94
  -1  -3  -3  283.80   14.19
  -1  -3  -3  290.61   10.80
  -1  -3  -3  272.25   11.52
  -1  -3  -3  291.24   12.14
  -1  -3  -3  260.87   10.52
  -1  -3  -3  293.11   11.58
  -1  -3  -3  276.21   10.40
  -1  -3  -3  276.82   11.43
  -1  -3  -2 1497.44   45.33
  -1  -3  -2 1570.52   48.89
  -1  -3  -2 1586.40   44.28
  -1  -3  -2 1620.55   47.08
  -1  -3  -2 1525.47   44.89
  -1  -3  -2 1546.37   44.92
  -1  -3  -2 1518.44   45.38
  -1  -3  -2 1496.45   45.46
  -1  -3  -1  151.07    8.47
  -1  -3  -1  148.46    6.94
  -1  -3  -1  148.64    5.85
  -1  -3  -1  159.25    6.76
  -1  -3  -1  150.42    6.76
  -1  -3  -1  156.38    6.75
  -1  -3  -1  144.65    6.70
  -1  -3  -1  144.09    6.70
  -1  -3   0  181.36    7.54
  -1  -3   0  183.21    7.45
  -1  -3   0  189.31    7.69
  -1  -3   0  179.69    6.38
  -1  -3   0  194.15    9.13
  -1  -3   0  186.45    7.62
  -1  -3   0  187.74    7.49
  -1  -3   0  178.19    9.26
  -1  -3   0  170.94    7.31
  -1  -3   1   24.13    2.39
  -1  -3   1   23.97    2.29
  -1  -3   1   23.95    2.36
  -1  -3   1   26.11    3.87
  -1  -3   1   25.47    3.04
  -1  -3   1   24.08    1.70
  -1  -3   2  994.09   31.10
  -1  -3   2  960.52   33.59
  -1  -3   2 1097.81   30.74
  -1  -3   2 1061.20   31.54
  -1  -3   2 1113.26   32.50
  -1  -3   3 2323.19   66.70
  -1  -3   3 2410.92   66.34
  -1  -3   3 2356.48   66.57
  -1  -3   3 2262.64   68.57
  -1  -3   3 2423.33   66.92
  -1  -3   3 2462.88   66.99
  -1  -3   3 2267.04   66.59
  -1  -3   3 2330.93   66.92
  -1  -3   3 2253.76   65.02
  -1  -3   4   97.79    5.64
  -1  -3   4   88.93    5.43
  -1  -3   4   86.48    3.96
  -1  -3   4   88.71    5.28
  -1  -3   4   93.01    4.86
  -1  -3   4   78.23    6.01
  -1  -3   4   95.64    5.46
  -1  -3   4   81.68    5.03
  -1  -3   4   92.81    5.35
  -1  -3   5  858.91   28.46
  -1  -3   5  873.08   28.51
  -1  -3   5  837.81   25.73
  -1  -3   5  833.95   28.81
  -1  -3   5  911.16   27.93
  -1  -3   5  853.55   27.83
  -1  -3   5  909.08   27.92
  -1  -3   5  900.30   26.63
  -1  -3   5  856.42   25.42
  -1  -3   6 1989.88   56.51
  -1  -3   6 1934.12   55.71
  -1  -3   6 1943.73   59.23
  -1  -3   6 2019.75   58.23
  -1  -3   6 2019.91   58.81
  -1  -3   6 1964.41   58.11
  -1  -3   7 3085.25   88.99
  -1  -3   7 3098.41   92.37
  -1  -3   7 3356.37   91.94
  -1  -3   7 3439.29   92.02
  -1  -3   7 3087.75   92.47
  -1  -3   8   54.32    5.31
  -1  -3   8   52.42    5.66
  -1  -3   9  742.39   26.18
  -1  -3   9  705.05   27.05
  -1  -3  10 1465.17   48.66
  -1  -3  10 1485.74   47.20
  -1  -3  11  866.02   33.13
  -1  -3  11  913.17   31.71
  -1  -3  12   37.33    6.35
  -1  -3  13  767.20   31.73
  -1  -3  14  292.17   17.80
  -1  -3  15   65.58    9.12
  -1  -3  16  102.63   11.21
  -1  -3  17  188.30   15.42
  -1  -2 -14    1.27    5.67
  -1  -2 -13  250.15   19.40
  -1  -2 -12   85.04    9.59
  -1  -2 -12  104.98   12.31
  -1  -2 -12   92.22    9.90
  -1  -2 -12  100.35   10.24
  -1  -2 -11   76.59    8.60
  -1  -2 -11   66.98    9.81
  -1  -2 -11   66.35    8.18
  -1  -2 -11   75.79    8.44
  -1  -2 -10   11.69    4.04
  -1  -2 -10   11.84    5.70
  -1  -2  -9  505.75   25.24
  -1  -2  -9  496.29   24.42
  -1  -2  -9  474.93   21.82
  -1  -2  -8  979.99   38.35
  -1  -2  -8  939.93   36.99
  -1  -2  -8  958.83   34.74
  -1  -2  -7  241.48   14.50
  -1  -2  -7  239.34   15.24
  -1  -2  -7  250.02   13.12
  -1  -2  -6   54.44    5.77
  -1  -2  -6   50.61    7.10
  -1  -2  -6   64.55    6.96
  -1  -2  -5 2272.41   68.81
  -1  -2  -5 2173.96   65.09
  -1  -2  -5 2170.11   65.06
  -1  -2  -5 2152.89   65.23
  -1  -2  -4 3090.70   89.52
  -1  -2  -4 3126.11   92.83
  -1  -2  -4 3194.62   88.25
  -1  -2  -4 3034.21   89.56
  -1  -2  -4 3179.90   87.96
  -1  -2  -4 3076.41   89.51
  -1  -2  -3   71.82    6.47
  -1  -2  -3   82.13    4.44
  -1  -2  -3   73.49    4.30
  -1  -2  -3   78.58    4.76
  -1  -2  -3   72.36    4.20
  -1  -2  -3   76.54    4.98
  -1  -2  -3   72.06    4.84
  -1  -2  -3   76.12    5.08
  -1  -2  -2  263.35    8.96
  -1  -2  -2  258.83    9.51
  -1  -2  -2  263.41    9.97
  -1  -2  -2  252.86    9.46
  -1  -2  -2  271.93   10.34
  -1  -2  -2  255.78   10.02
  -1  -2  -2  255.27   11.93
  -1  -2  -2  244.51    9.89
  -1  -2  -2  244.19   10.02
  -1  -2  -1 3356.16   91.62
  -1  -2  -1 3489.33   91.98
  -1  -2  -1 3231.89   92.81
  -1  -2  -1 3320.72   91.59
  -1  -2  -1 3235.24   91.91
  -1  -2  -1 3246.12   91.85
  -1  -2  -1 3279.34   91.89
  -1  -2  -1 3270.62   90.41
  -1  -2  -1 3233.65   93.94
  -1  -2   0  331.68   12.72
  -1  -2   0  335.51   11.42
  -1  -2   0  328.11   10.04
  -1  -2   0  332.30   11.45
  -1  -2   0  373.24   11.52
  -1  -2   0  329.04   12.70
  -1  -2   0  332.53   11.40
  -1  -2   0  350.37   11.58
  -1  -2   0  352.80   11.62
  -1  -2   1   13.92    2.09
  -1  -2   1   10.69    1.36
  -1  -2   1    9.55    2.37
  -1  -2   1   12.27    0.96
  -1  -2   1   12.31    1.23
  -1  -2   2 2629.36   72.04
  -1  -2   2 2531.28   72.18
  -1  -2   2 2583.52   72.27
  -1  -2   2 2598.00   73.34
  -1  -2   2 2573.04   71.95
  -1  -2   2 2644.00   70.65
  -1  -2   2 2493.66   71.17
  -1  -2   2 2542.72   72.23
  -1  -2   2 2485.32   72.61
  -1  -2   3 1217.41   36.44
  -1  -2   3 1186.47   36.34
  -1  -2   3 1264.09   37.04
  -1  -2   3 1281.49   35.91
  -1  -2   3 1141.73   33.92
  -1  -2   3 1300.71   35.12
  -1  -2   3 1260.54   35.87
  -1  -2   3 1252.69   35.46
  -1  -2   3 1194.73   36.15
  -1  -2   4  105.93    5.44
  -1  -2   4   96.16    3.92
  -1  -2   4  101.24    5.38
  -1  -2   4  117.81    4.12
  -1  -2   4  104.65    5.90
  -1  -2   4  105.04    5.37
  -1  -2   4  102.88    5.95
  -1  -2   4  109.78    4.64
  -1  -2   4  100.06    5.87
  -1  -2   5 1944.45   62.25
  -1  -2   5 1943.88   62.20
  -1  -2   5 2033.60   58.81
  -1  -2   5 2181.91   59.01
  -1  -2   5 2230.14   62.12
  -1  -2   5 2438.36   61.64
  -1  -2   5 2021.57   59.42
  -1  -2   5 2143.96   61.63
  -1  -2   5 2343.10   61.45
  -1  -2   6 2452.04   72.35
  -1  -2   6 2595.56   72.39
  -1  -2   6 2686.95   75.36
  -1  -2   6 2649.47   74.45
  -1  -2   6 2507.43   74.83
  -1  -2   6 2680.47   75.45
  -1  -2   6 2836.74   74.78
  -1  -2   7 2681.68   77.11
  -1  -2   7 2700.84   77.75
  -1  -2   7 2618.96   74.48
  -1  -2   8   76.80    5.98
  -1  -2   8  108.21    7.41
  -1  -2   9  687.77   24.62
  -1  -2   9  690.42   25.86
  -1  -2  10  915.94   30.96
  -1  -2  10  877.32   32.39
  -1  -2  11  577.21   24.36
  -1  -2  12    3.29    3.57
  -1  -2  13  151.27   12.16
  -1  -2  14  293.89   17.74
  -1  -2  15  176.72   14.11
  -1  -2  16    9.14    4.89
  -1  -1 -14    9.48    5.16
  -1  -1 -14   13.97    5.61
  -1  -1 -14    6.02    6.34
  -1  -1 -14   15.80    5.60
  -1  -1 -13  131.49   13.91
  -1  -1 -13  146.61   13.04
  -1  -1 -12  459.07   25.65
  -1  -1 -12  451.58   25.56
  -1  -1 -12  447.03   23.22
  -1  -1 -11  184.66   15.42
  -1  -1 -11  208.86   14.51
  -1  -1 -11  205.43   15.92
  -1  -1 -10   13.77    5.67
  -1  -1 -10   15.91    5.92
  -1  -1 -10    6.33    4.13
  -1  -1  -9 1511.44   54.82
  -1  -1  -9 1558.76   54.77
  -1  -1  -9 1580.92   52.44
  -1  -1  -8  866.89   31.97
  -1  -1  -8  826.19   34.05
  -1  -1  -8  865.11   33.98
  -1  -1  -7  961.74   35.74
  -1  -1  -7  921.53   34.96
  -1  -1  -7  941.14   33.31
  -1  -1  -6  695.30   27.66
  -1  -1  -6  690.61   26.91
  -1  -1  -6  692.07   25.44
  -1  -1  -5 2133.97   64.59
  -1  -1  -5 2060.43   65.17
  -1  -1  -5 2072.74   62.92
  -1  -1  -5 2076.44   59.55
  -1  -1  -5 2151.97   60.85
  -1  -1  -4 4593.22  132.11
  -1  -1  -4 4662.49  130.02
  -1  -1  -4 4779.05  126.43
  -1  -1  -4 4404.50  127.04
  -1  -1  -4 4657.19  128.15
  -1  -1  -4 4560.71  131.35
  -1  -1  -3  457.58   17.48
  -1  -1  -3  430.73   13.34
  -1  -1  -3  456.43   14.18
  -1  -1  -3  441.04   15.69
  -1  -1  -3  465.72   14.65
  -1  -1  -3  446.18   15.75
  -1  -1  -3  441.59   15.82
  -1  -1  -2  883.86   25.26
  -1  -1  -2  839.97   25.45
  -1  -1  -2  869.84   25.24
  -1  -1  -2  837.30   24.59
  -1  -1  -2  828.14   24.83
  -1  -1  -2  832.84   25.81
  -1  -1  -2  810.04   25.72
  -1  -1  -2  816.81   25.83
  -1  -1  -2  856.47   27.55
  -1  -1  -1 2705.05   78.11
  -1  -1  -1 2845.19   76.44
  -1  -1  -1 2749.50   76.70
  -1  -1  -1 2681.79   76.52
  -1  -1  -1 2642.44   75.24
  -1  -1  -1 2861.91   76.47
  -1  -1  -1 2743.76   76.69
  -1  -1  -1 2900.85   76.51
  -1  -1  -1 2714.64   76.72
  -1  -1   0 1729.97   48.75
  -1  -1   0 1687.29   48.14
  -1  -1   0 1859.85   48.96
  -1  -1   0 1649.98   49.58
  -1  -1   0 1721.63   48.74
  -1  -1   0 1717.80   48.74
  -1  -1   1  193.58    5.97
  -1  -1   1  195.25    7.08
  -1  -1   1  180.40    6.55
  -1  -1   1  186.30    7.42
  -1  -1   1  174.26    7.01
  -1  -1   1  180.01    6.55
  -1  -1   2 1203.82   23.58
  -1  -1   2 1385.33   22.85
  -1  -1   2 1128.04   21.73
  -1  -1   2 1425.33   22.95
  -1  -1   2 1125.03   23.84
  -1  -1   3 1725.17   52.83
  -1  -1   3 2015.50   52.25
  -1  -1   3 1686.12   52.09
  -1  -1   3 1822.33   51.03
  -1  -1   3 2061.12   52.30
  -1  -1   4 1505.79   43.64
  -1  -1   4 1501.19   43.65
  -1  -1   4 1611.69   46.09
  -1  -1   4 1755.99   45.35
  -1  -1   4 1580.21   45.71
  -1  -1   4 1581.32   46.51
  -1  -1   4 1800.11   45.40
  -1  -1   5  152.52    5.45
  -1  -1   5  164.93    7.55
  -1  -1   5  177.01    7.01
  -1  -1   5  159.86    7.53
  -1  -1   5  165.88    7.90
  -1  -1   5  158.80    5.94
  -1  -1   5  169.07    6.93
  -1  -1   6  946.32   28.05
  -1  -1   6 1020.19   30.15
  -1  -1   6 1013.35   31.61
  -1  -1   6 1023.53   31.87
  -1  -1   6 1005.87   31.07
  -1  -1   6 1081.77   30.30
  -1  -1   6  951.23   29.17
  -1  -1   7 4662.00  130.98
  -1  -1   7 4734.62  131.94
  -1  -1   7 4633.35  129.26
  -1  -1   8  515.42   17.78
  -1  -1   8  533.50   19.05
  -1  -1   8  490.59   19.83
  -1  -1   9   80.92    6.12
  -1  -1   9   92.27    7.45
  -1  -1  10 1283.91   40.71
  -1  -1  10 1245.94   42.60
  -1  -1  11 1457.65   48.92
  -1  -1  12   13.73    4.39
  -1  -1  13  152.49   11.83
  -1  -1  14  503.46   24.43
  -1  -1  15  282.08   17.78
  -1  -1  16   21.80    6.04
  -1   0 -15  151.08   14.16
  -1   0 -14   18.57    6.11
  -1   0 -14    1.18    5.74
  -1   0 -13   40.46    7.46
  -1   0 -13   31.17    7.33
  -1   0 -13   31.95    7.73
  -1   0 -12  280.33   19.09
  -1   0 -12  291.38   19.80
  -1   0 -12  293.85   18.13
  -1   0 -11  172.01   14.23
  -1   0 -11  200.57   15.28
  -1   0 -11  203.26   14.24
  -1   0 -10    9.29    4.88
  -1   0 -10    5.75    4.33
  -1   0 -10    5.13    4.65
  -1   0  -9  179.26   13.14
  -1   0  -9  209.35   14.23
  -1   0  -9  193.26   12.88
  -1   0  -8 1454.20   50.71
  -1   0  -8 1547.22   49.70
  -1   0  -8 1427.00   50.40
  -1   0  -7 1161.31   41.11
  -1   0  -7 1155.70   40.94
  -1   0  -7 1176.18   39.80
  -1   0  -6  505.24   20.52
  -1   0  -6  466.35   16.43
  -1   0  -6  492.19   20.37
  -1   0  -6  445.02   16.26
  -1   0  -6  496.65   19.43
  -1   0  -5  982.71   33.14
  -1   0  -5  934.74   29.42
  -1   0  -5  940.63   29.45
  -1   0  -5 1011.11   33.22
  -1   0  -5  982.69   30.20
  -1   0  -5  987.72   32.16
  -1   0  -4 6073.01  173.91
  -1   0  -4 5768.05  171.02
  -1   0  -4 6161.05  168.79
  -1   0  -4 6777.81  171.52
  -1   0  -4 6364.31  173.96
  -1   0  -4 6006.42  169.13
  -1   0  -4 6481.75  171.04
  -1   0  -4 6497.57  171.03
  -1   0  -4 6329.90  173.04
  -1   0  -3 5695.22  148.27
  -1   0  -3 5404.13  146.01
  -1   0  -3 5481.66  150.59
  -1   0  -3 5686.63  148.28
  -1   0  -3 5792.10  148.39
  -1   0  -3 5408.86  149.50
  -1   0  -2  484.83   15.98
  -1   0  -2  476.52   15.44
  -1   0  -2  494.83   15.44
  -1   0  -2  472.19   15.44
  -1   0  -2  500.15   16.07
  -1   0  -2  506.11   16.16
  -1   0  -2  529.99   17.21
  -1   0  -1 6489.71  178.44
  -1   0  -1 6364.43  178.95
  -1   0  -1 6406.91  178.95
  -1   0  -1 6711.22  178.80
  -1   0  -1 6324.97  179.01
  -1   0   0 7490.75  198.95
  -1   0   0 7446.41  198.58
  -1   0   0 7225.38  199.41
  -1   0   0 7245.92  199.42
  -1   0   0 7137.68  199.91
  -1   0   0 7248.94  199.44
  -1   0   1 2367.72   66.42
  -1   0   1 2453.58   67.04
  -1   0   1 2459.52   66.70
  -1   0   1 2555.45   66.74
  -1   0   1 2418.70   67.69
  -1   0   1 2285.05   67.71
  -1   0   2 3176.00   75.48
  -1   0   2 2610.66   74.48
  -1   0   2 2661.19   74.00
  -1   0   2 3195.93   75.51
  -1   0   2 2537.75   73.31
  -1   0   2 2584.55   73.32
  -1   0   3 7764.80  157.24
  -1   0   3 6337.16  153.55
  -1   0   3 6033.76  153.34
  -1   0   3 6438.12  155.03
  -1   0   3 6430.38  155.27
  -1   0   3 6054.69  153.35
  -1   0   3 7430.96  157.06
  -1   0   4 2111.37   54.22
  -1   0   4 2092.28   54.10
  -1   0   4 1761.21   50.31
  -1   0   4 1784.36   51.67
  -1   0   4 1707.73   51.65
  -1   0   4 1750.09   50.00
  -1   0   4 1771.00   50.02
  -1   0   4 1812.78   52.89
  -1   0   5    7.86    1.31
  -1   0   5    2.61    1.58
  -1   0   5    5.57    1.33
  -1   0   5    5.56    1.56
  -1   0   5    4.45    1.18
  -1   0   5    5.26    1.67
  -1   0   6 1239.10   36.64
  -1   0   6 1207.29   37.55
  -1   0   6 1266.65   38.39
  -1   0   7 1938.47   55.44
  -1   0   7 1878.53   56.14
  -1   0   7 1869.04   57.19
  -1   0   8   82.38    5.49
  -1   0   8   77.68    6.40
  -1   0   8   63.67    5.33
  -1   0   9   10.71    3.20
  -1   0   9   16.00    2.94
  -1   0  10  587.08   23.73
  -1   0  11  320.10   16.54
  -1   0  12   20.25    5.01
  -1   0  13   40.97    6.71
  -1   0  14  240.45   15.81
  -1   0  15  133.15   12.04
  -1   0  16   47.88    7.99
  -1   1 -15  238.31   18.82
  -1   1 -15  234.60   17.89
  -1   1 -14   32.10    7.03
  -1   1 -14   26.29    7.85
  -1   1 -13  160.74   14.82
  -1   1 -13  149.77   13.50
  -1   1 -12  447.53   24.76
  -1   1 -12  466.46   23.91
  -1   1 -11  409.50   22.22
  -1   1 -11  400.99   22.57
  -1   1 -10  171.60   12.77
  -1   1 -10  162.37   13.12
  -1   1 -10  139.91   11.73
  -1   1  -9  857.04   34.52
  -1   1  -9  853.04   33.68
  -1   1  -9  890.01   33.72
  -1   1  -9  898.09   33.84
  -1   1  -8 1133.47   39.81
  -1   1  -8 1129.44   40.02
  -1   1  -8 1105.45   35.13
  -1   1  -8 1156.51   40.76
  -1   1  -8 1120.10   35.21
  -1   1  -8 1145.90   39.76
  -1   1  -7   74.57    7.19
  -1   1  -7   82.34    7.25
  -1   1  -7   83.49    7.43
  -1   1  -7   79.57    5.29
  -1   1  -7   75.75    5.21
  -1   1  -7   85.91    7.76
  -1   1  -6  956.62   33.73
  -1   1  -6 1013.49   30.86
  -1   1  -6  979.23   33.68
  -1   1  -6 1003.24   33.96
  -1   1  -6  985.63   30.78
  -1   1  -6 1013.99   34.59
  -1   1  -5 1327.45   41.14
  -1   1  -5 1352.37   41.18
  -1   1  -5 1413.75   43.81
  -1   1  -5 1489.15   44.08
  -1   1  -5 1396.54   39.43
  -1   1  -5 1384.84   41.56
  -1   1  -5 1393.67   43.73
  -1   1  -5 1514.93   42.65
  -1   1  -5 1365.56   44.14
  -1   1  -4  212.82    8.12
  -1   1  -4  183.96    8.04
  -1   1  -4  201.79    8.68
  -1   1  -4  186.84    6.53
  -1   1  -4  183.16    9.13
  -1   1  -4  189.20    9.35
  -1   1  -4  216.42    8.20
  -1   1  -4  190.16    9.17
  -1   1  -3 2038.26   47.06
  -1   1  -3 2189.38   47.07
  -1   1  -3 1981.53   45.61
  -1   1  -3 2005.29   45.67
  -1   1  -3 2018.31   47.38
  -1   1  -3 2023.53   47.15
  -1   1  -2 1437.18   42.41
  -1   1  -2 1456.01   42.71
  -1   1  -2 1581.42   43.44
  -1   1  -2 1459.32   42.42
  -1   1  -2 1569.38   43.14
  -1   1  -1  465.41   14.14
  -1   1  -1  429.96   14.57
  -1   1  -1  483.26   14.27
  -1   1  -1  449.49   14.11
  -1   1  -1  479.63   14.26
  -1   1  -1  443.88   14.09
  -1   1  -1  479.22   14.32
  -1   1   0 2765.10   79.80
  -1   1   0 2999.74   79.47
  -1   1   0 3011.08   79.39
  -1   1   0 2903.10   79.53
  -1   1   0 3021.30   79.48
  -1   1   0 2856.80   79.71
  -1   1   0 2879.68   79.78
  -1   1   0 2916.40   79.53
  -1   1   0 2691.64   79.45
  -1   1   0 2897.80   79.53
  -1   1   1   82.20    3.62
  -1   1   1   90.36    3.13
  -1   1   1   79.26    3.72
  -1   1   1   78.48    3.57
  -1   1   1   86.72    3.67
  -1   1   1   79.47    3.61
  -1   1   1   91.37    3.14
  -1   1   2  545.14   15.09
  -1   1   2  528.13   14.95
  -1   1   2  428.34   13.78
  -1   1   2  457.96   15.20
  -1   1   2  447.26   14.22
  -1   1   2  406.90   13.11
  -1   1   2  430.96   14.12
  -1   1   3 4125.63   96.92
  -1   1   3 4110.33   96.86
  -1   1   3 3319.62   94.49
  -1   1   3 3349.49   95.18
  -1   1   3 3402.97   95.11
  -1   1   3 3149.36   93.52
  -1   1   4 3314.87   82.23
  -1   1   4 2794.67   79.92
  -1   1   4 2696.20   77.73
  -1   1   4 2700.73   79.51
  -1   1   4 2809.87   79.08
  -1   1   4 3186.72   81.94
  -1   1   5 1073.16   28.31
  -1   1   5 1029.73   26.44
  -1   1   5  968.76   25.03
  -1   1   5 1065.62   29.34
  -1   1   5  957.85   25.04
  -1   1   5 1029.14   28.61
  -1   1   5  972.99   25.48
  -1   1   5 1073.08   31.10
  -1   1   5 1144.39   31.49
  -1   1   5  985.33   25.48
  -1   1   6  320.27   11.87
  -1   1   6  287.69   12.45
  -1   1   6  281.11   11.77
  -1   1   6  297.56   10.14
  -1   1   7 1451.69   43.65
  -1   1   7 1427.14   44.74
  -1   1   7 1418.70   43.56
  -1   1   8  940.86   31.30
  -1   1   8  968.92   32.72
  -1   1   8  965.38   31.20
  -1   1   9  174.39    9.72
  -1   1   9  178.28    9.38
  -1   1   9  166.84   10.48
  -1   1  10  553.14   22.84
  -1   1  11 1075.02   38.60
  -1   1  12  204.64   13.32
  -1   1  13   69.72    8.17
  -1   1  14  470.93   23.50
  -1   1  15  367.15   20.85
  -1   2 -16  158.28   15.64
  -1   2 -16  171.16   15.71
  -1   2 -15  136.92   14.49
  -1   2 -15  157.33   14.46
  -1   2 -14   93.94   11.56
  -1   2 -14  100.03   11.52
  -1   2 -13    2.87    4.38
  -1   2 -13    1.03    4.72
  -1   2 -12  192.03   14.54
  -1   2 -12  206.03   14.97
  -1   2 -12  165.19   14.16
  -1   2 -11  798.44   33.45
  -1   2 -11  807.55   34.27
  -1   2 -11  807.50   33.54
  -1   2 -10  595.69   25.92
  -1   2 -10  595.44   26.60
  -1   2 -10  579.96   26.88
  -1   2 -10  618.48   26.86
  -1   2  -9   45.91    4.55
  -1   2  -9   47.67    6.44
  -1   2  -9   46.77    4.56
  -1   2  -9   51.94    6.94
  -1   2  -9   51.94    6.88
  -1   2  -9   43.57    6.80
  -1   2  -8  774.41   29.06
  -1   2  -8  698.03   27.52
  -1   2  -8  741.11   24.95
  -1   2  -8  741.88   24.93
  -1   2  -8  746.34   28.79
  -1   2  -8  723.66   28.85
  -1   2  -7 1192.61   39.79
  -1   2  -7 1222.52   40.93
  -1   2  -7 1197.35   37.38
  -1   2  -7 1180.01   40.95
  -1   2  -7 1213.18   37.43
  -1   2  -7 1275.57   41.33
  -1   2  -6 1336.11   40.25
  -1   2  -6 1302.91   40.15
  -1   2  -6 1347.45   43.27
  -1   2  -6 1374.07   43.37
  -1   2  -6 1330.65   43.10
  -1   2  -6 1320.86   41.89
  -1   2  -5  400.21   15.48
  -1   2  -5  392.59   14.59
  -1   2  -5  465.03   16.24
  -1   2  -5  434.62   15.03
  -1   2  -5  416.09   13.93
  -1   2  -5  402.58   16.27
  -1   2  -5  422.23   16.56
  -1   2  -5  387.24   14.57
  -1   2  -5  441.15   16.81
  -1   2  -4 1158.88   37.44
  -1   2  -4 1231.34   37.40
  -1   2  -4 1213.38   36.74
  -1   2  -4 1269.90   38.59
  -1   2  -4 1297.97   37.75
  -1   2  -4 1390.10   39.21
  -1   2  -4 1233.80   37.36
  -1   2  -4 1341.65   39.09
  -1   2  -4 1337.91   39.09
  -1   2  -3   18.61    2.43
  -1   2  -3   20.39    2.46
  -1   2  -3   18.55    2.47
  -1   2  -3   19.75    2.13
  -1   2  -3   20.73    2.02
  -1   2  -3   17.81    2.16
  -1   2  -3   15.43    1.93
  -1   2  -3   27.97    3.02
  -1   2  -3   17.83    2.10
  -1   2  -2  430.33   13.99
  -1   2  -2  410.22   13.59
  -1   2  -2  430.06   13.24
  -1   2  -2  392.73   12.33
  -1   2  -2  407.42   13.57
  -1   2  -2  399.27   14.53
  -1   2  -2  439.11   13.62
  -1   2  -1 2342.59   65.01
  -1   2  -1 2402.86   64.40
  -1   2  -1 2412.41   64.41
  -1   2  -1 2242.21   63.57
  -1   2  -1 2314.96   63.23
  -1   2  -1 2431.29   64.44
  -1   2  -1 2246.76   63.57
  -1   2  -1 2246.57   65.22
  -1   2  -1 2239.83   63.60
  -1   2   0 3134.49   88.63
  -1   2   0 3170.39   87.56
  -1   2   0 2930.05   87.75
  -1   2   0 3451.21   88.47
  -1   2   0 3151.50   87.56
  -1   2   0 3396.14   88.28
  -1   2   1  410.49   13.43
  -1   2   1  399.04   12.02
  -1   2   1  401.88   12.26
  -1   2   1  369.04   12.16
  -1   2   1  399.81   13.06
  -1   2   1  384.17   13.07
  -1   2   1  403.12   12.03
  -1   2   2   73.18    3.92
  -1   2   2   67.75    4.05
  -1   2   2   76.57    3.97
  -1   2   2   68.39    3.78
  -1   2   2   74.74    4.18
  -1   2   2   67.99    2.58
  -1   2   2   74.00    3.98
  -1   2   2   70.13    4.55
  -1   2   2   68.99    2.59
  -1   2   3 1119.00   31.74
  -1   2   3 1091.42   31.59
  -1   2   3 1032.11   30.74
  -1   2   3  962.06   30.75
  -1   2   3 1009.72   30.73
  -1   2   3 1041.72   32.19
  -1   2   3  949.31   29.92
  -1   2   4 4122.61  112.35
  -1   2   4 3897.07  111.02
  -1   2   4 4043.14  112.20
  -1   2   4 3931.51  110.62
  -1   2   4 4015.34  112.71
  -1   2   4 4028.60  110.82
  -1   2   4 3835.09  109.57
  -1   2   5    8.14    2.40
  -1   2   5    6.17    1.46
  -1   2   5    4.71    1.90
  -1   2   5    3.47    1.68
  -1   2   5    8.87    2.37
  -1   2   5    4.86    2.22
  -1   2   6    2.73    2.14
  -1   2   6    1.39    1.74
  -1   2   6    2.01    2.01
  -1   2   7  619.75   22.25
  -1   2   7  625.04   21.74
  -1   2   8   24.32    4.14
  -1   2   8   22.73    3.82
  -1   2   8   22.17    3.32
  -1   2   9  128.60    8.78
  -1   2   9  141.13    9.60
  -1   2  10   97.48    8.56
  -1   2  11   46.70    6.36
  -1   2  12   80.71    8.63
  -1   2  13    1.47    3.51
  -1   2  14   17.37    5.84
  -1   2  15  245.65   16.60
  -1   3 -16  155.44   14.86
  -1   3 -16  159.26   15.55
  -1   3 -15  340.53   22.68
  -1   3 -15  357.42   22.44
  -1   3 -14  163.82   14.88
  -1   3 -14  180.22   15.31
  -1   3 -13   35.53    7.35
  -1   3 -13   24.87    6.30
  -1   3 -13   22.54    6.53
  -1   3 -12  974.40   39.15
  -1   3 -12  878.19   38.27
  -1   3 -12 1018.06   39.54
  -1   3 -11  690.71   30.43
  -1   3 -11  713.44   30.56
  -1   3 -11  696.32   30.34
  -1   3 -10  551.67   25.04
  -1   3 -10  536.05   24.77
  -1   3 -10  547.95   24.96
  -1   3  -9   61.25    7.61
  -1   3  -9   58.57    5.26
  -1   3  -9   65.17    5.60
  -1   3  -9   59.35    7.40
  -1   3  -9   80.73    8.01
  -1   3  -8  668.02   23.02
  -1   3  -8  659.06   24.55
  -1   3  -8  656.66   26.01
  -1   3  -8  624.99   22.75
  -1   3  -8  656.13   26.46
  -1   3  -8  653.35   26.45
  -1   3  -7 1566.99   49.10
  -1   3  -7 1430.08   46.21
  -1   3  -7 1502.72   45.71
  -1   3  -7 1469.39   48.26
  -1   3  -7 1488.71   45.67
  -1   3  -7 1552.02   49.20
  -1   3  -6  201.71    9.47
  -1   3  -6  201.13    9.54
  -1   3  -6  208.50    9.39
  -1   3  -6  207.01    9.22
  -1   3  -6  210.10   11.17
  -1   3  -6  216.17   11.19
  -1   3  -6  195.01   10.46
  -1   3  -6  212.23    9.74
  -1   3  -5  506.80   18.05
  -1   3  -5  530.43   19.07
  -1   3  -5  629.71   20.88
  -1   3  -5  550.79   19.73
  -1   3  -5  560.10   18.98
  -1   3  -5  577.38   20.63
  -1   3  -5  564.73   19.26
  -1   3  -5  565.49   20.60
  -1   3  -4 2011.07   56.28
  -1   3  -4 1791.74   53.31
  -1   3  -4 1951.20   55.53
  -1   3  -4 1998.49   56.32
  -1   3  -4 1840.05   55.25
  -1   3  -4 1949.64   55.57
  -1   3  -4 1918.18   55.07
  -1   3  -3  220.26    9.21
  -1   3  -3  228.62    9.37
  -1   3  -3  234.39    9.14
  -1   3  -3  208.43    8.05
  -1   3  -3  221.49    9.26
  -1   3  -3  237.18    9.19
  -1   3  -3  243.04    9.62
  -1   3  -2 2865.04   83.79
  -1   3  -2 2969.18   83.53
  -1   3  -2 3092.01   83.67
  -1   3  -2 2976.98   83.54
  -1   3  -2 2954.99   82.19
  -1   3  -1 8268.66  231.87
  -1   3  -1 8564.68  231.30
  -1   3  -1 7535.33  229.58
  -1   3  -1 9273.69  231.78
  -1   3  -1 8673.56  229.11
  -1   3  -1 8144.57  231.69
  -1   3  -1 8618.62  229.10
  -1   3  -1 8506.84  231.28
  -1   3  -1 8611.21  229.12
  -1   3   0  217.95    9.00
  -1   3   0  231.38    8.38
  -1   3   0  206.70    8.90
  -1   3   0  224.01    8.31
  -1   3   0  202.10    8.35
  -1   3   0  221.13    8.30
  -1   3   1 2527.24   69.98
  -1   3   1 2334.26   67.45
  -1   3   1 2566.73   68.71
  -1   3   1 2471.81   69.91
  -1   3   1 2559.35   68.73
  -1   3   1 2399.75   67.47
  -1   3   1 2484.52   69.40
  -1   3   1 2488.79   69.96
  -1   3   2  474.40   16.22
  -1   3   2  507.98   17.26
  -1   3   2  491.71   17.06
  -1   3   2  534.30   17.60
  -1   3   2  524.30   15.87
  -1   3   2  552.81   18.39
  -1   3   2  497.38   16.30
  -1   3   2  510.08   15.86
  -1   3   3  553.95   17.90
  -1   3   3  531.51   18.77
  -1   3   3  465.15   15.18
  -1   3   3  507.66   17.13
  -1   3   3  519.18   17.49
  -1   3   3  505.26   17.30
  -1   3   3  515.89   17.32
  -1   3   3  474.73   15.22
  -1   3   4 2207.84   62.96
  -1   3   4 2221.52   63.76
  -1   3   4 2139.51   64.05
  -1   3   4 2096.66   63.94
  -1   3   4 2218.12   63.90
  -1   3   5 1448.83   46.03
  -1   3   5 1492.90   45.35
  -1   3   5 1461.80   44.06
  -1   3   5 1519.41   45.42
  -1   3   5 1444.24   45.98
  -1   3   6   77.00    6.14
  -1   3   6   85.36    6.28
  -1   3   7 1018.28   34.82
  -1   3   7 1072.62   35.06
  -1   3   8 1138.74   38.74
  -1   3   8 1179.33   39.03
  -1   3   9  650.17   25.18
  -1   3   9  621.58   24.76
  -1   3  10  274.61   15.00
  -1   3  11  379.36   18.79
  -1   3  12  373.24   19.41
  -1   3  13   52.86    7.61
  -1   3  14  152.37   12.93
  -1   4 -16   80.31   11.01
  -1   4 -15  226.80   17.51
  -1   4 -15  229.27   17.68
  -1   4 -14  143.69   13.60
  -1   4 -14  151.97   14.21
  -1   4 -14  154.38   13.94
  -1   4 -13   22.01    6.57
  -1   4 -13   26.80    6.72
  -1   4 -13   20.07    6.07
  -1   4 -12  442.50   23.40
  -1   4 -12  444.35   23.49
  -1   4 -12  468.39   23.50
  -1   4 -11  349.11   19.70
  -1   4 -11  361.08   19.34
  -1   4 -11  350.94   19.74
  -1   4 -10  970.76   32.86
  -1   4 -10  908.99   35.81
  -1   4 -10  945.62   36.89
  -1   4 -10  998.15   33.02
  -1   4 -10  935.14   36.86
  -1   4  -9    0.66    3.56
  -1   4  -9    1.61    2.15
  -1   4  -9    9.21    4.16
  -1   4  -9    2.98    3.18
  -1   4  -9    2.41    2.18
  -1   4  -8  270.73   14.84
  -1   4  -8  272.64   12.83
  -1   4  -8  271.97   14.88
  -1   4  -8  272.90   14.18
  -1   4  -8  295.22   13.22
  -1   4  -7 3797.09  107.01
  -1   4  -7 3770.39  109.27
  -1   4  -7 3738.97  109.18
  -1   4  -7 3468.40  107.50
  -1   4  -7 3857.12  107.10
  -1   4  -6  972.87   31.16
  -1   4  -6 1086.88   33.80
  -1   4  -6 1046.68   34.89
  -1   4  -6 1108.70   33.76
  -1   4  -6 1067.69   34.93
  -1   4  -6  980.24   33.26
  -1   4  -6 1056.84   33.69
  -1   4  -5   20.81    3.32
  -1   4  -5    8.14    2.36
  -1   4  -5   15.47    2.81
  -1   4  -5    6.18    1.25
  -1   4  -5    7.47    2.16
  -1   4  -5   14.11    2.81
  -1   4  -5    8.18    2.39
  -1   4  -4 3058.31   84.64
  -1   4  -4 2947.60   84.52
  -1   4  -4 2946.38   84.70
  -1   4  -4 2769.47   82.07
  -1   4  -4 3000.06   84.62
  -1   4  -4 3001.39   84.00
  -1   4  -4 3024.89   84.02
  -1   4  -3 7813.65  162.15
  -1   4  -3 7996.80  162.06
  -1   4  -3 8302.73  162.86
  -1   4  -3 8072.40  159.73
  -1   4  -3 8016.39  159.67
  -1   4  -3 7997.74  162.07
  -1   4  -2  361.15   13.87
  -1   4  -2  366.98   13.82
  -1   4  -2  373.35   13.84
  -1   4  -2  351.74   10.75
  -1   4  -2  350.33   13.64
  -1   4  -2  349.34   11.21
  -1   4  -2  375.42   13.91
  -1   4  -1 3399.01   98.71
  -1   4  -1 3442.46   98.03
  -1   4  -1 3413.70   98.41
  -1   4  -1 3526.08   98.19
  -1   4  -1 3559.94   96.30
  -1   4  -1 3544.31   98.33
  -1   4  -1 3396.60   97.51
  -1   4   0 3544.64   99.55
  -1   4   0 3495.76   99.40
  -1   4   0 3594.31   99.15
  -1   4   0 3577.37  100.17
  -1   4   0 3482.51  100.38
  -1   4   0 3526.75   99.31
  -1   4   1 2089.01   57.07
  -1   4   1 2090.60   57.04
  -1   4   1 2216.91   61.11
  -1   4   1 2181.88   60.78
  -1   4   1 2275.01   60.85
  -1   4   1 2057.99   59.41
  -1   4   1 2070.74   59.50
  -1   4   1 2242.21   60.11
  -1   4   2   67.81    5.17
  -1   4   2   75.29    5.31
  -1   4   2   71.98    4.81
  -1   4   2   72.53    5.45
  -1   4   2   73.76    4.35
  -1   4   2   68.78    3.93
  -1   4   2   64.88    3.89
  -1   4   2   71.19    4.32
  -1   4   3 2500.35   69.21
  -1   4   3 2497.67   69.48
  -1   4   3 2538.05   69.91
  -1   4   3 2284.06   67.01
  -1   4   3 2235.69   66.96
  -1   4   4  730.18   25.14
  -1   4   4  729.50   24.73
  -1   4   4  700.54   24.38
  -1   4   5  181.95    9.68
  -1   4   5  185.84   10.05
  -1   4   5  185.28    9.47
  -1   4   6  294.03   13.57
  -1   4   6  283.72   13.74
  -1   4   7  610.88   23.20
  -1   4   7  589.43   23.37
  -1   4   8  608.10   23.84
  -1   4   8  589.84   23.94
  -1   4   9   31.12    5.26
  -1   4   9   18.79    4.39
  -1   4  10   38.53    6.02
  -1   4  10   32.65    5.52
  -1   4  11  179.41   12.55
  -1   4  12  176.45   12.69
  -1   4  13  158.86   12.48
  -1   5 -16    1.14    4.97
  -1   5 -15  294.97   20.13
  -1   5 -15  294.94   20.22
  -1   5 -14  710.98   32.80
  -1   5 -14  661.29   32.12
  -1   5 -13  123.82   12.21
  -1   5 -13  115.34   11.89
  -1   5 -12  356.34   20.54
  -1   5 -12  385.85   21.39
  -1   5 -11  951.46   32.36
  -1   5 -11  815.11   34.89
  -1   5 -11  850.16   35.37
  -1   5 -11  883.45   31.86
  -1   5 -10  675.03   28.37
  -1   5 -10  656.23   25.04
  -1   5 -10  656.19   26.79
  -1   5 -10  669.51   25.18
  -1   5 -10  609.33   27.56
  -1   5  -9   22.51    5.34
  -1   5  -9   23.19    5.27
  -1   5  -9   26.38    5.03
  -1   5  -9   34.45    4.63
  -1   5  -9   24.86    4.15
  -1   5  -8 2157.74   63.08
  -1   5  -8 1967.28   64.18
  -1   5  -8 2022.26   64.44
  -1   5  -8 1939.26   62.47
  -1   5  -8 2122.07   63.05
  -1   5  -7 1500.57   45.58
  -1   5  -7 1302.06   43.73
  -1   5  -7 1363.35   45.76
  -1   5  -7 1536.16   45.73
  -1   5  -7 1372.97   45.84
  -1   5  -6  628.70   22.42
  -1   5  -6  611.54   22.35
  -1   5  -6  596.98   22.30
  -1   5  -6  598.15   22.28
  -1   5  -6  561.28   20.35
  -1   5  -6  590.82   22.24
  -1   5  -5  248.32   12.01
  -1   5  -5  257.73   12.30
  -1   5  -5  261.85   11.80
  -1   5  -5  232.11    9.64
  -1   5  -5  273.71   12.48
  -1   5  -5  266.30   11.59
  -1   5  -5  277.97   11.82
  -1   5  -4 1737.72   51.28
  -1   5  -4 1824.92   51.71
  -1   5  -4 1774.67   50.93
  -1   5  -4 1761.15   51.38
  -1   5  -4 1673.28   48.98
  -1   5  -4 1661.74   48.98
  -1   5  -3 5756.20  154.63
  -1   5  -3 5377.19  154.63
  -1   5  -3 5957.54  155.34
  -1   5  -3 5428.15  151.29
  -1   5  -3 5368.20  154.63
  -1   5  -3 5639.76  155.15
  -1   5  -3 5483.31  154.78
  -1   5  -3 5377.99  151.29
  -1   5  -2 1143.93   37.20
  -1   5  -2 1186.59   37.07
  -1   5  -2 1159.35   37.21
  -1   5  -2 1206.78   33.97
  -1   5  -2 1236.67   37.41
  -1   5  -2 1251.40   37.84
  -1   5  -2 1129.32   32.67
  -1   5  -1   11.89    2.41
  -1   5  -1   10.51    2.58
  -1   5  -1   12.16    2.71
  -1   5  -1   15.29    2.10
  -1   5  -1    9.01    2.83
  -1   5  -1    9.80    2.76
  -1   5   0 1537.32   47.64
  -1   5   0 1544.58   48.11
  -1   5   0 1575.76   46.71
  -1   5   0 1545.17   47.20
  -1   5   0 1598.41   46.76
  -1   5   0 1542.43   47.27
  -1   5   1 4026.04  114.34
  -1   5   1 4061.02  114.10
  -1   5   1 3917.09  113.13
  -1   5   1 4044.32  113.28
  -1   5   1 4075.01  114.75
  -1   5   1 3978.96  113.25
  -1   5   2  525.58   19.25
  -1   5   2  477.79   17.51
  -1   5   2  508.15   18.23
  -1   5   2  524.72   19.33
  -1   5   2  468.40   17.45
  -1   5   3  175.95    9.77
  -1   5   3  186.48    9.97
  -1   5   3  183.28    9.32
  -1   5   4  973.00   32.38
  -1   5   4  979.13   32.82
  -1   5   4  925.07   31.64
  -1   5   5 1294.19   41.55
  -1   5   5 1295.02   42.41
  -1   5   5 1285.31   41.64
  -1   5   6   16.25    3.83
  -1   5   6   16.04    3.69
  -1   5   7  351.60   15.95
  -1   5   7  310.05   16.00
  -1   5   8 1319.42   43.79
  -1   5   8 1269.25   44.50
  -1   5   9  286.74   15.69
  -1   5   9  338.55   17.37
  -1   5  10   11.95    4.08
  -1   5  10    8.50    4.21
  -1   5  11  365.45   18.94
  -1   5  12  434.67   21.72
  -1   6 -16   -3.35    4.63
  -1   6 -16   -2.23    5.75
  -1   6 -15   60.44    9.10
  -1   6 -15   59.30    9.15
  -1   6 -14  197.07   15.66
  -1   6 -14  152.33   14.17
  -1   6 -13  248.94   17.20
  -1   6 -13  246.63   17.18
  -1   6 -12   -1.15    3.01
  -1   6 -12   11.18    4.89
  -1   6 -12   -0.57    2.91
  -1   6 -12    5.14    4.27
  -1   6 -11   23.99    4.47
  -1   6 -11   25.84    6.10
  -1   6 -11   24.33    5.51
  -1   6 -11   21.23    4.67
  -1   6 -10  735.79   30.35
  -1   6 -10  771.68   28.61
  -1   6 -10  734.96   28.34
  -1   6 -10  699.91   29.78
  -1   6  -9  151.26   10.00
  -1   6  -9  125.05   10.07
  -1   6  -9  154.27   10.93
  -1   6  -9  141.44    9.82
  -1   6  -8  192.89   11.82
  -1   6  -8  197.05   11.95
  -1   6  -8  185.44   11.22
  -1   6  -8  202.08   11.52
  -1   6  -7  813.18   28.53
  -1   6  -7  728.39   27.58
  -1   6  -7  738.63   27.67
  -1   6  -7  787.06   28.34
  -1   6  -6 1101.62   35.73
  -1   6  -6 1011.71   34.91
  -1   6  -6 1094.99   36.55
  -1   6  -6 1117.18   36.73
  -1   6  -6 1050.00   35.11
  -1   6  -5   28.27    3.50
  -1   6  -5   32.89    4.14
  -1   6  -5   42.09    4.92
  -1   6  -5   36.97    4.81
  -1   6  -5   24.04    3.38
  -1   6  -4 1182.08   36.62
  -1   6  -4 1184.95   36.28
  -1   6  -4 1091.84   36.36
  -1   6  -4 1128.85   36.65
  -1   6  -4 1025.96   32.78
  -1   6  -4 1022.60   32.78
  -1   6  -3 1817.46   55.26
  -1   6  -3 1783.45   54.50
  -1   6  -3 1742.08   55.04
  -1   6  -3 1764.31   55.05
  -1   6  -2 1689.18   52.66
  -1   6  -2 1755.40   53.03
  -1   6  -2 1664.50   52.27
  -1   6  -2 1696.23   53.10
  -1   6  -1    9.08    2.60
  -1   6  -1    3.90    2.19
  -1   6  -1    5.22    2.98
  -1   6  -1    3.51    2.62
  -1   6  -1    6.36    2.96
  -1   6   0  867.64   29.39
  -1   6   0  844.98   28.93
  -1   6   0  847.26   29.81
  -1   6   0  855.19   28.17
  -1   6   0  836.93   28.93
  -1   6   1 1981.65   61.27
  -1   6   1 2015.16   60.39
  -1   6   1 2032.25   61.79
  -1   6   1 2064.64   60.29
  -1   6   1 1968.31   60.28
  -1   6   2  153.12    9.47
  -1   6   2  159.97    8.91
  -1   6   2  152.77    9.65
  -1   6   3  256.04   13.30
  -1   6   3  276.84   13.67
  -1   6   3  290.84   13.03
  -1   6   4  740.36   26.30
  -1   6   4  707.12   27.21
  -1   6   4  755.37   27.41
  -1   6   5  305.99   15.46
  -1   6   5  311.42   14.54
  -1   6   6   12.73    3.97
  -1   6   6   11.17    3.37
  -1   6   7  246.56   13.80
  -1   6   7  275.94   15.18
  -1   6   8  256.00   15.10
  -1   6   8  240.66   13.83
  -1   6   9  134.78   10.59
  -1   6   9  147.86   11.64
  -1   6  10    7.75    4.47
  -1   6  10    3.93    3.94
  -1   7 -17  280.09   20.34
  -1   7 -16   42.41    8.28
  -1   7 -16   34.84    7.66
  -1   7 -15   77.32   10.21
  -1   7 -15   55.67    9.11
  -1   7 -14  966.04   39.82
  -1   7 -14  912.09   39.22
  -1   7 -13  335.66   20.24
  -1   7 -13  354.84   20.48
  -1   7 -12    5.82    4.94
  -1   7 -12    3.18    3.35
  -1   7 -12   -1.67    4.07
  -1   7 -12   -1.92    3.18
  -1   7 -11  340.49   17.40
  -1   7 -11  388.12   18.23
  -1   7 -11  339.12   18.68
  -1   7 -11  316.56   18.42
  -1   7 -10 1419.12   48.33
  -1   7 -10 1442.49   49.57
  -1   7 -10 1447.94   49.51
  -1   7 -10 1413.11   48.42
  -1   7  -9  123.41    9.64
  -1   7  -9  105.90    8.97
  -1   7  -9  108.71    9.06
  -1   7  -9  113.08    9.14
  -1   7  -8   75.76    7.06
  -1   7  -8   73.35    7.38
  -1   7  -8   57.84    6.86
  -1   7  -8   63.82    6.63
  -1   7  -7 1462.08   46.75
  -1   7  -7 1428.34   47.84
  -1   7  -7 1436.59   47.91
  -1   7  -6 1090.70   35.70
  -1   7  -6 1014.09   36.29
  -1   7  -6 1005.96   36.28
  -1   7  -5  143.65    9.10
  -1   7  -5  134.87    9.50
  -1   7  -5  148.02    9.93
  -1   7  -4  178.50   10.29
  -1   7  -4  171.51   10.76
  -1   7  -4  170.85   10.81
  -1   7  -4  188.44   11.03
  -1   7  -3 1009.40   35.50
  -1   7  -3 1106.18   36.94
  -1   7  -3 1057.71   36.47
  -1   7  -3 1087.53   36.80
  -1   7  -2  934.83   32.74
  -1   7  -2 1005.94   33.71
  -1   7  -2  952.96   33.22
  -1   7  -2  922.92   33.51
  -1   7  -1  505.50   20.38
  -1   7  -1  454.31   19.17
  -1   7  -1  455.41   19.11
  -1   7  -1  457.32   18.05
  -1   7  -1  478.12   19.50
  -1   7   0   11.82    3.56
  -1   7   0   16.32    3.63
  -1   7   0   14.53    3.46
  -1   7   0   16.93    3.50
  -1   7   0    9.70    2.91
  -1   7   1 1352.28   44.98
  -1   7   1 1342.48   45.57
  -1   7   1 1432.72   44.00
  -1   7   2 1111.86   39.27
  -1   7   2 1162.79   37.89
  -1   7   2 1158.93   39.16
  -1   7   3  706.33   28.16
  -1   7   3  751.13   28.65
  -1   7   3  796.84   27.56
  -1   7   4  381.75   18.13
  -1   7   4  401.75   18.53
  -1   7   4  381.67   17.03
  -1   7   5  736.64   29.52
  -1   7   5  783.84   28.38
  -1   7   6 1292.17   43.24
  -1   7   6 1274.86   45.01
  -1   7   7    9.78    4.15
  -1   7   7    5.08    3.02
  -1   7   8  175.96   13.13
  -1   7   8  184.75   11.98
  -1   7   9  448.69   22.77
  -1   7  10  168.62   13.48
  -1   8 -17   64.94    9.69
  -1   8 -17   59.23    9.54
  -1   8 -16   39.95    7.89
  -1   8 -16   39.89    7.94
  -1   8 -15   -0.99    3.76
  -1   8 -15   -1.99    4.66
  -1   8 -14  171.67   14.21
  -1   8 -14  162.65   14.08
  -1   8 -13  219.95   14.49
  -1   8 -13  217.67   14.30
  -1   8 -12  180.91   12.72
  -1   8 -12  193.43   13.19
  -1   8 -11    0.68    3.86
  -1   8 -11   -0.68    3.99
  -1   8 -10  931.67   34.58
  -1   8 -10  849.44   33.78
  -1   8  -9 1143.99   41.07
  -1   8  -9 1139.65   41.07
  -1   8  -8  507.61   21.36
  -1   8  -8  521.19   22.93
  -1   8  -8  519.14   22.91
  -1   8  -7  369.82   17.10
  -1   8  -7  366.47   18.22
  -1   8  -7  402.62   18.91
  -1   8  -6 2405.22   75.29
  -1   8  -6 2409.90   73.74
  -1   8  -6 2428.18   75.43
  -1   8  -5 2123.14   65.08
  -1   8  -5 2091.25   66.46
  -1   8  -5 2071.21   66.29
  -1   8  -5 2098.95   65.93
  -1   8  -4   57.47    6.91
  -1   8  -4   53.66    5.94
  -1   8  -4   58.43    6.83
  -1   8  -4   52.48    6.48
  -1   8  -3 1305.28   44.28
  -1   8  -3 1366.11   45.40
  -1   8  -3 1358.30   45.44
  -1   8  -3 1357.62   45.61
  -1   8  -2 1981.26   62.74
  -1   8  -2 2026.63   63.26
  -1   8  -2 1956.77   63.56
  -1   8  -2 2078.06   63.62
  -1   8  -1   17.05    3.61
  -1   8  -1   13.44    4.33
  -1   8  -1   18.27    4.28
  -1   8  -1   16.43    4.19
  -1   8  -1   16.19    4.16
  -1   8   0  409.02   19.35
  -1   8   0  425.81   17.70
  -1   8   0  421.52   18.55
  -1   8   0  406.29   18.73
  -1   8   0  454.16   19.08
  -1   8   1 1598.47   52.64
  -1   8   1 1603.82   53.29
  -1   8   1 1644.89   51.27
  -1   8   2  493.16   21.83
  -1   8   2  517.94   22.57
  -1   8   2  528.16   21.03
  -1   8   3   48.99    6.30
  -1   8   3   53.13    6.04
  -1   8   3   46.92    6.25
  -1   8   4  305.22   16.58
  -1   8   4  310.06   16.62
  -1   8   4  303.09   15.21
  -1   8   5  878.39   34.84
  -1   8   5  956.98   33.68
  -1   8   6  175.68   12.76
  -1   8   6  168.82   11.35
  -1   8   7    8.46    4.38
  -1   8   8  134.30   11.72
  -1   8   9  143.48   12.58
  -1   8  10  136.29   12.53
  -1   9 -13  164.62   12.67
  -1   9 -13  163.55   12.94
  -1   9 -12    0.75    3.60
  -1   9 -12    2.27    3.46
  -1   9 -11  383.59   20.37
  -1   9 -11  423.76   21.01
  -1   9 -10  685.08   28.92
  -1   9 -10  681.07   28.88
  -1   9  -9   92.41    9.36
  -1   9  -9   97.82    9.43
  -1   9  -8    4.47    2.73
  -1   9  -8    5.50    3.91
  -1   9  -8    0.69    3.70
  -1   9  -7  102.40    8.56
  -1   9  -7  114.43    9.81
  -1   9  -7  121.98   10.11
  -1   9  -6  490.20   21.35
  -1   9  -6  511.62   22.99
  -1   9  -6  493.43   21.99
  -1   9  -6  479.15   22.49
  -1   9  -5  404.74   18.40
  -1   9  -5  398.94   19.07
  -1   9  -5  349.75   18.58
  -1   9  -5  405.55   19.50
  -1   9  -4   48.86    6.16
  -1   9  -4   59.83    7.08
  -1   9  -4   59.58    6.94
  -1   9  -4   55.88    6.91
  -1   9  -3   82.11    8.34
  -1   9  -3   83.33    8.29
  -1   9  -3   86.96    7.93
  -1   9  -3  101.74    8.91
  -1   9  -2  302.10   16.02
  -1   9  -2  330.84   16.92
  -1   9  -2  340.83   17.02
  -1   9  -2  334.21   17.31
  -1   9  -1  488.10   22.61
  -1   9  -1  512.39   22.05
  -1   9  -1  499.49   21.71
  -1   9  -1  504.76   21.90
  -1   9   0   23.04    4.68
  -1   9   0   34.00    5.76
  -1   9   0   30.16    4.59
  -1   9   1  343.74   17.12
  -1   9   1  298.79   16.75
  -1   9   1  303.17   15.00
  -1   9   2  732.02   29.97
  -1   9   2  739.60   29.60
  -1   9   2  733.60   27.80
  -1   9   3  121.65   10.27
  -1   9   3  116.20    9.15
  -1   9   3  130.61   10.87
  -1   9   4    2.16    3.90
  -1   9   5 1018.67   38.96
  -1   9   6  400.88   21.27
  -1   9   7   44.35    7.31
  -1   9   8   94.84   10.56
  -1  10 -14   94.10    9.95
  -1  10 -14   95.18   10.04
  -1  10 -13  477.13   24.25
  -1  10 -13  510.18   24.73
  -1  10 -12  339.81   19.56
  -1  10 -12  372.65   20.23
  -1  10 -11   49.86    7.44
  -1  10 -11   45.33    7.18
  -1  10 -10  636.12   27.98
  -1  10 -10  615.68   27.78
  -1  10  -9  806.77   32.65
  -1  10  -9  764.77   32.16
  -1  10  -8  389.98   19.33
  -1  10  -8  451.43   21.88
  -1  10  -8  437.76   21.63
  -1  10  -7  162.95   11.29
  -1  10  -7  161.15   12.14
  -1  10  -7  150.66   11.87
  -1  10  -6  930.58   35.26
  -1  10  -6  968.16   36.96
  -1  10  -6  969.15   36.69
  -1  10  -6 1003.87   37.43
  -1  10  -5  741.26   29.60
  -1  10  -5  777.34   31.26
  -1  10  -5  798.12   31.54
  -1  10  -5  746.41   30.68
  -1  10  -4   88.20    8.83
  -1  10  -4   71.72    7.81
  -1  10  -4   72.63    8.06
  -1  10  -4   77.36    8.43
  -1  10  -3  257.36   14.75
  -1  10  -3  263.46   15.32
  -1  10  -3  229.15   14.85
  -1  10  -3  265.78   15.65
  -1  10  -2  745.13   30.33
  -1  10  -2  794.71   30.96
  -1  10  -2  822.82   31.54
  -1  10  -2  762.95   31.44
  -1  10  -1  335.89   18.41
  -1  10  -1  345.73   17.92
  -1  10   0   84.54    9.26
  -1  10   0   88.13    8.57
  -1  10   0   91.61    7.81
  -1  10   1  366.64   19.06
  -1  10   1  375.42   19.87
  -1  10   2  157.40   12.08
  -1  10   2  172.87   12.94
  -1  10   3   49.37    7.26
  -1  10   3   51.31    7.27
  -1  10   4   81.20    9.07
  -1  10   5  117.66   11.14
  -1  10   6   36.15    7.04
  -1  10   7   29.62    6.48
  -1  11 -15    3.55    4.06
  -1  11 -15   -0.89    3.79
  -1  11 -14   79.24    9.50
  -1  11 -14   92.76   10.13
  -1  11 -13  616.93   28.75
  -1  11 -13  609.63   28.60
  -1  11 -12   56.50    7.93
  -1  11 -12   53.32    7.65
  -1  11 -11   75.66    9.15
  -1  11 -11   67.57    8.93
  -1  11 -10  331.08   19.27
  -1  11 -10  329.41   19.23
  -1  11  -9  460.89   23.37
  -1  11  -9  482.35   23.81
  -1  11  -8   21.49    5.46
  -1  11  -8   16.03    4.85
  -1  11  -7  121.05   11.20
  -1  11  -7  126.77   10.28
  -1  11  -7  102.79   10.27
  -1  11  -6  408.76   20.35
  -1  11  -6  429.50   21.86
  -1  11  -6  401.46   21.18
  -1  11  -5   98.29    9.97
  -1  11  -5   96.08    9.14
  -1  11  -5   95.69    9.76
  -1  11  -5  116.52   10.41
  -1  11  -4   36.15    6.59
  -1  11  -4   32.41    6.04
  -1  11  -4   33.58    5.86
  -1  11  -4   28.24    6.17
  -1  11  -3    2.21    4.07
  -1  11  -3   -0.70    3.97
  -1  11  -3    0.73    3.61
  -1  11  -3    3.14    3.98
  -1  11  -2  403.96   20.41
  -1  11  -2  422.74   21.66
  -1  11  -1  291.76   16.97
  -1  11  -1  300.24   17.89
  -1  11   0  120.47   10.82
  -1  11   0  132.77   11.58
  -1  11   1    0.83    4.64
  -1  11   1   -0.77    4.94
  -1  11   2  550.61   26.03
  -1  11   2  518.12   25.10
  -1  11   3  219.87   15.51
  -1  11   4   22.20    5.68
  -1  11   5  106.23   10.82
  -1  12 -15  136.22   12.82
  -1  12 -15  149.59   13.23
  -1  12 -14   22.95    5.85
  -1  12 -14   31.33    6.83
  -1  12 -13  186.79   14.92
  -1  12 -13  184.78   14.90
  -1  12 -12  343.36   20.70
  -1  12 -12  366.64   21.07
  -1  12 -11  158.72   13.08
  -1  12 -11  126.51   12.15
  -1  12 -10   25.39    6.27
  -1  12 -10   31.34    6.46
  -1  12  -9  770.46   33.18
  -1  12  -9  776.99   33.30
  -1  12  -8  383.25   20.93
  -1  12  -8  361.24   20.55
  -1  12  -7   13.41    5.05
  -1  12  -7   13.30    5.45
  -1  12  -6  777.09   33.44
  -1  12  -6  793.61   32.39
  -1  12  -6  867.73   34.63
  -1  12  -6  828.17   34.22
  -1  12  -5  566.49   26.31
  -1  12  -5  557.87   26.04
  -1  12  -5  546.15   26.14
  -1  12  -5  540.41   25.12
  -1  12  -4  229.14   15.19
  -1  12  -4  245.99   15.98
  -1  12  -4  232.92   15.54
  -1  12  -4  250.56   16.37
  -1  12  -3  337.69   19.59
  -1  12  -3  333.03   18.60
  -1  12  -2  790.81   32.78
  -1  12  -2  814.35   34.17
  -1  12  -1  330.42   18.97
  -1  12  -1  339.96   19.88
  -1  12   0   30.83    6.90
  -1  12   0   44.97    7.16
  -1  12   1  109.82   10.96
  -1  12   1   88.40   10.24
  -1  12   2  405.39   21.90
  -1  12   2  385.13   22.07
  -1  12   3  117.13   11.56
  -1  13 -13  281.45   18.90
  -1  13 -13  289.36   19.02
  -1  13 -12  324.04   19.67
  -1  13 -12  286.09   18.97
  -1  13 -11  116.18   11.48
  -1  13 -11   89.73   10.38
  -1  13 -10  114.64   11.65
  -1  13 -10  116.21   11.82
  -1  13  -9  175.45   14.14
  -1  13  -9  186.47   14.52
  -1  13  -8  291.67   18.46
  -1  13  -8  314.03   19.11
  -1  13  -7    6.96    4.58
  -1  13  -7   13.16    5.42
  -1  13  -6  123.15   11.64
  -1  13  -6  107.29   10.83
  -1  13  -6   97.09   10.42
  -1  13  -5  283.81   17.92
  -1  13  -5  253.00   16.31
  -1  13  -5  271.03   17.39
  -1  13  -5  274.50   17.47
  -1  13  -4  287.04   17.60
  -1  13  -4  294.29   18.59
  -1  13  -3   14.78    4.96
  -1  13  -3   19.07    6.53
  -1  13  -2  220.50   15.95
  -1  13  -2  208.15   15.18
  -1  13  -1  277.72   18.00
  -1  13  -1  315.83   19.38
  -1  13   0  230.14   16.87
  -1  13   0  238.99   16.39
  -1  13   1   34.21    7.21
  -1  13   1   41.78    8.14
  -1  14 -11  285.73   18.73
  -1  14 -11  309.18   19.53
  -1  14 -10    3.76    4.59
  -1  14 -10    7.56    4.43
  -1  14  -9  150.97   13.54
  -1  14  -9  137.93   12.93
  -1  14  -8  470.39   24.62
  -1  14  -8  451.38   24.40
  -1  14  -7  182.67   14.49
  -1  14  -7  168.87   13.89
  -1  14  -6   12.51    6.07
  -1  14  -6   31.01    6.84
  -1  14  -6   29.57    6.41
  -1  14  -5  347.92   20.86
  -1  14  -4  366.41   21.03
  -1  14  -4  371.03   21.76
  -1  14  -3   -0.88    4.19
  -1  14  -3    0.95    4.06
  -1  14  -2  130.69   12.67
  -1  14  -2  141.22   12.75
  -1  14  -1  272.75   18.02
  -1  14  -1  275.46   18.70
  -1  15  -8  206.30   15.77
  -1  15  -8  209.52   15.97
  -1  15  -7   80.82   10.22
  -1  15  -7   81.36   10.63
   0 -14   2   -3.52    5.95
   0 -14   3  157.65   15.52
   0 -14   4  604.19   32.06
   0 -14   5  212.31   18.01
   0 -14   6  144.97   15.14
   0 -14   7  652.02   33.48
   0 -14   8  595.42   31.36
   0 -14   9   63.95   10.53
   0 -14  10  115.46   13.28
   0 -14  11  745.13   35.60
   0 -13   1   55.06    9.73
   0 -13   2   91.15   11.98
   0 -13   3   64.11   10.61
   0 -13   4  135.54   14.00
   0 -13   5  182.90   16.20
   0 -13   6    2.21    5.70
   0 -13   7   10.96    6.15
   0 -13   8  236.86   18.37
   0 -13   9  142.54   14.24
   0 -13  10   12.74    6.64
   0 -13  11   95.44   11.86
   0 -13  12  132.28   13.52
   0 -13  13  310.09   20.13
   0 -12   0  196.79   16.34
   0 -12   1  155.68   14.67
   0 -12   2  385.19   23.55
   0 -12   3   24.30    7.61
   0 -12   4  370.03   22.56
   0 -12   5  556.30   28.95
   0 -12   6  100.13   12.04
   0 -12   7  195.30   16.17
   0 -12   8  691.23   33.00
   0 -12   9  189.55   15.57
   0 -12  10   13.07    6.37
   0 -12  11  328.32   20.77
   0 -12  12  154.07   13.74
   0 -12  13   79.82   10.13
   0 -11  -1   75.59   10.12
   0 -11   0  439.45   24.35
   0 -11   1  219.37   16.78
   0 -11   2   97.88   11.12
   0 -11   3   10.75    6.11
   0 -11   4   85.08   11.00
   0 -11   5  178.96   15.28
   0 -11   6  209.87   16.35
   0 -11   7   14.48    6.19
   0 -11   8   82.52   10.37
   0 -11   9  353.16   21.50
   0 -11  10  119.72   12.42
   0 -11  11   13.97    5.69
   0 -11  12  388.48   22.17
   0 -10  -1   16.18    5.56
   0 -10   0  165.38   13.85
   0 -10   1 1057.60   41.86
   0 -10   2 1217.08   46.43
   0 -10   3    1.79    5.60
   0 -10   4  524.12   26.10
   0 -10   5 1300.02   48.99
   0 -10   6  699.76   31.60
   0 -10   7   38.41    7.77
   0 -10   8  349.24   20.62
   0 -10   9 1006.19   38.54
   0 -10   9  956.94   39.34
   0 -10  10   51.54    8.21
   0 -10  10   54.41    7.93
   0 -10  11   78.21    9.59
   0 -10  11   94.41    9.95
   0 -10  12  236.79   16.34
   0 -10  12  238.15   16.25
   0 -10  13  440.56   23.54
   0 -10  14    2.79    4.53
   0 -10  15   17.38    6.47
   0 -10  16  147.94   13.90
   0  -9  -8   14.05    6.34
   0  -9  -7  172.60   14.96
   0  -9  -6  430.53   23.79
   0  -9  -5  135.71   12.24
   0  -9  -4    0.80    4.56
   0  -9  -3  644.34   27.90
   0  -9  -2  576.95   26.77
   0  -9  -1   19.31    5.35
   0  -9   0  153.03   12.63
   0  -9   1  947.37   37.46
   0  -9   2  817.05   33.82
   0  -9   3   88.25    9.42
   0  -9   4  233.35   15.83
   0  -9   5  871.11   36.51
   0  -9   5  965.27   34.76
   0  -9   6   78.17    7.89
   0  -9   6   72.22    9.15
   0  -9   7   11.60    4.39
   0  -9   7   28.65    7.20
   0  -9   8  472.72   22.55
   0  -9   8  461.65   23.63
   0  -9   9  326.24   18.15
   0  -9   9  306.71   18.46
   0  -9  10  129.56   11.49
   0  -9  10  143.03   12.43
   0  -9  11   10.51    4.39
   0  -9  11    0.78    4.51
   0  -9  12  245.35   15.85
   0  -9  12  252.55   16.71
   0  -9  13  573.78   27.72
   0  -9  14    2.76    4.40
   0  -9  15   28.91    7.02
   0  -9  16  288.55   19.63
   0  -8  -9  142.73   14.44
   0  -8  -8    4.22    4.93
   0  -8  -7   18.63    6.58
   0  -8  -6  301.91   19.01
   0  -8  -5  301.86   18.30
   0  -8  -4  134.92   11.41
   0  -8  -3  366.44   19.20
   0  -8  -3  338.47   18.24
   0  -8  -2  640.03   26.95
   0  -8  -2  708.92   28.94
   0  -8  -1 1056.47   37.75
   0  -8  -1 1119.35   40.49
   0  -8   0  228.55   14.34
   0  -8   0  208.87   11.85
   0  -8   1 1344.94   47.81
   0  -8   1 1372.12   45.04
   0  -8   2 2169.40   67.61
   0  -8   2 2227.10   71.09
   0  -8   3  888.60   35.58
   0  -8   3  947.46   33.18
   0  -8   4  153.83   12.08
   0  -8   4  150.39   10.36
   0  -8   5 3233.05   98.07
   0  -8   5 3113.56   94.95
   0  -8   6 1917.87   60.58
   0  -8   6 1804.02   62.04
   0  -8   7   20.09    4.84
   0  -8   7   19.18    5.74
   0  -8   8 1646.18   56.16
   0  -8   8 1686.85   56.95
   0  -8   9 1482.69   52.07
   0  -8   9 1528.66   52.52
   0  -8  10  491.67   23.34
   0  -8  10  525.25   24.23
   0  -8  11    8.58    4.38
   0  -8  11    6.31    3.43
   0  -8  12  681.82   30.19
   0  -8  13  246.34   16.78
   0  -8  14  121.83   11.99
   0  -8  15    0.96    4.49
   0  -8  16   70.29   10.03
   0  -8  17   85.17   11.34
   0  -7 -10  350.24   22.96
   0  -7  -9  460.71   26.31
   0  -7  -8   25.38    7.51
   0  -7  -7  116.15   12.01
   0  -7  -6 1039.61   40.98
   0  -7  -5  975.73   38.17
   0  -7  -4   30.32    5.81
   0  -7  -3  519.36   22.96
   0  -7  -3  523.64   23.10
   0  -7  -2  860.43   32.84
   0  -7  -2  955.00   34.34
   0  -7  -1  601.68   23.90
   0  -7  -1  638.40   25.86
   0  -7   0   15.32    3.57
   0  -7   0   10.99    3.83
   0  -7   1   63.00    5.57
   0  -7   1   65.24    5.95
   0  -7   1   60.95    7.16
   0  -7   2  177.09   10.02
   0  -7   2  168.72   11.83
   0  -7   2  155.89    8.35
   0  -7   3  232.45   12.36
   0  -7   3  255.72   14.62
   0  -7   4  156.02   11.61
   0  -7   4  168.74   10.34
   0  -7   5  124.48    9.03
   0  -7   5  116.95   10.09
   0  -7   6 1076.54   37.99
   0  -7   6 1073.79   39.29
   0  -7   7  179.50   11.98
   0  -7   7  180.38   12.49
   0  -7   8    0.65    3.95
   0  -7   8    2.60    3.17
   0  -7   9  767.13   30.34
   0  -7   9  764.11   30.84
   0  -7  10 1536.28   51.32
   0  -7  10 1497.27   52.33
   0  -7  11  153.32   11.18
   0  -7  11  165.39   12.69
   0  -7  12  152.89   12.55
   0  -7  13  632.86   29.07
   0  -7  14  780.38   34.05
   0  -7  15    7.58    5.85
   0  -7  16  161.07   14.47
   0  -7  17  384.95   23.19
   0  -6 -11    7.19    6.19
   0  -6 -10   27.09    7.50
   0  -6  -9   24.13    7.12
   0  -6  -8   47.76    8.34
   0  -6  -7   95.44   11.03
   0  -6  -6  457.77   22.95
   0  -6  -5  269.47   16.29
   0  -6  -4  818.59   32.09
   0  -6  -4  823.70   30.87
   0  -6  -3   14.37    4.37
   0  -6  -3   19.50    4.32
   0  -6  -2 1030.01   37.33
   0  -6  -2 1177.93   38.62
   0  -6  -1 2750.91   83.98
   0  -6  -1 2960.53   85.93
   0  -6   0  232.96   11.47
   0  -6   0  262.52   13.58
   0  -6   1  190.76    9.38
   0  -6   1  187.47    8.37
   0  -6   1  192.04   11.52
   0  -6   1  203.33   10.17
   0  -6   2 1609.00   49.49
   0  -6   2 1688.15   51.68
   0  -6   2 1662.87   54.02
   0  -6   2 1740.25   49.48
   0  -6   3 1418.01   47.04
   0  -6   3 1443.76   44.98
   0  -6   3 1455.11   42.59
   0  -6   3 1357.48   41.61
   0  -6   4   28.56    2.58
   0  -6   4   23.24    5.07
   0  -6   4   29.45    4.24
   0  -6   5 1253.85   37.80
   0  -6   5 1224.49   40.85
   0  -6   5 1154.89   41.82
   0  -6   6 1633.70   51.54
   0  -6   6 1514.03   51.63
   0  -6   7  369.77   17.96
   0  -6   7  388.05   18.26
   0  -6   8   17.95    3.30
   0  -6   8   20.47    4.86
   0  -6   8   21.72    4.74
   0  -6   9 1191.26   40.44
   0  -6   9 1138.79   41.34
   0  -6  10  863.33   31.13
   0  -6  10  802.79   32.40
   0  -6  11   24.30    5.70
   0  -6  12   80.47    9.05
   0  -6  13  215.66   15.25
   0  -6  14  356.05   20.66
   0  -6  15    3.70    4.77
   0  -6  16   10.65    5.51
   0  -6  17  164.18   14.82
   0  -5 -12  508.99   29.21
   0  -5 -11   38.52    8.74
   0  -5 -10   65.25   10.05
   0  -5  -9  596.62   29.78
   0  -5  -9  616.88   28.09
   0  -5  -8  627.88   29.24
   0  -5  -8  592.30   26.93
   0  -5  -7   34.46    6.73
   0  -5  -7   34.50    6.23
   0  -5  -6  696.56   29.63
   0  -5  -6  690.70   27.66
   0  -5  -5  919.95   35.53
   0  -5  -5  953.69   33.10
   0  -5  -5  941.97   33.69
   0  -5  -4 1113.88   38.87
   0  -5  -4 1058.27   36.48
   0  -5  -3   45.73    5.94
   0  -5  -3   55.62    5.68
   0  -5  -2 1412.23   45.31
   0  -5  -2 1390.68   44.97
   0  -5  -1 1535.57   45.86
   0  -5  -1 1535.21   48.67
   0  -5  -1 1605.98   46.14
   0  -5  -1 1646.82   49.73
   0  -5  -1 1575.51   45.95
   0  -5  -1 1578.04   44.65
   0  -5  -1 1539.48   44.62
   0  -5  -1 1572.71   44.68
   0  -5   0 1716.20   50.73
   0  -5   0 1696.41   52.06
   0  -5   0 1781.12   50.21
   0  -5   0 1739.90   48.51
   0  -5   0 1702.48   50.70
   0  -5   0 1847.19   54.31
   0  -5   0 1706.84   48.49
   0  -5   0 1728.68   48.52
   0  -5   1  150.07    7.46
   0  -5   1  146.97    7.47
   0  -5   1  153.44    7.57
   0  -5   1  154.90    7.60
   0  -5   1  141.35    9.11
   0  -5   1  145.81    7.88
   0  -5   1  156.12    6.86
   0  -5   2  849.07   27.64
   0  -5   2  884.85   27.88
   0  -5   2  879.00   27.26
   0  -5   2  858.57   28.23
   0  -5   2  870.72   27.74
   0  -5   2  875.25   30.18
   0  -5   2  807.51   26.23
   0  -5   2  817.31   24.81
   0  -5   2  879.69   26.56
   0  -5   3 2829.60   76.92
   0  -5   3 2547.59   74.07
   0  -5   3 2697.46   75.76
   0  -5   3 2713.73   74.39
   0  -5   3 2410.85   76.26
   0  -5   3 2591.67   74.11
   0  -5   3 2845.15   75.70
   0  -5   3 2766.64   77.88
   0  -5   3 2449.50   76.36
   0  -5   3 2781.75   79.74
   0  -5   4  461.06   15.79
   0  -5   4  472.68   16.29
   0  -5   4  444.44   19.18
   0  -5   4  448.32   18.24
   0  -5   4  458.26   15.74
   0  -5   4  465.18   17.06
   0  -5   4  450.55   14.72
   0  -5   5   10.46    2.05
   0  -5   5    0.73    1.40
   0  -5   5    4.00    2.57
   0  -5   5   -0.59    1.76
   0  -5   5    0.48    3.18
   0  -5   5   13.05    2.11
   0  -5   6 1177.39   36.80
   0  -5   6 1207.73   36.56
   0  -5   6 1087.54   38.86
   0  -5   6 1178.79   35.58
   0  -5   6 1090.82   38.72
   0  -5   6 1185.85   36.85
   0  -5   7 1609.95   52.88
   0  -5   7 1678.91   50.36
   0  -5   7 1630.74   52.12
   0  -5   8 1238.55   38.46
   0  -5   8 1169.18   39.73
   0  -5   8 1173.13   40.93
   0  -5   9  205.08   12.92
   0  -5   9  247.26   12.46
   0  -5  10 1076.04   36.15
   0  -5  10 1014.99   38.04
   0  -5  11  923.94   35.45
   0  -5  12   46.78    7.25
   0  -5  13  524.66   25.26
   0  -5  14  673.50   30.28
   0  -5  15   99.84   11.05
   0  -5  16   47.90    8.30
   0  -5  17  336.74   21.62
   0  -4 -13  148.03   15.64
   0  -4 -12  138.55   14.50
   0  -4 -12  108.31   12.36
   0  -4 -11   -1.12    5.24
   0  -4 -11    7.82    4.77
   0  -4 -10   76.94   10.51
   0  -4 -10   61.20    9.10
   0  -4  -9  177.14   14.58
   0  -4  -9  175.09   13.56
   0  -4  -8  572.46   26.94
   0  -4  -8  542.57   25.19
   0  -4  -7    3.12    3.81
   0  -4  -7    3.95    4.36
   0  -4  -6    4.19    3.80
   0  -4  -6    1.16    3.26
   0  -4  -5  965.55   35.91
   0  -4  -5  956.80   32.69
   0  -4  -5  987.52   34.47
   0  -4  -5  997.74   31.94
   0  -4  -4  305.78   15.05
   0  -4  -4  270.85   12.70
   0  -4  -4  302.35   13.86
   0  -4  -4  272.35   11.49
   0  -4  -3  368.95   16.38
   0  -4  -3  385.21   13.31
   0  -4  -3  399.85   15.39
   0  -4  -3  351.99   12.97
   0  -4  -3  360.84   15.07
   0  -4  -3  355.87   12.99
   0  -4  -3  343.19   13.05
   0  -4  -2  699.32   22.34
   0  -4  -2  713.44   25.77
   0  -4  -2  760.72   25.33
   0  -4  -2  712.03   22.40
   0  -4  -2  764.33   23.20
   0  -4  -2  734.45   22.38
   0  -4  -2  743.21   24.40
   0  -4  -2  727.15   22.34
   0  -4  -2  735.72   22.48
   0  -4  -1 1562.68   45.85
   0  -4  -1 1605.31   48.43
   0  -4  -1 1633.08   46.15
   0  -4  -1 1644.33   48.87
   0  -4  -1 1544.54   45.83
   0  -4  -1 1578.68   44.97
   0  -4  -1 1657.39   47.17
   0  -4  -1 1590.07   45.01
   0  -4  -1 1585.12   45.04
   0  -4   0 1000.77   30.05
   0  -4   0 1012.05   31.64
   0  -4   0  985.52   28.75
   0  -4   0 1066.25   31.23
   0  -4   0 1068.39   30.70
   0  -4   0 1042.36   30.61
   0  -4   0 1050.87   33.00
   0  -4   0  948.00   30.96
   0  -4   0  989.65   28.76
   0  -4   0 1025.37   28.83
   0  -4   1  400.51   13.57
   0  -4   1  368.79   13.75
   0  -4   1  372.89   13.47
   0  -4   1  378.44   15.20
   0  -4   1  363.36   13.15
   0  -4   1  357.30   12.60
   0  -4   1  383.61   13.56
   0  -4   2 6003.34  154.65
   0  -4   2 5268.55  151.40
   0  -4   2 5333.43  152.98
   0  -4   2 5453.04  153.81
   0  -4   2 6074.87  156.60
   0  -4   2 5431.56  153.82
   0  -4   2 5224.25  151.39
   0  -4   2 5515.76  151.08
   0  -4   2 6237.60  153.08
   0  -4   2 5868.40  152.34
   0  -4   2 5448.32  153.80
   0  -4   3 3972.47  119.98
   0  -4   3 4227.75  120.75
   0  -4   3 4814.65  124.70
   0  -4   3 4570.61  123.09
   0  -4   3 3977.19  119.96
   0  -4   3 4649.38  121.89
   0  -4   3 4712.77  119.67
   0  -4   4  183.51    8.08
   0  -4   4  183.99    8.06
   0  -4   4  171.34    7.72
   0  -4   4  163.64    9.28
   0  -4   4  192.95    9.07
   0  -4   4  194.16   10.10
   0  -4   4  202.57    8.63
   0  -4   4  173.72    6.64
   0  -4   4  182.40    8.92
   0  -4   5 1666.59   50.20
   0  -4   5 1682.26   48.95
   0  -4   5 1745.16   49.77
   0  -4   5 1710.73   50.81
   0  -4   5 1580.30   51.52
   0  -4   5 1630.50   51.88
   0  -4   5 1655.97   50.17
   0  -4   5 1763.63   51.03
   0  -4   6 4019.00  110.79
   0  -4   6 3945.56  112.99
   0  -4   6 3999.50  111.38
   0  -4   6 4018.12  113.62
   0  -4   6 3888.48  111.93
   0  -4   6 3945.07  112.97
   0  -4   6 3941.78  114.50
   0  -4   7  928.78   30.25
   0  -4   7  911.23   31.23
   0  -4   7  982.46   29.65
   0  -4   7  918.94   32.61
   0  -4   8  236.04   10.91
   0  -4   8  245.91   11.73
   0  -4   8  243.27   12.97
   0  -4   9  549.82   20.05
   0  -4   9  547.01   20.64
   0  -4   9  510.17   22.23
   0  -4  10  246.74   11.86
   0  -4  10  205.30   13.08
   0  -4  11  122.99   10.40
   0  -4  12   42.12    6.67
   0  -4  13  130.01   11.24
   0  -4  14   41.20    7.23
   0  -4  15   39.00    7.51
   0  -4  16    8.49    4.88
   0  -4  17  110.28   12.16
   0  -3 -13  292.74   21.19
   0  -3 -13  274.13   20.06
   0  -3 -12  425.72   25.28
   0  -3 -12  409.78   24.24
   0  -3 -11  324.56   21.21
   0  -3 -11  320.14   20.24
   0  -3 -10   86.26   10.48
   0  -3 -10   88.95   10.10
   0  -3  -9  988.59   40.39
   0  -3  -9 1003.16   39.30
   0  -3  -9 1024.69   36.57
   0  -3  -8 1350.67   49.83
   0  -3  -8 1435.14   49.38
   0  -3  -8 1380.29   46.10
   0  -3  -7  242.43   15.21
   0  -3  -7  270.97   15.16
   0  -3  -7  257.12   13.13
   0  -3  -6  694.88   27.75
   0  -3  -6  659.67   23.76
   0  -3  -6  697.68   26.76
   0  -3  -6  651.72   24.28
   0  -3  -5 1347.99   44.65
   0  -3  -5 1308.22   41.01
   0  -3  -5 1328.33   43.42
   0  -3  -5 1296.99   41.15
   0  -3  -4  534.67   17.34
   0  -3  -4  536.99   20.29
   0  -3  -4  509.12   18.66
   0  -3  -4  518.15   21.10
   0  -3  -4  515.94   18.40
   0  -3  -3   66.60    3.58
   0  -3  -3   65.36    4.26
   0  -3  -3   75.74    4.25
   0  -3  -3   69.82    4.95
   0  -3  -3   71.94    3.68
   0  -3  -3   70.77    6.19
   0  -3  -3   71.95    5.62
   0  -3  -3   69.48    4.43
   0  -3  -2  990.32   31.13
   0  -3  -2 1024.77   28.61
   0  -3  -2  963.52   29.87
   0  -3  -2  942.27   27.69
   0  -3  -2  947.20   28.03
   0  -3  -2  959.36   29.83
   0  -3  -2  930.23   27.66
   0  -3  -2  912.70   27.95
   0  -3  -2  904.83   28.03
   0  -3  -1   81.14    3.91
   0  -3  -1   83.15    4.09
   0  -3  -1   85.67    5.43
   0  -3  -1   77.17    3.52
   0  -3  -1   78.87    3.87
   0  -3  -1   79.47    5.00
   0  -3  -1   73.99    4.43
   0  -3  -1   78.43    3.53
   0  -3  -1   76.21    3.53
   0  -3   0    2.80    1.13
   0  -3   0    1.94    1.31
   0  -3   0    1.77    0.99
   0  -3   0    3.17    1.46
   0  -3   0   12.17    2.17
   0  -3   0    1.10    0.84
   0  -3   0    7.18    1.94
   0  -3   0    7.07    0.86
   0  -3   0    5.88    0.80
   0  -3   0    6.27    0.80
   0  -3   1  845.74   24.88
   0  -3   1  823.59   25.11
   0  -3   1  823.83   26.51
   0  -3   1  838.43   25.24
   0  -3   1  762.19   24.37
   0  -3   1  844.90   24.34
   0  -3   1  804.67   25.03
   0  -3   2  591.89   18.60
   0  -3   2  605.68   18.63
   0  -3   2  654.40   21.54
   0  -3   2  611.72   19.34
   0  -3   2  649.35   20.52
   0  -3   2  654.23   20.04
   0  -3   2  627.68   18.48
   0  -3   3 2436.88   67.35
   0  -3   3 2412.34   66.83
   0  -3   3 2315.55   68.53
   0  -3   3 2517.03   68.27
   0  -3   3 2299.63   68.98
   0  -3   3 2290.82   66.91
   0  -3   3 2280.96   66.93
   0  -3   3 2355.70   65.53
   0  -3   3 2484.56   68.19
   0  -3   4  882.84   28.66
   0  -3   4  921.06   27.51
   0  -3   4  915.60   29.84
   0  -3   4  941.88   29.04
   0  -3   4  875.49   29.35
   0  -3   4  978.39   28.20
   0  -3   4  896.61   28.70
   0  -3   4  930.51   29.00
   0  -3   5  298.67   12.69
   0  -3   5  312.12   11.31
   0  -3   5  298.78   12.77
   0  -3   5  318.15   11.08
   0  -3   5  319.23   11.78
   0  -3   5  326.51   12.45
   0  -3   5  301.53   12.42
   0  -3   5  301.29   10.84
   0  -3   5  324.04   12.43
   0  -3   5  294.55   13.05
   0  -3   6 1454.01   44.41
   0  -3   6 1467.43   44.48
   0  -3   6 1366.89   41.36
   0  -3   6 1438.57   42.44
   0  -3   6 1483.09   43.11
   0  -3   6 1422.99   43.04
   0  -3   6 1366.21   41.62
   0  -3   6 1388.85   41.51
   0  -3   6 1412.74   44.55
   0  -3   6 1482.71   43.17
   0  -3   7 2298.75   67.78
   0  -3   7 2394.26   69.04
   0  -3   7 2431.19   69.43
   0  -3   7 2478.92   69.58
   0  -3   7 2295.39   68.42
   0  -3   7 2379.06   71.49
   0  -3   7 2490.89   69.56
   0  -3   8  818.83   29.25
   0  -3   8  825.74   27.03
   0  -3   8  800.49   27.07
   0  -3   9  250.44   11.59
   0  -3   9  263.27   11.77
   0  -3   9  257.22   13.73
   0  -3  10  597.44   24.72
   0  -3  11 1073.75   38.87
   0  -3  12   94.82    9.36
   0  -3  13  193.40   13.67
   0  -3  14  537.12   25.64
   0  -3  15  282.90   18.13
   0  -3  16    4.64    4.71
   0  -2 -14    1.23    5.88
   0  -2 -14   -3.54    5.40
   0  -2 -13  141.98   14.53
   0  -2 -13  159.02   14.99
   0  -2 -12  214.19   17.37
   0  -2 -12  233.31   17.63
   0  -2 -12  248.36   15.99
   0  -2 -11   69.30    8.20
   0  -2 -11   67.40    9.75
   0  -2 -11   73.57    9.74
   0  -2 -10    8.06    3.94
   0  -2 -10   15.61    6.21
   0  -2 -10   13.94    5.58
   0  -2  -9  343.32   19.75
   0  -2  -9  374.88   17.95
   0  -2  -9  363.24   19.67
   0  -2  -9  327.63   17.26
   0  -2  -8  587.55   23.96
   0  -2  -8  613.13   26.70
   0  -2  -8  603.02   26.17
   0  -2  -8  592.07   24.13
   0  -2  -7 1036.20   34.81
   0  -2  -7  968.24   36.98
   0  -2  -7 1002.56   34.68
   0  -2  -7  986.26   36.71
   0  -2  -6   -0.40    2.37
   0  -2  -6    2.79    2.27
   0  -2  -6    0.57    3.15
   0  -2  -6    0.61    1.68
   0  -2  -6    0.53    3.40
   0  -2  -5  586.74   22.39
   0  -2  -5  551.01   22.51
   0  -2  -5  558.74   18.39
   0  -2  -5  574.75   19.79
   0  -2  -5  569.54   20.62
   0  -2  -5  590.55   20.85
   0  -2  -4 2549.92   71.25
   0  -2  -4 2455.52   70.28
   0  -2  -4 2573.23   71.12
   0  -2  -4 2465.63   71.62
   0  -2  -4 2496.10   72.17
   0  -2  -4 2523.24   73.90
   0  -2  -4 2441.23   72.15
   0  -2  -4 2549.91   74.71
   0  -2  -3 1066.39   30.91
   0  -2  -3 1099.68   34.16
   0  -2  -3 1115.26   34.92
   0  -2  -3 1080.53   32.30
   0  -2  -3 1071.41   31.51
   0  -2  -3 1120.03   32.11
   0  -2  -3 1105.54   32.74
   0  -2  -3 1058.10   30.91
   0  -2  -3 1069.22   32.57
   0  -2  -3 1072.95   32.62
   0  -2  -2 1074.16   24.80
   0  -2  -2 1108.71   28.43
   0  -2  -2 1123.81   25.90
   0  -2  -2 1129.99   25.57
   0  -2  -2 1112.60   26.66
   0  -2  -2 1091.01   24.84
   0  -2  -2 1098.77   27.53
   0  -2  -2 1091.62   25.98
   0  -2  -1 1809.50   47.53
   0  -2  -1 1712.17   49.01
   0  -2  -1 1697.03   47.09
   0  -2  -1 1709.25   48.39
   0  -2  -1 1663.93   47.00
   0  -2  -1 1661.60   47.00
   0  -2  -1 1716.17   48.18
   0  -2  -1 1665.43   47.05
   0  -2  -1 1637.12   47.02
   0  -2   0 1186.48   33.35
   0  -2   0 1149.73   33.83
   0  -2   0 1192.23   33.59
   0  -2   0 1174.49   33.32
   0  -2   0 1264.21   34.55
   0  -2   0 1160.55   32.96
   0  -2   0 1162.55   32.32
   0  -2   0 1148.50   32.31
   0  -2   0 1166.36   32.33
   0  -2   1  992.71   28.63
   0  -2   1  995.89   28.31
   0  -2   1 1023.75   29.15
   0  -2   1 1031.42   29.61
   0  -2   1 1075.29   30.59
   0  -2   1  980.76   28.29
   0  -2   1  997.96   28.11
   0  -2   1 1090.05   29.00
   0  -2   2 2225.20   64.00
   0  -2   2 2262.71   64.17
   0  -2   2 2385.45   63.84
   0  -2   2 2232.35   63.98
   0  -2   2 2316.85   63.00
   0  -2   2 2315.08   65.03
   0  -2   2 2316.75   65.37
   0  -2   3 2337.08   65.75
   0  -2   3 2448.25   66.23
   0  -2   3 2289.31   64.23
   0  -2   3 2278.25   64.72
   0  -2   3 2417.15   65.44
   0  -2   3 2377.45   65.74
   0  -2   3 2128.83   63.87
   0  -2   3 2371.54   65.81
   0  -2   3 2293.86   64.51
   0  -2   3 2410.05   65.45
   0  -2   4 2577.07   70.62
   0  -2   4 2279.31   68.06
   0  -2   4 2497.42   68.77
   0  -2   4 2520.55   69.23
   0  -2   4 2418.62   69.19
   0  -2   4 2353.80   68.36
   0  -2   4 2587.55   70.67
   0  -2   4 2442.09   70.19
   0  -2   4 2531.95   69.31
   0  -2   5    6.85    1.76
   0  -2   5   11.43    2.58
   0  -2   5   12.57    2.49
   0  -2   5    4.67    1.34
   0  -2   5   14.68    2.20
   0  -2   5    4.93    1.65
   0  -2   5    6.67    1.42
   0  -2   5    8.97    2.35
   0  -2   6  760.17   24.44
   0  -2   6  789.71   24.51
   0  -2   6  757.83   24.44
   0  -2   6  729.53   24.51
   0  -2   6  769.61   26.15
   0  -2   6  814.11   24.68
   0  -2   7 2567.75   69.18
   0  -2   7 2350.07   69.19
   0  -2   7 2425.48   68.83
   0  -2   7 2350.39   68.85
   0  -2   7 2263.51   69.30
   0  -2   7 2454.75   71.40
   0  -2   8  240.06   10.59
   0  -2   8  212.68    9.88
   0  -2   8  243.54   12.23
   0  -2   9  247.93   11.62
   0  -2   9  251.17   10.95
   0  -2   9  248.12   13.20
   0  -2  10  374.89   15.92
   0  -2  10  375.35   17.78
   0  -2  11  498.80   22.15
   0  -2  12   43.53    6.70
   0  -2  13   88.56    9.21
   0  -2  14  144.75   12.42
   0  -2  15  207.12   15.53
   0  -2  16   33.77    7.45
   0  -1 -15  442.12   27.22
   0  -1 -15  486.40   28.23
   0  -1 -14  146.56   13.51
   0  -1 -14  145.38   14.69
   0  -1 -14  148.67   14.98
   0  -1 -13    4.39    5.47
   0  -1 -13    9.79    4.92
   0  -1 -12  518.23   27.55
   0  -1 -12  546.31   28.26
   0  -1 -12  555.82   26.10
   0  -1 -12  543.60   26.06
   0  -1 -11  899.45   38.05
   0  -1 -11  886.80   37.74
   0  -1 -11  930.77   36.12
   0  -1 -11  906.15   35.89
   0  -1 -10  266.82   15.47
   0  -1 -10  224.82   15.75
   0  -1 -10  238.20   16.28
   0  -1 -10  231.56   14.76
   0  -1  -9  442.06   21.90
   0  -1  -9  440.56   22.02
   0  -1  -9  432.64   20.20
   0  -1  -9  417.31   20.07
   0  -1  -8 1391.70   46.66
   0  -1  -8 1402.78   48.44
   0  -1  -8 1375.66   48.33
   0  -1  -8 1401.30   46.64
   0  -1  -7 1239.96   43.63
   0  -1  -7 1287.56   42.22
   0  -1  -7 1247.70   43.50
   0  -1  -7 1286.04   42.29
   0  -1  -6   12.72    3.66
   0  -1  -6   10.56    3.72
   0  -1  -6   17.22    3.53
   0  -1  -6   11.06    3.24
   0  -1  -5  554.78   21.41
   0  -1  -5  545.66   18.11
   0  -1  -5  537.23   17.35
   0  -1  -5  532.72   18.28
   0  -1  -5  544.26   21.08
   0  -1  -5  566.38   20.28
   0  -1  -5  566.94   20.32
   0  -1  -4 4123.31  119.22
   0  -1  -4 4146.69  116.23
   0  -1  -4 4341.57  115.61
   0  -1  -4 4248.13  116.46
   0  -1  -4 4062.21  119.03
   0  -1  -4 4149.79  117.87
   0  -1  -4 4130.11  117.91
   0  -1  -3  552.76   17.81
   0  -1  -3  571.52   17.35
   0  -1  -3  582.60   19.76
   0  -1  -3  581.91   17.94
   0  -1  -3  594.50   19.99
   0  -1  -3  585.60   18.90
   0  -1  -3  573.30   18.85
   0  -1  -2 1445.20   40.54
   0  -1  -2 1528.04   43.10
   0  -1  -2 1447.62   40.92
   0  -1  -2 1531.74   41.40
   0  -1  -2 1557.13   41.60
   0  -1  -2 1465.55   42.71
   0  -1  -2 1483.99   41.94
   0  -1  -2 1474.83   40.57
   0  -1  -2 1475.99   41.96
   0  -1  -1  636.80   18.47
   0  -1  -1  695.57   20.01
   0  -1  -1  686.93   18.95
   0  -1  -1  657.64   18.99
   0  -1  -1  655.68   19.18
   0  -1  -1  632.45   18.46
   0  -1  -1  693.27   19.69
   0  -1  -1  650.23   18.97
   0  -1   0  268.24    4.02
   0  -1   0  270.96    4.02
   0  -1   1  386.20    5.05
   0  -1   1  441.92    4.84
   0  -1   1  299.70    5.08
   0  -1   2  477.92   12.95
   0  -1   2  490.78   13.26
   0  -1   2  496.75   13.23
   0  -1   2  476.69   12.88
   0  -1   2  501.97   13.75
   0  -1   2  500.66   13.33
   0  -1   2  260.32   12.90
   0  -1   2  267.06   12.91
   0  -1   3   10.57    1.81
   0  -1   3    8.84    1.24
   0  -1   3    6.13    1.12
   0  -1   3    6.70    1.21
   0  -1   3    5.36    1.11
   0  -1   3    3.91    1.13
   0  -1   4  168.92    6.65
   0  -1   4  173.31    6.48
   0  -1   4  166.33    7.10
   0  -1   4  159.37    6.43
   0  -1   4  167.08    7.45
   0  -1   4  161.50    6.39
   0  -1   5 1937.71   55.00
   0  -1   5 1920.36   54.36
   0  -1   5 1901.63   55.73
   0  -1   5 1888.54   54.49
   0  -1   5 1932.60   56.24
   0  -1   5 1933.70   54.38
   0  -1   6  156.58    7.28
   0  -1   6  151.00    6.52
   0  -1   6  145.24    6.65
   0  -1   6  135.17    7.43
   0  -1   6  162.18    8.33
   0  -1   6  145.20    6.47
   0  -1   7  126.26    6.82
   0  -1   7  117.47    6.13
   0  -1   7  113.14    7.52
   0  -1   8 1092.96   35.00
   0  -1   8 1119.78   33.86
   0  -1   8 1059.12   36.22
   0  -1   9    4.87    2.26
   0  -1   9    4.72    3.42
   0  -1  10  181.14   10.21
   0  -1  10  174.07   11.28
   0  -1  11 1381.56   47.01
   0  -1  12  208.92   13.74
   0  -1  13   23.84    5.36
   0  -1  14  451.84   22.72
   0  -1  15  337.37   19.99
   0  -1  16  126.37   12.09
   0   0 -15  288.11   20.92
   0   0 -15  277.63   19.30
   0   0 -14   44.90    8.27
   0   0 -14   36.71    8.15
   0   0 -14   46.35    9.02
   0   0 -13   10.05    5.05
   0   0 -13   10.30    5.60
   0   0 -13   18.21    6.62
   0   0 -13   13.68    4.97
   0   0 -12   76.20    9.20
   0   0 -12   69.40    9.05
   0   0 -12   61.67    9.40
   0   0 -12   67.37    9.98
   0   0 -11  960.04   38.80
   0   0 -11  982.33   37.97
   0   0 -11  950.94   39.10
   0   0 -11  951.54   37.62
   0   0 -10  133.60   11.74
   0   0 -10  130.29   11.76
   0   0 -10  166.42   12.09
   0   0 -10  133.44   11.08
   0   0  -9    3.18    3.92
   0   0  -9    1.46    3.97
   0   0  -9    3.48    3.84
   0   0  -9    0.64    3.88
   0   0  -8 1046.82   38.00
   0   0  -8 1023.15   38.34
   0   0  -8 1067.23   37.56
   0   0  -8 1079.26   37.72
   0   0  -7 1580.19   50.19
   0   0  -7 1482.90   43.64
   0   0  -7 1524.81   49.44
   0   0  -7 1531.20   48.98
   0   0  -7 1477.69   43.66
   0   0  -7 1565.14   49.22
   0   0  -6  879.16   26.24
   0   0  -6  890.68   30.83
   0   0  -6  860.22   27.20
   0   0  -6  912.17   31.37
   0   0  -6  873.54   26.57
   0   0  -6  862.24   26.21
   0   0  -6  877.97   30.45
   0   0  -6  918.05   30.74
   0   0  -5  922.15   27.71
   0   0  -5 1008.70   31.85
   0   0  -5  949.20   28.67
   0   0  -5  937.86   31.20
   0   0  -5  965.51   28.11
   0   0  -5  948.09   31.31
   0   0  -5  968.84   29.31
   0   0  -5  934.49   27.74
   0   0  -4 8643.15  246.47
   0   0  -4 8656.87  246.54
   0   0  -4 8297.55  246.50
   0   0  -4 9195.28  244.44
   0   0  -4 9535.70  243.96
   0   0  -4 9334.48  245.02
   0   0  -4 8866.50  243.53
   0   0  -4 8755.75  243.51
   0   0  -3 9395.86  256.62
   0   0  -3 9732.60  257.32
   0   0  -3 8982.60  258.88
   0   0  -3 9766.79  256.92
   0   0  -3 9299.59  256.61
   0   0  -3 9999.00  257.82
   0   0  -3 9123.91  258.82
   0   0  -3 9113.40  258.88
   0   0  -2  189.56    6.01
   0   0  -2  182.46    5.99
   0   0  -2  191.28    6.40
   0   0  -2  193.27    7.28
   0   0  -2  201.84    6.22
   0   0  -2  198.21    7.41
   0   0  -2  204.35    7.41
   0   0  -1   71.17    2.99
   0   0   1  120.25    3.97
   0   0   2  193.08    6.42
   0   0   2  184.98    5.92
   0   0   2  179.17    6.92
   0   0   2  199.64    6.18
   0   0   2  181.99    6.61
   0   0   2  184.92    5.93
   0   0   3 9470.98  246.53
   0   0   3 8790.19  247.32
   0   0   3 8778.00  245.47
   0   0   3 9325.37  245.93
   0   0   3 9948.17  247.08
   0   0   3 8676.19  245.46
   0   0   3 9007.68  247.80
   0   0   4 8952.62  236.48
   0   0   4 8337.22  235.11
   0   0   4 8387.75  237.47
   0   0   4 9277.53  235.80
   0   0   4 9014.42  237.06
   0   0   4 8888.38  238.31
   0   0   4 8270.85  235.09
   0   0   5 1009.29   30.92
   0   0   5  937.83   28.73
   0   0   5  898.30   27.15
   0   0   5  964.48   29.98
   0   0   5  880.23   27.64
   0   0   5  947.45   29.33
   0   0   5 1023.84   31.07
   0   0   5  933.10   27.23
   0   0   6  843.80   27.45
   0   0   6  860.89   25.67
   0   0   6  856.81   26.39
   0   0   6  896.39   28.35
   0   0   6  857.81   25.67
   0   0   7 1582.25   46.97
   0   0   7 1550.50   45.37
   0   0   7 1487.61   47.45
   0   0   8 1080.93   35.18
   0   0   8 1078.43   33.36
   0   0   8 1097.13   36.09
   0   0   9   -0.47    2.79
   0   0   9    1.65    1.93
   0   0  10  145.20    9.46
   0   0  10  141.39    9.93
   0   0  11  998.51   36.28
   0   0  12   85.48    8.64
   0   0  13   27.85    5.84
   0   0  14   42.69    7.04
   0   0  15  272.04   17.45
   0   1 -16  134.00   13.84
   0   1 -16  107.14   13.43
   0   1 -15  359.28   23.57
   0   1 -15  323.01   21.30
   0   1 -15  360.21   22.22
   0   1 -14  428.13   25.17
   0   1 -14  446.86   24.62
   0   1 -14  403.81   23.85
   0   1 -13   21.44    6.39
   0   1 -13   36.18    7.85
   0   1 -13   31.17    7.68
   0   1 -13   11.18    5.26
   0   1 -12  203.96   15.56
   0   1 -12  207.50   16.07
   0   1 -12  213.84   15.65
   0   1 -12  199.73   15.40
   0   1 -11 1349.92   49.66
   0   1 -11 1367.54   51.13
   0   1 -11 1408.72   50.27
   0   1 -11 1434.66   50.44
   0   1 -10  150.66   11.81
   0   1 -10  160.40   12.17
   0   1 -10  165.39   12.94
   0   1 -10  139.49   11.73
   0   1  -9    7.74    4.41
   0   1  -9    5.67    3.79
   0   1  -9    4.51    4.18
   0   1  -9   -1.39    4.20
   0   1  -8 1097.14   38.88
   0   1  -8 1183.16   39.85
   0   1  -8 1127.80   39.42
   0   1  -8 1096.92   39.96
   0   1  -7  113.91    5.79
   0   1  -7  126.97    8.57
   0   1  -7  122.27    6.29
   0   1  -7  110.66    5.73
   0   1  -7  139.29    9.35
   0   1  -7  134.75    9.14
   0   1  -6  147.90    9.26
   0   1  -6  154.06    6.54
   0   1  -6  146.85    8.68
   0   1  -6  146.76    6.78
   0   1  -6  144.52    6.40
   0   1  -6  151.50    6.51
   0   1  -6  158.54    9.43
   0   1  -5 1913.75   57.58
   0   1  -5 1928.71   57.64
   0   1  -5 1893.70   54.14
   0   1  -5 1885.14   56.67
   0   1  -5 1965.56   54.48
   0   1  -5 1894.69   54.07
   0   1  -5 1899.77   54.15
   0   1  -4  155.69    7.42
   0   1  -4  164.64    8.30
   0   1  -4  171.57    6.49
   0   1  -4  162.05    6.39
   0   1  -4  161.98    6.29
   0   1  -4  167.43    6.44
   0   1  -3    7.76    1.44
   0   1  -3    3.99    0.86
   0   1  -3   10.04    2.13
   0   1  -3    7.59    1.22
   0   1  -3    3.87    1.17
   0   1  -3    6.20    1.18
   0   1  -2  481.15   15.52
   0   1  -2  496.10   14.54
   0   1  -2  500.85   14.84
   0   1  -2  451.03   14.52
   0   1  -2  510.82   14.83
   0   1  -2  486.22   15.58
   0   1  -2  511.77   14.89
   0   1  -1  282.78    4.33
   0   1  -1    0.58    0.53
   0   1  -1    0.58    0.48
   0   1  -1  283.49    4.34
   0   1   0 2045.61   11.70
   0   1   0  422.44    5.49
   0   1   0 1093.84    7.78
   0   1   0 1124.69    7.86
   0   1   1  640.37   18.74
   0   1   1  687.11   19.23
   0   1   1  673.75   19.43
   0   1   1  637.77   18.74
   0   1   1  677.82   19.41
   0   1   1  690.03   19.92
   0   1   1  687.17   19.35
   0   1   1  678.82   19.33
   0   1   2 1433.88   41.00
   0   1   2 1533.18   42.16
   0   1   2 1513.20   41.99
   0   1   2 1456.85   41.02
   0   1   2 1532.19   42.58
   0   1   2 1523.82   42.56
   0   1   3  536.51   16.25
   0   1   3  567.36   17.66
   0   1   3  555.43   16.26
   0   1   3  548.74   17.52
   0   1   3  572.75   16.88
   0   1   3  532.37   16.25
   0   1   3  550.73   16.26
   0   1   3  596.34   18.56
   0   1   4 4082.87  110.08
   0   1   4 4157.35  112.04
   0   1   4 4037.68  109.94
   0   1   4 4149.09  110.82
   0   1   4 4105.09  112.00
   0   1   4 4088.05  110.09
   0   1   4 4059.87  109.95
   0   1   4 4316.21  113.45
   0   1   5  577.35   19.96
   0   1   5  522.48   16.25
   0   1   5  521.75   16.24
   0   1   5  540.41   18.28
   0   1   5  516.28   16.03
   0   1   5  527.66   16.96
   0   1   5  531.89   18.34
   0   1   5  510.08   16.03
   0   1   6    8.62    1.37
   0   1   6    6.15    2.29
   0   1   6    9.86    2.43
   0   1   6    6.79    1.64
   0   1   6    5.45    1.23
   0   1   7 1286.63   39.18
   0   1   7 1213.35   39.19
   0   1   7 1201.33   36.91
   0   1   8 1378.23   44.07
   0   1   8 1395.63   44.50
   0   1   9  450.92   18.52
   0   1   9  425.43   18.59
   0   1  10  232.53   12.84
   0   1  10  221.02   12.81
   0   1  11  931.73   33.97
   0   1  11  930.92   34.38
   0   1  12  542.30   24.10
   0   1  13   13.66    4.72
   0   1  14  169.86   13.17
   0   1  15  487.04   24.62
   0   2 -16   29.28    7.52
   0   2 -16   33.82    8.55
   0   2 -16   46.00    8.67
   0   2 -15  221.51   17.16
   0   2 -15  200.38   17.14
   0   2 -15  194.02   16.40
   0   2 -14  181.79   15.70
   0   2 -14  176.16   15.32
   0   2 -14  186.00   15.55
   0   2 -13   82.42   10.10
   0   2 -13   91.15   10.41
   0   2 -13   84.79   10.74
   0   2 -12   68.24    9.46
   0   2 -12   59.58    9.01
   0   2 -12   56.95    8.87
   0   2 -11  507.45   23.86
   0   2 -11  550.09   25.45
   0   2 -11  535.92   25.63
   0   2 -11  514.50   24.88
   0   2 -10  384.93   19.81
   0   2 -10  364.69   18.59
   0   2 -10  356.21   19.63
   0   2 -10  413.59   20.20
   0   2  -9  241.05   13.39
   0   2  -9  239.69   14.32
   0   2  -9  229.90   14.20
   0   2  -9  229.05   14.18
   0   2  -8  233.10   12.26
   0   2  -8  208.98    9.51
   0   2  -8  220.56   13.04
   0   2  -8  217.70   13.14
   0   2  -8  229.07    9.71
   0   2  -7 2234.02   71.11
   0   2  -7 2364.98   67.21
   0   2  -7 2204.30   69.50
   0   2  -7 2405.51   67.05
   0   2  -7 2289.14   71.33
   0   2  -7 2416.34   66.92
   0   2  -7 2295.40   67.08
   0   2  -6  751.76   24.21
   0   2  -6  740.33   25.62
   0   2  -6  795.06   24.09
   0   2  -6  766.21   24.08
   0   2  -6  773.39   24.32
   0   2  -6  746.73   27.29
   0   2  -5    6.48    1.28
   0   2  -5    5.56    1.75
   0   2  -5    4.32    1.55
   0   2  -5    7.43    1.77
   0   2  -5    4.98    1.68
   0   2  -4 2396.02   58.68
   0   2  -4 2242.95   58.07
   0   2  -4 2385.88   58.67
   0   2  -4 2351.26   60.46
   0   2  -3 2239.78   64.73
   0   2  -3 2329.05   63.27
   0   2  -3 2322.46   64.47
   0   2  -3 2232.95   64.26
   0   2  -3 2077.15   62.81
   0   2  -3 2486.04   64.56
   0   2  -3 2286.35   64.35
   0   2  -3 2247.20   64.73
   0   2  -3 2279.52   62.53
   0   2  -2 2301.06   66.36
   0   2  -2 2360.57   66.04
   0   2  -2 2535.88   67.18
   0   2  -2 2304.89   66.92
   0   2  -2 2485.24   67.46
   0   2  -2 2316.08   66.39
   0   2  -2 2289.64   66.36
   0   2  -2 2434.59   65.19
   0   2  -2 2342.99   66.98
   0   2  -1  966.06   27.82
   0   2  -1  943.20   27.46
   0   2  -1  934.76   27.45
   0   2  -1 1004.09   28.33
   0   2  -1 1023.81   28.94
   0   2  -1 1004.44   28.78
   0   2  -1 1070.11   28.72
   0   2  -1  981.64   28.84
   0   2   0 1241.53   32.67
   0   2   0 1167.21   33.42
   0   2   0 1174.03   33.13
   0   2   0 1147.01   31.82
   0   2   0 1198.93   33.05
   0   2   0 1142.13   31.80
   0   2   0 1190.19   33.38
   0   2   0 1129.51   32.59
   0   2   0 1117.72   31.79
   0   2   0 1176.62   33.01
   0   2   1 1698.12   48.07
   0   2   1 1806.38   48.42
   0   2   1 1770.71   48.86
   0   2   1 1735.77   48.92
   0   2   1 1710.05   49.80
   0   2   1 1718.71   48.09
   0   2   1 1679.55   48.85
   0   2   1 1682.81   49.07
   0   2   1 1697.70   48.08
   0   2   1 1703.79   48.06
   0   2   2 1069.22   31.46
   0   2   2 1142.58   32.94
   0   2   2 1188.06   34.38
   0   2   2 1067.30   31.46
   0   2   2 1088.88   32.56
   0   2   2 1140.03   32.45
   0   2   2 1131.66   32.67
   0   2   2 1099.28   32.52
   0   2   2 1125.77   32.66
   0   2   3 1074.29   31.64
   0   2   3 1098.26   32.12
   0   2   3 1012.81   30.08
   0   2   3 1000.92   30.06
   0   2   3 1114.31   32.40
   0   2   3 1112.14   32.40
   0   2   4 2350.38   67.94
   0   2   4 2487.29   70.53
   0   2   4 2491.45   70.10
   0   2   4 2334.86   67.93
   0   2   4 2528.04   68.05
   0   2   4 2542.73   68.07
   0   2   4 2440.38   71.12
   0   2   5  533.14   17.02
   0   2   5  586.99   19.84
   0   2   5  549.97   19.41
   0   2   5  539.62   17.04
   0   2   5  598.28   20.93
   0   2   6    4.59    2.26
   0   2   6    1.74    2.12
   0   2   7 1004.59   33.59
   0   2   7  999.97   33.29
   0   2   8  605.23   22.91
   0   2   8  573.06   22.36
   0   2   9  384.36   17.26
   0   2   9  353.32   16.71
   0   2  10    9.02    3.70
   0   2  10   12.61    3.72
   0   2  11   73.77    7.56
   0   2  11   61.41    7.44
   0   2  12  208.05   13.73
   0   2  13  136.40   11.42
   0   2  14   -5.39    5.72
   0   3 -17  129.76   14.09
   0   3 -16    2.27    5.42
   0   3 -16    2.32    5.88
   0   3 -16    1.13    5.85
   0   3 -15  288.92   20.09
   0   3 -15  268.94   19.46
   0   3 -15  272.83   19.75
   0   3 -14  467.83   26.10
   0   3 -14  535.02   27.38
   0   3 -14  489.12   26.47
   0   3 -13  181.38   14.69
   0   3 -13  179.62   14.56
   0   3 -13  161.27   13.90
   0   3 -12   68.24    9.23
   0   3 -12   87.56   10.25
   0   3 -12   76.59    9.61
   0   3 -11 1073.42   41.53
   0   3 -11 1090.24   41.48
   0   3 -11 1091.47   41.61
   0   3 -10  583.21   23.69
   0   3 -10  520.99   24.48
   0   3 -10  566.52   25.41
   0   3 -10  567.50   25.50
   0   3  -9  248.54   14.74
   0   3  -9  251.37   11.32
   0   3  -9  252.25   13.20
   0   3  -9  239.86   11.16
   0   3  -9  251.80   14.74
   0   3  -8  790.47   26.28
   0   3  -8  772.55   27.56
   0   3  -8  759.26   29.63
   0   3  -8  739.45   29.50
   0   3  -8  820.13   26.44
   0   3  -7 2376.62   68.85
   0   3  -7 2154.75   68.87
   0   3  -7 2401.90   67.81
   0   3  -7 2545.56   68.67
   0   3  -7 2250.34   71.84
   0   3  -7 2369.30   68.83
   0   3  -6 1303.10   44.44
   0   3  -6 1434.45   42.65
   0   3  -6 1321.24   41.95
   0   3  -6 1476.37   42.46
   0   3  -6 1441.82   42.69
   0   3  -5  338.43   12.89
   0   3  -5  313.48   12.51
   0   3  -5  291.39   11.17
   0   3  -5  310.16   12.29
   0   3  -5  288.92   13.05
   0   3  -5  310.58   12.52
   0   3  -4  858.70   28.76
   0   3  -4  917.37   27.44
   0   3  -4  895.21   28.71
   0   3  -4  962.46   29.10
   0   3  -4  966.83   29.09
   0   3  -4  859.11   26.63
   0   3  -4  869.98   28.86
   0   3  -4  903.02   26.22
   0   3  -4  927.05   28.93
   0   3  -3 2332.05   69.19
   0   3  -3 2422.60   69.30
   0   3  -3 2464.66   67.37
   0   3  -3 2488.80   68.79
   0   3  -3 2406.72   70.00
   0   3  -3 2493.33   70.59
   0   3  -3 2384.72   69.26
   0   3  -3 2528.23   70.18
   0   3  -3 2389.57   70.02
   0   3  -2  585.10   18.12
   0   3  -2  623.01   19.87
   0   3  -2  636.55   19.30
   0   3  -2  600.88   18.59
   0   3  -2  612.16   20.19
   0   3  -2  611.62   19.79
   0   3  -2  604.90   18.61
   0   3  -2  606.09   20.17
   0   3  -1  754.03   21.87
   0   3  -1  772.61   24.09
   0   3  -1  729.11   21.83
   0   3  -1  773.84   21.72
   0   3  -1  790.03   23.26
   0   3  -1  786.18   24.11
   0   3  -1  769.10   23.51
   0   3  -1  758.75   21.70
   0   3  -1  767.21   21.72
   0   3  -1  795.68   24.15
   0   3   0    4.02    1.64
   0   3   0    1.97    0.69
   0   3   0    2.74    1.56
   0   3   0    4.38    1.14
   0   3   0    8.31    1.92
   0   3   0    3.85    1.24
   0   3   0    3.67    1.50
   0   3   0    1.81    1.57
   0   3   0    2.42    0.65
   0   3   0    2.78    1.33
   0   3   0    3.33    0.69
   0   3   1   82.31    4.86
   0   3   1   99.51    5.77
   0   3   1   82.13    4.29
   0   3   1   77.02    4.80
   0   3   1   98.64    5.16
   0   3   1   78.65    4.23
   0   3   1   86.58    4.98
   0   3   1   86.25    3.99
   0   3   1   85.23    3.99
   0   3   1   83.42    4.30
   0   3   2  992.25   28.97
   0   3   2  948.27   29.66
   0   3   2  916.19   28.15
   0   3   2  968.58   28.80
   0   3   2  963.06   30.98
   0   3   2  924.55   28.16
   0   3   2  955.31   29.37
   0   3   2  942.37   29.43
   0   3   2  972.11   28.82
   0   3   3   67.90    4.82
   0   3   3   71.22    3.86
   0   3   3   75.12    4.71
   0   3   3   81.73    5.44
   0   3   3   75.66    5.92
   0   3   3   79.77    5.03
   0   3   3   71.10    3.85
   0   3   3   70.47    4.89
   0   3   4  483.86   15.96
   0   3   4  529.81   18.66
   0   3   4  498.16   17.75
   0   3   4  532.74   17.99
   0   3   4  488.05   15.98
   0   3   4  503.03   18.37
   0   3   5 1269.92   40.08
   0   3   5 1323.00   40.56
   0   3   5 1327.96   41.21
   0   3   6  664.08   23.14
   0   3   6  665.06   23.63
   0   3   6  672.94   24.32
   0   3   7  229.95   11.93
   0   3   7  254.93   12.68
   0   3   8 1339.68   44.54
   0   3   8 1410.43   45.52
   0   3   9 1041.96   35.79
   0   3   9  992.13   36.18
   0   3  10   79.23    7.92
   0   3  10   54.16    6.44
   0   3  11  323.03   16.98
   0   3  11  329.58   17.81
   0   3  12  438.86   21.31
   0   4 -17  107.56   12.47
   0   4 -17   68.40   10.85
   0   4 -16    9.06    6.06
   0   4 -16   13.61    6.17
   0   4 -16    7.74    5.82
   0   4 -15   49.65    9.24
   0   4 -15   59.45    9.72
   0   4 -15   59.47    9.44
   0   4 -14   27.31    7.31
   0   4 -14   37.94    7.47
   0   4 -14   37.50    7.90
   0   4 -13  110.10   11.77
   0   4 -13  119.25   11.75
   0   4 -13   99.84   11.19
   0   4 -12   37.34    7.27
   0   4 -12   43.47    7.42
   0   4 -12   36.82    6.76
   0   4 -11  118.46   11.05
   0   4 -11  130.75   11.16
   0   4 -11  149.32   12.08
   0   4 -10  240.99   15.04
   0   4 -10  238.30   11.86
   0   4 -10  225.17   14.66
   0   4 -10  237.30   11.92
   0   4  -9  552.17   20.91
   0   4  -9  552.26   20.92
   0   4  -9  552.13   24.12
   0   4  -9  551.44   24.07
   0   4  -8  232.98   13.54
   0   4  -8  263.76   11.98
   0   4  -8  219.98   10.91
   0   4  -8  250.70   11.78
   0   4  -7  967.13   31.13
   0   4  -7  872.26   29.37
   0   4  -7  959.09   31.11
   0   4  -7  927.52   32.83
   0   4  -6 3868.64  111.56
   0   4  -6 3521.88  108.78
   0   4  -6 4368.57  112.03
   0   4  -6 4092.14  108.16
   0   4  -6 3876.50  111.61
   0   4  -6 3801.26  112.56
   0   4  -5 1660.09   49.42
   0   4  -5 1684.68   51.26
   0   4  -5 1555.40   48.10
   0   4  -5 1821.06   51.78
   0   4  -5 1662.36   51.21
   0   4  -5 1792.22   51.53
   0   4  -5 1702.84   51.42
   0   4  -5 1707.88   47.75
   0   4  -5 1699.98   51.42
   0   4  -4  192.33    8.27
   0   4  -4  182.80    9.33
   0   4  -4  183.45    9.62
   0   4  -4  189.15    8.74
   0   4  -4  164.49    8.42
   0   4  -4  165.27    8.86
   0   4  -4  179.35    6.74
   0   4  -4  204.01    9.70
   0   4  -4  186.83    8.74
   0   4  -3 4216.47  121.38
   0   4  -3 4473.55  122.84
   0   4  -3 4400.44  122.78
   0   4  -3 4510.64  123.26
   0   4  -3 4552.39  124.29
   0   4  -3 4567.93  124.94
   0   4  -3 4616.08  125.65
   0   4  -3 4367.68  124.04
   0   4  -3 4359.03  121.00
   0   4  -3 4585.21  125.00
   0   4  -2 4997.95  141.16
   0   4  -2 5444.27  142.07
   0   4  -2 5355.83  143.04
   0   4  -2 4943.73  141.14
   0   4  -2 5140.20  144.03
   0   4  -2 5317.71  143.95
   0   4  -2 5101.13  144.02
   0   4  -1  350.36   11.04
   0   4  -1  339.78   12.88
   0   4  -1  368.07   13.22
   0   4  -1  391.16   13.91
   0   4  -1  308.94   13.61
   0   4  -1  359.45   11.07
   0   4  -1  352.06   10.86
   0   4  -1  336.05   13.57
   0   4  -1  363.71   12.44
   0   4  -1  349.76   10.86
   0   4  -1  354.38   10.88
   0   4  -1  384.05   13.84
   0   4   0  996.10   31.15
   0   4   0 1005.37   31.52
   0   4   0  980.70   31.60
   0   4   0 1013.58   31.06
   0   4   0 1018.91   31.80
   0   4   0 1010.50   30.24
   0   4   0 1058.10   30.34
   0   4   0  963.73   28.59
   0   4   0 1011.92   31.05
   0   4   1 1609.67   47.56
   0   4   1 1595.55   48.46
   0   4   1 1578.11   46.64
   0   4   1 1571.82   47.72
   0   4   1 1593.40   47.51
   0   4   1 1584.13   47.24
   0   4   1 1577.14   45.38
   0   4   1 1651.11   46.46
   0   4   1 1571.90   45.37
   0   4   1 1580.29   46.65
   0   4   2  746.41   23.85
   0   4   2  752.70   24.97
   0   4   2  729.37   23.38
   0   4   2  735.58   23.48
   0   4   2  744.26   23.51
   0   4   2  749.87   24.55
   0   4   2  739.64   24.88
   0   4   2  743.23   23.45
   0   4   3  352.10   14.39
   0   4   3  376.08   14.94
   0   4   3  360.91   12.95
   0   4   3  345.87   12.83
   0   4   3  379.04   13.97
   0   4   4  314.62   12.77
   0   4   4  292.52   12.97
   0   4   4  302.08   13.51
   0   4   5 1040.24   33.49
   0   4   5  990.13   34.25
   0   4   5 1044.67   33.75
   0   4   6    0.47    2.99
   0   4   6    1.96    2.33
   0   4   6    4.26    2.70
   0   4   7    7.76    3.46
   0   4   7    6.13    3.02
   0   4   8  541.22   21.92
   0   4   8  544.42   22.88
   0   4   9  173.57   11.33
   0   4   9  179.48   12.14
   0   4  10   57.36    7.38
   0   4  10   49.86    6.33
   0   4  11    3.70    3.75
   0   5 -17  400.38   25.26
   0   5 -17  436.42   25.97
   0   5 -16   44.86    9.36
   0   5 -16   40.45    8.71
   0   5 -15   71.24   10.20
   0   5 -15   99.07   11.37
   0   5 -14  657.63   31.22
   0   5 -14  661.32   31.36
   0   5 -13  513.16   26.50
   0   5 -13  581.06   27.58
   0   5 -12   61.58    8.73
   0   5 -12   53.93    8.12
   0   5 -12   57.09    7.84
   0   5 -11  949.61   37.27
   0   5 -11  944.68   37.19
   0   5 -10 1060.60   36.09
   0   5 -10  996.60   38.92
   0   5 -10 1082.31   36.23
   0   5 -10 1057.14   39.34
   0   5  -9  240.82   12.45
   0   5  -9  238.21   14.14
   0   5  -9  249.12   12.64
   0   5  -9  238.95   14.19
   0   5  -8 1249.92   41.39
   0   5  -8 1237.41   41.39
   0   5  -8 1317.96   43.46
   0   5  -7 1783.85   55.11
   0   5  -7 1769.33   55.10
   0   5  -7 1751.47   55.80
   0   5  -6 1155.97   37.90
   0   5  -6 1169.94   38.38
   0   5  -6 1168.58   36.15
   0   5  -6 1168.44   38.29
   0   5  -6 1132.91   34.40
   0   5  -5    4.79    2.34
   0   5  -5    2.96    2.92
   0   5  -5    3.43    1.70
   0   5  -5    2.68    1.98
   0   5  -5    0.83    2.54
   0   5  -5    2.72    2.23
   0   5  -5    3.10    2.07
   0   5  -5    2.64    0.98
   0   5  -4  423.40   14.39
   0   5  -4  462.65   16.52
   0   5  -4  450.84   17.34
   0   5  -4  442.55   17.26
   0   5  -4  460.29   16.35
   0   5  -4  446.56   17.92
   0   5  -4  460.89   16.35
   0   5  -4  437.53   14.14
   0   5  -4  459.41   18.14
   0   5  -3 2503.49   71.54
   0   5  -3 2356.38   71.15
   0   5  -3 2649.59   73.27
   0   5  -3 2585.55   74.81
   0   5  -3 2492.38   71.53
   0   5  -3 2583.71   74.26
   0   5  -3 2628.99   73.71
   0   5  -3 2601.67   74.90
   0   5  -2  782.49   23.51
   0   5  -2  778.66   25.08
   0   5  -2  779.21   25.85
   0   5  -2  751.41   26.69
   0   5  -2  799.88   26.90
   0   5  -2  775.38   23.48
   0   5  -2  789.85   23.07
   0   5  -2  794.69   23.08
   0   5  -2  798.33   23.09
   0   5  -2  792.82   26.96
   0   5  -1  161.98    8.53
   0   5  -1  139.90    5.37
   0   5  -1  145.72    7.63
   0   5  -1  135.88    6.25
   0   5  -1  147.53    8.05
   0   5  -1  137.39    5.34
   0   5  -1  133.32    5.17
   0   5  -1  131.30    6.70
   0   5  -1  137.29    5.20
   0   5  -1  142.31    5.27
   0   5  -1  152.40    8.12
   0   5  -1  153.11    7.79
   0   5   0 1694.55   50.45
   0   5   0 1712.05   51.80
   0   5   0 1669.78   52.05
   0   5   0 1721.05   51.64
   0   5   0 1751.36   52.45
   0   5   0 1798.23   50.62
   0   5   0 1698.03   51.59
   0   5   1 1535.08   46.64
   0   5   1 1546.74   47.29
   0   5   1 1500.52   46.32
   0   5   1 1519.71   47.53
   0   5   1 1617.04   46.08
   0   5   1 1518.12   46.38
   0   5   2 1387.88   43.54
   0   5   2 1351.55   41.84
   0   5   2 1375.93   43.49
   0   5   2 1440.17   42.15
   0   5   2 1362.91   41.90
   0   5   3   50.40    4.16
   0   5   3   45.92    5.06
   0   5   3   57.62    4.48
   0   5   3   39.75    4.78
   0   5   3   47.44    4.37
   0   5   4 1081.67   34.30
   0   5   4 1016.50   35.04
   0   5   4 1064.62   35.69
   0   5   5  947.02   31.58
   0   5   5  913.11   32.91
   0   5   5  950.93   32.48
   0   5   6  697.63   25.43
   0   5   6  678.09   25.79
   0   5   6  711.07   26.96
   0   5   7   40.32    6.04
   0   5   7   37.18    5.14
   0   5   8  639.73   25.19
   0   5   8  650.15   26.75
   0   5   9  595.49   25.98
   0   5  10   57.57    7.67
   0   5  11   41.79    7.10
   0   6 -17  188.75   16.90
   0   6 -17  187.90   16.89
   0   6 -16    8.83    6.29
   0   6 -16   14.39    6.84
   0   6 -15    2.09    4.78
   0   6 -15    3.13    4.88
   0   6 -14  437.68   24.11
   0   6 -14  421.58   23.76
   0   6 -13  192.31   15.06
   0   6 -13  247.30   16.67
   0   6 -12   93.52    9.83
   0   6 -12  104.49   10.47
   0   6 -11   29.06    6.10
   0   6 -11   24.57    4.79
   0   6 -11   29.84    6.06
   0   6 -11   23.03    4.37
   0   6 -10  876.26   32.07
   0   6 -10  863.02   32.00
   0   6 -10  896.72   34.30
   0   6 -10  888.67   34.20
   0   6  -9 1324.50   44.15
   0   6  -9 1312.40   44.09
   0   6  -9 1304.27   45.26
   0   6  -8   28.06    4.80
   0   6  -8   25.57    4.90
   0   6  -8   17.01    4.07
   0   6  -7  387.39   15.82
   0   6  -7  421.60   18.20
   0   6  -7  402.52   18.05
   0   6  -7  379.63   17.17
   0   6  -6 1764.57   50.43
   0   6  -6 1639.73   52.45
   0   6  -6 1653.37   51.16
   0   6  -6 1580.33   50.76
   0   6  -6 1680.50   52.73
   0   6  -6 1526.77   50.49
   0   6  -5 1177.78   38.40
   0   6  -5 1225.73   38.82
   0   6  -5 1261.28   41.14
   0   6  -5 1194.26   38.52
   0   6  -5 1238.63   39.98
   0   6  -5 1315.38   41.54
   0   6  -4   25.70    4.64
   0   6  -4   31.18    3.33
   0   6  -4   26.14    3.58
   0   6  -4   24.07    4.35
   0   6  -4   25.06    4.18
   0   6  -4   26.28    3.09
   0   6  -3 1314.31   41.65
   0   6  -3 1276.42   37.93
   0   6  -3 1351.48   40.59
   0   6  -3 1286.36   41.88
   0   6  -3 1229.70   37.82
   0   6  -3 1300.45   41.99
   0   6  -2 1589.44   49.33
   0   6  -2 1603.06   48.22
   0   6  -2 1524.22   48.99
   0   6  -2 1532.58   49.06
   0   6  -1  197.45   10.04
   0   6  -1  209.76   10.68
   0   6  -1  181.28   10.38
   0   6  -1  186.03    8.89
   0   6  -1  208.36   10.69
   0   6   0  268.21   12.75
   0   6   0  254.00   11.99
   0   6   0  251.90   11.96
   0   6   0  228.03   10.52
   0   6   0  256.73   12.02
   0   6   1 2731.58   81.94
   0   6   1 2735.39   81.14
   0   6   1 2702.17   82.37
   0   6   1 3009.03   80.72
   0   6   1 2695.53   81.06
   0   6   2 1089.02   36.63
   0   6   2 1102.54   36.50
   0   6   2 1045.06   34.79
   0   6   2 1149.14   35.01
   0   6   2 1047.60   34.79
   0   6   3   20.35    4.23
   0   6   3   16.03    3.03
   0   6   3    9.36    3.70
   0   6   4  783.15   28.62
   0   6   4  740.38   28.08
   0   6   4  767.26   26.82
   0   6   5  290.47   14.95
   0   6   5  279.68   13.51
   0   6   5  285.99   14.52
   0   6   6  435.34   20.18
   0   6   7   95.52    9.15
   0   6   8   33.86    6.07
   0   6   9   18.97    5.21
   0   6  10   27.60    6.03
   0   6  11    8.59    4.75
   0   7 -17  495.10   28.00
   0   7 -17  504.28   28.15
   0   7 -16  217.35   17.72
   0   7 -16  218.84   17.50
   0   7 -15   15.15    6.56
   0   7 -15   19.22    6.18
   0   7 -14  826.38   36.27
   0   7 -14  889.54   37.14
   0   7 -13  755.97   32.71
   0   7 -13  723.22   32.19
   0   7 -12  151.81   11.04
   0   7 -12  160.59   11.30
   0   7 -12  182.33   13.57
   0   7 -12  147.30   12.52
   0   7 -11  162.06   12.40
   0   7 -11  165.24   11.28
   0   7 -11  162.92   11.29
   0   7 -11  172.57   12.73
   0   7 -10 1668.20   54.94
   0   7 -10 1659.04   55.88
   0   7 -10 1622.53   54.74
   0   7 -10 1734.87   56.23
   0   7  -9  824.38   31.56
   0   7  -9  859.52   31.91
   0   7  -9  816.13   31.40
   0   7  -8    3.54    3.50
   0   7  -8    2.92    3.28
   0   7  -8    6.32    3.33
   0   7  -7  208.70   10.60
   0   7  -7  188.99   12.11
   0   7  -7  205.46   12.48
   0   7  -7  183.93   10.74
   0   7  -6 1075.56   35.75
   0   7  -6 1089.81   38.28
   0   7  -6 1075.31   38.30
   0   7  -6 1108.50   37.28
   0   7  -5  109.83    8.37
   0   7  -5  113.94    7.51
   0   7  -5  105.80    8.73
   0   7  -5  111.16    8.85
   0   7  -4  156.10    9.17
   0   7  -4  174.22   10.74
   0   7  -4  154.23    9.94
   0   7  -4  165.81   10.66
   0   7  -3  223.36   12.36
   0   7  -3  237.05   11.70
   0   7  -3  221.58   12.48
   0   7  -3  245.59   12.99
   0   7  -2  178.93   10.74
   0   7  -2  181.01    9.94
   0   7  -2  161.75   10.23
   0   7  -2  171.67   10.52
   0   7  -1   68.12    6.56
   0   7  -1   53.76    5.74
   0   7  -1   65.87    6.70
   0   7  -1   59.98    6.16
   0   7  -1   63.87    5.09
   0   7   0   11.67    3.43
   0   7   0    8.92    2.51
   0   7   0   15.85    3.71
   0   7   0   13.44    3.59
   0   7   0    6.56    3.28
   0   7   1  587.06   23.47
   0   7   1  616.69   23.19
   0   7   1  589.71   24.00
   0   7   1  643.34   22.30
   0   7   1  611.38   23.13
   0   7   2  880.42   32.80
   0   7   2  928.18   33.40
   0   7   2  968.43   31.43
   0   7   3  540.62   22.67
   0   7   3  534.56   22.70
   0   7   3  565.16   21.09
   0   7   4   34.43    5.47
   0   7   4   29.75    5.13
   0   7   5 1006.59   36.05
   0   7   5  958.06   35.96
   0   7   6  925.54   35.24
   0   7   7  113.66   10.22
   0   7   8   28.45    6.05
   0   7   9  431.60   22.64
   0   7  10  335.70   19.80
   0   8 -17  111.80   12.65
   0   8 -17  106.66   12.19
   0   8 -16   65.12    9.72
   0   8 -16   62.11    9.52
   0   8 -15   11.69    5.86
   0   8 -15    3.90    4.57
   0   8 -14  139.63   12.82
   0   8 -14  168.69   13.88
   0   8 -13  272.12   17.20
   0   8 -13  250.55   16.69
   0   8 -12  805.89   31.45
   0   8 -12  744.83   30.86
   0   8 -11    2.03    3.23
   0   8 -11    2.04    3.63
   0   8 -10  539.12   24.23
   0   8 -10  566.44   24.66
   0   8  -9 1551.80   52.51
   0   8  -9 1553.82   52.65
   0   8  -8 1642.19   56.07
   0   8  -8 1755.26   56.76
   0   8  -7   22.60    5.44
   0   8  -7   26.68    4.23
   0   8  -7   33.67    5.93
   0   8  -7   30.28    5.01
   0   8  -6 1775.43   56.76
   0   8  -6 1823.83   59.56
   0   8  -6 1863.86   58.59
   0   8  -6 1874.48   60.02
   0   8  -5 2944.44   89.23
   0   8  -5 3120.60   92.22
   0   8  -5 3040.35   91.19
   0   8  -5 3038.17   92.09
   0   8  -4  151.47    9.72
   0   8  -4  171.78   11.53
   0   8  -4  139.23   10.33
   0   8  -4  176.97   11.54
   0   8  -3  886.05   30.65
   0   8  -3  835.43   31.64
   0   8  -3  833.44   31.52
   0   8  -3  839.12   31.74
   0   8  -2 2083.98   64.59
   0   8  -2 2029.84   63.12
   0   8  -2 2050.73   64.20
   0   8  -2 1994.31   63.99
   0   8  -1 1295.37   43.73
   0   8  -1 1250.70   42.35
   0   8  -1 1275.52   43.01
   0   8  -1 1279.21   43.04
   0   8   0  219.55   12.34
   0   8   0  205.20   12.11
   0   8   0  214.21   12.90
   0   8   0  215.77   12.41
   0   8   1 1080.41   37.45
   0   8   1 1035.82   37.87
   0   8   2  633.58   26.01
   0   8   2  626.59   25.59
   0   8   3  349.52   17.90
   0   8   3  362.72   17.93
   0   8   4  145.43   11.07
   0   8   4  138.16   10.85
   0   8   5  305.51   17.13
   0   8   6  314.35   17.93
   0   8   7   17.35    5.18
   0   8   8   -0.83    3.90
   0   8   9  161.83   13.46
   0   9 -13  635.05   28.22
   0   9 -13  660.70   28.52
   0   9 -12  275.84   16.49
   0   9 -12  261.40   16.22
   0   9 -11   11.76    4.60
   0   9 -11   11.08    4.68
   0   9 -10  142.51   11.46
   0   9 -10  147.05   11.61
   0   9  -9  312.15   17.50
   0   9  -9  314.34   17.71
   0   9  -8  489.43   22.86
   0   9  -8  481.64   22.70
   0   9  -7   12.68    4.91
   0   9  -7    4.85    4.79
   0   9  -7    9.12    3.99
   0   9  -6   80.07    8.46
   0   9  -6   63.23    7.42
   0   9  -6   81.42    8.48
   0   9  -6   62.36    6.45
   0   9  -5  869.87   31.95
   0   9  -5  922.87   34.43
   0   9  -5  854.07   33.21
   0   9  -5  923.32   34.51
   0   9  -4  211.81   12.26
   0   9  -4  214.74   13.45
   0   9  -4  202.49   12.99
   0   9  -4  228.55   13.87
   0   9  -3  101.12    8.24
   0   9  -3   87.03    8.50
   0   9  -3   90.75    8.75
   0   9  -3   90.87    8.71
   0   9  -2  789.59   29.85
   0   9  -2  827.41   30.96
   0   9  -2  779.56   30.92
   0   9  -2  778.93   30.55
   0   9  -1  924.65   33.69
   0   9  -1  868.47   33.50
   0   9  -1  924.48   34.81
   0   9  -1  953.64   34.33
   0   9   0  178.75   11.67
   0   9   0  170.67   12.05
   0   9   1   13.11    4.19
   0   9   1    9.47    4.39
   0   9   2  505.33   23.10
   0   9   2  541.53   24.03
   0   9   3  649.76   27.22
   0   9   3  617.90   27.25
   0   9   4    0.73    3.83
   0   9   4    2.95    4.44
   0   9   5  156.93   12.37
   0   9   6  421.92   22.16
   0   9   7  165.53   13.52
   0  10 -14   -3.25    3.97
   0  10 -14   -2.45    4.36
   0  10 -13  481.17   23.95
   0  10 -13  497.95   24.24
   0  10 -12  236.60   15.78
   0  10 -12  256.31   16.34
   0  10 -11   85.07    9.28
   0  10 -11   73.70    8.77
   0  10 -10   51.93    7.49
   0  10 -10   66.34    8.28
   0  10  -9 1017.51   39.38
   0  10  -9 1045.10   39.76
   0  10  -8  370.83   19.95
   0  10  -8  396.92   19.31
   0  10  -8  364.12   19.92
   0  10  -7   61.59    7.99
   0  10  -7   45.64    7.31
   0  10  -7   41.79    6.31
   0  10  -6  694.48   29.30
   0  10  -6  708.59   29.03
   0  10  -6  690.13   29.49
   0  10  -5 1165.00   42.08
   0  10  -5 1270.54   44.82
   0  10  -5 1235.67   44.22
   0  10  -5 1301.82   45.22
   0  10  -4  485.89   22.04
   0  10  -4  527.95   23.89
   0  10  -4  516.74   23.71
   0  10  -4  547.88   24.29
   0  10  -3    9.03    4.98
   0  10  -3    2.42    3.01
   0  10  -3    2.06    4.20
   0  10  -3    4.96    4.03
   0  10  -2 1187.00   42.09
   0  10  -2 1146.30   42.96
   0  10  -2 1214.83   42.89
   0  10  -2 1229.05   43.11
   0  10  -1 1004.16   36.84
   0  10  -1  974.22   37.67
   0  10   0  163.49   12.39
   0  10   0  156.86   11.52
   0  10   1   14.34    4.91
   0  10   1   22.28    5.50
   0  10   2  646.80   27.63
   0  10   2  596.34   27.41
   0  10   3  151.76   12.02
   0  10   3  134.76   11.88
   0  10   4    0.80    4.05
   0  10   4    0.81    4.27
   0  10   5   54.33    7.88
   0  10   6  122.21   11.49
   0  11 -14   29.25    6.35
   0  11 -14   38.90    7.06
   0  11 -13  213.23   15.54
   0  11 -13  244.33   16.35
   0  11 -12  405.84   22.14
   0  11 -12  437.10   22.74
   0  11 -11   20.09    5.73
   0  11 -11   12.64    5.34
   0  11 -10   77.03    9.46
   0  11 -10  110.47   11.03
   0  11  -9  393.30   21.21
   0  11  -9  384.22   21.16
   0  11  -8   79.98    9.35
   0  11  -8   74.05    9.10
   0  11  -8   67.85    8.26
   0  11  -7   14.63    5.15
   0  11  -7   18.39    5.47
   0  11  -7    9.60    4.09
   0  11  -6  205.84   14.76
   0  11  -6  228.56   15.32
   0  11  -6  219.52   14.68
   0  11  -5  151.39   11.30
   0  11  -5  183.30   13.19
   0  11  -5  155.69   12.42
   0  11  -5  185.06   13.50
   0  11  -4   92.83    9.60
   0  11  -4   86.50    8.65
   0  11  -4   91.51    9.42
   0  11  -4   74.91    8.74
   0  11  -3   37.56    6.32
   0  11  -3   26.27    5.33
   0  11  -3   26.57    5.82
   0  11  -3   40.84    6.54
   0  11  -2   90.06    8.73
   0  11  -2   82.25    9.55
   0  11  -1  206.77   13.97
   0  11  -1  220.76   15.08
   0  11   0  411.99   21.64
   0  11   0  390.53   20.34
   0  11   1   59.75    8.37
   0  11   1   73.52    8.71
   0  11   2  149.57   12.52
   0  11   2  161.63   13.38
   0  11   3  346.42   20.38
   0  11   3  367.63   20.36
   0  11   4  150.80   12.90
   0  12 -15   66.82    8.85
   0  12 -15   62.57    8.48
   0  12 -14   46.96    7.55
   0  12 -14   57.17    8.23
   0  12 -13   87.97   10.29
   0  12 -13   82.97    9.79
   0  12 -12  143.49   12.97
   0  12 -12  162.20   13.52
   0  12 -11  337.39   20.15
   0  12 -11  344.90   20.45
   0  12 -10    9.71    5.18
   0  12 -10   18.39    5.62
   0  12  -9  202.24   15.13
   0  12  -9  198.27   14.98
   0  12  -8  662.22   30.25
   0  12  -8  688.42   29.62
   0  12  -8  675.32   30.46
   0  12  -7  200.14   14.32
   0  12  -7  199.77   14.64
   0  12  -7  197.02   14.70
   0  12  -6  102.53   10.47
   0  12  -6   97.00   10.45
   0  12  -6   74.49    9.01
   0  12  -5  581.16   27.48
   0  12  -5  601.45   27.97
   0  12  -5  669.89   28.97
   0  12  -4  346.64   18.83
   0  12  -4  359.33   19.96
   0  12  -4  345.03   20.06
   0  12  -4  397.16   20.85
   0  12  -3   39.20    6.44
   0  12  -3   28.89    6.65
   0  12  -2  374.50   20.04
   0  12  -2  376.36   21.19
   0  12  -1  166.20   12.77
   0  12  -1  151.81   13.14
   0  12   0  200.49   14.56
   0  12   0  177.07   14.34
   0  12   1   11.67    5.02
   0  12   1    1.80    4.56
   0  12   2  151.56   13.02
   0  12   2  115.14   11.64
   0  12   3  157.80   13.07
   0  13 -13  331.42   20.20
   0  13 -13  316.16   19.93
   0  13 -12  122.14   12.11
   0  13 -12  138.70   12.90
   0  13 -11   81.74   10.40
   0  13 -11  104.47   11.47
   0  13 -10   32.26    7.12
   0  13 -10   25.60    6.66
   0  13  -9  156.01   13.34
   0  13  -9  152.92   13.45
   0  13  -8  211.33   15.76
   0  13  -8  227.07   15.63
   0  13  -8  220.91   16.08
   0  13  -7   19.77    6.03
   0  13  -7   19.51    5.89
   0  13  -7   16.31    5.39
   0  13  -6    0.89    4.33
   0  13  -6    2.62    4.09
   0  13  -6    1.75    3.91
   0  13  -5  153.86   13.33
   0  13  -5  189.96   14.46
   0  13  -5  190.40   14.53
   0  13  -4  140.62   12.73
   0  13  -3   47.36    7.47
   0  13  -3   35.56    7.37
   0  13  -2   78.35    9.38
   0  13  -2   76.64    9.80
   0  13  -1   41.56    7.30
   0  13  -1   42.98    7.82
   0  13   0  236.42   16.25
   0  13   0  196.60   15.64
   0  13   1    2.87    4.57
   0  14 -11  675.74   31.84
   0  14 -11  718.36   32.69
   0  14 -10  125.66   12.27
   0  14 -10  107.64   11.67
   0  14  -9   60.60    9.10
   0  14  -9   57.22    8.92
   0  14  -8  606.86   28.81
   0  14  -8  608.86   29.14
   0  14  -8  604.20   29.26
   0  14  -7  578.95   28.57
   0  14  -7  611.81   28.99
   0  14  -7  597.55   28.91
   0  14  -6  157.55   13.73
   0  14  -6  151.12   13.49
   0  14  -6  156.79   13.68
   0  14  -5  212.18   15.98
   0  14  -4  618.73   29.77
   0  14  -3  161.08   14.19
   1 -14   1  289.95   21.23
   1 -14   2  157.00   15.37
   1 -14   3   -1.17    5.48
   1 -14   4  414.32   25.71
   1 -14   5  336.45   22.80
   1 -14   6   28.52    7.83
   1 -14   7  153.32   14.93
   1 -14   8  470.75   26.92
   1 -14   9  163.64   15.21
   1 -14  10    1.07    5.42
   1 -14  11  272.33   19.36
   1 -13  -1   44.64    8.45
   1 -13   0  274.23   19.78
   1 -13   1  294.75   20.51
   1 -13   2  220.69   17.51
   1 -13   3    8.79    5.78
   1 -13   4  308.59   21.13
   1 -13   5  269.24   19.59
   1 -13   6  121.73   13.16
   1 -13   7    5.31    5.86
   1 -13   8  271.96   19.39
   1 -13   9  173.26   15.34
   1 -13  10  119.31   12.46
   1 -13  11   86.50   10.88
   1 -12  -2  405.63   24.10
   1 -12  -1   88.32   11.27
   1 -12   0   40.37    8.28
   1 -12   1  336.96   21.57
   1 -12   2  788.44   35.76
   1 -12   3  275.70   19.12
   1 -12   4  230.81   17.55
   1 -12   5  490.04   26.49
   1 -12   6  780.07   35.21
   1 -12   7   18.89    6.53
   1 -12   8  374.88   22.50
   1 -12   9  783.55   34.12
   1 -12   9  780.87   34.80
   1 -12  10   25.39    6.59
   1 -12  10   25.58    6.77
   1 -12  11  172.38   14.61
   1 -12  11  163.33   14.13
   1 -12  12  395.43   22.83
   1 -12  13  177.84   14.82
   1 -12  14   28.07    6.82
   1 -12  15  143.08   13.78
   1 -11  -3  250.59   17.97
   1 -11  -2  576.17   28.66
   1 -11  -1   -2.87    4.48
   1 -11   0  132.29   13.01
   1 -11   1  308.41   19.63
   1 -11   2  397.12   22.66
   1 -11   3   -1.86    4.80
   1 -11   4   26.86    6.56
   1 -11   5   89.07   10.82
   1 -11   5   99.10    9.89
   1 -11   6  412.35   23.38
   1 -11   6  465.33   22.85
   1 -11   7  113.98   10.89
   1 -11   7  123.02   12.30
   1 -11   8    7.67    4.25
   1 -11   8    3.63    4.86
   1 -11   9  485.58   24.55
   1 -11   9  444.03   24.16
   1 -11  10  341.79   20.73
   1 -11  10  348.42   20.49
   1 -11  11  102.97   11.31
   1 -11  12   35.24    7.14
   1 -11  13  589.34   29.03
   1 -11  14   91.63   11.10
   1 -11  15    8.15    4.77
   1 -10  -3   61.74    8.63
   1 -10  -2  151.73   12.97
   1 -10  -1  374.09   21.00
   1 -10   0   81.28    9.84
   1 -10   1  348.48   20.22
   1 -10   1  384.15   19.50
   1 -10   2  838.08   32.44
   1 -10   2  747.99   33.08
   1 -10   3  257.13   15.44
   1 -10   3  244.10   16.46
   1 -10   4   70.39    8.32
   1 -10   4   75.47    9.32
   1 -10   5  777.82   32.06
   1 -10   5  792.98   33.44
   1 -10   6 1002.46   39.45
   1 -10   6  977.84   37.99
   1 -10   7  144.30   12.06
   1 -10   7  168.85   13.42
   1 -10   8  419.55   22.08
   1 -10   8  431.44   22.56
   1 -10   9  819.44   34.03
   1 -10   9  765.69   33.04
   1 -10  10  709.79   31.59
   1 -10  10  691.13   30.37
   1 -10  11   49.15    7.85
   1 -10  12  324.96   20.04
   1 -10  13  441.94   24.33
   1 -10  14   94.51   11.25
   1 -10  15    2.03    5.33
   1 -10  16  168.49   15.21
   1  -9  -8   95.61   11.38
   1  -9  -7   45.05    7.86
   1  -9  -6  391.37   21.94
   1  -9  -5 1023.80   39.89
   1  -9  -4    7.37    4.77
   1  -9  -4   -3.29    4.25
   1  -9  -3  101.54   10.41
   1  -9  -2  766.15   32.04
   1  -9  -1  310.87   17.93
   1  -9   0   25.01    5.77
   1  -9   1  538.90   24.74
   1  -9   1  521.71   23.22
   1  -9   2  333.89   17.22
   1  -9   2  314.56   18.00
   1  -9   3   91.53    9.52
   1  -9   3  100.80    9.09
   1  -9   4   62.07    7.18
   1  -9   4   56.15    7.69
   1  -9   5  375.11   20.06
   1  -9   5  396.81   19.63
   1  -9   6  483.66   23.80
   1  -9   6  515.05   23.55
   1  -9   7  121.37   10.73
   1  -9   7  123.54   11.41
   1  -9   8    7.07    4.34
   1  -9   8    5.27    4.59
   1  -9   9   85.19    9.95
   1  -9   9  105.07   10.02
   1  -9  10  712.69   29.65
   1  -9  10  669.85   30.74
   1  -9  11  396.58   21.89
   1  -9  12    9.90    4.66
   1  -9  13  154.21   13.73
   1  -9  14  276.60   18.60
   1  -9  15  114.36   12.26
   1  -9  16  110.74   12.17
   1  -8  -9  146.49   14.22
   1  -8  -8  123.20   12.80
   1  -8  -7    2.78    4.34
   1  -8  -6  190.10   14.40
   1  -8  -5  878.81   35.54
   1  -8  -5  905.78   35.58
   1  -8  -4  310.16   17.14
   1  -8  -4  313.82   17.70
   1  -8  -3   54.49    6.69
   1  -8  -3   50.09    6.99
   1  -8  -2  489.86   21.35
   1  -8  -2  522.24   23.62
   1  -8  -1 1603.55   52.34
   1  -8  -1 1736.23   56.12
   1  -8   0  432.24   20.68
   1  -8   1   25.51    5.02
   1  -8   1   16.86    4.46
   1  -8   2 2048.42   64.82
   1  -8   2 2047.00   65.93
   1  -8   3 1368.83   45.87
   1  -8   3 1322.10   46.59
   1  -8   4   54.52    6.52
   1  -8   4   49.63    7.01
   1  -8   5 2080.95   67.39
   1  -8   5 2092.17   66.91
   1  -8   6 2406.05   76.12
   1  -8   6 2397.46   76.12
   1  -8   7  376.99   19.37
   1  -8   7  364.51   19.03
   1  -8   8  513.79   24.39
   1  -8   8  547.08   24.15
   1  -8   9 1113.73   41.38
   1  -8   9 1016.93   37.94
   1  -8   9 1102.42   39.59
   1  -8  10  892.24   36.30
   1  -8  11    2.52    4.56
   1  -8  12  159.46   13.19
   1  -8  13  194.11   15.35
   1  -8  14  167.67   14.26
   1  -8  15    7.95    5.23
   1  -8  16   33.14    7.75
   1  -7 -10  195.12   16.74
   1  -7  -9  436.38   24.90
   1  -7  -8  184.32   15.21
   1  -7  -7    5.31    4.65
   1  -7  -6 1284.07   47.25
   1  -7  -5  757.53   30.91
   1  -7  -5  736.29   29.85
   1  -7  -4  374.15   18.81
   1  -7  -4  376.11   18.64
   1  -7  -3  718.79   28.39
   1  -7  -3  753.88   29.22
   1  -7  -2 1118.12   38.87
   1  -7  -2 1193.28   40.79
   1  -7  -1 1299.94   42.44
   1  -7  -1 1339.76   45.04
   1  -7   0    4.24    2.51
   1  -7   0    7.38    3.59
   1  -7   1  451.14   17.03
   1  -7   1  509.65   21.11
   1  -7   1  476.23   19.97
   1  -7   2  956.08   34.00
   1  -7   2  983.54   35.00
   1  -7   3 1057.15   37.77
   1  -7   3 1083.16   37.29
   1  -7   4  166.97   11.38
   1  -7   4  188.67   11.54
   1  -7   5  123.96    9.83
   1  -7   5  122.10    9.60
   1  -7   6 1116.76   39.34
   1  -7   6 1056.47   38.42
   1  -7   7 1501.38   51.47
   1  -7   7 1505.15   50.29
   1  -7   8   70.87    8.09
   1  -7   8   63.52    6.63
   1  -7   8   74.39    7.83
   1  -7   9   98.99    8.23
   1  -7   9   97.77    8.78
   1  -7   9  113.98   10.34
   1  -7  10 1351.47   48.60
   1  -7  11  306.61   18.10
   1  -7  12   -0.84    4.48
   1  -7  13  310.43   19.36
   1  -7  14  730.88   33.02
   1  -7  15   55.64    8.86
   1  -7  16   21.34    7.24
   1  -6 -11   52.36    9.60
   1  -6 -10    1.09    5.08
   1  -6  -9  157.38   14.04
   1  -6  -9  150.99   12.51
   1  -6  -8  254.13   17.43
   1  -6  -8  279.47   16.54
   1  -6  -7  294.22   17.76
   1  -6  -7  242.36   14.86
   1  -6  -6    9.77    5.35
   1  -6  -6   12.57    4.06
   1  -6  -6    9.94    4.17
   1  -6  -5  319.30   17.18
   1  -6  -5  314.09   16.10
   1  -6  -5  308.53   15.22
   1  -6  -4  755.18   29.10
   1  -6  -4  751.35   28.35
   1  -6  -4  723.73   26.73
   1  -6  -3  275.77   14.18
   1  -6  -3  296.67   14.68
   1  -6  -3  271.58   12.52
   1  -6  -2  160.75    9.63
   1  -6  -2  150.41    9.95
   1  -6  -2  149.83    7.98
   1  -6  -1 1921.47   58.76
   1  -6  -1 1998.09   60.86
   1  -6  -1 1940.40   56.39
   1  -6   0  794.48   27.49
   1  -6   0  860.85   27.34
   1  -6   0  843.29   27.27
   1  -6   1    7.17    2.74
   1  -6   1    7.71    2.11
   1  -6   1    4.70    2.60
   1  -6   2 1652.99   48.62
   1  -6   2 1750.03   53.37
   1  -6   2 1764.68   53.87
   1  -6   3 1843.07   57.23
   1  -6   3 1819.61   57.45
   1  -6   4 1158.71   39.33
   1  -6   4 1167.63   39.51
   1  -6   5   36.59    5.28
   1  -6   5   45.72    5.61
   1  -6   6 1101.56   39.24
   1  -6   6 1124.21   38.38
   1  -6   7  730.28   29.14
   1  -6   7  687.75   26.88
   1  -6   8  201.72   13.13
   1  -6   8  192.96   11.31
   1  -6   8  188.40   11.30
   1  -6   9  133.12    9.29
   1  -6   9  142.20    9.32
   1  -6   9  121.59   10.45
   1  -6  10  686.04   26.19
   1  -6  10  647.61   28.28
   1  -6  11   19.75    5.72
   1  -6  12    1.60    3.99
   1  -6  13  229.00   15.92
   1  -6  14  178.27   14.66
   1  -6  15   38.97    7.94
   1  -6  16   -0.99    5.00
   1  -5 -13   40.43    8.26
   1  -5 -12  454.14   27.02
   1  -5 -12  446.78   25.25
   1  -5 -11  381.67   23.70
   1  -5 -11  367.75   21.99
   1  -5 -10   10.41    5.67
   1  -5 -10   15.98    5.49
   1  -5  -9  311.00   19.69
   1  -5  -9  331.09   18.95
   1  -5  -8 1276.24   47.88
   1  -5  -8 1270.92   45.81
   1  -5  -7  359.97   19.55
   1  -5  -7  335.95   16.77
   1  -5  -7  356.81   18.20
   1  -5  -6   20.12    5.39
   1  -5  -6   11.00    3.56
   1  -5  -6   10.86    4.55
   1  -5  -5 1198.05   42.14
   1  -5  -5 1190.62   40.25
   1  -5  -5 1204.59   40.45
   1  -5  -4  923.10   33.56
   1  -5  -4  948.48   32.64
   1  -5  -4  922.14   31.83
   1  -5  -3  177.35   10.51
   1  -5  -3  191.70   10.54
   1  -5  -3  171.91    9.24
   1  -5  -2  515.29   19.84
   1  -5  -2  526.30   20.18
   1  -5  -2  512.82   18.28
   1  -5  -1 3945.28  113.20
   1  -5  -1 4049.08  111.29
   1  -5  -1 4190.93  114.89
   1  -5  -1 3880.77  111.17
   1  -5  -1 3992.55  108.60
   1  -5  -1 3977.19  108.63
   1  -5  -1 4067.85  111.30
   1  -5   0 1599.98   45.95
   1  -5   0 1506.60   46.04
   1  -5   0 1606.35   46.23
   1  -5   0 1633.07   48.62
   1  -5   0 1553.44   46.12
   1  -5   0 1596.21   47.06
   1  -5   0 1489.12   44.13
   1  -5   1   11.82    2.55
   1  -5   1   17.74    2.90
   1  -5   1    9.10    2.30
   1  -5   1   10.35    1.97
   1  -5   1    9.37    1.86
   1  -5   1    8.84    2.30
   1  -5   1   18.95    3.46
   1  -5   1   11.74    2.66
   1  -5   2 1101.97   32.53
   1  -5   2 1163.24   33.37
   1  -5   2 1309.19   36.54
   1  -5   2 1199.20   37.83
   1  -5   2 1228.68   36.51
   1  -5   2 1214.04   37.90
   1  -5   2 1125.25   32.55
   1  -5   2 1257.91   35.85
   1  -5   2 1223.07   36.44
   1  -5   3 5479.04  156.44
   1  -5   3 5619.01  159.09
   1  -5   3 6029.31  161.17
   1  -5   3 5517.65  156.41
   1  -5   3 5838.57  158.95
   1  -5   3 5700.04  159.16
   1  -5   3 6291.99  159.07
   1  -5   3 5715.88  161.27
   1  -5   3 5713.29  159.19
   1  -5   4 1709.31   51.28
   1  -5   4 1888.89   52.83
   1  -5   4 1765.11   54.65
   1  -5   4 1746.27   51.27
   1  -5   4 1720.32   55.19
   1  -5   4 1802.10   52.78
   1  -5   5  257.66   10.98
   1  -5   5  275.77   11.41
   1  -5   5  270.27   13.81
   1  -5   5  257.08   12.84
   1  -5   5  273.86   11.18
   1  -5   6  635.46   21.94
   1  -5   6  620.65   25.03
   1  -5   6  588.39   22.98
   1  -5   6  607.07   23.15
   1  -5   6  661.43   22.21
   1  -5   7 1433.32   47.99
   1  -5   7 1424.09   45.75
   1  -5   7 1437.88   45.33
   1  -5   8 2068.20   62.77
   1  -5   8 2068.47   61.66
   1  -5   8 1952.59   64.69
   1  -5   9   25.62    4.16
   1  -5   9   32.35    5.86
   1  -5  10  624.84   24.45
   1  -5  10  623.13   26.61
   1  -5  11  840.16   33.52
   1  -5  12  384.95   20.43
   1  -5  13   93.19   10.23
   1  -5  14  704.69   31.43
   1  -5  15  264.73   17.96
   1  -5  16    7.72    4.90
   1  -4 -13  117.43   13.86
   1  -4 -13  155.04   14.67
   1  -4 -12  210.92   17.39
   1  -4 -12  166.03   15.09
   1  -4 -11  178.44   15.49
   1  -4 -11  147.16   13.77
   1  -4 -10   34.53    7.46
   1  -4 -10   41.50    7.38
   1  -4  -9   20.62    6.64
   1  -4  -9   33.68    7.17
   1  -4  -8  592.68   27.19
   1  -4  -8  596.45   26.34
   1  -4  -7  588.85   26.14
   1  -4  -7  597.23   23.56
   1  -4  -7  584.62   25.11
   1  -4  -6  283.93   15.78
   1  -4  -6  281.92   13.84
   1  -4  -6  265.38   14.52
   1  -4  -5  191.37   11.85
   1  -4  -5  198.48   10.63
   1  -4  -5  180.56   10.88
   1  -4  -5  181.30    9.09
   1  -4  -5  180.13    9.14
   1  -4  -4  676.14   26.36
   1  -4  -4  724.71   25.52
   1  -4  -4  685.25   25.31
   1  -4  -4  717.95   23.26
   1  -4  -4  724.81   23.31
   1  -4  -3 2375.75   72.02
   1  -4  -3 2555.73   71.67
   1  -4  -3 2463.14   70.80
   1  -4  -3 2364.79   68.28
   1  -4  -3 2382.31   68.31
   1  -4  -2   64.42    3.51
   1  -4  -2   66.80    5.51
   1  -4  -2   68.03    4.45
   1  -4  -2   82.75    5.23
   1  -4  -2   81.97    5.05
   1  -4  -2   61.79    4.24
   1  -4  -2   66.60    3.58
   1  -4  -2   65.50    5.27
   1  -4  -2   71.38    4.55
   1  -4  -2   71.26    3.61
   1  -4  -2   71.36    3.66
   1  -4  -1 2245.90   60.45
   1  -4  -1 2173.39   61.39
   1  -4  -1 2233.89   59.81
   1  -4  -1 2196.93   62.23
   1  -4  -1 2308.82   61.12
   1  -4  -1 2125.71   59.87
   1  -4  -1 2068.23   57.76
   1  -4  -1 2084.31   57.77
   1  -4  -1 2161.99   59.70
   1  -4   0 3436.95   97.63
   1  -4   0 3616.16   98.01
   1  -4   0 3584.72   99.50
   1  -4   0 3748.33   98.80
   1  -4   0 3329.43   96.09
   1  -4   0 3611.38   98.00
   1  -4   0 3406.50   97.56
   1  -4   1 3379.17   95.95
   1  -4   1 3538.24   99.06
   1  -4   1 3447.22   97.68
   1  -4   1 3685.31   99.17
   1  -4   1 3400.90   97.92
   1  -4   1 3558.32   97.36
   1  -4   1 3474.19   97.74
   1  -4   2  368.24   11.73
   1  -4   2  345.11   10.99
   1  -4   2  369.93   13.71
   1  -4   2  392.25   15.00
   1  -4   2  386.83   13.77
   1  -4   2  378.84   14.56
   1  -4   2  413.01   11.91
   1  -4   2  369.54   13.40
   1  -4   2  383.91   13.79
   1  -4   3 8918.33  158.61
   1  -4   3 8087.06  160.08
   1  -4   3 2803.52  156.28
   1  -4   3 8671.31  162.42
   1  -4   3 9150.51  159.00
   1  -4   3 8229.19  163.44
   1  -4   3 7828.61  159.99
   1  -4   3 2732.96  156.24
   1  -4   4 3210.86   87.23
   1  -4   4 3157.32   87.61
   1  -4   4 2901.06   90.09
   1  -4   4 2964.49   88.84
   1  -4   4 3103.84   87.45
   1  -4   5    6.38    2.06
   1  -4   5   10.64    2.36
   1  -4   5    9.96    3.20
   1  -4   5   10.54    1.99
   1  -4   5    6.82    2.15
   1  -4   5    9.84    2.98
   1  -4   5    7.77    1.95
   1  -4   5    8.04    1.03
   1  -4   5   10.76    2.36
   1  -4   6 1023.76   35.27
   1  -4   6 1018.77   33.47
   1  -4   6 1008.84   32.64
   1  -4   7 3684.88  105.73
   1  -4   7 3649.20  104.18
   1  -4   7 3681.81  107.89
   1  -4   8  264.73   12.81
   1  -4   8  275.99   11.64
   1  -4   8  269.96   14.53
   1  -4   9    4.67    3.51
   1  -4   9    4.99    2.54
   1  -4  10  983.01   34.00
   1  -4  10  949.23   35.79
   1  -4  11  383.96   17.50
   1  -4  11  368.07   19.04
   1  -4  12  471.16   22.88
   1  -4  13   34.68    7.03
   1  -4  14  175.34   13.83
   1  -4  15  225.13   16.23
   1  -4  16   57.64    9.75
   1  -3 -14  145.86   15.53
   1  -3 -14  172.88   16.10
   1  -3 -13   47.36    9.38
   1  -3 -13   33.27    8.31
   1  -3 -12  431.41   24.86
   1  -3 -12  384.05   23.17
   1  -3 -11  372.74   22.51
   1  -3 -11  390.70   22.33
   1  -3 -10  297.89   18.90
   1  -3 -10  311.72   18.86
   1  -3  -9  625.54   29.00
   1  -3  -9  693.56   29.23
   1  -3  -9  623.61   25.86
   1  -3  -9  637.73   26.06
   1  -3  -8 1166.00   43.17
   1  -3  -8 1188.73   39.44
   1  -3  -8 1118.86   41.99
   1  -3  -8 1175.58   39.71
   1  -3  -8 1142.11   39.66
   1  -3  -7 1098.68   39.31
   1  -3  -7 1035.95   38.00
   1  -3  -7 1026.29   35.59
   1  -3  -7 1059.79   35.85
   1  -3  -7 1057.26   35.89
   1  -3  -6   98.01    8.54
   1  -3  -6   76.17    6.39
   1  -3  -6   75.80    7.65
   1  -3  -6   92.60    6.87
   1  -3  -6   75.76    6.32
   1  -3  -5 1474.27   48.37
   1  -3  -5 1453.62   45.38
   1  -3  -5 1520.43   46.36
   1  -3  -5 1468.59   45.39
   1  -3  -4 2185.69   67.93
   1  -3  -4 2402.95   64.73
   1  -3  -4 2231.76   66.49
   1  -3  -4 2186.99   65.17
   1  -3  -4 2195.59   65.23
   1  -3  -3  465.84   14.54
   1  -3  -3  545.75   17.09
   1  -3  -3  566.65   17.34
   1  -3  -3  525.60   19.24
   1  -3  -3  541.83   16.96
   1  -3  -3  484.61   14.58
   1  -3  -3  524.19   18.37
   1  -3  -3  514.78   16.90
   1  -3  -3  491.72   16.75
   1  -3  -2  533.50   17.01
   1  -3  -2  510.50   16.94
   1  -3  -2  530.74   18.37
   1  -3  -2  523.24   16.72
   1  -3  -2  509.30   16.18
   1  -3  -2  495.02   15.23
   1  -3  -2  530.48   18.15
   1  -3  -2  506.39   16.54
   1  -3  -2  501.85   15.26
   1  -3  -1 2511.53   69.84
   1  -3  -1 2546.88   71.23
   1  -3  -1 2679.33   71.79
   1  -3  -1 2466.18   71.90
   1  -3  -1 2498.52   70.62
   1  -3  -1 2631.95   72.60
   1  -3  -1 2576.18   71.55
   1  -3  -1 2464.73   70.59
   1  -3   0  209.92    8.40
   1  -3   0  196.88    7.73
   1  -3   0  215.56    8.00
   1  -3   0  195.49    8.53
   1  -3   0  218.28    8.07
   1  -3   1 8844.77  234.59
   1  -3   1 8970.99  235.48
   1  -3   1 9138.90  234.75
   1  -3   1 8750.57  235.95
   1  -3   1 8677.62  232.58
   1  -3   1 8749.42  232.59
   1  -3   2 3035.98   84.48
   1  -3   2 2559.37   83.62
   1  -3   2 3041.01   84.82
   1  -3   2 2954.65   82.00
   1  -3   2 2530.52   83.62
   1  -3   2 3442.19   83.22
   1  -3   2 2947.15   85.76
   1  -3   2 3451.45   83.21
   1  -3   3  242.07    9.75
   1  -3   3  214.09   10.04
   1  -3   3  225.66   11.04
   1  -3   3  288.84    9.75
   1  -3   3  287.76    9.72
   1  -3   4 2078.19   57.53
   1  -3   4 1897.50   59.69
   1  -3   4 2063.55   58.77
   1  -3   4 1994.95   57.29
   1  -3   4 1880.84   55.27
   1  -3   4 1899.57   57.74
   1  -3   4 2001.79   57.36
   1  -3   5  532.66   20.75
   1  -3   5  564.08   18.49
   1  -3   5  549.86   19.60
   1  -3   5  538.58   18.35
   1  -3   5  520.56   17.14
   1  -3   5  531.73   18.35
   1  -3   5  554.35   18.46
   1  -3   6  188.11    8.52
   1  -3   6  203.89    9.73
   1  -3   6  200.33    8.78
   1  -3   6  192.44    8.09
   1  -3   6  187.50    8.21
   1  -3   6  207.58    8.87
   1  -3   6  184.56   10.46
   1  -3   7 1523.59   47.63
   1  -3   7 1565.92   45.36
   1  -3   7 1517.03   49.03
   1  -3   8  667.65   24.09
   1  -3   8  651.22   25.35
   1  -3   9   69.86    6.22
   1  -3   9   52.54    6.56
   1  -3  10  542.83   21.99
   1  -3  10  560.32   23.73
   1  -3  11  739.41   28.16
   1  -3  11  739.98   29.83
   1  -3  12  977.42   37.20
   1  -3  13   27.20    5.94
   1  -3  14  173.01   13.66
   1  -3  15  333.46   20.09
   1  -3  16  166.02   14.22
   1  -2 -15  210.43   18.47
   1  -2 -14    8.42    6.65
   1  -2 -14   12.89    6.48
   1  -2 -13    4.50    5.70
   1  -2 -13    2.20    5.58
   1  -2 -12  109.35   10.51
   1  -2 -12   99.40   11.60
   1  -2 -12   86.05   10.83
   1  -2 -12   83.71    9.47
   1  -2 -11   52.13    7.36
   1  -2 -11   63.58    9.05
   1  -2 -11   62.09    8.99
   1  -2 -11   58.20    7.90
   1  -2 -10   87.59    9.09
   1  -2 -10   95.65   10.39
   1  -2 -10  103.59   10.79
   1  -2 -10  123.44   10.21
   1  -2  -9  130.47   11.60
   1  -2  -9  144.04   11.89
   1  -2  -9  155.20   10.99
   1  -2  -9  140.49   10.87
   1  -2  -8   20.68    4.51
   1  -2  -8   14.69    4.54
   1  -2  -8   29.72    5.64
   1  -2  -8   24.60    5.49
   1  -2  -7  629.03   25.88
   1  -2  -7  599.67   23.77
   1  -2  -7  631.57   24.17
   1  -2  -6    2.07    2.74
   1  -2  -6    2.68    2.86
   1  -2  -6    3.30    2.52
   1  -2  -5    4.92    1.43
   1  -2  -5    1.97    1.42
   1  -2  -5    4.89    2.53
   1  -2  -5    5.86    2.64
   1  -2  -4 3874.77  109.25
   1  -2  -4 3856.63  112.48
   1  -2  -4 3971.06  109.68
   1  -2  -4 3969.02  109.91
   1  -2  -4 4006.66  111.24
   1  -2  -3 1010.58   30.66
   1  -2  -3  991.30   29.48
   1  -2  -3  981.52   31.67
   1  -2  -3  964.97   29.60
   1  -2  -3 1034.19   30.79
   1  -2  -2   71.85    4.11
   1  -2  -2   77.59    3.91
   1  -2  -2   82.29    4.84
   1  -2  -2   71.34    3.80
   1  -2  -2   69.91    2.65
   1  -2  -2   78.35    4.20
   1  -2  -2   68.62    3.48
   1  -2  -2   65.68    2.62
   1  -2  -1  380.43   12.75
   1  -2  -1  404.76   13.25
   1  -2  -1  440.46   13.55
   1  -2  -1  423.34   12.58
   1  -2  -1  425.25   12.56
   1  -2  -1  440.91   13.99
   1  -2  -1  387.70   12.78
   1  -2  -1  438.68   14.11
   1  -2   0 3206.41   89.75
   1  -2   0 3423.08   91.22
   1  -2   0 2925.31   91.09
   1  -2   0 3425.21   90.54
   1  -2   0 3648.01   91.03
   1  -2   0 3446.36   91.54
   1  -2   0 3279.34   90.16
   1  -2   0 3248.86   89.77
   1  -2   0 3427.41   90.56
   1  -2   0 3218.94   89.77
   1  -2   1 2370.53   64.69
   1  -2   1 2367.06   66.01
   1  -2   1 2376.50   64.96
   1  -2   1 2245.49   63.76
   1  -2   1 2394.48   64.73
   1  -2   1 2308.99   64.02
   1  -2   2  415.02   13.13
   1  -2   2  449.81   15.24
   1  -2   2  411.60   14.16
   1  -2   2  419.21   15.55
   1  -2   2  460.24   13.81
   1  -2   2  500.81   14.37
   1  -2   2  514.77   14.41
   1  -2   3   22.45    2.52
   1  -2   3   23.66    2.37
   1  -2   3   15.92    1.98
   1  -2   3   19.56    2.85
   1  -2   3   27.43    2.04
   1  -2   3   19.07    2.36
   1  -2   3   19.51    2.07
   1  -2   3   32.15    2.62
   1  -2   3   20.92    2.37
   1  -2   3   20.48    2.07
   1  -2   4 1233.29   39.09
   1  -2   4 1317.56   37.06
   1  -2   4 1231.53   37.06
   1  -2   4 1264.82   38.18
   1  -2   4 1216.99   36.25
   1  -2   4 1200.56   37.01
   1  -2   4 1307.30   38.26
   1  -2   5  403.51   15.24
   1  -2   5  390.68   14.19
   1  -2   5  414.75   14.29
   1  -2   5  392.85   13.18
   1  -2   5  393.56   14.16
   1  -2   5  422.17   16.14
   1  -2   5  455.10   15.86
   1  -2   6 1396.69   41.68
   1  -2   6 1325.74   39.89
   1  -2   6 1344.03   40.40
   1  -2   6 1300.64   38.64
   1  -2   6 1367.79   42.37
   1  -2   6 1369.93   40.04
   1  -2   7 1217.53   38.72
   1  -2   7 1194.87   37.65
   1  -2   7 1255.34   39.90
   1  -2   8  746.90   26.27
   1  -2   8  725.80   27.07
   1  -2   9   48.52    6.12
   1  -2   9   48.14    5.26
   1  -2  10  586.61   23.42
   1  -2  10  597.49   24.46
   1  -2  11  782.75   29.68
   1  -2  11  804.72   31.02
   1  -2  12  195.78   13.33
   1  -2  13    5.90    4.26
   1  -2  14  102.79   10.33
   1  -2  15  147.71   12.81
   1  -2  16  175.39   14.39
   1  -1 -15  344.44   23.17
   1  -1 -15  368.38   24.29
   1  -1 -14  503.09   27.55
   1  -1 -14  467.47   27.41
   1  -1 -14  470.85   25.44
   1  -1 -14  492.31   25.81
   1  -1 -13   56.55    8.89
   1  -1 -13   65.10    9.98
   1  -1 -13   79.88   10.44
   1  -1 -13   64.68    8.90
   1  -1 -12  185.40   15.32
   1  -1 -12  221.72   16.70
   1  -1 -12  213.43   14.96
   1  -1 -12  191.54   14.52
   1  -1 -11 1121.71   43.68
   1  -1 -11 1103.97   43.61
   1  -1 -11 1119.04   41.80
   1  -1 -11 1087.80   41.60
   1  -1 -10  534.83   25.69
   1  -1 -10  539.24   25.82
   1  -1 -10  542.57   24.46
   1  -1 -10  540.32   24.43
   1  -1  -9  199.11   13.67
   1  -1  -9  178.74   12.28
   1  -1  -9  186.33   12.56
   1  -1  -8  934.14   35.48
   1  -1  -8  934.84   34.37
   1  -1  -8  974.08   34.69
   1  -1  -7 1384.47   48.10
   1  -1  -7 1497.80   47.83
   1  -1  -7 1500.51   47.93
   1  -1  -6  286.88   11.03
   1  -1  -6  308.40   14.61
   1  -1  -6  309.49   11.71
   1  -1  -6  319.42   14.39
   1  -1  -5 1027.98   31.45
   1  -1  -5 1107.44   35.45
   1  -1  -5 1104.64   32.34
   1  -1  -5 1054.79   34.75
   1  -1  -4 2800.77   80.08
   1  -1  -4 2769.89   83.34
   1  -1  -4 3036.44   81.06
   1  -1  -4 2896.64   83.14
   1  -1  -4 2941.74   83.27
   1  -1  -3 3352.11   93.02
   1  -1  -3 3538.49   93.87
   1  -1  -3 3304.72   95.63
   1  -1  -3 3349.52   95.33
   1  -1  -3 3305.02   95.27
   1  -1  -2  428.26   12.90
   1  -1  -2  457.88   13.04
   1  -1  -2  431.85   11.51
   1  -1  -2  447.77   13.40
   1  -1  -1   84.64    3.69
   1  -1  -1   79.51    3.42
   1  -1  -1   89.13    3.75
   1  -1  -1   79.43    3.41
   1  -1  -1   75.00    2.82
   1  -1  -1   82.29    3.18
   1  -1  -1   73.91    2.82
   1  -1   0 2894.87   83.23
   1  -1   0 3111.97   82.83
   1  -1   0 3077.23   82.79
   1  -1   0 3085.55   82.92
   1  -1   0 2951.20   83.03
   1  -1   0 3092.99   82.84
   1  -1   0 3040.98   82.90
   1  -1   0 2830.12   83.12
   1  -1   0 3071.99   82.95
   1  -1   0 3037.27   82.91
   1  -1   1  479.12   15.07
   1  -1   1  449.42   13.60
   1  -1   1  531.12   14.02
   1  -1   1  514.32   14.64
   1  -1   1  394.35   14.93
   1  -1   1  511.65   14.63
   1  -1   1  508.32   14.70
   1  -1   1  460.27   14.43
   1  -1   2 1865.03   45.30
   1  -1   2 1577.96   45.71
   1  -1   2 1514.50   44.61
   1  -1   2 1560.96   45.36
   1  -1   2 1901.16   45.59
   1  -1   2 1516.45   44.62
   1  -1   2 1308.00   44.74
   1  -1   3 2055.98   57.14
   1  -1   3 2035.82   57.98
   1  -1   3 1886.33   55.33
   1  -1   3 2230.43   58.36
   1  -1   3 2073.68   57.15
   1  -1   3 2073.50   58.20
   1  -1   4  196.39    8.17
   1  -1   4  174.75    7.21
   1  -1   4  189.03    8.18
   1  -1   4  171.11    5.90
   1  -1   4  185.16    8.30
   1  -1   4  199.81    8.66
   1  -1   4  187.25    7.34
   1  -1   5 1440.04   41.06
   1  -1   5 1376.51   41.03
   1  -1   5 1381.01   39.49
   1  -1   5 1259.24   37.76
   1  -1   5 1367.17   41.19
   1  -1   5 1403.79   39.56
   1  -1   6  955.78   31.98
   1  -1   6 1036.06   30.52
   1  -1   6 1034.44   32.10
   1  -1   6  956.28   28.83
   1  -1   6 1007.27   32.46
   1  -1   6 1041.43   30.52
   1  -1   7   85.07    6.29
   1  -1   7   84.33    6.48
   1  -1   8 1124.39   36.81
   1  -1   8 1091.32   36.92
   1  -1   9  869.58   30.46
   1  -1   9  838.76   30.68
   1  -1  10  135.00    9.63
   1  -1  10  154.35   10.67
   1  -1  11  430.57   19.81
   1  -1  11  443.05   20.30
   1  -1  12  444.06   20.97
   1  -1  12  482.07   22.26
   1  -1  13  157.36   12.33
   1  -1  14   20.19    5.49
   1  -1  15  229.16   15.84
   1   0 -16   45.60    8.60
   1   0 -16   32.96    9.07
   1   0 -16   36.84    7.91
   1   0 -15  141.38   14.24
   1   0 -15  132.75   14.49
   1   0 -15  134.24   13.59
   1   0 -15  157.96   14.42
   1   0 -14  213.86   17.07
   1   0 -14  226.78   17.08
   1   0 -14  215.94   17.79
   1   0 -14  269.96   18.39
   1   0 -13   29.63    7.01
   1   0 -13   36.25    7.29
   1   0 -13   45.57    8.71
   1   0 -13   45.40    7.90
   1   0 -12   21.43    5.99
   1   0 -12   12.04    4.97
   1   0 -12   15.63    5.89
   1   0 -12   13.73    5.69
   1   0 -11  324.45   19.00
   1   0 -11  302.57   19.00
   1   0 -11  336.07   18.78
   1   0 -11  312.87   18.38
   1   0 -10  562.88   25.91
   1   0 -10  572.23   25.74
   1   0 -10  589.56   26.03
   1   0  -9   13.71    4.79
   1   0  -9   18.95    5.05
   1   0  -9   23.52    5.15
   1   0  -8   81.28    7.96
   1   0  -8   69.23    7.30
   1   0  -7 1877.99   58.50
   1   0  -7 1833.31   58.61
   1   0  -6 1201.27   34.64
   1   0  -6 1213.95   35.72
   1   0  -6 1252.19   40.11
   1   0  -6 1283.13   36.90
   1   0  -6 1259.56   40.51
   1   0  -6 1209.70   34.65
   1   0  -5    9.20    2.90
   1   0  -5    2.25    1.36
   1   0  -5    5.28    1.03
   1   0  -5    5.69    0.93
   1   0  -5    7.80    1.62
   1   0  -5    7.33    2.61
   1   0  -5    6.35    2.01
   1   0  -5    5.87    0.96
   1   0  -4 1697.08   51.60
   1   0  -4 1645.62   47.85
   1   0  -4 1745.95   47.80
   1   0  -4 1699.06   49.31
   1   0  -4 1718.94   51.29
   1   0  -4 1694.25   49.17
   1   0  -4 1680.34   51.56
   1   0  -4 1800.72   47.87
   1   0  -3 5968.63  169.21
   1   0  -3 6147.82  166.14
   1   0  -3 6069.72  169.27
   1   0  -3 6436.13  167.72
   1   0  -3 5891.32  166.49
   1   0  -3 6298.27  169.31
   1   0  -3 6591.37  167.53
   1   0  -3 5916.49  166.49
   1   0  -2 2528.51   71.49
   1   0  -2 2728.87   73.48
   1   0  -2 2665.96   73.39
   1   0  -2 2622.45   71.98
   1   0  -2 2619.74   71.52
   1   0  -2 2662.07   73.62
   1   0  -1 2561.04   68.10
   1   0  -1 2621.75   69.12
   1   0  -1 2402.81   67.71
   1   0  -1 2332.78   68.20
   1   0  -1 2553.37   68.09
   1   0  -1 2505.03   69.02
   1   0   0 7730.52  208.32
   1   0   0 7811.30  208.04
   1   0   0 7550.81  207.68
   1   0   0 7635.68  208.32
   1   0   1 6815.63  184.55
   1   0   1 6667.16  184.53
   1   0   1 6837.90  184.57
   1   0   1 6448.63  183.89
   1   0   2  503.73   15.83
   1   0   2  503.11   15.66
   1   0   2  482.71   15.99
   1   0   2  495.49   15.81
   1   0   2  482.22   15.46
   1   0   2  517.90   15.72
   1   0   2  497.06   16.25
   1   0   3 5533.53  156.91
   1   0   3 6200.72  158.63
   1   0   3 5852.04  156.72
   1   0   3 5556.53  157.49
   1   0   3 5803.95  156.72
   1   0   3 5596.24  157.78
   1   0   3 5555.71  157.76
   1   0   4 6537.74  105.92
   1   0   4 6630.22  102.34
   1   0   4 6430.83  104.58
   1   0   4 6484.62  103.63
   1   0   4 6656.07  102.36
   1   0   4 6459.05  105.20
   1   0   4 6448.57  105.21
   1   0   5  977.52   28.63
   1   0   5  974.87   30.33
   1   0   5 1007.28   31.09
   1   0   5  880.65   26.96
   1   0   5  966.17   29.85
   1   0   5  975.22   28.62
   1   0   6  469.93   16.24
   1   0   6  461.41   17.56
   1   0   6  470.49   15.72
   1   0   6  436.81   17.04
   1   0   6  451.85   16.14
   1   0   6  472.87   15.73
   1   0   7 1169.37   35.40
   1   0   7 1156.90   37.33
   1   0   7 1143.53   35.37
   1   0   7 1115.38   36.93
   1   0   8 1435.86   45.81
   1   0   8 1421.27   45.57
   1   0   9  169.12   10.55
   1   0   9  175.26   10.68
   1   0  10    5.86    3.64
   1   0  10    8.25    3.31
   1   0  11  185.31   12.14
   1   0  11  175.12   11.92
   1   0  12  290.16   16.42
   1   0  12  304.43   16.54
   1   0  13   32.59    6.13
   1   0  14    9.17    4.48
   1   1 -16   14.49    6.81
   1   1 -16   23.54    7.85
   1   1 -16   18.96    6.64
   1   1 -15  275.19   20.39
   1   1 -15  270.77   19.41
   1   1 -15  280.91   19.77
   1   1 -14  434.48   24.67
   1   1 -14  449.87   25.75
   1   1 -14  437.20   24.62
   1   1 -14  471.04   25.43
   1   1 -13  123.03   12.40
   1   1 -13  134.36   13.17
   1   1 -13  139.33   13.02
   1   1 -13  169.29   13.83
   1   1 -12   12.23    6.27
   1   1 -12    8.65    4.55
   1   1 -12   13.11    5.27
   1   1 -11 1426.40   50.89
   1   1 -11 1420.83   51.22
   1   1 -11 1434.86   51.34
   1   1 -10 1159.75   42.44
   1   1 -10 1165.74   42.99
   1   1 -10 1193.25   43.29
   1   1  -9   85.85    8.80
   1   1  -9   85.46    8.26
   1   1  -8  482.83   20.88
   1   1  -8  526.42   22.30
   1   1  -7 4221.16  128.77
   1   1  -7 4491.16  123.01
   1   1  -7 4340.35  127.70
   1   1  -7 4527.88  123.03
   1   1  -6  994.08   34.41
   1   1  -6  961.28   29.41
   1   1  -6 1023.89   30.06
   1   1  -6 1003.10   33.36
   1   1  -6 1042.06   30.97
   1   1  -6  965.53   34.31
   1   1  -6 1048.69   30.14
   1   1  -5  166.89    9.28
   1   1  -5  162.96    6.00
   1   1  -5  162.40    6.89
   1   1  -5  161.52    7.17
   1   1  -5  165.63    8.54
   1   1  -5  177.95    9.52
   1   1  -5  167.05    7.31
   1   1  -5  165.53    6.96
   1   1  -4 1465.83   46.06
   1   1  -4 1436.25   42.00
   1   1  -4 1531.31   43.75
   1   1  -4 1643.63   44.15
   1   1  -4 1674.46   45.95
   1   1  -4 1545.84   43.74
   1   1  -4 1508.92   46.21
   1   1  -4 1523.46   43.76
   1   1  -3 1616.23   49.08
   1   1  -3 1735.39   47.70
   1   1  -3 1712.80   49.05
   1   1  -3 1628.29   46.41
   1   1  -3 1605.81   49.03
   1   1  -3 1728.33   47.35
   1   1  -3 1743.99   48.26
   1   1  -3 1682.28   47.64
   1   1  -2 1204.09   34.21
   1   1  -2 1186.13   35.10
   1   1  -2 1178.22   34.16
   1   1  -2 1227.38   35.18
   1   1  -2 1192.11   33.48
   1   1  -2 1208.80   34.83
   1   1  -2 1177.56   33.52
   1   1  -2 1215.60   34.91
   1   1  -1  173.09    6.43
   1   1  -1  169.27    5.68
   1   1  -1  188.13    6.87
   1   1  -1  187.79    6.55
   1   1  -1  182.95    6.66
   1   1  -1  181.03    6.65
   1   1  -1  174.00    6.57
   1   1  -1  184.25    7.13
   1   1   0 1723.00   48.07
   1   1   0 1723.99   48.08
   1   1   0 1679.93   47.63
   1   1   0 1672.94   48.34
   1   1   0 1721.94   48.06
   1   1   0 1689.74   48.04
   1   1   0 1736.93   48.11
   1   1   1 2731.28   75.50
   1   1   1 2789.36   75.61
   1   1   1 2629.33   74.19
   1   1   1 2661.16   75.02
   1   1   1 2789.76   75.56
   1   1   1 2718.46   75.62
   1   1   1 2763.24   75.66
   1   1   1 2750.40   75.71
   1   1   2  811.91   17.74
   1   1   2  823.06   18.36
   1   1   2  784.54   16.67
   1   1   2  759.90   16.13
   1   1   2  795.10   17.66
   1   1   2  852.23   19.56
   1   1   2  830.01   18.47
   1   1   3  448.60   15.08
   1   1   3  474.41   16.98
   1   1   3  459.25   14.87
   1   1   3  453.83   15.85
   1   1   3  428.03   14.75
   1   1   3  458.53   15.13
   1   1   3  444.53   14.82
   1   1   3  484.30   16.87
   1   1   3  472.08   16.05
   1   1   3  463.82   16.01
   1   1   4 4609.01  129.60
   1   1   4 4732.37  132.16
   1   1   4 4928.95  129.44
   1   1   4 4517.86  130.78
   1   1   4 4430.92  129.70
   1   1   4 4562.81  129.59
   1   1   4 4862.95  129.43
   1   1   4 4731.76  131.20
   1   1   4 4730.54  131.23
   1   1   5 2108.96   60.61
   1   1   5 2154.86   60.23
   1   1   5 2090.82   62.27
   1   1   5 2016.45   61.16
   1   1   5 2089.58   60.59
   1   1   5 2154.40   60.25
   1   1   6  665.22   21.65
   1   1   6  673.65   23.63
   1   1   6  631.00   22.54
   1   1   6  656.32   21.62
   1   1   7  888.72   30.55
   1   1   7  875.09   29.69
   1   1   8  827.89   30.03
   1   1   8  850.20   29.45
   1   1   9 1557.14   50.63
   1   1   9 1546.11   49.75
   1   1  10    6.90    3.85
   1   1  10   11.17    3.94
   1   1  11  220.27   13.65
   1   1  11  206.55   12.84
   1   1  12  456.02   21.83
   1   1  12  429.81   20.76
   1   2 -16    5.68    5.43
   1   2 -16    3.60    5.75
   1   2 -16    4.55    5.21
   1   2 -15  153.95   14.94
   1   2 -15  193.00   16.59
   1   2 -15  169.04   15.23
   1   2 -14  268.20   19.20
   1   2 -14  258.03   18.35
   1   2 -14  274.99   18.73
   1   2 -13  128.76   13.06
   1   2 -13  150.15   13.33
   1   2 -13  168.96   14.00
   1   2 -12    4.42    4.72
   1   2 -12   -0.88    4.88
   1   2 -12    3.99    4.05
   1   2 -11  545.37   24.51
   1   2 -11  547.91   25.68
   1   2 -11  527.16   25.44
   1   2 -10  840.81   32.58
   1   2 -10  887.62   34.53
   1   2  -9  694.51   26.80
   1   2  -9  663.61   28.08
   1   2  -8   86.61    8.20
   1   2  -8   85.27    5.28
   1   2  -8   78.18    6.76
   1   2  -8   80.38    5.18
   1   2  -7 2573.39   80.11
   1   2  -7 2701.69   75.70
   1   2  -7 2545.52   78.17
   1   2  -7 2592.99   80.25
   1   2  -7 2699.96   75.71
   1   2  -6 2408.88   76.45
   1   2  -6 2476.57   71.13
   1   2  -6 2588.35   73.29
   1   2  -6 2458.50   74.68
   1   2  -6 2594.64   73.24
   1   2  -6 2496.94   76.66
   1   2  -6 2605.90   73.08
   1   2  -6 2652.05   73.47
   1   2  -6 2670.62   73.34
   1   2  -5 1989.65   64.11
   1   2  -5 2128.91   62.15
   1   2  -5 2289.21   62.20
   1   2  -5 2124.00   63.22
   1   2  -5 1974.10   64.06
   1   2  -5 2117.31   61.69
   1   2  -5 2167.00   62.29
   1   2  -5 2294.65   61.91
   1   2  -4  107.34    5.23
   1   2  -4  116.89    6.66
   1   2  -4  105.36    4.72
   1   2  -4  113.67    5.90
   1   2  -4  103.92    5.67
   1   2  -4   98.21    5.74
   1   2  -4   98.40    6.19
   1   2  -4  101.59    5.29
   1   2  -4   88.60    5.45
   1   2  -3 1186.03   36.58
   1   2  -3 1190.80   33.95
   1   2  -3 1315.02   35.49
   1   2  -3 1118.59   36.37
   1   2  -3 1222.44   36.01
   1   2  -3 1216.91   35.09
   1   2  -3 1208.77   35.82
   1   2  -3 1278.62   36.05
   1   2  -3 1199.10   35.95
   1   2  -2 2460.12   69.70
   1   2  -2 2371.70   69.70
   1   2  -2 2424.46   67.99
   1   2  -2 2426.69   70.24
   1   2  -2 2582.08   69.61
   1   2  -2 2489.02   68.66
   1   2  -2 2422.98   68.97
   1   2  -2 2493.75   69.42
   1   2  -2 2518.59   69.82
   1   2  -2 2549.10   69.57
   1   2  -1    7.43    1.59
   1   2  -1   13.50    2.09
   1   2  -1    9.08    1.43
   1   2  -1   11.84    1.79
   1   2  -1    9.69    2.24
   1   2  -1   10.41    1.42
   1   2  -1   11.26    1.71
   1   2  -1   13.22    1.54
   1   2  -1   13.19    1.54
   1   2   0  336.27   11.53
   1   2   0  336.27   11.25
   1   2   0  354.67   11.42
   1   2   0  326.57   12.13
   1   2   0  339.26   11.56
   1   2   0  330.13   11.23
   1   2   0  320.93    9.94
   1   2   0  335.55   12.59
   1   2   0  345.99   11.34
   1   2   1 3265.65   91.36
   1   2   1 3370.54   90.09
   1   2   1 3185.08   93.10
   1   2   1 3355.34   91.68
   1   2   1 3168.56   91.35
   1   2   1 3248.22   91.35
   1   2   1 3306.15   91.29
   1   2   1 3274.25   91.26
   1   2   1 3253.37   91.32
   1   2   2  269.36    9.83
   1   2   2  264.30    9.10
   1   2   2  257.17   10.23
   1   2   2  237.90    9.19
   1   2   2  254.25    9.68
   1   2   2  279.45   11.14
   1   2   2  252.33   10.03
   1   2   3   72.34    4.37
   1   2   3   73.42    5.08
   1   2   3   78.19    4.39
   1   2   3   67.03    4.28
   1   2   3   72.00    4.03
   1   2   3   69.48    5.53
   1   2   3   78.83    5.07
   1   2   3   81.15    5.13
   1   2   4 2996.57   88.00
   1   2   4 3247.76   87.91
   1   2   4 3143.09   89.89
   1   2   4 3135.74   88.38
   1   2   4 3020.70   88.03
   1   2   4 3238.53   87.93
   1   2   5 2112.43   62.14
   1   2   5 2246.77   64.66
   1   2   5 2154.19   63.01
   1   2   5 2159.28   62.22
   1   2   6   65.15    5.81
   1   2   6   65.60    5.48
   1   2   7  239.23   12.39
   1   2   7  216.71   11.13
   1   2   8  958.38   34.18
   1   2   8  961.96   32.85
   1   2   9  462.54   20.61
   1   2   9  457.77   19.48
   1   2  10    4.44    3.87
   1   2  10   15.13    4.09
   1   2  11   86.60    8.99
   1   2  12  104.84    9.94
   1   3 -17  171.77   16.49
   1   3 -17  197.68   17.23
   1   3 -17  210.42   18.04
   1   3 -16  105.88   13.22
   1   3 -16   83.04   11.33
   1   3 -16   78.69   11.48
   1   3 -15   84.14   11.31
   1   3 -15   80.53   10.85
   1   3 -15   84.18   11.02
   1   3 -14  288.20   19.79
   1   3 -14  311.30   20.03
   1   3 -14  298.71   19.81
   1   3 -13  798.16   35.31
   1   3 -13  831.08   35.69
   1   3 -12   49.39    8.19
   1   3 -12   31.72    7.06
   1   3 -11  891.79   33.81
   1   3 -11  898.97   36.26
   1   3 -10 1405.17   47.70
   1   3 -10 1455.12   50.40
   1   3  -9  725.11   29.69
   1   3  -9  740.42   25.15
   1   3  -9  731.37   27.51
   1   3  -9  726.28   25.09
   1   3  -8   43.87    6.16
   1   3  -8   48.35    4.67
   1   3  -8   56.35    6.80
   1   3  -8   48.88    5.17
   1   3  -8   56.03    5.09
   1   3  -7 2971.22   91.07
   1   3  -7 2987.23   91.19
   1   3  -7 3098.53   88.07
   1   3  -7 2909.16   88.52
   1   3  -7 3103.68   86.69
   1   3  -7 3149.64   88.27
   1   3  -6 1883.77   60.52
   1   3  -6 2110.61   58.35
   1   3  -6 1965.37   58.82
   1   3  -6 1956.06   58.91
   1   3  -6 1888.58   60.51
   1   3  -6 1985.72   57.24
   1   3  -6 1956.84   58.86
   1   3  -5  830.56   29.30
   1   3  -5  977.29   28.07
   1   3  -5  836.89   28.39
   1   3  -5  909.31   28.43
   1   3  -5  833.44   28.06
   1   3  -5  782.13   28.97
   1   3  -5  925.33   27.06
   1   3  -5  879.70   27.23
   1   3  -5  822.40   28.35
   1   3  -4   83.30    5.65
   1   3  -4   82.76    5.60
   1   3  -4   88.77    4.99
   1   3  -4  100.29    4.34
   1   3  -4   99.45    5.35
   1   3  -4   87.60    5.85
   1   3  -4   84.84    4.94
   1   3  -4   95.41    5.15
   1   3  -4   91.32    5.92
   1   3  -3 2169.59   65.49
   1   3  -3 2347.68   63.96
   1   3  -3 2259.48   65.88
   1   3  -3 2317.02   65.07
   1   3  -3 2135.65   65.44
   1   3  -3 2307.08   65.15
   1   3  -3 2287.71   64.91
   1   3  -3 2406.80   65.43
   1   3  -3 2282.03   65.92
   1   3  -2 1039.38   31.56
   1   3  -2 1078.09   32.15
   1   3  -2 1083.38   31.33
   1   3  -2 1112.77   32.75
   1   3  -2 1148.71   34.17
   1   3  -2 1064.76   31.37
   1   3  -2 1060.55   32.26
   1   3  -2 1051.87   32.09
   1   3  -2 1052.14   31.60
   1   3  -2 1053.95   31.63
   1   3  -2 1043.69   32.51
   1   3  -2 1075.66   32.63
   1   3  -1   30.68    2.94
   1   3  -1   30.04    3.04
   1   3  -1   27.22    2.53
   1   3  -1   21.89    2.83
   1   3  -1   28.12    3.49
   1   3  -1   31.52    3.04
   1   3  -1   22.84    2.19
   1   3  -1   25.94    2.25
   1   3  -1   24.11    2.23
   1   3   0  176.57    7.94
   1   3   0  168.82    8.75
   1   3   0  174.64    7.79
   1   3   0  187.37    8.07
   1   3   0  195.07    8.87
   1   3   0  189.80    8.43
   1   3   0  199.34    7.60
   1   3   0  201.10    7.61
   1   3   0  193.43    6.76
   1   3   0  201.27    7.65
   1   3   1  157.18    6.08
   1   3   1  155.93    7.07
   1   3   1  164.38    8.59
   1   3   1  151.29    7.26
   1   3   1  145.96    6.93
   1   3   1  153.17    7.26
   1   3   1  140.95    6.60
   1   3   1  148.73    7.61
   1   3   1  148.91    6.73
   1   3   1  156.25    6.88
   1   3   2 1520.49   45.03
   1   3   2 1569.91   44.31
   1   3   2 1522.49   45.96
   1   3   2 1514.05   45.03
   1   3   2 1502.17   44.93
   1   3   2 1532.84   46.79
   1   3   2 1554.67   45.40
   1   3   3  254.82   10.63
   1   3   3  293.16   10.82
   1   3   3  296.38   12.26
   1   3   3  268.48   10.78
   1   3   3  267.44   10.68
   1   3   3  269.87   11.46
   1   3   3  297.36   11.77
   1   3   4    3.63    1.48
   1   3   4    2.17    2.31
   1   3   4    3.64    1.50
   1   3   4    5.76    2.03
   1   3   5 1216.63   37.03
   1   3   5 1226.78   37.77
   1   3   5 1198.21   39.35
   1   3   5 1203.69   36.98
   1   3   6  540.97   19.86
   1   3   6  524.45   21.22
   1   3   7  411.40   17.13
   1   3   7  427.92   18.66
   1   3   8  859.26   29.64
   1   3   8  790.35   30.72
   1   3   9  542.88   23.62
   1   3  10  143.57   11.17
   1   3  11   11.80    4.62
   1   3  12  384.86   20.93
   1   4 -17   26.00    8.12
   1   4 -17   48.48    9.33
   1   4 -17   26.05    7.97
   1   4 -16   89.32   12.11
   1   4 -16   63.79   10.56
   1   4 -16   81.49   11.61
   1   4 -15    1.07    5.01
   1   4 -15    2.07    4.73
   1   4 -15   -3.22    5.13
   1   4 -14   57.47    9.40
   1   4 -14   53.50    8.83
   1   4 -13  320.62   20.04
   1   4 -13  309.58   19.64
   1   4 -12   61.16    8.77
   1   4 -11   12.87    4.92
   1   4 -10  154.70   12.11
   1   4  -9 1414.54   48.64
   1   4  -9 1410.58   44.81
   1   4  -9 1311.53   45.09
   1   4  -9 1445.37   48.93
   1   4  -9 1462.25   45.05
   1   4  -8  516.76   21.84
   1   4  -8  482.66   19.13
   1   4  -8  460.43   18.85
   1   4  -8  459.04   21.08
   1   4  -8  494.75   19.35
   1   4  -7   19.26    3.83
   1   4  -7   19.34    3.77
   1   4  -7   27.20    4.47
   1   4  -7   29.19    3.75
   1   4  -6  768.72   28.66
   1   4  -6  848.61   26.56
   1   4  -6  806.16   24.99
   1   4  -6  862.70   27.47
   1   4  -6  811.22   28.29
   1   4  -6  803.47   27.18
   1   4  -6  824.97   29.06
   1   4  -6  822.32   26.13
   1   4  -6  803.89   28.30
   1   4  -5 4005.41  120.55
   1   4  -5 4435.76  117.77
   1   4  -5 3874.80  120.35
   1   4  -5 4129.96  120.75
   1   4  -5 4408.91  119.95
   1   4  -5 4039.91  119.06
   1   4  -5 4341.51  118.71
   1   4  -5 4584.41  118.90
   1   4  -5 4108.47  120.72
   1   4  -4  388.46   15.04
   1   4  -4  404.88   15.17
   1   4  -4  401.59   13.62
   1   4  -4  367.62   15.48
   1   4  -4  388.99   14.75
   1   4  -4  379.86   13.93
   1   4  -4  404.39   14.91
   1   4  -4  419.28   14.49
   1   4  -4  393.84   15.73
   1   4  -3 2256.26   66.19
   1   4  -3 2314.50   65.36
   1   4  -3 2244.70   65.90
   1   4  -3 2336.06   67.51
   1   4  -3 2331.47   68.55
   1   4  -3 2392.96   66.88
   1   4  -3 2207.89   66.07
   1   4  -3 2306.39   67.43
   1   4  -3 2352.33   66.35
   1   4  -2 4727.70  135.45
   1   4  -2 4743.92  134.48
   1   4  -2 4853.16  134.47
   1   4  -2 4791.58  135.79
   1   4  -2 5052.07  137.61
   1   4  -2 4830.80  135.64
   1   4  -2 4654.99  134.44
   1   4  -2 4908.69  134.02
   1   4  -2 5013.30  134.07
   1   4  -2 4995.05  134.06
   1   4  -2 4776.92  135.76
   1   4  -1 2296.56   70.23
   1   4  -1 2435.52   69.07
   1   4  -1 2363.90   69.67
   1   4  -1 2410.22   71.18
   1   4  -1 2450.35   68.11
   1   4  -1 2386.65   69.90
   1   4  -1 2464.40   68.13
   1   4  -1 2444.95   68.14
   1   4  -1 2368.23   69.66
   1   4   0  348.89   13.58
   1   4   0  355.46   14.79
   1   4   0  361.13   13.67
   1   4   0  360.20   13.68
   1   4   0  369.55   14.60
   1   4   0  342.33   12.43
   1   4   0  348.28   14.05
   1   4   0  366.77   12.60
   1   4   0  356.48   12.02
   1   4   0  362.44   12.65
   1   4   1 2793.53   80.27
   1   4   1 2842.16   80.78
   1   4   1 2773.41   80.22
   1   4   1 2721.20   80.59
   1   4   1 2790.33   81.18
   1   4   1 2815.64   79.32
   1   4   1 2789.46   81.10
   1   4   1 2806.40   79.32
   1   4   1 2865.79   78.63
   1   4   1 2804.33   79.43
   1   4   2 4511.31  120.00
   1   4   2 4266.14  120.88
   1   4   2 4280.59  122.05
   1   4   2 4248.10  120.87
   1   4   2 4255.57  120.99
   1   4   2 4236.95  122.18
   1   4   3  271.74   11.57
   1   4   3  306.09   11.59
   1   4   3  294.90   13.07
   1   4   3  270.58   11.53
   1   4   3  296.06   12.99
   1   4   4  143.66    7.50
   1   4   4  148.75    7.70
   1   4   4  149.19    9.14
   1   4   4  139.59    7.43
   1   4   4  134.15    8.56
   1   4   5  578.37   20.28
   1   4   5  512.71   21.05
   1   4   5  566.24   21.96
   1   4   6 1140.51   38.95
   1   4   6 1134.48   38.19
   1   4   7   60.02    6.95
   1   4   7   57.78    6.25
   1   4   8  120.54    9.92
   1   4   9  204.71   13.48
   1   4  10  239.15   15.31
   1   4  11   17.46    5.60
   1   4  12  118.79   11.44
   1   5 -17  197.22   17.67
   1   5 -17  197.15   17.41
   1   5 -16  264.58   19.73
   1   5 -16  273.12   19.95
   1   5 -15    4.22    5.55
   1   5 -15    3.17    4.84
   1   5 -14  493.13   26.35
   1   5 -14  521.66   26.92
   1   5 -13  866.85   36.60
   1   5 -13  851.72   36.43
   1   5 -12  117.71   11.54
   1   5 -11    7.13    4.02
   1   5 -10 1380.00   50.44
   1   5 -10 1481.92   47.57
   1   5 -10 1495.82   47.65
   1   5  -9  607.34   26.56
   1   5  -9  691.44   25.42
   1   5  -9  644.22   27.08
   1   5  -9  653.64   25.17
   1   5  -8   11.78    3.62
   1   5  -8    7.59    3.61
   1   5  -8    7.70    3.42
   1   5  -8    5.86    3.24
   1   5  -7  144.93    9.66
   1   5  -7  152.75    8.21
   1   5  -7  139.06    9.40
   1   5  -7  136.98    8.08
   1   5  -7  139.48    9.46
   1   5  -7  155.32    9.77
   1   5  -6  633.23   24.13
   1   5  -6  649.02   24.22
   1   5  -6  691.91   21.64
   1   5  -6  615.26   24.30
   1   5  -6  677.19   23.14
   1   5  -6  622.19   24.37
   1   5  -5   98.16    6.79
   1   5  -5   95.76    5.60
   1   5  -5   92.52    7.20
   1   5  -5   94.89    6.63
   1   5  -5   90.37    6.48
   1   5  -5  103.62    6.61
   1   5  -5  114.28    7.84
   1   5  -4    3.62    2.75
   1   5  -4    1.79    1.43
   1   5  -4    1.49    1.30
   1   5  -4    2.43    1.42
   1   5  -4    2.64    1.67
   1   5  -4    0.80    2.48
   1   5  -4    3.25    1.68
   1   5  -4    1.02    2.09
   1   5  -3  921.13   29.65
   1   5  -3  868.59   28.91
   1   5  -3  945.63   29.17
   1   5  -3  929.32   30.52
   1   5  -3  929.26   30.96
   1   5  -3  919.99   28.40
   1   5  -3  898.25   29.01
   1   5  -3  934.60   28.45
   1   5  -3  955.64   28.53
   1   5  -3  918.28   30.89
   1   5  -2  694.81   24.52
   1   5  -2  701.10   23.07
   1   5  -2  740.74   23.93
   1   5  -2  735.88   25.07
   1   5  -2  721.30   24.92
   1   5  -2  716.07   22.61
   1   5  -2  703.97   23.06
   1   5  -2  716.06   22.61
   1   5  -2  741.39   22.72
   1   5  -2  714.70   24.92
   1   5  -1  633.02   21.75
   1   5  -1  618.14   22.23
   1   5  -1  652.70   22.77
   1   5  -1  622.85   22.28
   1   5   0  173.13    8.61
   1   5   0  153.46    8.25
   1   5   0  145.72    8.60
   1   5   0  150.50    6.73
   1   5   0  147.58    8.09
   1   5   1 1470.23   45.38
   1   5   1 1396.68   44.54
   1   5   1 1464.01   45.91
   1   5   1 1509.39   43.17
   1   5   1 1430.09   44.66
   1   5   2 1221.41   39.34
   1   5   2 1311.94   40.91
   1   5   2 1254.32   39.49
   1   5   2 1263.32   40.91
   1   5   2 1276.81   38.24
   1   5   3  393.57   15.37
   1   5   3  387.58   16.67
   1   5   3  365.36   15.11
   1   5   3  406.67   17.04
   1   5   4   71.00    6.76
   1   5   4   57.35    6.10
   1   5   5  573.32   23.15
   1   5   5  591.86   23.64
   1   5   6  474.75   20.97
   1   5   6  475.52   20.47
   1   5   7  147.32   10.99
   1   5   8   75.89    8.37
   1   5   9  218.88   14.66
   1   5  10  333.65   19.14
   1   5  11    0.85    4.61
   1   6 -17  162.19   15.86
   1   6 -17  142.98   14.83
   1   6 -16  166.07   15.11
   1   6 -16  177.82   15.68
   1   6 -15    2.07    4.73
   1   6 -15   -3.10    4.63
   1   6 -14  179.94   15.22
   1   6 -14  215.11   16.17
   1   6 -13  171.40   14.19
   1   6 -12  837.71   34.73
   1   6 -11   40.41    6.84
   1   6 -11   38.02    5.65
   1   6 -11   49.50    6.17
   1   6 -10  189.76   13.02
   1   6 -10  187.13   11.78
   1   6 -10  173.61   11.53
   1   6  -9  952.53   35.92
   1   6  -9  952.39   34.79
   1   6  -9  944.00   35.82
   1   6  -9 1031.75   35.52
   1   6  -8  582.92   24.31
   1   6  -8  600.90   22.19
   1   6  -8  628.92   24.61
   1   6  -8  575.06   24.25
   1   6  -8  606.95   24.53
   1   6  -7   51.12    6.55
   1   6  -7   54.62    6.02
   1   6  -7   66.20    5.68
   1   6  -7   50.11    6.36
   1   6  -7   57.71    6.26
   1   6  -6 1383.54   44.34
   1   6  -6 1322.15   45.35
   1   6  -6 1387.93   44.35
   1   6  -6 1438.10   44.29
   1   6  -6 1355.00   45.55
   1   6  -5  674.33   23.81
   1   6  -5  704.29   23.10
   1   6  -5  676.92   25.61
   1   6  -5  650.02   23.65
   1   6  -5  668.54   24.53
   1   6  -5  650.90   25.39
   1   6  -4  286.48   12.54
   1   6  -4  320.66   14.26
   1   6  -4  328.46   13.14
   1   6  -4  331.53   15.07
   1   6  -4  307.22   12.76
   1   6  -4  317.43   14.85
   1   6  -3 1125.90   35.23
   1   6  -3 1113.99   37.03
   1   6  -3 1080.37   34.25
   1   6  -3 1088.71   34.26
   1   6  -3 1138.99   36.84
   1   6  -3 1111.43   37.01
   1   6  -2 1140.13   37.57
   1   6  -2 1134.05   36.24
   1   6  -2 1112.87   37.32
   1   6  -2 1150.17   37.52
   1   6  -1 2182.81   65.88
   1   6  -1 2259.72   64.95
   1   6  -1 2098.00   65.18
   1   6  -1 2133.29   65.29
   1   6   0    7.08    2.95
   1   6   0   -0.39    2.23
   1   6   0    9.44    2.92
   1   6   0    3.99    3.09
   1   6   1 1442.67   46.97
   1   6   1 1466.62   46.40
   1   6   1 1433.41   45.67
   1   6   1 1482.93   45.88
   1   6   2 1406.47   45.08
   1   6   2 1375.27   43.71
   1   6   2 1396.35   45.40
   1   6   2 1361.11   43.62
   1   6   3  385.57   17.80
   1   6   3  407.87   17.99
   1   6   4   48.76    6.16
   1   6   4   54.70    6.43
   1   6   5  888.26   32.70
   1   6   5  866.50   32.70
   1   6   6  201.87   12.80
   1   6   6  212.96   13.49
   1   6   7   23.62    5.33
   1   6   8   20.19    5.49
   1   6   9   88.08    9.61
   1   6  10   89.61   10.01
   1   7 -17  502.92   28.00
   1   7 -17  478.08   27.47
   1   7 -16  521.38   27.77
   1   7 -16  503.03   27.47
   1   7 -15   28.20    6.91
   1   7 -15   20.16    6.17
   1   7 -14  505.21   25.85
   1   7 -14  472.78   25.26
   1   7 -13  886.79   36.78
   1   7 -12  992.09   39.01
   1   7 -11  116.11   10.66
   1   7 -11   96.32    9.12
   1   7 -11  108.51    9.56
   1   7 -10  732.47   30.59
   1   7 -10  820.69   30.74
   1   7 -10  748.55   30.83
   1   7 -10  788.18   30.51
   1   7  -9 1069.48   39.26
   1   7  -9 1142.20   39.86
   1   7  -9 1076.51   39.37
   1   7  -9 1118.81   39.89
   1   7  -8  516.13   22.51
   1   7  -8  523.56   23.33
   1   7  -8  553.08   23.00
   1   7  -8  600.56   22.19
   1   7  -8  561.80   24.00
   1   7  -7  294.85   14.89
   1   7  -7  334.14   16.87
   1   7  -7  304.44   15.06
   1   7  -7  328.26   16.67
   1   7  -6  552.42   21.81
   1   7  -6  538.97   22.96
   1   7  -6  522.40   22.74
   1   7  -5  935.99   30.05
   1   7  -5  852.40   32.35
   1   7  -5  889.69   31.58
   1   7  -5  861.73   32.44
   1   7  -4   35.68    5.55
   1   7  -4   40.52    4.49
   1   7  -4   39.14    5.16
   1   7  -4   37.72    5.51
   1   7  -3   40.32    5.44
   1   7  -3   39.14    4.46
   1   7  -3   39.62    5.36
   1   7  -3   37.74    5.35
   1   7  -2   59.41    6.27
   1   7  -2   47.08    5.25
   1   7  -2   56.46    6.22
   1   7  -2   60.35    6.44
   1   7  -1  648.49   24.09
   1   7  -1  627.39   24.45
   1   7  -1  645.66   25.13
   1   7  -1  659.88   24.75
   1   7   0  202.47   11.96
   1   7   0  206.77   11.38
   1   7   0  190.46   11.05
   1   7   0  196.69   11.17
   1   7   1   21.07    4.81
   1   7   1   23.24    3.93
   1   7   1   19.79    4.25
   1   7   1   28.23    4.21
   1   7   2   77.63    7.40
   1   7   2   74.11    7.45
   1   7   3 1031.44   36.65
   1   7   3 1008.72   36.78
   1   7   4  100.36    9.07
   1   7   4  116.92    9.55
   1   7   5   56.61    7.19
   1   7   5   81.65    8.19
   1   7   6  532.41   23.98
   1   7   6  489.92   23.03
   1   7   7  461.05   22.88
   1   7   8    2.43    4.04
   1   7   9  158.37   13.25
   1   8 -17   66.59   10.17
   1   8 -17   49.48    9.04
   1   8 -16   94.27   11.55
   1   8 -16  125.09   12.48
   1   8 -15   19.45    6.65
   1   8 -15    7.79    4.66
   1   8 -14   -0.91    5.84
   1   8 -14    1.82    5.03
   1   8 -13  204.45   15.10
   1   8 -12   92.24    9.11
   1   8 -12   90.75    9.09
   1   8 -11   69.45    8.03
   1   8 -11   70.20    7.99
   1   8 -10  150.04   11.61
   1   8 -10  143.60   11.49
   1   8  -9  493.72   22.99
   1   8  -9  517.79   23.50
   1   8  -8  742.32   29.59
   1   8  -8  719.60   27.56
   1   8  -8  704.67   29.30
   1   8  -7    2.64    3.86
   1   8  -7    0.65    3.77
   1   8  -7   -1.08    2.59
   1   8  -6  732.17   28.02
   1   8  -6  745.36   29.37
   1   8  -6  709.44   29.01
   1   8  -5 1974.41   62.38
   1   8  -5 1959.76   63.28
   1   8  -5 1959.73   63.26
   1   8  -4  591.26   22.67
   1   8  -4  596.01   24.81
   1   8  -4  604.32   24.40
   1   8  -4  582.89   24.70
   1   8  -3  129.39    8.80
   1   8  -3  144.37   10.32
   1   8  -3  141.32   10.14
   1   8  -3  137.03   10.29
   1   8  -2 1130.35   37.67
   1   8  -2 1082.26   38.64
   1   8  -2 1125.71   39.22
   1   8  -2 1083.15   38.64
   1   8  -1 1134.34   37.21
   1   8  -1 1017.59   36.99
   1   8  -1 1072.77   38.04
   1   8  -1 1033.09   37.11
   1   8   0    3.21    3.13
   1   8   0    2.67    3.09
   1   8   0   -4.28    3.42
   1   8   0    1.21    3.33
   1   8   1  256.52   13.88
   1   8   1  213.56   13.50
   1   8   2  389.89   18.73
   1   8   2  383.99   19.14
   1   8   3  145.84   11.34
   1   8   3  150.29   11.10
   1   8   4    8.91    4.18
   1   8   4    9.68    4.59
   1   8   5  183.65   13.02
   1   8   5  161.10   12.37
   1   8   6  154.00   12.23
   1   8   7  145.12   12.37
   1   8   8    5.19    4.39
   1   9 -13  234.61   15.39
   1   9 -13  208.69   14.56
   1   9 -12 1009.36   39.07
   1   9 -12 1046.39   39.54
   1   9 -11  101.76   10.18
   1   9 -11   97.65    9.89
   1   9 -10   60.90    8.13
   1   9 -10   47.94    7.52
   1   9  -9  846.97   33.77
   1   9  -9  835.04   33.79
   1   9  -8  671.16   27.19
   1   9  -8  689.39   28.93
   1   9  -8  678.51   28.92
   1   9  -7  145.67   10.81
   1   9  -7  139.68   11.29
   1   9  -7  142.42   11.70
   1   9  -6  155.97   11.97
   1   9  -6  155.68   11.27
   1   9  -6  157.93   12.10
   1   9  -5  952.77   35.94
   1   9  -5  921.88   35.00
   1   9  -5  962.73   36.14
   1   9  -4  955.68   33.04
   1   9  -4  880.55   34.63
   1   9  -4  897.77   34.80
   1   9  -4  947.49   34.84
   1   9  -3  195.00   11.77
   1   9  -3  208.66   13.32
   1   9  -3  208.71   13.19
   1   9  -3  191.82   12.90
   1   9  -2   48.76    6.74
   1   9  -2   65.03    6.76
   1   9  -2   37.97    6.22
   1   9  -2   59.37    7.32
   1   9  -1 1233.98   43.72
   1   9  -1 1244.84   42.55
   1   9  -1 1224.56   42.92
   1   9  -1 1214.91   42.87
   1   9   0  227.38   13.79
   1   9   0  251.20   14.25
   1   9   0  234.29   14.64
   1   9   0  241.17   14.01
   1   9   1  111.49    9.54
   1   9   1   99.45    9.74
   1   9   2  226.06   14.15
   1   9   2  219.68   14.50
   1   9   3  406.57   20.62
   1   9   3  407.71   21.09
   1   9   4  108.72   10.29
   1   9   4  125.87   11.26
   1   9   5    2.39    4.04
   1   9   5    3.19    4.33
   1   9   6  248.84   16.62
   1  10 -13    2.43    4.25
   1  10 -13    1.63    4.05
   1  10 -12  535.56   25.26
   1  10 -12  492.33   24.61
   1  10 -11  133.06   11.93
   1  10 -11  137.78   12.16
   1  10 -10  103.72   10.40
   1  10 -10  103.67   10.22
   1  10  -9  295.90   17.48
   1  10  -9  277.71   17.39
   1  10  -8  769.11   30.86
   1  10  -8  782.68   32.40
   1  10  -8  779.45   32.46
   1  10  -7  460.64   22.86
   1  10  -7  460.84   21.89
   1  10  -7  478.33   23.33
   1  10  -6   40.41    7.45
   1  10  -6   52.95    7.61
   1  10  -6   36.66    6.18
   1  10  -5  584.27   25.94
   1  10  -5  601.91   26.48
   1  10  -5  590.40   26.34
   1  10  -4 1165.28   42.80
   1  10  -4 1162.98   42.45
   1  10  -4 1156.29   42.66
   1  10  -3  172.25   11.45
   1  10  -3  166.69   12.46
   1  10  -3  156.10   12.21
   1  10  -3  166.62   12.56
   1  10  -2  179.99   12.93
   1  10  -2  184.23   12.16
   1  10  -2  146.56   11.74
   1  10  -2  172.23   12.63
   1  10  -1 1373.05   46.02
   1  10  -1 1256.73   45.80
   1  10  -1 1306.73   47.05
   1  10  -1 1286.74   46.11
   1  10   0  243.48   14.96
   1  10   0  251.37   16.04
   1  10   1   32.73    5.91
   1  10   1   31.32    6.41
   1  10   2  535.15   25.07
   1  10   2  566.84   26.29
   1  10   3  346.47   19.58
   1  10   3  375.07   20.54
   1  10   4   67.91    8.81
   1  10   4   69.73    8.89
   1  10   5   23.15    6.01
   1  11 -14   47.19    7.91
   1  11 -14   47.48    7.96
   1  11 -13  207.52   15.56
   1  11 -13  247.70   16.66
   1  11 -12  810.80   34.21
   1  11 -12  774.87   33.87
   1  11 -11  155.93   13.00
   1  11 -11  143.68   12.59
   1  11 -10   20.84    5.84
   1  11 -10   24.78    6.04
   1  11  -9  519.41   25.40
   1  11  -9  519.78   25.53
   1  11  -8  391.49   21.28
   1  11  -8  412.94   20.66
   1  11  -8  386.01   21.38
   1  11  -7  129.02   11.56
   1  11  -7  125.09   11.33
   1  11  -7  126.03   10.97
   1  11  -6   31.07    6.57
   1  11  -6   21.06    5.80
   1  11  -6   25.14    5.99
   1  11  -5   47.46    7.61
   1  11  -5   47.08    7.43
   1  11  -5   33.99    6.92
   1  11  -4  252.31   16.03
   1  11  -4  251.14   16.05
   1  11  -4  241.82   15.90
   1  11  -3   69.16    8.60
   1  11  -3   62.56    8.28
   1  11  -3   90.61    9.54
   1  11  -2    0.81    4.17
   1  11  -2    3.82    4.01
   1  11  -2   -1.38    4.15
   1  11  -2    3.79    4.06
   1  11  -1   53.03    7.24
   1  11  -1   66.57    8.71
   1  11   0  396.16   20.35
   1  11   0  355.46   20.44
   1  11   1  178.95   13.33
   1  11   1  165.19   13.70
   1  11   2   18.67    5.41
   1  11   2   28.87    6.42
   1  11   3  322.13   19.22
   1  11   3  316.09   19.61
   1  11   4  320.37   19.73
   1  12 -14   90.63   10.22
   1  12 -14   84.86   10.09
   1  12 -13   13.50    5.70
   1  12 -13    5.44    5.24
   1  12 -12  150.39   13.24
   1  12 -12  152.71   13.32
   1  12 -11  323.53   20.05
   1  12 -11  342.59   20.47
   1  12 -10  381.66   21.48
   1  12 -10  345.78   20.86
   1  12  -9   70.07    9.36
   1  12  -9   79.35    9.78
   1  12  -8  655.98   29.85
   1  12  -8  627.72   28.41
   1  12  -8  652.99   30.00
   1  12  -7  314.81   18.97
   1  12  -7  346.40   20.22
   1  12  -7  357.48   20.49
   1  12  -6  199.24   15.02
   1  12  -6  198.13   14.58
   1  12  -6  186.76   14.61
   1  12  -5  439.09   23.02
   1  12  -5  448.86   23.18
   1  12  -5  434.64   23.04
   1  12  -4  484.20   24.18
   1  12  -4  460.97   24.03
   1  12  -4  465.37   23.96
   1  12  -3  166.81   13.23
   1  12  -3  166.29   13.71
   1  12  -3  156.57   13.22
   1  12  -2   39.54    7.30
   1  12  -1  220.16   14.99
   1  12  -1  224.70   16.08
   1  12   0  339.00   19.57
   1  12   0  335.16   20.27
   1  12   1   26.86    5.85
   1  12   1   36.82    7.51
   1  13 -12   66.63    9.32
   1  13 -12   64.13    9.19
   1  13 -11  168.10   14.69
   1  13 -11  203.31   15.79
   1  13 -10   52.33    8.43
   1  13 -10   32.87    7.30
   1  13  -9   52.01    8.38
   1  13  -9   35.36    7.30
   1  13  -8    1.88    4.68
   1  13  -8    5.53    4.76
   1  13  -8    4.27    4.17
   1  13  -7  128.83   12.32
   1  13  -7  122.50   11.65
   1  13  -7  120.27   11.70
   1  13  -6   46.55    8.30
   1  13  -6   43.20    8.24
   1  13  -6   47.21    8.01
   1  13  -5    2.70    4.56
   1  13  -5    0.89    4.75
   1  13  -5   -1.81    5.37
   1  13  -4   19.47    5.82
   1  13  -4   26.30    6.37
   1  13  -4   19.27    6.04
   1  13  -3   22.30    6.63
   1  13  -2   37.64    7.47
   1  14  -8  130.44   12.67
   1  14  -8  129.71   12.77
   1  14  -8  132.58   12.26
   1  14  -7  814.30   35.85
   1  14  -7  788.64   35.29
   1  14  -7  892.30   37.02
   1  14  -6  119.03   13.10
   1  14  -6  139.68   12.89
   1  14  -6  151.36   14.23
   2 -15   6   -1.19    5.44
   2 -15   7   -2.33    7.46
   2 -15   8  105.20   13.03
   2 -15   9   95.81   12.14
   2 -14   0   31.94    8.04
   2 -14   1  104.55   12.87
   2 -14   2  212.18   17.74
   2 -14   3  111.13   13.51
   2 -14   4  112.47   13.03
   2 -14   5  273.00   19.88
   2 -14   6  132.33   13.56
   2 -14   8  264.88   19.42
   2 -14   9  250.94   18.79
   2 -14  10   99.31   11.28
   2 -14  11   61.26    9.35
   2 -14  12  186.51   16.09
   2 -13  -2  661.73   33.23
   2 -13  -1  125.49   13.37
   2 -13   0    7.75    6.39
   2 -13   1  292.72   20.34
   2 -13   2  401.89   24.36
   2 -13   3   59.16    9.86
   2 -13   4   76.82   10.25
   2 -13   5  263.44   19.06
   2 -13   5  260.78   18.11
   2 -13   6  174.59   15.21
   2 -13   6  182.04   14.93
   2 -13   7   18.81    5.81
   2 -13   7   13.45    6.24
   2 -13   8   57.08    8.94
   2 -13   8   63.93    9.58
   2 -13   9  284.49   19.09
   2 -13   9  278.48   19.06
   2 -13  10  102.60   11.64
   2 -13  11    1.06    4.63
   2 -13  12   66.28    9.61
   2 -13  13  314.52   21.07
   2 -12  -4   50.77    8.80
   2 -12  -3  173.43   15.20
   2 -12  -2  195.01   16.07
   2 -12  -1  287.99   19.83
   2 -12   0    9.25    5.85
   2 -12   1  165.08   14.09
   2 -12   1  172.13   14.79
   2 -12   2 1021.56   41.33
   2 -12   2 1040.74   42.73
   2 -12   3  380.74   21.62
   2 -12   3  359.03   21.98
   2 -12   4   -0.92    5.51
   2 -12   4   -6.85    5.65
   2 -12   5  756.71   34.38
   2 -12   5  786.13   34.25
   2 -12   6 1242.79   47.54
   2 -12   6 1176.39   46.57
   2 -12   7  244.16   17.96
   2 -12   7  265.41   17.87
   2 -12   8  209.48   16.08
   2 -12   8  218.58   16.34
   2 -12   9  907.14   38.34
   2 -12   9  855.05   36.84
   2 -12  10  305.73   19.94
   2 -12  11    2.07    4.84
   2 -12  12  204.51   16.56
   2 -12  13  283.79   19.70
   2 -12  14   28.66    7.29
   2 -11  -4  151.21   13.95
   2 -11  -3  213.73   16.42
   2 -11  -2  344.71   21.13
   2 -11  -1  344.62   19.98
   2 -11  -1  310.76   20.01
   2 -11   0   22.40    5.89
   2 -11   0    6.53    4.91
   2 -11   1  564.40   27.23
   2 -11   1  612.00   28.67
   2 -11   2  432.44   22.14
   2 -11   2  353.09   21.20
   2 -11   3  106.69   11.61
   2 -11   3  128.78   11.70
   2 -11   4   52.16    7.95
   2 -11   4   53.25    8.29
   2 -11   5  229.19   16.49
   2 -11   5  269.81   17.13
   2 -11   6  692.62   31.20
   2 -11   6  714.32   31.65
   2 -11   7  303.07   19.11
   2 -11   7  317.00   19.22
   2 -11   8    7.43    4.53
   2 -11   8    4.30    4.75
   2 -11   9  299.67   19.51
   2 -11   9  317.22   18.98
   2 -11  10  564.91   28.32
   2 -11  11  429.06   24.33
   2 -11  12   14.35    5.84
   2 -11  13  252.55   18.40
   2 -11  14  282.35   19.68
   2 -11  15   96.15   11.66
   2 -10  -5  268.60   18.13
   2 -10  -4   96.62   10.74
   2 -10  -3  159.40   13.72
   2 -10  -2  102.41   10.70
   2 -10  -1  331.29   19.58
   2 -10   0  589.63   27.43
   2 -10   0  583.28   26.80
   2 -10   1   15.68    5.35
   2 -10   1   10.07    4.15
   2 -10   2  538.08   25.34
   2 -10   2  562.09   26.15
   2 -10   3  977.93   37.11
   2 -10   3  867.56   36.29
   2 -10   4  131.17   11.47
   2 -10   4  129.82   11.40
   2 -10   5  346.04   19.57
   2 -10   5  352.82   19.70
   2 -10   6 1168.71   43.63
   2 -10   6 1165.14   44.23
   2 -10   7  727.90   31.44
   2 -10   7  684.27   30.11
   2 -10   8   15.11    5.28
   2 -10   8    5.43    5.03
   2 -10   9  611.82   29.02
   2 -10   9  614.29   27.57
   2 -10  10  540.27   26.94
   2 -10  10  493.06   24.28
   2 -10  11  326.78   20.67
   2 -10  12  127.76   12.55
   2 -10  13  274.85   18.94
   2 -10  14  151.80   14.12
   2 -10  15   39.00    8.10
   2  -9  -9  206.94   16.90
   2  -9  -8  388.33   23.10
   2  -9  -7   35.07    7.43
   2  -9  -6  151.91   12.64
   2  -9  -6  129.43   12.18
   2  -9  -5  647.33   29.41
   2  -9  -4  269.46   17.21
   2  -9  -3    4.02    4.15
   2  -9  -2  289.63   17.50
   2  -9  -1  364.68   19.65
   2  -9   0  236.53   15.34
   2  -9   1   39.25    6.10
   2  -9   1   26.90    5.70
   2  -9   2  234.10   14.74
   2  -9   2  248.77   15.30
   2  -9   3  486.45   22.80
   2  -9   3  471.51   22.46
   2  -9   4   62.05    7.87
   2  -9   4   68.86    8.19
   2  -9   5    5.61    4.22
   2  -9   5   -0.76    3.98
   2  -9   6  269.09   15.77
   2  -9   6  285.13   17.08
   2  -9   7  319.67   18.83
   2  -9   7  349.91   18.66
   2  -9   8  149.77   12.55
   2  -9   8  134.81   11.11
   2  -9   8  156.48   12.15
   2  -9   9   -2.66    5.54
   2  -9   9   -1.48    3.94
   2  -9  10  334.03   20.09
   2  -9  10  296.90   17.36
   2  -9  11  838.09   36.13
   2  -9  12   34.37    7.39
   2  -9  13   56.91    8.70
   2  -9  14  641.79   31.25
   2  -9  15  347.28   22.11
   2  -9  16    1.07    5.99
   2  -8 -10   44.80    8.62
   2  -8  -9  179.68   15.55
   2  -8  -8  213.38   16.44
   2  -8  -7  142.31   12.91
   2  -8  -7  148.45   12.41
   2  -8  -6   68.72    8.75
   2  -8  -6   73.19    8.66
   2  -8  -5  463.00   22.43
   2  -8  -5  461.89   22.81
   2  -8  -4  988.85   37.18
   2  -8  -4 1020.58   38.33
   2  -8  -3  108.62    9.07
   2  -8  -3  115.73   10.26
   2  -8  -2  202.84   13.43
   2  -8  -1 1589.52   53.72
   2  -8   0 2593.52   80.88
   2  -8   1  135.32   10.47
   2  -8   1  126.07   10.22
   2  -8   2  727.62   29.36
   2  -8   2  759.48   29.52
   2  -8   3 2502.22   79.19
   2  -8   3 2573.24   79.03
   2  -8   4 2386.36   74.75
   2  -8   4 2397.49   75.87
   2  -8   5   27.60    5.36
   2  -8   5   21.77    5.17
   2  -8   6 1171.97   41.29
   2  -8   6 1145.72   42.65
   2  -8   7 1384.89   49.01
   2  -8   7 1341.10   46.59
   2  -8   8   33.20    6.51
   2  -8   8   23.88    4.86
   2  -8   9  126.08   11.81
   2  -8   9  140.46   10.96
   2  -8  10  674.59   29.90
   2  -8  10  611.72   27.08
   2  -8  11  172.42   12.49
   2  -8  11  171.11   14.02
   2  -8  12    8.25    4.99
   2  -8  13   42.66    8.20
   2  -8  14  228.33   17.22
   2  -8  15  145.42   13.84
   2  -8  16    8.44    5.83
   2  -7 -11  105.19   12.61
   2  -7 -10   13.11    5.95
   2  -7  -9   82.94   10.59
   2  -7  -8  212.51   15.74
   2  -7  -7  117.29   11.28
   2  -7  -7  115.85   10.43
   2  -7  -6  113.99   10.86
   2  -7  -6  124.85   10.48
   2  -7  -5  511.73   23.13
   2  -7  -5  485.68   22.64
   2  -7  -4  454.37   20.53
   2  -7  -4  425.41   20.62
   2  -7  -3  132.08    9.54
   2  -7  -3  130.90   10.26
   2  -7  -2  701.32   26.36
   2  -7  -2  741.16   28.41
   2  -7  -1 1491.36   47.81
   2  -7  -1 1620.66   51.29
   2  -7   0  357.28   17.05
   2  -7   1  345.90   16.73
   2  -7   1  359.78   17.13
   2  -7   2  404.66   18.46
   2  -7   2  378.66   17.66
   2  -7   3  576.49   24.00
   2  -7   3  573.92   23.27
   2  -7   4  845.09   31.68
   2  -7   4  936.21   33.86
   2  -7   5   44.91    6.03
   2  -7   5   49.03    6.66
   2  -7   6  236.68   14.46
   2  -7   6  226.46   13.02
   2  -7   7  479.16   22.41
   2  -7   7  413.72   20.10
   2  -7   7  460.63   19.90
   2  -7   8  478.50   22.93
   2  -7   8  443.00   20.77
   2  -7   9  161.80   12.95
   2  -7   9  162.72   11.49
   2  -7  10  399.36   19.59
   2  -7  10  398.59   21.42
   2  -7  11  664.25   28.00
   2  -7  11  688.31   30.28
   2  -7  12    5.27    4.54
   2  -7  13   32.81    7.11
   2  -7  14  523.84   27.42
   2  -7  15  235.07   17.40
   2  -7  16   -1.03    6.91
   2  -6 -12  455.47   27.26
   2  -6 -11  169.13   15.58
   2  -6 -10    8.42    5.81
   2  -6  -9   35.94    7.47
   2  -6  -8  555.12   27.19
   2  -6  -8  565.10   25.18
   2  -6  -7   76.28    9.04
   2  -6  -7   67.90    7.72
   2  -6  -6   28.88    5.93
   2  -6  -6   22.28    4.78
   2  -6  -5  244.15   14.34
   2  -6  -5  227.46   13.60
   2  -6  -4  552.59   23.66
   2  -6  -4  613.22   24.32
   2  -6  -3  556.88   22.75
   2  -6  -3  596.83   23.56
   2  -6  -2    0.41    2.29
   2  -6  -2    1.01    2.60
   2  -6  -1 1632.02   50.11
   2  -6  -1 1657.76   52.30
   2  -6   0 2542.57   76.47
   2  -6   0 2793.49   77.18
   2  -6   0 2564.68   79.58
   2  -6   0 2754.00   77.12
   2  -6   1    8.65    1.93
   2  -6   1   13.76    3.39
   2  -6   1    7.70    3.05
   2  -6   2  393.27   17.35
   2  -6   2  368.67   16.46
   2  -6   3 5512.86  156.29
   2  -6   3 5393.10  154.49
   2  -6   4  225.67   12.05
   2  -6   4  258.88   13.91
   2  -6   5  459.25   19.00
   2  -6   5  460.03   20.84
   2  -6   6  347.45   17.03
   2  -6   6  396.37   18.89
   2  -6   6  360.00   16.16
   2  -6   7 1118.29   40.57
   2  -6   7 1046.37   38.22
   2  -6   7 1127.34   36.94
   2  -6   8  724.50   29.66
   2  -6   8  688.28   27.56
   2  -6   9   14.49    4.06
   2  -6   9   20.15    5.51
   2  -6  10  304.05   15.99
   2  -6  10  259.99   16.59
   2  -6  11  520.25   23.22
   2  -6  11  498.74   24.59
   2  -6  12   17.49    6.11
   2  -6  12   25.59    5.35
   2  -6  13    7.01    4.69
   2  -6  14  254.06   17.61
   2  -6  15   24.16    7.21
   2  -6  16    9.99    6.17
   2  -5 -13    7.50    5.72
   2  -5 -13    1.10    5.57
   2  -5 -12  206.48   17.60
   2  -5 -12  221.54   17.07
   2  -5 -11  762.08   35.57
   2  -5 -11  759.16   34.30
   2  -5 -10  249.85   17.99
   2  -5 -10  261.22   17.39
   2  -5  -9   15.84    6.06
   2  -5  -9   25.09    6.44
   2  -5  -8 1715.72   60.27
   2  -5  -8 1775.00   57.91
   2  -5  -8 1710.90   58.52
   2  -5  -7  595.64   26.51
   2  -5  -7  583.37   24.75
   2  -5  -7  584.28   25.20
   2  -5  -6  130.60   10.68
   2  -5  -6  117.81    9.49
   2  -5  -5 1109.57   39.78
   2  -5  -5 1142.05   39.16
   2  -5  -4  934.32   33.50
   2  -5  -4  944.30   33.37
   2  -5  -3 1449.22   47.76
   2  -5  -3 1570.18   48.66
   2  -5  -2  210.72   10.70
   2  -5  -2  216.83   11.45
   2  -5  -2  231.72   10.05
   2  -5  -1  998.13   30.25
   2  -5  -1  898.28   29.75
   2  -5  -1  910.42   28.74
   2  -5  -1  934.58   31.51
   2  -5  -1  920.84   27.05
   2  -5  -1  928.08   28.81
   2  -5   0  896.11   27.30
   2  -5   0 1089.07   31.33
   2  -5   0  939.76   29.58
   2  -5   0 1028.92   30.08
   2  -5   0  899.79   31.48
   2  -5   0  919.00   27.32
   2  -5   0 1000.10   28.11
   2  -5   0 1033.65   30.17
   2  -5   1  357.39   12.24
   2  -5   1  358.40   13.36
   2  -5   1  357.16   14.70
   2  -5   1  375.93   14.22
   2  -5   1  360.43   15.54
   2  -5   1  377.55   13.62
   2  -5   1  330.76   10.78
   2  -5   2  213.58   11.29
   2  -5   2  214.88    7.45
   2  -5   2  208.20    9.37
   2  -5   2  187.98    9.92
   2  -5   2  209.23    7.39
   2  -5   2  206.23    7.51
   2  -5   2  223.24    9.58
   2  -5   2  204.80    7.51
   2  -5   3 1784.63   51.40
   2  -5   3 1960.28   56.62
   2  -5   3 1982.07   53.54
   2  -5   3 1926.81   58.65
   2  -5   3 1975.62   53.51
   2  -5   4   25.33    3.77
   2  -5   4   29.53    4.62
   2  -5   4   40.21    3.28
   2  -5   4   42.10    3.38
   2  -5   5   71.16    6.69
   2  -5   5   96.40    8.10
   2  -5   5   81.92    6.47
   2  -5   5   93.56    5.66
   2  -5   5   84.31    5.47
   2  -5   6   84.84    7.99
   2  -5   6   83.22    7.11
   2  -5   6   77.14    6.26
   2  -5   7 1065.31   39.60
   2  -5   7 1155.18   38.67
   2  -5   8  598.71   25.91
   2  -5   8  621.97   24.58
   2  -5   9  315.49   15.87
   2  -5   9  297.54   16.83
   2  -5  10  109.13    9.14
   2  -5  10  110.11   10.14
   2  -5  11  741.43   29.48
   2  -5  11  732.72   30.93
   2  -5  12  707.43   29.58
   2  -5  12  764.96   31.88
   2  -5  13   34.54    6.99
   2  -5  14  184.38   14.53
   2  -5  15  246.90   17.36
   2  -5  16   65.44    9.51
   2  -4 -14   34.09    8.16
   2  -4 -13   13.28    6.02
   2  -4 -13   12.25    6.25
   2  -4 -12   82.01   11.17
   2  -4 -12  104.28   12.12
   2  -4 -11  117.44   12.35
   2  -4 -11  127.46   12.54
   2  -4 -10  169.33   14.24
   2  -4 -10  141.11   12.90
   2  -4  -9    4.44    4.66
   2  -4  -9    4.83    4.58
   2  -4  -8  509.52   25.30
   2  -4  -8  575.32   23.84
   2  -4  -7  752.16   30.44
   2  -4  -7  710.71   28.10
   2  -4  -6  866.83   33.20
   2  -4  -6  888.73   31.96
   2  -4  -5    5.96    2.59
   2  -4  -5    6.71    2.81
   2  -4  -4 1992.23   58.40
   2  -4  -4 1878.27   60.77
   2  -4  -4 2038.56   60.87
   2  -4  -3 3551.47   99.84
   2  -4  -3 3306.94  101.87
   2  -4  -3 3727.79  102.84
   2  -4  -3 3586.06   99.23
   2  -4  -3 3518.95   99.82
   2  -4  -2 2326.23   67.80
   2  -4  -2 2625.12   69.12
   2  -4  -2 2356.11   69.92
   2  -4  -2 2363.30   67.01
   2  -4  -2 2421.39   68.45
   2  -4  -2 2449.82   70.79
   2  -4  -2 2342.66   67.78
   2  -4  -2 2309.86   66.97
   2  -4  -1   50.75    3.17
   2  -4  -1   50.53    4.10
   2  -4  -1   57.52    3.59
   2  -4  -1   54.30    4.17
   2  -4  -1   47.08    4.52
   2  -4  -1   46.86    3.07
   2  -4  -1   52.64    4.14
   2  -4  -1   47.64    2.62
   2  -4  -1   43.05    2.52
   2  -4  -1   53.20    3.56
   2  -4  -1   50.43    2.66
   2  -4   0 2377.69   61.85
   2  -4   0 2571.29   64.71
   2  -4   0 2700.31   63.34
   2  -4   0 2575.12   63.36
   2  -4   0 2816.30   64.01
   2  -4   0 2520.39   62.03
   2  -4   0 2510.60   65.25
   2  -4   0 2406.46   61.87
   2  -4   0 2432.75   61.20
   2  -4   0 2659.99   64.56
   2  -4   0 2446.65   61.20
   2  -4   0 2613.22   63.26
   2  -4   0 2448.43   61.23
   2  -4   1 7814.14  202.62
   2  -4   1 7577.05  203.00
   2  -4   1 7566.54  201.68
   2  -4   1 7289.13  200.86
   2  -4   1 7110.28  202.82
   2  -4   1 7275.51  204.39
   2  -4   1 7328.53  199.96
   2  -4   1 7427.88  200.61
   2  -4   1 7299.89  199.95
   2  -4   1 7597.65  201.74
   2  -4   1 7449.79  200.04
   2  -4   2    3.97    1.18
   2  -4   2    3.43    0.93
   2  -4   2    8.97    1.79
   2  -4   2    6.40    1.69
   2  -4   2    7.90    2.06
   2  -4   2    4.03    0.97
   2  -4   2    6.52    2.25
   2  -4   2    3.32    1.51
   2  -4   3 1958.81   56.47
   2  -4   3 2079.94   58.94
   2  -4   3 1998.23   59.39
   2  -4   3 1996.49   62.07
   2  -4   3 1968.85   57.26
   2  -4   3 2075.19   58.94
   2  -4   3 2131.08   58.27
   2  -4   3 2191.09   58.36
   2  -4   4 3309.84   96.63
   2  -4   4 3326.54  101.45
   2  -4   4 3326.69  102.57
   2  -4   4 3311.27   99.33
   2  -4   4 3591.30   98.08
   2  -4   4 3966.22   99.33
   2  -4   4 3918.34   99.31
   2  -4   5 1226.07   43.79
   2  -4   5 1284.73   42.87
   2  -4   5 1320.51   40.80
   2  -4   6  971.55   35.09
   2  -4   6 1003.77   33.95
   2  -4   7 2730.49   81.84
   2  -4   7 2724.06   83.14
   2  -4   8 1177.94   39.96
   2  -4   8 1174.28   41.04
   2  -4   9  118.74    9.08
   2  -4   9  125.79   10.10
   2  -4  10  390.00   18.36
   2  -4  10  357.75   18.68
   2  -4  11  564.59   24.18
   2  -4  11  550.72   25.04
   2  -4  12  531.69   24.05
   2  -4  12  549.43   25.39
   2  -4  13    0.80    4.36
   2  -4  14   43.03    7.32
   2  -4  15  164.02   13.55
   2  -4  16  130.30   12.57
   2  -3 -14  251.87   19.92
   2  -3 -14  262.50   20.05
   2  -3 -13   73.71   11.24
   2  -3 -13   97.04   11.84
   2  -3 -12  108.06   12.22
   2  -3 -12  109.31   12.16
   2  -3 -11  533.95   27.48
   2  -3 -11  525.32   27.00
   2  -3 -10  456.35   24.26
   2  -3 -10  460.37   21.32
   2  -3  -9    9.91    4.36
   2  -3  -9    0.84    4.42
   2  -3  -9    2.48    3.47
   2  -3  -8 1507.46   52.45
   2  -3  -8 1476.22   49.45
   2  -3  -8 1518.14   49.84
   2  -3  -7 1620.73   54.94
   2  -3  -7 1662.99   52.81
   2  -3  -6  888.43   33.03
   2  -3  -6  902.15   31.34
   2  -3  -5  696.91   24.74
   2  -3  -5  675.27   26.03
   2  -3  -5  681.86   24.64
   2  -3  -4 4163.51  120.94
   2  -3  -4 4343.15  118.94
   2  -3  -4 4240.09  122.56
   2  -3  -4 4287.54  121.12
   2  -3  -3 2315.07   66.91
   2  -3  -3 2444.46   65.15
   2  -3  -3 2357.39   65.71
   2  -3  -3 2245.34   63.45
   2  -3  -3 2319.01   68.44
   2  -3  -3 2330.42   66.92
   2  -3  -3 2248.65   63.48
   2  -3  -2  476.19   16.97
   2  -3  -2  482.20   16.85
   2  -3  -2  560.77   17.34
   2  -3  -2  502.62   15.46
   2  -3  -2  510.19   18.43
   2  -3  -2  525.22   18.67
   2  -3  -2  534.06   16.90
   2  -3  -2  515.01   17.18
   2  -3  -2  492.76   15.44
   2  -3  -1  659.92   20.11
   2  -3  -1  581.37   19.57
   2  -3  -1  591.20   19.60
   2  -3  -1  632.61   20.42
   2  -3  -1  597.27   18.89
   2  -3  -1  613.91   19.78
   2  -3  -1  726.20   21.47
   2  -3  -1  659.54   21.45
   2  -3  -1  724.44   20.53
   2  -3  -1  608.76   18.89
   2  -3  -1  636.88   19.83
   2  -3  -1  624.52   18.94
   2  -3  -1  597.03   18.90
   2  -3  -1  627.59   18.96
   2  -3   0 2085.60   61.32
   2  -3   0 2197.72   60.03
   2  -3   0 2174.34   60.25
   2  -3   0 2248.39   61.31
   2  -3   0 2147.70   61.62
   2  -3   0 2286.49   61.01
   2  -3   0 2045.86   59.45
   2  -3   0 2120.95   59.96
   2  -3   0 2033.39   60.30
   2  -3   0 2080.60   59.48
   2  -3   0 2210.13   60.06
   2  -3   0 2078.72   59.51
   2  -3   0 2105.11   60.58
   2  -3   1 1325.67   38.93
   2  -3   1 1353.73   37.73
   2  -3   1 1319.98   37.20
   2  -3   1 1291.40   39.77
   2  -3   1 1222.38   38.07
   2  -3   1 1231.90   36.95
   2  -3   1 1357.24   37.76
   2  -3   1 1263.59   37.00
   2  -3   1 1315.70   38.16
   2  -3   1 1294.50   37.33
   2  -3   1 1242.97   36.99
   2  -3   2  313.97   10.95
   2  -3   2  290.51   10.74
   2  -3   2  319.15   11.01
   2  -3   2  304.74   12.85
   2  -3   2  331.73   10.32
   2  -3   2  299.17   10.57
   2  -3   3  784.04   24.79
   2  -3   3  863.76   28.05
   2  -3   3  763.76   25.42
   2  -3   3  751.85   28.04
   2  -3   3  945.21   26.30
   2  -3   3  946.73   26.33
   2  -3   4 2126.01   59.84
   2  -3   4 2041.05   60.70
   2  -3   4 1772.70   62.90
   2  -3   4 2003.89   62.72
   2  -3   4 1869.99   59.75
   2  -3   4 2340.43   61.09
   2  -3   4 2014.76   60.64
   2  -3   4 2457.88   61.81
   2  -3   4 2433.42   61.76
   2  -3   5 2141.25   67.79
   2  -3   5 2317.59   64.25
   2  -3   5 2229.25   67.07
   2  -3   5 2078.92   63.13
   2  -3   6    5.82    2.37
   2  -3   6    4.60    2.98
   2  -3   7 1285.42   41.81
   2  -3   7 1255.42   42.21
   2  -3   8 1583.60   51.55
   2  -3   8 1640.98   52.30
   2  -3   9 1042.03   36.20
   2  -3   9  998.42   36.48
   2  -3  10   22.74    4.56
   2  -3  10   26.43    5.60
   2  -3  11  567.64   24.30
   2  -3  11  553.35   24.75
   2  -3  12  924.96   35.18
   2  -3  12  906.06   35.65
   2  -3  13  238.70   15.07
   2  -3  13  233.08   15.62
   2  -3  14   81.37    9.35
   2  -3  15  284.07   18.26
   2  -2 -15   46.50    9.56
   2  -2 -15   36.10    8.74
   2  -2 -14  238.79   19.04
   2  -2 -14  248.95   19.42
   2  -2 -13   16.88    6.43
   2  -2 -13   26.61    7.36
   2  -2 -12   34.16    6.75
   2  -2 -12   26.11    6.88
   2  -2 -12   26.73    7.41
   2  -2 -12   29.18    6.35
   2  -2 -11   59.60    7.95
   2  -2 -11   59.82    8.81
   2  -2 -11   47.99    7.32
   2  -2 -10  295.85   18.55
   2  -2 -10  283.60   16.64
   2  -2 -10  323.34   17.54
   2  -2  -9   34.07    6.27
   2  -2  -9   35.96    6.58
   2  -2  -8   11.92    4.12
   2  -2  -8    6.89    3.75
   2  -2  -7  276.18   14.34
   2  -2  -7  265.96   14.90
   2  -2  -6 2082.17   65.10
   2  -2  -6 2087.60   66.27
   2  -2  -6 2186.12   65.54
   2  -2  -5  174.84    9.91
   2  -2  -5  170.50    7.21
   2  -2  -5  167.65   10.13
   2  -2  -5  160.28    9.56
   2  -2  -4   94.56    6.49
   2  -2  -4   82.18    3.71
   2  -2  -4  107.26    4.92
   2  -2  -4   87.81    5.26
   2  -2  -4   87.00    6.66
   2  -2  -4   89.75    6.34
   2  -2  -3 3182.43   84.95
   2  -2  -3 3097.98   87.68
   2  -2  -3 2939.42   83.74
   2  -2  -3 3302.28   85.69
   2  -2  -3 3506.55   86.61
   2  -2  -3 2993.19   83.72
   2  -2  -3 3306.00   89.02
   2  -2  -3 3024.34   83.76
   2  -2  -3 3192.24   87.80
   2  -2  -3 2984.09   83.72
   2  -2  -2 1892.05   53.85
   2  -2  -2 1822.79   52.75
   2  -2  -2 1811.29   51.46
   2  -2  -2 1705.15   51.37
   2  -2  -2 1915.22   52.76
   2  -2  -2 1846.57   51.33
   2  -2  -2 1641.42   52.57
   2  -2  -2 2145.70   55.63
   2  -2  -2 1996.37   52.36
   2  -2  -2 1898.83   53.85
   2  -2  -2 2010.29   54.05
   2  -2  -2 1851.56   51.34
   2  -2  -1   42.76    3.01
   2  -2  -1   47.84    3.37
   2  -2  -1   43.00    3.25
   2  -2  -1   43.15    2.64
   2  -2  -1   42.64    3.04
   2  -2  -1   57.59    4.06
   2  -2  -1   53.62    3.15
   2  -2  -1   50.40    3.45
   2  -2  -1   55.05    3.47
   2  -2  -1   55.89    3.66
   2  -2  -1   43.50    2.63
   2  -2  -1   63.74    3.37
   2  -2  -1   56.00    3.20
   2  -2   0 1281.97   36.34
   2  -2   0 1220.36   35.26
   2  -2   0 1189.04   35.09
   2  -2   0 1189.33   35.32
   2  -2   0 1244.24   35.31
   2  -2   0 1197.75   35.33
   2  -2   0 1246.12   36.12
   2  -2   0 1244.73   35.48
   2  -2   0 1215.11   35.38
   2  -2   1 2983.99   85.38
   2  -2   1 2746.67   85.87
   2  -2   1 3132.09   84.85
   2  -2   1 2909.60   86.03
   2  -2   1 3050.57   83.80
   2  -2   1 3371.61   84.83
   2  -2   1 3024.68   84.69
   2  -2   1 2769.01   84.53
   2  -2   1 3200.86   84.90
   2  -2   1 3051.24   84.71
   2  -2   1 3091.37   85.03
   2  -2   1 3075.56   84.74
   2  -2   2  420.96   14.71
   2  -2   2  443.00   15.70
   2  -2   2  389.54   12.69
   2  -2   2  439.57   13.41
   2  -2   2  397.35   15.62
   2  -2   2  447.51   14.55
   2  -2   2  443.82   14.53
   2  -2   2  478.40   14.73
   2  -2   2  419.37   14.20
   2  -2   3  238.11    8.84
   2  -2   3  203.56    9.87
   2  -2   3  212.78    9.63
   2  -2   3  195.21    6.52
   2  -2   3  209.45    7.26
   2  -2   3  235.64    9.13
   2  -2   4 1705.31   52.42
   2  -2   4 1983.37   51.11
   2  -2   4 1676.00   50.30
   2  -2   4 1686.22   51.99
   2  -2   4 1581.84   47.61
   2  -2   4 1993.23   51.78
   2  -2   4 1666.02   50.29
   2  -2   4 1938.93   51.67
   2  -2   4 1971.31   51.73
   2  -2   5 2177.11   61.10
   2  -2   5 2071.13   62.41
   2  -2   5 1986.63   62.19
   2  -2   6   12.89    3.40
   2  -2   6    9.64    2.73
   2  -2   6   11.91    2.70
   2  -2   7  279.77   13.58
   2  -2   7  277.67   13.52
   2  -2   8 1328.25   43.06
   2  -2   8 1258.64   42.63
   2  -2   9    1.58    2.99
   2  -2   9   -1.08    3.25
   2  -2  10    6.50    3.66
   2  -2  10    9.76    4.08
   2  -2  11  408.14   20.04
   2  -2  11  441.49   20.51
   2  -2  12   57.51    7.26
   2  -2  12   46.20    6.80
   2  -2  13    3.74    3.72
   2  -2  13    0.73    4.11
   2  -2  14   44.09    7.38
   2  -1 -15   95.77   12.36
   2  -1 -15   82.62   12.15
   2  -1 -14  486.57   27.57
   2  -1 -14  479.37   27.59
   2  -1 -14  483.84   26.05
   2  -1 -14  496.62   26.22
   2  -1 -13  177.35   15.82
   2  -1 -13  225.39   17.35
   2  -1 -13  188.94   15.05
   2  -1 -13  198.94   15.57
   2  -1 -12   13.04    5.53
   2  -1 -12   25.83    6.31
   2  -1 -12   26.93    6.26
   2  -1 -11  653.19   30.17
   2  -1 -11  642.95   28.76
   2  -1 -11  662.58   29.20
   2  -1 -10 1211.49   45.14
   2  -1 -10 1198.68   44.16
   2  -1  -9   29.41    5.56
   2  -1  -9   32.04    6.08
   2  -1  -8  393.18   18.97
   2  -1  -8  399.47   19.46
   2  -1  -7  719.89   27.95
   2  -1  -7  695.54   27.94
   2  -1  -7  763.43   28.40
   2  -1  -6 1239.27   41.82
   2  -1  -6 1278.17   42.15
   2  -1  -6 1243.12   41.85
   2  -1  -5   97.05    7.27
   2  -1  -5   97.05    4.54
   2  -1  -5  105.79    3.94
   2  -1  -5   96.94    7.29
   2  -1  -5  107.47    7.50
   2  -1  -5  104.90    3.93
   2  -1  -4  159.31    8.81
   2  -1  -4  179.55    9.06
   2  -1  -4  172.39    6.18
   2  -1  -4  173.36    7.37
   2  -1  -4  176.58    9.43
   2  -1  -4  157.17    5.59
   2  -1  -4  155.24    5.59
   2  -1  -3 1116.82   31.34
   2  -1  -3  930.89   27.40
   2  -1  -3 1022.97   27.35
   2  -1  -3  982.38   27.79
   2  -1  -3  995.38   27.37
   2  -1  -3 1085.68   31.19
   2  -1  -3 1085.72   29.02
   2  -1  -3 1134.55   32.21
   2  -1  -3  940.37   27.40
   2  -1  -3  982.35   27.36
   2  -1  -2   78.50    4.90
   2  -1  -2   73.30    3.50
   2  -1  -2   79.07    3.71
   2  -1  -2   66.90    3.71
   2  -1  -2   66.10    3.26
   2  -1  -2   78.38    4.61
   2  -1  -2   73.79    4.13
   2  -1  -2   82.23    5.34
   2  -1  -2   68.96    3.42
   2  -1  -2   80.91    4.89
   2  -1  -2   68.60    3.31
   2  -1  -2   70.44    4.51
   2  -1  -1   21.77    2.48
   2  -1  -1   15.00    1.74
   2  -1  -1   25.10    2.13
   2  -1  -1   19.21    1.82
   2  -1  -1   23.03    2.08
   2  -1  -1   20.27    1.73
   2  -1  -1   19.42    1.97
   2  -1  -1   19.08    1.88
   2  -1  -1   24.36    2.43
   2  -1  -1   21.34    2.11
   2  -1  -1   17.74    1.74
   2  -1  -1   19.74    2.04
   2  -1   0 2340.14   66.09
   2  -1   0 2519.20   66.46
   2  -1   0 2404.29   66.00
   2  -1   0 2354.67   66.41
   2  -1   0 2561.69   66.52
   2  -1   0 2270.45   65.29
   2  -1   0 2366.23   66.34
   2  -1   0 2374.15   66.31
   2  -1   0 2378.74   65.99
   2  -1   0 2343.61   66.28
   2  -1   0 2401.09   67.00
   2  -1   0 2137.98   65.09
   2  -1   0 2371.54   66.33
   2  -1   1  520.96   23.37
   2  -1   1  950.05   25.42
   2  -1   1  868.70   23.02
   2  -1   1  857.37   25.06
   2  -1   1 1010.18   25.23
   2  -1   1  509.88   23.35
   2  -1   1  990.59   25.17
   2  -1   1  989.90   25.21
   2  -1   1 1067.54   25.96
   2  -1   2 1369.44   39.99
   2  -1   2 1436.32   40.38
   2  -1   2 1434.58   40.55
   2  -1   2 1376.81   37.17
   2  -1   2 1330.55   39.93
   2  -1   2 1393.31   40.02
   2  -1   3   24.89    3.06
   2  -1   3   23.79    2.54
   2  -1   3   23.79    3.05
   2  -1   3   23.60    2.92
   2  -1   3   26.92    2.67
   2  -1   4  219.43    9.70
   2  -1   4  200.01    8.65
   2  -1   4  202.60    9.69
   2  -1   4  228.30   10.12
   2  -1   4  198.32    8.64
   2  -1   4  182.61    9.00
   2  -1   5 3268.55   93.19
   2  -1   5 3181.94   92.07
   2  -1   6 2112.68   62.44
   2  -1   6 2067.06   63.12
   2  -1   7  152.90    9.76
   2  -1   7  187.01   10.00
   2  -1   8  478.17   18.60
   2  -1   8  483.82   18.59
   2  -1   8  472.86   20.04
   2  -1   8  466.55   19.44
   2  -1   9 1792.92   57.29
   2  -1   9 1765.29   56.30
   2  -1  10  632.89   26.38
   2  -1  10  667.51   26.01
   2  -1  11   59.67    7.10
   2  -1  11   52.88    6.80
   2  -1  12  587.43   25.89
   2  -1  12  562.03   24.90
   2  -1  13  270.23   16.86
   2   0 -16   13.32    5.94
   2   0 -16   10.18    7.35
   2   0 -16   12.23    5.95
   2   0 -15  125.32   13.07
   2   0 -15   99.24   12.53
   2   0 -15  120.13   13.81
   2   0 -15  122.26   13.00
   2   0 -14  291.46   19.86
   2   0 -14  252.99   19.32
   2   0 -14  270.93   18.99
   2   0 -14  277.80   19.33
   2   0 -13   40.09    7.57
   2   0 -13   33.51    7.08
   2   0 -13   36.28    7.63
   2   0 -12   32.18    6.95
   2   0 -12   23.27    5.84
   2   0 -12   12.47    5.17
   2   0 -11  522.61   25.59
   2   0 -11  554.07   26.11
   2   0 -10  723.51   30.47
   2   0 -10  726.49   30.63
   2   0  -9  492.77   23.02
   2   0  -9  505.64   23.07
   2   0  -8   45.54    6.66
   2   0  -8   49.58    6.20
   2   0  -8   47.72    6.69
   2   0  -7  376.58   17.57
   2   0  -7  326.99   16.45
   2   0  -7  363.22   17.32
   2   0  -6 2193.03   68.99
   2   0  -6 2229.94   63.37
   2   0  -6 2336.43   69.18
   2   0  -6 2190.13   68.96
   2   0  -6 2296.10   63.47
   2   0  -5  343.97   15.55
   2   0  -5  369.98   15.88
   2   0  -5  356.75   11.13
   2   0  -5  361.97   12.19
   2   0  -5  385.84   16.25
   2   0  -5  384.97   13.26
   2   0  -5  372.32   12.23
   2   0  -4  222.65   10.46
   2   0  -4  203.51    6.62
   2   0  -4  221.32   10.47
   2   0  -4  227.27    8.44
   2   0  -4  216.83    7.76
   2   0  -4  226.32   10.82
   2   0  -4  225.69    9.62
   2   0  -4  205.66    7.68
   2   0  -3  518.28   15.67
   2   0  -3  523.67   18.14
   2   0  -3  473.48   14.38
   2   0  -3  555.96   18.37
   2   0  -3  511.17   15.76
   2   0  -3  479.47   16.37
   2   0  -3  501.68   15.61
   2   0  -3  509.88   18.68
   2   0  -2 3006.92   79.08
   2   0  -2 2778.23   80.89
   2   0  -2 2790.32   77.93
   2   0  -2 2912.86   78.21
   2   0  -2 2995.89   79.41
   2   0  -2 2969.18   79.07
   2   0  -2 2923.66   80.99
   2   0  -1  179.73    7.21
   2   0  -1  173.27    6.50
   2   0  -1  188.87    6.98
   2   0  -1  178.31    7.16
   2   0   0 1891.48   51.49
   2   0   0 1761.78   50.66
   2   0   0 1916.11   50.22
   2   0   0 1847.75   51.41
   2   0   0 1796.37   50.09
   2   0   0 1619.16   49.09
   2   0   0 2031.38   52.65
   2   0   1 4418.97  123.23
   2   0   1 4513.41  121.69
   2   0   1 4175.67  122.71
   2   0   1 4363.87  121.32
   2   0   1 4402.82  123.23
   2   0   2 1069.80   32.37
   2   0   2 1046.27   31.73
   2   0   2  994.45   32.11
   2   0   2 1067.78   29.79
   2   0   2 1065.18   32.38
   2   0   2 1060.76   31.80
   2   0   2 1002.46   30.76
   2   0   3    2.08    1.63
   2   0   3    4.57    1.51
   2   0   3    1.36    1.48
   2   0   3    1.28    1.10
   2   0   3    5.50    2.19
   2   0   3    4.85    1.41
   2   0   3    5.60    2.04
   2   0   3    3.22    1.45
   2   0   3    1.05    1.33
   2   0   4 2276.14   64.07
   2   0   4 2216.55   63.92
   2   0   4 2194.72   64.61
   2   0   4 2102.04   62.79
   2   0   5 1284.32   39.42
   2   0   5 1272.07   40.41
   2   0   5 1210.05   38.64
   2   0   5 1328.23   39.61
   2   0   6  469.85   17.63
   2   0   6  478.07   18.97
   2   0   6  454.01   17.45
   2   0   6  468.21   17.65
   2   0   7  139.11    8.03
   2   0   7  131.14    8.94
   2   0   7  118.36    7.82
   2   0   7  132.07    7.90
   2   0   8   11.44    3.67
   2   0   8   13.86    3.54
   2   0   9  851.43   31.09
   2   0   9  779.14   29.12
   2   0  10    7.00    3.40
   2   0  11    2.08    3.11
   2   0  12   57.97    7.83
   2   0  13  161.75   13.30
   2   1 -16   21.51    7.01
   2   1 -16   17.43    6.89
   2   1 -16   19.27    7.36
   2   1 -15    1.18    5.27
   2   1 -15    1.09    6.70
   2   1 -14  290.13   19.77
   2   1 -14  283.84   19.52
   2   1 -14  321.88   20.55
   2   1 -13  393.29   22.35
   2   1 -13  380.05   22.57
   2   1 -13  436.82   23.81
   2   1 -12  170.16   13.75
   2   1 -12  167.94   13.96
   2   1 -11  440.32   22.44
   2   1 -11  480.96   23.99
   2   1 -10 1088.07   41.62
   2   1 -10 1126.77   41.16
   2   1  -9  922.59   35.44
   2   1  -9  875.94   34.15
   2   1  -9  940.04   35.68
   2   1  -8  110.27    9.48
   2   1  -8  103.47    8.66
   2   1  -8  104.05    9.13
   2   1  -7 1630.63   54.22
   2   1  -7 1753.56   53.93
   2   1  -7 1623.82   54.21
   2   1  -6 1747.39   55.78
   2   1  -6 1696.23   51.27
   2   1  -6 1899.75   55.95
   2   1  -6 1742.67   55.72
   2   1  -6 1788.88   51.46
   2   1  -5    9.09    2.68
   2   1  -5    2.20    1.54
   2   1  -5    3.01    1.68
   2   1  -5    2.37    0.77
   2   1  -5    1.64    1.88
   2   1  -5   12.32    2.86
   2   1  -5   15.72    2.09
   2   1  -5    7.06    1.95
   2   1  -4    2.97    1.35
   2   1  -4    1.38    1.51
   2   1  -4    1.09    1.10
   2   1  -4    1.09    1.31
   2   1  -4    2.96    0.87
   2   1  -4    4.46    1.92
   2   1  -4    0.74    1.58
   2   1  -4    2.46    1.34
   2   1  -3 1609.99   44.00
   2   1  -3 1525.79   45.83
   2   1  -3 1565.94   44.40
   2   1  -3 1559.43   43.89
   2   1  -3 1542.39   45.20
   2   1  -3 1577.77   45.47
   2   1  -3 1524.00   45.80
   2   1  -2  991.75   28.39
   2   1  -2  987.56   29.74
   2   1  -2  852.75   26.33
   2   1  -2  977.19   28.43
   2   1  -2 1016.00   28.46
   2   1  -2  875.58   26.24
   2   1  -2  980.18   29.69
   2   1  -2  953.56   28.72
   2   1  -2  966.91   29.27
   2   1  -2  986.78   29.72
   2   1  -2  988.95   28.87
   2   1  -1   34.41    2.98
   2   1  -1   35.62    2.39
   2   1  -1   40.12    3.22
   2   1  -1   35.39    2.99
   2   1  -1   38.97    3.19
   2   1  -1   39.40    3.19
   2   1  -1   46.09    3.36
   2   1   0  370.14   13.36
   2   1   0  361.35   12.56
   2   1   0  417.93   13.32
   2   1   0  370.99   13.34
   2   1   0  368.58   13.25
   2   1   0  366.03   13.23
   2   1   0  361.63   13.27
   2   1   1 2218.37   57.76
   2   1   1 2107.42   57.14
   2   1   1 2039.72   56.50
   2   1   1 1975.86   54.44
   2   1   1 2219.13   57.74
   2   1   1 2123.31   57.47
   2   1   1 2145.83   57.49
   2   1   1 2193.79   57.63
   2   1   2 1106.35   32.77
   2   1   2  998.01   30.89
   2   1   2 1018.84   30.33
   2   1   2  988.72   30.86
   2   1   2  919.11   28.48
   2   1   2  937.54   28.70
   2   1   2 1017.18   30.96
   2   1   2 1001.20   30.83
   2   1   2 1019.08   30.34
   2   1   2 1043.25   30.99
   2   1   2 1022.03   31.01
   2   1   3  420.16   15.40
   2   1   3  412.34   15.66
   2   1   3  401.01   13.73
   2   1   3  436.17   15.53
   2   1   4 1295.82   39.51
   2   1   4 1304.29   40.27
   2   1   4 1246.21   37.99
   2   1   4 1281.15   39.44
   2   1   5 1248.62   39.47
   2   1   5 1291.16   40.85
   2   1   5 1254.60   38.57
   2   1   5 1287.17   39.60
   2   1   6  393.82   15.71
   2   1   6  413.94   17.32
   2   1   6  393.54   15.42
   2   1   6  395.19   15.73
   2   1   7   60.09    5.30
   2   1   7   62.79    6.33
   2   1   7   62.07    5.63
   2   1   7   69.74    5.68
   2   1   8  578.10   23.80
   2   1   9  780.86   30.38
   2   1  10  135.27   10.82
   2   1  11    0.73    3.48
   2   1  12  284.69   17.54
   2   1  13  417.16   22.24
   2   1  14   36.45    7.22
   2   2 -16    8.03    5.71
   2   2 -16    2.41    5.64
   2   2 -16    9.18    5.93
   2   2 -15   77.97   11.08
   2   2 -15   81.31   11.45
   2   2 -14  450.74   25.49
   2   2 -14  466.74   25.55
   2   2 -13  420.80   22.81
   2   2 -13  471.65   24.89
   2   2 -12   18.35    6.17
   2   2 -12   25.85    5.61
   2   2 -11  261.78   16.78
   2   2 -11  240.56   15.33
   2   2 -10  335.58   18.94
   2   2 -10  336.07   17.76
   2   2 -10  334.35   19.04
   2   2  -9 1753.06   59.61
   2   2  -9 1769.96   58.10
   2   2  -9 1829.30   60.10
   2   2  -8  191.58   11.51
   2   2  -8  193.11   12.67
   2   2  -8  173.59   12.02
   2   2  -7  555.96   23.23
   2   2  -7  553.07   19.75
   2   2  -7  577.59   22.70
   2   2  -7  560.61   23.27
   2   2  -7  545.12   19.74
   2   2  -6 2086.68   67.21
   2   2  -6 2135.11   64.21
   2   2  -6 2234.10   67.24
   2   2  -6 2258.51   61.55
   2   2  -6 2129.22   67.34
   2   2  -6 2244.29   63.45
   2   2  -6 2191.42   64.32
   2   2  -5 2669.38   81.27
   2   2  -5 2701.81   81.26
   2   2  -5 2633.86   78.67
   2   2  -5 2720.14   76.81
   2   2  -5 2795.35   81.68
   2   2  -5 2827.43   77.77
   2   2  -5 2715.00   78.81
   2   2  -4   33.37    3.40
   2   2  -4   23.97    2.29
   2   2  -4   29.19    3.70
   2   2  -4   23.66    2.79
   2   2  -4   25.22    3.06
   2   2  -4   22.49    2.71
   2   2  -4   29.63    3.70
   2   2  -4   27.22    3.15
   2   2  -4   29.65    2.42
   2   2  -3 2187.03   60.96
   2   2  -3 2094.71   58.87
   2   2  -3 2130.84   62.24
   2   2  -3 2103.91   59.75
   2   2  -3 2083.84   62.12
   2   2  -3 2011.80   58.05
   2   2  -3 2318.68   61.66
   2   2  -3 2158.72   60.90
   2   2  -3 2132.88   61.52
   2   2  -3 2155.36   61.96
   2   2  -2 6429.55  167.58
   2   2  -2 6281.36  168.53
   2   2  -2 6171.68  165.34
   2   2  -2 6610.48  168.17
   2   2  -2 6489.13  167.61
   2   2  -2 6730.82  167.72
   2   2  -2 6278.80  168.50
   2   2  -2 6619.47  167.65
   2   2  -2 6637.51  167.70
   2   2  -2 6111.01  168.56
   2   2  -1 1019.46   32.09
   2   2  -1  997.29   30.70
   2   2  -1 1121.61   32.83
   2   2  -1 1030.37   32.13
   2   2  -1 1037.35   31.89
   2   2  -1 1077.14   32.02
   2   2  -1 1070.03   32.02
   2   2  -1 1048.95   33.19
   2   2   0    1.48    1.32
   2   2   0    3.49    1.47
   2   2   0    4.18    1.94
   2   2   0    3.09    1.76
   2   2   0    2.96    1.50
   2   2   0    4.04    1.45
   2   2   0    2.25    1.39
   2   2   0    1.59    1.15
   2   2   1 1308.57   38.92
   2   2   1 1272.49   35.62
   2   2   1 1251.20   38.35
   2   2   1 1205.99   38.00
   2   2   1 1261.00   38.76
   2   2   1 1289.14   38.51
   2   2   1 1312.47   38.59
   2   2   1 1309.83   38.65
   2   2   2 4236.16  117.63
   2   2   2 4143.64  114.79
   2   2   2 4140.19  117.70
   2   2   2 4242.95  117.62
   2   2   3  250.73   11.08
   2   2   3  252.75   11.51
   2   2   3  265.05    9.63
   2   2   3  256.15   11.17
   2   2   4  557.08   19.83
   2   2   4  572.18   20.90
   2   2   4  539.37   18.39
   2   2   4  554.22   19.83
   2   2   5  787.85   26.60
   2   2   5  811.37   28.21
   2   2   5  771.05   26.49
   2   2   6  661.19   23.27
   2   2   6  689.92   25.42
   2   2   6  630.36   23.03
   2   2   7   70.87    7.11
   2   2   8  530.85   22.88
   2   2   9  448.49   21.18
   2   2  10   12.06    4.33
   2   2  11    1.54    3.75
   2   2  12  162.30   13.05
   2   2  13  263.04   17.44
   2   3 -17  229.63   19.02
   2   3 -17  259.35   19.84
   2   3 -17  265.00   20.36
   2   3 -16  400.14   24.73
   2   3 -16  380.15   24.42
   2   3 -15   53.80    9.65
   2   3 -15   64.73   10.22
   2   3 -14  412.01   24.10
   2   3 -13 1064.38   43.40
   2   3 -12  160.78   12.28
   2   3 -12  150.25   13.23
   2   3 -11   15.26    5.50
   2   3 -11   12.55    4.16
   2   3 -11   17.99    5.62
   2   3 -10 1429.24   49.89
   2   3 -10 1358.46   47.36
   2   3 -10 1369.96   49.46
   2   3  -9  836.54   33.81
   2   3  -9  880.60   32.35
   2   3  -9  881.41   34.36
   2   3  -8   11.12    3.31
   2   3  -8    2.55    3.41
   2   3  -8    8.34    3.08
   2   3  -8    8.56    2.87
   2   3  -8    2.55    3.46
   2   3  -7 1204.62   43.31
   2   3  -7 1284.82   40.95
   2   3  -7 1272.10   43.69
   2   3  -7 1284.11   40.99
   2   3  -6 1233.82   41.47
   2   3  -6 1173.19   41.12
   2   3  -6 1359.07   38.38
   2   3  -6 1228.75   39.48
   2   3  -6 1304.79   41.49
   2   3  -6 1247.73   37.27
   2   3  -6 1198.97   39.37
   2   3  -5 1233.74   40.93
   2   3  -5 1375.23   38.33
   2   3  -5 1249.10   40.94
   2   3  -5 1259.89   39.56
   2   3  -5 1215.04   37.76
   2   3  -5 1333.13   39.80
   2   3  -5 1227.47   39.45
   2   3  -4 1002.31   33.83
   2   3  -4 1018.90   31.71
   2   3  -4 1025.47   29.84
   2   3  -4 1141.11   31.57
   2   3  -4  987.01   32.88
   2   3  -4 1017.46   33.84
   2   3  -4 1052.25   33.04
   2   3  -4 1115.96   33.61
   2   3  -4 1027.26   33.04
   2   3  -3 1567.54   46.21
   2   3  -3 1688.07   47.32
   2   3  -3 1493.91   43.48
   2   3  -3 1614.07   47.13
   2   3  -3 1574.67   46.23
   2   3  -3 1632.24   47.08
   2   3  -3 1603.06   45.84
   2   3  -3 1496.20   45.14
   2   3  -3 1633.40   45.90
   2   3  -3 1621.33   45.91
   2   3  -3 1558.86   46.76
   2   3  -2 3640.27  102.60
   2   3  -2 3554.39  102.87
   2   3  -2 3571.28  100.44
   2   3  -2 3708.41  103.67
   2   3  -2 3566.10  102.51
   2   3  -2 3540.47  101.90
   2   3  -2 3710.02  102.01
   2   3  -2 3563.11  102.86
   2   3  -2 3701.10  102.00
   2   3  -2 3763.69  102.10
   2   3  -2 3515.36  103.21
   2   3  -1   19.11    2.86
   2   3  -1   18.15    2.37
   2   3  -1   19.84    3.42
   2   3  -1   18.84    2.90
   2   3  -1   22.73    2.78
   2   3  -1   20.83    2.73
   2   3  -1   20.25    2.59
   2   3   0  234.64   10.12
   2   3   0  222.61    9.42
   2   3   0  215.46   10.27
   2   3   0  235.74   10.12
   2   3   0  222.55    9.50
   2   3   0  207.28    6.83
   2   3   0  231.63    9.60
   2   3   0  227.44    9.57
   2   3   1  437.51   16.21
   2   3   1  418.43   15.84
   2   3   1  422.46   15.79
   2   3   1  434.92   16.17
   2   3   2  742.40   25.33
   2   3   2  757.71   25.64
   2   3   2  762.45   25.45
   2   3   3  372.56   15.03
   2   3   3  378.76   15.71
   2   3   3  387.77   15.19
   2   3   4  233.81   11.05
   2   3   4  237.10   12.04
   2   3   4  245.51   11.29
   2   3   5   49.14    4.70
   2   3   5   53.07    6.01
   2   3   5   39.87    4.29
   2   3   6  864.01   31.60
   2   3   7  123.86    9.71
   2   3   8    8.31    3.90
   2   3   9  319.47   17.60
   2   3  10  330.45   18.69
   2   3  11   12.89    4.98
   2   3  12   98.72   10.89
   2   4 -17  103.33   12.89
   2   4 -17   92.83   12.03
   2   4 -17   86.81   11.82
   2   4 -16  204.82   17.19
   2   4 -16  200.25   17.26
   2   4 -15   21.80    7.47
   2   4 -15   20.64    6.81
   2   4 -14   44.26    8.49
   2   4 -13  336.27   20.65
   2   4 -12  307.99   19.04
   2   4 -11  431.23   22.43
   2   4 -11  416.20   22.23
   2   4 -10  311.08   18.03
   2   4 -10  328.07   16.57
   2   4 -10  301.53   17.88
   2   4  -9  429.61   21.56
   2   4  -9  473.08   19.25
   2   4  -9  440.50   20.01
   2   4  -9  466.64   22.09
   2   4  -9  487.98   19.53
   2   4  -8  635.82   26.95
   2   4  -8  665.30   24.92
   2   4  -8  701.19   26.15
   2   4  -8  651.15   27.01
   2   4  -8  670.98   24.97
   2   4  -7  111.68    8.82
   2   4  -7  118.16    8.16
   2   4  -7  125.36    8.57
   2   4  -7  123.97    9.21
   2   4  -7  105.57    7.85
   2   4  -6 1405.40   46.07
   2   4  -6 1414.84   45.06
   2   4  -6 1473.08   43.14
   2   4  -6 1356.26   45.77
   2   4  -6 1422.78   45.11
   2   4  -5 1913.49   59.51
   2   4  -5 1945.19   57.32
   2   4  -5 1954.26   58.89
   2   4  -5 1892.37   59.42
   2   4  -5 2022.94   59.09
   2   4  -4 1653.77   50.98
   2   4  -4 1677.38   47.58
   2   4  -4 1675.86   50.79
   2   4  -4 1611.53   50.79
   2   4  -4 1625.38   49.53
   2   4  -4 1691.85   50.85
   2   4  -3  593.84   20.86
   2   4  -3  561.96   18.46
   2   4  -3  559.56   20.65
   2   4  -3  562.78   20.03
   2   4  -3  568.53   20.61
   2   4  -3  571.18   20.75
   2   4  -2 4307.86  124.11
   2   4  -2 4302.44  123.94
   2   4  -2 4388.62  123.81
   2   4  -2 4304.51  122.18
   2   4  -2 4350.40  124.16
   2   4  -2 4524.29  123.04
   2   4  -2 4298.81  123.88
   2   4  -2 4502.20  123.02
   2   4  -2 4485.25  123.08
   2   4  -1 3012.18   86.82
   2   4  -1 2905.96   85.32
   2   4  -1 3001.25   86.79
   2   4  -1 2985.08   86.71
   2   4  -1 3102.56   85.62
   2   4   0  517.57   19.42
   2   4   0  546.73   19.06
   2   4   0  532.90   19.54
   2   4   0  518.82   19.80
   2   4   0  528.91   19.79
   2   4   1 1772.82   54.00
   2   4   1 1821.35   54.04
   2   4   1 1768.51   54.00
   2   4   2 2160.05   64.54
   2   4   2 2209.14   65.12
   2   4   2 2140.36   64.49
   2   4   3  387.20   15.74
   2   4   3  377.51   16.48
   2   4   3  390.55   15.81
   2   4   4    8.30    2.55
   2   4   4    4.26    3.10
   2   4   4    5.66    2.25
   2   4   5  910.73   32.77
   2   4   6  546.28   23.06
   2   4   7  125.11   10.10
   2   4   8   17.81    5.11
   2   4   9  372.22   19.92
   2   4  10  212.02   14.92
   2   4  11   91.96   10.14
   2   5 -17  146.61   15.26
   2   5 -17  144.34   14.96
   2   5 -16  393.10   24.43
   2   5 -16  390.29   24.49
   2   5 -15  200.96   16.60
   2   5 -14   45.68    8.55
   2   5 -13  348.49   21.02
   2   5 -12 1041.21   41.51
   2   5 -12 1051.04   41.66
   2   5 -11   31.54    6.66
   2   5 -11   17.54    5.38
   2   5 -10  184.14   13.22
   2   5 -10  188.52   11.32
   2   5 -10  150.97   12.38
   2   5 -10  170.82   11.05
   2   5  -9 1083.42   40.55
   2   5  -9 1141.37   38.56
   2   5  -9 1107.45   40.74
   2   5  -9 1110.84   38.49
   2   5  -8  270.78   14.87
   2   5  -8  258.03   13.62
   2   5  -8  262.44   13.68
   2   5  -8  259.23   14.68
   2   5  -8  251.52   13.56
   2   5  -7    5.42    3.30
   2   5  -7   -0.54    2.26
   2   5  -7    3.44    3.56
   2   5  -7    1.09    2.37
   2   5  -6  684.31   26.19
   2   5  -6  690.16   26.20
   2   5  -6  712.74   26.33
   2   5  -6  730.80   24.68
   2   5  -6  702.82   26.22
   2   5  -5  559.07   21.68
   2   5  -5  572.12   22.02
   2   5  -5  555.48   20.68
   2   5  -5  568.05   21.70
   2   5  -5  593.33   22.23
   2   5  -4  492.65   19.50
   2   5  -4  528.52   17.66
   2   5  -4  528.35   20.32
   2   5  -4  514.69   19.40
   2   5  -4  492.53   19.47
   2   5  -4  533.71   20.35
   2   5  -3    3.20    1.84
   2   5  -3    2.03    2.51
   2   5  -3    0.76    1.65
   2   5  -3    0.81    2.35
   2   5  -3    2.56    2.40
   2   5  -3    1.42    1.58
   2   5  -2  439.90   17.75
   2   5  -2  437.46   17.22
   2   5  -2  463.48   16.60
   2   5  -2  449.21   18.02
   2   5  -2  447.56   17.28
   2   5  -2  436.82   17.88
   2   5  -1  933.45   31.72
   2   5  -1  967.54   30.79
   2   5  -1  917.45   31.65
   2   5  -1  941.40   31.96
   2   5   0  717.06   25.68
   2   5   0  711.82   26.14
   2   5   0  736.50   25.26
   2   5   0  719.29   25.68
   2   5   1   77.54    6.34
   2   5   1   74.50    6.13
   2   5   1   67.42    5.97
   2   5   1   76.62    6.86
   2   5   2  600.36   22.48
   2   5   2  613.94   23.06
   2   5   2  598.51   23.42
   2   5   2  596.61   22.42
   2   5   3  797.79   28.02
   2   5   3  778.45   28.91
   2   5   3  806.22   28.07
   2   5   3  803.31   29.47
   2   5   4  229.54   13.02
   2   5   4  229.63   12.94
   2   5   5  113.10    9.34
   2   5   5  119.18    9.45
   2   5   6  702.95   28.19
   2   5   6  715.28   28.60
   2   5   7  418.81   20.42
   2   5   7  453.58   21.36
   2   5   8  121.34   10.77
   2   5   9  232.93   15.62
   2   5  10  306.07   18.71
   2   6 -17  179.74   16.26
   2   6 -17  166.05   15.84
   2   6 -16  133.80   13.72
   2   6 -16  117.91   13.03
   2   6 -15  189.15   15.97
   2   6 -14   -1.00    5.42
   2   6 -13  128.66   12.71
   2   6 -12  343.75   20.25
   2   6 -12  385.73   21.21
   2   6 -11  692.72   29.69
   2   6 -11  636.12   29.00
   2   6 -10   -0.61    3.40
   2   6 -10   10.52    4.87
   2   6 -10    0.60    3.49
   2   6 -10   16.57    5.09
   2   6  -9  502.18   22.86
   2   6  -9  474.97   21.63
   2   6  -9  497.65   22.74
   2   6  -9  508.43   22.09
   2   6  -8 1839.45   59.14
   2   6  -8 1852.85   58.65
   2   6  -8 1733.92   58.53
   2   6  -8 1815.04   58.46
   2   6  -7  656.03   26.20
   2   6  -7  710.89   24.87
   2   6  -7  688.25   26.75
   2   6  -7  630.06   25.91
   2   6  -7  689.69   26.77
   2   6  -6   53.84    6.38
   2   6  -6   44.64    5.29
   2   6  -6   57.52    6.62
   2   6  -6   45.88    5.45
   2   6  -6   44.29    5.27
   2   6  -5 1659.04   52.51
   2   6  -5 1705.70   52.52
   2   6  -5 1684.55   53.83
   2   6  -5 1685.19   52.59
   2   6  -5 1670.61   53.76
   2   6  -4 1949.64   59.46
   2   6  -4 1913.67   59.30
   2   6  -4 2013.38   61.18
   2   6  -4 1948.01   60.11
   2   6  -4 1963.67   61.00
   2   6  -3  219.50   11.96
   2   6  -3  236.31   11.37
   2   6  -3  241.07   10.90
   2   6  -3  258.04   12.82
   2   6  -3  226.83   11.21
   2   6  -3  245.40   12.57
   2   6  -2  293.57   14.11
   2   6  -2  301.28   12.90
   2   6  -2  271.66   13.74
   2   6  -2  272.51   12.65
   2   6  -2  294.27   14.09
   2   6  -1  920.07   30.45
   2   6  -1  877.73   31.17
   2   6  -1  908.78   31.84
   2   6  -1  861.13   31.06
   2   6   0  944.66   32.57
   2   6   0  950.35   33.07
   2   6   0  945.97   33.76
   2   6   0  994.95   33.34
   2   6   1  321.82   14.80
   2   6   1  334.98   15.09
   2   6   1  292.65   14.43
   2   6   1  304.49   15.34
   2   6   2  429.77   18.32
   2   6   2  430.44   18.84
   2   6   2  434.97   18.34
   2   6   2  432.41   19.45
   2   6   3  721.34   28.19
   2   6   3  729.62   27.92
   2   6   4    0.60    3.39
   2   6   4    1.81    3.58
   2   6   5  378.58   18.85
   2   6   5  377.87   18.97
   2   6   6  289.51   16.65
   2   6   6  283.32   16.22
   2   6   7  139.56   11.56
   2   6   7  132.11   11.04
   2   6   8    1.60    3.81
   2   6   9   32.25    7.13
   2   7 -17   69.59   10.85
   2   7 -17   75.16   11.01
   2   7 -16  388.31   23.42
   2   7 -16  363.54   22.92
   2   7 -15  132.43   13.32
   2   7 -14   58.19    9.11
   2   7 -13  653.66   30.24
   2   7 -12  401.99   21.78
   2   7 -12  390.58   21.60
   2   7 -11  162.84   12.86
   2   7 -11  152.15   11.47
   2   7 -11  155.63   12.66
   2   7 -11  170.87   12.21
   2   7 -10  940.87   36.21
   2   7 -10  956.58   35.47
   2   7 -10  882.12   35.63
   2   7 -10  934.52   35.38
   2   7  -9  841.37   32.84
   2   7  -9  840.05   32.65
   2   7  -9  833.47   32.77
   2   7  -9  880.59   33.12
   2   7  -8 1004.59   36.54
   2   7  -8 1028.37   37.19
   2   7  -8  977.89   36.30
   2   7  -8 1017.92   37.16
   2   7  -7   20.46    5.22
   2   7  -7   14.08    3.76
   2   7  -7   16.69    4.92
   2   7  -7   14.83    3.73
   2   7  -7   14.56    3.78
   2   7  -6  458.77   20.79
   2   7  -6  468.56   19.63
   2   7  -6  459.22   20.84
   2   7  -5 1396.95   46.84
   2   7  -5 1420.48   45.71
   2   7  -5 1342.25   46.50
   2   7  -4  436.01   19.64
   2   7  -4  439.87   19.13
   2   7  -4  437.94   19.72
   2   7  -3   82.59    7.72
   2   7  -3   86.62    6.70
   2   7  -3   85.78    7.62
   2   7  -3   99.41    8.27
   2   7  -2  107.58    7.79
   2   7  -2  109.01    8.56
   2   7  -2  104.98    8.72
   2   7  -2  118.12    8.88
   2   7  -1  338.09   16.52
   2   7  -1  330.06   15.29
   2   7  -1  340.79   16.19
   2   7  -1  325.01   15.96
   2   7   0  741.92   27.21
   2   7   0  694.93   27.18
   2   7   0  721.54   28.15
   2   7   0  735.78   27.58
   2   7   1    2.08    2.58
   2   7   1   -0.53    3.23
   2   7   1    2.60    3.00
   2   7   1    0.60    3.35
   2   7   2    5.72    3.09
   2   7   2   11.46    3.72
   2   7   2   10.92    3.37
   2   7   2    7.47    3.70
   2   7   3 1127.73   39.70
   2   7   3 1079.71   39.89
   2   7   4  403.51   20.12
   2   7   4  443.83   21.05
   2   7   5    4.97    4.16
   2   7   5   -2.13    3.86
   2   7   6  442.81   21.94
   2   7   6  413.57   21.40
   2   7   7  534.36   25.59
   2   7   8  143.61   12.44
   2   8 -17    5.43    4.62
   2   8 -17   15.19    6.36
   2   8 -16  147.81   14.01
   2   8 -15   71.57    9.79
   2   8 -14   16.08    5.71
   2   8 -13   15.97    5.42
   2   8 -12  175.30   12.79
   2   8 -12  164.32   12.75
   2   8 -11  186.59   13.51
   2   8 -11  207.46   14.12
   2   8 -10   18.98    5.20
   2   8 -10   11.52    4.23
   2   8  -9    3.59    4.49
   2   8  -9    4.98    4.50
   2   8  -8  791.98   31.83
   2   8  -8  809.31   32.08
   2   8  -7  283.47   16.45
   2   8  -7  275.56   14.75
   2   8  -6   11.99    4.75
   2   8  -6    7.31    4.41
   2   8  -6   19.63    4.53
   2   8  -5  560.45   24.42
   2   8  -5  562.60   23.56
   2   8  -5  568.80   24.61
   2   8  -4  419.29   19.89
   2   8  -4  412.67   19.27
   2   8  -4  422.42   19.90
   2   8  -3  320.64   16.48
   2   8  -3  321.40   16.66
   2   8  -3  310.75   16.47
   2   8  -2  142.06    9.66
   2   8  -2  157.95   10.98
   2   8  -2  157.28   11.25
   2   8  -2  141.70   10.58
   2   8  -1  518.14   22.95
   2   8  -1  530.20   21.78
   2   8  -1  522.00   22.59
   2   8  -1  514.70   22.49
   2   8   0  104.90    8.70
   2   8   0   98.18    8.63
   2   8   0   93.64    9.08
   2   8   0   97.66    8.68
   2   8   1    2.34    3.70
   2   8   1   -1.79    3.19
   2   8   1    1.17    3.70
   2   8   1    0.67    3.83
   2   8   2   76.01    8.55
   2   8   2   89.45    8.47
   2   8   3  210.77   13.67
   2   8   3  186.73   13.57
   2   8   4   59.52    7.67
   2   8   4   50.33    7.58
   2   8   5    0.77    3.83
   2   8   5    3.90    4.10
   2   8   6   29.33    6.20
   2   8   6   27.45    6.30
   2   8   7   95.31   10.38
   2   9 -12  742.57   31.36
   2   9 -12  715.57   31.10
   2   9 -11  314.50   18.42
   2   9 -11  308.16   18.42
   2   9 -10   22.91    6.00
   2   9 -10   21.81    5.72
   2   9  -9  198.26   14.36
   2   9  -9  204.77   14.56
   2   9  -8  676.09   29.27
   2   9  -8  682.21   29.39
   2   9  -7   84.07    9.46
   2   9  -7   88.11    9.44
   2   9  -7   94.29    8.59
   2   9  -6  150.50   11.89
   2   9  -6  145.76   11.09
   2   9  -6  146.55   11.90
   2   9  -5   51.62    7.37
   2   9  -5   38.62    6.81
   2   9  -5   47.30    6.50
   2   9  -4  652.62   27.56
   2   9  -4  660.31   27.94
   2   9  -4  684.54   28.28
   2   9  -3   28.82    5.95
   2   9  -3   23.71    5.07
   2   9  -3   19.21    5.05
   2   9  -2   37.69    6.29
   2   9  -2   30.98    5.83
   2   9  -2   29.90    5.98
   2   9  -1  382.16   18.22
   2   9  -1  359.07   18.71
   2   9  -1  381.38   19.53
   2   9  -1  358.18   18.65
   2   9   0  268.63   16.31
   2   9   0  277.69   15.51
   2   9   0  260.89   15.44
   2   9   0  290.51   16.08
   2   9   1  127.04   10.45
   2   9   1  141.36   11.53
   2   9   2   33.33    6.60
   2   9   2   27.62    5.50
   2   9   3  222.63   14.74
   2   9   3  218.96   15.33
   2   9   4  259.15   16.72
   2   9   4  267.03   17.26
   2   9   5   29.71    6.68
   2   9   5   33.12    6.81
   2  10 -13   25.45    6.22
   2  10 -13   17.61    5.70
   2  10 -12  222.95   15.55
   2  10 -12  223.14   15.89
   2  10 -11  390.35   21.47
   2  10 -11  409.51   22.07
   2  10 -10  700.80   31.21
   2  10 -10  738.59   31.92
   2  10  -9    0.84    4.90
   2  10  -9    4.98    5.18
   2  10  -8  551.34   26.57
   2  10  -8  617.65   27.66
   2  10  -7  487.10   24.01
   2  10  -7  490.38   22.77
   2  10  -7  475.03   23.92
   2  10  -6  355.57   18.51
   2  10  -6  308.54   18.36
   2  10  -6  306.47   18.52
   2  10  -5   89.25    9.62
   2  10  -5   86.21    9.11
   2  10  -5   87.43    9.77
   2  10  -4  805.73   32.94
   2  10  -4  855.38   33.21
   2  10  -4  742.21   32.19
   2  10  -3  382.10   20.07
   2  10  -3  374.01   19.83
   2  10  -3  334.78   19.17
   2  10  -2   -0.74    4.17
   2  10  -2    6.18    4.20
   2  10  -2    3.72    3.84
   2  10  -1  389.90   20.29
   2  10  -1  400.27   21.00
   2  10  -1  371.06   19.95
   2  10   0  846.84   33.18
   2  10   0  817.88   34.24
   2  10   1   75.08    8.68
   2  10   1   87.98    9.73
   2  10   2   73.51    8.75
   2  10   2   67.25    8.84
   2  10   3  367.99   20.45
   2  10   3  378.79   21.45
   2  10   4   87.28   10.01
   2  10   4   93.80   10.49
   2  11 -13   65.56    9.02
   2  11 -13   47.98    7.85
   2  11 -12  355.60   21.35
   2  11 -12  413.89   22.57
   2  11 -11  591.31   27.93
   2  11 -11  548.02   27.42
   2  11 -10  150.92   13.11
   2  11 -10  157.54   13.48
   2  11  -9   84.66   10.02
   2  11  -9   73.14    9.18
   2  11  -8  415.15   23.00
   2  11  -8  472.31   24.12
   2  11  -7   80.19    9.87
   2  11  -7   92.63   10.23
   2  11  -7   89.23    9.87
   2  11  -6  119.66   11.85
   2  11  -6  152.99   12.29
   2  11  -6  142.64   12.84
   2  11  -5  128.53   12.16
   2  11  -5  137.33   12.47
   2  11  -5  157.47   12.76
   2  11  -4   99.79   10.71
   2  11  -4  104.12   10.73
   2  11  -4  111.93   11.10
   2  11  -3  168.19   13.51
   2  11  -3  160.80   13.30
   2  11  -3  176.97   13.81
   2  11  -2   54.93    8.25
   2  11  -2   55.60    8.16
   2  11  -2   56.69    8.39
   2  11  -1   20.74    5.87
   2  11   0  244.48   16.82
   2  11   1  305.29   18.15
   2  11   1  297.86   18.85
   2  11   2   35.77    6.71
   2  11   2   36.71    7.39
   2  12 -13   11.30    5.52
   2  12 -13   15.84    5.97
   2  12 -12   18.95    6.16
   2  12 -12   27.13    6.80
   2  12 -11  431.56   23.78
   2  12 -11  419.41   23.75
   2  12 -10  251.96   17.59
   2  12 -10  273.38   18.30
   2  12  -9   16.93    6.10
   2  12  -9   13.02    6.17
   2  12  -8  154.75   13.82
   2  12  -8  152.41   13.61
   2  12  -7  673.87   30.69
   2  12  -7  636.99   29.38
   2  12  -7  653.39   30.55
   2  12  -6  104.93   11.33
   2  12  -6  119.62   11.80
   2  12  -6  105.77   11.00
   2  12  -5   40.52    7.84
   2  12  -5   50.15    8.27
   2  12  -4  434.87   23.61
   2  12  -4  469.40   24.25
   2  12  -4  463.78   24.03
   2  12  -3  323.33   19.63
   2  12  -3  303.60   19.15
   2  12  -3  314.33   19.19
   2  12  -2    3.65    4.46
   2  12  -1  159.67   13.75
   2  13  -9    8.84    5.75
   2  13  -9   11.62    5.60
   2  13  -8   48.67    8.17
   2  13  -8   26.95    7.03
   2  13  -7  117.58   12.22
   2  13  -7  120.33   12.37
   2  13  -7  139.79   12.55
   2  13  -6  126.85   12.55
   2  13  -6  133.42   12.70
   2  13  -6  126.24   12.11
   2  13  -5   38.55    7.47
   2  13  -5   32.65    7.47
   2  13  -5   44.66    7.83
   2  13  -4   23.20    6.46
   2  13  -4   41.48    7.73
   3 -15   5  117.07   13.56
   3 -15   6  115.98   13.32
   3 -15   6   91.83   11.80
   3 -15   7   25.29    7.62
   3 -15   7   11.47    6.25
   3 -15   8   13.78    5.62
   3 -15   8   25.69    7.87
   3 -14   0   35.79    8.37
   3 -14   1    2.36    5.14
   3 -14   2  123.20   13.57
   3 -14   2  159.59   15.03
   3 -14   3  157.66   15.27
   3 -14   3  130.05   13.88
   3 -14   4   33.32    7.62
   3 -14   4   19.29    7.38
   3 -14   5  136.58   13.88
   3 -14   5  103.70   12.39
   3 -14   6  221.19   17.72
   3 -14   6  239.19   18.44
   3 -14   7  155.32   14.79
   3 -14   7  150.89   14.73
   3 -14   8    6.71    5.01
   3 -14   9  164.44   15.16
   3 -14  10  243.00   18.51
   3 -14  11   10.32    6.24
   3 -13  -2  394.53   24.80
   3 -13  -2  431.06   25.03
   3 -13  -1  406.52   24.85
   3 -13  -1  412.99   24.80
   3 -13   0   13.87    5.41
   3 -13   0    4.49    5.37
   3 -13   1  219.43   17.09
   3 -13   1  234.88   18.33
   3 -13   2  602.50   30.21
   3 -13   2  571.00   30.33
   3 -13   3  173.18   15.44
   3 -13   3  186.98   15.87
   3 -13   4   -8.45    6.52
   3 -13   4    1.05    5.32
   3 -13   5  145.22   13.88
   3 -13   5  143.72   13.98
   3 -13   6  262.35   18.90
   3 -13   6  306.20   20.40
   3 -13   7  133.74   13.20
   3 -13   7  144.00   13.86
   3 -13   8    8.66    5.28
   3 -13   9   26.30    6.71
   3 -13  10  151.88   14.45
   3 -13  10  162.48   13.99
   3 -13  11   57.57    9.79
   3 -13  12   27.20    7.54
   3 -12  -5   39.43    8.79
   3 -12  -4  121.55   13.22
   3 -12  -3    3.27    5.43
   3 -12  -2   55.17    9.27
   3 -12  -2   63.47    9.86
   3 -12  -1  292.70   19.80
   3 -12  -1  261.60   19.09
   3 -12   0  104.09   11.86
   3 -12   0  134.93   12.78
   3 -12   1    9.93    5.31
   3 -12   1   12.13    5.76
   3 -12   2  556.52   27.98
   3 -12   2  511.95   27.10
   3 -12   3  662.88   31.16
   3 -12   3  604.26   29.87
   3 -12   4  200.95   15.67
   3 -12   4  200.24   16.02
   3 -12   5  184.25   15.41
   3 -12   5  242.33   17.32
   3 -12   6  776.48   34.45
   3 -12   6  780.67   35.22
   3 -12   7  765.49   34.37
   3 -12   7  817.52   36.16
   3 -12   8    2.08    5.06
   3 -12   9  356.33   21.45
   3 -12   9  381.68   23.01
   3 -12  10  483.84   26.70
   3 -12  10  470.93   25.13
   3 -12  11  108.35   12.36
   3 -12  12   11.14    5.96
   3 -12  13  260.01   19.23
   3 -11  -6   86.54   11.08
   3 -11  -5  542.99   28.62
   3 -11  -4  281.48   19.43
   3 -11  -3    1.01    5.04
   3 -11  -2  536.96   27.71
   3 -11  -1  597.42   29.22
   3 -11  -1  592.40   28.73
   3 -11   0   70.38    9.21
   3 -11   0   96.14   10.79
   3 -11   1  102.54   11.24
   3 -11   1  131.66   12.09
   3 -11   2  761.01   34.20
   3 -11   2  839.71   34.99
   3 -11   3  306.22   18.98
   3 -11   3  258.64   17.52
   3 -11   4   -3.71    5.59
   3 -11   4    0.86    4.97
   3 -11   5   76.27    9.71
   3 -11   5   58.60    8.80
   3 -11   6  393.89   21.50
   3 -11   6  400.41   22.72
   3 -11   7  207.83   15.19
   3 -11   7  224.54   16.48
   3 -11   8   29.93    6.86
   3 -11   9  116.85   12.28
   3 -11   9  105.45   11.11
   3 -11  10  259.14   18.54
   3 -11  10  250.36   17.13
   3 -11  11  397.25   23.70
   3 -11  11  371.63   21.62
   3 -11  12    4.34    5.60
   3 -11  13  155.63   14.81
   3 -11  14  228.25   17.91
   3 -10  -7   14.08    5.90
   3 -10  -6    8.85    5.51
   3 -10  -5  185.07   15.01
   3 -10  -4  187.78   14.89
   3 -10  -3  131.17   12.31
   3 -10  -2   36.41    6.89
   3 -10  -1  327.52   19.54
   3 -10   0 1015.53   40.00
   3 -10   0  986.86   39.60
   3 -10   1  173.43   13.61
   3 -10   1  148.83   12.78
   3 -10   2  419.78   22.48
   3 -10   2  440.14   22.41
   3 -10   3  860.09   35.41
   3 -10   3  840.29   34.45
   3 -10   4  533.76   25.08
   3 -10   4  550.14   26.35
   3 -10   5    2.65    4.48
   3 -10   5   18.92    5.53
   3 -10   6 1184.98   43.54
   3 -10   6 1174.18   45.63
   3 -10   7  600.81   28.92
   3 -10   8   35.45    6.55
   3 -10   8   37.23    7.28
   3 -10   9  182.22   15.20
   3 -10   9  163.37   13.40
   3 -10  10 1002.16   41.67
   3 -10  10  984.27   39.70
   3 -10  11  313.57   20.53
   3 -10  11  258.72   17.41
   3 -10  12    1.77    3.67
   3 -10  12    3.15    4.70
   3 -10  13  282.02   19.84
   3 -10  14  156.88   14.71
   3  -9  -9   84.04   10.79
   3  -9  -8  285.28   19.06
   3  -9  -7  502.97   26.03
   3  -9  -6   27.89    6.73
   3  -9  -5  410.80   22.42
   3  -9  -4  905.93   36.92
   3  -9  -3  182.48   13.82
   3  -9  -2   43.40    6.86
   3  -9  -1  453.05   22.46
   3  -9   0  951.49   37.21
   3  -9   0  947.99   36.92
   3  -9   1  359.15   19.08
   3  -9   1  340.72   19.02
   3  -9   2   71.96    8.63
   3  -9   2   70.55    8.08
   3  -9   3    9.61    4.69
   3  -9   3    3.87    4.07
   3  -9   4 1720.21   57.40
   3  -9   4 1718.91   59.24
   3  -9   5    1.33    3.95
   3  -9   5    1.66    3.70
   3  -9   6   31.65    5.76
   3  -9   6   36.73    6.78
   3  -9   7  201.89   14.39
   3  -9   7  210.62   15.42
   3  -9   8  270.41   17.88
   3  -9   8  257.25   16.44
   3  -9   9   90.80   10.54
   3  -9   9   84.00    9.42
   3  -9  10  155.89   13.54
   3  -9  10  137.23   11.92
   3  -9  11  390.00   22.41
   3  -9  11  329.40   19.72
   3  -9  12  338.98   19.76
   3  -9  12  345.88   21.50
   3  -9  13   -1.02    4.76
   3  -9  14  154.75   14.51
   3  -9  15  516.25   28.05
   3  -8 -10    3.30    5.04
   3  -8  -9   33.81    7.47
   3  -8  -8   56.06    8.97
   3  -8  -8   54.84    8.23
   3  -8  -7  267.53   17.31
   3  -8  -7  246.46   16.71
   3  -8  -6   28.68    6.08
   3  -8  -6   31.98    6.25
   3  -8  -5  109.58   10.01
   3  -8  -5  112.60   10.90
   3  -8  -4  927.04   36.31
   3  -8  -3  210.25   14.19
   3  -8  -2   22.96    5.07
   3  -8  -1 1293.38   45.49
   3  -8   0 1518.04   51.41
   3  -8   1  781.09   30.70
   3  -8   1  811.72   31.89
   3  -8   2   12.49    4.19
   3  -8   2   12.33    4.27
   3  -8   3 1606.28   54.43
   3  -8   3 1573.77   52.60
   3  -8   4 3053.61   94.88
   3  -8   4 3302.43   98.38
   3  -8   5   49.96    6.53
   3  -8   5   61.70    7.96
   3  -8   6  339.27   19.20
   3  -8   7 1582.59   57.57
   3  -8   7 1899.27   60.97
   3  -8   8 1197.05   43.82
   3  -8   8 1022.43   40.62
   3  -8   9    9.06    5.09
   3  -8   9   17.13    4.57
   3  -8  10  340.65   20.84
   3  -8  10  363.44   19.80
   3  -8  11  597.78   27.90
   3  -8  11  665.26   30.59
   3  -8  12  185.14   14.08
   3  -8  12  203.14   15.58
   3  -8  13   -0.98    5.31
   3  -8  13    4.27    4.25
   3  -8  14  135.29   13.40
   3  -8  15  269.25   19.10
   3  -7 -11  236.78   18.54
   3  -7 -10  167.06   15.29
   3  -7  -9   16.02    6.41
   3  -7  -9    4.28    4.09
   3  -7  -8  268.36   17.94
   3  -7  -8  278.93   17.36
   3  -7  -7  786.59   33.45
   3  -7  -7  780.36   32.68
   3  -7  -6   81.60    9.11
   3  -7  -6  101.59    9.93
   3  -7  -5   56.85    7.22
   3  -7  -5   50.86    7.38
   3  -7  -4 1015.34   37.49
   3  -7  -4 1075.94   38.90
   3  -7  -3  834.59   31.32
   3  -7  -3  894.15   33.28
   3  -7  -2    3.66    2.71
   3  -7  -2    3.66    3.57
   3  -7  -1  621.42   25.38
   3  -7   0  888.32   32.56
   3  -7   1   56.12    6.69
   3  -7   1   59.19    6.50
   3  -7   2    7.53    3.36
   3  -7   2    9.83    3.32
   3  -7   3 1037.28   37.58
   3  -7   3 1005.10   35.43
   3  -7   4  413.99   18.34
   3  -7   4  441.12   20.90
   3  -7   5  167.28   10.50
   3  -7   5  164.16   12.29
   3  -7   6    3.40    3.52
   3  -7   6   10.53    4.09
   3  -7   7  747.91   30.72
   3  -7   7  644.42   28.17
   3  -7   8  797.78   32.57
   3  -7   8  697.27   29.93
   3  -7   9  155.24   12.74
   3  -7   9  113.94   10.44
   3  -7  10    7.54    3.61
   3  -7  10   13.77    5.38
   3  -7  11  419.43   21.56
   3  -7  11  403.54   22.23
   3  -7  12  219.53   15.10
   3  -7  12  210.47   15.66
   3  -7  13   27.09    6.89
   3  -7  13   46.88    7.19
   3  -7  14   99.62   11.68
   3  -7  15  144.37   13.93
   3  -6 -12  163.45   15.69
   3  -6 -11  169.59   15.72
   3  -6 -10   13.75    5.94
   3  -6  -9   37.11    7.58
   3  -6  -9   43.91    7.22
   3  -6  -8  103.73   10.95
   3  -6  -8  105.94   10.40
   3  -6  -7  230.51   15.54
   3  -6  -7  214.13   14.30
   3  -6  -6   24.02    5.30
   3  -6  -6   22.20    5.24
   3  -6  -5   81.05    8.19
   3  -6  -5   62.82    7.42
   3  -6  -4  132.43    9.83
   3  -6  -4  169.61   11.38
   3  -6  -3  773.28   28.78
   3  -6  -3  810.72   30.26
   3  -6  -2  279.65   13.16
   3  -6  -2  259.92   14.07
   3  -6  -1    2.01    2.35
   3  -6  -1    3.59    2.04
   3  -6   0  944.74   30.26
   3  -6   0  927.40   32.81
   3  -6   1  774.61   28.58
   3  -6   1  843.63   30.42
   3  -6   2   11.25    3.25
   3  -6   2    3.41    2.64
   3  -6   3 1032.71   34.63
   3  -6   3  989.74   36.71
   3  -6   4 1882.96   57.02
   3  -6   4 1814.98   60.28
   3  -6   5  390.68   18.86
   3  -6   5  416.62   20.04
   3  -6   6   16.86    4.86
   3  -6   6   14.95    3.82
   3  -6   7 1523.87   52.08
   3  -6   7 1447.02   50.22
   3  -6   8 1337.68   47.71
   3  -6   8 1288.60   45.71
   3  -6   9  173.31   12.32
   3  -6   9  162.59   12.96
   3  -6  10   46.26    6.58
   3  -6  10   30.24    6.44
   3  -6  11  639.58   27.64
   3  -6  11  573.99   27.53
   3  -6  12  158.64   12.84
   3  -6  12  158.03   13.21
   3  -6  13   15.66    4.64
   3  -6  13   19.60    6.23
   3  -6  14   39.12    7.84
   3  -6  15  119.27   12.44
   3  -5 -13   76.26   11.79
   3  -5 -13   92.85   11.87
   3  -5 -12  162.82   15.40
   3  -5 -12  157.36   14.70
   3  -5 -11  661.57   33.04
   3  -5 -11  718.17   32.87
   3  -5 -10  435.23   24.66
   3  -5 -10  415.59   21.98
   3  -5  -9    5.65    4.41
   3  -5  -9    0.76    3.57
   3  -5  -8 1241.22   47.21
   3  -5  -8 1300.40   45.88
   3  -5  -7 1562.23   54.86
   3  -5  -7 1600.82   53.76
   3  -5  -6  221.07   14.31
   3  -5  -6  265.31   14.76
   3  -5  -5   39.63    5.77
   3  -5  -5   44.07    6.11
   3  -5  -4 1481.75   49.78
   3  -5  -4 1578.32   50.51
   3  -5  -3  573.03   22.44
   3  -5  -3  573.40   23.07
   3  -5  -2  116.32    7.80
   3  -5  -2  123.49    8.56
   3  -5  -1  202.56    9.03
   3  -5  -1  225.30   10.51
   3  -5  -1  211.82   11.29
   3  -5  -1  203.05    9.00
   3  -5  -1  221.92    9.80
   3  -5   0  369.16   13.83
   3  -5   0  387.81   13.97
   3  -5   0  416.84   15.12
   3  -5   0  358.31   15.88
   3  -5   0  391.48   14.00
   3  -5   0  391.39   14.04
   3  -5   1  140.11    7.00
   3  -5   1  136.78    9.22
   3  -5   1  131.32    8.10
   3  -5   2    7.11    1.83
   3  -5   2    7.54    2.70
   3  -5   2    4.67    1.46
   3  -5   2    6.05    3.16
   3  -5   3  382.98   15.20
   3  -5   3  381.13   17.92
   3  -5   4  230.19   12.57
   3  -5   4  211.06   10.11
   3  -5   4  205.67   12.54
   3  -5   5  152.94   10.27
   3  -5   5  142.39   10.51
   3  -5   6   89.76    8.66
   3  -5   6  119.83    9.21
   3  -5   7  135.16    9.90
   3  -5   7  103.23    9.58
   3  -5   8  179.64   12.72
   3  -5   8  186.81   12.07
   3  -5   9  842.43   32.13
   3  -5   9  778.76   32.21
   3  -5  10   10.30    4.48
   3  -5  10    3.51    3.29
   3  -5  11   32.94    6.56
   3  -5  11   22.97    5.36
   3  -5  12  637.11   28.38
   3  -5  12  662.57   29.33
   3  -5  13  135.37   11.75
   3  -5  13  121.51   11.65
   3  -5  14    5.98    4.09
   3  -5  14   -1.77    5.93
   3  -5  15  176.23   14.54
   3  -4 -14   48.98    9.49
   3  -4 -13   29.40    7.79
   3  -4 -13   32.93    8.18
   3  -4 -12   25.29    7.40
   3  -4 -12   33.00    7.60
   3  -4 -11  114.95   12.34
   3  -4 -11  101.89   10.25
   3  -4 -10  167.69   14.52
   3  -4 -10  198.17   13.89
   3  -4  -9  153.64   13.12
   3  -4  -9  147.21   11.70
   3  -4  -8  153.66   12.67
   3  -4  -8  172.79   12.18
   3  -4  -7  703.22   29.56
   3  -4  -6  725.20   29.25
   3  -4  -5  429.28   18.32
   3  -4  -5  461.00   20.10
   3  -4  -5  432.68   18.32
   3  -4  -4  653.40   23.98
   3  -4  -4  676.54   25.80
   3  -4  -4  696.85   25.73
   3  -4  -4  641.08   23.91
   3  -4  -3 1426.17   44.15
   3  -4  -3 1440.08   46.01
   3  -4  -3 1478.85   46.23
   3  -4  -3 1380.92   44.03
   3  -4  -2 2002.14   59.62
   3  -4  -2 2036.62   61.36
   3  -4  -2 2065.60   61.71
   3  -4  -2 2011.22   59.00
   3  -4  -2 2015.01   59.63
   3  -4  -2 2029.26   59.13
   3  -4  -1   71.86    4.94
   3  -4  -1   68.40    4.15
   3  -4  -1   80.17    5.80
   3  -4  -1   65.94    5.62
   3  -4  -1   74.94    4.97
   3  -4  -1   73.11    4.20
   3  -4  -1   67.20    4.87
   3  -4  -1   76.33    4.71
   3  -4  -1   69.29    4.89
   3  -4  -1   69.50    4.14
   3  -4  -1   71.48    4.18
   3  -4  -1   69.81    4.17
   3  -4   0  949.60   28.07
   3  -4   0  886.04   28.09
   3  -4   0  971.39   29.90
   3  -4   0  885.96   30.00
   3  -4   0  874.65   27.52
   3  -4   0  892.02   27.56
   3  -4   0  962.58   28.95
   3  -4   0  943.30   28.08
   3  -4   0  875.68   27.53
   3  -4   1 5294.70  138.15
   3  -4   1 5097.60  137.50
   3  -4   1 4663.28  141.07
   3  -4   1 4718.50  139.09
   3  -4   1 4796.18  138.66
   3  -4   1 4884.80  137.37
   3  -4   1 5324.75  138.19
   3  -4   1 4885.95  137.37
   3  -4   1 4966.10  138.04
   3  -4   1 4917.34  137.44
   3  -4   2 1266.69   42.83
   3  -4   2 1311.12   42.70
   3  -4   2 1362.60   38.72
   3  -4   2 1253.75   39.95
   3  -4   2 1316.63   39.27
   3  -4   2 1334.14   39.33
   3  -4   2 1360.24   39.27
   3  -4   2 1312.93   39.28
   3  -4   3   58.62    5.79
   3  -4   3   67.25    4.66
   3  -4   3   62.24    6.31
   3  -4   3   71.39    4.75
   3  -4   4 3298.87  100.80
   3  -4   4 3237.25  101.33
   3  -4   5 1455.63   48.91
   3  -4   5 1508.61   48.37
   3  -4   6  318.64   16.60
   3  -4   6  355.32   16.49
   3  -4   7  664.51   26.29
   3  -4   7  649.86   26.58
   3  -4   8  866.50   31.92
   3  -4   8  799.21   31.55
   3  -4   9  211.49   13.50
   3  -4   9  239.69   14.25
   3  -4  10    1.35    3.83
   3  -4  10   -0.69    2.92
   3  -4  11  145.99   11.42
   3  -4  11  135.13   11.30
   3  -4  12  302.94   17.96
   3  -4  12  316.40   18.15
   3  -4  13   68.12    8.80
   3  -4  13   73.90    9.24
   3  -4  14    2.58    4.19
   3  -3 -14  248.64   19.91
   3  -3 -14  284.53   20.88
   3  -3 -13  250.22   19.34
   3  -3 -12    4.45    5.10
   3  -3 -11  171.19   14.81
   3  -3 -10 1109.58   43.85
   3  -3  -9  231.61   15.84
   3  -3  -8  167.20   11.75
   3  -3  -8  145.61   11.84
   3  -3  -8  145.65   11.24
   3  -3  -7 1109.31   39.44
   3  -3  -7 1162.03   41.20
   3  -3  -7 1078.11   39.22
   3  -3  -6 1202.64   40.78
   3  -3  -6 1209.78   42.08
   3  -3  -6 1157.33   40.50
   3  -3  -5   44.98    5.13
   3  -3  -5   41.05    4.95
   3  -3  -4 2256.35   68.18
   3  -3  -4 2312.23   69.79
   3  -3  -4 2255.93   68.22
   3  -3  -3 1946.71   55.39
   3  -3  -3 1818.46   54.98
   3  -3  -3 1743.51   51.31
   3  -3  -3 1941.46   53.16
   3  -3  -3 1843.15   56.67
   3  -3  -3 1765.20   51.35
   3  -3  -2  246.55   10.81
   3  -3  -2  231.93   10.65
   3  -3  -2  237.66    9.08
   3  -3  -2  259.21   10.28
   3  -3  -2  230.37    8.76
   3  -3  -2  262.14   12.13
   3  -3  -2  261.30    9.85
   3  -3  -2  227.11    9.01
   3  -3  -2  238.78    9.55
   3  -3  -2  249.84   10.46
   3  -3  -2  251.33   10.84
   3  -3  -2  236.08    9.52
   3  -3  -2  240.21    8.83
   3  -3  -2  236.37    9.54
   3  -3  -1  268.03   10.72
   3  -3  -1  287.03   11.88
   3  -3  -1  302.70   11.70
   3  -3  -1  282.94   10.33
   3  -3  -1  272.77   10.75
   3  -3  -1  320.84   13.18
   3  -3  -1  287.07   10.81
   3  -3  -1  293.50   11.98
   3  -3  -1  288.82   11.35
   3  -3  -1  272.84   10.27
   3  -3  -1  277.16   10.69
   3  -3  -1  313.89   12.06
   3  -3  -1  289.12   10.80
   3  -3   0 2417.90   67.22
   3  -3   0 2548.70   65.99
   3  -3   0 2345.13   65.54
   3  -3   0 2238.34   67.05
   3  -3   0 2225.13   65.69
   3  -3   0 2543.54   66.00
   3  -3   0 2208.69   65.67
   3  -3   0 2323.53   66.88
   3  -3   0 2287.84   65.82
   3  -3   0 2044.99   65.46
   3  -3   1 2445.97   67.53
   3  -3   1 2194.95   68.38
   3  -3   1 2471.17   66.38
   3  -3   1 2190.40   68.31
   3  -3   1 2326.19   65.25
   3  -3   1 2305.79   66.62
   3  -3   1 2263.57   66.10
   3  -3   1 2488.87   66.41
   3  -3   1 2211.82   66.01
   3  -3   1 2222.56   66.07
   3  -3   1 2354.07   66.76
   3  -3   1 2282.54   66.12
   3  -3   2  576.28   21.60
   3  -3   2  564.48   18.14
   3  -3   2  627.57   19.39
   3  -3   2  597.23   19.79
   3  -3   2  596.18   19.81
   3  -3   2  535.39   21.61
   3  -3   2  617.15   19.90
   3  -3   2  629.75   19.99
   3  -3   2  573.37   19.67
   3  -3   3   52.04    4.06
   3  -3   3   44.48    4.79
   3  -3   3   45.92    3.29
   3  -3   3   51.43    5.34
   3  -3   4  556.41   22.39
   3  -3   4  614.09   22.54
   3  -3   5 1688.38   54.54
   3  -3   5 1766.52   54.46
   3  -3   6  342.37   16.10
   3  -3   6  344.91   16.10
   3  -3   7   32.09    4.84
   3  -3   7   50.55    5.93
   3  -3   8  969.02   35.48
   3  -3   8  988.96   35.09
   3  -3   9  174.16   11.64
   3  -3   9  143.95   10.77
   3  -3  10  256.12   15.54
   3  -3  10  286.66   15.82
   3  -3  11  494.23   23.78
   3  -3  11  530.44   23.57
   3  -3  12  476.41   23.55
   3  -3  13  217.40   15.16
   3  -3  14    4.34    4.32
   3  -2 -15  202.74   17.90
   3  -2 -15  194.80   17.92
   3  -2 -14  236.54   19.14
   3  -2 -13  278.68   19.96
   3  -2 -12   16.98    7.26
   3  -2 -11   67.95    9.09
   3  -2 -11   60.15    9.10
   3  -2 -10  690.37   31.07
   3  -2 -10  693.94   30.05
   3  -2  -9  274.55   16.56
   3  -2  -9  311.29   18.00
   3  -2  -9  295.17   16.96
   3  -2  -8  104.62    9.40
   3  -2  -8   94.86    9.59
   3  -2  -8   80.46    8.36
   3  -2  -7   21.66    4.72
   3  -2  -7   27.40    5.25
   3  -2  -7   19.81    4.95
   3  -2  -6 1743.99   57.51
   3  -2  -6 1886.38   59.11
   3  -2  -6 1799.57   57.72
   3  -2  -5  961.95   33.93
   3  -2  -5  993.64   35.09
   3  -2  -5  987.43   34.10
   3  -2  -4  134.28    8.40
   3  -2  -4  119.99    5.26
   3  -2  -4  144.51    8.70
   3  -2  -4  150.13    9.56
   3  -2  -4  132.24    5.36
   3  -2  -3 1561.73   46.60
   3  -2  -3 1459.03   42.92
   3  -2  -3 1570.30   43.66
   3  -2  -3 1607.76   44.24
   3  -2  -3 1450.65   42.60
   3  -2  -3 1628.80   48.27
   3  -2  -3 1408.22   42.82
   3  -2  -3 1561.31   46.62
   3  -2  -3 1447.04   42.60
   3  -2  -2 5244.42  139.34
   3  -2  -2 4953.67  136.62
   3  -2  -2 4820.53  136.52
   3  -2  -2 5129.01  137.12
   3  -2  -2 4712.28  135.94
   3  -2  -2 5022.11  137.25
   3  -2  -2 5464.87  141.13
   3  -2  -2 4594.65  136.38
   3  -2  -2 5009.83  137.29
   3  -2  -2 5147.63  139.28
   3  -2  -2 5030.10  138.32
   3  -2  -2 4698.33  135.94
   3  -2  -2 5035.25  137.32
   3  -2  -2 5180.12  138.92
   3  -2  -2 5001.39  137.31
   3  -2  -1  404.83   14.21
   3  -2  -1  452.14   15.29
   3  -2  -1  458.75   15.16
   3  -2  -1  426.90   14.47
   3  -2  -1  435.29   15.65
   3  -2  -1  413.56   14.52
   3  -2  -1  449.61   15.18
   3  -2  -1  409.10   14.98
   3  -2  -1  426.02   14.47
   3  -2  -1  422.78   15.10
   3  -2  -1  441.86   16.13
   3  -2  -1  429.31   15.13
   3  -2   0 2568.91   73.29
   3  -2   0 2667.85   73.79
   3  -2   0 2744.60   73.87
   3  -2   0 2803.04   73.92
   3  -2   0 2695.42   73.02
   3  -2   0 2655.99   74.34
   3  -2   0 2487.31   72.19
   3  -2   0 2350.69   73.96
   3  -2   0 2673.58   73.01
   3  -2   0 2574.80   73.31
   3  -2   0 2612.95   74.31
   3  -2   0 2609.83   73.39
   3  -2   0 2263.82   71.96
   3  -2   1 5497.48  150.88
   3  -2   1 5606.27  150.32
   3  -2   1 5267.58  151.52
   3  -2   1 5113.38  148.63
   3  -2   1 5735.96  150.71
   3  -2   1 5451.28  150.24
   3  -2   1 5656.43  150.64
   3  -2   1 5372.32  149.51
   3  -2   1 5679.37  151.40
   3  -2   1 5660.15  150.70
   3  -2   1 4913.11  151.30
   3  -2   2 3543.03  101.15
   3  -2   2 3536.84   97.24
   3  -2   2 3475.04   98.20
   3  -2   2 3746.53   99.21
   3  -2   2 3790.17  100.51
   3  -2   3   16.45    3.04
   3  -2   3   18.20    3.08
   3  -2   3   21.78    3.05
   3  -2   4  642.55   23.47
   3  -2   4  674.26   24.10
   3  -2   5 3320.66   96.38
   3  -2   5 3258.31   95.34
   3  -2   6  604.11   22.98
   3  -2   6  535.61   21.31
   3  -2   7   86.21    7.61
   3  -2   7   77.72    6.82
   3  -2   8  253.06   13.38
   3  -2   8  293.91   15.19
   3  -2   8  281.28   14.09
   3  -2   8  279.52   13.84
   3  -2   9  526.75   21.32
   3  -2   9  499.10   20.94
   3  -2   9  514.83   22.67
   3  -2   9  486.17   21.33
   3  -2  10   15.77    4.61
   3  -2  11  169.77   12.67
   3  -2  12   55.84    7.55
   3  -2  13   52.07    7.64
   3  -2  14   12.45    4.84
   3  -1 -15   40.80    8.52
   3  -1 -14  249.45   19.50
   3  -1 -14  274.34   19.24
   3  -1 -14  282.45   19.34
   3  -1 -13  835.33   37.61
   3  -1 -13  843.05   36.51
   3  -1 -13  796.78   35.91
   3  -1 -12  205.63   16.06
   3  -1 -12  214.11   16.00
   3  -1 -11  261.63   17.51
   3  -1 -11  255.40   17.06
   3  -1 -10 1399.80   50.93
   3  -1 -10 1389.73   51.58
   3  -1 -10 1471.56   51.60
   3  -1  -9  559.62   25.29
   3  -1  -9  519.26   24.95
   3  -1  -9  549.55   25.13
   3  -1  -8  219.49   14.02
   3  -1  -8  211.78   14.01
   3  -1  -8  223.12   14.06
   3  -1  -7  707.88   29.27
   3  -1  -7  801.57   30.52
   3  -1  -7  770.61   29.85
   3  -1  -6 1094.53   38.33
   3  -1  -6 1126.00   39.28
   3  -1  -6 1082.62   38.19
   3  -1  -5  221.44   11.84
   3  -1  -5  220.89   12.62
   3  -1  -5  215.81   11.71
   3  -1  -4    2.92    2.12
   3  -1  -4    3.52    1.49
   3  -1  -4    3.69    1.17
   3  -1  -4    6.42    1.23
   3  -1  -4    6.25    1.31
   3  -1  -4    2.93    2.44
   3  -1  -4    3.31    1.85
   3  -1  -4    6.04    1.18
   3  -1  -3  996.28   32.44
   3  -1  -3  972.08   29.29
   3  -1  -3 1017.44   28.86
   3  -1  -3  929.08   28.73
   3  -1  -3  976.40   29.28
   3  -1  -3 1031.19   32.60
   3  -1  -3  927.41   29.14
   3  -1  -3 1031.88   34.10
   3  -1  -3  946.88   28.79
   3  -1  -2 1753.80   49.71
   3  -1  -2 1607.23   47.06
   3  -1  -2 1566.41   46.43
   3  -1  -2 1629.18   46.10
   3  -1  -2 1551.93   46.32
   3  -1  -2 1443.16   46.32
   3  -1  -2 1586.20   47.02
   3  -1  -2 1628.09   47.04
   3  -1  -2 1634.76   47.68
   3  -1  -2 1845.77   49.99
   3  -1  -2 1693.96   48.73
   3  -1  -2 1523.74   46.27
   3  -1  -2 1642.73   47.71
   3  -1  -2 1692.64   49.08
   3  -1  -2 1692.12   47.87
   3  -1  -1  665.40   21.54
   3  -1  -1  720.03   23.29
   3  -1  -1  767.71   22.93
   3  -1  -1  725.48   22.67
   3  -1  -1  735.27   22.95
   3  -1  -1  716.46   22.46
   3  -1  -1  726.15   23.33
   3  -1  -1  731.69   23.45
   3  -1  -1  715.48   22.64
   3  -1  -1  710.44   23.36
   3  -1  -1  759.19   24.64
   3  -1  -1  732.66   23.48
   3  -1   0  770.82   23.74
   3  -1   0  812.23   24.65
   3  -1   0  731.38   23.73
   3  -1   0  694.66   23.33
   3  -1   0  735.45   23.85
   3  -1   0  704.71   22.54
   3  -1   0  805.48   24.63
   3  -1   0  760.78   24.15
   3  -1   0  718.60   23.48
   3  -1   0  766.83   24.18
   3  -1   0  812.88   25.33
   3  -1   0  761.21   24.18
   3  -1   0  703.91   22.06
   3  -1   1  960.31   30.11
   3  -1   1  869.50   29.51
   3  -1   1  901.77   27.38
   3  -1   1  859.89   29.06
   3  -1   1  954.74   30.12
   3  -1   1  976.96   27.81
   3  -1   2  835.47   27.91
   3  -1   2  825.92   27.04
   3  -1   2  829.65   27.90
   3  -1   2  836.04   27.96
   3  -1   3  852.14   27.06
   3  -1   3  849.32   28.03
   3  -1   3  802.34   28.04
   3  -1   3  831.16   27.96
   3  -1   4  173.06    9.33
   3  -1   4  191.01    9.99
   3  -1   4  168.63    9.22
   3  -1   4  176.65    8.68
   3  -1   5  789.86   27.73
   3  -1   5  807.69   28.45
   3  -1   5  819.96   27.95
   3  -1   5  781.15   26.57
   3  -1   6  594.16   22.76
   3  -1   6  603.73   23.74
   3  -1   6  613.74   22.07
   3  -1   6  613.29   22.95
   3  -1   7  330.26   15.35
   3  -1   7  348.88   16.60
   3  -1   7  336.85   15.47
   3  -1   8  286.95   14.05
   3  -1   8  280.13   13.95
   3  -1   8  281.24   15.23
   3  -1   9  909.37   34.57
   3  -1  10  507.80   23.42
   3  -1  11   14.31    4.61
   3  -1  12  208.19   14.73
   3  -1  13  478.36   24.59
   3  -1  14  108.40   11.38
   3   0 -16    4.57    5.57
   3   0 -16    1.24    5.81
   3   0 -16    5.71    5.79
   3   0 -15   25.40    7.49
   3   0 -15   21.34    7.25
   3   0 -15   24.29    7.87
   3   0 -14   80.33   10.79
   3   0 -14   82.06   11.09
   3   0 -14   79.01   10.56
   3   0 -13  129.15   13.02
   3   0 -13  180.16   15.06
   3   0 -12   29.60    6.76
   3   0 -12   25.97    6.06
   3   0 -11  146.74   12.85
   3   0 -11  135.58   12.36
   3   0 -11  160.92   13.41
   3   0 -10   80.23    9.46
   3   0 -10   87.65    9.35
   3   0 -10   83.18    9.65
   3   0  -9  483.24   23.66
   3   0  -9  508.63   23.75
   3   0  -9  495.33   23.79
   3   0  -8   63.87    7.61
   3   0  -8   44.05    6.43
   3   0  -8   56.09    7.41
   3   0  -7  159.93   11.19
   3   0  -7  160.26   11.21
   3   0  -7  170.58   11.45
   3   0  -6  683.42   26.73
   3   0  -6  714.36   27.58
   3   0  -6  680.51   26.70
   3   0  -5  377.58   13.41
   3   0  -5  398.58   17.16
   3   0  -5  379.35   13.41
   3   0  -5  383.30   13.63
   3   0  -5  395.84   17.87
   3   0  -5  370.56   16.74
   3   0  -4  647.93   20.87
   3   0  -4  710.71   24.53
   3   0  -4  603.66   18.80
   3   0  -4  698.45   20.69
   3   0  -4  642.99   20.82
   3   0  -4  698.88   25.52
   3   0  -4  719.19   24.54
   3   0  -3  946.04   29.26
   3   0  -3 1030.41   32.21
   3   0  -3  962.11   27.74
   3   0  -3  877.09   27.29
   3   0  -3  986.92   28.14
   3   0  -3  992.37   29.68
   3   0  -3  913.24   29.15
   3   0  -3 1003.63   32.05
   3   0  -2 1323.63   38.62
   3   0  -2 1292.58   40.70
   3   0  -2 1349.34   37.28
   3   0  -2 1269.98   36.41
   3   0  -2 1165.41   36.70
   3   0  -2 1292.24   38.08
   3   0  -2 1302.72   38.57
   3   0  -2 1304.53   40.74
   3   0  -1 3910.06  100.29
   3   0  -1 3478.97   96.82
   3   0  -1 3497.50   98.51
   3   0  -1 3838.96   98.91
   3   0  -1 3894.21  100.26
   3   0   0   44.36    3.96
   3   0   0   36.49    3.28
   3   0   0   42.49    3.25
   3   0   0   43.60    2.99
   3   0   0   43.92    3.93
   3   0   0   38.35    2.14
   3   0   1  361.64   12.13
   3   0   1  354.35   14.21
   3   0   1  365.48   13.77
   3   0   1  358.39   14.25
   3   0   2 3148.78   88.06
   3   0   2 3114.01   87.64
   3   0   2 3130.74   88.05
   3   0   2 2932.06   84.85
   3   0   3  549.79   20.04
   3   0   3  525.00   19.89
   3   0   3  548.08   20.08
   3   0   3  531.99   17.61
   3   0   4  465.81   18.08
   3   0   4  448.98   18.23
   3   0   4  464.58   18.11
   3   0   5  918.61   30.90
   3   0   5  906.29   31.58
   3   0   5  884.11   30.71
   3   0   6  604.94   23.06
   3   0   6  609.44   24.05
   3   0   6  628.10   23.32
   3   0   7  127.85    8.75
   3   0   7  140.74    9.96
   3   0   7  134.86    8.91
   3   0   8  382.74   17.10
   3   0   8  385.49   18.55
   3   0   8  372.75   16.95
   3   0   9  449.56   21.34
   3   0  10  383.84   19.98
   3   0  11   29.66    6.24
   3   0  12   60.22    8.40
   3   0  13  217.48   16.18
   3   1 -16  230.16   18.49
   3   1 -16  211.55   17.60
   3   1 -15  204.69   16.75
   3   1 -15  196.29   16.61
   3   1 -15  188.99   16.62
   3   1 -14   59.28    9.78
   3   1 -14   62.79    9.34
   3   1 -13  584.48   28.84
   3   1 -13  592.19   29.50
   3   1 -12  666.27   31.24
   3   1 -12  673.01   30.93
   3   1 -11   15.47    5.70
   3   1 -11   20.43    5.46
   3   1 -11   12.81    5.07
   3   1 -10  208.15   15.09
   3   1 -10  187.39   13.67
   3   1 -10  202.71   14.68
   3   1  -9 2277.08   74.89
   3   1  -9 2318.62   74.33
   3   1  -9 2332.85   75.15
   3   1  -8  221.99   14.01
   3   1  -8  221.75   13.91
   3   1  -8  223.51   14.03
   3   1  -7  163.94   11.37
   3   1  -7  197.95   12.33
   3   1  -7  172.85   11.60
   3   1  -6 1570.54   51.06
   3   1  -6 1552.62   46.42
   3   1  -6 1624.54   51.86
   3   1  -6 1527.16   50.77
   3   1  -6 1547.47   46.41
   3   1  -5 2164.95   63.70
   3   1  -5 2195.18   67.55
   3   1  -5 2229.06   63.80
   3   1  -5 2196.95   68.60
   3   1  -5 2245.77   67.65
   3   1  -4   26.64    3.79
   3   1  -4   24.10    2.94
   3   1  -4   22.33    2.88
   3   1  -3   54.53    4.22
   3   1  -3   62.16    5.62
   3   1  -3   55.26    2.81
   3   1  -3   62.33    4.48
   3   1  -3   50.41    5.11
   3   1  -2 1176.64   36.59
   3   1  -2 1192.46   38.26
   3   1  -2 1138.50   34.33
   3   1  -2 1211.61   36.20
   3   1  -2 1214.00   36.72
   3   1  -2 1236.38   38.44
   3   1  -1 1206.38   37.04
   3   1  -1 1129.35   35.12
   3   1  -1 1232.19   36.36
   3   1  -1 1226.14   37.11
   3   1   0  343.10   13.85
   3   1   0  325.46   12.67
   3   1   0  366.20   13.19
   3   1   0  351.84   13.96
   3   1   1  169.46    8.78
   3   1   1  157.78    8.01
   3   1   1  169.07    8.75
   3   1   2  820.00   27.14
   3   1   2  760.41   26.41
   3   1   2  797.04   27.01
   3   1   3  370.41   15.06
   3   1   3  343.73   14.76
   3   1   3  343.69   14.73
   3   1   4    5.53    2.15
   3   1   4    4.19    2.39
   3   1   4    3.94    2.04
   3   1   5   35.04    4.30
   3   1   5   39.92    5.11
   3   1   5   32.46    4.19
   3   1   6  747.74   27.25
   3   1   6  771.62   28.66
   3   1   6  756.12   27.29
   3   1   7  101.36    7.79
   3   1   7   99.25    8.58
   3   1   7   91.95    7.54
   3   1   8   12.13    4.24
   3   1   9  327.98   17.85
   3   1  10  514.27   24.42
   3   1  11   55.90    8.20
   3   1  12   12.05    5.12
   3   2 -16   94.38   12.13
   3   2 -16   96.57   12.16
   3   2 -15    1.13    5.31
   3   2 -14   85.75   11.27
   3   2 -14   77.43   10.12
   3   2 -13  129.85   13.35
   3   2 -13  120.17   12.03
   3   2 -12    4.86    5.53
   3   2 -12    3.51    3.73
   3   2 -12    5.88    4.88
   3   2 -11   47.34    8.00
   3   2 -11   49.03    7.07
   3   2 -11   45.72    7.78
   3   2 -10  124.97   11.77
   3   2 -10  159.32   12.06
   3   2 -10  158.86   12.91
   3   2  -9  164.28   12.61
   3   2  -9  191.43   12.91
   3   2  -9  157.23   12.43
   3   2  -8  558.27   24.45
   3   2  -8  550.16   24.11
   3   2  -8  529.07   23.97
   3   2  -7    4.35    2.76
   3   2  -7    9.14    3.42
   3   2  -7    4.69    2.80
   3   2  -7   -0.62    2.88
   3   2  -7   12.11    3.83
   3   2  -6  861.38   31.07
   3   2  -6  803.01   30.45
   3   2  -6  811.03   27.41
   3   2  -6  895.01   31.96
   3   2  -6  814.88   27.43
   3   2  -5 3298.75   95.85
   3   2  -5 3324.95   92.65
   3   2  -5 3130.44   90.34
   3   2  -5 3209.03   95.55
   3   2  -5 3291.83   92.61
   3   2  -4  930.95   30.69
   3   2  -4  925.11   32.80
   3   2  -4 1000.39   30.98
   3   2  -4  956.34   32.93
   3   2  -3   56.16    4.74
   3   2  -3   56.73    5.33
   3   2  -3   54.16    3.02
   3   2  -3   47.59    4.38
   3   2  -3   44.09    4.96
   3   2  -2 2938.21   83.88
   3   2  -2 2918.90   85.29
   3   2  -2 2757.51   81.08
   3   2  -2 3102.19   83.93
   3   2  -2 2902.29   83.84
   3   2  -2 2965.40   85.38
   3   2  -1 3034.91   89.01
   3   2  -1 3035.01   86.99
   3   2  -1 3272.23   89.03
   3   2  -1 3045.26   89.02
   3   2   0  463.04   17.52
   3   2   0  436.15   16.15
   3   2   0  464.27   17.53
   3   2   1  262.66   12.03
   3   2   1  259.23   11.31
   3   2   1  254.80   11.93
   3   2   2 2234.07   66.14
   3   2   2 2199.54   65.59
   3   2   2 2183.32   66.00
   3   2   3  829.82   29.17
   3   2   3  877.58   29.56
   3   2   3  843.07   29.25
   3   2   4    5.44    2.42
   3   2   4    7.71    2.91
   3   2   4    4.60    2.42
   3   2   5  627.26   23.71
   3   2   5  630.50   24.71
   3   2   5  633.81   23.74
   3   2   6  871.60   30.85
   3   2   6  858.00   32.21
   3   2   6  895.20   31.04
   3   2   7   72.17    7.72
   3   2   8  162.85   11.99
   3   2   9  176.47   12.86
   3   2  10  241.05   15.87
   3   2  11    1.68    4.10
   3   2  12    6.25    4.85
   3   3 -16  741.86   36.30
   3   3 -15  153.04   14.92
   3   3 -14   19.53    6.80
   3   3 -13 1017.24   42.21
   3   3 -13 1013.67   40.55
   3   3 -13  999.24   42.08
   3   3 -12  693.83   32.03
   3   3 -12  662.14   30.19
   3   3 -12  718.34   32.48
   3   3 -11    1.81    4.33
   3   3 -11    1.57    3.06
   3   3 -11   -1.82    4.43
   3   3 -10  528.63   25.38
   3   3 -10  547.56   24.67
   3   3 -10  507.80   25.15
   3   3  -9 1511.16   53.48
   3   3  -9 1456.69   53.09
   3   3  -8  174.28   12.23
   3   3  -8  171.69    9.92
   3   3  -8  167.39   11.74
   3   3  -8  154.53   11.71
   3   3  -8  173.72    9.92
   3   3  -7   66.09    5.91
   3   3  -7   53.43    6.44
   3   3  -7   61.79    5.84
   3   3  -7   71.14    7.16
   3   3  -7   62.48    6.94
   3   3  -6 1257.53   43.12
   3   3  -6 1291.08   40.77
   3   3  -6 1288.39   43.24
   3   3  -6 1263.43   40.63
   3   3  -5 1013.39   35.14
   3   3  -5 1005.78   31.33
   3   3  -5 1005.07   33.09
   3   3  -5  982.74   34.95
   3   3  -5 1022.81   33.20
   3   3  -4  288.89   12.40
   3   3  -4  282.62   13.45
   3   3  -4  278.02   12.26
   3   3  -4  254.96   12.94
   3   3  -3  131.63    7.98
   3   3  -3  141.95    8.86
   3   3  -3  140.10    8.19
   3   3  -3  133.02    8.59
   3   3  -2  826.08   28.24
   3   3  -2  821.51   29.11
   3   3  -2  806.00   25.83
   3   3  -2  852.82   28.44
   3   3  -2  874.70   29.43
   3   3  -1  370.14   15.31
   3   3  -1  356.89   13.70
   3   3  -1  370.46   15.30
   3   3   0   14.34    3.00
   3   3   0   12.25    2.96
   3   3   0   11.24    2.72
   3   3   1    6.83    2.67
   3   3   1    5.22    2.43
   3   3   2  729.85   26.01
   3   3   2  716.41   25.59
   3   3   2  713.15   25.89
   3   3   3  178.33   10.25
   3   3   3  189.65   10.58
   3   3   3  167.71   10.04
   3   3   4  448.82   18.67
   3   3   4  427.71   18.98
   3   3   4  464.97   18.85
   3   3   5   10.72    3.16
   3   3   5    7.10    3.62
   3   3   5    7.47    2.82
   3   3   6  569.72   24.16
   3   3   7  535.17   23.79
   3   3   8  162.27   12.32
   3   3   9  128.14   11.39
   3   3  10  297.53   18.17
   3   3  11  131.13   12.07
   3   4 -16  187.42   16.86
   3   4 -15   69.84   10.54
   3   4 -14   17.20    6.73
   3   4 -13  221.28   17.11
   3   4 -13  244.72   17.69
   3   4 -12  389.53   22.39
   3   4 -12  386.46   22.47
   3   4 -11   34.95    7.01
   3   4 -11   34.77    6.30
   3   4 -11   43.97    7.55
   3   4 -10   -0.83    4.49
   3   4 -10    0.72    2.83
   3   4 -10    1.65    4.34
   3   4  -9 1166.76   45.12
   3   4  -9 1250.75   45.86
   3   4  -8  305.67   16.76
   3   4  -8  285.73   14.61
   3   4  -8  347.62   17.18
   3   4  -8  291.32   16.42
   3   4  -8  322.62   15.12
   3   4  -7  402.16   18.97
   3   4  -7  410.83   17.41
   3   4  -7  385.06   18.76
   3   4  -7  393.98   17.19
   3   4  -6  202.68   12.14
   3   4  -6  203.22   10.92
   3   4  -6  191.67   11.86
   3   4  -6  191.00   10.63
   3   4  -5 1095.27   38.13
   3   4  -5 1158.29   37.16
   3   4  -5 1122.69   35.34
   3   4  -5 1088.73   38.00
   3   4  -5 1089.05   36.80
   3   4  -4 1393.65   45.85
   3   4  -4 1397.87   45.01
   3   4  -4 1446.91   46.13
   3   4  -4 1410.71   43.80
   3   4  -4 1424.57   45.12
   3   4  -3    2.73    2.08
   3   4  -3    1.26    2.43
   3   4  -3    0.71    2.19
   3   4  -3    2.52    2.36
   3   4  -3    3.17    1.98
   3   4  -2  727.74   26.34
   3   4  -2  754.26   26.85
   3   4  -2  715.29   23.97
   3   4  -2  770.46   26.67
   3   4  -2  715.42   26.47
   3   4  -2  719.44   25.71
   3   4  -1 1827.70   55.74
   3   4  -1 1772.63   53.61
   3   4  -1 1803.63   55.66
   3   4   0  263.94   12.79
   3   4   0  246.62   11.66
   3   4   0  260.24   12.79
   3   4   1  240.53   12.21
   3   4   1  236.44   11.60
   3   4   1  213.67   11.66
   3   4   2 2135.02   65.02
   3   4   2 2154.22   64.84
   3   4   2 2076.12   64.83
   3   4   3  348.21   15.84
   3   4   3  336.73   15.92
   3   4   3  337.63   15.65
   3   4   4  183.37   11.02
   3   4   4  190.33   11.64
   3   4   4  211.98   11.60
   3   4   5  346.59   17.36
   3   4   6  412.36   20.04
   3   4   7  247.48   15.28
   3   4   8   13.59    5.17
   3   4   9   24.99    5.87
   3   4  10   90.85   10.40
   3   5 -16  137.75   14.41
   3   5 -15  375.92   23.54
   3   5 -14    7.43    5.29
   3   5 -14    2.15    4.32
   3   5 -13  165.62   14.77
   3   5 -13  190.97   15.46
   3   5 -12  707.76   33.15
   3   5 -12  811.84   34.54
   3   5 -11  520.86   25.46
   3   5 -11  489.35   25.17
   3   5 -10   21.22    5.47
   3   5 -10   10.60    4.52
   3   5  -9 1169.43   43.75
   3   5  -9 1186.98   41.47
   3   5  -9 1149.61   43.46
   3   5  -9 1193.44   41.59
   3   5  -8  407.31   20.39
   3   5  -8  433.89   19.51
   3   5  -8  464.37   21.08
   3   5  -8  436.36   20.80
   3   5  -8  447.40   19.65
   3   5  -7  543.22   23.56
   3   5  -7  545.92   22.57
   3   5  -7  537.00   23.39
   3   5  -7  569.45   22.81
   3   5  -6  178.53   11.41
   3   5  -6  165.01   10.68
   3   5  -6  170.90   11.12
   3   5  -6  174.24   10.82
   3   5  -5  222.61   12.72
   3   5  -5  231.02   11.64
   3   5  -5  245.95   12.96
   3   5  -5  236.59   12.97
   3   5  -5  262.11   13.18
   3   5  -4  350.85   16.28
   3   5  -4  373.78   16.60
   3   5  -4  343.35   16.08
   3   5  -4  355.24   15.40
   3   5  -4  355.85   16.26
   3   5  -3    5.72    2.72
   3   5  -3    9.12    3.22
   3   5  -3   11.52    3.41
   3   5  -3    6.81    3.00
   3   5  -3    6.64    2.67
   3   5  -2   10.83    2.96
   3   5  -2    9.11    3.08
   3   5  -2   15.35    3.67
   3   5  -2   14.74    3.76
   3   5  -2    9.84    2.91
   3   5  -1  393.60   17.34
   3   5  -1  377.69   15.74
   3   5  -1  400.94   17.48
   3   5  -1  385.22   17.28
   3   5   0  194.15   11.60
   3   5   0  213.27   11.06
   3   5   0  218.33   12.00
   3   5   0  212.13   12.00
   3   5   1   18.81    4.02
   3   5   1   10.30    3.43
   3   5   1    9.47    3.92
   3   5   1   10.40    3.22
   3   5   2  155.62   10.21
   3   5   2  149.59   10.01
   3   5   2  161.70   10.34
   3   5   3  456.35   19.78
   3   5   3  471.97   20.28
   3   5   3  457.72   19.86
   3   5   4  293.03   15.23
   3   5   4  295.87   15.98
   3   5   5    5.13    3.71
   3   5   6  274.01   16.09
   3   5   6  273.39   16.13
   3   5   7  379.21   19.88
   3   5   7  372.09   19.90
   3   5   8  125.54   11.42
   3   5   8  147.70   12.00
   3   5   9    6.81    4.47
   3   6 -16  142.40   14.66
   3   6 -15  176.50   15.68
   3   6 -14   23.93    6.46
   3   6 -14   28.39    7.57
   3   6 -13   67.36    9.54
   3   6 -13   63.75    9.13
   3   6 -12  424.87   23.27
   3   6 -12  419.28   23.13
   3   6 -11  816.46   34.36
   3   6 -11  783.26   33.90
   3   6 -10  150.20   12.42
   3   6 -10  148.86   11.15
   3   6 -10  141.03   12.06
   3   6 -10  137.64   10.78
   3   6  -9  241.63   14.98
   3   6  -9  200.93   13.06
   3   6  -9  217.24   14.22
   3   6  -9  204.16   13.10
   3   6  -8 1119.67   41.32
   3   6  -8 1181.58   40.96
   3   6  -8 1142.66   41.48
   3   6  -8 1157.79   40.80
   3   6  -7 2327.78   74.31
   3   6  -7 2384.28   74.11
   3   6  -7 2375.57   74.45
   3   6  -7 2421.79   74.20
   3   6  -6   85.03    8.18
   3   6  -6   81.41    7.81
   3   6  -6   78.13    7.86
   3   6  -6   99.50    8.29
   3   6  -6   84.36    7.19
   3   6  -5 1025.84   37.24
   3   6  -5 1080.79   37.88
   3   6  -5 1109.33   36.68
   3   6  -5 1065.82   37.47
   3   6  -5 1096.50   37.98
   3   6  -4 1102.42   38.01
   3   6  -4 1069.95   38.29
   3   6  -4 1136.29   37.73
   3   6  -4 1142.10   38.22
   3   6  -4 1070.78   38.30
   3   6  -3 1781.42   56.86
   3   6  -3 1812.76   57.66
   3   6  -3 1825.03   56.97
   3   6  -3 1790.54   56.92
   3   6  -3 1801.52   57.59
   3   6  -2   96.89    7.88
   3   6  -2   95.88    8.19
   3   6  -2  100.53    8.42
   3   6  -2   81.67    7.31
   3   6  -2   92.07    8.02
   3   6  -1 1010.84   35.85
   3   6  -1 1039.19   34.40
   3   6  -1  995.31   35.72
   3   6  -1  998.60   35.85
   3   6   0 1428.17   48.23
   3   6   0 1445.62   47.10
   3   6   0 1483.67   48.53
   3   6   0 1499.35   49.09
   3   6   1  123.76    9.27
   3   6   1  125.04    9.15
   3   6   1  113.74    9.03
   3   6   1  114.96    9.74
   3   6   2  104.85    8.82
   3   6   2  102.51    9.14
   3   6   2  111.13    8.95
   3   6   2  101.93    8.71
   3   6   3  848.56   31.56
   3   6   3  869.44   32.34
   3   6   3  815.86   32.51
   3   6   3  847.12   31.56
   3   6   4  291.68   16.46
   3   6   4  323.71   17.48
   3   6   5    7.70    3.93
   3   6   5    2.16    3.72
   3   6   6  168.76   12.78
   3   6   6  148.27   12.19
   3   6   7   60.04    8.33
   3   6   7   53.28    7.94
   3   6   8  100.23   10.47
   3   7 -16  113.26   13.04
   3   7 -15  409.65   24.32
   3   7 -14  140.32   13.29
   3   7 -14  144.62   13.77
   3   7 -13   89.82   10.59
   3   7 -13   91.24   10.60
   3   7 -12  453.30   24.24
   3   7 -12  476.20   24.58
   3   7 -11  628.12   28.80
   3   7 -11  611.98   28.64
   3   7 -10    4.25    3.97
   3   7 -10    6.39    3.90
   3   7 -10    6.33    4.50
   3   7 -10    3.19    3.39
   3   7  -9  112.05   10.25
   3   7  -9   88.90    9.24
   3   7  -9   97.78    9.50
   3   7  -9   92.29    9.30
   3   7  -8  714.01   29.94
   3   7  -8  762.62   30.47
   3   7  -8  731.33   30.02
   3   7  -8  817.34   31.09
   3   7  -7  414.60   20.13
   3   7  -7  488.24   21.67
   3   7  -7  418.63   20.04
   3   7  -7  463.98   21.25
   3   7  -6  130.84   10.48
   3   7  -6  130.75    9.38
   3   7  -6  119.15   10.13
   3   7  -5  289.61   15.73
   3   7  -5  273.05   14.53
   3   7  -5  271.95   15.36
   3   7  -4  524.73   23.44
   3   7  -4  566.61   23.15
   3   7  -4  562.83   23.94
   3   7  -3  222.10   13.56
   3   7  -3  243.16   13.56
   3   7  -3  212.85   13.32
   3   7  -2   99.65    8.97
   3   7  -2  109.69    9.25
   3   7  -2  129.97    9.83
   3   7  -1  385.23   18.45
   3   7  -1  362.41   18.28
   3   7  -1  381.51   18.40
   3   7   0  364.96   17.01
   3   7   0  340.52   17.41
   3   7   0  373.07   18.47
   3   7   0  338.03   17.38
   3   7   1  278.60   14.86
   3   7   1  266.39   15.12
   3   7   1  263.81   15.59
   3   7   1  276.21   15.30
   3   7   2   22.00    4.84
   3   7   2   19.25    5.06
   3   7   2   17.72    4.58
   3   7   2   23.77    5.57
   3   7   3  264.37   15.68
   3   7   3  293.61   16.97
   3   7   4  496.51   23.17
   3   7   4  479.17   23.69
   3   7   5   23.66    5.80
   3   7   5   25.81    6.23
   3   7   6   45.15    7.48
   3   7   6   46.62    7.46
   3   7   7  279.98   17.83
   3   8 -16   20.48    6.76
   3   8 -15  241.05   18.00
   3   8 -14   38.88    7.90
   3   8 -14   30.17    7.07
   3   8 -13    4.76    4.83
   3   8 -13   -0.96    4.28
   3   8 -11  179.15   13.12
   3   8 -11  150.53   12.35
   3   8 -10  143.46   12.05
   3   8 -10  139.79   11.95
   3   8  -9    4.57    4.46
   3   8  -9    7.59    4.97
   3   8  -8  233.11   15.18
   3   8  -8  208.39   14.41
   3   8  -7  600.77   26.13
   3   8  -7  551.46   25.48
   3   8  -6   33.67    6.48
   3   8  -6   31.52    6.48
   3   8  -6   39.43    5.85
   3   8  -5   -1.40    3.69
   3   8  -5    4.21    4.49
   3   8  -5   12.35    4.34
   3   8  -4 1416.31   50.43
   3   8  -4 1543.35   50.32
   3   8  -4 1454.37   50.72
   3   8  -3  506.80   22.96
   3   8  -3  518.16   22.81
   3   8  -3  458.97   22.38
   3   8  -2   29.60    5.92
   3   8  -2   29.06    5.69
   3   8  -2   29.72    5.45
   3   8  -1  394.01   19.81
   3   8  -1  396.47   19.56
   3   8  -1  362.84   19.04
   3   8   0  751.24   30.39
   3   8   0  768.35   31.25
   3   8   0  761.59   30.48
   3   8   1  315.25   17.04
   3   8   1  334.59   17.65
   3   8   1  325.73   18.44
   3   8   1  324.61   17.49
   3   8   2   -1.37    3.83
   3   8   2   -0.77    4.58
   3   8   3  186.76   13.18
   3   8   3  162.91   13.26
   3   8   4  273.62   16.85
   3   8   4  248.48   16.69
   3   8   5   52.23    7.90
   3   8   5   55.39    8.40
   3   9 -12  301.52   17.99
   3   9 -12  272.03   17.41
   3   9 -11  272.91   17.30
   3   9 -11  274.32   17.59
   3   9 -10  161.23   13.14
   3   9 -10  180.84   13.82
   3   9  -9   61.97    8.43
   3   9  -9   63.30    8.39
   3   9  -8  150.88   12.67
   3   9  -8  143.28   12.28
   3   9  -7   32.85    6.88
   3   9  -7   35.98    6.91
   3   9  -6   -0.79    4.62
   3   9  -6    5.52    4.62
   3   9  -6    8.76    4.36
   3   9  -5   70.78    8.36
   3   9  -5   75.05    9.17
   3   9  -5   71.19    8.99
   3   9  -4   63.93    8.19
   3   9  -4   60.93    8.06
   3   9  -4   70.05    8.23
   3   9  -3   69.15    8.50
   3   9  -3   75.18    8.66
   3   9  -3   62.97    8.14
   3   9  -2    6.70    4.60
   3   9  -2   15.62    5.24
   3   9  -2   15.02    5.19
   3   9  -1   23.63    5.65
   3   9  -1   18.45    5.37
   3   9  -1   17.76    5.41
   3   9   0   94.49    9.54
   3   9   0   96.64    9.75
   3   9   0   88.25    9.70
   3   9   1  161.18   13.06
   3   9   2   15.15    5.58
   3   9   3   11.74    4.84
   3   9   3    6.92    4.78
   3   9   4  125.15   11.46
   3  10 -12   -0.89    4.78
   3  10 -12   -2.64    5.08
   3  10 -11  235.15   16.44
   3  10 -11  182.51   14.90
   3  10 -10  410.41   22.57
   3  10 -10  417.23   22.88
   3  10  -9   89.65   10.33
   3  10  -9   95.22   10.55
   3  10  -8   67.63    9.31
   3  10  -8   60.39    8.79
   3  10  -7  521.92   26.36
   3  10  -7  602.30   27.59
   3  10  -6  388.44   21.59
   3  10  -6  398.20   20.63
   3  10  -6  389.29   21.66
   3  10  -5   10.98    5.08
   3  10  -5   10.97    5.21
   3  10  -5    1.54    3.90
   3  10  -4  275.24   17.69
   3  10  -4  312.89   18.08
   3  10  -4  300.34   18.38
   3  10  -3  555.45   26.73
   3  10  -3  633.08   27.73
   3  10  -3  550.31   26.64
   3  10  -2  152.08   12.70
   3  10  -2  135.94   11.85
   3  10  -2  138.27   12.05
   3  10  -1   32.82    6.83
   3  10  -1   33.12    6.95
   3  10  -1   40.86    7.10
   3  10   0  269.00   17.77
   3  10   1  178.43   14.18
   3  11 -13   36.69    7.66
   3  11 -13   23.01    6.40
   3  11 -12   94.62   10.89
   3  11 -12  100.47   11.02
   3  11 -11  350.42   20.91
   3  11 -11  312.69   19.95
   3  11 -10  222.20   16.85
   3  11 -10  256.41   17.96
   3  11  -9    5.67    5.13
   3  11  -9   -0.94    5.18
   3  11  -8  172.57   14.37
   3  11  -8  166.91   14.38
   3  11  -7  268.92   18.28
   3  11  -7  287.51   18.86
   3  11  -6  147.41   13.59
   3  11  -6  154.29   13.67
   3  11  -6  189.66   13.95
   3  11  -5   -2.72    5.15
   3  11  -5    0.90    5.14
   3  11  -5   -0.84    4.64
   3  11  -4   43.81    7.98
   3  11  -4   33.05    7.33
   3  11  -4   50.79    8.27
   3  11  -3  296.54   18.79
   3  11  -3  321.58   19.29
   3  11  -3  274.73   18.31
   3  11  -2   73.96    9.27
   3  11  -2   66.96    9.15
   3  11  -2   73.78    9.45
   3  11  -1   38.53    7.72
   3  12 -10  242.40   17.55
   3  12 -10  234.22   17.35
   3  12  -9   35.72    7.99
   3  12  -9   40.37    8.44
   3  12  -8   29.62    7.32
   3  12  -8   27.47    7.14
   3  12  -7  298.96   19.37
   3  12  -7  260.39   18.49
   3  12  -6  352.20   21.83
   3  12  -6  388.84   21.69
   3  12  -6  365.08   22.09
   3  12  -5   22.00    7.18
   3  12  -5   18.11    6.52
   3  12  -5   10.88    5.40
   3  12  -4  109.37   11.66
   3  12  -4  116.58   12.06
   3  12  -4  123.96   12.08
   4 -14   0  154.40   15.28
   4 -14   1   66.64   10.42
   4 -14   1   42.52    9.26
   4 -14   2   37.75    9.18
   4 -14   2   31.55    7.95
   4 -14   3  506.08   28.71
   4 -14   3  523.55   29.79
   4 -14   4  292.93   20.83
   4 -14   4  300.54   21.78
   4 -14   5    3.30    5.88
   4 -14   5    4.76    5.44
   4 -14   6  179.14   16.63
   4 -14   7  502.31   28.75
   4 -14   8   96.30   12.39
   4 -14   9   64.45   10.02
   4 -14   9   60.87    9.50
   4 -14  10  292.00   20.40
   4 -13  -2  159.74   15.67
   4 -13  -2  204.51   16.94
   4 -13  -1  317.89   21.77
   4 -13  -1  312.35   21.94
   4 -13   0    4.52    4.81
   4 -13   0    3.38    5.39
   4 -13   1   47.06    8.52
   4 -13   1   24.49    7.10
   4 -13   2  234.39   18.32
   4 -13   2  247.65   18.44
   4 -13   3  215.25   16.96
   4 -13   3  209.48   17.50
   4 -13   4    7.90    5.83
   4 -13   4    3.11    5.55
   4 -13   5    7.09    4.94
   4 -13   5    9.07    5.31
   4 -13   6   79.51   11.07
   4 -13   7  274.03   20.03
   4 -13   8   22.61    6.42
   4 -13   8   20.70    7.12
   4 -13   9    1.16    4.53
   4 -13   9    2.15    4.45
   4 -13  10   83.23   11.26
   4 -13  10   63.98    9.56
   4 -13  11  243.15   19.45
   4 -13  11  267.12   18.80
   4 -12  -4  183.99   16.17
   4 -12  -3  200.63   16.89
   4 -12  -2    2.15    4.69
   4 -12  -2    2.21    4.93
   4 -12  -1  221.17   17.24
   4 -12  -1  189.41   16.84
   4 -12   0  374.57   22.98
   4 -12   0  373.64   22.96
   4 -12   1  176.90   15.46
   4 -12   1  183.83   15.65
   4 -12   2   60.79    9.50
   4 -12   2   51.44    8.88
   4 -12   3  617.50   31.01
   4 -12   3  617.39   29.80
   4 -12   4  127.66   13.64
   4 -12   4  144.66   13.11
   4 -12   5  217.34   16.52
   4 -12   5  261.05   18.83
   4 -12   6  823.07   37.47
   4 -12   7  427.53   25.11
   4 -12   8  268.24   18.75
   4 -12   8  269.64   19.50
   4 -12   9   39.32    8.35
   4 -12   9   43.38    7.82
   4 -12  10  399.66   24.53
   4 -12  10  365.75   22.65
   4 -12  11  442.77   26.14
   4 -12  11  427.60   24.58
   4 -12  12   25.81    6.41
   4 -12  12   23.21    7.19
   4 -11  -6    6.54    5.83
   4 -11  -5  392.26   23.71
   4 -11  -4  278.22   19.36
   4 -11  -3  245.71   17.84
   4 -11  -2  129.08   12.90
   4 -11  -1  352.79   21.86
   4 -11  -1  411.35   23.21
   4 -11   0  634.68   30.25
   4 -11   0  624.45   30.54
   4 -11   1   -0.98    4.97
   4 -11   1    2.80    4.27
   4 -11   2  216.60   16.88
   4 -11   2  270.84   17.65
   4 -11   3  291.60   19.17
   4 -11   3  274.51   18.22
   4 -11   4   60.89    9.23
   4 -11   4   59.52    8.16
   4 -11   5    7.10    5.43
   4 -11   5    9.09    5.11
   4 -11   6  384.18   22.94
   4 -11   7  119.20   12.11
   4 -11   7  103.50   11.61
   4 -11   8  152.53   13.79
   4 -11   8  165.94   14.79
   4 -11   9   14.07    6.16
   4 -11   9    4.96    4.34
   4 -11  10  237.57   18.20
   4 -11  10  241.99   17.50
   4 -11  11  289.07   20.28
   4 -11  11  248.71   18.01
   4 -11  12  196.17   17.13
   4 -11  12  182.72   15.16
   4 -11  13   -1.00    3.91
   4 -11  13   -4.49    5.14
   4 -10  -8  115.57   12.59
   4 -10  -7   48.74    8.86
   4 -10  -6    4.05    5.23
   4 -10  -5  122.09   12.26
   4 -10  -4   78.45    9.80
   4 -10  -3  180.47   14.66
   4 -10  -2   40.66    7.35
   4 -10  -1   58.81    8.37
   4 -10   0  503.21   24.71
   4 -10   0  469.40   24.88
   4 -10   1  357.56   20.96
   4 -10   1  376.10   20.53
   4 -10   2   17.20    5.52
   4 -10   2    7.28    4.04
   4 -10   3  231.58   16.41
   4 -10   3  221.50   15.24
   4 -10   4  740.17   31.62
   4 -10   4  812.67   34.60
   4 -10   5   -1.91    4.67
   4 -10   6  280.41   18.60
   4 -10   7  379.34   21.83
   4 -10   7  377.53   22.62
   4 -10   8  230.86   16.65
   4 -10   8  250.32   17.91
   4 -10   9   43.70    7.93
   4 -10   9   33.17    6.68
   4 -10  10  353.71   22.39
   4 -10  10  375.56   22.00
   4 -10  11  199.72   16.55
   4 -10  11  204.68   15.74
   4 -10  12   22.33    5.87
   4 -10  12   25.81    7.45
   4 -10  13   73.49    9.63
   4 -10  13   98.00   11.68
   4 -10  14   98.89   12.20
   4  -9  -9   10.23    5.56
   4  -9  -8  383.54   22.80
   4  -9  -7  575.11   28.65
   4  -9  -6  101.96   10.96
   4  -9  -5  430.35   23.34
   4  -9  -4  720.61   31.88
   4  -9  -3  616.76   28.42
   4  -9  -2   -0.81    3.87
   4  -9  -1  626.06   27.87
   4  -9   0  768.14   32.03
   4  -9   0  802.67   33.34
   4  -9   1  491.36   24.25
   4  -9   1  467.59   22.69
   4  -9   2   -1.67    5.08
   4  -9   2    2.85    3.40
   4  -9   3  439.57   22.95
   4  -9   3  442.96   21.27
   4  -9   4  860.70   33.06
   4  -9   4  844.76   35.61
   4  -9   5  449.99   23.84
   4  -9   6    0.87    3.89
   4  -9   6   -1.84    4.92
   4  -9   7  145.55   12.82
   4  -9   7  141.37   13.03
   4  -9   8  719.06   31.83
   4  -9   8  595.27   29.06
   4  -9   9  286.57   19.30
   4  -9   9  263.43   17.71
   4  -9  10   -1.84    4.01
   4  -9  10    3.06    5.17
   4  -9  11   97.42   10.66
   4  -9  11  115.02   12.19
   4  -9  12  391.20   22.77
   4  -9  12  430.09   24.47
   4  -9  13   39.46    8.21
   4  -9  13   23.11    5.92
   4  -9  14   25.22    6.66
   4  -9  14   10.74    4.78
   4  -8 -10   46.42    8.40
   4  -8 -10   56.85    8.76
   4  -8  -9    2.07    5.15
   4  -8  -9   -2.90    4.91
   4  -8  -8   36.70    7.37
   4  -8  -8   37.39    7.25
   4  -8  -7  286.65   18.04
   4  -8  -7  252.00   17.41
   4  -8  -6  169.52   13.72
   4  -8  -5    2.49    3.71
   4  -8  -4   64.33    8.09
   4  -8  -3  483.50   23.39
   4  -8  -2   47.78    6.93
   4  -8  -1   13.86    4.45
   4  -8   0  604.45   25.59
   4  -8   0  559.24   25.89
   4  -8   1  594.94   26.18
   4  -8   1  537.45   23.89
   4  -8   2   79.48    9.02
   4  -8   2   72.37    7.65
   4  -8   3  377.14   19.88
   4  -8   3  348.95   17.61
   4  -8   4 1695.37   58.70
   4  -8   5  680.67   30.20
   4  -8   5  751.27   31.64
   4  -8   6   -0.81    4.31
   4  -8   6   -2.60    4.40
   4  -8   7  564.31   27.16
   4  -8   7  670.22   29.61
   4  -8   8 1153.91   43.59
   4  -8   8 1011.13   41.08
   4  -8   9   98.05   11.08
   4  -8   9   89.37    9.85
   4  -8  10    7.87    4.27
   4  -8  10   11.53    5.55
   4  -8  11  452.18   23.91
   4  -8  11  450.25   24.90
   4  -8  12   95.07   10.75
   4  -8  12   98.39   11.19
   4  -8  13   49.54    8.61
   4  -8  13   36.84    7.05
   4  -8  14   86.60   11.29
   4  -8  14  105.00   11.14
   4  -7 -11  262.54   19.88
   4  -7 -10  303.70   20.77
   4  -7 -10  304.90   19.67
   4  -7  -9   91.13   11.08
   4  -7  -9  105.91   11.05
   4  -7  -8   55.83    8.43
   4  -7  -8   50.77    8.19
   4  -7  -7 1049.91   41.07
   4  -7  -7 1017.79   40.53
   4  -7  -6  634.96   28.50
   4  -7  -6  673.35   29.42
   4  -7  -5    6.98    3.92
   4  -7  -5    5.41    4.20
   4  -7  -4  378.47   18.82
   4  -7  -4  429.12   20.92
   4  -7  -3 1815.65   60.20
   4  -7  -2  126.19   10.29
   4  -7  -1  305.64   16.19
   4  -7   0 1551.20   51.56
   4  -7   0 1576.03   53.14
   4  -7   1  636.60   26.14
   4  -7   1  542.48   23.24
   4  -7   2   28.67    4.71
   4  -7   2   35.67    5.93
   4  -7   3  595.30   23.66
   4  -7   3  608.64   26.56
   4  -7   4  741.61   31.34
   4  -7   4  848.46   33.00
   4  -7   5  807.33   33.25
   4  -7   5  884.77   34.70
   4  -7   6   20.22    5.09
   4  -7   6   21.08    5.39
   4  -7   7   61.30    8.21
   4  -7   7   82.55    8.76
   4  -7   8  839.78   35.26
   4  -7   8  832.92   34.19
   4  -7   9  425.02   22.81
   4  -7   9  421.20   21.95
   4  -7  10   29.45    6.20
   4  -7  10   32.91    6.61
   4  -7  11  110.86   10.93
   4  -7  11   88.21   10.29
   4  -7  12  305.80   19.11
   4  -7  12  283.67   18.63
   4  -7  13  229.68   16.37
   4  -7  13  203.74   16.07
   4  -7  14    1.90    3.82
   4  -6 -12   47.72    9.41
   4  -6 -11  283.93   20.34
   4  -6 -11  253.78   17.99
   4  -6 -10   95.24   11.53
   4  -6 -10  100.88   10.99
   4  -6  -9   95.88   11.00
   4  -6  -9  114.78   11.40
   4  -6  -8   27.32    6.51
   4  -6  -8   25.06    6.40
   4  -6  -7  173.42   13.43
   4  -6  -7  178.27   13.49
   4  -6  -6  300.36   17.39
   4  -6  -6  311.79   17.78
   4  -6  -5  447.91   21.69
   4  -6  -5  502.34   22.91
   4  -6  -4   65.87    7.58
   4  -6  -4   64.76    7.12
   4  -6  -3  862.52   31.73
   4  -6  -3  870.40   32.94
   4  -6  -2 1148.38   38.94
   4  -6  -2 1155.84   40.38
   4  -6  -1  350.82   15.67
   4  -6  -1  376.40   17.48
   4  -6   0  284.86   14.33
   4  -6   0  275.00   15.28
   4  -6   1 2283.39   69.19
   4  -6   1 2085.25   66.11
   4  -6   2 1120.64   40.22
   4  -6   2 1117.65   37.25
   4  -6   3   32.73    6.01
   4  -6   3   34.52    5.69
   4  -6   4 1244.83   44.35
   4  -6   4 1297.91   45.48
   4  -6   5 1202.54   42.03
   4  -6   5 1107.73   42.09
   4  -6   6  217.78   13.83
   4  -6   6  194.63   13.75
   4  -6   7  391.67   20.50
   4  -6   7  366.07   19.33
   4  -6   8  873.17   36.23
   4  -6   8  969.89   36.50
   4  -6   9  533.33   24.85
   4  -6   9  493.94   24.49
   4  -6  10   95.42   10.22
   4  -6  10  109.17   10.98
   4  -6  11   87.71    9.79
   4  -6  11  119.00   11.15
   4  -6  12  637.19   29.72
   4  -6  12  655.52   29.77
   4  -6  13   20.10    5.59
   4  -6  14   16.05    5.62
   4  -5 -12    7.28    5.43
   4  -5 -12   13.38    5.91
   4  -5 -11  290.19   20.43
   4  -5 -11  275.35   18.24
   4  -5 -10  372.95   22.60
   4  -5 -10  362.59   20.91
   4  -5  -9  225.07   16.55
   4  -5  -9  231.63   15.62
   4  -5  -8  276.67   17.81
   4  -5  -8  299.23   17.66
   4  -5  -7  769.64   32.62
   4  -5  -7  805.93   32.35
   4  -5  -6  270.90   16.18
   4  -5  -6  261.07   15.62
   4  -5  -5   33.63    5.72
   4  -5  -5   19.25    4.67
   4  -5  -4  675.61   27.50
   4  -5  -4  714.32   27.96
   4  -5  -3  853.45   32.27
   4  -5  -3  947.23   33.33
   4  -5  -2  140.61    9.33
   4  -5  -2  137.03    9.51
   4  -5  -1   79.95    6.54
   4  -5  -1   64.09    6.38
   4  -5   0  265.34   12.11
   4  -5   0  263.71   12.52
   4  -5   0  278.42   13.17
   4  -5   0  256.87   12.01
   4  -5   0  244.82   13.68
   4  -5   1  712.74   26.91
   4  -5   1  691.06   24.18
   4  -5   1  644.04   24.32
   4  -5   2  379.06   18.09
   4  -5   2  389.06   17.93
   4  -5   2  383.89   15.65
   4  -5   3   84.55    7.74
   4  -5   3   80.71    7.98
   4  -5   4   63.40    6.76
   4  -5   4   41.00    6.12
   4  -5   5   72.32    7.69
   4  -5   5   58.33    6.94
   4  -5   6  511.93   23.60
   4  -5   6  530.57   23.16
   4  -5   7   12.20    4.15
   4  -5   7   17.56    4.77
   4  -5   8   89.17    9.03
   4  -5   8   78.01    8.40
   4  -5   9  195.66   13.91
   4  -5   9  210.20   14.08
   4  -5  10  326.53   18.69
   4  -5  10  310.93   17.95
   4  -5  11   14.14    4.89
   4  -5  12  387.63   21.53
   4  -5  13  222.25   16.15
   4  -5  14   35.82    7.25
   4  -4 -13   56.56   10.08
   4  -4 -12   10.60    6.41
   4  -4 -12   17.54    5.64
   4  -4 -11   31.69    7.68
   4  -4 -11   43.13    7.21
   4  -4 -10  235.37   17.49
   4  -4  -9  163.49   13.78
   4  -4  -8   24.08    5.48
   4  -4  -7   33.84    6.02
   4  -4  -6  731.88   30.15
   4  -4  -5  143.36   10.88
   4  -4  -5  148.39   10.11
   4  -4  -4  206.69   11.60
   4  -4  -4  220.37   12.91
   4  -4  -4  187.41   11.14
   4  -4  -3  634.64   24.43
   4  -4  -3  699.68   26.50
   4  -4  -3  661.89   24.59
   4  -4  -2 1386.64   43.90
   4  -4  -2 1327.41   41.17
   4  -4  -2 1326.37   41.17
   4  -4  -2 1401.41   43.94
   4  -4  -1  634.79   23.41
   4  -4  -1  716.99   25.17
   4  -4  -1  586.24   23.42
   4  -4  -1  671.67   23.69
   4  -4   0   65.55    6.42
   4  -4   0   65.44    5.69
   4  -4   0   68.42    6.26
   4  -4   1 2056.62   66.73
   4  -4   1 2132.86   66.58
   4  -4   2 1965.75   58.85
   4  -4   2 1768.62   58.65
   4  -4   3  263.39   13.62
   4  -4   3  235.89   13.46
   4  -4   4  165.92   10.70
   4  -4   4  169.05   11.10
   4  -4   5 1687.58   56.36
   4  -4   5 1793.47   56.56
   4  -4   6  481.03   22.04
   4  -4   6  522.48   22.35
   4  -4   7   62.33    7.12
   4  -4   7   56.67    6.91
   4  -4   8  320.90   17.52
   4  -4   9  525.59   24.42
   4  -4  10   72.09    8.54
   4  -4  11   22.28    4.98
   4  -4  11   27.88    6.08
   4  -4  11   30.69    5.49
   4  -4  12  274.77   17.69
   4  -4  13  120.02   11.75
   4  -4  14  102.62   11.18
   4  -3 -14   81.40   11.96
   4  -3 -13  217.93   18.38
   4  -3 -12  223.00   17.62
   4  -3 -11    4.22    5.25
   4  -3 -10  528.00   27.17
   4  -3  -9  251.43   17.19
   4  -3  -8  163.78   12.22
   4  -3  -8  160.03   12.96
   4  -3  -8  143.65   11.62
   4  -3  -7  308.35   17.06
   4  -3  -7  327.14   18.34
   4  -3  -7  330.82   17.52
   4  -3  -6 1152.62   41.70
   4  -3  -6 1227.74   43.51
   4  -3  -6 1205.19   42.09
   4  -3  -5  312.57   15.92
   4  -3  -5  341.98   17.32
   4  -3  -5  308.69   15.67
   4  -3  -4  359.86   16.90
   4  -3  -4  415.75   19.03
   4  -3  -4  374.22   17.03
   4  -3  -3  792.98   29.71
   4  -3  -3  850.25   30.09
   4  -3  -2 1966.08   59.60
   4  -3  -2 1828.20   56.50
   4  -3  -2 1884.42   56.66
   4  -3  -2 2013.98   59.76
   4  -3  -1    2.87    2.04
   4  -3  -1   -0.29    1.61
   4  -3  -1    1.48    1.87
   4  -3  -1    0.58    1.61
   4  -3  -1    5.30    2.32
   4  -3   0   28.68    3.68
   4  -3   0   29.63    3.88
   4  -3   0   26.42    3.89
   4  -3   0   26.33    3.46
   4  -3   1 1056.88   34.00
   4  -3   1  936.74   34.38
   4  -3   1 1180.61   33.59
   4  -3   1 1100.41   34.29
   4  -3   1  938.57   34.59
   4  -3   2  130.84    8.49
   4  -3   2  111.90    8.20
   4  -3   3  474.53   19.11
   4  -3   3  428.04   18.66
   4  -3   4    6.83    2.94
   4  -3   4    4.52    2.73
   4  -3   5  491.14   20.24
   4  -3   5  448.24   20.19
   4  -3   6  356.93   17.53
   4  -3   7   81.43    7.35
   4  -3   7   90.03    8.39
   4  -3   7   73.51    7.12
   4  -3   8   12.00    3.71
   4  -3   8    6.08    3.74
   4  -3   8   15.56    3.95
   4  -3   9  548.19   24.03
   4  -3   9  609.30   26.23
   4  -3   9  584.15   24.52
   4  -3  10  173.02   11.98
   4  -3  10  173.38   13.29
   4  -3  10  191.44   12.44
   4  -3  11    9.87    4.62
   4  -3  12  115.31   11.30
   4  -3  13  227.58   16.34
   4  -2 -14  140.97   15.29
   4  -2 -13  403.98   25.05
   4  -2 -12   88.73   11.16
   4  -2 -11   22.16    5.94
   4  -2 -11   22.70    6.48
   4  -2 -11   23.32    6.20
   4  -2 -10  270.90   17.76
   4  -2 -10  287.88   18.55
   4  -2 -10  273.80   17.71
   4  -2  -9  130.46   11.59
   4  -2  -9  126.17   11.81
   4  -2  -9  113.24   11.20
   4  -2  -8  578.22   26.08
   4  -2  -8  572.54   26.92
   4  -2  -8  578.31   26.03
   4  -2  -7   98.79    9.31
   4  -2  -7   88.10    9.27
   4  -2  -7   91.60    8.89
   4  -2  -6  365.32   18.26
   4  -2  -6  394.72   19.75
   4  -2  -6  391.37   18.61
   4  -2  -5 1236.72   41.87
   4  -2  -5 1210.15   43.31
   4  -2  -5 1204.37   41.56
   4  -2  -4  608.52   24.53
   4  -2  -4  647.22   26.23
   4  -2  -4  657.47   24.94
   4  -2  -3  550.78   22.19
   4  -2  -3  557.85   19.19
   4  -2  -3  568.85   23.51
   4  -2  -3  563.08   19.21
   4  -2  -3  593.93   22.73
   4  -2  -2 1979.07   60.34
   4  -2  -2 1918.16   57.41
   4  -2  -2 1972.84   57.61
   4  -2  -2 1889.19   57.33
   4  -2  -2 2054.51   60.60
   4  -2  -1 1922.89   55.53
   4  -2  -1 1817.65   55.18
   4  -2  -1 1973.43   55.71
   4  -2  -1 1721.53   55.52
   4  -2   0   22.89    3.03
   4  -2   0   16.62    2.91
   4  -2   0   22.33    3.13
   4  -2   1 1506.90   45.84
   4  -2   1 1468.52   45.76
   4  -2   1 1549.01   46.04
   4  -2   2 1077.89   35.32
   4  -2   2 1053.00   35.31
   4  -2   2 1080.97   35.35
   4  -2   3  557.94   21.18
   4  -2   3  533.23   21.26
   4  -2   3  547.64   21.09
   4  -2   4  537.20   21.97
   4  -2   4  604.08   22.99
   4  -2   4  594.89   22.59
   4  -2   5 1322.20   44.46
   4  -2   5 1404.70   45.47
   4  -2   5 1361.67   44.76
   4  -2   6  531.36   21.76
   4  -2   6  517.80   22.35
   4  -2   6  525.94   21.70
   4  -2   7   60.26    6.55
   4  -2   7   72.94    7.40
   4  -2   7   73.76    7.19
   4  -2   8  429.08   20.14
   4  -2   8  459.89   21.71
   4  -2   8  501.66   21.12
   4  -2   9  492.09   21.70
   4  -2   9  476.20   21.50
   4  -2   9  485.00   23.04
   4  -2  10  183.12   13.67
   4  -2  11    4.94    4.10
   4  -2  12   61.99    8.47
   4  -2  13   45.22    7.69
   4  -1 -15   15.21    6.32
   4  -1 -14  113.51   12.75
   4  -1 -14  101.54   12.45
   4  -1 -13  720.51   34.36
   4  -1 -13  669.17   32.73
   4  -1 -12  471.65   25.45
   4  -1 -12  469.21   25.90
   4  -1 -12  457.18   25.22
   4  -1 -11   67.97    9.32
   4  -1 -11   76.02    9.86
   4  -1 -11   77.95    9.69
   4  -1 -10  889.51   37.25
   4  -1 -10  920.96   37.95
   4  -1 -10  872.36   37.05
   4  -1  -9 1944.27   67.00
   4  -1  -9 2109.90   68.43
   4  -1  -9 1938.89   66.93
   4  -1  -8  150.99   12.16
   4  -1  -8  164.20   12.80
   4  -1  -8  151.31   12.06
   4  -1  -7  431.47   20.80
   4  -1  -7  443.66   21.88
   4  -1  -7  410.60   20.37
   4  -1  -6 2470.51   77.11
   4  -1  -6 2499.96   78.75
   4  -1  -6 2452.30   76.97
   4  -1  -5 1573.43   52.14
   4  -1  -5 1575.01   53.45
   4  -1  -5 1618.92   52.21
   4  -1  -4  398.74   14.95
   4  -1  -4  407.99   18.21
   4  -1  -4  424.51   18.48
   4  -1  -4  407.78   15.04
   4  -1  -4  441.70   19.94
   4  -1  -3  718.93   26.91
   4  -1  -3  724.49   24.02
   4  -1  -3  726.26   24.03
   4  -1  -3  711.81   26.83
   4  -1  -2 1741.11   51.34
   4  -1  -2 1588.88   48.19
   4  -1  -2 1616.92   48.29
   4  -1  -2 1712.60   51.23
   4  -1  -1 1489.69   45.32
   4  -1  -1 1419.30   43.87
   4  -1  -1 1505.78   45.29
   4  -1   0    4.29    1.85
   4  -1   0    0.30    1.71
   4  -1   0    3.21    1.71
   4  -1   1  714.73   25.58
   4  -1   1  713.82   24.99
   4  -1   1  755.02   25.92
   4  -1   2  779.99   27.55
   4  -1   2  748.39   27.05
   4  -1   2  826.20   27.92
   4  -1   3  484.02   19.53
   4  -1   3  484.74   19.42
   4  -1   3  488.55   19.56
   4  -1   4   59.00    5.97
   4  -1   4   69.93    6.41
   4  -1   4   64.48    6.12
   4  -1   5  495.45   20.51
   4  -1   5  493.81   21.00
   4  -1   5  493.89   20.53
   4  -1   6  674.73   26.04
   4  -1   6  667.32   26.60
   4  -1   6  669.48   26.04
   4  -1   7  434.86   19.70
   4  -1   7  415.43   20.52
   4  -1   8    8.03    3.45
   4  -1   8    2.71    3.10
   4  -1   8    2.88    2.81
   4  -1   9  424.82   19.70
   4  -1   9  428.28   21.36
   4  -1   9  409.17   19.60
   4  -1  10  393.79   20.84
   4  -1  11  203.88   14.83
   4  -1  12   69.55    8.90
   4   0 -15   49.93    9.35
   4   0 -15   38.72    9.07
   4   0 -14   54.05    9.33
   4   0 -14   63.28    9.59
   4   0 -13   35.63    7.87
   4   0 -13   31.86    7.48
   4   0 -12  141.49   13.64
   4   0 -12  116.89   12.53
   4   0 -12  133.94   13.01
   4   0 -11    4.89    5.14
   4   0 -11   -3.88    4.02
   4   0 -11    4.90    5.15
   4   0 -10   66.47    8.96
   4   0 -10   49.22    7.94
   4   0  -9  212.64   15.36
   4   0  -9  239.41   16.00
   4   0  -9  225.56   15.40
   4   0  -8  329.77   18.56
   4   0  -8  369.84   19.81
   4   0  -8  351.67   18.96
   4   0  -7    6.18    3.48
   4   0  -7    5.30    3.31
   4   0  -7    7.49    3.94
   4   0  -6  147.43   10.70
   4   0  -6  138.76   10.48
   4   0  -6  145.57   11.28
   4   0  -5  937.12   29.41
   4   0  -5  923.63   33.51
   4   0  -5  868.01   29.07
   4   0  -5  918.99   34.97
   4   0  -5  943.57   33.64
   4   0  -4  688.81   23.42
   4   0  -4  712.44   26.75
   4   0  -4  682.23   23.35
   4   0  -4  676.24   26.41
   4   0  -3  180.03    9.15
   4   0  -3  172.71   10.64
   4   0  -3  186.20    9.20
   4   0  -3  178.31   10.73
   4   0  -2  305.96   13.34
   4   0  -2  318.86   15.35
   4   0  -2  308.37   13.35
   4   0  -1 1497.15   46.20
   4   0  -1 1457.87   44.33
   4   0  -1 1525.79   46.32
   4   0   0  392.09   15.83
   4   0   0  348.80   14.25
   4   0   0  392.68   15.80
   4   0   1  152.31    8.97
   4   0   1  142.67    8.17
   4   0   1  169.63    9.34
   4   0   2  819.80   28.64
   4   0   2  764.42   27.60
   4   0   2  842.33   28.78
   4   0   3 1313.00   42.47
   4   0   3 1268.91   41.98
   4   0   3 1297.23   42.33
   4   0   4  145.41    9.62
   4   0   4  133.32    9.12
   4   0   4  142.70    9.46
   4   0   5  427.12   18.86
   4   0   5  430.04   19.22
   4   0   5  442.41   19.01
   4   0   6  868.29   32.33
   4   0   6  938.89   33.67
   4   0   6  900.77   32.60
   4   0   7  221.19   12.76
   4   0   7  209.93   13.37
   4   0   7  204.47   12.39
   4   0   8   50.79    6.23
   4   0   8   55.28    7.15
   4   0   8   51.23    6.24
   4   0   9  246.57   15.61
   4   0  10  350.83   19.71
   4   0  11   32.72    6.62
   4   0  12   20.97    5.72
   4   1 -16  219.08   18.42
   4   1 -16  230.21   18.77
   4   1 -15  219.46   17.73
   4   1 -15  217.17   17.88
   4   1 -14   -1.14    5.10
   4   1 -14   -3.35    4.22
   4   1 -13  315.82   20.96
   4   1 -13  290.38   20.11
   4   1 -13  326.98   21.26
   4   1 -12  670.17   32.14
   4   1 -12  652.23   31.53
   4   1 -12  687.31   32.44
   4   1 -11  155.18   13.90
   4   1 -11  188.03   14.62
   4   1 -11  175.89   14.62
   4   1 -10  309.55   18.93
   4   1 -10  279.31   18.00
   4   1 -10  298.28   18.64
   4   1  -9 1014.11   40.54
   4   1  -9 1133.97   41.98
   4   1  -9 1018.93   40.57
   4   1  -8 1919.30   65.36
   4   1  -8 2030.76   66.71
   4   1  -8 1996.03   65.76
   4   1  -7   96.93    9.06
   4   1  -7   94.06    9.33
   4   1  -7   87.27    8.71
   4   1  -6  582.02   21.18
   4   1  -6  630.23   25.58
   4   1  -6  592.99   21.24
   4   1  -6  604.92   26.34
   4   1  -6  598.51   25.22
   4   1  -5 2239.96   64.39
   4   1  -5 2155.73   68.13
   4   1  -5 2167.66   64.21
   4   1  -5 2059.15   67.69
   4   1  -4  514.79   18.75
   4   1  -4  471.31   20.77
   4   1  -4  490.35   18.52
   4   1  -4  498.34   21.10
   4   1  -3    9.81    3.20
   4   1  -3   10.41    2.61
   4   1  -3    7.54    2.46
   4   1  -3    5.65    2.57
   4   1  -2  769.29   26.83
   4   1  -2  790.89   28.76
   4   1  -2  750.94   26.67
   4   1  -2  777.12   28.69
   4   1  -1  478.46   18.75
   4   1  -1  458.25   16.66
   4   1  -1  486.09   18.78
   4   1   0  344.33   15.13
   4   1   0  328.13   13.60
   4   1   0  366.29   15.41
   4   1   1   -0.43    2.62
   4   1   1    0.70    1.86
   4   1   1    2.61    2.32
   4   1   2  214.16   11.42
   4   1   2  187.82   10.41
   4   1   2  201.96   11.25
   4   1   3 1253.84   41.45
   4   1   3 1243.84   41.02
   4   1   3 1242.88   41.40
   4   1   4   90.50    7.37
   4   1   4   84.93    7.46
   4   1   4   76.83    6.88
   4   1   5   98.13    8.16
   4   1   5  100.18    8.47
   4   1   5   81.77    7.57
   4   1   6  488.86   21.38
   4   1   6  514.58   22.46
   4   1   6  527.71   21.81
   4   1   7  454.88   20.04
   4   1   7  469.41   21.40
   4   1   7  412.26   19.39
   4   1   8  150.94   11.71
   4   1   9   23.25    5.59
   4   1  10  258.75   16.98
   4   1  11  192.89   14.88
   4   2 -16  237.33   19.42
   4   2 -15   35.71    8.43
   4   2 -15   35.72    7.91
   4   2 -14   20.57    6.80
   4   2 -14   23.63    6.31
   4   2 -14    9.24    6.59
   4   2 -13   97.59   11.96
   4   2 -13   91.93   10.87
   4   2 -13  103.67   12.03
   4   2 -12   92.65   11.54
   4   2 -12   82.41   10.57
   4   2 -12  103.32   11.83
   4   2 -11  227.54   16.85
   4   2 -11  252.04   17.04
   4   2 -11  237.27   16.93
   4   2 -10  147.43   12.93
   4   2 -10  159.94   12.95
   4   2 -10  140.81   12.67
   4   2  -9   54.50    7.70
   4   2  -9   62.13    8.20
   4   2  -9   49.31    7.37
   4   2  -8 1148.12   42.67
   4   2  -8 1205.14   43.58
   4   2  -8 1096.68   42.10
   4   2  -7  399.32   20.62
   4   2  -7  473.51   22.47
   4   2  -7  460.54   21.37
   4   2  -6  430.65   20.31
   4   2  -6  438.88   17.48
   4   2  -6  425.45   20.19
   4   2  -6  442.73   17.55
   4   2  -5 1316.17   42.11
   4   2  -5 1382.59   45.43
   4   2  -5 1311.66   42.03
   4   2  -5 1282.35   44.81
   4   2  -4 1469.24   45.80
   4   2  -4 1427.76   48.26
   4   2  -4 1476.18   45.86
   4   2  -4 1423.13   48.17
   4   2  -3  476.94   19.37
   4   2  -3  509.63   21.39
   4   2  -3  514.12   19.74
   4   2  -3  523.89   21.52
   4   2  -2  897.18   30.18
   4   2  -2  858.42   31.45
   4   2  -2  832.40   29.79
   4   2  -2  861.17   31.45
   4   2  -1 1086.73   36.25
   4   2  -1 1078.14   36.20
   4   2   0 1593.49   49.93
   4   2   0 1506.07   47.63
   4   2   0 1628.44   50.08
   4   2   1    1.41    2.39
   4   2   1    7.15    2.87
   4   2   1    0.94    2.56
   4   2   2 1201.34   40.74
   4   2   2 1236.20   39.97
   4   2   2 1214.18   40.79
   4   2   3 1219.15   40.59
   4   2   3 1169.24   39.93
   4   2   3 1204.41   40.49
   4   2   4  322.49   15.78
   4   2   4  318.10   15.77
   4   2   4  318.24   15.74
   4   2   5   26.25    4.75
   4   2   5   27.44    5.32
   4   2   5   39.36    5.42
   4   2   6  537.67   22.74
   4   2   6  541.07   23.72
   4   2   6  543.17   22.77
   4   2   7  248.68   15.12
   4   2   8   -0.75    4.20
   4   2   9   38.60    7.01
   4   2  10   51.36    8.04
   4   3 -16  360.10   24.29
   4   3 -15  230.30   18.49
   4   3 -14    6.86    5.80
   4   3 -14   -2.30    5.27
   4   3 -13  367.57   22.76
   4   3 -13  360.91   21.83
   4   3 -13  358.21   22.56
   4   3 -12  779.69   34.87
   4   3 -12  770.74   35.85
   4   3 -11  355.74   21.32
   4   3 -11  363.68   20.81
   4   3 -11  330.23   20.65
   4   3 -10   10.75    4.80
   4   3 -10   18.35    5.06
   4   3 -10    8.94    4.63
   4   3  -9  741.90   31.34
   4   3  -9  751.42   31.72
   4   3  -9  682.02   30.54
   4   3  -8  777.93   31.84
   4   3  -8  792.41   32.42
   4   3  -8  743.99   31.39
   4   3  -7   58.20    7.29
   4   3  -7   53.80    5.89
   4   3  -7   58.79    5.96
   4   3  -7   63.86    7.68
   4   3  -6   11.01    3.75
   4   3  -6   11.62    3.30
   4   3  -6    8.04    3.09
   4   3  -6   10.27    3.97
   4   3  -5  839.41   28.95
   4   3  -5  799.79   30.84
   4   3  -5  801.19   28.67
   4   3  -5  774.51   30.60
   4   3  -4  668.24   24.45
   4   3  -4  622.23   25.71
   4   3  -4  659.83   24.39
   4   3  -4  615.22   25.64
   4   3  -3   33.04    5.03
   4   3  -3   50.26    5.52
   4   3  -3   53.02    5.66
   4   3  -3   42.92    5.57
   4   3  -2    7.73    3.19
   4   3  -2    9.79    3.16
   4   3  -2    4.20    2.62
   4   3  -2    8.79    3.35
   4   3  -1 1189.35   40.24
   4   3  -1 1221.05   40.44
   4   3   0  376.46   17.10
   4   3   0  381.63   15.67
   4   3   0  388.88   17.35
   4   3   1   75.65    7.14
   4   3   1   82.53    6.79
   4   3   1   75.16    7.24
   4   3   2  202.84   11.95
   4   3   2  195.39   11.25
   4   3   2  218.81   12.21
   4   3   3  393.50   17.94
   4   3   3  368.15   17.38
   4   3   3  382.62   17.86
   4   3   4  848.47   31.32
   4   3   4  814.05   31.13
   4   3   4  848.33   31.32
   4   3   5   93.90    8.37
   4   3   5   82.47    8.36
   4   3   5   94.01    8.30
   4   3   6   75.36    8.35
   4   3   7  528.18   24.49
   4   3   8  154.09   12.58
   4   3   9   20.86    5.84
   4   4 -16  322.11   22.69
   4   4 -15   64.84   10.19
   4   4 -15   70.31   11.30
   4   4 -14    4.55    5.33
   4   4 -14    3.43    4.87
   4   4 -13  119.70   13.20
   4   4 -13  136.38   13.69
   4   4 -12  418.90   24.06
   4   4 -12  428.63   23.20
   4   4 -12  421.24   24.01
   4   4 -11  188.39   15.10
   4   4 -11  188.91   14.59
   4   4 -11  188.02   15.02
   4   4 -10   30.19    6.19
   4   4 -10   37.46    6.44
   4   4 -10   27.44    6.29
   4   4  -9  293.51   18.07
   4   4  -9  342.93   19.02
   4   4  -9  318.74   18.46
   4   4  -8  166.42   12.36
   4   4  -8  164.44   10.91
   4   4  -8  183.71   13.30
   4   4  -8  143.39   11.70
   4   4  -8  165.37   10.82
   4   4  -7  374.83   19.08
   4   4  -7  352.73   16.72
   4   4  -7  350.08   18.60
   4   4  -7  379.87   17.18
   4   4  -6   25.00    5.30
   4   4  -6   27.59    4.75
   4   4  -6   26.58    4.67
   4   4  -6   20.88    4.77
   4   4  -5  449.45   21.00
   4   4  -5  451.32   19.66
   4   4  -5  474.77   21.30
   4   4  -5  482.82   20.02
   4   4  -4  348.22   16.49
   4   4  -4  357.27   17.64
   4   4  -4  366.29   16.75
   4   4  -4  351.72   15.45
   4   4  -4  350.05   17.56
   4   4  -3  211.80   12.01
   4   4  -3  192.48   12.25
   4   4  -3  195.99   11.56
   4   4  -3  200.24   11.05
   4   4  -3  204.29   12.39
   4   4  -2   18.50    4.42
   4   4  -2   24.53    4.28
   4   4  -2   30.27    4.85
   4   4  -2   25.30    4.71
   4   4  -1 1370.70   45.87
   4   4  -1 1391.63   46.01
   4   4   0  743.59   27.99
   4   4   0  713.89   27.73
   4   4   1    7.18    3.33
   4   4   1    8.69    3.29
   4   4   1    8.85    3.59
   4   4   2  287.15   14.74
   4   4   2  250.34   13.57
   4   4   2  248.39   14.11
   4   4   3  809.62   31.25
   4   4   3  856.70   31.33
   4   4   3  833.43   31.41
   4   4   4  196.28   12.35
   4   4   4  198.52   12.73
   4   4   4  197.58   12.38
   4   4   5    0.61    2.90
   4   4   5   -0.66    3.88
   4   4   5   -1.82    3.07
   4   4   6  277.03   16.50
   4   4   7  190.60   13.68
   4   4   8   93.28    9.90
   4   5 -16  130.33   14.46
   4   5 -15  181.42   16.41
   4   5 -15  204.16   17.24
   4   5 -14  361.37   23.14
   4   5 -14  346.88   22.60
   4   5 -13   21.54    6.58
   4   5 -13   17.26    6.34
   4   5 -12  388.13   22.92
   4   5 -12  392.22   22.92
   4   5 -11  802.68   34.47
   4   5 -11  716.56   33.15
   4   5 -10   77.78    9.29
   4   5 -10   72.24    8.86
   4   5 -10   67.63    8.34
   4   5  -9  178.70   13.47
   4   5  -9  204.90   14.33
   4   5  -9  179.25   13.56
   4   5  -8  581.51   25.61
   4   5  -8  525.84   22.96
   4   5  -8  502.99   24.36
   4   5  -8  548.75   23.27
   4   5  -7  316.73   17.64
   4   5  -7  334.30   16.69
   4   5  -7  335.90   18.05
   4   5  -7  336.43   16.75
   4   5  -6    6.72    5.25
   4   5  -6    4.04    3.48
   4   5  -6    8.66    3.34
   4   5  -6    1.33    4.27
   4   5  -5  428.63   20.35
   4   5  -5  436.44   19.74
   4   5  -5  429.78   20.33
   4   5  -5  449.55   19.93
   4   5  -4   14.19    4.45
   4   5  -4   14.90    4.21
   4   5  -4   20.07    4.70
   4   5  -4   22.36    4.45
   4   5  -4   14.13    4.18
   4   5  -3  459.41   20.62
   4   5  -3  462.55   20.95
   4   5  -3  479.48   20.82
   4   5  -3  462.51   20.90
   4   5  -3  457.03   19.72
   4   5  -2   16.28    4.05
   4   5  -2   15.21    4.01
   4   5  -2   16.36    3.89
   4   5  -2   11.66    3.96
   4   5  -2   13.19    3.90
   4   5  -1   14.14    4.27
   4   5  -1    4.47    3.23
   4   5  -1    7.65    3.59
   4   5   0  133.07   10.20
   4   5   0  157.46   10.81
   4   5   0  146.32   10.69
   4   5   1  188.07   12.02
   4   5   1  164.60   11.48
   4   5   2   36.66    5.68
   4   5   2   27.13    5.19
   4   5   2   29.36    5.37
   4   5   3   21.73    4.71
   4   5   3   30.14    5.57
   4   5   3   31.07    5.37
   4   5   4  109.74    9.44
   4   5   4  114.23    9.93
   4   5   4  108.56    9.45
   4   5   5   60.51    7.79
   4   5   6    0.75    4.48
   4   5   7   53.12    7.78
   4   5   7   50.50    7.99
   4   6 -15  118.34   13.22
   4   6 -15  133.23   13.93
   4   6 -14  108.73   12.75
   4   6 -14  100.31   12.10
   4   6 -13   -1.06    5.48
   4   6 -13    4.25    4.86
   4   6 -12   41.17    8.10
   4   6 -12   41.17    7.92
   4   6 -11  259.73   17.93
   4   6 -11  290.34   18.66
   4   6 -10  123.03   11.52
   4   6 -10   94.48   10.40
   4   6  -9   23.91    5.49
   4   6  -9   29.44    6.06
   4   6  -9   23.20    5.57
   4   6  -9   20.32    5.53
   4   6  -8  441.86   22.49
   4   6  -8  463.24   21.70
   4   6  -8  460.14   22.66
   4   6  -8  499.98   22.28
   4   6  -7  715.58   30.30
   4   6  -7  768.43   30.01
   4   6  -7  746.29   30.54
   4   6  -7  734.30   29.61
   4   6  -6  136.37   10.91
   4   6  -6  152.13   10.88
   4   6  -6  133.80   10.85
   4   6  -6  130.83   10.44
   4   6  -5  114.19    9.77
   4   6  -5  113.60    9.74
   4   6  -5   99.78    9.16
   4   6  -5  108.43    9.51
   4   6  -4 1380.93   46.90
   4   6  -4 1366.33   46.82
   4   6  -4 1315.06   45.27
   4   6  -4 1371.42   46.79
   4   6  -4 1336.03   46.60
   4   6  -3  879.17   34.12
   4   6  -3  950.25   34.90
   4   6  -3  930.72   33.98
   4   6  -3  908.39   34.32
   4   6  -3  947.88   34.88
   4   6  -2   68.46    7.58
   4   6  -2   73.82    7.77
   4   6  -2   75.73    7.96
   4   6  -1  359.07   18.41
   4   6  -1  358.22   18.33
   4   6  -1  379.96   18.59
   4   6   0  985.40   36.59
   4   6   0  972.33   36.46
   4   6   0  991.64   36.76
   4   6   1  392.04   19.64
   4   6   1  416.18   20.04
   4   6   1  390.55   20.08
   4   6   2    0.67    3.32
   4   6   2    4.00    3.38
   4   6   2   -0.72    3.69
   4   6   3  352.45   18.43
   4   6   3  356.47   18.29
   4   6   3  330.55   18.01
   4   6   3  346.18   19.05
   4   6   4  294.17   16.86
   4   6   4  289.03   17.50
   4   6   5   50.62    7.35
   4   6   5   37.18    6.89
   4   6   6   23.29    5.80
   4   6   6   26.84    6.38
   4   7 -15  292.27   20.68
   4   7 -15  311.12   21.31
   4   7 -14  518.12   27.96
   4   7 -14  495.37   27.57
   4   7 -13   14.62    6.05
   4   7 -13   26.14    7.16
   4   7 -12  229.93   17.06
   4   7 -12  229.95   16.92
   4   7 -11  547.56   27.10
   4   7 -11  527.09   26.70
   4   7 -10  212.67   15.60
   4   7 -10  251.40   15.58
   4   7 -10  219.54   15.54
   4   7 -10  226.26   15.05
   4   7  -9   45.91    7.67
   4   7  -9   63.01    8.39
   4   7  -9   45.87    7.77
   4   7  -9   69.17    8.68
   4   7  -8  521.30   24.82
   4   7  -8  541.67   24.86
   4   7  -8  519.22   24.80
   4   7  -8  561.96   25.08
   4   7  -7  570.61   25.77
   4   7  -7  567.55   25.81
   4   7  -7  578.77   25.84
   4   7  -7  612.98   26.44
   4   7  -6  106.51   10.17
   4   7  -6   99.94    9.89
   4   7  -5  159.42   12.11
   4   7  -5  149.53   11.85
   4   7  -4  589.75   26.27
   4   7  -4  632.66   25.75
   4   7  -4  607.85   26.55
   4   7  -3  495.51   22.98
   4   7  -3  472.68   21.90
   4   7  -3  464.40   22.40
   4   7  -2   71.79    8.15
   4   7  -2   71.80    8.24
   4   7  -2   70.25    8.14
   4   7  -1   38.04    6.42
   4   7  -1   50.73    7.05
   4   7  -1   51.25    7.26
   4   7   0  257.48   15.30
   4   7   0  237.66   15.11
   4   7   1  249.78   15.49
   4   7   1  246.30   15.41
   4   7   1  248.22   15.96
   4   7   2   55.66    7.23
   4   7   2   54.22    7.16
   4   7   2   40.83    6.94
   4   7   3   17.90    5.29
   4   7   4  257.81   16.43
   4   7   4  303.02   18.47
   4   7   5   71.62    8.84
   4   7   5   66.92    9.05
   4   8 -15   35.37    8.31
   4   8 -15   14.45    6.07
   4   8 -14  218.11   17.19
   4   8 -14  225.62   17.36
   4   8 -10  190.40   14.29
   4   8 -10  185.29   14.06
   4   8  -9   99.36   10.44
   4   8  -9   79.48    9.66
   4   8  -8   34.89    6.77
   4   8  -8   50.28    7.59
   4   8  -7  329.28   19.19
   4   8  -7  366.07   19.99
   4   8  -6  403.69   21.29
   4   8  -6  396.85   21.16
   4   8  -5   21.94    5.95
   4   8  -5   21.14    5.99
   4   8  -4  390.32   20.42
   4   8  -4  396.02   19.66
   4   8  -3  656.73   29.13
   4   8  -3  671.35   28.96
   4   8  -3  718.19   29.87
   4   8  -2  289.65   17.63
   4   8  -2  339.41   18.35
   4   8  -2  299.49   17.92
   4   8  -1  184.65   13.66
   4   8  -1  209.85   14.35
   4   8  -1  177.66   13.34
   4   8   0  326.70   18.61
   4   8   0  347.95   19.61
   4   8   0  325.85   18.61
   4   8   1  456.40   22.51
   4   8   1  453.54   23.32
   4   8   1  421.95   22.04
   4   8   2    5.97    4.71
   4   8   3  174.77   14.14
   4   9 -11  378.40   21.40
   4   9 -11  344.38   20.76
   4   9 -10  364.98   21.19
   4   9 -10  353.50   20.84
   4   9  -9    0.89    5.34
   4   9  -9   -0.88    5.18
   4   9  -8  193.80   15.13
   4   9  -8  204.55   15.24
   4   9  -7  199.65   15.16
   4   9  -7  173.58   14.18
   4   9  -6   86.26    9.93
   4   9  -6   68.97    9.37
   4   9  -5   23.01    6.18
   4   9  -5   11.09    5.60
   4   9  -4   29.58    6.49
   4   9  -4   24.49    6.16
   4   9  -4   35.72    6.70
   4   9  -3   64.52    8.46
   4   9  -3   57.78    8.17
   4   9  -3   59.84    8.07
   4   9  -2   91.43    9.97
   4   9  -2  100.53   10.44
   4   9  -2   80.47    9.45
   4   9  -1    1.69    4.20
   4   9  -1   -2.48    4.19
   4   9  -1    1.65    3.78
   4   9   0    4.92    4.31
   4   9   0    7.38    4.46
   4   9   0    5.20    4.72
   4   9   1  111.29   11.46
   4  10 -11   16.13    6.56
   4  10 -11   11.30    6.10
   4  10 -10  497.81   25.91
   4  10 -10  481.35   25.71
   4  10  -9  188.51   15.52
   4  10  -9  192.04   15.65
   4  10  -8   16.07    6.20
   4  10  -8   14.15    6.46
   4  10  -7  168.89   14.44
   4  10  -7  183.13   14.88
   4  10  -6  544.89   27.28
   4  10  -6  533.49   27.08
   4  10  -5  184.58   14.63
   4  10  -5  165.26   14.24
   4  10  -4    6.35    4.77
   4  10  -4    7.26    5.10
   4  10  -4   14.48    5.13
   4  10  -3  294.22   18.64
   4  10  -3  259.84   17.63
   4  10  -3  286.79   18.44
   4  10  -2  183.29   14.34
   4  10  -2  180.42   14.47
   4  10  -2  157.49   13.72
   4  10  -1   16.74    5.78
   4  10  -1   14.10    5.72
   4  10  -1   12.76    5.42
   4  11  -9   48.28    8.60
   4  11  -9   48.03    8.61
   4  11  -8   -1.00    5.44
   4  11  -8   -1.00    5.76
   4  11  -7  130.27   13.15
   4  11  -7  146.75   13.85
   4  11  -6  203.80   16.23
   4  11  -6  226.94   16.96
   4  11  -4   21.95    6.27
   5 -14   2   29.13    8.39
   5 -14   3  373.35   24.01
   5 -14   3  389.74   25.43
   5 -14   4  410.78   26.17
   5 -14   5   18.60    7.76
   5 -14   6  115.30   13.93
   5 -14   7  804.66   38.00
   5 -13  -1  164.30   15.71
   5 -13  -1  156.71   15.84
   5 -13   0  102.52   12.69
   5 -13   0  103.15   12.56
   5 -13   1   10.06    5.77
   5 -13   1    4.71    5.15
   5 -13   2   31.58    8.16
   5 -13   2   51.70    9.45
   5 -13   3   99.24   12.49
   5 -13   3  137.85   13.62
   5 -13   4   35.63    8.25
   5 -13   5   33.27    8.16
   5 -13   6   87.15   11.71
   5 -13   7  138.40   14.39
   5 -13   7  165.62   15.67
   5 -13   8  107.33   12.13
   5 -13   8  103.49   12.69
   5 -13   9   56.93    9.61
   5 -13   9   39.75    8.09
   5 -13  10   37.34    7.71
   5 -12  -3  197.06   16.84
   5 -12  -3  180.70   16.09
   5 -12  -2   88.81   11.35
   5 -12  -2   86.61   11.28
   5 -12  -1   53.68    9.22
   5 -12  -1   70.76   10.10
   5 -12   0  402.16   24.33
   5 -12   0  380.49   23.69
   5 -12   1  239.48   18.30
   5 -12   1  196.96   16.87
   5 -12   2    5.99    4.97
   5 -12   2   14.40    6.12
   5 -12   3  181.96   15.35
   5 -12   3  191.02   16.86
   5 -12   4  487.20   27.47
   5 -12   5  234.45   18.28
   5 -12   6   18.69    5.89
   5 -12   6   12.57    6.32
   5 -12   7  429.39   25.26
   5 -12   7  452.93   26.65
   5 -12   8  390.05   23.72
   5 -12   8  374.67   24.20
   5 -12   9   85.81   11.39
   5 -12   9   76.97   10.41
   5 -12  10  136.17   14.33
   5 -12  10  108.03   12.55
   5 -12  11  338.62   22.56
   5 -12  11  281.19   20.17
   5 -11  -5   29.45    7.79
   5 -11  -4  305.14   20.68
   5 -11  -3  297.88   20.08
   5 -11  -2   66.35    9.91
   5 -11  -2   88.38   10.69
   5 -11  -1  261.53   18.48
   5 -11  -1  268.56   19.20
   5 -11   0  486.77   26.67
   5 -11   0  470.70   25.41
   5 -11   1  235.18   17.76
   5 -11   1  239.80   16.99
   5 -11   2   33.72    6.94
   5 -11   2   27.14    7.74
   5 -11   3  292.31   19.95
   5 -11   4  296.29   20.24
   5 -11   5   74.28   10.16
   5 -11   6   27.28    6.98
   5 -11   6   25.12    6.43
   5 -11   7  123.84   12.50
   5 -11   7  115.43   12.56
   5 -11   8  166.79   15.11
   5 -11   8  236.69   17.78
   5 -11   9   79.26   10.50
   5 -11   9   70.03    9.81
   5 -11  10   18.37    7.39
   5 -11  10   40.65    7.71
   5 -11  11  135.48   13.45
   5 -11  11  131.92   14.00
   5 -11  12  321.44   21.59
   5 -11  12  255.63   19.41
   5 -10  -7   43.94    8.70
   5 -10  -6   53.27    9.17
   5 -10  -5    7.11    5.61
   5 -10  -4   31.54    7.12
   5 -10  -3   78.26    9.82
   5 -10  -2  273.66   18.17
   5 -10  -1   -1.79    4.00
   5 -10  -1    0.97    4.83
   5 -10   0  159.74   13.89
   5 -10   0  149.10   12.72
   5 -10   1  708.45   32.61
   5 -10   1  698.73   30.89
   5 -10   2  217.06   16.59
   5 -10   2  223.31   15.57
   5 -10   3    9.84    6.23
   5 -10   4  665.93   31.67
   5 -10   5  446.25   24.73
   5 -10   5  492.03   26.18
   5 -10   6   50.39    8.26
   5 -10   6   60.16    9.50
   5 -10   7  104.72   11.53
   5 -10   7  145.36   13.79
   5 -10   8  155.14   14.14
   5 -10   8  210.70   16.44
   5 -10   9  140.17   13.92
   5 -10   9  147.99   13.55
   5 -10  10    6.15    4.59
   5 -10  10   18.67    6.78
   5 -10  11   72.46   10.23
   5 -10  11   92.43   11.67
   5 -10  12   54.39    8.86
   5 -10  12   63.31   10.06
   5  -9  -8   47.61    8.55
   5  -9  -7  484.68   26.25
   5  -9  -6  275.82   18.87
   5  -9  -5   34.68    7.20
   5  -9  -4  345.28   20.41
   5  -9  -3  335.53   19.87
   5  -9  -2   46.09    7.42
   5  -9  -1  381.99   20.53
   5  -9  -1  356.73   20.87
   5  -9   0  491.53   25.23
   5  -9   0  494.07   23.85
   5  -9   1  232.47   16.80
   5  -9   1  296.55   16.85
   5  -9   2   27.20    5.54
   5  -9   2   24.42    6.34
   5  -9   3  202.57   15.38
   5  -9   4  448.48   23.99
   5  -9   4  478.35   24.94
   5  -9   5  273.99   18.17
   5  -9   5  286.34   18.86
   5  -9   6    8.38    3.97
   5  -9   6   11.77    5.07
   5  -9   7   45.26    7.56
   5  -9   7   40.87    7.69
   5  -9   8  300.47   19.40
   5  -9   8  230.42   17.12
   5  -9   9  162.09   14.46
   5  -9   9  137.71   12.83
   5  -9  10   32.57    6.74
   5  -9  10   39.65    8.07
   5  -9  11  143.70   13.31
   5  -9  11  160.25   14.53
   5  -9  12   77.85   10.14
   5  -9  12   67.96   10.04
   5  -8 -10  149.17   14.93
   5  -8  -9   -1.03    4.38
   5  -8  -8    2.98    5.40
   5  -8  -7  244.21   17.50
   5  -8  -6  124.13   12.07
   5  -8  -5    8.81    5.31
   5  -8  -4    4.19    4.09
   5  -8  -3  434.66   22.42
   5  -8  -2  265.80   16.36
   5  -8  -1    4.09    3.91
   5  -8  -1    4.32    3.85
   5  -8   0   61.62    8.29
   5  -8   0   42.59    6.74
   5  -8   1  682.78   29.89
   5  -8   1  664.42   27.72
   5  -8   2  573.52   26.94
   5  -8   3    7.71    4.88
   5  -8   3    3.34    3.55
   5  -8   4  310.12   18.91
   5  -8   4  369.96   20.65
   5  -8   5  871.28   36.51
   5  -8   5  933.46   37.88
   5  -8   6  180.15   13.94
   5  -8   6  185.32   14.86
   5  -8   7   11.32    5.45
   5  -8   7    6.24    3.99
   5  -8   8  690.65   32.06
   5  -8   8  666.74   30.75
   5  -8   9  326.78   20.92
   5  -8   9  370.99   21.35
   5  -8  10    3.81    4.26
   5  -8  10    5.85    4.36
   5  -8  11   64.57    9.02
   5  -8  12  225.23   16.94
   5  -8  13  147.04   13.94
   5  -7 -10  368.78   23.70
   5  -7 -10  408.49   23.51
   5  -7  -9  373.36   22.74
   5  -7  -9  361.94   22.04
   5  -7  -8    6.80    4.93
   5  -7  -8    4.72    4.51
   5  -7  -7  423.70   23.23
   5  -7  -7  475.43   24.55
   5  -7  -6  418.96   22.39
   5  -7  -6  476.59   24.01
   5  -7  -5  399.49   21.49
   5  -7  -4  168.01   12.98
   5  -7  -3 1126.33   41.85
   5  -7  -2  471.46   22.22
   5  -7  -1    3.25    3.36
   5  -7  -1   -0.74    3.77
   5  -7   0  402.58   21.00
   5  -7   0  414.16   19.63
   5  -7   1  509.52   24.01
   5  -7   1  499.33   21.73
   5  -7   2   83.88    8.63
   5  -7   2   65.37    8.69
   5  -7   3   74.90    8.74
   5  -7   3   60.15    7.86
   5  -7   4  166.30   12.69
   5  -7   4  158.65   13.04
   5  -7   5   61.80    8.14
   5  -7   5   80.00    9.20
   5  -7   6  108.42   10.82
   5  -7   6   98.76    9.99
   5  -7   7   14.93    5.23
   5  -7   7   12.52    4.83
   5  -7   8  204.44   15.50
   5  -7   8  238.70   15.94
   5  -7   9  205.87   15.33
   5  -7  10  139.41   12.88
   5  -7  11    1.91    4.05
   5  -7  12  225.66   16.89
   5  -7  13  310.10   20.25
   5  -6 -11   49.85    9.51
   5  -6 -11   52.03    8.56
   5  -6 -10  216.01   17.68
   5  -6 -10  219.64   16.73
   5  -6  -9  106.59   11.33
   5  -6  -9  122.62   12.51
   5  -6  -8   23.17    6.31
   5  -6  -8   32.39    6.81
   5  -6  -7   67.68    8.87
   5  -6  -7   63.08    8.46
   5  -6  -6  437.09   22.61
   5  -6  -6  456.93   22.91
   5  -6  -5  520.93   24.10
   5  -6  -5  501.95   24.02
   5  -6  -4   19.32    5.20
   5  -6  -4   16.53    4.58
   5  -6  -3  547.65   24.01
   5  -6  -3  582.02   25.02
   5  -6  -2 1456.80   49.47
   5  -6  -1 1639.94   55.30
   5  -6  -1 1636.87   53.81
   5  -6   0   59.18    6.80
   5  -6   0   78.67    8.33
   5  -6   1 1063.14   39.29
   5  -6   1 1047.01   38.54
   5  -6   2 2166.78   69.55
   5  -6   2 2162.62   70.10
   5  -6   3   19.97    4.84
   5  -6   3   29.48    5.88
   5  -6   4  250.76   15.08
   5  -6   4  225.27   14.95
   5  -6   5 1210.43   44.29
   5  -6   5 1238.82   45.24
   5  -6   6  470.48   23.22
   5  -6   6  454.76   22.45
   5  -6   7   88.44    9.55
   5  -6   8  584.32   27.15
   5  -6   9  354.83   20.61
   5  -6  10  100.50   10.92
   5  -6  11  161.27   13.67
   5  -6  12  241.43   15.83
   5  -6  12  193.93   15.60
   5  -6  12  211.99   15.25
   5  -6  13  109.94   11.85
   5  -5 -12  215.78   18.29
   5  -5 -12  186.32   15.79
   5  -5 -11   -4.64    5.42
   5  -5 -11    2.95    4.60
   5  -5 -10  328.17   21.41
   5  -5 -10  302.85   19.61
   5  -5  -9  500.34   26.71
   5  -5  -9  517.78   25.89
   5  -5  -8    0.84    3.86
   5  -5  -8    6.65    4.15
   5  -5  -7   85.95    9.49
   5  -5  -7   91.47    9.93
   5  -5  -6 1274.14   47.27
   5  -5  -6 1290.74   46.43
   5  -5  -5  180.79   13.21
   5  -5  -5  177.64   12.66
   5  -5  -4    9.19    4.11
   5  -5  -4    9.75    3.60
   5  -5  -3  453.82   21.01
   5  -5  -3  423.46   20.05
   5  -5  -2 1087.42   37.53
   5  -5  -2  958.89   36.03
   5  -5  -1  343.86   16.52
   5  -5  -1  312.81   16.97
   5  -5   0    7.88    2.67
   5  -5   0    7.93    3.37
   5  -5   0    5.49    3.48
   5  -5   0   11.08    3.68
   5  -5   0    7.55    2.64
   5  -5   1  428.12   20.42
   5  -5   1  478.63   20.68
   5  -5   2  792.67   29.94
   5  -5   2  732.60   29.93
   5  -5   3  143.31   10.49
   5  -5   3  122.49   10.33
   5  -5   4    7.14    3.47
   5  -5   5  503.38   22.93
   5  -5   6  386.92   19.88
   5  -5   7  102.54   10.25
   5  -5   8    2.39    4.11
   5  -5   9  422.13   22.46
   5  -5  10  330.68   18.48
   5  -5  10  327.52   19.70
   5  -5  10  333.24   18.57
   5  -5  11   42.75    6.64
   5  -5  11   38.13    7.03
   5  -5  12   51.43    7.47
   5  -5  12   56.06    8.83
   5  -5  12   62.30    8.16
   5  -4 -13  102.68   12.88
   5  -4 -13  118.50   12.24
   5  -4 -12   40.92    8.36
   5  -4 -12   30.98    7.23
   5  -4 -11   23.93    6.52
   5  -4 -10  168.40   15.03
   5  -4  -9  118.11   12.16
   5  -4  -8   80.95   10.05
   5  -4  -7   92.13   10.22
   5  -4  -6  345.10   19.39
   5  -4  -5  450.89   22.27
   5  -4  -4   21.46    4.30
   5  -4  -4   19.44    4.47
   5  -4  -4   15.35    4.11
   5  -4  -3   28.39    4.83
   5  -4  -3   38.27    6.01
   5  -4  -3   42.02    5.58
   5  -4  -2  747.82   29.26
   5  -4  -2  760.18   29.40
   5  -4  -1  468.91   19.78
   5  -4  -1  428.77   17.26
   5  -4  -1  451.60   18.65
   5  -4  -1  487.03   20.83
   5  -4  -1  418.63   18.32
   5  -4  -1  436.96   17.41
   5  -4  -1  376.60   18.46
   5  -4  -1  436.12   19.19
   5  -4   0  155.21    9.20
   5  -4   0  138.87   10.17
   5  -4   0  157.32    9.98
   5  -4   0  164.14    9.33
   5  -4   1  387.69   16.61
   5  -4   1  350.17   17.01
   5  -4   1  408.27   16.88
   5  -4   2 1280.98   41.70
   5  -4   2 1189.35   42.33
   5  -4   2 1310.33   41.92
   5  -4   3  546.94   21.62
   5  -4   3  472.65   21.62
   5  -4   3  524.08   21.44
   5  -4   4   -0.53    2.81
   5  -4   4    1.21    3.18
   5  -4   4    0.54    2.98
   5  -4   5 1021.48   36.34
   5  -4   5 1051.00   37.63
   5  -4   5  978.97   36.11
   5  -4   6  803.66   30.75
   5  -4   6  794.19   31.75
   5  -4   6  794.45   30.76
   5  -4   7   77.11    7.93
   5  -4   7   83.66    8.86
   5  -4   7   86.74    8.42
   5  -4   8   51.12    6.72
   5  -4   8   53.30    7.53
   5  -4   8   57.53    7.14
   5  -4   9  425.63   20.96
   5  -4   9  415.82   21.98
   5  -4   9  415.01   20.92
   5  -4  10  210.19   14.29
   5  -4  10  197.79   14.78
   5  -4  10  222.68   14.62
   5  -4  11    3.05    3.57
   5  -4  11   -1.81    4.66
   5  -4  11    3.07    3.43
   5  -4  12   21.71    5.85
   5  -3 -13  196.74   17.36
   5  -3 -12  220.99   18.02
   5  -3 -11  118.86   12.95
   5  -3 -10  152.01   14.32
   5  -3  -9  489.38   26.00
   5  -3  -8  488.80   25.32
   5  -3  -7   11.51    4.50
   5  -3  -7    7.89    4.45
   5  -3  -7   13.73    4.72
   5  -3  -6  670.60   28.30
   5  -3  -6  642.54   27.99
   5  -3  -5  730.22   29.69
   5  -3  -5  785.04   31.97
   5  -3  -5  723.27   29.51
   5  -3  -4  161.40   11.04
   5  -3  -4  173.07   12.36
   5  -3  -4  139.69   10.45
   5  -3  -3  216.85   12.75
   5  -3  -3  198.74   13.33
   5  -3  -3  205.54   12.51
   5  -3  -2  450.79   19.93
   5  -3  -2  416.32   17.00
   5  -3  -2  477.26   21.46
   5  -3  -2  450.69   17.34
   5  -3  -2  434.69   19.72
   5  -3  -1  133.00    9.79
   5  -3  -1  132.94    8.28
   5  -3  -1  122.23    7.99
   5  -3  -1  128.93    9.73
   5  -3   0    8.34    2.70
   5  -3   0    3.44    2.27
   5  -3   1  346.93   15.34
   5  -3   1  320.71   15.21
   5  -3   1  329.83   15.13
   5  -3   2  248.93   12.92
   5  -3   2  233.57   12.71
   5  -3   2  245.27   12.86
   5  -3   3  116.80    8.93
   5  -3   3  118.18    8.84
   5  -3   3  110.81    8.68
   5  -3   4  123.62    9.19
   5  -3   4  120.30    9.32
   5  -3   4  103.62    8.60
   5  -3   5  402.13   18.42
   5  -3   5  363.40   18.33
   5  -3   5  375.03   18.04
   5  -3   6  271.88   15.29
   5  -3   6  292.79   16.08
   5  -3   6  278.38   15.41
   5  -3   7  446.07   21.33
   5  -3   7  479.89   22.57
   5  -3   7  495.28   22.02
   5  -3   8   36.19    5.99
   5  -3   8   43.70    6.67
   5  -3   8   43.12    6.37
   5  -3   9  149.01   11.50
   5  -3   9  146.22   12.35
   5  -3   9  158.31   11.78
   5  -3  10  263.03   16.01
   5  -3  10  265.70   17.38
   5  -3  10  263.73   15.97
   5  -3  11  195.56   14.99
   5  -3  12    4.70    4.10
   5  -2 -14   67.66   11.08
   5  -2 -13  231.58   18.81
   5  -2 -12  105.81   12.73
   5  -2 -11    2.22    4.20
   5  -2 -11   -1.03    4.38
   5  -2 -10  110.03   11.64
   5  -2 -10   96.64   11.23
   5  -2 -10   97.36   11.01
   5  -2  -9  323.28   19.91
   5  -2  -9  339.03   20.87
   5  -2  -9  330.74   20.03
   5  -2  -8  239.20   16.57
   5  -2  -8  303.64   18.87
   5  -2  -8  278.16   17.33
   5  -2  -7  544.44   26.09
   5  -2  -7  640.48   28.69
   5  -2  -7  608.70   26.88
   5  -2  -6  168.84   12.15
   5  -2  -6  163.48   13.03
   5  -2  -6  176.52   12.31
   5  -2  -5  391.10   19.69
   5  -2  -5  456.30   22.10
   5  -2  -5  399.37   19.83
   5  -2  -4 1695.87   57.41
   5  -2  -4 1781.07   59.83
   5  -2  -4 1808.07   58.00
   5  -2  -3  321.34   16.35
   5  -2  -3  301.24   13.22
   5  -2  -3  299.80   13.19
   5  -2  -3  314.69   16.23
   5  -2  -3  318.06   17.47
   5  -2  -2  229.53   13.48
   5  -2  -2  222.74   11.19
   5  -2  -2  230.56   11.29
   5  -2  -2  238.73   13.55
   5  -2  -1 1650.93   51.18
   5  -2  -1 1637.19   51.12
   5  -2   0  499.63   19.66
   5  -2   0  458.18   18.67
   5  -2   0  490.30   19.54
   5  -2   1   36.67    4.83
   5  -2   1   26.00    4.02
   5  -2   1   39.61    5.00
   5  -2   2  754.15   27.69
   5  -2   2  751.44   27.47
   5  -2   2  724.08   27.47
   5  -2   3  773.18   28.77
   5  -2   3  828.53   29.29
   5  -2   4  250.92   13.91
   5  -2   4  251.02   13.87
   5  -2   4  256.78   13.97
   5  -2   5  556.83   23.20
   5  -2   5  515.03   22.98
   5  -2   5  555.32   23.21
   5  -2   6  187.94   12.34
   5  -2   6  192.21   12.78
   5  -2   6  205.69   12.85
   5  -2   7  594.90   25.07
   5  -2   7  580.37   25.76
   5  -2   7  564.80   24.72
   5  -2   8    0.67    3.06
   5  -2   8    1.51    3.68
   5  -2   8   -3.36    3.28
   5  -2   9  119.42   10.20
   5  -2   9   97.40   10.14
   5  -2   9  117.23   10.18
   5  -2  10  148.45   11.56
   5  -2  10  127.61   11.71
   5  -2  10  135.75   11.17
   5  -2  11   38.60    7.19
   5  -1 -14    7.55    4.92
   5  -1 -13  170.25   15.64
   5  -1 -13  185.25   16.36
   5  -1 -13  172.99   16.06
   5  -1 -12  615.91   30.74
   5  -1 -12  587.38   30.69
   5  -1 -12  536.83   29.23
   5  -1 -11   14.69    6.07
   5  -1 -11   15.31    5.66
   5  -1 -11   14.69    5.62
   5  -1 -10  280.15   18.60
   5  -1 -10  262.87   18.68
   5  -1 -10  283.67   18.75
   5  -1  -9  917.18   38.77
   5  -1  -9  996.95   40.63
   5  -1  -9  965.56   39.30
   5  -1  -8  529.91   26.03
   5  -1  -8  601.44   28.17
   5  -1  -8  543.69   26.17
   5  -1  -7    2.32    4.14
   5  -1  -7    0.90    3.50
   5  -1  -7    2.30    3.44
   5  -1  -6 1317.21   46.86
   5  -1  -6 1322.87   48.72
   5  -1  -6 1316.14   46.79
   5  -1  -5  454.82   21.17
   5  -1  -5  433.02   22.27
   5  -1  -5  435.51   20.82
   5  -1  -4  533.95   23.81
   5  -1  -4  597.66   24.64
   5  -1  -3  252.23   11.91
   5  -1  -3  251.34   14.28
   5  -1  -3  235.54   11.67
   5  -1  -3  242.72   14.14
   5  -1  -2  803.04   27.90
   5  -1  -2  757.61   30.24
   5  -1  -2  780.22   27.72
   5  -1  -2  830.78   30.85
   5  -1  -1 1342.66   43.40
   5  -1  -1 1344.09   43.48
   5  -1   0    8.26    2.97
   5  -1   0    3.20    2.53
   5  -1   1   62.65    6.15
   5  -1   1   57.92    5.46
   5  -1   1   51.28    5.74
   5  -1   2  906.04   31.63
   5  -1   2  832.95   30.29
   5  -1   2  858.42   31.26
   5  -1   3  531.00   21.91
   5  -1   3  477.43   20.79
   5  -1   3  538.39   21.95
   5  -1   4   14.30    3.96
   5  -1   4    7.93    3.47
   5  -1   5   77.30    7.87
   5  -1   5   85.92    8.04
   5  -1   5   64.67    7.24
   5  -1   6  178.40   12.36
   5  -1   6  213.26   13.45
   5  -1   6  205.30   12.92
   5  -1   7  341.21   18.06
   5  -1   7  364.41   19.10
   5  -1   7  387.12   18.88
   5  -1   8   20.11    4.62
   5  -1   8   26.43    5.69
   5  -1   8   20.05    4.51
   5  -1   9   52.62    6.92
   5  -1   9   62.13    8.25
   5  -1   9   55.20    7.03
   5  -1  10  218.71   15.52
   5  -1  11  151.45   13.21
   5   0 -15  155.30   15.45
   5   0 -15  147.62   15.40
   5   0 -14   22.62    7.74
   5   0 -14   25.86    7.35
   5   0 -14   33.68    8.08
   5   0 -13  129.24   13.94
   5   0 -13  115.52   12.78
   5   0 -13  128.58   13.62
   5   0 -12  265.42   19.10
   5   0 -12  247.03   18.75
   5   0 -12  227.68   17.96
   5   0 -11   94.88   11.31
   5   0 -11   95.54   11.70
   5   0 -11   69.55    9.80
   5   0 -10    2.96    4.41
   5   0 -10    1.02    4.35
   5   0 -10    0.98    4.07
   5   0  -9  183.52   14.49
   5   0  -9  171.14   14.37
   5   0  -9  167.16   14.01
   5   0  -8  540.89   25.91
   5   0  -8  560.65   27.28
   5   0  -8  516.13   25.43
   5   0  -7  171.95   12.89
   5   0  -7  171.20   13.58
   5   0  -7  142.67   11.95
   5   0  -6   70.02    7.95
   5   0  -6   58.53    7.29
   5   0  -6   64.86    8.38
   5   0  -5   96.64    9.19
   5   0  -5  104.88    9.33
   5   0  -4 1097.09   37.17
   5   0  -4 1146.11   41.03
   5   0  -4 1158.11   37.45
   5   0  -4 1193.18   41.42
   5   0  -3  215.07   11.38
   5   0  -3  238.47   13.96
   5   0  -3  216.86   11.42
   5   0  -3  217.23   13.37
   5   0  -2  361.69   15.87
   5   0  -2  356.92   17.84
   5   0  -2  330.18   15.48
   5   0  -2  372.33   18.12
   5   0  -1  501.63   20.62
   5   0  -1  526.02   20.87
   5   0   0 1925.39   60.46
   5   0   0 1955.85   60.62
   5   0   1   34.74    5.07
   5   0   1   44.05    4.97
   5   0   1   38.22    5.20
   5   0   2  379.90   17.78
   5   0   2  389.10   17.10
   5   0   2  406.48   18.16
   5   0   3 1324.75   44.01
   5   0   3 1284.32   43.06
   5   0   3 1257.26   43.56
   5   0   4  194.94   12.33
   5   0   4  196.46   12.21
   5   0   4  203.12   12.49
   5   0   5    1.82    3.36
   5   0   5    1.21    2.72
   5   0   5   -0.61    3.24
   5   0   6  380.30   18.65
   5   0   6  375.01   18.87
   5   0   6  350.24   18.10
   5   0   7  215.80   13.64
   5   0   7  212.29   14.08
   5   0   7  200.20   13.22
   5   0   8    9.45    4.22
   5   0   8   11.56    4.45
   5   0   8    2.69    3.72
   5   0   9  152.73   12.74
   5   0  10   56.17    8.31
   5   1 -15  417.91   26.63
   5   1 -15  443.90   26.84
   5   1 -14   31.57    7.91
   5   1 -14   19.54    7.39
   5   1 -13   28.16    7.89
   5   1 -13   43.79    8.53
   5   1 -13   24.70    7.49
   5   1 -12  455.76   26.13
   5   1 -12  434.53   25.64
   5   1 -12  470.46   26.43
   5   1 -11  520.45   27.60
   5   1 -11  512.12   27.40
   5   1 -11  511.36   27.25
   5   1 -10    4.90    3.95
   5   1 -10    9.24    5.11
   5   1 -10    4.89    4.47
   5   1  -9  229.76   16.32
   5   1  -9  241.95   17.11
   5   1  -9  227.53   16.21
   5   1  -8  945.17   37.86
   5   1  -8  957.96   39.24
   5   1  -8  928.90   37.59
   5   1  -7    7.84    3.83
   5   1  -7    7.78    3.80
   5   1  -7   12.55    4.72
   5   1  -6  134.64   11.30
   5   1  -6  139.32   11.26
   5   1  -6  171.74   13.49
   5   1  -5  733.46   26.22
   5   1  -5  719.36   29.68
   5   1  -5  722.00   26.19
   5   1  -5  699.45   29.37
   5   1  -4  427.63   18.33
   5   1  -4  445.62   21.27
   5   1  -4  455.44   18.64
   5   1  -4  471.18   21.58
   5   1  -3  187.23   10.93
   5   1  -3  180.90   12.55
   5   1  -3  210.87   11.35
   5   1  -3  187.73   12.65
   5   1  -2  451.58   18.93
   5   1  -2  425.76   20.40
   5   1  -2  432.01   18.67
   5   1  -2  434.85   20.50
   5   1  -1  207.68   11.93
   5   1  -1  204.33   11.82
   5   1   0  452.18   20.16
   5   1   0  520.06   21.06
   5   1   1    3.27    3.15
   5   1   1    0.54    3.68
   5   1   2   41.30    5.51
   5   1   2   47.84    5.74
   5   1   2   40.69    5.61
   5   1   3  162.75   11.18
   5   1   3  174.49   11.02
   5   1   3  149.67   10.81
   5   1   4  385.77   18.77
   5   1   4  385.23   18.35
   5   1   4  392.68   18.97
   5   1   5   52.94    6.65
   5   1   5   53.44    6.77
   5   1   5   44.72    6.50
   5   1   6   24.73    5.17
   5   1   6   34.86    6.05
   5   1   6   23.40    5.09
   5   1   7  282.58   16.32
   5   1   7  301.07   17.35
   5   1   7  291.03   16.48
   5   1   8   90.53    9.86
   5   1   9    0.85    3.87
   5   2 -15  238.22   19.52
   5   2 -15  261.25   19.65
   5   2 -15  254.00   20.04
   5   2 -14   12.19    6.74
   5   2 -14   15.08    6.31
   5   2 -14   12.24    6.66
   5   2 -13    1.17    5.12
   5   2 -13    2.24    3.79
   5   2 -13    2.35    5.25
   5   2 -12  281.66   20.20
   5   2 -12  288.45   19.86
   5   2 -12  282.69   20.28
   5   2 -11  275.73   19.26
   5   2 -11  306.07   20.03
   5   2 -11  254.35   18.57
   5   2 -10  280.86   18.51
   5   2 -10  267.04   18.46
   5   2 -10  256.21   17.77
   5   2  -9    3.62    4.33
   5   2  -9    4.86    3.79
   5   2  -9   10.79    4.73
   5   2  -8  309.03   18.82
   5   2  -8  365.99   20.86
   5   2  -8  328.70   19.14
   5   2  -7  717.02   31.04
   5   2  -7  760.51   33.03
   5   2  -7  731.73   31.10
   5   2  -6  347.65   15.97
   5   2  -6  350.48   18.86
   5   2  -6  353.52   16.11
   5   2  -6  323.91   18.36
   5   2  -5  256.33   13.27
   5   2  -5  262.40   15.63
   5   2  -5  275.83   13.57
   5   2  -5  228.47   14.89
   5   2  -4 1799.39   55.28
   5   2  -4 1739.57   57.81
   5   2  -4 1706.04   54.85
   5   2  -4 1663.46   57.35
   5   2  -3  365.94   16.87
   5   2  -3  347.77   18.18
   5   2  -3  348.27   16.60
   5   2  -3  374.83   18.66
   5   2  -2  113.01    8.67
   5   2  -2   86.30    8.81
   5   2  -2   90.33    8.10
   5   2  -2  122.84    9.94
   5   2  -1 1529.13   49.59
   5   2  -1 1473.01   49.27
   5   2   0 1044.96   36.70
   5   2   0 1009.68   36.44
   5   2   1  282.53   15.34
   5   2   1  303.30   15.69
   5   2   2   69.33    7.45
   5   2   2   70.01    7.45
   5   2   3  564.97   23.62
   5   2   3  501.59   22.04
   5   2   3  520.84   23.05
   5   2   4  406.26   19.56
   5   2   4  397.59   18.99
   5   2   4  377.07   19.09
   5   2   5    8.54    4.22
   5   2   5   17.09    4.77
   5   2   5   11.83    4.45
   5   2   6   93.64    9.30
   5   2   6  114.69   10.08
   5   2   6  115.91   10.04
   5   2   7  222.45   14.93
   5   2   8   26.91    6.41
   5   3 -15  315.03   22.76
   5   3 -15  316.82   22.47
   5   3 -14  210.89   17.71
   5   3 -14  199.32   16.68
   5   3 -14  206.51   17.67
   5   3 -13    8.17    5.70
   5   3 -13    8.73    5.00
   5   3 -13    9.34    5.35
   5   3 -12  398.81   24.00
   5   3 -12  412.73   23.76
   5   3 -12  368.48   23.31
   5   3 -11  488.19   26.72
   5   3 -11  542.92   27.79
   5   3 -11  531.50   27.61
   5   3 -10  198.49   15.63
   5   3 -10  230.25   16.69
   5   3 -10  210.98   16.04
   5   3  -9  134.79   12.17
   5   3  -9  131.11   11.93
   5   3  -9  141.20   12.96
   5   3  -8  378.00   21.08
   5   3  -8  390.13   22.11
   5   3  -8  396.43   21.31
   5   3  -7  732.45   31.60
   5   3  -7  762.35   31.92
   5   3  -6   44.71    6.70
   5   3  -6   38.20    5.56
   5   3  -6   37.11    5.46
   5   3  -6   39.89    6.45
   5   3  -5  291.25   14.92
   5   3  -5  263.11   16.12
   5   3  -5  293.71   15.00
   5   3  -5  291.94   16.87
   5   3  -4  770.77   28.93
   5   3  -4  719.74   30.39
   5   3  -4  777.17   29.00
   5   3  -4  740.59   30.62
   5   3  -3  792.73   29.43
   5   3  -3  746.35   30.64
   5   3  -3  758.10   29.18
   5   3  -3  747.69   30.62
   5   3  -2    9.64    3.98
   5   3  -2    7.48    3.47
   5   3  -2    4.61    3.18
   5   3  -2    2.05    3.34
   5   3  -1  285.22   15.30
   5   3  -1  286.63   15.33
   5   3   0  685.47   27.45
   5   3   0  683.91   27.47
   5   3   1  253.70   14.94
   5   3   1  286.77   15.64
   5   3   2    1.28    3.12
   5   3   2   -1.92    3.53
   5   3   3  180.19   12.44
   5   3   3  189.06   12.24
   5   3   3  195.40   12.84
   5   3   4  493.99   22.44
   5   3   4  495.73   22.09
   5   3   4  442.04   21.86
   5   3   5  121.23   10.41
   5   3   5  130.63   10.81
   5   3   5  126.12   10.76
   5   3   6    5.58    3.97
   5   3   6    3.70    3.76
   5   3   6   12.56    4.31
   5   3   7  279.41   17.37
   5   3   8  336.66   19.66
   5   4 -15  120.05   14.20
   5   4 -15  143.59   14.79
   5   4 -14   14.47    6.78
   5   4 -14   20.55    6.89
   5   4 -13   -3.47    5.98
   5   4 -13    2.32    4.93
   5   4 -12  108.87   12.58
   5   4 -12  117.59   12.35
   5   4 -12  121.81   13.05
   5   4 -11  119.87   12.33
   5   4 -11  109.76   11.73
   5   4 -11   99.89   11.35
   5   4 -10   25.15    6.41
   5   4 -10   37.53    7.52
   5   4  -9    6.34    3.86
   5   4  -9    9.01    4.49
   5   4  -9    7.66    4.49
   5   4  -8  126.55   11.60
   5   4  -8  139.89   12.15
   5   4  -7  290.09   17.91
   5   4  -7  320.46   16.39
   5   4  -7  286.61   17.75
   5   4  -7  340.78   16.74
   5   4  -6  136.96   11.58
   5   4  -6  153.05   10.82
   5   4  -6  161.30   12.31
   5   4  -6  145.21   10.56
   5   4  -5    2.98    3.71
   5   4  -5   -1.82    3.75
   5   4  -5    3.04    3.30
   5   4  -5    0.74    3.90
   5   4  -4  420.00   19.40
   5   4  -4  369.69   19.69
   5   4  -4  402.39   19.12
   5   4  -4  372.65   19.68
   5   4  -3  695.69   27.95
   5   4  -3  684.40   28.98
   5   4  -3  693.13   27.94
   5   4  -3  689.54   29.03
   5   4  -2  197.23   12.65
   5   4  -2  186.19   13.13
   5   4  -2  187.74   12.39
   5   4  -2  164.56   12.40
   5   4  -1   72.45    8.08
   5   4  -1   58.37    7.37
   5   4   0  521.40   23.57
   5   4   0  545.90   23.79
   5   4   1  234.08   14.50
   5   4   1  258.92   15.02
   5   4   2   10.16    3.57
   5   4   2   10.85    4.35
   5   4   3  289.69   16.49
   5   4   3  274.79   16.20
   5   4   4  208.19   13.85
   5   4   4  218.92   14.02
   5   4   4  219.62   14.18
   5   4   5   32.71    5.81
   5   4   5   38.21    6.71
   5   4   5   42.71    6.52
   5   4   6  140.47   11.84
   5   4   7  133.79   11.83
   5   5 -14  238.02   18.69
   5   5 -14  208.37   17.73
   5   5 -13  145.56   14.47
   5   5 -13  146.69   14.47
   5   5 -12  170.32   15.42
   5   5 -12  177.59   15.35
   5   5 -11  426.19   24.72
   5   5 -11  467.30   25.27
   5   5 -11  461.64   25.37
   5   5 -10  203.16   15.97
   5   5 -10  220.37   16.21
   5   5 -10  216.57   16.31
   5   5  -9   32.77    6.86
   5   5  -9   23.46    6.09
   5   5  -9   29.76    6.33
   5   5  -8  521.16   25.47
   5   5  -8  533.26   23.63
   5   5  -8  494.16   25.03
   5   5  -8  507.39   23.35
   5   5  -7  569.81   26.99
   5   5  -7  607.55   25.74
   5   5  -7  552.22   26.61
   5   5  -7  595.39   25.57
   5   5  -6   63.98    8.00
   5   5  -6   61.69    7.42
   5   5  -6   61.67    7.75
   5   5  -6   59.62    7.68
   5   5  -5   94.05    9.42
   5   5  -5   92.06    8.94
   5   5  -5   93.42    8.99
   5   5  -5   95.86    9.55
   5   5  -4  250.67   14.92
   5   5  -4  245.95   15.37
   5   5  -4  228.94   14.37
   5   5  -4  224.92   14.72
   5   5  -3  238.78   14.61
   5   5  -3  226.79   14.59
   5   5  -3  205.68   13.91
   5   5  -3  208.78   12.96
   5   5  -3  209.49   14.10
   5   5  -2   71.57    8.27
   5   5  -2   52.84    7.17
   5   5  -2   72.23    8.16
   5   5  -2   66.95    7.50
   5   5  -2   69.02    7.92
   5   5  -1   23.63    5.27
   5   5  -1   21.72    5.33
   5   5  -1   20.19    4.95
   5   5  -1   13.99    4.61
   5   5  -1   26.44    5.44
   5   5   0  164.49   12.16
   5   5   0  157.45   11.97
   5   5   0  167.16   12.05
   5   5   1   60.75    7.84
   5   5   1   60.77    7.78
   5   5   2  168.77   12.55
   5   5   2  156.65   12.38
   5   5   3    2.19    4.15
   5   5   3    0.73    4.22
   5   5   4  120.09   10.61
   5   5   4  111.37   10.45
   5   6 -14   62.51   10.10
   5   6 -14   60.23    9.85
   5   6 -13   23.81    7.22
   5   6 -13   44.21    8.89
   5   6 -12   -4.33    5.59
   5   6 -12   -1.08    4.60
   5   6 -11   67.65    9.64
   5   6 -11   58.22    9.07
   5   6 -10  112.02   11.60
   5   6 -10  105.56   11.07
   5   6  -9  184.85   14.44
   5   6  -9  168.75   13.94
   5   6  -8   10.48    4.97
   5   6  -8   10.43    4.55
   5   6  -8   16.39    5.25
   5   6  -8    4.33    3.59
   5   6  -7  424.40   22.62
   5   6  -7  435.62   21.76
   5   6  -7  444.86   22.86
   5   6  -7  454.40   22.15
   5   6  -6  351.19   20.21
   5   6  -6  423.50   20.94
   5   6  -6  377.17   20.66
   5   6  -6  430.80   21.13
   5   6  -5   46.96    7.23
   5   6  -5   68.80    8.17
   5   6  -5   59.93    7.71
   5   6  -5   43.59    7.07
   5   6  -4   65.95    8.09
   5   6  -4   86.73    9.02
   5   6  -4   74.14    8.42
   5   6  -4   67.19    8.36
   5   6  -3  563.12   25.97
   5   6  -3  557.23   25.66
   5   6  -3  550.01   24.55
   5   6  -3  603.04   26.39
   5   6  -3  583.95   26.10
   5   6  -2  215.85   14.48
   5   6  -2  207.58   14.18
   5   6  -2  199.43   13.49
   5   6  -1   -3.79    4.37
   5   6  -1    1.51    4.55
   5   6  -1   -4.30    4.14
   5   6   0  295.86   17.33
   5   6   0  280.41   17.11
   5   6   0  285.54   17.05
   5   6   1  210.49   14.43
   5   6   1  197.94   13.97
   5   6   1  173.31   13.35
   5   6   2   74.42    8.78
   5   6   2   73.59    8.67
   5   6   2   69.41    8.95
   5   6   3   10.13    4.51
   5   6   3   15.57    4.99
   5   6   3   17.60    5.85
   5   6   4  333.84   20.00
   5   7 -14  337.63   22.54
   5   7 -14  324.13   22.24
   5   7 -13   71.57   10.80
   5   7 -13   65.99   10.17
   5   7 -12   53.64    9.38
   5   7 -12   63.16    9.47
   5   7 -11  300.89   19.70
   5   7 -11  259.18   18.40
   5   7 -10  161.54   14.28
   5   7 -10  190.55   15.09
   5   7  -9   69.99    8.88
   5   7  -9   79.19    9.67
   5   7  -9   69.95    8.94
   5   7  -9   74.94    9.39
   5   7  -8  225.31   16.15
   5   7  -8  255.88   16.46
   5   7  -8  249.56   16.72
   5   7  -8  253.25   16.43
   5   7  -7  290.21   17.68
   5   7  -7  266.02   16.97
   5   7  -6  148.17   12.33
   5   7  -6  142.58   12.16
   5   7  -5   -2.42    4.52
   5   7  -5   -2.42    4.39
   5   7  -4  187.33   13.88
   5   7  -4  179.98   13.56
   5   7  -3  187.30   14.12
   5   7  -3  195.18   13.67
   5   7  -3  209.20   14.77
   5   7  -2   67.07    8.50
   5   7  -2   74.36    8.82
   5   7  -2   76.75    8.93
   5   7  -1   20.26    5.85
   5   7  -1   23.51    5.96
   5   7  -1   30.71    6.23
   5   7   0   91.72   10.01
   5   7   0   88.49    9.88
   5   7   0   92.96    9.95
   5   7   1  117.18   10.99
   5   7   1  122.87   11.27
   5   7   1  132.27   11.87
   5   7   2  204.26   14.65
   5   7   2  199.37   14.57
   5   7   2  213.74   15.53
   5   8 -10  328.82   19.81
   5   8 -10  316.16   19.44
   5   8  -9  393.29   22.64
   5   8  -9  428.56   23.11
   5   8  -8   11.56    6.08
   5   8  -8   13.34    5.96
   5   8  -7   53.93    8.32
   5   8  -7   59.26    8.68
   5   8  -6  543.73   26.81
   5   8  -6  574.04   27.42
   5   8  -5  250.44   17.21
   5   8  -5  252.33   17.14
   5   8  -4    4.36    4.58
   5   8  -4    2.61    4.50
   5   8  -3  425.73   23.12
   5   8  -3  434.44   22.41
   5   8  -3  429.08   22.99
   5   8  -2  229.78   16.25
   5   8  -2  233.31   15.93
   5   8  -2  247.00   16.84
   5   8  -1   25.08    6.04
   5   8  -1   11.25    5.08
   5   8  -1    7.68    5.14
   5   8   0  179.28   14.10
   5   8   0  197.24   15.14
   5   8   0  196.42   14.69
   5   9 -10  321.52   20.48
   5   9 -10  323.41   20.34
   5   9  -9   63.37    9.75
   5   9  -9   61.27    9.49
   5   9  -8   21.07    6.56
   5   9  -8   19.14    6.43
   5   9  -7  101.90   11.22
   5   9  -7  101.92   11.37
   5   9  -6   66.23    9.66
   5   9  -6   63.39    9.44
   5   9  -5   32.93    7.57
   5   9  -5   34.82    7.51
   5   9  -4   12.16    6.06
   5   9  -4   11.22    5.41
   5   9  -3   18.56    6.09
   5   9  -3   18.55    5.95
   5   9  -3   16.46    5.69
   5   9  -2   73.90    9.68
   6 -13   0  266.13   20.12
   6 -13   1   64.46   10.42
   6 -13   2    2.45    5.34
   6 -13   3   78.84   11.35
   6 -13   4  119.78   13.64
   6 -13   5   85.08   11.48
   6 -13   5   97.36   12.45
   6 -13   6   -1.20    4.37
   6 -13   6   -1.24    5.79
   6 -12  -2   71.54   10.96
   6 -12  -2   67.91   10.13
   6 -12  -1   -2.33    5.45
   6 -12  -1    3.27    5.31
   6 -12   0  310.47   21.56
   6 -12   0  276.85   19.86
   6 -12   1  217.08   18.18
   6 -12   2   87.22   12.24
   6 -12   3    9.39    5.73
   6 -12   4  256.55   19.15
   6 -12   4  285.76   20.80
   6 -12   5  300.61   21.39
   6 -12   5  344.33   22.86
   6 -12   6   28.70    7.41
   6 -12   6   45.32    9.29
   6 -12   7   81.61   10.92
   6 -12   7  103.79   12.51
   6 -12   8  273.65   20.09
   6 -12   8  290.18   21.16
   6 -12   9  191.87   17.02
   6 -11  -4  122.29   13.43
   6 -11  -3  263.87   19.06
   6 -11  -3  274.39   20.04
   6 -11  -2  325.84   20.83
   6 -11  -2  315.39   21.68
   6 -11  -1   29.98    7.52
   6 -11  -1   19.80    6.38
   6 -11   0  496.10   27.52
   6 -11   0  454.31   25.28
   6 -11   1  329.62   21.88
   6 -11   2   67.05   10.61
   6 -11   3   51.21    9.45
   6 -11   4  215.38   17.02
   6 -11   4  239.45   18.58
   6 -11   5  103.73   11.85
   6 -11   5   87.14   11.34
   6 -11   6   32.96    7.12
   6 -11   6    6.82    5.22
   6 -11   7   43.05    8.51
   6 -11   7   52.63    9.09
   6 -11   8   33.45    7.60
   6 -11   8   33.36    7.57
   6 -11   9  125.10   13.26
   6 -11   9  121.55   12.89
   6 -11  10   -1.16    5.30
   6 -10  -6   70.58   10.03
   6 -10  -5    3.12    5.46
   6 -10  -4   14.12    5.75
   6 -10  -3   86.90   10.99
   6 -10  -2  271.71   18.31
   6 -10  -2  250.13   18.83
   6 -10  -1   71.93    9.53
   6 -10  -1   77.19   10.43
   6 -10   0   22.54    6.57
   6 -10   0   14.93    5.70
   6 -10   1  470.28   26.39
   6 -10   2  604.10   30.38
   6 -10   3   43.16    8.48
   6 -10   3   39.89    7.62
   6 -10   4  290.00   19.84
   6 -10   4  336.53   21.34
   6 -10   5  651.52   32.12
   6 -10   5  715.83   33.81
   6 -10   6  217.63   17.09
   6 -10   6  220.72   17.50
   6 -10   7    2.11    4.36
   6 -10   7   -3.27    5.33
   6 -10   8  419.48   25.01
   6 -10   8  380.32   23.42
   6 -10   9  329.24   21.42
   6 -10  10   23.83    6.38
   6  -9  -7  341.92   21.60
   6  -9  -6  388.34   23.06
   6  -9  -5  126.57   12.53
   6  -9  -4   53.48    8.37
   6  -9  -3  457.64   24.24
   6  -9  -2  289.13   18.41
   6  -9  -2  282.57   19.14
   6  -9  -1    1.91    4.38
   6  -9  -1    0.83    4.12
   6  -9   0   26.72    6.62
   6  -9   1  384.64   22.34
   6  -9   2   65.97    8.85
   6  -9   2   65.03    9.77
   6  -9   3   25.69    7.44
   6  -9   3   30.39    6.91
   6  -9   4  187.49   15.10
   6  -9   4  217.34   16.49
   6  -9   5  111.31   11.77
   6  -9   5  125.77   12.49
   6  -9   6  100.44   11.38
   6  -9   6   90.88   10.99
   6  -9   7    1.00    4.24
   6  -9   8  135.27   12.87
   6  -9   9  163.80   14.65
   6  -9  10   47.21    8.35
   6  -8  -8    3.13    5.09
   6  -8  -7   69.32    9.93
   6  -8  -6   19.31    5.91
   6  -8  -5  211.35   15.80
   6  -8  -4    2.64    4.70
   6  -8  -3   29.18    6.30
   6  -8  -2  176.37   13.38
   6  -8  -2  153.78   13.36
   6  -8  -1  166.24   13.56
   6  -8  -1  124.71   11.10
   6  -8   0    0.88    4.57
   6  -8   1  101.60   10.26
   6  -8   1   91.12   10.64
   6  -8   2  298.77   18.41
   6  -8   2  308.27   19.17
   6  -8   3  108.85   11.49
   6  -8   3   94.20   10.18
   6  -8   4  117.97   11.33
   6  -8   5  314.68   19.42
   6  -8   6  587.74   28.32
   6  -8   7    0.94    3.90
   6  -8   8  326.30   20.36
   6  -8   9  364.24   21.97
   6  -8  10  210.96   16.54
   6  -8  11   10.42    5.29
   6  -7 -10  236.19   18.49
   6  -7  -9  344.52   22.26
   6  -7  -9  342.84   21.72
   6  -7  -8   17.85    6.30
   6  -7  -8   28.48    6.69
   6  -7  -7   94.91   10.71
   6  -7  -6  633.36   29.76
   6  -7  -5  506.36   25.46
   6  -7  -4   16.37    5.43
   6  -7  -3  394.34   20.76
   6  -7  -2  470.26   23.08
   6  -7  -2  516.92   24.63
   6  -7  -1  239.38   16.09
   6  -7   0   53.90    7.82
   6  -7   1  128.68   10.89
   6  -7   1  120.20   11.49
   6  -7   2  151.42   12.23
   6  -7   3   15.96    4.63
   6  -7   4   18.06    5.15
   6  -7   5   13.51    4.53
   6  -7   6  192.27   14.58
   6  -7   7   75.17    9.26
   6  -7   8    0.92    4.13
   6  -7   9   67.10    9.20
   6  -7  10  197.22   14.90
   6  -7  10  235.40   17.30
   6  -7  10  240.37   16.21
   6  -7  11   55.61    8.19
   6  -7  11   53.92    8.48
   6  -7  11   46.19    7.58
   6  -6 -10   43.36    8.51
   6  -6 -10   46.16    8.59
   6  -6  -9  148.29   13.75
   6  -6  -9  158.28   14.76
   6  -6  -8   12.26    5.52
   6  -6  -8    3.09    4.83
   6  -6  -7    6.28    4.80
   6  -6  -7   14.48    5.58
   6  -6  -6   97.80   10.62
   6  -6  -6   93.79   10.32
   6  -6  -5  269.11   17.35
   6  -6  -5  248.67   16.44
   6  -6  -4   82.00    9.31
   6  -6  -3    8.59    4.08
   6  -6  -2  438.23   21.07
   6  -6   1  313.41   15.64
   6  -6   1  307.86   17.14
   6  -6   1  338.65   16.06
   6  -6   2 1250.99   42.17
   6  -6   2 1285.93   42.42
   6  -6   3  308.84   16.18
   6  -6   3  294.38   17.19
   6  -6   3  336.86   16.80
   6  -6   4   46.82    6.55
   6  -6   4   46.88    6.89
   6  -6   4   52.35    6.78
   6  -6   5  297.96   16.60
   6  -6   5  295.45   17.62
   6  -6   5  290.10   16.56
   6  -6   6  659.18   28.59
   6  -6   6  710.30   30.66
   6  -6   6  709.11   29.23
   6  -6   7    6.72    3.86
   6  -6   7    5.13    3.92
   6  -6   7    9.80    4.03
   6  -6   8   25.03    5.40
   6  -6   8   35.75    6.92
   6  -6   8   32.33    6.11
   6  -6   9  175.49   13.55
   6  -6   9  178.19   14.36
   6  -6   9  173.65   13.48
   6  -6  10  100.95   10.34
   6  -6  10  101.72   11.40
   6  -6  10  116.15   11.02
   6  -6  11    1.75    3.52
   6  -6  11    5.95    4.33
   6  -6  11    1.76    3.65
   6  -5 -11   32.31    7.25
   6  -5 -11   34.00    8.00
   6  -5 -10  126.67   12.60
   6  -5 -10  129.05   13.62
   6  -5  -9  696.04   33.21
   6  -5  -9  637.94   30.71
   6  -5  -8  406.14   23.66
   6  -5  -8  414.24   22.75
   6  -5  -7   10.22    4.56
   6  -5  -7   11.69    5.30
   6  -5  -6  288.38   18.39
   6  -5  -6  282.30   17.58
   6  -5  -5 1171.87   44.36
   6  -5  -5 1135.36   42.67
   6  -5  -4   19.77    5.01
   6  -5  -4   27.03    5.80
   6  -5  -3   40.19    6.24
   6  -5  -3   63.87    8.01
   6  -5   0   56.28    5.95
   6  -5   0   72.61    6.71
   6  -5   1  373.15   17.23
   6  -5   1  346.32   17.85
   6  -5   1  381.10   17.40
   6  -5   2  901.94   32.55
   6  -5   2  818.18   32.79
   6  -5   2  905.24   32.60
   6  -5   3  474.40   20.81
   6  -5   3  436.37   21.21
   6  -5   3  455.74   20.60
   6  -5   4   16.37    4.27
   6  -5   4   10.58    4.37
   6  -5   4   12.04    4.12
   6  -5   5  103.21    9.31
   6  -5   5   94.81    9.67
   6  -5   5  102.53    9.25
   6  -5   6  759.59   31.72
   6  -5   6  800.61   33.16
   6  -5   6  843.57   32.59
   6  -5   7   46.44    6.98
   6  -5   7   58.40    8.24
   6  -5   7   59.35    7.86
   6  -5   8   94.43    9.54
   6  -5   8   78.50    9.33
   6  -5   8   74.75    8.68
   6  -5   9  142.52   11.98
   6  -5   9  157.85   13.30
   6  -5   9  135.27   11.78
   6  -5  10  183.52   13.92
   6  -5  10  175.99   14.58
   6  -5  10  194.54   14.43
   6  -5  11   62.61    8.46
   6  -5  11   66.39    8.63
   6  -4 -12   61.21   10.69
   6  -4 -11   17.11    6.55
   6  -4 -10  134.56   14.06
   6  -4  -9  149.50   14.15
   6  -4  -8  128.10   13.11
   6  -4  -7   20.68    6.18
   6  -4  -6   41.25    7.29
   6  -4  -5  496.36   25.25
   6  -4  -4    9.34    4.69
   6  -4  -3   42.70    6.26
   6  -4  -3   49.12    7.12
   6  -4  -3   35.62    6.12
   6  -4  -2  343.98   18.62
   6  -4  -2  378.33   19.77
   6  -4  -2  363.42   18.85
   6  -4  -1  408.06   20.15
   6  -4  -1  416.72   21.17
   6  -4  -1  412.88   20.19
   6  -4   0  399.88   17.81
   6  -4   0  404.93   17.93
   6  -4   1  212.99   12.19
   6  -4   1  178.80   11.53
   6  -4   2  401.52   18.45
   6  -4   2  366.34   18.28
   6  -4   2  398.93   18.40
   6  -4   3 1202.76   41.99
   6  -4   3 1152.69   42.06
   6  -4   3 1258.12   42.47
   6  -4   4  148.98   11.07
   6  -4   4  165.10   11.89
   6  -4   4  154.78   11.39
   6  -4   5  237.82   14.50
   6  -4   5  227.63   14.62
   6  -4   5  252.41   14.98
   6  -4   6  704.73   28.91
   6  -4   6  672.34   29.18
   6  -4   6  670.90   28.60
   6  -4   7  254.29   16.03
   6  -4   7  271.14   16.91
   6  -4   7  285.89   16.73
   6  -4   8   15.32    4.62
   6  -4   8   10.90    4.56
   6  -4   8   10.01    4.06
   6  -4   9  193.21   14.18
   6  -4   9  221.34   15.82
   6  -4   9  195.03   14.20
   6  -4  10  201.61   14.81
   6  -4  10  226.94   16.29
   6  -4  10  210.20   15.14
   6  -3 -12  322.90   22.85
   6  -3 -11  278.20   20.67
   6  -3 -10    2.32    4.94
   6  -3  -9  295.63   20.50
   6  -3  -8  724.29   33.94
   6  -3  -7  295.70   18.20
   6  -3  -7  301.22   19.75
   6  -3  -7  272.82   17.57
   6  -3  -6  109.20   10.45
   6  -3  -6  104.00   11.37
   6  -3  -6  100.89   10.05
   6  -3  -5  708.04   31.05
   6  -3  -5  814.84   34.12
   6  -3  -5  752.02   31.53
   6  -3  -4  134.95   11.31
   6  -3  -4  126.14   11.00
   6  -3  -3   35.41    6.11
   6  -3  -3   41.25    7.19
   6  -3  -3   39.48    6.39
   6  -3  -2  493.76   23.04
   6  -3  -2  494.60   23.07
   6  -3  -1  493.48   22.55
   6  -3  -1  438.61   19.31
   6  -3  -1  453.14   19.45
   6  -3  -1  514.18   22.73
   6  -3   0   11.31    3.59
   6  -3   0    2.56    2.96
   6  -3   1    6.00    3.24
   6  -3   1    5.46    3.15
   6  -3   2  137.84   10.33
   6  -3   2  130.24    9.80
   6  -3   3   71.81    7.71
   6  -3   3   68.64    7.41
   6  -3   3   64.17    7.48
   6  -3   4  104.99    9.27
   6  -3   4  101.80    9.41
   6  -3   4  104.14    9.24
   6  -3   5    1.34    3.47
   6  -3   5    8.91    3.90
   6  -3   5    4.05    3.49
   6  -3   6   18.27    4.74
   6  -3   6   19.72    5.37
   6  -3   6   32.46    5.71
   6  -3   7  191.27   13.37
   6  -3   7  181.07   13.60
   6  -3   7  192.86   13.44
   6  -3   8   50.97    7.36
   6  -3   8   52.05    7.81
   6  -3   8   46.63    7.09
   6  -3   9    9.43    4.21
   6  -3   9    4.38    4.19
   6  -3   9   10.23    4.48
   6  -3  10  192.96   14.19
   6  -3  10  197.94   15.29
   6  -3  10  201.24   14.42
   6  -2 -13  171.49   16.66
   6  -2 -12   95.61   12.18
   6  -2 -11   54.44    9.77
   6  -2 -10   -2.13    5.59
   6  -2 -10   -2.31    5.17
   6  -2 -10    2.12    5.07
   6  -2  -9   76.03   10.18
   6  -2  -9   79.61   10.68
   6  -2  -9   58.78    9.16
   6  -2  -8  167.10   14.00
   6  -2  -8  137.29   12.78
   6  -2  -7  317.39   19.39
   6  -2  -7  352.43   21.46
   6  -2  -7  365.27   20.32
   6  -2  -6    2.49    3.43
   6  -2  -6   10.76    4.48
   6  -2  -6    1.64    3.49
   6  -2  -5  117.18   10.72
   6  -2  -5  127.19   11.07
   6  -2  -5  124.49   12.12
   6  -2  -4 1078.40   41.39
   6  -2  -4 1146.84   44.25
   6  -2  -4 1125.50   41.68
   6  -2  -3  849.72   33.59
   6  -2  -3  816.54   33.31
   6  -2  -2  151.99   11.76
   6  -2  -2  130.89    9.32
   6  -2  -2  132.50    9.29
   6  -2  -1 1034.73   37.89
   6  -2  -1 1258.60   42.44
   6  -2  -1 1026.12   37.81
   6  -2  -1 1302.67   42.74
   6  -2   0 1201.42   41.56
   6  -2   0 1248.34   41.86
   6  -2   1  462.69   20.48
   6  -2   1  445.79   20.26
   6  -2   2  364.96   17.96
   6  -2   2  379.00   18.13
   6  -2   3  786.05   30.35
   6  -2   3  786.23   29.57
   6  -2   3  719.95   29.64
   6  -2   4  423.96   20.18
   6  -2   4  391.38   19.50
   6  -2   4  425.54   20.27
   6  -2   5   12.27    4.33
   6  -2   5   14.11    4.37
   6  -2   5   17.68    4.66
   6  -2   6  284.67   16.53
   6  -2   6  276.72   16.49
   6  -2   6  284.73   16.60
   6  -2   7  350.67   19.05
   6  -2   7  344.69   19.27
   6  -2   7  344.75   18.84
   6  -2   8  110.10   10.31
   6  -2   8  105.82   10.54
   6  -2   8  120.35   10.59
   6  -2   9   35.90    6.47
   6  -2   9   40.76    7.12
   6  -2   9   47.47    6.96
   6  -2  10  127.31   11.27
   6  -2  10  142.01   11.86
   6  -1 -13   37.42    8.41
   6  -1 -12  131.33   14.04
   6  -1 -12  127.25   14.04
   6  -1 -12  124.28   13.71
   6  -1 -11  486.48   27.10
   6  -1 -11  434.04   26.58
   6  -1 -11  491.33   27.33
   6  -1 -10    9.62    5.43
   6  -1 -10   10.38    5.16
   6  -1 -10    5.33    4.66
   6  -1  -9  138.00   12.96
   6  -1  -9  147.10   13.42
   6  -1  -9  113.97   12.51
   6  -1  -8  496.65   25.68
   6  -1  -8  526.44   27.83
   6  -1  -8  495.02   25.62
   6  -1  -7  121.60   11.38
   6  -1  -7  123.99   12.41
   6  -1  -7  117.07   11.33
   6  -1  -6   69.59    8.65
   6  -1  -6   81.36   10.00
   6  -1  -6   87.23    9.52
   6  -1  -5  280.91   17.18
   6  -1  -5  297.42   18.90
   6  -1  -5  303.52   17.65
   6  -1  -4  589.83   26.97
   6  -1  -4  628.25   27.42
   6  -1  -3  143.50    9.74
   6  -1  -3  139.53   11.49
   6  -1  -3  147.94    9.73
   6  -1  -2  295.21   14.87
   6  -1  -2  305.57   17.48
   6  -1  -2  286.74   14.74
   6  -1  -2  309.14   17.36
   6  -1  -1   68.68    6.99
   6  -1  -1   67.50    6.86
   6  -1   0  797.39   30.63
   6  -1   0  820.79   30.63
   6  -1   1   15.27    3.81
   6  -1   1    7.62    3.14
   6  -1   2   14.73    4.08
   6  -1   2   14.07    4.36
   6  -1   3  114.62    9.69
   6  -1   3  105.96    9.36
   6  -1   4   79.98    8.30
   6  -1   4   90.80    8.49
   6  -1   4   79.08    8.17
   6  -1   5   11.09    3.90
   6  -1   5   12.10    4.26
   6  -1   5   11.04    4.00
   6  -1   6   12.90    4.49
   6  -1   6   14.45    4.53
   6  -1   6   16.44    4.90
   6  -1   7  124.26   10.70
   6  -1   7  113.51   10.58
   6  -1   7  102.54   10.02
   6  -1   8   79.05    8.81
   6  -1   8   81.30    9.51
   6  -1   8   75.81    8.91
   6  -1   9    0.78    3.86
   6  -1   9    5.23    4.50
   6  -1   9   -0.77    3.93
   6   0 -14   16.54    7.03
   6   0 -14    7.67    6.12
   6   0 -13   29.75    8.41
   6   0 -13   24.21    6.96
   6   0 -13   31.01    8.15
   6   0 -12   42.86    8.72
   6   0 -12   68.93   10.42
   6   0 -12   41.68    8.72
   6   0 -11  151.06   14.93
   6   0 -11  153.98   14.63
   6   0 -10    1.07    5.20
   6   0 -10    4.63    4.52
   6   0 -10    3.18    4.74
   6   0  -9   19.99    6.28
   6   0  -9   27.00    6.80
   6   0  -9   26.82    6.61
   6   0  -8  236.86   16.72
   6   0  -8  251.53   18.20
   6   0  -8  232.72   16.66
   6   0  -7   53.39    7.82
   6   0  -7   59.28    8.92
   6   0  -7   59.97    8.04
   6   0  -6    9.30    4.68
   6   0  -6   12.58    4.27
   6   0  -6   18.26    5.34
   6   0  -5  235.47   15.68
   6   0  -5  232.62   15.67
   6   0  -4  608.18   23.97
   6   0  -4  615.84   27.45
   6   0  -4  623.03   24.13
   6   0  -4  585.01   27.10
   6   0  -3  368.38   17.14
   6   0  -3  369.67   19.91
   6   0  -3  352.64   16.97
   6   0  -3  370.16   19.95
   6   0  -2   22.82    5.53
   6   0  -2   20.40    4.50
   6   0  -2   14.90    4.10
   6   0  -2   18.93    5.09
   6   0  -1  397.61   19.09
   6   0  -1  448.14   19.75
   6   0   0 1039.14   37.78
   6   0   0 1077.00   38.10
   6   0   1  376.93   18.44
   6   0   1  364.09   18.18
   6   0   2   48.86    6.42
   6   0   2   62.92    7.16
   6   0   3  704.17   28.05
   6   0   3  619.31   27.08
   6   0   4  471.90   22.17
   6   0   4  465.58   21.46
   6   0   4  454.62   21.93
   6   0   5   30.55    5.95
   6   0   5   23.67    4.98
   6   0   5   16.32    4.73
   6   0   6  196.05   13.90
   6   0   6  210.93   14.09
   6   0   6  176.01   13.29
   6   0   7  273.28   16.76
   6   0   7  298.59   17.55
   6   0   7  259.36   16.49
   6   0   8  104.48   10.19
   6   0   8  114.42   10.92
   6   0   8   93.63    9.70
   6   1 -14  228.78   19.55
   6   1 -14  219.81   18.85
   6   1 -14  249.86   19.82
   6   1 -13   -3.73    6.07
   6   1 -13    2.50    5.18
   6   1 -13   -1.24    5.15
   6   1 -12  143.13   14.50
   6   1 -12  132.43   14.22
   6   1 -12  138.16   14.43
   6   1 -11  531.80   28.75
   6   1 -11  535.04   29.32
   6   1 -11  504.24   28.22
   6   1 -10  118.91   12.59
   6   1 -10  134.23   13.62
   6   1 -10  126.65   12.73
   6   1  -9   58.96    8.88
   6   1  -9   60.31    9.52
   6   1  -9   63.48    9.07
   6   1  -8  502.93   25.97
   6   1  -8  515.52   27.46
   6   1  -8  468.36   25.08
   6   1  -7  333.56   20.03
   6   1  -7  354.97   21.75
   6   1  -7  347.62   20.38
   6   1  -6    3.41    3.91
   6   1  -6    5.93    4.14
   6   1  -5  258.77   16.74
   6   1  -5  262.95   16.73
   6   1  -4  357.29   17.00
   6   1  -4  343.49   19.35
   6   1  -4  345.34   16.83
   6   1  -4  335.64   19.16
   6   1  -3   70.74    8.65
   6   1  -3   61.69    6.93
   6   1  -3   73.13    7.24
   6   1  -3   52.37    7.48
   6   1  -2    8.59    4.25
   6   1  -2    2.97    3.33
   6   1  -2    4.15    3.07
   6   1  -2    7.00    3.56
   6   1  -1   44.20    6.50
   6   1  -1   43.01    5.96
   6   1   0   45.75    6.32
   6   1   0   33.71    5.72
   6   1   1   42.57    6.19
   6   1   1   36.80    5.87
   6   1   2   -8.11    4.72
   6   1   2   -5.41    4.18
   6   1   3   39.03    6.40
   6   1   3   24.40    5.46
   6   1   4  130.14   10.80
   6   1   4  116.41   10.37
   6   1   5   88.77    9.60
   6   1   5   91.99    8.99
   6   1   5   79.93    9.18
   6   1   6    0.75    5.25
   6   1   6    6.74    3.94
   6   1   6    1.51    4.82
   6   1   7  165.76   13.04
   6   1   7  163.92   13.07
   6   1   7  165.13   12.83
   6   2 -14   68.94   10.75
   6   2 -13   11.17    6.42
   6   2 -13   22.04    6.56
   6   2 -13   13.65    6.53
   6   2 -12   13.08    6.37
   6   2 -12   18.03    6.11
   6   2 -12   23.72    6.96
   6   2 -11  221.71   17.73
   6   2 -11  241.74   18.63
   6   2 -11  235.48   18.14
   6   2 -10   48.68    8.54
   6   2 -10   41.30    8.17
   6   2 -10   48.37    8.30
   6   2  -9   -1.00    4.47
   6   2  -9    4.45    4.85
   6   2  -9    1.98    4.21
   6   2  -8   88.33   10.32
   6   2  -8  103.50   10.79
   6   2  -8  101.89   11.55
   6   2  -7  395.98   22.36
   6   2  -7  383.16   22.00
   6   2  -6  362.25   20.36
   6   2  -6  321.00   19.32
   6   2  -5   -2.51    5.10
   6   2  -5    1.78    3.57
   6   2  -5   -0.59    3.27
   6   2  -5   -2.50    4.88
   6   2  -4  391.71   18.55
   6   2  -4  364.71   20.40
   6   2  -4  366.47   18.16
   6   2  -4  375.56   20.54
   6   2  -3  475.22   24.44
   6   2  -3  526.16   23.01
   6   2  -3  492.92   24.55
   6   2  -2  139.15   10.49
   6   2  -2  105.47   10.65
   6   2  -2  125.77   10.23
   6   2  -2  135.44   11.75
   6   2  -1   72.93    7.68
   6   2  -1   57.16    7.12
   6   2   0  262.05   15.45
   6   2   0  277.73   15.84
   6   2   1  360.54   19.00
   6   2   1  369.77   19.14
   6   2   2    8.53    4.11
   6   2   2   10.68    4.46
   6   2   3   78.67    8.60
   6   2   3   57.60    7.64
   6   2   4  289.76   17.35
   6   2   4  318.38   17.94
   6   2   5   69.16    8.51
   6   2   5   73.82    8.68
   6   2   6   -0.77    5.54
   6   2   6   -6.96    5.94
   6   3 -14  173.60   16.07
   6   3 -13   86.57   11.92
   6   3 -13   91.69   11.52
   6   3 -13   77.81   11.02
   6   3 -12   75.59   10.84
   6   3 -12   82.38   10.96
   6   3 -12   83.61   11.23
   6   3 -11  609.38   31.41
   6   3 -11  668.74   32.80
   6   3 -11  585.14   30.90
   6   3 -10  389.61   23.46
   6   3 -10  354.49   22.70
   6   3  -9    7.03    5.09
   6   3  -9    3.98    4.35
   6   3  -9    3.32    4.32
   6   3  -8  284.80   18.76
   6   3  -8  278.77   19.61
   6   3  -8  259.62   18.05
   6   3  -7  861.05   36.90
   6   3  -7  898.92   37.16
   6   3  -6  421.71   20.16
   6   3  -6  404.79   22.26
   6   3  -6  441.35   20.41
   6   3  -6  413.34   22.36
   6   3  -5    7.70    4.81
   6   3  -5   15.73    4.88
   6   3  -5   10.47    4.53
   6   3  -5   13.62    4.86
   6   3  -4  407.98   19.79
   6   3  -4  381.25   21.17
   6   3  -4  409.90   19.77
   6   3  -4  359.77   20.66
   6   3  -3  437.88   21.01
   6   3  -3  418.42   22.37
   6   3  -3  455.57   21.31
   6   3  -3  431.98   22.44
   6   3  -2  148.92   11.49
   6   3  -2  141.52   12.24
   6   3  -2  156.56   11.73
   6   3  -2  160.63   12.71
   6   3  -1   91.93    9.87
   6   3  -1   96.87    9.23
   6   3  -1  103.97    9.54
   6   3  -1  112.83   10.58
   6   3   0  272.94   16.01
   6   3   0  245.91   15.43
   6   3   1  237.99   15.25
   6   3   1  249.07   15.42
   6   3   2   -0.75    3.57
   6   3   2    0.75    3.57
   6   3   3   46.46    7.05
   6   3   3   49.51    7.21
   6   3   4  200.48   14.46
   6   3   4  252.37   15.84
   6   3   5  311.25   18.22
   6   3   5  287.78   17.73
   6   4 -13   31.91    8.28
   6   4 -13   48.54    8.78
   6   4 -13   36.77    8.18
   6   4 -12   35.24    7.71
   6   4 -12   16.53    6.34
   6   4 -12   19.91    6.88
   6   4 -11  120.66   13.32
   6   4 -11  127.11   13.31
   6   4 -11  103.45   12.39
   6   4 -10  104.77   11.63
   6   4 -10  113.42   12.17
   6   4 -10   85.09   11.20
   6   4  -9   49.29    8.20
   6   4  -9   50.83    8.36
   6   4  -9   47.56    8.53
   6   4  -8    5.81    4.43
   6   4  -8    7.68    4.78
   6   4  -7  409.35   22.60
   6   4  -7  378.79   21.93
   6   4  -6  258.44   16.99
   6   4  -6  238.42   15.13
   6   4  -6  247.76   16.76
   6   4  -6  261.63   15.71
   6   4  -5  151.86   11.92
   6   4  -5  139.91   12.52
   6   4  -5  148.97   11.80
   6   4  -5  131.23   12.19
   6   4  -4    6.01    4.59
   6   4  -4   10.93    4.44
   6   4  -4    5.82    4.08
   6   4  -4    0.85    4.09
   6   4  -3  492.56   23.30
   6   4  -3  489.35   24.56
   6   4  -3  483.62   23.23
   6   4  -3  471.48   24.20
   6   4  -2  385.72   20.55
   6   4  -2  408.15   21.83
   6   4  -2  417.69   21.13
   6   4  -2  389.35   21.51
   6   4  -1   18.68    5.13
   6   4  -1   18.80    5.32
   6   4  -1   16.56    5.42
   6   4  -1   21.96    5.49
   6   4   0  377.07   20.07
   6   4   0  339.85   19.31
   6   4   1  429.11   21.51
   6   4   1  380.69   20.77
   6   4   2   75.18    8.61
   6   4   2   73.67    8.75
   6   4   3    4.75    4.24
   6   4   3    7.14    4.45
   6   4   4  469.59   23.14
   6   4   4  405.60   21.95
   6   5 -12   11.65    5.92
   6   5 -12   20.90    6.62
   6   5 -11  209.85   17.41
   6   5 -11  243.05   18.29
   6   5 -11  235.28   18.12
   6   5 -10  422.91   24.93
   6   5 -10  471.76   26.32
   6   5 -10  427.37   24.90
   6   5  -9   96.14   10.85
   6   5  -9   77.15   10.34
   6   5  -8   51.83    8.32
   6   5  -8   50.42    8.20
   6   5  -7  484.37   25.76
   6   5  -7  512.43   24.38
   6   5  -7  522.02   26.25
   6   5  -7  518.36   24.39
   6   5  -6   31.05    6.79
   6   5  -6   58.49    7.73
   6   5  -6   56.19    7.62
   6   5  -6   51.66    7.82
   6   5  -5   -3.57    4.08
   6   5  -5   -1.55    3.86
   6   5  -5    2.33    3.63
   6   5  -5   -1.77    4.58
   6   5  -4   86.74    9.76
   6   5  -4  101.97   10.05
   6   5  -4  103.51   10.14
   6   5  -4   95.09   10.16
   6   5  -3  131.25   11.54
   6   5  -3   98.99   10.49
   6   5  -3  127.17   11.34
   6   5  -3  106.21   10.67
   6   5  -2   68.34    8.58
   6   5  -2   81.39    9.24
   6   5  -2   72.44    8.85
   6   5  -2   49.10    7.59
   6   5  -1   -4.33    5.61
   6   5  -1    7.30    4.19
   6   5  -1    4.45    3.90
   6   5  -1    4.87    4.41
   6   5  -1    4.31    4.45
   6   5   0   24.39    5.96
   6   5   0    8.18    5.00
   6   5   0    9.28    4.42
   6   5   0   18.79    6.14
   6   5   0   16.46    5.36
   6   5   1  125.61   11.83
   6   5   1  139.18   12.22
   6   5   1  136.75   11.91
   6   5   2  122.39   11.31
   6   5   2  133.54   12.00
   6   5   2  110.82   10.78
   6   6 -12    5.79    5.30
   6   6 -12    4.62    5.40
   6   6 -11   12.18    5.72
   6   6 -11    8.81    5.27
   6   6 -10  161.27   14.60
   6   6 -10  163.24   14.50
   6   6  -9  216.54   16.65
   6   6  -9  205.39   16.13
   6   6  -8   22.67    6.47
   6   6  -8   14.97    5.64
   6   6  -8   24.91    6.45
   6   6  -8   13.69    5.34
   6   6  -7   68.08    9.32
   6   6  -7   85.86    9.76
   6   6  -7   96.64   10.38
   6   6  -7   70.31    9.51
   6   6  -6  286.22   18.87
   6   6  -6  323.24   18.96
   6   6  -6  292.46   19.04
   6   6  -6  313.07   18.88
   6   6  -5  144.03   12.84
   6   6  -5  152.25   12.75
   6   6  -5  127.97   12.23
   6   6  -4    0.89    4.76
   6   6  -4    3.38    4.21
   6   6  -4    0.85    4.44
   6   6  -4    1.77    4.33
   6   6  -3  433.72   23.08
   6   6  -3  449.82   23.35
   6   6  -2  292.64   18.38
   6   6  -2  280.62   18.05
   6   6  -1   52.64    7.94
   6   6  -1   50.65    7.81
   6   6  -1   54.51    7.99
   6   6   0   43.31    7.22
   6   6   0   51.94    8.01
   6   6   0   39.11    7.04
   6   6   1  343.30   20.12
   6   7 -11   46.24    7.92
   6   7 -11   48.16    8.30
   6   7 -10  130.50   13.10
   6   7 -10  124.46   12.74
   6   7  -9   93.95   10.75
   6   7  -9   64.82    9.19
   6   7  -8   25.20    6.56
   6   7  -8   35.10    7.29
   6   7  -7  102.06   10.86
   6   7  -7   83.03   10.27
   6   7  -6   24.42    7.16
   6   7  -6   33.45    7.47
   6   7  -5   68.79    9.72
   6   7  -5   65.19    9.52
   6   7  -4   12.69    5.40
   6   7  -4   17.22    6.01
   6   7  -3   75.29    9.61
   6   7  -3   84.38   10.09
   6   7  -2   27.23    6.36
   6   7  -2   23.60    6.17
   6   7  -1   36.28    7.17
   6   8  -9  110.14   11.82
   6   8  -9  138.07   13.03
   6   8  -8   80.15   10.59
   6   8  -8   81.15   10.51
   7 -12   1   83.93   11.97
   7 -12   2  165.89   15.29
   7 -12   2  135.12   15.11
   7 -12   3    1.21    5.28
   7 -12   3    7.06    5.38
   7 -12   4   24.64    7.35
   7 -12   4   14.50    6.99
   7 -12   5  245.88   19.47
   7 -11  -2  213.10   17.94
   7 -11  -1   13.71    6.51
   7 -11   0  117.55   13.23
   7 -11   1  301.18   21.18
   7 -11   2   93.26   12.32
   7 -11   2   96.57   11.49
   7 -11   3    5.78    5.18
   7 -11   3   14.44    5.64
   7 -11   4  100.27   11.87
   7 -11   5  146.95   14.23
   7 -11   6    9.04    4.81
   7 -10  -4   53.92    9.23
   7 -10  -4   56.15    8.98
   7 -10  -3    6.57    6.04
   7 -10  -3    4.94    5.37
   7 -10  -2  144.60   14.33
   7 -10  -1  195.40   16.56
   7 -10   0   58.25    9.89
   7 -10   2  281.08   19.41
   7 -10   3  164.36   14.57
   7 -10   4   44.13    8.29
   7 -10   5  383.62   23.29
   7 -10   6  219.70   17.29
   7 -10   7   38.92    7.46
   7  -9  -6  358.78   22.43
   7  -9  -5  345.31   21.46
   7  -9  -4   10.54    5.29
   7  -9  -4    4.15    4.96
   7  -9  -3  249.94   17.39
   7  -9   3   69.75    9.45
   7  -9   4   48.28    7.86
   7  -9   5  206.53   16.34
   7  -9   6  148.92   13.79
   7  -9   7   89.65   10.87
   7  -9   8   51.59    8.77
   7  -8  -7   -3.10    5.71
   7  -8  -6   43.76    8.20
   7  -8  -5   91.52   10.53
   7  -8  -4  234.73   16.48
   7  -8   3  313.49   19.14
   7  -8   4   31.65    6.09
   7  -8   4   21.06    5.90
   7  -8   4   28.22    5.80
   7  -8   5   89.55    9.43
   7  -8   5   81.14    9.87
   7  -8   5  111.63   10.37
   7  -8   6  296.13   17.79
   7  -8   6  264.51   18.40
   7  -8   6  278.95   17.52
   7  -8   7  234.55   15.91
   7  -8   7  215.46   16.62
   7  -8   7  222.88   15.72
   7  -8   8  104.71   10.79
   7  -8   8   89.93   10.91
   7  -8   8  105.54   10.90
   7  -7  -8   40.09    8.10
   7  -7  -7   -1.97    5.09
   7  -7  -6  167.61   14.15
   7  -7  -5  211.73   15.72
   7  -7  -4  124.33   11.79
   7  -7   3   42.45    6.35
   7  -7   3   48.20    6.52
   7  -7   4   75.53    8.38
   7  -7   4   68.83    8.88
   7  -7   4   74.54    8.30
   7  -7   5   14.57    4.75
   7  -7   5   12.30    4.87
   7  -7   5   16.97    4.84
   7  -7   6  115.25   10.80
   7  -7   6  113.76   11.18
   7  -7   6  105.43   10.33
   7  -7   7  117.21   11.19
   7  -7   7  122.52   12.06
   7  -7   7  115.39   11.16
   7  -7   8    9.65    4.38
   7  -7   8   16.54    5.78
   7  -7   8   10.60    4.96
   7  -6  -9  116.51   12.30
   7  -6  -9  124.71   13.46
   7  -6  -8   83.77   10.35
   7  -6  -8   87.61   11.22
   7  -6  -7   25.36    6.64
   7  -6  -6   -2.67    4.77
   7  -6  -5   89.50    9.94
   7  -6   2  105.70    9.34
   7  -6   2  123.04    9.94
   7  -6   3  615.71   26.62
   7  -6   3  629.61   26.93
   7  -6   4  120.06   10.41
   7  -6   4   97.02   10.13
   7  -6   4  124.27   10.67
   7  -6   5    6.09    3.79
   7  -6   5    7.48    4.44
   7  -6   5    6.88    3.95
   7  -6   6  202.71   14.55
   7  -6   6  211.29   15.37
   7  -6   6  238.19   15.51
   7  -6   7   69.99    8.65
   7  -6   7   59.79    8.81
   7  -6   7   77.04    9.03
   7  -6   8   37.22    6.76
   7  -6   8   31.98    7.10
   7  -6   8   26.10    5.88
   7  -5 -10   -2.48    4.83
   7  -5  -9  216.77   17.44
   7  -5  -9  170.72   14.89
   7  -5  -8  429.06   25.71
   7  -5  -8  465.85   24.55
   7  -5  -7   54.83    8.07
   7  -5  -7   50.65    8.79
   7  -5  -6   61.93    8.66
   7  -5  -6   68.88    9.52
   7  -5  -5  806.36   34.52
   7  -5  -5  686.63   30.95
   7  -5   1   27.49    5.04
   7  -5   1   25.75    4.84
   7  -5   2  148.01   11.01
   7  -5   2  138.34   10.80
   7  -5   3  587.95   25.59
   7  -5   3  582.81   25.58
   7  -5   4   39.01    6.30
   7  -5   4   51.56    7.08
   7  -5   5   15.15    4.59
   7  -5   5   26.96    5.76
   7  -5   5   22.09    5.34
   7  -5   6  107.65   10.50
   7  -5   6  104.40   10.69
   7  -5   6  117.80   10.75
   7  -5   7  155.82   12.78
   7  -5   7  147.24   12.96
   7  -5   7  177.41   13.73
   7  -5   8   35.86    6.63
   7  -5   8   31.81    6.77
   7  -5   8   42.07    7.27
   7  -4 -10    2.50    4.56
   7  -4  -9  103.22   12.54
   7  -4  -8   63.28   10.25
   7  -4  -7   54.36    9.11
   7  -4  -6   11.82    5.35
   7  -4  -5  170.26   14.58
   7  -4  -4  108.44   11.67
   7  -4  -3  138.14   12.97
   7  -4  -2   14.74    5.12
   7  -4  -2    2.44    3.73
   7  -4  -1  487.70   23.95
   7  -4  -1  467.20   23.72
   7  -4   0   88.19    8.26
   7  -4   0   90.77    8.29
   7  -4   0   93.71    9.94
   7  -4   1  302.21   15.89
   7  -4   1  263.91   15.19
   7  -4   2  215.31   13.84
   7  -4   2  198.96   13.47
   7  -4   3  345.59   18.29
   7  -4   3  342.93   18.31
   7  -4   4  186.49   13.14
   7  -4   4  176.41   12.78
   7  -4   5   12.89    4.58
   7  -4   5   20.53    5.00
   7  -4   5   14.41    4.58
   7  -4   6  282.62   17.65
   7  -4   6  315.29   18.53
   7  -4   6  332.61   18.64
   7  -4   7  323.53   19.06
   7  -4   7  316.16   19.03
   7  -4   7  312.33   18.81
   7  -4   8   33.81    6.44
   7  -4   8   37.34    7.14
   7  -4   8   20.30    5.59
   7  -3 -11  214.60   18.57
   7  -3 -10   39.04    8.31
   7  -3  -9  174.76   16.61
   7  -3  -8  478.64   27.45
   7  -3  -7  428.16   25.39
   7  -3  -6   44.02    7.53
   7  -3  -6   27.62    7.29
   7  -3  -6   28.76    6.20
   7  -3  -5  330.40   20.15
   7  -3  -5  386.40   22.99
   7  -3  -5  342.68   20.33
   7  -3  -4  784.77   34.50
   7  -3  -4  864.32   37.14
   7  -3  -4  806.52   34.57
   7  -3  -3  156.29   13.19
   7  -3  -3  163.88   14.23
   7  -3  -3  153.03   13.00
   7  -3  -2   81.66    9.46
   7  -3  -2   85.45    9.76
   7  -3  -1  273.80   17.47
   7  -3  -1  258.99   17.10
   7  -3   0  155.95   11.06
   7  -3   0  154.20   11.03
   7  -3   1   36.44    5.71
   7  -3   1   39.50    5.99
   7  -3   2    2.69    3.59
   7  -3   2    6.02    3.52
   7  -3   3   36.56    6.02
   7  -3   3   35.02    5.96
   7  -3   4   52.11    7.06
   7  -3   4   57.04    7.42
   7  -3   5   19.08    4.97
   7  -3   5   21.29    5.38
   7  -3   6    3.96    3.46
   7  -3   6    4.72    4.13
   7  -3   6    7.88    4.00
   7  -3   7   91.53    9.83
   7  -3   7  105.04   10.80
   7  -3   7   96.91   10.02
   7  -3   8   80.73   10.11
   7  -2 -11   39.27    8.91
   7  -2 -10   16.51    6.57
   7  -2  -9   29.44    6.92
   7  -2  -9   17.35    6.07
   7  -2  -9   16.26    5.72
   7  -2  -8  136.55   13.00
   7  -2  -8  125.08   13.66
   7  -2  -8  111.73   11.84
   7  -2  -7  149.16   13.43
   7  -2  -7  187.32   16.16
   7  -2  -7  153.74   13.56
   7  -2  -6   41.88    7.47
   7  -2  -6   39.25    8.21
   7  -2  -6   55.65    8.42
   7  -2  -5   20.04    5.85
   7  -2  -5   22.85    6.30
   7  -2  -5   18.09    5.47
   7  -2  -4  418.39   22.77
   7  -2  -4  449.06   25.17
   7  -2  -4  383.95   22.16
   7  -2  -3  565.78   27.31
   7  -2  -3  571.98   27.45
   7  -2  -2   67.32    8.83
   7  -2  -2   43.76    7.49
   7  -2  -1  165.18   11.79
   7  -2  -1  228.65   15.36
   7  -2  -1  190.29   12.31
   7  -2  -1  206.60   14.74
   7  -2   0  605.24   25.40
   7  -2   0  579.76   25.14
   7  -2   1  253.06   14.92
   7  -2   1  216.79   14.16
   7  -2   2    9.66    4.32
   7  -2   2   13.06    4.66
   7  -2   3  321.50   17.94
   7  -2   3  318.29   17.92
   7  -2   4  305.44   17.38
   7  -2   4  282.95   16.84
   7  -2   5   20.05    5.41
   7  -2   5   29.22    5.90
   7  -2   6   89.11    9.42
   7  -2   6   95.19    9.74
   7  -2   7  209.25   14.76
   7  -2   7  202.68   14.73
   7  -2   7  194.79   14.27
   7  -1 -12   80.31   11.46
   7  -1 -12   94.07   12.34
   7  -1 -11  211.66   17.64
   7  -1 -11  185.92   17.18
   7  -1 -11  156.81   15.63
   7  -1 -10  238.77   18.55
   7  -1 -10  223.57   18.70
   7  -1 -10  243.20   18.43
   7  -1  -9   24.08    6.55
   7  -1  -9   40.46    8.59
   7  -1  -9   29.38    7.01
   7  -1  -8  390.64   23.00
   7  -1  -8  386.81   24.74
   7  -1  -8  357.87   22.07
   7  -1  -7  421.41   23.87
   7  -1  -7  403.58   25.09
   7  -1  -7  448.49   24.47
   7  -1  -6   50.87    8.31
   7  -1  -6   56.14    9.48
   7  -1  -6   63.73    8.74
   7  -1  -5   85.99   10.00
   7  -1  -5   85.46   10.02
   7  -1  -5   92.58   11.32
   7  -1  -4  457.66   24.36
   7  -1  -4  468.93   24.40
   7  -1  -3  394.46   22.38
   7  -1  -3  429.20   22.95
   7  -1  -2   19.44    5.47
   7  -1  -2   14.14    4.71
   7  -1  -2   17.84    4.48
   7  -1  -2   22.86    5.84
   7  -1  -1  115.84    9.70
   7  -1  -1  100.18   10.75
   7  -1  -1  101.12    9.20
   7  -1  -1   96.99   10.66
   7  -1   0  361.70   18.45
   7  -1   0  324.17   17.76
   7  -1   1  146.30   11.81
   7  -1   1  182.58   12.61
   7  -1   2   13.60    4.90
   7  -1   2   13.58    4.90
   7  -1   3  184.14   13.21
   7  -1   3  180.11   13.13
   7  -1   4  103.08   10.37
   7  -1   4  108.99   10.56
   7  -1   5  182.43   13.82
   7  -1   5  178.97   13.69
   7  -1   6    1.61    4.45
   7  -1   6   -0.81    4.72
   7   0 -12   17.70    6.89
   7   0 -12   27.75    7.81
   7   0 -11   94.38   12.25
   7   0 -11   85.21   12.01
   7   0 -11   73.56   10.95
   7   0 -10  172.76   15.80
   7   0 -10  165.60   16.14
   7   0 -10  159.21   14.99
   7   0  -9   16.46    6.26
   7   0  -9   12.64    6.31
   7   0  -9   20.69    6.48
   7   0  -8   46.09    8.24
   7   0  -8   69.56   10.21
   7   0  -8   51.91    8.54
   7   0  -7  116.09   11.96
   7   0  -7  132.29   13.77
   7   0  -7  123.97   12.29
   7   0  -6  235.98   17.04
   7   0  -6  257.64   19.25
   7   0  -6  236.88   16.97
   7   0  -5   31.90    7.12
   7   0  -5   19.58    5.72
   7   0  -4  123.83   11.86
   7   0  -4   95.00   10.79
   7   0  -3  231.10   13.85
   7   0  -3  243.79   16.86
   7   0  -3  221.58   13.81
   7   0  -3  255.96   17.30
   7   0  -2  111.00   11.40
   7   0  -2  103.34    9.20
   7   0  -2  107.29    9.42
   7   0  -2  102.37   10.79
   7   0  -1    3.63    4.33
   7   0  -1    3.39    3.44
   7   0  -1    0.68    3.63
   7   0  -1   -0.90    3.52
   7   0   0  414.34   20.71
   7   0   0  415.40   20.86
   7   0   1  308.32   17.11
   7   0   1  261.33   16.13
   7   0   2   14.93    5.38
   7   0   2   27.63    5.86
   7   0   3  330.88   18.78
   7   0   3  333.71   18.77
   7   0   4  301.95   18.01
   7   0   4  300.18   18.08
   7   0   5  144.17   12.19
   7   0   5  144.88   12.11
   7   1 -12   15.14    6.64
   7   1 -12    8.81    5.64
   7   1 -11  311.51   22.18
   7   1 -11  371.32   24.69
   7   1 -11  368.79   23.67
   7   1 -10  325.56   21.73
   7   1 -10  313.98   22.48
   7   1 -10  303.04   21.22
   7   1  -9    2.20    4.42
   7   1  -9   13.84    6.02
   7   1  -9    3.27    4.87
   7   1  -8  154.94   14.28
   7   1  -8  159.73   14.45
   7   1  -8  139.99   14.51
   7   1  -7  282.28   19.08
   7   1  -7  276.18   20.54
   7   1  -7  246.38   18.01
   7   1  -6  352.40   21.10
   7   1  -6  328.28   20.56
   7   1  -5   37.15    7.34
   7   1  -5   45.47    7.76
   7   1  -4  152.27   13.59
   7   1  -4  166.36   13.82
   7   1  -3  113.96    9.75
   7   1  -3  115.57   11.41
   7   1  -3   99.81    9.25
   7   1  -3   92.86   10.58
   7   1  -2   32.25    6.58
   7   1  -2   29.26    5.52
   7   1  -2   13.23    4.45
   7   1  -2   30.26    6.30
   7   1  -1   27.78    6.50
   7   1  -1   30.89    5.96
   7   1  -1   25.14    5.53
   7   1  -1   34.07    7.06
   7   1   0   65.77    8.04
   7   1   0   82.05    8.79
   7   1   1  151.04   12.18
   7   1   1  147.34   12.07
   7   1   2    6.23    4.68
   7   1   2    2.34    4.75
   7   1   3    2.39    5.55
   7   1   3    0.80    5.50
   7   1   4   41.51    7.08
   7   1   4   50.52    7.72
   7   2 -11  151.90   15.31
   7   2 -11  151.21   15.02
   7   2 -10   67.77    9.94
   7   2 -10   66.38   10.79
   7   2 -10   66.15    9.81
   7   2  -9   48.33    8.48
   7   2  -9   56.23    9.54
   7   2  -9   48.93    8.60
   7   2  -8    1.06    4.15
   7   2  -8   -1.05    4.82
   7   2  -8    2.47    4.34
   7   2  -7   63.83    9.38
   7   2  -7   76.45    9.81
   7   2  -7   60.16    9.82
   7   2  -6  319.17   20.60
   7   2  -6  332.64   20.65
   7   2  -5   23.23    6.35
   7   2  -5   14.44    5.73
   7   2  -4    1.90    3.82
   7   2  -4   -2.13    4.59
   7   2  -4    2.13    4.15
   7   2  -3  232.25   14.67
   7   2  -3  230.96   16.60
   7   2  -3  225.03   14.50
   7   2  -3  211.87   15.90
   7   2  -2  245.66   15.23
   7   2  -2  232.20   16.57
   7   2  -2  217.60   14.54
   7   2  -2  200.19   15.83
   7   2  -1   14.15    5.39
   7   2  -1   18.98    5.32
   7   2  -1   26.60    5.91
   7   2  -1   16.89    5.59
   7   2   0  125.20   11.07
   7   2   0  132.23   11.43
   7   2   1  200.39   14.12
   7   2   1  140.74   12.04
   7   2   2  151.56   12.43
   7   2   2  131.30   11.76
   7   2   3    0.82    3.77
   7   2   3   -0.82    4.10
   7   3 -11  184.61   16.54
   7   3 -11  165.92   15.96
   7   3 -11  169.19   15.86
   7   3 -10  246.06   18.65
   7   3 -10  265.57   20.33
   7   3 -10  226.05   18.06
   7   3  -9   99.25   11.79
   7   3  -9   89.51   10.92
   7   3  -9   79.86   11.42
   7   3  -8   51.34    9.16
   7   3  -8   55.15    8.96
   7   3  -8   55.96    9.89
   7   3  -7  298.46   19.90
   7   3  -7  269.98   19.23
   7   3  -6  189.92   15.29
   7   3  -6  169.48   14.61
   7   3  -5   -2.95    4.89
   7   3  -5    0.75    3.68
   7   3  -5   -2.26    3.60
   7   3  -5   -3.91    5.31
   7   3  -4  137.00   11.69
   7   3  -4  130.50   12.99
   7   3  -4  134.39   11.59
   7   3  -4  135.69   12.91
   7   3  -3  223.80   15.05
   7   3  -3  210.14   16.21
   7   3  -3  208.97   14.62
   7   3  -3  209.92   15.89
   7   3  -2  147.23   12.64
   7   3  -2  174.14   14.43
   7   3  -2  177.38   13.47
   7   3  -2  152.36   13.53
   7   3  -1    5.77    5.14
   7   3  -1   11.26    4.58
   7   3  -1   16.92    5.28
   7   3  -1    5.74    4.67
   7   3   0   75.24    9.83
   7   3   0   80.87    9.44
   7   3   0   82.55    9.27
   7   3   0   78.70   10.05
   7   3   1   98.00   10.13
   7   3   1   93.92    9.94
   7   3   2   63.12    8.48
   7   3   2   66.54    8.76
   7   4 -10  140.39   13.87
   7   4 -10  118.82   12.94
   7   4 -10  127.50   13.86
   7   4  -9   76.38   10.29
   7   4  -9   77.85   10.69
   7   4  -9   51.01    9.81
   7   4  -8   26.92    7.09
   7   4  -8   27.76    6.71
   7   4  -7    1.05    5.12
   7   4  -7    4.16    4.54
   7   4  -6  250.16   17.85
   7   4  -6  226.15   17.15
   7   4  -5   60.77    9.25
   7   4  -5   55.24    7.88
   7   4  -5   56.84    8.19
   7   4  -5   58.49    8.84
   7   4  -4   17.67    5.85
   7   4  -4   19.04    5.45
   7   4  -4   25.63    6.28
   7   4  -4   21.50    5.91
   7   4  -3  239.86   16.32
   7   4  -3  256.21   17.68
   7   4  -3  253.84   16.57
   7   4  -3  219.95   16.64
   7   4  -2  412.11   22.22
   7   4  -2  352.96   22.20
   7   4  -2  423.20   22.47
   7   4  -2  420.86   23.43
   7   4  -1   57.44    9.10
   7   4  -1   73.52    9.17
   7   4  -1   81.21    9.68
   7   4  -1   61.04    9.05
   7   4   0    7.80    4.95
   7   4   0   11.23    5.28
   7   4   0   13.83    5.21
   7   4   0   19.40    5.61
   7   5  -9  198.68   16.54
   7   5  -9  214.56   17.97
   7   5  -9  184.60   16.18
   7   5  -8    1.08    4.48
   7   5  -8   -1.07    4.91
   7   5  -7  109.00   12.00
   7   5  -7  109.04   11.94
   7   5  -6  359.36   22.15
   7   5  -6  368.17   20.81
   7   5  -6  341.56   21.55
   7   5  -6  349.30   20.41
   7   5  -5    1.01    5.29
   7   5  -5    6.97    4.96
   7   5  -5    1.74    4.96
   7   5  -5   -1.00    5.08
   7   5  -4    4.96    4.22
   7   5  -4   11.44    5.44
   7   5  -4    3.52    4.38
   7   5  -4    4.94    4.32
   7   5  -3  201.81   15.19
   7   5  -3  175.06   14.99
   7   5  -3  204.43   15.06
   7   5  -3  187.27   15.29
   7   5  -2   70.46    9.51
   7   5  -2   56.49    8.62
   7   5  -1   71.02    9.68
   8  -8   5   19.54    5.53
   8  -8   5   20.50    5.68
   8  -7   4   18.46    5.03
   8  -7   4   15.32    5.00
   8  -7   5    4.21    3.94
   8  -7   5    1.69    3.69
   8  -6   3  258.30   16.36
   8  -6   3  247.74   15.93
   8  -6   4  249.39   16.01
   8  -6   4  210.22   15.20
   8  -6   5   30.07    6.18
   8  -6   5   16.77    4.88
   8  -5  -8  374.87   24.46
   8  -5  -8  359.57   21.94
   8  -5   2   75.94    8.33
   8  -5   2   60.37    7.66
   8  -5   3  175.89   13.18
   8  -5   3  176.13   13.33
   8  -5   4  100.29   10.01
   8  -5   4  105.63   10.32
   8  -5   5    0.83    3.55
   8  -5   5    1.67    3.72
   8  -4  -8   69.05   10.63
   8  -4  -7   89.59   11.68
   8  -4  -6   60.26    9.83
   8  -4  -5    1.16    4.81
   8  -4   0  158.76   14.37
   8  -4   0  189.14   15.40
   8  -4   1  185.29   13.18
   8  -4   1  188.04   15.36
   8  -4   1  196.62   13.30
   8  -4   1  179.97   15.15
   8  -4   2    2.23    3.55
   8  -4   2    0.74    3.14
   8  -4   3  110.73   10.29
   8  -4   3   88.74    9.45
   8  -4   4  301.85   18.46
   8  -4   4  325.68   18.89
   8  -3  -8  290.61   21.75
   8  -3  -7  314.78   22.58
   8  -3  -6   11.10    5.65
   8  -3  -5   49.03    9.13
   8  -3  -4  264.17   19.00
   8  -3  -4  332.00   22.11
   8  -3  -4  314.34   20.37
   8  -3  -3  237.70   17.35
   8  -3  -3  222.59   18.13
   8  -3  -3  213.99   16.65
   8  -3  -2    4.93    4.20
   8  -3  -2   11.78    5.07
   8  -3  -1  150.58   13.58
   8  -3  -1  173.44   14.37
   8  -3   0  120.21   12.68
   8  -3   0  122.61   12.51
   8  -3   1   53.91    7.56
   8  -3   1   79.94    8.75
   8  -3   2   -5.30    5.01
   8  -3   2    3.78    4.48
   8  -3   3   25.95    6.03
   8  -3   3   20.39    5.61
   8  -3   4  143.26   12.06
   8  -3   4  130.70   11.63
   8  -2  -8   72.37   11.34
   8  -2  -7  103.66   11.78
   8  -2  -7   96.02   12.29
   8  -2  -7   90.76   11.03
   8  -2  -6   39.76    7.86
   8  -2  -6   49.29    9.38
   8  -2  -6   42.58    7.86
   8  -2  -5   35.37    7.55
   8  -2  -5   46.98    9.02
   8  -2  -5   48.53    8.33
   8  -2  -4  131.63   13.44
   8  -2  -4  107.54   12.14
   8  -2  -4  138.20   15.08
   8  -2  -3  199.68   16.00
   8  -2  -3  209.79   16.44
   8  -2  -2  107.65   11.72
   8  -2  -2  117.03   12.06
   8  -2  -1    4.04    4.30
   8  -2  -1    3.02    3.93
   8  -2   0  266.47   16.24
   8  -2   0  242.11   17.96
   8  -2   0  251.15   15.85
   8  -2   0  275.57   18.86
   8  -2   1  239.96   15.64
   8  -2   1  220.83   15.22
   8  -2   2   50.76    7.68
   8  -2   2   42.11    7.21
   8  -2   3   47.57    7.49
   8  -2   3   64.41    8.34
   8  -1  -9   22.55    6.79
   8  -1  -9   29.45    7.03
   8  -1  -8   21.71    6.85
   8  -1  -8   49.87    9.26
   8  -1  -8   46.39    8.54
   8  -1  -7  164.75   15.27
   8  -1  -7  183.17   15.90
   8  -1  -7  175.21   16.92
   8  -1  -6   86.59   11.00
   8  -1  -6   90.50   11.89
   8  -1  -6   98.73   11.50
   8  -1  -5    4.21    4.71
   8  -1  -5   -1.05    5.11
   8  -1  -5    1.28    4.68
   8  -1  -4  246.29   18.44
   8  -1  -4  295.56   19.89
   8  -1  -3   91.25   11.11
   8  -1  -3   81.68   10.52
   8  -1  -2   48.10    8.32
   8  -1  -2   41.75    7.79
   8  -1  -1   38.14    7.49
   8  -1  -1   20.55    5.64
   8  -1  -1   18.37    5.69
   8  -1  -1   41.04    7.66
   8  -1   0  167.32   13.17
   8  -1   0  210.83   16.55
   8  -1   0  178.87   13.57
   8  -1   0  207.60   16.53
   8  -1   1  184.15   13.69
   8  -1   1  173.94   13.30
   8  -1   2    3.23    4.73
   8  -1   2    0.81    4.79
   8   0  -9   48.32    9.00
   8   0  -8    9.21    5.73
   8   0  -8   -1.36    5.61
   8   0  -8   -1.14    4.46
   8   0  -7   96.63   11.95
   8   0  -7  121.46   13.77
   8   0  -7  102.43   12.14
   8   0  -6  192.34   16.32
   8   0  -6  205.54   18.35
   8   0  -6  199.35   16.36
   8   0  -5   57.53    9.41
   8   0  -5   51.88    9.06
   8   0  -5   50.26    9.50
   8   0  -4    2.10    5.70
   8   0  -4    7.31    5.76
   8   0  -3  188.23   15.75
   8   0  -3  203.00   16.24
   8   0  -2  211.64   14.61
   8   0  -2  231.67   17.65
   8   0  -2  260.92   15.93
   8   0  -2  244.92   18.06
   8   0  -1   60.63    9.43
   8   0  -1   57.04    7.98
   8   0  -1   62.40    8.05
   8   0  -1   62.47    9.29
   8   0   0  126.23   13.75
   8   0   0  125.36   11.42
   8   0   0  115.85   10.85
   8   0   0  131.92   13.73
   8   0   1  291.70   17.79
   8   0   1  262.55   17.04
   8   1  -8    4.64    4.52
   8   1  -8    1.15    4.62
   8   1  -7  139.15   14.04
   8   1  -7  130.02   13.61
   8   1  -7  157.17   16.26
   8   1  -6  179.90   15.60
   8   1  -6  180.77   15.65
   8   1  -6  178.70   17.55
   8   1  -5   47.36    9.19
   8   1  -5   48.17    9.02
   8   1  -4   81.67   11.16
   8   1  -4  111.98   12.21
   8   1  -3  104.22   11.85
   8   1  -3   84.99   10.89
   8   1  -2  170.11   12.98
   8   1  -2  171.44   15.09
   8   1  -2  151.40   12.41
   8   1  -2  183.10   15.36
   8   1  -1    1.05    6.26
   8   1  -1    4.04    4.39
   8   1  -1    4.85    4.25
   8   1  -1   -3.15    5.70
   8   1   0   38.87    6.84
   8   1   0   43.01    7.17
   8   2  -6  127.17   13.13
   8   2  -6  127.34   13.30
   8   2  -5  228.05   17.49
   8   2  -5  199.78   16.55
   8   2  -4   -1.07    4.68
   8   2  -4   -2.13    4.77
   8   2  -3   15.95    5.99
   8   2  -3   28.63    6.06
   8   2  -3   32.71    6.61
   8   2  -3   13.78    5.88
   8   2  -2  502.78   25.01
   8   2  -2  502.81   24.95
   0   0   0    0.00    0.00


TITL mm-14 in P1
REM P1 (#1 in standard setting)
CELL 0.71073   6.263843  10.772638  12.388038 111.3170  96.5667 105.5236
ZERR    8.00   0.000297   0.000394   0.000395   0.0032   0.0032   0.0037
LATT -1
SFAC C H N O S Cd
UNIT 8.00 8.00 8.00 8.00 8.00 8.00
TREF
HKLF 4
END
_computing_structure_solution     'SHELXT 2014/5 (Sheldrick, 2014)'
;
_shelx_hkl_checksum              90423
_olex2_submission_special_instructions 'No special instructions were received'
loop_
_space_group_symop_operation_xyz
'x, y, z'
'-x, -y, -z'
loop_
_atom_site_label
_atom_site_type_symbol
_atom_site_fract_x
_atom_site_fract_y
_atom_site_fract_z
_atom_site_U_iso_or_equiv
_atom_site_adp_type
_atom_site_occupancy
_atom_site_site_symmetry_order
_atom_site_calc_flag
_atom_site_refinement_flags_posn
_atom_site_refinement_flags_adp
_atom_site_refinement_flags_occupancy
_atom_site_disorder_assembly
_atom_site_disorder_group
Cd1 Cd 0.58006(3) 1.03331(2) 0.86666(2) 0.01785(7) Uani 1 1 d . . . . .
S1 S 0.59352(10) 0.51427(6) 0.82555(5) 0.02134(13) Uani 1 1 d . . . . .
O4 O 0.3286(3) 0.15856(17) 0.85526(15) 0.0244(4) Uani 1 1 d . . . . .
O2 O 0.4038(3) 0.85187(17) 0.92155(15) 0.0245(4) Uani 1 1 d . . . . .
O5 O 0.9537(3) 1.1463(2) 0.94379(18) 0.0326(4) Uani 1 1 d . . . . .
H5A H 0.999806 1.149188 1.016991 0.049 Uiso 1 1 d GR . . . .
O1 O 0.7084(3) 0.81433(19) 0.85795(17) 0.0314(4) Uani 1 1 d . . . . .
O3 O 0.6205(3) 0.2336(2) 0.7836(2) 0.0372(5) Uani 1 1 d . . . . .
N1 N 0.4503(3) 0.8894(2) 0.67196(17) 0.0189(4) Uani 1 1 d . . . . .
N2 N 0.4175(3) 0.7906(2) 0.47738(18) 0.0246(4) Uani 1 1 d . . . . .
H2 H 0.453568 0.772247 0.409699 0.029 Uiso 1 1 calc R . . . .
C15 C 0.4515(4) 0.2483(2) 0.8242(2) 0.0204(5) Uani 1 1 d . . . . .
C14 C 0.3965(4) 0.3794(2) 0.8413(2) 0.0188(5) Uani 1 1 d . . . . .
C12 C 0.2406(4) 0.5587(2) 0.8959(2) 0.0210(5) Uani 1 1 d . . . . .
H12 H 0.134473 0.601861 0.921436 0.025 Uiso 1 1 calc R . . . .
C2 C 0.2307(4) 0.7895(2) 0.6183(2) 0.0202(5) Uani 1 1 d . . . . .
C3 C 0.0479(4) 0.7528(3) 0.6676(2) 0.0272(5) Uani 1 1 d . . . . .
H3 H 0.060208 0.793370 0.749395 0.033 Uiso 1 1 calc R . . . .
C13 C 0.2177(4) 0.4186(2) 0.8783(2) 0.0216(5) Uani 1 1 d . . . . .
H13 H 0.094107 0.358981 0.890436 0.026 Uiso 1 1 calc R . . . .
C1 C 0.5545(4) 0.8865(2) 0.5845(2) 0.0201(5) Uani 1 1 d . . . . .
C10 C 0.5243(4) 0.7725(2) 0.8843(2) 0.0213(5) Uani 1 1 d . . . . .
C11 C 0.4366(4) 0.6243(2) 0.87136(19) 0.0193(5) Uani 1 1 d . . . . .
C7 C 0.2097(4) 0.7272(3) 0.4955(2) 0.0236(5) Uani 1 1 d . . . . .
C8 C 0.7921(4) 0.9784(3) 0.6018(2) 0.0230(5) Uani 1 1 d . . . . .
H8A H 0.893879 0.962705 0.656798 0.028 Uiso 1 1 calc R . . . .
H8B H 0.800481 1.076458 0.638533 0.028 Uiso 1 1 calc R . . . .
C9 C 0.8765(4) 0.9539(3) 0.4876(2) 0.0229(5) Uani 1 1 d . . . . .
H9A H 0.863482 0.855198 0.448609 0.028 Uiso 1 1 calc R . . . .
H9B H 0.780931 0.974580 0.433757 0.028 Uiso 1 1 calc R . . . .
C5 C -0.1709(5) 0.5901(3) 0.4675(3) 0.0358(6) Uani 1 1 d . . . . .
H5 H -0.308490 0.522650 0.418340 0.043 Uiso 1 1 calc R . . . .
C4 C -0.1526(4) 0.6534(3) 0.5899(3) 0.0331(6) Uani 1 1 d . . . . .
H4 H -0.278833 0.627961 0.619936 0.040 Uiso 1 1 calc R . . . .
C6 C 0.0090(5) 0.6248(3) 0.4174(2) 0.0320(6) Uani 1 1 d . . . . .
H6 H -0.003050 0.582098 0.335848 0.038 Uiso 1 1 calc R . . . .
H5B H 1.050(7) 1.141(4) 0.910(3) 0.056(12) Uiso 1 1 d . . . . .
loop_
_atom_site_aniso_label
_atom_site_aniso_U_11
_atom_site_aniso_U_22
_atom_site_aniso_U_33
_atom_site_aniso_U_23
_atom_site_aniso_U_13
_atom_site_aniso_U_12
Cd1 0.02109(10) 0.01523(10) 0.01798(10) 0.00767(7) 0.00473(7) 0.00601(7)
S1 0.0247(3) 0.0173(3) 0.0249(3) 0.0098(2) 0.0099(2) 0.0082(2)
O4 0.0333(9) 0.0185(8) 0.0275(9) 0.0125(7) 0.0108(7) 0.0122(7)
O2 0.0379(10) 0.0164(8) 0.0215(8) 0.0079(7) 0.0075(7) 0.0124(7)
O5 0.0219(9) 0.0409(11) 0.0330(10) 0.0175(9) 0.0069(8) 0.0041(8)
O1 0.0328(10) 0.0272(10) 0.0374(11) 0.0192(8) 0.0110(8) 0.0056(8)
O3 0.0322(10) 0.0218(9) 0.0592(13) 0.0124(9) 0.0200(9) 0.0138(8)
N1 0.0184(9) 0.0198(9) 0.0195(10) 0.0084(8) 0.0065(7) 0.0067(8)
N2 0.0291(11) 0.0287(11) 0.0165(10) 0.0082(9) 0.0087(8) 0.0108(9)
C15 0.0250(11) 0.0143(11) 0.0176(11) 0.0032(9) 0.0007(9) 0.0063(9)
C14 0.0251(11) 0.0155(11) 0.0161(10) 0.0075(9) 0.0043(9) 0.0058(9)
C12 0.0235(11) 0.0176(11) 0.0233(12) 0.0080(9) 0.0060(9) 0.0096(9)
C2 0.0211(11) 0.0172(11) 0.0219(11) 0.0083(9) 0.0031(9) 0.0062(9)
C3 0.0253(12) 0.0287(13) 0.0280(13) 0.0139(11) 0.0079(10) 0.0060(10)
C13 0.0230(11) 0.0188(11) 0.0230(12) 0.0086(10) 0.0060(9) 0.0068(9)
C1 0.0230(11) 0.0217(11) 0.0215(11) 0.0112(10) 0.0092(9) 0.0119(9)
C10 0.0315(12) 0.0163(11) 0.0139(10) 0.0068(9) 0.0009(9) 0.0056(10)
C11 0.0257(11) 0.0152(11) 0.0164(11) 0.0063(9) 0.0031(9) 0.0069(9)
C7 0.0268(12) 0.0212(12) 0.0235(12) 0.0096(10) 0.0036(9) 0.0093(10)
C8 0.0206(11) 0.0273(13) 0.0249(12) 0.0126(10) 0.0096(9) 0.0096(10)
C9 0.0225(12) 0.0243(12) 0.0264(12) 0.0117(10) 0.0111(10) 0.0107(10)
C5 0.0257(13) 0.0281(14) 0.0425(16) 0.0144(12) -0.0077(11) -0.0013(11)
C4 0.0213(12) 0.0332(14) 0.0455(16) 0.0216(13) 0.0046(11) 0.0038(11)
C6 0.0375(14) 0.0259(13) 0.0236(13) 0.0067(11) -0.0045(11) 0.0068(11)
loop_
_atom_type_symbol
_atom_type_description
_atom_type_scat_dispersion_real
_atom_type_scat_dispersion_imag
_atom_type_scat_source
C C 0.0033 0.0016 'International Tables Vol C Tables 4.2.6.8 and 6.1.1.4'
H H 0.0000 0.0000 'International Tables Vol C Tables 4.2.6.8 and 6.1.1.4'
Cd Cd -0.8075 1.2024 'International Tables Vol C Tables 4.2.6.8 and 6.1.1.4'
N N 0.0061 0.0033 'International Tables Vol C Tables 4.2.6.8 and 6.1.1.4'
O O 0.0106 0.0060 'International Tables Vol C Tables 4.2.6.8 and 6.1.1.4'
S S 0.1246 0.1234 'International Tables Vol C Tables 4.2.6.8 and 6.1.1.4'
loop_
_geom_angle_atom_site_label_1
_geom_angle_atom_site_label_2
_geom_angle_atom_site_label_3
_geom_angle
_geom_angle_site_symmetry_1
_geom_angle_site_symmetry_3
_geom_angle_publ_flag
O4 Cd1 O2 81.22(6) 1_565 2_677 ?
O2 Cd1 O4 108.49(6) . 1_565 ?
O2 Cd1 O2 74.19(6) . 2_677 ?
O5 Cd1 O4 120.97(7) . 1_565 ?
O5 Cd1 O2 77.94(7) . 2_677 ?
O5 Cd1 O2 117.45(7) . . ?
O5 Cd1 N1 120.14(7) . . ?
N1 Cd1 O4 91.89(6) . 1_565 ?
N1 Cd1 O2 161.32(7) . 2_677 ?
N1 Cd1 O2 91.83(7) . . ?
C11 S1 C14 91.38(11) . . ?
C15 O4 Cd1 98.77(14) . 1_545 ?
Cd1 O2 Cd1 105.81(6) . 2_677 ?
C10 O2 Cd1 121.07(14) . 2_677 ?
C10 O2 Cd1 98.31(14) . . ?
Cd1 O5 H5A 112.7 . . ?
Cd1 O5 H5B 127(3) . . ?
H5A O5 H5B 109.0 . . ?
C2 N1 Cd1 125.39(15) . . ?
C1 N1 Cd1 128.21(16) . . ?
C1 N1 C2 106.27(19) . . ?
C1 N2 H2 125.9 . . ?
C1 N2 C7 108.2(2) . . ?
C7 N2 H2 125.9 . . ?
O4 C15 C14 118.6(2) . . ?
O3 C15 O4 122.9(2) . . ?
O3 C15 C14 118.5(2) . . ?
C15 C14 S1 117.93(17) . . ?
C13 C14 S1 111.48(17) . . ?
C13 C14 C15 130.3(2) . . ?
C13 C12 H12 123.7 . . ?
C11 C12 H12 123.7 . . ?
C11 C12 C13 112.5(2) . . ?
C3 C2 N1 130.7(2) . . ?
C3 C2 C7 120.8(2) . . ?
C7 C2 N1 108.5(2) . . ?
C2 C3 H3 121.5 . . ?
C4 C3 C2 117.0(2) . . ?
C4 C3 H3 121.5 . . ?
C14 C13 C12 112.8(2) . . ?
C14 C13 H13 123.6 . . ?
C12 C13 H13 123.6 . . ?
N1 C1 N2 111.4(2) . . ?
N1 C1 C8 124.2(2) . . ?
N2 C1 C8 124.3(2) . . ?
O2 C10 C11 117.8(2) . . ?
O1 C10 O2 122.9(2) . . ?
O1 C10 C11 119.3(2) . . ?
C12 C11 S1 111.75(17) . . ?
C12 C11 C10 128.3(2) . . ?
C10 C11 S1 119.95(18) . . ?
N2 C7 C2 105.5(2) . . ?
N2 C7 C6 132.4(2) . . ?
C6 C7 C2 122.1(2) . . ?
C1 C8 H8A 108.6 . . ?
C1 C8 H8B 108.6 . . ?
C1 C8 C9 114.5(2) . . ?
H8A C8 H8B 107.6 . . ?
C9 C8 H8A 108.6 . . ?
C9 C8 H8B 108.6 . . ?
C8 C9 H9A 109.3 . . ?
C8 C9 H9B 109.3 . . ?
C9 C9 C8 111.7(3) 2_776 . ?
C9 C9 H9A 109.3 2_776 . ?
C9 C9 H9B 109.3 2_776 . ?
H9A C9 H9B 107.9 . . ?
C4 C5 H5 119.1 . . ?
C6 C5 H5 119.1 . . ?
C6 C5 C4 121.8(2) . . ?
C3 C4 C5 121.8(3) . . ?
C3 C4 H4 119.1 . . ?
C5 C4 H4 119.1 . . ?
C7 C6 H6 121.8 . . ?
C5 C6 C7 116.4(2) . . ?
C5 C6 H6 121.8 . . ?
loop_
_geom_bond_atom_site_label_1
_geom_bond_atom_site_label_2
_geom_bond_distance
_geom_bond_site_symmetry_2
_geom_bond_publ_flag
Cd1 O4 2.3551(17) 1_565 ?
Cd1 O2 2.3418(17) . ?
Cd1 O2 2.4365(17) 2_677 ?
Cd1 O5 2.2338(19) . ?
Cd1 N1 2.2450(19) . ?
S1 C14 1.724(2) . ?
S1 C11 1.720(2) . ?
O4 C15 1.271(3) . ?
O2 C10 1.285(3) . ?
O5 H5A 0.9063 . ?
O5 H5B 0.77(4) . ?
O1 C10 1.247(3) . ?
O3 C15 1.245(3) . ?
N1 C2 1.404(3) . ?
N1 C1 1.322(3) . ?
N2 H2 0.8600 . ?
N2 C1 1.354(3) . ?
N2 C7 1.383(3) . ?
C15 C14 1.489(3) . ?
C14 C13 1.368(3) . ?
C12 H12 0.9300 . ?
C12 C13 1.408(3) . ?
C12 C11 1.370(3) . ?
C2 C3 1.391(3) . ?
C2 C7 1.395(3) . ?
C3 H3 0.9300 . ?
C3 C4 1.380(4) . ?
C13 H13 0.9300 . ?
C1 C8 1.492(3) . ?
C10 C11 1.483(3) . ?
C7 C6 1.392(3) . ?
C8 H8A 0.9700 . ?
C8 H8B 0.9700 . ?
C8 C9 1.525(3) . ?
C9 C9 1.524(4) 2_776 ?
C9 H9A 0.9700 . ?
C9 H9B 0.9700 . ?
C5 H5 0.9300 . ?
C5 C4 1.393(4) . ?
C5 C6 1.378(4) . ?
C4 H4 0.9300 . ?
C6 H6 0.9300 . ?
