#------------------------------------------------------------------------------
#$Date: 2021-10-06 18:00:11 +0300 (Wed, 06 Oct 2021) $
#$Revision: 269695 $
#$URL: file:///home/coder/svn-repositories/cod/cif/7/24/33/7243310.cif $
#------------------------------------------------------------------------------
#
# This file is available in the Crystallography Open Database (COD),
# http://www.crystallography.net/
#
# All data on this site have been placed in the public domain by the
# contributors.
#
data_7243310
loop_
_publ_author_name
'Peloquin, Andrew J.'
'McMillen, Colin D.'
'Pennington, William T.'
_publ_section_title
;
 One dimensional halogen bond design: Br&#x22EF;N versus I&#x22EF;N with
 fluoroarenes
;
_journal_issue                   35
_journal_name_full               CrystEngComm
_journal_page_first              6098
_journal_page_last               6106
_journal_paper_doi               10.1039/D1CE00864A
_journal_volume                  23
_journal_year                    2021
_chemical_formula_moiety         'C6 F4 I2, C6 H8 N2'
_chemical_formula_sum            'C12 H8 F4 I2 N2'
_chemical_formula_weight         510.013
_space_group_crystal_system      triclinic
_space_group_IT_number           2
_space_group_name_Hall           '-P 1'
_space_group_name_H-M_alt        'P -1'
_symmetry_Int_Tables_number      2
_atom_sites_solution_primary     dual
_audit_creation_date             2021-05-25
_audit_creation_method
;
Olex2 1.3
(compiled 2020.11.12 svn.r5f609507 for OlexSys, GUI svn.r6272)
;
_audit_update_record
;
2021-06-27 deposited with the CCDC.	2021-08-02 downloaded from the CCDC.
;
_cell_angle_alpha                86.110(1)
_cell_angle_beta                 74.656(1)
_cell_angle_gamma                77.418(1)
_cell_formula_units_Z            1
_cell_length_a                   5.7357(1)
_cell_length_b                   6.2412(1)
_cell_length_c                   10.6257(1)
_cell_measurement_reflns_used    18838
_cell_measurement_temperature    106(8)
_cell_measurement_theta_max      28.9960
_cell_measurement_theta_min      1.9720
_cell_volume                     357.986(9)
_computing_cell_refinement       'CrysAlisPro 1.171.40.81a (Rigaku OD, 2020)'
_computing_data_collection       'CrysAlisPro 1.171.40.81a (Rigaku OD, 2020)'
_computing_data_reduction        'CrysAlisPro 1.171.40.81a (Rigaku OD, 2020)'
_computing_molecular_graphics    'Olex2 1.3 (Dolomanov et al., 2009)'
_computing_publication_material  'Olex2 1.3 (Dolomanov et al., 2009)'
_computing_structure_refinement  'olex2.refine 1.3 (Bourhis et al., 2015)'
_computing_structure_solution    'SHELXT 2014/5 (Sheldrick, 2014)'
_diffrn_ambient_environment      N~2~
_diffrn_ambient_temperature      106(8)
_diffrn_detector                 'Hybrid Pixel Array Detector'
_diffrn_detector_area_resol_mean 10.0000
_diffrn_detector_type            HyPix3000
_diffrn_measured_fraction_theta_full 1.0000
_diffrn_measured_fraction_theta_max 0.9746
_diffrn_measurement_details
;
List of Runs (angles in degrees, time in seconds):

  # Type    Start    End  Width  t~exp~   \w     \q     \k     \f   Frames
#--------------------------------------------------------------------------
  1  \w    -16.00  89.00   0.50    0.34    --   14.30  15.00  30.00  210
  2  \w    -13.00  83.00   0.50    0.34    --   14.30  77.00-180.00  192
  3  \w    -16.00  89.00   0.50    0.34    --   14.30  15.00 -30.00  210
  4  \w     -3.00  82.00   0.50    0.34    --   14.30  45.00  30.00  170
  5  \w    -13.00  83.00   0.50    0.34    --   14.30  77.00  60.00  192
  6  \w     -8.00  82.00   0.50    0.34    --   14.30  61.00 150.00  180
  7  \w    -62.00  -4.00   0.50    0.34    --  -15.63 118.00 168.00  116
  8  \w    -66.00  -9.00   0.50    0.34    --  -15.63 125.00  90.00  114
  9  \w    -85.00 -26.00   0.50    0.34    --  -15.63 157.00 -36.00  118
 10  \w    -66.00  -9.00   0.50    0.34    --  -15.63 125.00-120.00  114
 11  \w    -66.00  -9.00   0.50    0.34    --  -15.63 125.00 -60.00  114
 12  \w    -64.00  -6.00   0.50    0.34    --  -15.63 121.00-162.86  116
 13  \w    -66.00  -9.00   0.50    0.34    --  -15.63 125.00 -30.00  114
 14  \w    -66.00  -9.00   0.50    0.34    --  -15.63 125.00   0.00  114
 15  \w    -66.00  -9.00   0.50    0.34    --  -15.63 125.00  30.00  114
 16  \w    -66.00  -9.00   0.50    0.34    --  -15.63 125.00 120.00  114
 17  \w    -64.00  -6.00   0.50    0.34    --  -15.63 121.00 178.47  116
 18  \w    -42.00  53.00   0.50    0.34    --  -15.63  77.00-180.00  190
 19  \w    -33.00  52.00   0.50    0.34    --  -15.63  45.00-180.00  170
 20  \w    -38.00  52.00   0.50    0.34    --  -15.63  61.00 -60.00  180
 21  \w    -33.00  52.00   0.50    0.34    --  -15.63  45.00 -60.00  170
 22  \w    -33.00  52.00   0.50    0.34    --  -15.63  45.00 150.00  170
 23  \w    -46.00  59.00   0.50    0.34    --  -15.63  15.00 150.00  210
 24  \w    -53.00  37.00   0.50    0.34    --   14.30 -61.00-120.00  180
 25  \w    -53.00  29.00   0.50    0.34    --   14.30 -45.00 -30.00  164
 26  \w    -54.00  14.00   0.50    0.34    --   14.30 -30.00   0.00  136
 27  \w    -60.00   3.00   0.50    0.34    --   14.30 -15.00-120.00  126
 28  \w    -54.00  14.00   0.50    0.34    --   14.30 -30.00-150.00  136
 29  \w    -60.00   3.00   0.50    0.34    --   14.30 -15.00 -60.00  126
 30  \w    -60.00   3.00   0.50    0.34    --   14.30 -15.00  30.00  126
 31  \w    -53.00  37.00   0.50    0.34    --   14.30 -61.00  30.00  180
 32  \w    -84.00  -3.00   0.50    0.34    --  -15.63 -30.00  30.00  162
 33  \w    -84.00  11.00   0.50    0.34    --  -15.63 -77.00 150.00  190
 34  \w    -83.00   7.00   0.50    0.34    --  -15.63 -61.00  90.00  180
 35  \w    -84.00  11.00   0.50    0.34    --  -15.63 -77.00  30.00  190
 36  \w    -84.00  -3.00   0.50    0.34    --  -15.63 -30.00 120.00  162
 37  \w    -83.00   7.00   0.50    0.34    --  -15.63 -61.00 -30.00  180
 38  \w    -83.00   7.00   0.50    0.34    --  -15.63 -61.00-120.00  180
 39  \w    -83.00   7.00   0.50    0.34    --  -15.63 -61.00-150.00  180
 40  \w    -38.00  17.00   0.50    0.34    --  -15.63 -94.00 -90.00  110
 41  \w    -38.00  17.00   0.50    0.34    --  -15.63 -94.00-120.00  110
 42  \w    -38.00  17.00   0.50    0.34    --  -15.63 -94.00-150.00  110
 43  \w    -38.00  17.00   0.50    0.34    --  -15.63 -94.00 -60.00  110
 44  \w    -38.00  17.00   0.50    0.34    --  -15.63 -94.00   0.00  110
 45  \w    -38.00  17.00   0.50    0.34    --  -15.63 -94.00  30.00  110
 46  \w    -38.00  17.00   0.50    0.34    --  -15.63 -94.00  90.00  110
 47  \w    -38.00  17.00   0.50    0.34    --  -15.63 -94.00 120.00  110
 48  \w      4.00  61.00   0.50    0.34    --   14.30-118.00  82.00  114
 49  \w      9.00  65.00   0.50    0.34    --   14.30-125.00 150.00  112
 50  \w      9.00  65.00   0.50    0.34    --   14.30-125.00   0.00  112
 51  \w     27.00  84.00   0.50    0.34    --   14.30-157.00 -71.00  114
 52  \w      9.00  65.00   0.50    0.34    --   14.30-125.00-150.00  112
;
_diffrn_measurement_device       'four-circle diffractometer'
_diffrn_measurement_device_type
'XtaLAB Synergy, Single source at offset/far, HyPix3000'
_diffrn_measurement_method       '\w scans'
_diffrn_orient_matrix_type
'CrysAlisPro convention (1999,Acta A55,543-557)'
_diffrn_orient_matrix_UB_11      0.0720833000
_diffrn_orient_matrix_UB_12      -0.0894918000
_diffrn_orient_matrix_UB_13      -0.0401264000
_diffrn_orient_matrix_UB_21      -0.0082922000
_diffrn_orient_matrix_UB_22      -0.0702997000
_diffrn_orient_matrix_UB_23      0.0556216000
_diffrn_orient_matrix_UB_31      -0.1091844000
_diffrn_orient_matrix_UB_32      -0.0246965000
_diffrn_orient_matrix_UB_33      -0.0093898000
_diffrn_radiation_monochromator  mirror
_diffrn_radiation_probe          x-ray
_diffrn_radiation_type           'Mo K\a'
_diffrn_radiation_wavelength     0.71073
_diffrn_reflns_av_R_equivalents  0.0574
_diffrn_reflns_av_unetI/netI     0.0250
_diffrn_reflns_Laue_measured_fraction_full 1.0000
_diffrn_reflns_Laue_measured_fraction_max 0.9746
_diffrn_reflns_limit_h_max       7
_diffrn_reflns_limit_h_min       -7
_diffrn_reflns_limit_k_max       8
_diffrn_reflns_limit_k_min       -8
_diffrn_reflns_limit_l_max       14
_diffrn_reflns_limit_l_min       -14
_diffrn_reflns_number            23215
_diffrn_reflns_point_group_measured_fraction_full 1.0000
_diffrn_reflns_point_group_measured_fraction_max 0.9746
_diffrn_reflns_theta_full        25.2417
_diffrn_reflns_theta_max         29.16
_diffrn_reflns_theta_min         1.99
_diffrn_source                   'micro-focus sealed X-ray tube'
_diffrn_source_type              'PhotonJet (Mo) X-ray Source'
_exptl_absorpt_coefficient_mu    4.427
_exptl_absorpt_correction_T_max  1.000
_exptl_absorpt_correction_T_min  0.390
_exptl_absorpt_correction_type   gaussian
_exptl_absorpt_process_details
;
CrysAlisPro 1.171.40.81a (Rigaku Oxford Diffraction, 2020)
Numerical absorption correction based on gaussian integration over
a multifaceted crystal model
Empirical absorption correction using spherical harmonics,
implemented in SCALE3 ABSPACK scaling algorithm.
;
_exptl_crystal_density_diffrn    2.366
_exptl_crystal_description       plate
_exptl_crystal_F_000             235.344
_exptl_crystal_size_max          0.298
_exptl_crystal_size_mid          0.253
_exptl_crystal_size_min          0.165
_refine_diff_density_max         0.7094
_refine_diff_density_min         -0.7404
_refine_diff_density_rms         0.1926
_refine_ls_d_res_high            0.7293
_refine_ls_d_res_low             10.2463
_refine_ls_goodness_of_fit_ref   1.0986
_refine_ls_hydrogen_treatment    constr
_refine_ls_matrix_type           full
_refine_ls_number_constraints    6
_refine_ls_number_parameters     92
_refine_ls_number_reflns         1878
_refine_ls_number_restraints     0
_refine_ls_restrained_S_all      1.0986
_refine_ls_R_factor_all          0.0210
_refine_ls_R_factor_gt           0.0173
_refine_ls_shift/su_max          0.0009
_refine_ls_shift/su_mean         0.0000
_refine_ls_structure_factor_coef Fsqd
_refine_ls_weighting_details
'w=1/[\s^2^(Fo^2^)+(0.0169P)^2^+0.2695P] where P=(Fo^2^+2Fc^2^)/3'
_refine_ls_weighting_scheme      calc
_refine_ls_wR_factor_gt          0.0373
_refine_ls_wR_factor_ref         0.0418
_reflns_Friedel_coverage         0.0
_reflns_limit_h_max              7
_reflns_limit_h_min              -7
_reflns_limit_k_max              8
_reflns_limit_k_min              -8
_reflns_limit_l_max              14
_reflns_limit_l_min              0
_reflns_number_gt                1789
_reflns_number_total             1878
_reflns_threshold_expression     I>=2u(I)
_iucr_refine_instructions_details
;
TITL 5may21_ajp2_abs_a.res in P-1
REM Old TITL 5May21_AJP2_abs in P1
REM SHELXT solution in P-1
REM R1 0.235, Rweak 0.016, Alpha 0.030, Orientation as input
REM Formula found by SHELXT: C6 N F2 I
CELL 0.71073 5.7357 6.2412 10.6257 86.11 74.656 77.418
ZERR 1 0.0001 0.0001 0.0001 0.001 0.001 0.001
LATT 1
SFAC C H F I N
UNIT 12 8 4 2 2

L.S. 10
PLAN  20
BOND $H
FMAP 2
list 4
MORE -1
CONF 
ACTA 
OMIT -3 -5 9
WGHT 0.016936 0.269536
FVAR 0.6987
REM <olex2.extras>
REM <HklSrc "%.\\5May21_AJP2_abs.hkl">
REM </olex2.extras>

I1    4     0.56765  0.27025  0.23719  11.00000  0.01295  0.01669  0.01440 =
 0.00197 -0.00070 -0.00717 
F2    3     0.86952  0.92015 -0.08191  11.00000  0.01890  0.01211  0.02255 =
 0.00422 -0.00312 -0.00181 
F1    3     0.53823  0.74225  0.09488  11.00000  0.01153  0.01858  0.02400 =
 0.00094  0.00176  0.00103 

N1    5     0.20502  0.07965  0.42879  11.00000  0.01516  0.01829  0.01675 =
 0.00374 -0.00224 -0.00685 

C3    1     0.93780  0.71211 -0.04228  11.00000  0.01533  0.01195  0.01508 =
 0.00260 -0.00498 -0.00367 
C2    1     0.76652  0.61961  0.04876  11.00000  0.00935  0.01414  0.01635 =
 -0.00215 -0.00101 -0.00201 
C1    1     0.82502  0.40571  0.09372  11.00000  0.01340  0.01475  0.01313 =
 0.00101 -0.00105 -0.00666 

C5    1     0.12166 -0.07389  0.38165  11.00000  0.01637  0.01868  0.01305 =
 -0.00122  0.00026 -0.00276 
AFIX 43
H5    2     0.20431 -0.12882  0.29890  11.00000 -1.20000 
AFIX 0
C4    1     0.08369  0.15488  0.54866  11.00000  0.01480  0.01512  0.01449 =
 0.00286 -0.00448 -0.00375 
C6    1     0.17705  0.32233  0.60458  11.00000  0.02360  0.02209  0.02355 =
 -0.00109 -0.00722 -0.00987 
AFIX 137
H6a   2     0.31704  0.25136  0.63621  11.00000 -1.50000 
H6b   2     0.22532  0.42791  0.53818  11.00000 -1.50000 
H6c   2     0.04882  0.39542  0.67530  11.00000 -1.50000 
AFIX 0
HKLF 4

END
Q3 1 0.5 0.5 0.5 11 0.05 0.67
Q1 1 0.5 -0.333333 0.325 11 0.05 0.71
Q2 1 0.9 0.791667 -0.05 11 0.05 0.68
Q4 1 0.4 0.208333 0.7 11 0.05 0.66
Q5 1 0 -0.083333 0.4 11 0.05 0.66

  REM The information below was added by Olex2.
  REM
  REM R1 = 0.0173 for 1789 Fo > 4sig(Fo) and 0.0210 for all 1878 data
  REM 92 parameters refined using 0 restraints
  REM Highest difference peak 0.7094, deepest hole -0.7404
  REM Mean Shift 0.0000, Max Shift 0.0009.

  REM +++ Tabular Listing of Refinement Information +++
  REM R1_all = 0.0210
  REM R1_gt = 0.0173
  REM wR_ref = 0.0418
  REM GOOF = 1.0986
  REM Shift_max = 0.0009
  REM Shift_mean = 0.0000
  REM Reflections_all = 1878
  REM Reflections_gt = 1789
  REM Parameters = 92
  REM Hole = -0.7404
  REM Peak = 0.7094
  REM Flack = n/a
;
_cod_data_source_file            d1ce00864a2.cif
_cod_data_source_block           I2F4bz_25Me2pyrz
_cod_depositor_comments
'Adding full bibliography for 7243307--7243335.cif.'
_cod_database_code               7243310
_chemical_oxdiff_formula         (C6F4I2)(N2C6H8)
_chemical_oxdiff_usercomment     (2,5-Me2pyrz)(I2F4bz)
_reflns_odcompleteness_completeness 100.00
_reflns_odcompleteness_iscentric 1
_reflns_odcompleteness_theta     28.22
_olex2_refinement_description
;
;
_iucr_refine_fcf_details
;
data_5May21_AJP2_abs
_computing_structure_refinement   'olex2.refine 1.3 (Bourhis et al., 2015)'
_shelx_refln_list_code            4
loop_
  _space_group_symop_id
  _space_group_symop_operation_xyz
  1  x,y,z
  2  -x,-y,-z

_space_group_crystal_system       triclinic
_space_group_IT_number            2
_space_group_name_H-M_alt         'P -1'
_space_group_name_Hall            '-P 1'
_symmetry_space_group_name_H-M    'P -1'
_symmetry_space_group_name_Hall   '-P 1'
_symmetry_Int_Tables_number       2
_cell_length_a                    5.7357(1)
_cell_length_b                    6.2412(1)
_cell_length_c                    10.6257(1)
_cell_angle_alpha                 86.110(1)
_cell_angle_beta                  74.656(1)
_cell_angle_gamma                 77.418(1)
_cell_volume                      357.986(9)
loop_
  _refln_index_h
  _refln_index_k
  _refln_index_l
  _refln_F_squared_calc
  _refln_F_squared_meas
  _refln_F_squared_sigma
  _refln_F_squared_weight
  _refln_observed_status
-7 -4 1 127.400 102.201 20.737 14.796 o
-7 -3 1 777.692 731.503 30.326 5.339 o
-7 -3 2 2.727 -4.700 5.325 239.140 o
-7 -2 1 24.836 20.887 5.528 186.109 o
-7 -2 2 1168.970 1175.640 51.850 2.030 o
-7 -1 1 1321.960 1308.590 39.325 2.875 o
-7 -1 2 22.677 23.011 8.448 88.814 o
-7 0 1 22.003 21.583 5.153 211.696 o
-6 -6 1 86.276 83.233 12.723 36.893 o
-6 -5 1 765.928 757.575 26.337 6.468 o
-6 -5 2 62.114 59.019 9.637 62.470 o
-6 -5 3 834.020 449.064 175.732 0.221 o
-6 -4 1 21.002 17.640 3.996 321.759 o
-6 -4 2 1791.370 1798.870 55.863 1.524 o
-6 -4 3 28.106 20.061 5.693 174.835 o
-6 -4 4 645.177 647.624 34.019 4.753 o
-6 -3 1 1711.210 1755.060 45.194 2.052 o
-6 -3 2 3.482 4.884 2.279 1101.140 o
-6 -3 3 1127.480 1097.550 33.242 3.909 o
-6 -3 4 0.749 -4.735 2.289 1283.280 o
-6 -3 5 1200.360 1153.250 69.286 1.249 o
-6 -2 1 26.926 27.608 3.956 297.583 o
-6 -2 2 2101.000 2059.390 42.513 1.906 o
-6 -2 3 0.089 -4.984 1.113 5498.530 o
-6 -2 4 806.548 802.930 30.554 5.160 o
-6 -2 5 4.485 3.689 4.633 305.055 o
-6 -1 1 895.954 897.765 25.631 6.109 o
-6 -1 2 103.372 121.590 8.991 60.620 o
-6 -1 3 1230.310 1211.260 34.096 3.588 o
-6 -1 4 70.346 81.560 8.695 70.996 o
-6 -1 5 1152.590 1111.060 43.936 2.643 o
-6 -1 6 32.803 54.631 23.577 12.161 o
-6 0 1 310.107 298.319 15.113 20.417 o
-6 0 2 945.936 967.175 29.512 4.968 o
-6 0 3 164.206 183.764 14.762 25.329 o
-6 0 4 1446.130 1432.500 43.323 2.410 o
-6 0 5 33.285 23.343 5.705 168.721 o
-6 1 1 574.818 566.446 25.438 7.706 o
-6 1 2 349.061 333.833 21.528 11.688 o
-6 1 3 659.649 636.685 33.196 4.928 o
-6 1 4 184.584 191.579 15.434 23.099 o
-6 1 5 1102.820 1164.190 203.684 0.164 o
-6 2 1 778.752 774.330 39.689 3.523 o
-6 2 2 529.731 489.927 31.584 5.685 o
-6 2 3 92.648 86.725 12.284 38.818 o
-6 3 1 661.255 647.002 36.025 4.315 o
-6 3 2 311.926 154.656 50.084 2.655 o
-5 -7 1 699.676 686.543 29.657 5.721 o
-5 -6 1 159.585 149.068 11.452 38.274 o
-5 -6 2 1213.240 1064.710 71.829 1.177 o
-5 -6 3 35.002 22.448 7.318 111.020 o
-5 -6 4 1023.910 1123.320 71.891 1.195 o
-5 -5 1 2386.180 2382.280 68.518 0.990 o
-5 -5 2 37.569 45.602 5.628 160.432 o
-5 -5 3 1158.670 1233.970 38.576 3.122 o
-5 -5 4 27.465 17.726 4.400 264.685 o
-5 -5 5 765.430 782.347 32.447 4.819 o
-5 -5 6 8.480 4.937 11.102 55.070 o
-5 -4 1 517.763 509.814 17.833 12.941 o
-5 -4 2 2249.040 2297.470 55.686 1.331 o
-5 -4 3 37.760 43.319 6.848 118.868 o
-5 -4 4 1303.780 1350.900 38.377 2.963 o
-5 -4 5 18.760 12.352 4.333 295.550 o
-5 -4 6 1008.770 990.734 34.628 3.924 o
-5 -3 1 1157.990 1193.020 26.835 4.831 o
-5 -3 2 271.262 290.100 13.481 24.754 o
-5 -3 3 1868.950 1754.850 105.307 0.550 o
-5 -3 4 438.415 32.434 101.903 0.657 o
-5 -3 5 1664.220 1060.020 241.731 0.116 o
-5 -3 6 2.279 -4.425 3.804 463.560 o
-5 -3 7 1066.280 687.424 165.636 0.247 o
-5 -2 1 2075.490 2084.720 37.319 2.161 o
-5 -2 2 1567.470 1616.480 36.727 2.764 o
-5 -2 3 333.292 345.702 14.537 20.593 o
-5 -2 4 1885.970 1848.940 35.821 2.468 o
-5 -2 5 81.472 82.867 7.874 80.186 o
-5 -2 6 807.340 763.658 28.340 5.762 o
-5 -2 7 88.196 84.343 10.490 50.855 o
-5 -1 1 451.759 465.746 14.068 18.118 o
-5 -1 2 1647.070 1663.850 40.485 2.405 o
-5 -1 3 1580.710 1615.930 32.086 3.155 o
-5 -1 4 474.793 467.964 17.550 13.811 o
-5 -1 5 1663.860 1723.220 51.398 1.765 o
-5 -1 6 189.249 184.162 12.119 33.239 o
-5 -1 7 561.974 524.163 23.024 9.019 o
-5 -1 8 54.469 77.942 24.499 11.159 o
-5 0 1 1841.160 1842.510 35.405 2.533 o
-5 0 2 1183.440 1199.960 24.231 5.253 o
-5 0 3 554.095 573.080 19.913 10.817 o
-5 0 4 737.427 727.611 22.140 8.185 o
-5 0 5 454.218 455.155 19.655 12.141 o
-5 0 6 918.818 889.819 32.560 4.472 o
-5 0 7 334.305 343.307 17.724 15.758 o
-5 0 8 897.799 993.462 136.814 0.359 o
-5 1 1 464.486 497.539 17.400 13.912 o
-5 1 2 1367.770 1388.050 35.946 3.129 o
-5 1 3 288.795 286.247 15.013 21.107 o
-5 1 4 542.251 517.777 22.357 9.506 o
-5 1 5 723.787 712.081 26.859 6.482 o
-5 1 6 524.477 567.531 25.203 7.986 o
-5 1 7 974.057 970.969 31.924 4.441 o
-5 2 1 624.627 663.991 25.230 7.456 o
-5 2 2 618.381 624.756 34.794 4.634 o
-5 2 3 1249.780 1141.950 52.859 1.946 o
-5 2 4 194.273 195.629 14.794 24.440 o
-5 2 5 546.207 515.586 32.578 5.354 o
-5 2 6 247.436 232.777 16.734 19.039 o
-5 2 7 291.603 279.875 50.678 2.584 o
-5 3 1 0.431 -5.069 2.421 1161.500 o
-5 3 2 660.052 658.413 30.316 5.646 o
-5 3 3 161.298 138.750 14.913 25.486 o
-5 3 4 791.980 763.396 36.202 4.064 o
-5 3 5 400.771 379.228 21.660 11.131 o
-5 4 1 965.078 1016.310 37.014 3.608 o
-5 4 2 32.413 37.566 7.298 109.850 o
-5 4 3 681.087 654.666 79.571 1.038 o
-4 -7 1 1244.780 1219.520 38.198 3.092 o
-4 -7 2 87.835 80.103 9.944 55.649 o
-4 -7 3 461.528 422.728 23.722 9.303 o
-4 -7 4 60.935 83.390 18.199 19.650 o
-4 -6 1 390.243 397.660 18.218 14.311 o
-4 -6 2 1588.450 1624.830 38.485 2.605 o
-4 -6 3 253.497 259.580 15.271 21.500 o
-4 -6 4 846.185 839.639 41.138 3.247 o
-4 -6 5 161.822 178.024 15.017 24.756 o
-4 -6 6 948.800 882.583 49.808 2.317 o
-4 -5 1 1113.990 1089.780 23.366 5.773 o
-4 -5 2 798.616 795.055 21.862 7.880 o
-4 -5 3 1194.200 813.112 114.017 0.507 o
-4 -5 4 558.419 58.300 157.765 0.275 o
-4 -5 5 1549.080 1570.620 85.385 0.821 o
-4 -5 6 59.530 68.070 10.495 53.856 o
-4 -5 7 946.241 969.034 51.582 2.170 o
-4 -4 1 1311.570 1377.570 25.890 4.479 o
-4 -4 2 1077.790 1167.750 26.927 5.014 o
-4 -4 3 1016.730 1036.940 24.122 5.955 o
-4 -4 4 2570.980 2573.330 104.339 0.512 o
-4 -4 5 357.489 374.945 19.963 12.909 o
-4 -4 6 770.363 820.279 33.102 4.643 o
-4 -4 7 171.614 160.348 16.307 21.605 o
-4 -4 8 909.787 860.721 47.423 2.537 o
-4 -3 1 987.257 1010.410 19.654 7.350 o
-4 -3 2 2147.710 2118.160 55.044 1.403 o
-4 -3 3 711.663 756.498 20.994 8.752 o
-4 -3 4 1085.470 1017.520 67.597 1.332 o
-4 -3 5 1856.420 1683.710 116.210 0.462 o
-4 -3 6 437.976 51.176 105.187 0.617 o
-4 -3 7 1071.080 1045.180 78.844 1.010 o
-4 -3 8 129.368 -1.746 35.486 5.369 o
-4 -3 9 959.319 1018.590 53.661 2.018 o
-4 -2 1 3267.070 3283.300 39.674 1.248 o
-4 -2 2 1458.680 1471.600 26.999 3.970 o
-4 -2 3 1416.750 1379.610 26.771 4.153 o
-4 -2 4 906.136 928.676 22.135 7.069 o
-4 -2 5 1047.700 1070.630 23.735 5.909 o
-4 -2 6 1036.740 1052.410 27.419 5.132 o
-4 -2 7 938.110 957.569 28.478 5.219 o
-4 -2 8 929.355 949.652 33.461 4.249 o
-4 -2 9 79.384 77.092 9.916 56.862 o
-4 -1 1 1049.630 1053.960 17.484 7.614 o
-4 -1 2 1256.330 1278.220 21.126 5.541 o
-4 -1 3 60.542 65.951 4.585 177.133 o
-4 -1 4 2860.920 2865.250 55.276 1.117 o
-4 -1 5 1261.160 1276.980 26.052 4.660 o
-4 -1 6 1016.140 1041.090 24.560 5.843 o
-4 -1 7 1231.790 1317.170 31.022 3.924 o
-4 -1 8 301.462 292.313 18.258 15.699 o
-4 -1 9 396.502 379.142 21.722 11.108 o
-4 -1 10 374.697 369.576 55.000 2.179 o
-4 0 1 3897.930 3876.260 62.802 0.739 o
-4 0 2 717.852 690.175 15.634 11.903 o
-4 0 3 1666.810 1660.230 28.357 3.369 o
-4 0 4 30.435 30.839 3.916 289.277 o
-4 0 5 1476.830 1508.430 30.289 3.532 o
-4 0 6 979.024 984.578 28.374 5.126 o
-4 0 7 1025.160 1073.860 28.480 4.917 o
-4 0 8 762.221 752.158 31.396 5.089 o
-4 0 9 434.882 480.548 25.352 8.390 o
-4 1 1 7.143 12.098 1.886 1159.520 o
-4 1 2 1852.180 1876.730 43.945 2.014 o
-4 1 3 314.580 338.289 13.471 23.129 o
-4 1 4 3479.510 3502.820 91.935 0.536 o
-4 1 5 241.279 244.837 12.843 27.906 o
-4 1 6 706.413 696.517 22.905 8.058 o
-4 1 7 219.927 220.202 12.902 28.780 o
-4 1 8 535.282 498.239 23.867 8.742 o
-4 1 9 533.046 534.425 31.200 5.753 o
-4 2 1 3685.810 3700.510 68.981 0.714 o
-4 2 2 5.285 -1.558 2.961 709.617 o
-4 2 3 1048.140 1104.360 35.500 3.680 o
-4 2 4 163.784 155.298 11.511 37.627 o
-4 2 5 1243.120 1209.680 32.291 3.810 o
-4 2 6 109.130 120.923 10.492 47.827 o
-4 2 7 1090.770 1037.690 41.278 2.969 o
-4 2 8 121.392 88.481 21.285 14.183 o
-4 3 1 194.658 179.781 11.365 36.184 o
-4 3 2 1975.570 1996.270 53.072 1.540 o
-4 3 3 7.363 3.372 2.779 737.033 o
-4 3 4 1045.330 1037.910 59.354 1.676 o
-4 3 5 22.971 16.553 5.682 181.396 o
-4 3 6 854.062 832.983 37.530 3.743 o
-4 3 7 98.403 86.278 11.394 43.705 o
-4 4 1 1452.690 1473.590 37.442 2.866 o
-4 4 2 7.503 -3.093 6.254 170.437 o
-4 4 3 755.376 762.799 32.445 4.852 o
-4 4 4 17.329 25.510 6.625 139.579 o
-4 4 5 871.236 789.479 46.333 2.675 o
-4 4 6 0.055 3.096 3.153 674.341 o
-4 5 1 50.792 50.483 7.351 100.793 o
-4 5 2 437.958 432.896 21.725 10.707 o
-4 5 3 198.460 221.566 22.661 11.866 o
-4 5 4 630.109 617.229 80.790 1.013 o
-3 -8 1 525.796 550.303 26.673 7.360 o
-3 -8 2 612.491 688.376 77.615 1.093 o
-3 -7 1 458.288 452.257 21.023 11.041 o
-3 -7 2 611.173 638.550 25.465 7.448 o
-3 -7 3 699.666 714.646 31.422 5.227 o
-3 -7 4 610.115 601.024 26.237 7.202 o
-3 -7 5 698.547 729.634 31.488 5.199 o
-3 -6 1 1771.290 1843.380 37.551 2.447 o
-3 -6 2 1038.930 1056.230 27.686 5.067 o
-3 -6 3 1190.390 1196.800 29.382 4.331 o
-3 -6 4 1080.020 1096.550 29.950 4.515 o
-3 -6 5 270.727 262.161 16.214 19.393 o
-3 -6 6 400.535 377.996 21.940 10.920 o
-3 -6 7 435.004 457.849 25.239 8.489 o
-3 -5 1 5.452 -4.412 3.296 582.343 o
-3 -5 2 1671.060 1701.350 31.110 3.091 o
-3 -5 3 914.523 987.699 22.092 6.939 o
-3 -5 4 1053.040 1073.450 31.390 4.329 o
-3 -5 5 1191.490 1179.450 34.441 3.610 o
-3 -5 6 941.707 911.882 33.913 4.179 o
-3 -5 7 573.350 648.132 34.153 4.822 o
-3 -5 8 319.833 322.530 20.486 12.877 o
-3 -4 1 4673.130 4737.560 50.712 0.679 o
-3 -4 2 828.826 860.781 17.026 9.602 o
-3 -4 3 1975.170 2009.450 28.560 2.778 o
-3 -4 4 280.444 310.574 11.726 28.738 o
-3 -4 5 1227.030 1254.020 40.234 2.886 o
-3 -4 6 880.020 886.566 29.835 5.105 o
-3 -4 7 1132.030 1183.230 38.996 3.122 o
-3 -4 8 963.674 1039.350 40.800 3.119 o
-3 -4 9 253.018 223.462 19.922 14.388 o
-3 -3 1 178.810 168.047 4.322 92.314 o
-3 -3 2 2491.400 2551.030 38.424 1.741 o
-3 -3 3 147.733 140.784 6.873 74.571 o
-3 -3 4 2923.150 2976.520 99.598 0.523 o
-3 -3 5 504.965 536.462 18.387 12.467 o
-3 -3 6 2220.810 1663.740 218.283 0.140 o
-3 -3 7 1334.300 982.225 182.311 0.203 o
-3 -3 8 592.472 620.625 26.035 7.307 o
-3 -3 9 321.974 369.285 24.905 9.270 o
-3 -3 10 310.466 313.148 28.234 7.589 o
-3 -2 1 4178.080 4049.420 28.120 1.013 o
-3 -2 2 40.559 33.679 1.709 505.185 o
-3 -2 3 3872.930 3787.700 50.729 0.879 o
-3 -2 4 291.824 304.756 9.247 36.210 o
-3 -2 5 2192.220 2261.860 55.174 1.366 o
-3 -2 6 343.490 368.444 14.297 20.605 o
-3 -2 7 1906.120 1878.980 52.576 1.601 o
-3 -2 8 689.769 687.603 27.184 6.502 o
-3 -2 9 872.228 903.355 27.675 5.620 o
-3 -2 10 549.092 526.381 29.280 6.343 o
-3 -2 11 315.523 265.778 27.600 7.946 o
-3 -1 1 61.886 40.052 2.646 305.530 o
-3 -1 2 5142.370 5088.920 43.397 0.639 o
-3 -1 3 0.294 -1.921 1.144 5068.550 o
-3 -1 4 4476.270 4506.640 58.041 0.666 o
-3 -1 5 143.147 147.758 7.273 70.452 o
-3 -1 6 1374.530 1387.100 31.974 3.557 o
-3 -1 7 578.387 582.757 18.880 11.322 o
-3 -1 8 1682.010 1689.410 38.958 2.476 o
-3 -1 9 304.321 309.306 16.835 17.561 o
-3 -1 10 964.682 930.536 35.642 3.858 o
-3 -1 11 350.302 336.657 20.268 12.814 o
-3 0 1 4987.430 4987.300 38.320 0.693 o
-3 0 2 10.113 11.233 0.964 1820.750 o
-3 0 3 4180.690 4161.670 42.044 0.874 o
-3 0 4 740.473 759.147 16.153 11.087 o
-3 0 5 2160.470 2171.270 53.203 1.450 o
-3 0 6 349.539 340.087 12.167 25.008 o
-3 0 7 2384.300 2380.080 58.066 1.222 o
-3 0 8 399.898 372.682 18.163 14.399 o
-3 0 9 991.105 925.269 31.733 4.486 o
-3 0 10 641.970 619.956 29.598 5.933 o
-3 0 11 503.029 504.662 29.983 6.228 o
-3 1 1 821.671 833.797 12.154 12.190 o
-3 1 2 4036.610 4111.240 55.797 0.772 o
-3 1 3 382.720 397.271 10.749 26.218 o
-3 1 4 2598.100 2656.170 61.899 1.061 o
-3 1 5 165.697 150.007 9.666 47.874 o
-3 1 6 1907.970 1857.520 40.688 2.161 o
-3 1 7 0.522 -6.758 4.101 407.903 o
-3 1 8 1757.040 1687.970 39.219 2.405 o
-3 1 9 72.212 73.216 8.840 69.523 o
-3 1 10 743.884 733.271 30.974 5.241 o
-3 1 11 213.840 194.099 29.450 7.373 o
-3 2 1 3819.110 4018.060 47.350 0.905 o
-3 2 2 183.257 189.161 7.819 57.049 o
-3 2 3 1665.360 1695.670 43.101 2.215 o
-3 2 4 201.405 223.876 11.229 35.387 o
-3 2 5 1835.210 1824.420 47.467 1.860 o
-3 2 6 30.475 40.255 4.970 202.135 o
-3 2 7 1855.960 1838.860 50.996 1.690 o
-3 2 8 68.219 66.647 7.871 84.612 o
-3 2 9 818.910 761.329 37.457 3.828 o
-3 2 10 18.621 -9.752 9.483 73.914 o
-3 3 1 343.833 337.126 14.747 20.109 o
-3 3 2 1385.580 1344.590 34.067 3.332 o
-3 3 3 1028.010 1015.250 28.843 4.897 o
-3 3 4 2511.300 2598.570 79.106 0.784 o
-3 3 5 19.886 21.390 4.529 263.956 o
-3 3 6 1142.950 1147.520 38.426 3.192 o
-3 3 7 19.862 -6.857 8.865 83.907 o
-3 3 8 685.247 681.469 30.859 5.427 o
-3 3 9 0.032 -4.567 2.720 931.380 o
-3 4 1 631.695 650.742 24.294 7.847 o
-3 4 2 511.371 512.110 21.901 9.959 o
-3 4 3 920.446 936.584 31.331 4.670 o
-3 4 4 453.418 461.857 27.395 7.391 o
-3 4 5 934.834 956.737 50.969 2.220 o
-3 4 6 15.222 17.264 5.426 204.093 o
-3 4 7 916.246 891.734 43.620 2.893 o
-3 4 8 42.199 -3.859 18.528 19.644 o
-3 5 1 895.521 910.067 29.338 5.163 o
-3 5 2 550.759 549.582 24.282 8.362 o
-3 5 3 341.811 334.840 23.680 10.065 o
-3 5 4 902.321 885.303 38.759 3.493 o
-3 5 5 214.952 205.096 18.517 16.709 o
-3 5 6 348.855 367.272 25.096 9.056 o
-3 5 7 96.119 75.894 24.581 10.938 o
-3 6 1 284.825 261.190 17.331 17.373 o
-3 6 2 378.936 360.625 20.779 12.056 o
-3 6 3 396.941 364.538 23.290 10.007 o
-3 6 4 143.424 117.881 14.762 26.580 o
-2 -8 1 697.272 702.915 33.940 4.658 o
-2 -8 2 132.254 129.177 12.948 33.166 o
-2 -8 3 862.874 862.527 50.887 2.272 o
-2 -7 1 80.000 82.828 7.966 79.140 o
-2 -7 2 776.981 789.548 27.242 6.116 o
-2 -7 3 237.366 235.500 14.207 24.482 o
-2 -7 4 1173.530 1168.800 32.325 3.931 o
-2 -7 5 277.370 298.927 18.413 15.713 o
-2 -7 6 589.561 622.027 41.798 3.428 o
-2 -6 1 2852.930 2913.590 61.923 0.989 o
-2 -6 2 0.978 -4.755 2.653 956.318 o
-2 -6 3 906.269 924.496 23.310 6.709 o
-2 -6 4 306.403 337.796 13.147 24.028 o
-2 -6 5 1190.740 1209.520 31.885 3.941 o
-2 -6 6 427.417 379.009 21.245 11.294 o
-2 -6 7 1079.730 1080.850 41.867 2.900 o
-2 -6 8 281.872 292.613 28.035 7.782 o
-2 -5 1 652.388 657.579 15.785 12.582 o
-2 -5 2 1525.330 1544.450 35.029 2.982 o
-2 -5 3 145.308 169.409 8.805 54.916 o
-2 -5 4 3473.180 3486.400 58.188 0.885 o
-2 -5 5 213.104 216.007 11.862 32.602 o
-2 -5 6 1368.650 1429.480 35.497 3.153 o
-2 -5 7 778.919 804.290 28.165 5.829 o
-2 -5 8 584.698 575.908 32.976 5.142 o
-2 -5 9 134.254 123.576 15.495 24.613 o
-2 -5 10 683.559 636.362 75.546 1.147 o
-2 -4 1 4136.580 4054.480 45.301 0.862 o
-2 -4 2 5.911 9.125 1.424 1757.660 o
-2 -4 3 2645.510 2637.920 33.872 1.785 o
-2 -4 4 8.248 -0.191 3.907 411.638 o
-2 -4 5 2725.730 2724.500 46.618 1.369 o
-2 -4 6 199.271 191.768 11.346 35.763 o
-2 -4 7 1643.270 1620.920 37.079 2.670 o
-2 -4 8 279.198 287.695 17.620 16.851 o
-2 -4 9 1155.950 1124.860 47.699 2.330 o
-2 -4 10 277.503 317.225 33.057 5.770 o
-2 -4 11 407.754 421.523 62.661 1.688 o
-2 -3 1 399.913 409.813 4.900 38.463 o
-2 -3 2 4004.300 4012.160 40.284 0.944 o
-2 -3 3 162.172 179.065 4.371 95.250 o
-2 -3 4 4721.850 4716.020 62.441 0.597 o
-2 -3 5 134.866 120.425 10.013 49.210 o
-2 -3 6 2090.080 2008.480 51.841 1.545 o
-2 -3 7 60.516 71.216 6.270 119.415 o
-2 -3 8 1961.340 1886.430 53.214 1.557 o
-2 -3 9 199.613 202.500 14.492 25.024 o
-2 -3 10 1093.400 944.552 155.850 0.277 o
-2 -3 11 326.410 310.291 25.026 9.291 o
-2 -2 1 8459.490 8634.980 53.803 0.265 o
-2 -2 2 1.338 3.218 0.891 5204.180 o
-2 -2 3 5262.690 5198.960 51.200 0.579 o
-2 -2 4 53.236 67.130 2.646 292.749 o
-2 -2 5 2603.080 2683.700 34.635 1.772 o
-2 -2 6 134.086 143.407 6.955 76.000 o
-2 -2 7 2135.490 2274.020 37.515 2.052 o
-2 -2 8 190.662 209.061 10.367 40.191 o
-2 -2 9 2833.620 2824.760 55.102 1.131 o
-2 -2 10 297.475 33.774 66.503 1.536 o
-2 -2 11 597.311 606.720 28.205 6.502 o
-2 -2 12 73.582 73.453 12.536 38.634 o
-2 -1 1 3816.370 3904.860 25.219 1.166 o
-2 -1 2 3476.880 3513.150 22.197 1.401 o
-2 -1 3 207.949 217.418 3.711 82.646 o
-2 -1 4 3696.640 3571.730 30.485 1.200 o
-2 -1 5 52.906 63.894 3.379 250.055 o
-2 -1 6 5340.410 5265.990 89.018 0.395 o
-2 -1 7 86.573 105.294 7.165 87.499 o
-2 -1 8 1163.320 1198.530 26.910 4.800 o
-2 -1 9 38.305 2.398 10.635 57.287 o
-2 -1 10 1464.820 1468.430 35.673 3.020 o
-2 -1 11 195.424 192.990 13.429 28.309 o
-2 -1 12 1081.410 1120.490 40.938 2.980 o
-2 0 1 7246.920 7039.160 54.955 0.350 o
-2 0 2 1099.500 1085.980 8.396 9.721 o
-2 0 3 2911.690 2918.360 23.690 1.824 o
-2 0 4 1399.150 1413.860 15.184 5.873 o
-2 0 5 2797.920 2805.210 43.776 1.402 o
-2 0 6 35.289 31.083 4.014 269.728 o
-2 0 7 3288.710 3178.940 76.566 0.706 o
-2 0 8 28.357 29.617 4.606 236.137 o
-2 0 9 1773.470 1792.270 63.017 1.287 o
-2 0 10 2.326 5.897 3.189 620.095 o
-2 0 11 914.091 942.110 31.146 4.713 o
-2 0 12 73.632 67.532 11.114 47.800 o
-2 1 1 1023.560 962.651 8.939 10.794 o
-2 1 2 1183.570 1174.110 11.803 8.047 o
-2 1 3 4151.690 4322.850 49.720 0.794 o
-2 1 4 4128.590 4103.150 55.700 0.759 o
-2 1 5 469.168 459.087 11.718 21.216 o
-2 1 6 3332.050 3286.460 78.176 0.679 o
-2 1 7 4.262 -3.254 5.407 229.870 o
-2 1 8 802.550 758.160 24.879 6.834 o
-2 1 9 341.437 333.667 17.091 16.566 o
-2 1 10 1990.230 1960.470 62.511 1.239 o
-2 1 11 13.260 -12.470 7.232 126.093 o
-2 1 12 797.198 766.005 46.618 2.691 o
-2 2 1 1475.780 1532.020 14.709 5.475 o
-2 2 2 987.412 923.173 12.092 10.230 o
-2 2 3 2652.590 2705.920 43.839 1.472 o
-2 2 4 1650.840 1677.780 32.779 2.983 o
-2 2 5 1656.810 1685.720 59.797 1.431 o
-2 2 6 723.869 730.730 22.831 7.944 o
-2 2 7 1941.550 1909.860 51.901 1.610 o
-2 2 8 116.038 95.611 9.527 55.791 o
-2 2 9 924.871 960.978 34.766 4.026 o
-2 2 10 24.046 -4.268 10.949 55.499 o
-2 2 11 940.750 905.833 34.919 4.016 o
-2 3 1 3295.650 3414.420 51.145 1.029 o
-2 3 2 736.163 739.209 18.108 10.107 o
-2 3 3 1772.330 1769.370 33.800 2.737 o
-2 3 4 1763.910 1783.530 37.547 2.476 o
-2 3 5 672.930 722.731 22.926 8.136 o
-2 3 6 868.497 867.114 27.750 5.653 o
-2 3 7 265.690 276.590 16.212 19.362 o
-2 3 8 1267.490 1278.280 38.329 3.032 o
-2 3 9 302.398 314.206 18.641 15.094 o
-2 3 10 907.218 927.597 33.809 4.234 o
-2 3 11 36.245 21.911 8.264 89.500 o
-2 4 1 1498.910 1488.500 32.282 3.305 o
-2 4 2 825.232 873.265 23.981 6.864 o
-2 4 3 348.833 336.143 15.394 18.953 o
-2 4 4 788.833 809.042 27.340 6.032 o
-2 4 5 491.855 463.285 19.661 11.825 o
-2 4 6 1506.280 1470.040 49.422 1.979 o
-2 4 7 960.772 1014.420 44.080 2.779 o
-2 4 8 99.693 111.288 13.237 33.447 o
-2 4 9 503.300 463.292 27.766 7.097 o
-2 4 10 45.867 36.982 7.979 91.043 o
-2 5 1 1853.020 1834.730 42.257 2.115 o
-2 5 2 358.362 338.897 16.904 16.577 o
-2 5 3 814.607 832.388 27.968 5.765 o
-2 5 4 296.887 286.766 17.301 17.108 o
-2 5 5 794.883 780.754 31.827 4.909 o
-2 5 6 371.418 381.780 22.683 10.516 o
-2 5 7 463.815 411.197 32.664 5.543 o
-2 5 8 406.169 366.148 41.204 3.733 o
-2 6 1 151.408 131.893 10.805 42.621 o
-2 6 2 933.331 945.058 31.100 4.686 o
-2 6 3 0.904 -3.917 2.580 1011.400 o
-2 6 4 589.709 533.676 27.470 6.883 o
-2 6 5 260.272 255.437 17.392 17.623 o
-2 6 6 417.664 416.740 28.173 7.213 o
-2 7 1 435.110 418.008 19.756 12.340 o
-2 7 2 57.865 65.394 9.446 64.741 o
-2 7 3 915.967 844.003 51.953 2.177 o
-2 7 4 41.982 32.918 16.920 23.206 o
-1 -8 1 907.030 904.240 45.294 2.725 o
-1 -8 2 9.124 11.224 3.443 474.722 o
-1 -8 3 479.807 449.496 27.399 7.333 o
-1 -8 4 35.597 13.643 11.819 46.746 o
-1 -7 1 4.478 4.343 2.872 729.816 o
-1 -7 2 1257.590 1252.050 31.850 3.821 o
-1 -7 3 129.756 123.033 10.983 43.197 o
-1 -7 4 678.599 639.997 25.711 7.128 o
-1 -7 5 53.889 49.205 8.697 76.185 o
-1 -7 6 1336.840 1306.610 47.195 2.232 o
-1 -7 7 256.193 260.374 46.028 3.125 o
-1 -6 1 1093.990 1097.220 26.505 5.141 o
-1 -6 2 27.840 25.282 3.923 301.508 o
-1 -6 3 2687.520 2707.910 46.303 1.393 o
-1 -6 4 6.044 18.288 4.631 284.938 o
-1 -6 5 1146.690 1142.260 33.747 3.782 o
-1 -6 6 0.334 -3.919 0.683 13104.300 o
-1 -6 7 970.089 966.209 37.555 3.554 o
-1 -6 8 112.212 112.904 13.016 33.918 o
-1 -6 9 961.947 856.566 85.255 0.888 o
-1 -5 1 693.627 708.697 18.950 10.034 o
-1 -5 2 2568.220 2583.800 34.335 1.829 o
-1 -5 3 122.935 122.833 7.563 72.861 o
-1 -5 4 2086.060 2079.240 33.594 2.350 o
-1 -5 5 22.413 26.223 3.628 350.064 o
-1 -5 6 1858.360 1898.770 44.141 1.995 o
-1 -5 7 2.789 -3.208 3.055 701.366 o
-1 -5 8 1356.200 1355.860 39.948 2.771 o
-1 -5 9 68.188 63.721 8.159 80.374 o
-1 -5 10 851.856 881.592 34.438 4.228 o
-1 -4 1 3522.870 3585.520 47.122 1.018 o
-1 -4 2 694.620 719.758 15.560 12.030 o
-1 -4 3 4238.430 4232.800 44.001 0.838 o
-1 -4 4 3.387 -2.029 1.808 1778.560 o
-1 -4 5 902.857 879.264 16.695 9.200 o
-1 -4 6 579.698 552.812 16.886 12.955 o
-1 -4 7 3179.410 3089.860 54.786 1.030 o
-1 -4 8 16.204 14.222 3.383 439.289 o
-1 -4 9 1710.710 1770.330 47.712 1.915 o
-1 -4 10 108.396 129.558 13.652 31.165 o
-1 -4 11 509.304 493.025 27.498 7.149 o
-1 -3 1 1892.870 1974.880 17.512 3.665 o
-1 -3 2 2556.620 2618.280 24.826 2.145 o
-1 -3 3 1033.880 1037.870 11.860 9.486 o
-1 -3 4 4752.440 4726.340 42.313 0.724 o
-1 -3 5 663.221 695.518 11.394 15.613 o
-1 -3 6 2551.430 2528.640 39.148 1.693 o
-1 -3 7 131.268 126.556 7.827 68.261 o
-1 -3 8 1596.800 1572.340 38.455 2.622 o
-1 -3 9 34.804 33.133 5.533 171.660 o
-1 -3 10 1895.900 1891.310 46.177 1.878 o
-1 -3 11 3.602 -3.545 2.840 791.323 o
-1 -3 12 879.254 877.770 36.228 3.895 o
-1 -2 1 5512.110 5346.390 81.740 0.413 o
-1 -2 2 3684.810 3713.340 51.040 0.918 o
-1 -2 3 1603.470 1356.310 57.363 1.580 o
-1 -2 4 796.906 803.933 8.427 14.686 o
-1 -2 5 3179.510 2812.420 101.162 0.502 o
-1 -2 6 564.298 501.074 40.961 3.613 o
-1 -2 7 4314.220 3156.570 469.934 0.030 o
-1 -2 8 342.553 353.280 17.521 15.869 o
-1 -2 9 944.414 977.635 27.145 5.490 o
-1 -2 10 0.167 -3.336 1.478 3112.620 o
-1 -2 11 1570.790 1609.140 42.798 2.316 o
-1 -2 12 31.440 29.437 5.867 160.465 o
-1 -1 1 2574.810 2592.190 15.226 2.431 o
-1 -1 2 1284.140 1295.600 10.800 7.341 o
-1 -1 3 9226.650 9466.690 91.889 0.193 o
-1 -1 4 6515.170 6760.440 60.968 0.384 o
-1 -1 5 855.400 864.274 13.053 11.251 o
-1 -1 6 2305.880 2097.720 73.739 0.923 o
-1 -1 7 184.965 185.851 7.956 56.040 o
-1 -1 8 2110.280 2196.270 41.875 1.894 o
-1 -1 9 489.249 479.907 17.180 13.963 o
-1 -1 10 1597.150 1650.140 39.345 2.525 o
-1 -1 11 70.847 70.770 8.572 73.377 o
-1 -1 12 1275.590 1269.010 38.814 2.980 o
-1 -1 13 65.168 62.732 12.615 38.823 o
-1 0 1 3219.820 3254.930 21.024 1.601 o
-1 0 2 7055.850 6887.410 47.514 0.379 o
-1 0 3 3299.470 3264.110 34.050 1.340 o
-1 0 4 3388.690 3468.560 23.974 1.425 o
-1 0 5 1793.110 1787.130 23.783 3.504 o
-1 0 6 1188.420 1194.660 15.016 7.239 o
-1 0 7 2101.940 2115.840 40.689 1.973 o
-1 0 8 754.166 747.835 18.523 9.742 o
-1 0 9 2307.490 2313.900 49.353 1.503 o
-1 0 10 105.825 110.886 8.445 66.574 o
-1 0 11 1006.340 1008.030 33.393 4.112 o
-1 0 12 75.326 60.912 8.361 76.345 o
-1 0 13 794.723 757.827 35.882 4.120 o
-1 1 1 7855.000 7640.420 68.572 0.285 o
-1 1 2 1057.960 1064.550 10.916 9.484 o
-1 1 3 2867.430 2729.410 41.463 1.448 o
-1 1 4 3587.560 3595.640 53.700 0.914 o
-1 1 5 2942.200 3020.290 43.750 1.316 o
-1 1 6 1107.160 1036.840 19.733 6.773 o
-1 1 7 1486.560 1463.570 36.246 2.948 o
-1 1 8 1746.780 1727.420 40.731 2.302 o
-1 1 9 420.482 414.395 16.159 16.263 o
-1 1 10 905.959 947.703 27.776 5.465 o
-1 1 11 166.180 178.404 12.880 31.338 o
-1 1 12 1094.490 1047.620 33.436 3.958 o
-1 1 13 31.261 42.380 13.297 36.968 o
-1 2 1 1551.780 1577.280 15.153 5.115 o
-1 2 2 5375.400 5319.270 50.984 0.562 o
-1 2 3 853.072 881.234 10.658 12.330 o
-1 2 4 1314.690 1209.940 15.752 6.490 o
-1 2 5 230.367 239.089 7.040 53.865 o
-1 2 6 3612.200 3491.890 44.682 1.042 o
-1 2 7 1571.540 1526.540 44.261 2.244 o
-1 2 8 736.192 747.148 24.122 7.351 o
-1 2 9 1931.840 1826.810 68.740 1.100 o
-1 2 10 212.032 207.112 12.238 31.469 o
-1 2 11 229.464 249.772 14.681 23.363 o
-1 2 12 491.932 502.583 24.825 8.409 o
-1 3 1 3452.580 3423.300 37.063 1.210 o
-1 3 2 36.376 40.754 2.215 444.585 o
-1 3 3 3935.370 3928.390 40.899 0.962 o
-1 3 4 522.311 536.430 15.012 15.427 o
-1 3 5 2026.730 2021.470 37.212 2.220 o
-1 3 6 841.578 866.283 24.201 6.750 o
-1 3 7 1494.640 1470.810 40.455 2.582 o
-1 3 8 329.203 329.740 20.816 12.468 o
-1 3 9 650.812 674.045 25.674 7.177 o
-1 3 10 759.587 758.475 27.270 6.194 o
-1 3 11 209.098 207.796 14.421 24.928 o
-1 3 12 624.644 662.350 36.730 4.213 o
-1 4 1 0.464 3.313 1.204 3768.870 o
-1 4 2 2421.370 2444.660 38.202 1.812 o
-1 4 3 47.616 44.917 5.155 173.347 o
-1 4 4 2096.790 2124.410 38.107 2.095 o
-1 4 5 190.601 195.829 10.728 38.848 o
-1 4 6 1808.930 1863.560 50.213 1.737 o
-1 4 7 340.443 355.317 19.221 13.885 o
-1 4 8 836.848 876.827 32.532 4.614 o
-1 4 9 344.957 339.239 22.785 10.687 o
-1 4 10 408.856 412.607 27.090 7.727 o
-1 4 11 293.495 313.525 21.611 12.021 o
-1 5 1 1379.820 1457.390 37.109 2.970 o
-1 5 2 250.685 261.034 13.097 26.676 o
-1 5 3 4213.350 4210.680 98.097 0.435 o
-1 5 4 137.184 141.052 10.194 47.004 o
-1 5 5 395.536 392.180 17.459 15.134 o
-1 5 6 131.229 139.393 10.510 45.466 o
-1 5 7 851.167 856.067 31.043 4.919 o
-1 5 8 71.350 66.918 9.698 60.347 o
-1 5 9 1121.620 1051.590 90.712 0.778 o
-1 5 10 263.917 271.026 51.149 2.547 o
-1 6 1 118.834 105.858 8.812 61.430 o
-1 6 2 725.993 728.995 27.397 6.281 o
-1 6 3 4.236 0.594 3.090 665.332 o
-1 6 4 1746.480 1671.030 45.965 2.013 o
-1 6 5 0.166 -4.432 3.543 548.090 o
-1 6 6 689.325 723.957 29.877 5.642 o
-1 6 7 8.123 6.693 4.716 283.660 o
-1 6 8 440.575 422.886 27.571 7.404 o
-1 7 1 911.491 908.093 33.862 4.232 o
-1 7 2 143.949 151.435 14.508 26.932 o
-1 7 3 660.111 625.636 41.567 3.409 o
-1 7 4 1.181 1.307 2.929 774.148 o
-1 7 5 519.088 520.159 31.011 5.850 o
-1 7 6 2.792 0.763 4.720 301.877 o
0 -8 1 721.205 742.714 32.738 4.856 o
0 -8 2 100.206 110.320 15.332 25.925 o
0 -8 3 729.371 759.082 76.877 1.101 o
0 -7 1 321.126 306.483 16.870 17.307 o
0 -7 2 603.357 599.116 23.647 8.357 o
0 -7 3 108.728 93.389 8.603 65.674 o
0 -7 4 1332.750 1272.200 33.489 3.502 o
0 -7 5 104.508 106.656 10.598 47.949 o
0 -7 6 547.437 515.764 26.160 7.565 o
0 -7 7 36.386 41.739 10.584 56.200 o
0 -6 1 1555.300 1522.790 34.493 3.012 o
0 -6 2 328.703 340.813 14.347 21.074 o
0 -6 3 1070.280 1096.970 28.516 4.796 o
0 -6 4 208.647 192.506 10.983 36.832 o
0 -6 5 849.558 813.802 26.529 6.099 o
0 -6 6 191.896 199.619 12.173 32.620 o
0 -6 7 1071.810 1042.380 33.710 3.950 o
0 -6 8 67.385 67.283 9.258 65.591 o
0 -6 9 1079.580 1006.990 41.069 3.011 o
0 -5 1 1676.970 1675.390 31.720 3.046 o
0 -5 2 800.756 782.336 19.291 8.988 o
0 -5 3 788.847 812.276 19.974 8.668 o
0 -5 4 1283.940 1281.780 26.523 4.533 o
0 -5 5 749.367 751.413 21.909 8.177 o
0 -5 6 1799.100 1788.260 50.844 1.727 o
0 -5 7 67.181 58.861 7.256 96.871 o
0 -5 8 997.614 986.714 30.011 4.750 o
0 -5 9 81.612 99.752 9.987 54.931 o
0 -5 10 951.841 945.364 42.794 2.940 o
0 -4 1 1607.290 1583.410 18.599 4.566 o
0 -4 2 2044.340 2035.060 29.080 2.662 o
0 -4 3 1137.590 1165.110 24.403 5.381 o
0 -4 4 1458.290 1464.260 22.512 4.562 o
0 -4 5 2621.520 2663.400 35.191 1.750 o
0 -4 6 742.196 734.886 19.470 9.378 o
0 -4 7 978.214 979.732 21.857 6.787 o
0 -4 8 389.196 393.210 18.018 14.562 o
0 -4 9 1226.250 1168.130 39.288 3.016 o
0 -4 10 10.493 6.472 3.042 587.206 o
0 -4 11 1445.580 1385.840 46.353 2.214 o
0 -4 12 32.912 17.719 14.093 33.426 o
0 -3 1 1902.360 1785.450 14.309 4.050 o
0 -3 2 173.579 172.191 3.722 99.804 o
0 -3 3 6969.990 7149.920 48.025 0.375 o
0 -3 4 1759.030 1539.880 60.085 1.413 o
0 -3 5 1198.150 1180.630 17.809 6.592 o
0 -3 6 3359.480 3367.850 48.391 1.063 o
0 -3 7 167.534 178.334 8.587 53.778 o
0 -3 8 796.829 789.070 23.847 7.157 o
0 -3 9 1603.380 1554.930 39.293 2.560 o
0 -3 10 1195.570 1239.620 38.200 3.127 o
0 -3 11 1.971 -4.163 3.216 644.730 o
0 -3 12 1248.900 1235.130 70.752 1.192 o
0 -2 1 1096.210 1106.940 12.643 8.587 o
0 -2 2 5616.990 5718.060 42.346 0.553 o
0 -2 3 2241.300 2188.200 30.436 2.343 o
0 -2 4 3047.590 3163.460 29.099 1.564 o
0 -2 5 937.801 929.291 9.393 11.671 o
0 -2 6 2448.170 2423.550 21.846 2.427 o
0 -2 7 1612.270 1585.780 25.922 3.745 o
0 -2 8 875.309 814.216 21.489 7.648 o
0 -2 9 1997.110 1943.350 52.659 1.557 o
0 -2 10 477.870 459.037 22.790 9.711 o
0 -2 11 887.724 914.258 30.652 4.886 o
0 -2 12 119.889 120.503 13.252 32.517 o
0 -2 13 687.816 735.001 31.850 5.124 o
0 -1 1 3588.550 3597.260 20.964 1.351 o
0 -1 2 1974.550 1980.260 27.297 2.876 o
0 -1 3 9034.200 8938.010 74.211 0.221 o
0 -1 4 1348.490 1332.470 11.421 6.830 o
0 -1 5 4630.700 4712.720 50.749 0.686 o
0 -1 6 1001.670 1053.080 10.443 10.123 o
0 -1 7 1467.190 1378.730 21.462 4.787 o
0 -1 8 1406.950 1466.170 25.650 4.241 o
0 -1 9 1098.380 1162.850 31.360 4.193 o
0 -1 10 1383.840 1422.580 34.781 3.214 o
0 -1 11 389.070 393.969 19.792 12.753 o
0 -1 12 756.395 803.602 34.590 4.378 o
0 -1 13 210.829 205.457 16.505 20.209 o
0 0 1 600.071 610.132 6.070 22.694 o
0 0 2 1744.490 1759.030 11.922 4.625 o
0 0 3 122.936 77.450 10.979 45.106 o
0 0 4 2477.860 2431.670 21.868 2.394 o
0 0 5 331.783 362.405 5.088 45.494 o
0 0 6 8302.320 8737.320 86.811 0.228 o
0 0 7 1779.940 1777.700 22.532 3.639 o
0 0 8 1170.450 1150.170 21.915 5.834 o
0 0 9 978.886 1009.890 26.542 5.510 o
0 0 10 731.697 690.407 23.007 7.922 o
0 0 11 606.988 644.694 23.176 8.471 o
0 0 12 346.102 347.935 29.838 6.774 o
0 0 13 774.140 768.683 30.174 5.348 o
0 1 0 7.042 9.481 0.584 2786.010 o
0 1 1 10858.900 10249.900 115.099 0.142 o
0 1 2 120.647 128.479 2.828 151.326 o
0 1 3 8443.910 8069.010 121.695 0.187 o
0 1 4 19.128 12.860 1.689 916.220 o
0 1 5 4866.680 4222.340 118.779 0.320 o
0 1 6 1045.320 1075.570 10.809 9.569 o
0 1 7 2413.710 2470.290 45.736 1.552 o
0 1 8 419.266 426.707 13.243 20.282 o
0 1 9 1294.270 1329.060 26.463 4.475 o
0 1 10 874.913 859.998 21.744 7.462 o
0 1 11 1214.260 1176.240 33.087 3.763 o
0 1 12 575.217 583.497 25.392 7.695 o
0 1 13 202.651 204.543 16.918 19.547 o
0 2 0 8212.730 8215.130 69.865 0.261 o
0 2 1 0.800 0.771 1.013 5565.600 o
0 2 2 5123.100 4987.160 49.142 0.617 o
0 2 3 188.749 183.114 4.405 86.442 o
0 2 4 5714.840 5551.400 57.540 0.492 o
0 2 5 180.126 173.077 4.675 87.485 o
0 2 6 2956.840 2915.920 55.507 1.085 o
0 2 7 334.578 336.096 14.864 20.081 o
0 2 8 2435.080 2418.530 46.996 1.514 o
0 2 9 217.080 232.146 12.184 31.003 o
0 2 10 1019.760 1089.530 29.468 4.719 o
0 2 11 683.909 688.829 22.459 8.370 o
0 2 12 358.573 367.171 18.061 14.959 o
0 2 13 310.454 325.526 20.960 12.475 o
0 3 0 1480.550 1546.940 15.236 5.368 o
0 3 1 4490.500 4561.150 41.303 0.787 o
0 3 2 841.420 851.559 10.937 12.495 o
0 3 3 5881.230 5754.540 50.038 0.498 o
0 3 4 55.627 54.669 2.836 289.491 o
0 3 5 3216.850 3260.870 51.278 1.062 o
0 3 6 166.221 192.655 9.927 44.641 o
0 3 7 1578.120 1636.880 44.380 2.202 o
0 3 8 5.461 9.369 2.590 807.294 o
0 3 9 1997.620 2033.470 47.289 1.752 o
0 3 10 324.236 319.578 16.665 17.481 o
0 3 11 796.833 819.870 30.730 5.121 o
0 3 12 450.037 459.120 27.867 7.203 o
0 4 0 2027.170 1999.860 22.444 3.113 o
0 4 1 391.609 399.364 9.583 28.424 o
0 4 2 4286.510 4202.260 52.089 0.761 o
0 4 3 70.610 74.699 5.251 142.323 o
0 4 4 2437.440 2423.340 45.559 1.557 o
0 4 5 391.353 389.619 13.029 21.630 o
0 4 6 1575.210 1570.220 30.949 3.297 o
0 4 7 144.076 136.816 10.287 46.056 o
0 4 8 1867.510 1860.050 46.409 1.888 o
0 4 9 89.217 88.360 10.069 54.049 o
0 4 10 956.074 1004.550 38.943 3.365 o
0 4 11 20.519 26.156 5.477 190.627 o
0 4 12 456.492 472.280 73.069 1.248 o
0 5 0 1601.490 1591.950 28.045 3.537 o
0 5 1 1723.530 1665.720 31.846 2.990 o
0 5 2 423.632 427.651 16.341 15.916 o
0 5 3 1265.480 1221.960 27.032 4.547 o
0 5 4 49.861 50.130 5.680 148.534 o
0 5 5 2733.840 2715.200 53.184 1.211 o
0 5 6 108.564 94.650 8.973 61.788 o
0 5 7 908.670 925.181 30.149 4.944 o
0 5 8 4.328 4.966 2.776 772.060 o
0 5 9 734.774 751.999 37.868 3.851 o
0 5 10 55.028 44.970 8.141 85.183 o
0 5 11 738.943 803.134 60.041 1.735 o
0 6 0 1780.280 1656.910 38.566 2.443 o
0 6 1 236.118 247.110 13.782 25.445 o
0 6 2 832.286 841.251 32.115 4.735 o
0 6 3 391.627 405.457 19.928 12.565 o
0 6 4 468.882 475.200 20.437 11.340 o
0 6 5 437.135 422.296 19.726 12.335 o
0 6 6 2017.280 2053.700 47.833 1.717 o
0 6 7 14.289 9.581 3.825 381.016 o
0 6 8 468.322 465.043 23.807 9.132 o
0 6 9 14.562 11.507 4.615 275.924 o
0 7 0 546.047 516.551 24.083 8.547 o
0 7 1 605.601 558.570 27.569 6.769 o
0 7 2 593.368 549.101 23.615 8.519 o
0 7 3 584.229 615.099 27.189 6.891 o
0 7 4 232.445 211.619 17.442 18.171 o
0 7 5 498.828 475.947 26.338 7.704 o
0 7 6 91.355 87.471 11.243 45.079 o
0 7 7 567.170 556.134 32.081 5.422 o
0 8 0 134.785 128.368 13.687 30.233 o
0 8 1 264.590 253.094 19.259 14.972 o
0 8 2 285.066 252.478 21.561 12.309 o
0 8 3 305.868 310.359 30.770 6.527 o
0 8 4 314.289 290.015 52.419 2.414 o
1 -8 1 227.452 216.866 44.041 3.424 o
1 -7 0 214.797 206.389 13.426 27.557 o
1 -7 1 508.413 493.789 21.950 9.993 o
1 -7 2 194.818 183.919 13.303 28.861 o
1 -7 3 520.593 562.297 25.333 7.948 o
1 -7 4 425.938 418.742 20.346 11.901 o
1 -7 5 370.460 345.742 19.851 13.031 o
1 -7 6 549.095 561.570 25.647 7.709 o
1 -7 7 123.055 106.805 29.210 7.759 o
1 -6 0 1164.780 1166.700 32.916 3.859 o
1 -6 1 322.910 295.925 14.058 22.213 o
1 -6 2 1537.630 1464.070 37.480 2.793 o
1 -6 3 299.239 279.623 14.081 22.859 o
1 -6 4 551.288 554.898 20.284 10.645 o
1 -6 5 544.648 535.666 19.162 11.547 o
1 -6 6 532.894 536.030 20.543 10.649 o
1 -6 7 578.949 566.372 21.512 9.682 o
1 -6 8 195.419 206.660 13.886 26.746 o
1 -6 9 498.734 466.782 30.204 6.202 o
1 -5 0 17.864 18.000 3.391 420.160 o
1 -5 1 1020.820 1040.630 23.730 6.035 o
1 -5 2 79.018 74.933 5.595 127.819 o
1 -5 3 3007.030 2879.530 41.931 1.358 o
1 -5 4 939.709 981.635 21.947 6.900 o
1 -5 5 747.761 769.304 23.785 7.395 o
1 -5 6 754.492 788.040 22.521 7.822 o
1 -5 7 773.359 773.105 22.705 7.703 o
1 -5 8 355.798 352.187 16.337 17.306 o
1 -5 9 337.169 318.067 19.549 13.720 o
1 -5 10 553.077 570.633 31.457 5.608 o
1 -4 0 3308.730 3298.410 37.737 1.266 o
1 -4 1 29.059 33.197 2.637 447.113 o
1 -4 2 3539.540 3511.780 40.603 1.117 o
1 -4 3 633.871 728.321 15.577 12.564 o
1 -4 4 1866.640 1829.760 29.549 2.924 o
1 -4 5 178.111 174.542 8.727 51.930 o
1 -4 6 1106.930 1150.810 28.487 4.677 o
1 -4 7 825.906 797.068 22.896 7.374 o
1 -4 8 1303.020 1312.890 31.299 3.787 o
1 -4 9 1088.680 1084.020 28.791 4.721 o
1 -4 10 466.874 417.740 24.556 8.813 o
1 -4 11 244.491 244.126 19.302 15.141 o
1 -4 12 76.285 87.793 19.110 17.747 o
1 -3 0 91.632 93.640 3.135 185.663 o
1 -3 1 4893.600 5018.850 34.962 0.723 o
1 -3 2 226.862 242.771 4.609 69.475 o
1 -3 3 3587.490 3497.160 25.172 1.321 o
1 -3 4 183.705 177.001 4.422 88.528 o
1 -3 5 3176.740 3134.250 47.463 1.155 o
1 -3 6 392.146 392.757 12.441 22.637 o
1 -3 7 2101.610 2079.140 38.025 2.110 o
1 -3 8 967.482 962.429 23.374 6.421 o
1 -3 9 530.151 540.294 19.902 11.097 o
1 -3 10 476.508 509.930 21.607 10.349 o
1 -3 11 932.140 892.113 36.523 3.782 o
1 -3 12 586.666 568.431 29.598 6.108 o
1 -3 13 165.916 153.549 35.376 5.295 o
1 -2 0 9159.640 9135.510 66.081 0.224 o
1 -2 1 23.793 38.763 1.735 626.707 o
1 -2 2 3527.780 3379.170 20.928 1.423 o
1 -2 3 1164.570 1269.130 9.948 8.262 o
1 -2 4 3530.310 3467.080 22.830 1.380 o
1 -2 5 78.278 93.406 2.665 218.614 o
1 -2 6 5507.450 5504.840 53.193 0.530 o
1 -2 7 498.589 511.638 12.999 18.291 o
1 -2 8 1745.070 1724.640 33.233 2.827 o
1 -2 9 1272.140 1294.950 32.795 3.649 o
1 -2 10 517.915 501.514 20.751 10.709 o
1 -2 11 178.883 156.182 14.374 26.405 o
1 -2 12 1017.450 1006.250 39.139 3.285 o
1 -2 13 682.898 698.038 33.218 4.842 o
1 -1 0 246.644 274.670 3.350 69.660 o
1 -1 1 11290.400 11403.300 61.667 0.158 o
1 -1 2 4274.830 4335.420 22.985 0.989 o
1 -1 3 4871.010 4760.220 29.164 0.779 o
1 -1 4 69.654 84.757 1.906 271.940 o
1 -1 5 5106.230 4964.390 28.414 0.725 o
1 -1 6 868.111 892.418 9.702 12.529 o
1 -1 7 3154.600 3172.010 33.013 1.435 o
1 -1 8 42.709 39.313 4.144 238.867 o
1 -1 9 1878.400 1825.540 39.986 2.230 o
1 -1 10 453.183 444.997 18.952 12.801 o
1 -1 11 1130.520 1121.290 39.514 3.093 o
1 -1 12 500.628 515.850 24.897 8.315 o
1 -1 13 330.881 324.377 20.387 12.887 o
1 -1 14 428.940 387.847 60.142 1.825 o
1 0 0 2748.360 2826.060 12.418 2.218 o
1 0 1 540.240 566.163 4.404 27.182 o
1 0 2 13841.900 13203.000 63.331 0.113 o
1 0 3 16.831 20.290 1.018 1154.250 o
1 0 4 5795.970 5240.460 125.457 0.262 o
1 0 5 94.497 105.994 2.277 200.158 o
1 0 6 3861.780 3723.880 27.177 1.161 o
1 0 7 66.361 71.448 3.247 228.298 o
1 0 8 3647.130 3634.710 46.278 0.995 o
1 0 9 261.975 281.200 11.393 30.956 o
1 0 10 1263.050 1266.420 30.132 4.040 o
1 0 11 399.518 402.653 19.206 13.192 o
1 0 12 1167.910 1203.430 36.662 3.346 o
1 0 13 185.953 182.170 13.243 29.357 o
1 0 14 318.829 308.495 24.208 9.860 o
1 1 0 1169.860 1195.560 6.803 9.049 o
1 1 1 2276.270 2286.830 12.290 3.057 o
1 1 2 6747.710 6827.760 37.157 0.421 o
1 1 3 18518.100 18173.600 119.730 0.059 o
1 1 4 210.408 236.929 3.106 83.572 o
1 1 5 2689.740 2633.890 20.817 2.156 o
1 1 6 48.592 48.467 2.048 384.133 o
1 1 7 2489.130 2561.870 26.880 2.147 o
1 1 8 26.790 27.925 3.101 402.179 o
1 1 9 3777.420 3859.060 62.864 0.756 o
1 1 10 242.374 232.242 10.988 34.224 o
1 1 11 841.631 833.094 24.936 6.571 o
1 1 12 235.694 229.123 13.428 26.642 o
1 1 13 691.257 708.429 26.507 6.698 o
1 1 14 201.493 188.576 17.039 19.449 o
1 2 0 5770.350 5736.240 37.797 0.552 o
1 2 1 2447.770 2448.090 15.199 2.643 o
1 2 2 5141.390 5057.370 32.642 0.694 o
1 2 3 901.729 946.571 7.833 12.553 o
1 2 4 3238.620 2757.720 105.177 0.472 o
1 2 5 408.836 407.213 5.670 36.299 o
1 2 6 4036.540 4116.390 44.818 0.880 o
1 2 7 53.436 52.366 5.445 154.101 o
1 2 8 3400.290 3346.430 49.219 1.043 o
1 2 9 10.769 13.590 2.787 629.235 o
1 2 10 1185.160 1181.750 26.856 4.782 o
1 2 11 35.939 31.713 4.802 210.848 o
1 2 12 943.047 962.399 32.423 4.405 o
1 2 13 113.280 105.637 10.145 50.610 o
1 2 14 589.076 506.676 59.855 1.803 o
1 3 0 3278.780 3387.840 27.983 1.428 o
1 3 1 1733.070 1686.370 15.775 4.427 o
1 3 2 1159.800 1131.460 10.520 8.619 o
1 3 3 5506.560 5505.780 53.719 0.528 o
1 3 4 955.851 965.378 11.326 10.602 o
1 3 5 2978.710 2987.600 25.334 1.726 o
1 3 6 809.672 816.286 13.922 11.463 o
1 3 7 1758.240 1745.250 30.374 3.028 o
1 3 8 41.611 46.878 5.357 168.549 o
1 3 9 2021.180 2013.860 54.420 1.476 o
1 3 10 33.393 30.608 5.309 185.240 o
1 3 11 1368.610 1354.540 36.312 3.107 o
1 3 12 1.490 -9.126 4.302 367.421 o
1 3 13 567.037 604.543 28.539 6.464 o
1 4 0 4227.950 4342.260 43.274 0.837 o
1 4 1 1361.160 1392.750 15.788 5.953 o
1 4 2 473.116 457.947 9.487 24.722 o
1 4 3 1782.230 1835.770 22.614 3.581 o
1 4 4 1589.960 1629.620 24.711 3.875 o
1 4 5 587.336 605.947 17.701 12.009 o
1 4 6 3683.980 3628.340 43.846 1.020 o
1 4 7 485.180 481.570 16.569 14.608 o
1 4 8 1156.240 1157.990 32.457 3.943 o
1 4 9 3.692 -7.628 3.725 474.442 o
1 4 10 632.600 668.538 32.560 5.098 o
1 4 11 15.749 11.294 4.220 317.744 o
1 4 12 1120.480 1199.150 42.534 2.764 o
1 5 0 1571.860 1583.780 29.168 3.470 o
1 5 1 611.534 602.077 17.687 11.832 o
1 5 2 1975.220 1971.180 33.271 2.502 o
1 5 3 1234.650 1207.730 26.929 4.640 o
1 5 4 1217.220 1247.840 26.199 4.759 o
1 5 5 1340.830 1338.300 27.744 4.191 o
1 5 6 218.587 218.200 11.186 34.889 o
1 5 7 989.184 981.519 36.004 3.746 o
1 5 8 369.005 355.208 17.750 15.281 o
1 5 9 1005.370 993.378 34.308 3.976 o
1 5 10 57.229 63.388 9.508 64.229 o
1 5 11 643.644 668.847 31.576 5.327 o
1 6 0 271.041 285.170 13.371 25.088 o
1 6 1 1431.260 1440.800 29.420 3.744 o
1 6 2 670.325 639.455 21.268 9.133 o
1 6 3 1372.150 1377.180 36.986 3.026 o
1 6 4 530.941 547.406 18.837 11.852 o
1 6 5 531.185 518.222 19.866 11.192 o
1 6 6 469.521 462.301 21.427 10.650 o
1 6 7 448.445 468.413 21.348 10.814 o
1 6 8 976.160 983.752 32.198 4.379 o
1 6 9 68.230 78.654 9.757 59.455 o
1 6 10 443.402 461.243 31.683 5.831 o
1 7 0 1207.620 1236.060 34.529 3.546 o
1 7 1 5.705 7.651 2.469 881.958 o
1 7 2 1197.200 1222.420 31.250 4.014 o
1 7 3 733.543 738.086 25.343 6.929 o
1 7 4 442.154 419.788 20.405 11.736 o
1 7 5 255.063 259.412 15.306 21.400 o
1 7 6 370.409 352.686 19.975 12.883 o
1 7 7 201.297 231.510 14.857 23.742 o
1 7 8 618.684 626.128 28.563 6.305 o
1 8 0 44.738 45.452 7.935 91.145 o
1 8 1 767.115 800.988 33.871 4.506 o
1 8 2 46.678 48.236 8.399 82.211 o
1 8 3 516.191 515.544 24.778 8.316 o
1 8 4 113.523 108.222 12.097 38.311 o
1 8 5 562.020 493.507 54.324 2.169 o
2 -7 0 76.055 76.549 8.401 74.331 o
2 -7 1 441.649 430.869 21.112 11.146 o
2 -7 2 0.580 2.347 2.749 875.865 o
2 -7 3 1081.440 1046.400 38.623 3.271 o
2 -7 4 49.570 48.739 10.205 58.393 o
2 -7 5 458.980 414.603 34.391 5.075 o
2 -6 0 1199.810 1175.470 32.389 3.880 o
2 -6 1 8.693 8.385 2.898 642.350 o
2 -6 2 1007.260 947.138 29.797 4.811 o
2 -6 3 153.301 140.008 12.031 36.067 o
2 -6 4 815.480 805.150 27.353 5.966 o
2 -6 5 30.422 36.270 5.402 180.511 o
2 -6 6 730.387 685.833 27.411 6.322 o
2 -6 7 180.467 177.076 13.685 28.170 o
2 -6 8 729.807 668.846 32.986 4.845 o
2 -5 0 4.428 -3.857 3.348 574.310 o
2 -5 1 1434.780 1434.500 32.783 3.362 o
2 -5 2 14.022 11.744 2.970 554.234 o
2 -5 3 1412.660 1466.240 31.712 3.487 o
2 -5 4 0.146 16.470 3.490 503.752 o
2 -5 5 1749.320 1783.070 41.524 2.234 o
2 -5 6 110.148 100.411 8.032 71.394 o
2 -5 7 643.087 672.163 24.369 7.732 o
2 -5 8 277.227 280.414 15.771 19.937 o
2 -5 9 749.892 683.443 29.670 5.615 o
2 -5 10 198.857 188.308 15.778 22.068 o
2 -4 0 4285.120 4284.800 68.176 0.623 o
2 -4 1 15.110 16.459 2.959 529.728 o
2 -4 2 1535.310 1545.100 27.924 3.682 o
2 -4 3 15.380 16.267 2.331 709.057 o
2 -4 4 1735.690 1721.750 28.588 3.218 o
2 -4 5 65.740 47.675 5.033 162.494 o
2 -4 6 2614.260 2543.730 49.136 1.369 o
2 -4 7 234.395 223.737 12.088 30.844 o
2 -4 8 960.893 974.536 26.783 5.541 o
2 -4 9 143.747 132.321 10.434 45.320 o
2 -4 10 679.019 655.507 28.606 6.112 o
2 -4 11 225.432 217.578 16.590 19.733 o
2 -3 0 558.870 564.867 10.944 19.097 o
2 -3 1 2006.600 1979.420 20.078 3.307 o
2 -3 2 753.717 774.067 11.453 13.739 o
2 -3 3 2432.400 2411.750 22.698 2.415 o
2 -3 4 0.557 -1.358 1.056 5675.620 o
2 -3 5 4620.700 4614.560 50.743 0.694 o
2 -3 6 9.384 11.491 2.316 850.260 o
2 -3 7 1409.310 1431.480 27.615 4.010 o
2 -3 8 1.436 -2.588 2.112 1461.740 o
2 -3 9 1199.930 1200.370 29.531 4.288 o
2 -3 10 192.091 199.731 14.762 24.524 o
2 -3 11 1132.550 1064.120 36.599 3.463 o
2 -3 12 253.107 222.545 17.010 18.554 o
2 -2 0 3969.160 4026.920 26.381 1.089 o
2 -2 1 626.697 578.791 6.862 21.643 o
2 -2 2 5671.050 5911.790 35.507 0.561 o
2 -2 3 1968.930 2056.670 14.956 3.616 o
2 -2 4 2269.420 2270.330 15.993 2.941 o
2 -2 5 12.301 17.783 1.638 1053.390 o
2 -2 6 2406.870 2337.310 26.118 2.335 o
2 -2 7 13.810 11.951 2.117 853.045 o
2 -2 8 3245.140 3273.620 48.459 1.101 o
2 -2 9 0.269 -2.685 2.534 1066.060 o
2 -2 10 1436.950 1437.210 37.479 2.893 o
2 -2 11 300.703 288.946 16.432 18.380 o
2 -2 12 484.541 458.791 23.353 9.338 o
2 -2 13 24.284 16.838 9.109 77.504 o
2 -1 0 4026.230 4143.170 29.955 1.024 o
2 -1 1 2096.730 2093.620 14.501 3.390 o
2 -1 2 1426.870 1097.410 58.945 1.594 o
2 -1 3 8290.890 8354.750 39.006 0.293 o
2 -1 4 704.457 737.388 6.503 18.059 o
2 -1 5 3998.070 3995.010 22.917 1.115 o
2 -1 6 69.023 73.185 2.743 247.025 o
2 -1 7 1623.030 1521.530 24.301 3.957 o
2 -1 8 155.936 146.144 7.545 65.841 o
2 -1 9 3029.770 3011.430 46.893 1.224 o
2 -1 10 15.761 16.950 3.399 431.503 o
2 -1 11 1379.330 1381.540 37.164 3.000 o
2 -1 12 260.162 250.643 15.516 20.968 o
2 -1 13 600.105 551.419 29.267 6.204 o
2 -1 14 0.682 -9.988 7.139 135.019 o
2 0 0 2443.590 2416.680 13.939 2.704 o
2 0 1 3153.070 3157.570 18.081 1.711 o
2 0 2 5921.640 5801.250 31.134 0.553 o
2 0 3 692.485 671.625 5.319 19.828 o
2 0 4 2474.840 2480.120 14.693 2.610 o
2 0 5 1897.390 1906.220 12.268 4.061 o
2 0 6 4037.450 4011.250 27.263 1.064 o
2 0 7 314.142 300.484 6.943 43.340 o
2 0 8 3080.460 3106.550 38.057 1.374 o
2 0 9 2.112 -1.760 1.809 1889.140 o
2 0 10 1572.820 1540.010 30.016 3.412 o
2 0 11 13.436 15.351 3.707 392.102 o
2 0 12 1033.000 1023.010 33.669 4.021 o
2 0 13 57.960 53.493 9.872 60.719 o
2 0 14 779.182 796.637 34.301 4.407 o
2 1 0 6034.370 5996.780 32.905 0.526 o
2 1 1 2592.720 2554.710 14.726 2.445 o
2 1 2 3204.840 3141.830 16.197 1.712 o
2 1 3 1885.770 1854.190 11.290 4.202 o
2 1 4 3928.580 3971.390 20.758 1.159 o
2 1 5 4845.880 4805.700 29.424 0.778 o
2 1 6 227.204 212.201 4.028 76.403 o
2 1 7 2372.190 2365.070 20.671 2.577 o
2 1 8 318.049 307.859 10.014 32.307 o
2 1 9 2093.500 2042.320 39.883 2.036 o
2 1 10 249.913 242.427 14.388 23.682 o
2 1 11 1553.300 1566.920 42.575 2.355 o
2 1 12 28.282 20.879 4.559 246.942 o
2 1 13 770.687 816.279 31.857 4.913 o
2 1 14 17.129 13.846 4.388 291.636 o
2 2 0 4186.080 4299.130 23.076 1.016 o
2 2 1 2230.050 2207.220 13.269 3.147 o
2 2 2 826.473 795.893 6.343 15.281 o
2 2 3 1172.340 1081.440 8.409 9.164 o
2 2 4 1912.260 1952.710 12.919 3.942 o
2 2 5 5837.100 5965.950 37.873 0.533 o
2 2 6 5075.220 5116.540 34.986 0.688 o
2 2 7 298.277 296.789 8.422 39.052 o
2 2 8 820.193 814.392 17.637 9.531 o
2 2 9 64.412 62.563 4.853 164.576 o
2 2 10 1928.620 1936.470 35.174 2.439 o
2 2 11 327.517 350.708 13.690 22.250 o
2 2 12 1345.120 1388.880 32.631 3.516 o
2 2 13 0.088 -3.376 2.039 1653.360 o
2 2 14 385.289 399.704 27.884 7.446 o
2 3 0 2862.640 2901.410 25.317 1.821 o
2 3 1 721.179 741.549 8.690 16.278 o
2 3 2 6851.470 6700.130 38.938 0.415 o
2 3 3 1076.980 1057.470 9.821 9.665 o
2 3 4 2071.480 2077.930 16.053 3.365 o
2 3 5 1845.270 1838.510 18.146 3.831 o
2 3 6 655.195 668.051 11.847 15.575 o
2 3 7 1892.720 1931.080 27.193 3.006 o
2 3 8 1525.680 1496.180 32.183 3.279 o
2 3 9 930.766 960.845 24.692 6.174 o
2 3 10 157.321 163.636 11.185 39.332 o
2 3 11 1163.590 1187.040 35.621 3.487 o
2 3 12 13.493 -9.741 7.393 120.778 o
2 3 13 752.400 811.178 32.547 4.795 o
2 4 0 300.545 317.689 6.647 44.896 o
2 4 1 3631.420 3645.760 32.011 1.190 o
2 4 2 602.441 627.700 9.092 19.465 o
2 4 3 2347.570 2379.900 21.828 2.548 o
2 4 4 545.424 511.159 10.452 20.591 o
2 4 5 2147.620 2125.830 31.163 2.410 o
2 4 6 1036.600 1038.450 18.364 7.454 o
2 4 7 924.856 957.090 22.558 6.815 o
2 4 8 1171.450 1209.860 27.596 4.651 o
2 4 9 651.002 691.061 25.329 7.282 o
2 4 10 887.742 865.005 33.516 4.358 o
2 4 11 112.671 114.386 11.771 39.928 o
2 4 12 437.423 471.511 26.813 7.683 o
2 4 13 95.662 89.240 15.234 26.549 o
2 5 0 2635.420 2634.480 33.408 1.807 o
2 5 1 190.788 183.991 7.385 59.696 o
2 5 2 3339.580 3322.230 39.828 1.216 o
2 5 3 987.742 990.095 18.981 7.605 o
2 5 4 1473.610 1464.180 25.429 4.147 o
2 5 5 66.787 70.722 5.182 148.217 o
2 5 6 1359.570 1384.850 28.335 4.037 o
2 5 7 561.675 586.609 18.740 11.534 o
2 5 8 731.913 736.087 22.778 7.921 o
2 5 9 777.176 856.908 28.678 5.633 o
2 5 10 373.273 374.730 22.756 10.472 o
2 5 11 574.708 591.713 29.185 6.243 o
2 5 12 115.698 99.829 21.366 14.083 o
2 6 0 38.483 36.781 4.372 231.853 o
2 6 1 2077.060 2142.700 48.328 1.656 o
2 6 2 22.809 24.602 3.191 414.230 o
2 6 3 982.314 971.519 21.038 7.030 o
2 6 4 123.818 118.905 7.476 74.078 o
2 6 5 1649.850 1673.230 30.482 3.187 o
2 6 6 247.727 240.380 11.500 31.989 o
2 6 7 918.600 900.548 24.987 6.218 o
2 6 8 384.331 395.684 19.484 13.077 o
2 6 9 444.299 443.156 24.784 8.726 o
2 6 10 163.991 165.706 18.746 17.093 o
2 7 0 1416.150 1464.500 33.451 3.295 o
2 7 1 0.280 -3.317 2.846 846.569 o
2 7 2 1173.190 1139.880 37.851 3.233 o
2 7 3 2.182 6.077 2.197 1195.740 o
2 7 4 1187.550 1225.660 30.833 4.088 o
2 7 5 119.050 112.746 9.445 55.334 o
2 7 6 789.013 774.607 27.868 5.923 o
2 7 7 64.364 51.791 6.812 108.352 o
2 7 8 297.338 301.365 20.461 13.145 o
2 8 0 29.905 32.054 5.743 166.169 o
2 8 1 668.941 717.384 25.241 7.212 o
2 8 2 19.772 38.951 5.966 160.979 o
2 8 3 750.646 775.142 28.366 5.873 o
2 8 4 20.262 15.398 3.834 347.966 o
2 8 5 827.677 819.567 36.556 3.933 o
2 8 6 121.407 141.382 36.831 4.942 o
3 -6 0 687.550 671.799 24.979 7.327 o
3 -6 1 106.182 108.435 10.445 48.844 o
3 -6 2 827.278 856.081 34.328 4.298 o
3 -6 3 18.192 13.667 4.522 275.596 o
3 -6 4 448.383 473.965 24.568 8.768 o
3 -6 5 57.646 76.705 10.539 53.263 o
3 -6 6 842.720 877.806 31.854 4.743 o
3 -6 7 0.593 -4.534 5.890 198.216 o
3 -5 0 233.845 224.619 14.071 25.039 o
3 -5 1 520.476 503.133 21.356 10.283 o
3 -5 2 378.706 387.793 19.349 13.288 o
3 -5 3 1157.150 1136.000 32.464 3.956 o
3 -5 4 135.768 144.401 13.943 29.067 o
3 -5 5 1257.120 1246.380 47.523 2.264 o
3 -5 6 3.485 6.836 2.283 1068.220 o
3 -5 7 605.339 597.888 25.454 7.541 o
3 -5 8 1.903 -3.663 3.459 560.395 o
3 -5 9 682.067 673.853 31.106 5.376 o
3 -4 0 727.701 725.503 23.985 7.474 o
3 -4 1 1607.210 1665.770 39.466 2.504 o
3 -4 2 1743.160 1717.210 36.390 2.598 o
3 -4 3 162.203 165.747 10.122 44.745 o
3 -4 4 800.928 791.593 22.000 7.823 o
3 -4 5 50.565 61.772 6.628 116.086 o
3 -4 6 1538.740 1510.330 44.818 2.231 o
3 -4 7 352.722 343.006 17.760 15.512 o
3 -4 8 1237.150 1297.400 37.458 3.142 o
3 -4 9 8.092 6.597 2.831 684.383 o
3 -4 10 563.479 597.883 30.394 5.877 o
3 -4 11 33.289 34.730 7.113 114.923 o
3 -3 0 679.696 671.311 17.760 10.960 o
3 -3 1 648.388 650.400 17.119 11.714 o
3 -3 2 2473.890 2384.290 35.941 1.883 o
3 -3 3 3815.730 3801.940 63.609 0.747 o
3 -3 4 578.899 599.621 14.942 14.382 o
3 -3 5 518.043 527.713 15.008 15.546 o
3 -3 6 85.782 87.571 6.218 107.626 o
3 -3 7 1448.220 1456.680 31.405 3.481 o
3 -3 8 190.763 200.447 11.091 37.065 o
3 -3 9 1892.320 1880.350 40.998 2.147 o
3 -3 10 9.427 10.765 3.307 506.185 o
3 -3 11 549.810 550.409 21.843 9.686 o
3 -3 12 7.699 9.378 3.358 510.206 o
3 -2 0 1083.070 1070.870 15.118 8.083 o
3 -2 1 2273.670 2353.820 29.646 2.286 o
3 -2 2 1613.780 1666.600 23.752 3.903 o
3 -2 3 527.689 528.927 10.432 20.827 o
3 -2 4 1629.330 1309.320 89.225 0.763 o
3 -2 5 1796.210 1819.210 24.630 3.404 o
3 -2 6 1782.910 1802.350 26.149 3.309 o
3 -2 7 532.135 561.776 14.297 15.865 o
3 -2 8 1788.220 1823.980 32.387 2.800 o
3 -2 9 20.015 16.773 3.278 432.457 o
3 -2 10 1010.600 1041.850 31.481 4.406 o
3 -2 11 67.756 47.790 6.558 113.918 o
3 -2 12 820.609 815.081 28.301 5.682 o
3 -2 13 6.439 4.691 2.782 739.391 o
3 -1 0 3030.410 2975.500 24.053 1.727 o
3 -1 1 291.418 266.903 4.730 56.659 o
3 -1 2 2902.060 2975.350 20.104 1.890 o
3 -1 3 1746.780 1735.510 14.007 4.486 o
3 -1 4 2238.420 2221.910 17.418 2.953 o
3 -1 5 2112.120 2148.370 20.964 2.991 o
3 -1 6 1143.330 1160.470 17.207 7.006 o
3 -1 7 1940.950 1967.430 27.861 2.883 o
3 -1 8 275.623 266.333 10.138 34.918 o
3 -1 9 953.138 988.705 23.052 6.516 o
3 -1 10 318.638 330.922 15.132 19.944 o
3 -1 11 1474.670 1494.130 36.830 2.892 o
3 -1 12 47.123 48.060 6.160 134.241 o
3 -1 13 827.486 803.109 28.200 5.707 o
3 -1 14 38.885 39.036 10.302 58.926 o
3 0 0 2728.380 2823.900 21.304 2.039 o
3 0 1 3271.970 3206.490 22.228 1.568 o
3 0 2 116.252 105.821 2.207 177.243 o
3 0 3 3792.600 3759.130 21.194 1.238 o
3 0 4 1205.600 1218.220 10.889 7.979 o
3 0 5 2803.790 2826.410 20.247 2.008 o
3 0 6 1882.160 1873.920 17.408 3.784 o
3 0 7 918.716 935.822 15.928 9.222 o
3 0 8 1946.340 1975.060 32.659 2.563 o
3 0 9 372.652 377.196 13.369 21.572 o
3 0 10 963.815 983.059 31.524 4.522 o
3 0 11 455.730 437.303 17.339 14.376 o
3 0 12 880.779 843.873 30.604 4.973 o
3 0 13 12.018 -9.489 7.319 123.720 o
3 0 14 791.642 794.304 38.453 3.684 o
3 1 0 2704.540 2657.690 17.579 2.220 o
3 1 1 40.697 49.199 1.514 473.450 o
3 1 2 6345.240 6109.130 27.650 0.503 o
3 1 3 830.640 790.252 6.985 14.975 o
3 1 4 2823.250 2764.870 17.034 2.090 o
3 1 5 2687.110 2700.060 17.307 2.223 o
3 1 6 2085.140 2120.480 18.538 3.178 o
3 1 7 542.180 553.285 11.052 19.442 o
3 1 8 1602.350 1611.140 27.219 3.606 o
3 1 9 974.072 1000.650 23.338 6.347 o
3 1 10 245.206 256.708 11.771 30.864 o
3 1 11 1755.650 1780.080 45.691 1.996 o
3 1 12 299.357 297.294 18.137 15.854 o
3 1 13 503.715 503.399 26.354 7.638 o
3 1 14 71.608 78.247 10.916 49.051 o
3 2 0 25.618 20.320 1.287 836.257 o
3 2 1 5684.300 5603.100 30.632 0.592 o
3 2 2 852.669 860.182 7.824 13.754 o
3 2 3 4477.130 4394.410 25.135 0.918 o
3 2 4 153.916 156.864 3.271 116.250 o
3 2 5 1803.710 1752.490 15.023 4.250 o
3 2 6 391.641 393.230 7.659 33.086 o
3 2 7 2882.080 2940.850 36.849 1.514 o
3 2 8 2369.520 2359.330 36.794 1.917 o
3 2 9 926.977 938.685 22.986 6.711 o
3 2 10 307.076 298.206 14.671 21.304 o
3 2 11 258.997 264.851 15.346 21.198 o
3 2 12 675.231 695.407 28.187 6.204 o
3 2 13 269.186 266.844 19.427 14.662 o
3 2 14 817.178 845.771 96.173 0.713 o
3 3 0 3548.460 3488.240 27.864 1.302 o
3 3 1 72.718 78.749 2.376 251.808 o
3 3 2 6837.050 6829.840 47.488 0.394 o
3 3 3 499.606 513.429 7.266 26.364 o
3 3 4 2246.950 2268.940 20.133 2.792 o
3 3 5 214.705 213.873 6.169 63.255 o
3 3 6 1871.150 1896.790 29.550 2.882 o
3 3 7 169.934 182.140 8.160 56.456 o
3 3 8 2399.150 2472.300 42.885 1.651 o
3 3 9 1362.330 1372.200 35.361 3.203 o
3 3 10 516.374 527.920 22.288 9.652 o
3 3 11 321.270 327.179 20.656 12.684 o
3 3 12 351.924 354.415 21.992 11.225 o
3 3 13 406.089 401.981 30.452 6.366 o
3 4 0 320.750 319.073 9.064 34.858 o
3 4 1 1952.070 1941.510 22.445 3.257 o
3 4 2 109.833 112.186 4.664 125.222 o
3 4 3 2696.450 2666.090 30.471 1.853 o
3 4 4 0.545 -0.496 1.774 2126.060 o
3 4 5 3787.020 3720.540 43.395 0.991 o
3 4 6 82.353 82.022 5.415 129.086 o
3 4 7 1441.470 1496.380 28.021 3.854 o
3 4 8 449.686 445.681 19.177 12.626 o
3 4 9 806.898 789.799 27.616 5.932 o
3 4 10 323.582 309.316 18.947 14.549 o
3 4 11 733.541 744.572 37.230 3.962 o
3 4 12 366.063 374.173 29.857 6.698 o
3 4 13 299.584 365.853 48.647 2.778 o
3 5 0 2521.470 2333.750 143.234 0.301 o
3 5 1 794.279 740.515 28.948 5.653 o
3 5 2 2599.640 2614.370 35.182 1.775 o
3 5 3 39.828 31.904 3.358 317.952 o
3 5 4 2002.070 2041.080 30.470 2.616 o
3 5 5 155.620 140.140 7.562 66.177 o
3 5 6 1551.140 1538.470 31.707 3.271 o
3 5 7 10.041 8.763 2.237 904.831 o
3 5 8 1341.360 1319.460 35.209 3.269 o
3 5 9 159.838 151.688 12.286 34.424 o
3 5 10 801.747 783.526 32.695 4.708 o
3 5 11 145.225 125.947 14.452 27.392 o
3 5 12 293.287 314.801 57.520 2.019 o
3 6 0 11.928 14.229 2.703 640.262 o
3 6 1 771.982 786.096 20.049 8.794 o
3 6 2 543.179 539.131 18.257 12.239 o
3 6 3 2143.080 2171.340 38.168 2.049 o
3 6 4 39.950 41.083 4.397 224.901 o
3 6 5 1636.790 1653.420 31.932 3.085 o
3 6 6 55.261 45.128 5.119 168.401 o
3 6 7 850.972 888.408 26.835 5.912 o
3 6 8 2.085 -3.511 2.799 840.357 o
3 6 9 704.788 669.831 28.164 6.170 o
3 6 10 170.790 169.715 15.528 23.349 o
3 7 0 658.779 658.865 22.798 8.393 o
3 7 1 347.883 362.283 16.886 16.585 o
3 7 2 1207.260 1255.510 32.766 3.764 o
3 7 3 123.779 138.478 9.745 51.323 o
3 7 4 1138.220 1112.360 27.716 4.794 o
3 7 5 32.572 25.706 4.161 267.985 o
3 7 6 647.637 683.133 23.832 7.924 o
3 7 7 1.795 3.047 2.430 1060.410 o
3 7 8 823.558 838.710 29.843 5.262 o
3 8 0 302.374 325.864 19.253 14.312 o
3 8 1 570.918 565.420 25.541 7.676 o
3 8 2 325.445 324.602 17.024 16.914 o
3 8 3 537.877 519.622 21.671 9.937 o
3 8 4 73.325 67.283 8.830 69.918 o
3 8 5 486.203 505.501 30.830 5.983 o
4 -6 0 212.214 183.468 23.505 11.145 o
4 -6 1 361.744 317.160 24.460 9.496 o
4 -6 2 292.776 276.976 22.292 11.531 o
4 -6 3 199.240 175.765 19.907 15.046 o
4 -5 0 651.285 670.006 27.366 6.568 o
4 -5 1 333.783 320.440 15.655 18.899 o
4 -5 2 731.508 716.665 28.210 6.034 o
4 -5 3 299.407 295.806 15.469 19.982 o
4 -5 4 325.499 324.960 18.078 15.505 o
4 -5 5 493.854 511.012 23.075 9.337 o
4 -5 6 57.023 46.137 9.445 66.059 o
4 -5 7 574.921 570.754 26.083 7.422 o
4 -5 8 309.681 262.241 27.710 7.911 o
4 -4 0 107.822 104.507 9.277 58.404 o
4 -4 1 782.528 828.171 24.918 6.772 o
4 -4 2 663.986 678.783 25.685 7.123 o
4 -4 3 585.562 581.745 19.083 11.132 o
4 -4 4 382.670 424.660 19.013 13.431 o
4 -4 5 1037.530 1081.060 33.666 3.977 o
4 -4 6 297.963 292.452 15.599 19.803 o
4 -4 7 146.151 163.453 12.986 31.901 o
4 -4 8 947.878 921.936 30.673 4.767 o
4 -4 9 106.377 64.803 17.601 20.456 o
4 -4 10 489.628 460.441 30.366 6.172 o
4 -3 0 1354.430 1403.330 35.122 3.220 o
4 -3 1 135.414 143.315 8.001 64.651 o
4 -3 2 1077.830 1115.920 25.668 5.331 o
4 -3 3 81.153 87.708 7.193 90.524 o
4 -3 4 1831.040 1882.180 39.278 2.284 o
4 -3 5 1555.780 1582.210 36.124 2.840 o
4 -3 6 514.465 508.054 16.338 14.361 o
4 -3 7 362.075 375.908 15.283 18.593 o
4 -3 8 362.426 362.631 16.894 16.392 o
4 -3 9 415.378 429.212 19.937 12.289 o
4 -3 10 330.928 313.882 18.731 14.711 o
4 -3 11 884.914 841.733 34.749 4.156 o
4 -3 12 31.666 37.425 16.858 23.494 o
4 -2 0 178.378 187.191 9.585 45.927 o
4 -2 1 1848.080 1917.290 29.311 2.913 o
4 -2 2 93.826 95.788 5.832 111.188 o
4 -2 3 1203.450 1222.090 20.810 5.851 o
4 -2 4 170.539 173.547 8.611 53.540 o
4 -2 5 2542.420 2609.460 36.222 1.773 o
4 -2 6 1196.040 1185.810 25.139 5.066 o
4 -2 7 595.221 597.059 16.360 13.012 o
4 -2 8 456.269 429.701 15.078 17.016 o
4 -2 9 539.549 556.807 19.559 11.219 o
4 -2 10 535.401 570.282 21.634 9.835 o
4 -2 11 272.797 298.939 18.607 15.505 o
4 -2 12 706.380 720.080 35.586 4.303 o
4 -1 0 1644.380 1660.120 41.693 2.327 o
4 -1 1 2.673 6.481 2.029 1330.520 o
4 -1 2 4784.830 4800.370 56.649 0.622 o
4 -1 3 87.118 88.195 4.517 149.371 o
4 -1 4 2300.860 2306.600 26.840 2.410 o
4 -1 5 652.775 654.891 13.874 14.044 o
4 -1 6 1166.720 1189.040 21.299 5.918 o
4 -1 7 251.129 245.608 9.347 40.014 o
4 -1 8 1177.400 1190.810 25.772 4.986 o
4 -1 9 843.070 863.093 24.340 6.706 o
4 -1 10 699.721 723.949 23.907 7.613 o
4 -1 11 658.724 609.683 28.284 6.319 o
4 -1 12 238.194 247.405 18.232 16.655 o
4 -1 13 277.636 316.805 21.047 12.643 o
4 0 0 127.752 136.240 5.290 101.331 o
4 0 1 3610.210 3583.980 45.151 1.025 o
4 0 2 231.790 250.341 6.367 57.039 o
4 0 3 2243.230 2197.420 25.236 2.592 o
4 0 4 3.809 -1.644 2.004 1467.150 o
4 0 5 2567.540 2573.290 32.781 1.884 o
4 0 6 483.863 480.242 13.014 18.830 o
4 0 7 2791.600 2793.620 40.745 1.484 o
4 0 8 354.648 372.483 13.916 21.020 o
4 0 9 939.509 945.377 26.064 5.809 o
4 0 10 514.900 518.581 19.759 11.383 o
4 0 11 183.302 209.720 13.161 29.280 o
4 0 12 534.304 538.885 23.901 8.643 o
4 0 13 705.752 725.071 35.680 4.283 o
4 1 0 4082.780 3960.510 40.234 0.933 o
4 1 1 182.345 194.440 5.858 72.972 o
4 1 2 4464.160 4389.110 37.593 0.835 o
4 1 3 149.740 150.501 5.578 88.435 o
4 1 4 2698.690 2591.240 26.713 1.990 o
4 1 5 29.087 31.500 2.983 400.708 o
4 1 6 2187.320 2163.180 30.677 2.386 o
4 1 7 349.790 358.249 11.236 26.844 o
4 1 8 1759.720 1815.720 34.492 2.677 o
4 1 9 477.738 464.297 17.526 13.824 o
4 1 10 1421.180 1411.770 37.443 2.921 o
4 1 11 239.755 216.725 15.443 21.794 o
4 1 12 219.524 234.196 18.106 17.126 o
4 1 13 375.635 369.409 26.556 8.153 o
4 2 0 276.138 275.198 7.730 44.235 o
4 2 1 3346.170 3321.510 35.144 1.294 o
4 2 2 25.174 30.656 2.615 481.447 o
4 2 3 2744.740 2689.560 34.579 1.698 o
4 2 4 237.067 237.874 7.920 48.280 o
4 2 5 3419.100 3314.240 42.300 1.152 o
4 2 6 64.512 62.204 4.981 159.832 o
4 2 7 2232.710 2227.870 37.857 1.992 o
4 2 8 215.382 200.260 11.026 36.121 o
4 2 9 1208.390 1195.930 30.829 4.079 o
4 2 10 176.629 166.535 12.091 34.227 o
4 2 11 999.142 1014.660 34.624 3.922 o
4 2 12 207.174 194.175 14.825 24.094 o
4 2 13 387.695 366.209 26.207 8.301 o
4 3 0 2545.790 2543.470 32.924 1.901 o
4 3 1 1051.610 1045.950 18.206 7.413 o
4 3 2 1412.980 1375.950 22.090 4.830 o
4 3 3 114.657 116.778 6.026 96.843 o
4 3 4 4778.740 4749.660 49.297 0.674 o
4 3 5 4.783 -2.647 3.365 565.988 o
4 3 6 2166.990 2170.740 36.226 2.125 o
4 3 7 13.196 9.271 2.571 699.879 o
4 3 8 991.225 996.826 27.628 5.250 o
4 3 9 8.021 6.804 2.423 868.691 o
4 3 10 1895.490 1865.250 41.639 2.115 o
4 3 11 460.438 474.153 21.472 10.637 o
4 3 12 428.671 434.009 25.304 8.521 o
4 3 13 83.272 67.762 15.257 26.988 o
4 4 0 340.007 345.352 11.187 27.503 o
4 4 1 2724.180 2723.270 39.226 1.567 o
4 4 2 1198.760 1197.530 23.019 5.453 o
4 4 3 1478.020 1526.210 25.431 4.082 o
4 4 4 434.628 454.705 13.226 19.721 o
4 4 5 2472.710 2510.500 37.082 1.807 o
4 4 6 15.458 14.654 2.452 678.052 o
4 4 7 1753.700 1724.140 31.839 2.928 o
4 4 8 4.994 -3.142 2.845 766.652 o
4 4 9 999.004 1020.240 33.610 4.079 o
4 4 10 0.247 -4.948 2.840 850.614 o
4 4 11 1180.370 1215.760 38.595 3.109 o
4 4 12 138.480 126.014 14.638 26.981 o
4 5 0 609.144 638.591 18.695 11.014 o
4 5 1 1015.700 1026.820 24.231 5.946 o
4 5 2 2059.330 2017.700 33.245 2.415 o
4 5 3 474.413 481.742 14.700 16.829 o
4 5 4 1590.670 1587.210 29.581 3.401 o
4 5 5 153.289 137.912 8.453 58.607 o
4 5 6 1129.980 1160.490 24.891 5.307 o
4 5 7 94.116 99.678 7.361 83.405 o
4 5 8 1422.050 1449.680 36.368 3.004 o
4 5 9 8.774 6.572 2.575 782.240 o
4 5 10 716.598 654.475 26.970 6.545 o
4 5 11 62.880 64.444 8.761 72.611 o
4 6 0 1208.820 1217.460 32.284 3.853 o
4 6 1 1113.250 1135.960 31.227 4.212 o
4 6 2 252.198 254.386 13.400 25.922 o
4 6 3 569.924 559.268 19.192 11.252 o
4 6 4 774.621 785.730 22.121 7.902 o
4 6 5 1320.980 1291.060 30.968 3.820 o
4 6 6 240.547 246.728 13.098 27.172 o
4 6 7 995.756 988.449 25.828 5.664 o
4 6 8 1.884 -4.435 1.732 2065.100 o
4 6 9 596.172 589.709 25.817 7.434 o
4 6 10 39.469 36.358 8.684 80.019 o
4 7 0 361.983 399.067 21.718 11.256 o
4 7 1 965.775 1017.990 29.365 4.911 o
4 7 2 887.805 892.712 27.443 5.655 o
4 7 3 304.577 349.045 16.965 17.108 o
4 7 4 188.340 188.812 12.387 32.165 o
4 7 5 491.166 454.553 20.662 11.093 o
4 7 6 836.355 852.693 28.515 5.548 o
4 7 7 94.209 95.031 9.799 55.603 o
4 7 8 811.691 731.257 63.347 1.567 o
4 8 1 112.393 150.743 34.659 5.565 o
4 8 2 331.124 389.404 59.793 1.862 o
4 8 3 321.111 299.725 52.460 2.407 o
4 8 4 501.501 468.289 66.492 1.492 o
5 -5 0 361.087 311.851 53.669 2.294 o
5 -5 1 3.378 -5.490 3.631 500.090 o
5 -5 2 462.267 471.906 52.944 2.306 o
5 -5 3 94.716 54.549 27.101 9.096 o
5 -5 4 621.588 559.525 70.117 1.331 o
5 -5 5 156.157 176.650 25.204 10.043 o
5 -4 0 6.080 6.256 3.877 413.067 o
5 -4 1 614.808 658.208 27.531 6.625 o
5 -4 2 0.094 2.472 2.884 806.162 o
5 -4 3 841.301 872.067 29.529 5.267 o
5 -4 4 70.088 71.920 9.079 67.021 o
5 -4 5 573.272 583.942 24.855 7.940 o
5 -4 6 152.407 131.983 11.884 36.971 o
5 -4 7 652.565 665.582 31.332 5.378 o
5 -4 8 167.528 166.452 21.841 13.011 o
5 -3 0 1113.740 1179.610 34.597 3.682 o
5 -3 1 115.547 124.896 10.342 48.242 o
5 -3 2 1371.730 1440.390 38.340 2.869 o
5 -3 3 2.868 4.841 2.385 1038.420 o
5 -3 4 918.741 973.540 27.791 5.402 o
5 -3 5 148.998 143.514 10.734 42.816 o
5 -3 6 778.874 811.435 26.674 6.252 o
5 -3 7 79.715 67.090 6.892 99.265 o
5 -3 8 689.081 711.168 25.713 6.981 o
5 -3 9 167.192 185.245 13.161 30.185 o
5 -3 10 404.617 397.830 32.094 5.821 o
5 -2 0 185.735 175.625 11.400 36.559 o
5 -2 1 2092.130 2192.820 44.984 1.772 o
5 -2 2 43.100 30.456 4.501 221.240 o
5 -2 3 1524.770 1560.500 38.762 2.659 o
5 -2 4 16.394 12.859 3.189 481.161 o
5 -2 5 797.275 837.842 24.108 6.979 o
5 -2 6 5.956 5.032 2.364 968.482 o
5 -2 7 1933.420 1992.130 37.595 2.274 o
5 -2 8 409.513 414.063 18.276 13.983 o
5 -2 9 314.499 342.921 17.689 16.028 o
5 -2 10 156.514 167.123 12.906 31.776 o
5 -2 11 480.964 441.072 23.613 9.241 o
5 -1 0 1312.910 1350.300 34.782 3.331 o
5 -1 1 511.312 516.998 16.033 14.646 o
5 -1 2 2069.230 2117.290 35.475 2.248 o
5 -1 3 0.979 -2.453 2.261 1304.630 o
5 -1 4 1723.020 1735.540 35.700 2.657 o
5 -1 5 0.759 -4.537 1.984 1694.180 o
5 -1 6 1130.810 1150.370 25.202 5.254 o
5 -1 7 9.497 7.875 2.264 911.902 o
5 -1 8 1981.520 2016.010 38.527 2.182 o
5 -1 9 98.113 101.511 8.078 72.731 o
5 -1 10 444.429 477.341 19.015 12.683 o
5 -1 11 92.956 96.719 9.866 55.058 o
5 -1 12 358.058 368.693 28.694 7.197 o
5 0 0 542.650 551.309 15.214 14.869 o
5 0 1 1937.270 1967.910 37.111 2.307 o
5 0 2 177.778 179.241 8.818 51.124 o
5 0 3 1388.420 1402.730 26.782 4.181 o
5 0 4 246.700 242.904 9.969 37.730 o
5 0 5 2497.820 2505.650 35.628 1.846 o
5 0 6 35.089 37.885 4.027 262.305 o
5 0 7 1426.300 1474.770 27.941 3.905 o
5 0 8 105.472 96.281 7.215 83.439 o
5 0 9 981.227 1041.790 27.081 5.343 o
5 0 10 31.484 29.820 4.693 225.146 o
5 0 11 1052.790 1093.950 33.410 3.987 o
5 0 12 54.677 60.809 9.139 69.155 o
5 1 0 524.906 535.130 14.919 15.498 o
5 1 1 1337.680 1328.860 24.461 4.695 o
5 1 2 2402.770 2338.610 38.089 1.855 o
5 1 3 499.915 498.443 14.799 16.222 o
5 1 4 2959.740 2920.590 39.410 1.426 o
5 1 5 39.716 42.135 4.144 241.436 o
5 1 6 1016.530 1025.320 22.091 6.501 o
5 1 7 77.522 97.091 7.028 93.109 o
5 1 8 1652.650 1635.600 34.205 2.884 o
5 1 9 1.029 -2.873 2.549 1032.010 o
5 1 10 1239.730 1238.430 35.962 3.335 o
5 1 11 52.971 48.748 6.857 111.820 o
5 1 12 710.710 726.587 26.485 6.622 o
5 1 13 86.855 40.962 29.569 7.706 o
5 2 0 786.681 808.913 19.869 8.734 o
5 2 1 703.474 680.801 17.019 11.194 o
5 2 2 1847.890 1804.700 28.375 3.047 o
5 2 3 1336.110 1309.700 25.698 4.527 o
5 2 4 148.940 138.388 7.898 64.078 o
5 2 5 2947.440 2826.420 44.195 1.336 o
5 2 6 201.301 194.577 9.707 43.313 o
5 2 7 1339.600 1331.360 29.342 3.978 o
5 2 8 179.019 171.407 11.524 36.434 o
5 2 9 1084.590 1043.070 30.131 4.522 o
5 2 10 24.058 15.379 4.204 293.384 o
5 2 11 916.077 908.469 32.941 4.391 o
5 2 12 12.861 14.397 4.839 254.820 o
5 2 13 656.352 513.661 63.337 1.611 o
5 3 0 478.845 475.030 16.827 14.451 o
5 3 1 1461.100 1441.870 38.361 2.792 o
5 3 2 2410.070 2400.900 42.895 1.662 o
5 3 3 1432.570 1439.340 26.412 4.118 o
5 3 4 966.903 974.101 24.060 6.216 o
5 3 5 289.929 280.444 13.305 24.820 o
5 3 6 1125.080 1113.490 27.750 4.814 o
5 3 7 212.537 213.594 12.367 30.883 o
5 3 8 1765.340 1707.580 42.021 2.217 o
5 3 9 78.549 82.096 8.867 67.665 o
5 3 10 879.224 887.601 28.371 5.449 o
5 3 11 1.455 -11.528 4.857 289.177 o
5 3 12 698.680 702.623 30.529 5.469 o
5 4 0 1511.850 1546.100 28.551 3.647 o
5 4 1 588.566 619.376 17.980 11.739 o
5 4 2 902.350 853.761 22.496 7.110 o
5 4 3 988.070 999.168 21.292 6.878 o
5 4 4 993.065 1023.700 24.333 5.991 o
5 4 5 828.550 824.726 24.008 6.927 o
5 4 6 777.530 744.882 22.417 7.858 o
5 4 7 1599.310 1614.490 35.649 2.825 o
5 4 8 55.941 59.722 7.768 89.926 o
5 4 9 803.602 800.580 31.108 5.039 o
5 4 10 79.495 73.151 8.799 68.972 o
5 4 11 418.401 402.605 22.075 10.650 o
5 4 12 30.092 19.087 8.871 80.177 o
5 5 0 256.626 241.587 12.088 29.718 o
5 5 1 1123.730 1171.540 27.473 4.808 o
5 5 2 426.207 441.334 14.938 17.562 o
5 5 3 947.836 952.378 23.191 6.555 o
5 5 4 735.825 778.518 21.866 8.195 o
5 5 5 756.073 780.069 23.018 7.636 o
5 5 6 669.923 679.429 22.089 8.629 o
5 5 7 590.077 602.351 21.226 9.688 o
5 5 8 804.357 807.868 27.191 6.037 o
5 5 9 81.853 84.537 10.264 53.217 o
5 5 10 643.944 636.176 28.640 6.208 o
5 6 0 1313.550 1279.100 33.678 3.499 o
5 6 1 151.311 149.239 10.173 45.800 o
5 6 2 1025.120 1032.590 26.651 5.346 o
5 6 3 229.818 224.806 11.947 31.472 o
5 6 4 1142.630 1191.200 30.261 4.276 o
5 6 5 353.680 349.680 15.779 18.172 o
5 6 6 444.322 443.070 18.033 13.757 o
5 6 7 596.315 603.134 22.689 8.855 o
5 6 8 235.882 219.388 14.752 23.384 o
5 6 9 533.756 516.200 29.309 6.379 o
5 7 0 1.067 -8.849 4.519 334.598 o
5 7 1 1298.560 1306.730 34.170 3.442 o
5 7 2 24.568 24.774 4.409 262.729 o
5 7 3 824.299 805.589 25.425 6.514 o
5 7 4 558.624 578.844 22.512 9.186 o
5 7 5 378.582 391.190 19.587 13.042 o
5 7 6 84.980 90.943 15.773 25.137 o
5 7 7 836.304 763.404 124.687 0.432 o
6 -3 0 299.652 303.224 22.098 11.585 o
6 -3 1 86.346 101.051 11.597 42.717 o
6 -3 2 756.648 778.675 33.698 4.571 o
6 -3 3 36.594 24.779 5.699 165.869 o
6 -3 4 711.684 741.793 31.354 5.198 o
6 -3 5 107.725 136.815 13.014 33.650 o
6 -3 6 573.105 627.327 28.684 6.373 o
6 -3 7 4.342 -5.709 4.851 283.682 o
6 -3 8 479.043 562.762 69.605 1.364 o
6 -2 0 448.137 464.437 22.534 10.010 o
6 -2 1 605.526 643.136 28.524 6.329 o
6 -2 2 239.568 237.624 14.440 23.843 o
6 -2 3 521.157 522.343 23.328 9.042 o
6 -2 4 171.948 177.744 14.298 26.531 o
6 -2 5 1013.090 1057.810 36.325 3.631 o
6 -2 6 47.292 43.955 6.693 119.209 o
6 -2 7 655.916 694.097 27.035 6.636 o
6 -2 8 0.028 -6.263 2.234 1380.470 o
6 -2 9 749.286 735.203 35.271 4.301 o
6 -1 0 447.092 419.566 20.526 11.604 o
6 -1 1 631.860 669.291 25.916 7.152 o
6 -1 2 549.295 566.180 21.884 9.623 o
6 -1 3 731.666 669.177 23.772 7.650 o
6 -1 4 1381.310 1398.190 36.572 3.048 o
6 -1 5 40.936 38.508 5.515 165.424 o
6 -1 6 747.520 783.475 26.694 6.370 o
6 -1 7 94.887 94.425 9.119 61.986 o
6 -1 8 436.957 444.455 17.943 13.911 o
6 -1 9 87.731 93.114 8.388 71.268 o
6 -1 10 1252.310 1231.110 34.262 3.529 o
6 0 0 1036.280 1023.910 30.459 4.563 o
6 0 1 537.993 560.016 20.495 10.573 o
6 0 2 585.135 603.165 20.560 10.109 o
6 0 3 759.265 756.335 23.116 7.633 o
6 0 4 692.684 693.392 26.499 6.718 o
6 0 5 1163.880 1188.030 30.155 4.260 o
6 0 6 316.513 319.598 15.276 19.827 o
6 0 7 742.048 711.432 24.927 7.094 o
6 0 8 48.098 43.213 5.660 152.645 o
6 0 9 727.547 753.265 24.068 7.392 o
6 0 10 50.945 44.602 6.537 121.915 o
6 0 11 789.286 772.670 30.975 5.121 o
6 1 0 358.212 343.351 14.976 19.414 o
6 1 1 1819.780 1832.030 43.795 2.050 o
6 1 2 554.175 569.568 19.401 11.181 o
6 1 3 1051.020 1040.310 27.229 5.153 o
6 1 4 607.310 605.298 22.235 9.034 o
6 1 5 177.023 182.679 12.416 32.602 o
6 1 6 1190.520 1174.600 31.776 3.982 o
6 1 7 663.671 650.874 20.614 9.482 o
6 1 8 791.609 760.222 23.715 7.276 o
6 1 9 182.391 156.737 11.025 38.953 o
6 1 10 623.863 633.668 23.330 8.349 o
6 1 11 0.364 -11.190 4.394 355.997 o
6 2 0 1694.610 1730.020 39.313 2.428 o
6 2 1 807.012 830.531 27.505 5.912 o
6 2 2 449.392 438.860 17.978 13.783 o
6 2 3 263.757 258.890 16.463 19.085 o
6 2 4 2292.840 2305.670 51.061 1.455 o
6 2 5 486.213 489.978 21.187 10.637 o
6 2 6 527.025 509.338 22.762 9.365 o
6 2 7 1172.600 1111.660 34.130 3.716 o
6 2 8 101.614 93.136 11.365 43.492 o
6 2 9 572.656 579.174 24.559 8.087 o
6 2 10 325.049 306.070 17.982 15.733 o
6 2 11 578.504 625.646 28.392 6.461 o
6 3 0 44.869 42.948 5.730 152.205 o
6 3 1 1843.400 1761.420 47.836 1.852 o
6 3 2 392.461 383.952 18.070 14.518 o
6 3 3 795.505 778.263 28.954 5.607 o
6 3 4 273.480 273.316 14.422 22.753 o
6 3 5 1439.410 1483.400 42.387 2.468 o
6 3 6 600.581 553.765 24.714 7.959 o
6 3 7 545.717 503.955 22.161 9.639 o
6 3 8 642.174 609.778 29.765 5.893 o
6 3 9 262.282 263.736 19.796 14.295 o
6 3 10 513.249 489.898 25.111 8.210 o
6 3 11 218.037 208.740 20.631 13.882 o
6 4 0 1716.930 1706.710 41.592 2.273 o
6 4 1 12.025 8.300 2.440 775.705 o
6 4 2 1027.660 982.275 30.239 4.656 o
6 4 3 83.366 80.251 7.984 78.491 o
6 4 4 1413.740 1404.360 46.439 2.220 o
6 4 5 469.405 475.023 25.596 8.154 o
6 4 6 869.274 829.241 29.600 5.237 o
6 4 7 367.372 392.742 20.288 12.463 o
6 4 8 558.496 564.222 24.697 8.104 o
6 4 9 342.051 344.531 19.611 13.505 o
6 4 10 243.744 250.200 15.674 20.946 o
6 5 0 12.037 8.554 2.672 682.543 o
6 5 1 2012.140 1991.890 43.917 1.904 o
6 5 2 45.923 39.075 5.131 178.518 o
6 5 3 1158.650 1135.540 31.155 4.153 o
6 5 4 118.100 106.212 9.057 59.186 o
6 5 5 969.390 975.516 32.863 4.278 o
6 5 6 95.455 74.744 8.185 74.079 o
6 5 7 521.441 486.228 21.500 10.231 o
6 5 8 241.021 225.605 19.488 15.016 o
6 5 9 656.306 602.628 39.196 3.779 o
6 6 0 880.953 895.915 31.183 4.802 o
6 6 1 26.738 26.734 5.089 207.094 o
6 6 2 1441.870 1465.120 32.440 3.371 o
6 6 3 5.726 9.966 2.917 660.206 o
6 6 4 632.561 619.003 23.176 8.416 o
6 6 5 99.017 100.876 9.426 58.179 o
6 6 6 999.346 1074.950 36.045 3.676 o
6 6 7 104.377 84.874 22.846 12.517 o
7 -1 0 19.970 29.508 7.070 122.332 o
7 -1 1 885.310 855.783 31.490 4.765 o
7 -1 2 191.640 189.473 15.367 23.142 o
7 -1 3 437.851 469.406 27.274 7.478 o
7 -1 4 310.483 311.767 20.713 12.759 o
7 -1 5 443.027 429.948 26.094 8.073 o
7 -1 6 309.033 314.798 22.101 11.496 o
7 -1 7 360.079 354.497 33.093 5.614 o
7 0 0 728.513 749.595 25.808 6.766 o
7 0 1 167.320 170.960 12.767 31.849 o
7 0 2 920.343 920.494 34.598 4.086 o
7 0 3 53.780 54.924 8.693 75.790 o
7 0 4 647.723 653.697 27.558 6.534 o
7 0 5 91.840 95.400 12.796 36.055 o
7 0 6 533.679 527.560 28.348 6.710 o
7 0 7 941.031 925.992 33.438 4.253 o
7 0 8 324.201 307.991 26.496 8.441 o
7 1 0 0.039 -5.402 1.213 4669.270 o
7 1 1 750.214 751.425 25.420 6.828 o
7 1 2 44.067 32.420 5.595 161.923 o
7 1 3 1052.890 1078.470 36.030 3.616 o
7 1 4 256.186 252.765 16.704 18.824 o
7 1 5 1003.370 995.653 35.689 3.767 o
7 1 6 62.626 57.941 10.822 51.227 o
7 1 7 398.852 381.088 21.368 11.367 o
7 1 8 404.549 385.420 21.909 10.900 o
7 1 9 339.355 307.795 55.123 2.184 o
7 2 0 1056.300 1009.990 37.832 3.410 o
7 2 1 0.021 -4.765 2.182 1447.280 o
7 2 2 1032.120 962.733 42.317 2.929 o
7 2 3 19.222 13.246 4.923 238.136 o
7 2 4 1008.540 1160.210 58.331 1.720 o
7 2 5 107.022 101.544 15.562 25.199 o
7 2 6 1014.090 946.531 47.382 2.468 o
7 2 7 188.868 177.218 18.535 17.105 o
7 2 8 439.718 460.236 25.222 8.476 o
7 2 9 231.441 236.266 29.237 7.391 o
7 3 0 171.979 177.249 15.711 22.814 o
7 3 1 1518.080 1546.520 47.949 2.041 o
7 3 2 49.003 47.295 8.152 86.019 o
7 3 3 1300.730 1340.000 64.906 1.363 o
7 3 4 211.485 187.990 19.414 15.546 o
7 3 5 449.915 440.703 30.771 6.133 o
7 3 6 0.553 -3.483 4.163 395.726 o
7 3 7 1215.260 1125.910 46.567 2.386 o
7 3 8 162.525 176.114 18.191 17.965 o
7 4 0 699.753 636.096 31.276 5.334 o
7 4 1 42.630 44.014 6.975 113.440 o
7 4 2 1296.440 1229.850 43.593 2.546 o
7 4 3 35.563 38.933 9.061 74.664 o
7 4 4 1121.320 1126.160 54.356 1.906 o
7 4 5 23.505 20.464 6.185 155.118 o
7 4 6 741.702 723.427 36.459 4.099 o
7 4 7 1.362 0.918 2.987 745.610 o
7 5 2 57.743 58.603 23.618 12.007 o
7 5 3 1002.760 1116.150 151.583 0.293 o
;
_olex2_submission_special_instructions 'No special instructions were received'
_oxdiff_exptl_absorpt_empirical_details
;
Empirical correction (ABSPACK) includes:
- Absorption correction using spherical harmonics
- Frame scaling
;
_oxdiff_exptl_absorpt_empirical_full_max 4.320
_oxdiff_exptl_absorpt_empirical_full_min 0.709
loop_
_space_group_symop_id
_space_group_symop_operation_xyz
1 x,y,z
2 -x,-y,-z
loop_
_atom_site_label
_atom_site_type_symbol
_atom_site_fract_x
_atom_site_fract_y
_atom_site_fract_z
_atom_site_U_iso_or_equiv
_atom_site_adp_type
_atom_site_occupancy
_atom_site_refinement_flags_posn
I1 I 0.56765(2) 0.27025(2) 0.237193(14) 0.01468(5) Uani 1.000000 .
F2 F 0.8695(3) 0.9202(2) -0.08191(14) 0.0187(3) Uani 1.000000 .
F1 F 0.5382(2) 0.7423(2) 0.09488(14) 0.0200(3) Uani 1.000000 .
N1 N 0.2050(4) 0.0797(3) 0.4288(2) 0.0167(4) Uani 1.000000 .
C3 C 0.9378(4) 0.7121(4) -0.0423(2) 0.0139(4) Uani 1.000000 .
C2 C 0.7665(4) 0.6196(4) 0.0488(2) 0.0137(4) Uani 1.000000 .
C1 C 0.8250(4) 0.4057(4) 0.0937(2) 0.0137(4) Uani 1.000000 .
C5 C 0.1217(4) -0.0739(4) 0.3816(2) 0.0169(5) Uani 1.000000 .
C4 C 0.0837(4) 0.1549(4) 0.5487(2) 0.0147(4) Uani 1.000000 .
C6 C 0.1770(5) 0.3223(4) 0.6046(3) 0.0220(5) Uani 1.000000 .
H5 H 0.2043(4) -0.1288(4) 0.2989(2) 0.0203(6) Uiso 1.000000 R
H6a H 0.317(2) 0.2514(6) 0.6362(17) 0.0330(8) Uiso 1.000000 GR
H6b H 0.225(3) 0.4279(18) 0.5382(5) 0.0330(8) Uiso 1.000000 GR
H6c H 0.0488(12) 0.395(2) 0.6753(12) 0.0330(8) Uiso 1.000000 GR
loop_
_atom_site_aniso_label
_atom_site_aniso_U_11
_atom_site_aniso_U_22
_atom_site_aniso_U_33
_atom_site_aniso_U_12
_atom_site_aniso_U_13
_atom_site_aniso_U_23
I1 0.01295(8) 0.01669(8) 0.01440(9) -0.00717(6) -0.00070(6) 0.00197(6)
F2 0.0189(7) 0.0121(6) 0.0225(7) -0.0018(5) -0.0031(6) 0.0042(6)
F1 0.0115(7) 0.0186(7) 0.0240(8) 0.0010(5) 0.0018(6) 0.0009(6)
N1 0.0152(10) 0.0183(10) 0.0168(10) -0.0068(8) -0.0022(8) 0.0037(8)
C3 0.0153(11) 0.0119(10) 0.0151(11) -0.0037(8) -0.0050(9) 0.0026(8)
C2 0.0093(10) 0.0141(10) 0.0164(11) -0.0020(8) -0.0010(8) -0.0022(9)
C1 0.0134(10) 0.0147(11) 0.0131(11) -0.0067(9) -0.0010(9) 0.0010(9)
C5 0.0164(11) 0.0187(11) 0.0131(11) -0.0028(9) 0.0003(9) -0.0012(9)
C4 0.0148(11) 0.0151(10) 0.0145(11) -0.0037(9) -0.0045(9) 0.0029(9)
C6 0.0236(13) 0.0221(12) 0.0235(13) -0.0099(10) -0.0072(11) -0.0011(10)
loop_
_atom_type_symbol
_atom_type_scat_dispersion_real
_atom_type_scat_dispersion_imag
_atom_type_scat_Cromer_Mann_a1
_atom_type_scat_Cromer_Mann_a2
_atom_type_scat_Cromer_Mann_a3
_atom_type_scat_Cromer_Mann_a4
_atom_type_scat_Cromer_Mann_b1
_atom_type_scat_Cromer_Mann_b2
_atom_type_scat_Cromer_Mann_b3
_atom_type_scat_Cromer_Mann_b4
_atom_type_scat_Cromer_Mann_c
_atom_type_scat_source
_atom_type_scat_dispersion_source
I -0.41187 1.83264 20.14720 18.99490 7.51380 2.27350 4.34700 0.38140 27.76600
66.87760 4.07119989395
'International Tables Volume C Table 6.1.1.4 (pp. 500-502)'
'Henke, Gullikson and Davis, At. Data and Nucl. Data Tables, 1993, 54, 2'
H 0.00000 0.00000 0.49300 0.32291 0.14019 0.04081 10.51090 26.12570 3.14236
57.79970 0.0030380000826
'International Tables Volume C Table 6.1.1.4 (pp. 500-502)'
'Henke, Gullikson and Davis, At. Data and Nucl. Data Tables, 1993, 54, 2'
C 0.00347 0.00161 2.31000 1.02000 1.58860 0.86500 20.84390 10.20750 0.56870
51.65120 0.215599998832
'International Tables Volume C Table 6.1.1.4 (pp. 500-502)'
'Henke, Gullikson and Davis, At. Data and Nucl. Data Tables, 1993, 54, 2'
F 0.01794 0.01033 3.53920 2.64120 1.51700 1.02430 10.28250 4.29440 0.26150
26.14760 0.277599990368
'International Tables Volume C Table 6.1.1.4 (pp. 500-502)'
'Henke, Gullikson and Davis, At. Data and Nucl. Data Tables, 1993, 54, 2'
N 0.00653 0.00323 12.21260 3.13220 2.01250 1.16630 0.00570 9.89330 28.99750
0.58260 -11.5290002823
'International Tables Volume C Table 6.1.1.4 (pp. 500-502)'
'Henke, Gullikson and Davis, At. Data and Nucl. Data Tables, 1993, 54, 2'
loop_
_diffrn_refln_index_h
_diffrn_refln_index_k
_diffrn_refln_index_l
_diffrn_refln_intensity_net
_diffrn_refln_intensity_u
-7 -4 -2 610.62 52.59
-7 -4 -2 572.94 51.17
-7 -4 -1 20.6 9.42
-7 -4 -1 19.83 9.93
-7 -4 -1 31.56 11.72
-7 -4 0 291.31 36.49
-7 -4 0 369.45 39.29
-7 -4 0 310.57 37.16
-7 -4 1 48.31 14.04
-7 -4 1 51.5 14.61
-7 -3 -2 30.6 11.01
-7 -3 -2 15.07 7.93
-7 -3 -1 665.35 55.81
-7 -3 -1 763.39 75.71
-7 -3 -1 781.96 59.55
-7 -3 -1 774.21 59.97
-7 -3 0 86.72 25.72
-7 -3 0 80.53 18.55
-7 -3 0 82.73 18.57
-7 -3 0 116.64 22.61
-7 -3 1 380.78 53.96
-7 -3 1 317.69 37.68
-7 -3 1 334.6 39.01
-7 -3 1 319.94 38.7
-7 -3 2 4.17 7.66
-7 -3 2 -2.33 0.01
-7 -3 2 2.41 4.42
-7 -2 -9 116.32 35.39
-7 -2 -9 120.39 25.47
-7 -2 -8 230.16 35.9
-7 -2 -8 248.68 36.22
-7 -2 -7 86 21.2
-7 -2 -3 3.73 6.85
-7 -2 -3 6.45 5.59
-7 -2 -3 8.09 6.44
-7 -2 -2 537.78 63.24
-7 -2 -2 465.24 45.17
-7 -2 -2 485.53 45.1
-7 -2 -1 3.96 7.28
-7 -2 -1 -2.31 0.02
-7 -2 -1 -2.45 5.5
-7 -2 -1 4.39 4.03
-7 -2 0 533.82 49.57
-7 -2 0 520.32 51.26
-7 -2 0 428.89 43.29
-7 -2 0 439.7 59.32
-7 -2 0 483.19 46.67
-7 -2 1 12.83 7.86
-7 -2 1 21.23 13.5
-7 -2 1 8.12 7.86
-7 -2 1 4.93 5.55
-7 -2 1 2.41 8.29
-7 -2 2 622.09 72.25
-7 -2 2 522.78 48.31
-7 -2 2 621.5 55.51
-7 -1 -9 150.26 26.91
-7 -1 -8 237.19 32.12
-7 -1 -8 165.15 28.37
-7 -1 -8 208.17 34.62
-7 -1 -8 197 32.28
-7 -1 -7 156.54 26.51
-7 -1 -7 215.82 32.31
-7 -1 -7 213.26 34.43
-7 -1 -7 197.72 31.61
-7 -1 -6 47.52 15.34
-7 -1 -6 23.42 11.73
-7 -1 -6 34.35 12.76
-7 -1 -6 2.95 12.71
-7 -1 -5 468.31 43.64
-7 -1 -5 506.26 51.07
-7 -1 -5 507.91 51.82
-7 -1 -5 514.28 50.07
-7 -1 -5 514.01 53.6
-7 -1 -4 110.93 23.78
-7 -1 -4 130.99 22.54
-7 -1 -4 131.26 30.52
-7 -1 -4 100.98 22.97
-7 -1 -4 141.57 25.91
-7 -1 -4 142.39 27.36
-7 -1 -3 521.63 53.22
-7 -1 -3 554.28 63.35
-7 -1 -3 558.84 53.36
-7 -1 -3 494.64 46.24
-7 -1 -3 501.68 44.33
-7 -1 -3 556.53 53.06
-7 -1 -2 20.4 9.77
-7 -1 -2 2.57 6.67
-7 -1 -2 19.25 9.89
-7 -1 -2 18.36 10.23
-7 -1 -2 22.24 9.1
-7 -1 -2 11.73 10.16
-7 -1 -2 33.23 13.46
-7 -1 -1 428.2 45.84
-7 -1 -1 353.16 40.53
-7 -1 -1 401.75 43.86
-7 -1 -1 366.08 44.67
-7 -1 -1 380.73 54.46
-7 -1 -1 381.55 43.88
-7 -1 -1 362.43 39.07
-7 -1 0 -2.7 9.28
-7 -1 0 -2.47 0.05
-7 -1 0 -2.58 3.35
-7 -1 0 -2.23 0.05
-7 -1 0 2.71 3.52
-7 -1 0 -4.22 0.05
-7 -1 1 723.49 63.21
-7 -1 1 686.95 59.31
-7 -1 1 665.88 74.76
-7 -1 1 649.79 57.16
-7 -1 1 575.67 52.7
-7 -1 2 13.64 10.23
-7 -1 2 12.38 8.52
-7 0 -8 153.69 28.13
-7 0 -8 156.68 26.91
-7 0 -8 148.95 27.49
-7 0 -7 391.81 45.58
-7 0 -7 542.6 53.12
-7 0 -7 460.5 52.5
-7 0 -7 369.39 42.77
-7 0 -7 512.87 49.73
-7 0 -6 275.98 38.54
-7 0 -6 248.37 36.52
-7 0 -6 246.22 35.02
-7 0 -6 339.62 44.17
-7 0 -5 68.92 16.03
-7 0 -5 55.85 17.06
-7 0 -5 25.48 12.27
-7 0 -5 74.65 19.32
-7 0 -5 44.33 15.41
-7 0 -4 301.54 46.22
-7 0 -4 401.96 47.1
-7 0 -4 335.83 42.32
-7 0 -4 299.13 34.99
-7 0 -4 354.42 42.94
-7 0 -4 320.91 42.3
-7 0 -3 32.78 13.28
-7 0 -3 26.28 10.27
-7 0 -3 19.38 10.8
-7 0 -3 26.47 13.9
-7 0 -3 11.7 8.51
-7 0 -3 35.45 14.18
-7 0 -2 458.51 48.76
-7 0 -2 493.03 46.78
-7 0 -2 486.7 52.84
-7 0 -2 508.67 62.28
-7 0 -2 469.89 49.21
-7 0 -2 524.86 53.25
-7 0 -2 408.89 45.84
-7 0 -1 76.39 19.87
-7 0 -1 72.61 19.2
-7 0 -1 101.93 21.51
-7 0 -1 85.68 21.06
-7 0 -1 93.42 22.87
-7 0 -1 82.26 24.59
-7 0 0 376.18 42.63
-7 0 0 355.64 41.89
-7 0 0 424.78 48.45
-7 0 0 355.71 54.98
-7 0 0 337.47 37.78
-7 0 0 381.01 44.55
-7 0 0 382.6 45.73
-7 0 1 21.18 10.31
-7 0 1 14.81 9.42
-7 0 1 2.79 7.25
-7 0 1 4.46 5.8
-7 0 1 13.33 8.48
-7 0 1 4.51 5.86
-7 1 -7 164.24 29.82
-7 1 -7 181.32 30.38
-7 1 -6 173.18 31.09
-7 1 -6 133.63 27.67
-7 1 -6 179.7 30.62
-7 1 -6 190.89 33.35
-7 1 -5 214.28 35.12
-7 1 -5 234.08 36.38
-7 1 -5 199.08 32.95
-7 1 -5 197.17 33.72
-7 1 -4 153.9 32.86
-7 1 -4 163.37 30.84
-7 1 -4 164.32 30.36
-7 1 -4 185.01 31.53
-7 1 -4 156.46 29.27
-7 1 -3 157.45 34.66
-7 1 -3 271.36 40.99
-7 1 -3 191.21 28.96
-7 1 -3 267.82 38.3
-7 1 -3 248.85 36.1
-7 1 -3 243.52 37.09
-7 1 -2 104.85 23.64
-7 1 -2 81.44 18.81
-7 1 -2 112.09 24.82
-7 1 -2 88.16 22.08
-7 1 -2 118.62 26.71
-7 1 -2 70.65 22.95
-7 1 -1 399.6 43.81
-7 1 -1 379.81 45.23
-7 1 -1 424.29 50.76
-7 1 -1 373.77 54.32
-7 1 -1 470.07 51.64
-7 1 -1 399.93 47.53
-7 1 0 15.22 9.69
-7 1 0 17.18 12.48
-7 1 0 17.35 9.94
-6 -6 -7 35.22 18.52
-6 -6 -7 45.73 13.97
-6 -6 -6 500.31 69.55
-6 -6 -6 533.91 50.38
-6 -6 -6 517.33 48.72
-6 -6 -6 523.95 50.01
-6 -6 -6 532.06 49.72
-6 -6 -5 36.05 18.96
-6 -6 -5 50.88 15.37
-6 -6 -5 47.21 15.07
-6 -6 -5 53.66 14.81
-6 -6 -5 44.78 14.41
-6 -6 -5 42.51 13.78
-6 -6 -4 346.58 58.03
-6 -6 -4 254.17 33.33
-6 -6 -4 347.85 39.15
-6 -6 -4 287.54 35.37
-6 -6 -4 322.71 38.09
-6 -6 -3 5.17 6.71
-6 -6 -3 6.73 5.82
-6 -6 -3 2.3 5.18
-6 -6 -3 2.19 4.03
-6 -6 -3 7.13 6.17
-6 -6 -2 686.27 54.9
-6 -6 -2 767.58 86.72
-6 -6 -2 712.67 57.44
-6 -6 -2 748.76 56.53
-6 -6 -2 707.3 57.48
-6 -6 -2 684.43 57.51
-6 -6 -1 30.21 16.02
-6 -6 -1 15.08 7.92
-6 -6 -1 22.46 10.11
-6 -6 -1 9.38 6.82
-6 -6 -1 11.65 7.42
-6 -6 0 454.03 64.62
-6 -6 0 481.6 46.09
-6 -6 0 435.37 45.53
-6 -6 0 397.25 41.67
-6 -6 0 410.58 43.46
-6 -6 1 57.65 22.53
-6 -6 1 51.88 15.37
-6 -6 1 42.27 13.62
-6 -5 -9 244.63 53.39
-6 -5 -9 337.8 39.07
-6 -5 -8 110.57 22.45
-6 -5 -8 92.09 20.97
-6 -5 -7 249.04 47
-6 -5 -7 255.05 32.43
-6 -5 -7 238.7 32.2
-6 -5 -7 263.43 34.86
-6 -5 -7 237.41 31.23
-6 -5 -6 23.76 15.14
-6 -5 -6 47.8 13.85
-6 -5 -6 27.15 11.03
-6 -5 -6 21.22 9.72
-6 -5 -6 49.85 14.1
-6 -5 -5 540.84 69.16
-6 -5 -5 433.13 43.39
-6 -5 -5 492.59 46.25
-6 -5 -5 449.09 44.62
-6 -5 -5 527.19 47.21
-6 -5 -4 72.01 25.74
-6 -5 -4 46.02 13.38
-6 -5 -4 42.51 13.02
-6 -5 -4 59.88 15.52
-6 -5 -4 46.11 13.74
-6 -5 -3 575.16 72.65
-6 -5 -3 525.18 46.05
-6 -5 -3 594.61 50.08
-6 -5 -3 571.55 48.88
-6 -5 -3 526.13 46.38
-6 -5 -3 509.22 47.26
-6 -5 -2 22.27 9.49
-6 -5 -2 42.68 19.47
-6 -5 -2 16.66 8.12
-6 -5 -2 25.47 9.86
-6 -5 -2 6.45 5.6
-6 -5 -2 34.84 11.67
-6 -5 -1 985.88 95.34
-6 -5 -1 1044.62 68.53
-6 -5 -1 989.1 66.82
-6 -5 -1 1048 69.93
-6 -5 -1 997.61 65.53
-6 -5 -1 1027.37 68.74
-6 -5 0 2.18 4.01
-6 -5 0 4.58 5.95
-6 -5 0 6 5.19
-6 -5 0 6.69 5.79
-6 -5 0 2.11 2.74
-6 -5 0 2 3.67
-6 -5 1 407.04 59.08
-6 -5 1 387.45 41.38
-6 -5 1 414.19 42.56
-6 -5 1 377.45 39.33
-6 -5 1 344.16 37.13
-6 -5 2 21.42 9.79
-6 -5 2 13.83 7.94
-6 -5 3 452.68 45.08
-6 -5 3 2.33 3.03
-6 -4 -10 143.57 40.68
-6 -4 -10 110.11 21.54
-6 -4 -10 131.84 26.29
-6 -4 -10 135.5 25.75
-6 -4 -9 136.35 38.81
-6 -4 -9 174.37 27.39
-6 -4 -9 186.48 31.45
-6 -4 -9 196.06 29.96
-6 -4 -8 264.32 52.83
-6 -4 -8 284.85 34.73
-6 -4 -8 350.85 39.64
-6 -4 -8 280.27 37.45
-6 -4 -7 214.85 29.62
-6 -4 -7 203.88 29.77
-6 -4 -6 387.61 40.28
-6 -4 -6 419.94 42.6
-6 -4 -5 234.64 30.27
-6 -4 -4 645.91 52
-6 -4 -4 677.55 52.66
-6 -4 -3 34.42 11.16
-6 -4 -3 47.07 13.03
-6 -4 -3 41.73 12.43
-6 -4 -2 404.15 40.42
-6 -4 -2 466.1 42.73
-6 -4 -2 503.39 43.71
-6 -4 -2 481.55 42.32
-6 -4 -1 2.02 2.63
-6 -4 -1 1.87 3.44
-6 -4 -1 2.01 2.61
-6 -4 -1 11.65 6.67
-6 -4 0 864.68 61.8
-6 -4 0 873.73 74.92
-6 -4 0 899.28 59.73
-6 -4 0 843.35 60.39
-6 -4 0 848.82 60.35
-6 -4 1 13.02 7.97
-6 -4 1 10.22 7.03
-6 -4 1 1.91 5.56
-6 -4 1 6.35 5.5
-6 -4 2 911.36 65.65
-6 -4 2 939.89 64.14
-6 -4 2 887.38 64.61
-6 -4 3 23.41 10.1
-6 -4 3 16.68 8.14
-6 -4 3 25.61 10.49
-6 -4 4 292.49 37.08
-6 -4 4 350.15 40.36
-6 -3 -11 87.57 32.58
-6 -3 -11 92.66 20.67
-6 -3 -11 85.16 22.13
-6 -3 -10 292.08 56.74
-6 -3 -10 221.93 35.6
-6 -3 -10 228.83 32.27
-6 -3 -9 141.16 38.29
-6 -3 -9 129.93 23.85
-6 -3 -9 141.57 27.01
-6 -3 -8 235.2 48.81
-6 -3 -8 329.47 40.06
-6 -3 -8 297.81 35.79
-6 -3 -7 303.74 53.93
-6 -3 -7 251.32 32.49
-6 -3 -7 265.09 35.78
-6 -3 -2 185.01 26.15
-6 -3 -2 190.21 33.61
-6 -3 -2 159.09 23.9
-6 -3 -2 226.91 28.14
-6 -3 -2 190.58 25.76
-6 -3 -1 928.13 61.75
-6 -3 -1 879.97 75.44
-6 -3 -1 913.04 60.21
-6 -3 -1 879.17 60.02
-6 -3 -1 835.25 59.29
-6 -3 0 19.82 8.55
-6 -3 0 3.34 7.52
-6 -3 0 16.54 7.56
-6 -3 0 29.21 10.43
-6 -3 0 38.32 12.01
-6 -3 1 911.25 78.78
-6 -3 1 889.81 62.09
-6 -3 1 828.2 57.43
-6 -3 1 891.64 61.18
-6 -3 1 805.54 60.28
-6 -3 2 6.17 4.63
-6 -3 2 1.84 2.39
-6 -3 2 5.88 5.09
-6 -3 2 2.11 4.75
-6 -3 2 3.57 6.55
-6 -3 2 2.24 2.91
-6 -3 3 544.34 47.79
-6 -3 3 526.3 47.44
-6 -3 3 516.78 47.42
-6 -3 3 524.31 49.85
-6 -3 4 -2.33 0.02
-6 -3 4 2.26 2.93
-6 -3 4 2.5 3.24
-6 -3 5 582.65 54.45
-6 -3 5 615.31 53.8
-6 -3 5 726.18 61.13
-6 -2 -11 218.18 50.22
-6 -2 -11 309.93 42.28
-6 -2 -10 173.63 42.61
-6 -2 -10 153.98 29.28
-6 -2 -10 135.32 23.95
-6 -2 -9 270.29 51.74
-6 -2 -9 322.07 40.86
-6 -2 -9 294.18 37.17
-6 -2 -8 60.09 24.35
-6 -2 -8 47.07 15.13
-6 -2 -8 31.32 12.27
-6 -2 -7 544.34 69.91
-6 -2 -7 479.74 44.83
-6 -2 -7 533.12 51.23
-6 -2 -7 664.52 55.88
-6 -2 -6 216.01 29.59
-6 -2 -6 230.51 32.99
-6 -2 -6 256.14 33.51
-6 -2 -5 262.88 32.9
-6 -2 -5 270.58 35.05
-6 -2 -4 1175.25 73.45
-6 -2 -4 1175.97 75.11
-6 -2 -3 146.74 22.13
-6 -2 -3 169.91 25.96
-6 -2 -3 112.91 19.5
-6 -2 -3 104.4 24.93
-6 -2 -2 220.67 28.32
-6 -2 -2 219.53 27.73
-6 -2 -2 236.81 30.71
-6 -2 -2 175.58 33.29
-6 -2 -2 228.6 27.96
-6 -2 -1 418.96 39.59
-6 -2 -1 432.64 41.22
-6 -2 -1 379.48 49.13
-6 -2 -1 343.24 35.93
-6 -2 -1 449.07 41.15
-6 -2 0 754.06 57.22
-6 -2 0 852.03 61.97
-6 -2 0 839.21 75.92
-6 -2 0 836.27 58.14
-6 -2 0 902.38 61.15
-6 -2 0 848.21 55.47
-6 -2 1 14.47 10.5
-6 -2 1 1.91 2.48
-6 -2 1 23.08 9.44
-6 -2 1 18.55 9.52
-6 -2 1 16.77 8.16
-6 -2 2 994.69 69.43
-6 -2 2 1086.32 68.31
-6 -2 2 1023.69 72.29
-6 -2 2 1044.09 88.41
-6 -2 2 998.19 65.73
-6 -2 2 1053.24 70.14
-6 -2 3 -2.36 0.02
-6 -2 3 -3.95 0.02
-6 -2 3 2.02 2.62
-6 -2 3 -2.26 0.02
-6 -2 3 -2.52 6.54
-6 -2 4 452.82 46.69
-6 -2 4 451.5 44.92
-6 -2 4 447.08 46.95
-6 -2 4 431.11 57.92
-6 -2 4 343.78 37.54
-6 -2 4 436.76 45.04
-6 -2 5 4.28 5.56
-6 -2 5 13.25 7.69
-6 -2 5 -2.52 6.54
-6 -1 -11 2.03 2.63
-6 -1 -11 -5.48 0
-6 -1 -11 -3 7.79
-6 -1 -10 303.88 34.15
-6 -1 -10 291.02 53.87
-6 -1 -10 326.24 40.56
-6 -1 -10 324.59 42.77
-6 -1 -9 77.02 16.48
-6 -1 -9 86.33 21.14
-6 -1 -9 71.67 19.01
-6 -1 -9 98.19 29.98
-6 -1 -8 270.4 35.51
-6 -1 -8 415.22 41.49
-6 -1 -8 345.23 36
-6 -1 -8 441.69 46.47
-6 -1 -8 403.8 45.34
-6 -1 -8 351.95 55.09
-6 -1 -7 280 34.36
-6 -1 -7 304.01 35.73
-6 -1 -7 367.62 54.66
-6 -1 -7 322.42 36.42
-6 -1 -7 310.32 34.3
-6 -1 -7 335.17 39.26
-6 -1 -7 351.46 41.7
-6 -1 -6 598.89 51.07
-6 -1 -6 537.68 49.37
-6 -1 -6 620.23 52.6
-6 -1 -6 663.37 58
-6 -1 -6 572.82 49.06
-6 -1 -5 72.12 17.51
-6 -1 -5 82.35 16.11
-6 -1 -5 119.64 22.28
-6 -1 -5 95.11 19.78
-6 -1 -5 122.72 23.82
-6 -1 -4 292.47 35.75
-6 -1 -4 275.96 40.64
-6 -1 -4 301.67 36.08
-6 -1 -4 316.89 32.9
-6 -1 -4 370.27 38.66
-6 -1 -4 317.59 38.32
-6 -1 -3 540.29 48.79
-6 -1 -3 527.47 44.11
-6 -1 -3 572.1 45.96
-6 -1 -3 522.67 49.25
-6 -1 -3 476.55 54.75
-6 -1 -3 520.1 49.15
-6 -1 -3 498.27 46.86
-6 -1 -3 499.26 41.19
-6 -1 -2 311.5 36.04
-6 -1 -2 278.9 31.91
-6 -1 -2 274.9 32.61
-6 -1 -2 241.87 39.07
-6 -1 -2 252.41 34.09
-6 -1 -2 293.79 35.01
-6 -1 -2 307.27 32.25
-6 -1 -2 284.66 35.02
-6 -1 -1 910.59 62.73
-6 -1 -1 878.75 63.7
-6 -1 -1 942.64 65.74
-6 -1 -1 1058.06 71.59
-6 -1 -1 1013.63 83.42
-6 -1 -1 817.06 57.69
-6 -1 -1 900.73 65.05
-6 -1 0 179.94 26.36
-6 -1 0 163.37 25.09
-6 -1 0 163.94 27.08
-6 -1 0 197.11 29.62
-6 -1 0 197.99 36.52
-6 -1 0 141.86 22.34
-6 -1 0 166.11 24.79
-6 -1 0 172.63 27.08
-6 -1 1 451.17 42.36
-6 -1 1 404.82 41.66
-6 -1 1 456.04 45.35
-6 -1 1 425.4 54.59
-6 -1 1 445.13 39.57
-6 -1 1 435.22 41.86
-6 -1 1 454.15 43.83
-6 -1 1 478.67 47.34
-6 -1 2 48.13 15.17
-6 -1 2 73.49 17.73
-6 -1 2 61.64 15.71
-6 -1 2 69.36 17.28
-6 -1 2 66.79 15.11
-6 -1 2 78.78 24.05
-6 -1 2 50.23 14.56
-6 -1 3 623.59 54.1
-6 -1 3 618.15 52.73
-6 -1 3 536.48 52.73
-6 -1 3 642.33 71.44
-6 -1 3 618.36 54.6
-6 -1 4 34.66 12.9
-6 -1 4 33.46 12.84
-6 -1 4 65 22.53
-6 -1 4 37.47 13.42
-6 -1 4 45.52 15.19
-6 -1 5 580.29 55.11
-6 -1 5 559.42 53.48
-6 -1 5 666.68 75.82
-6 -1 5 614.28 56.77
-6 -1 5 516.7 51.6
-6 -1 6 26.67 11.51
-6 0 -11 342.6 37.84
-6 0 -11 423.37 48.17
-6 0 -11 350.25 44.03
-6 0 -10 11.92 6.84
-6 0 -10 14.31 10.52
-6 0 -9 395.58 43
-6 0 -9 358.56 35.44
-6 0 -9 343.14 37.3
-6 0 -9 421.33 46.6
-6 0 -8 30.94 13.18
-6 0 -8 22.06 10.08
-6 0 -8 23.23 10.46
-6 0 -8 12.48 7.95
-6 0 -8 16.05 7.34
-6 0 -7 363.03 40.27
-6 0 -7 366.58 40.55
-6 0 -7 370 39.11
-6 0 -7 397.05 46.25
-6 0 -7 360.8 40.39
-6 0 -6 136.53 25.22
-6 0 -6 162.41 26.02
-6 0 -6 167.55 29.06
-6 0 -6 160.09 25.66
-6 0 -6 149.33 26.16
-6 0 -6 152.91 21.33
-6 0 -5 596.55 53.28
-6 0 -5 617.91 52.69
-6 0 -5 647.99 57.71
-6 0 -5 569.79 48.59
-6 0 -5 523.22 42.94
-6 0 -5 613.75 53.84
-6 0 -4 275.15 40.69
-6 0 -4 334.4 39.65
-6 0 -4 371.4 40.46
-6 0 -4 370.66 42.14
-6 0 -4 334.45 39.45
-6 0 -4 337.87 34.02
-6 0 -3 421.84 36.39
-6 0 -3 414.21 43.11
-6 0 -3 457.45 45.89
-6 0 -3 367.6 38.07
-6 0 -3 356.84 46.84
-6 0 -3 380.93 42.74
-6 0 -3 362.67 36.43
-6 0 -3 332.65 39.47
-6 0 -2 348.99 39.13
-6 0 -2 300.6 30.85
-6 0 -2 324.74 37.93
-6 0 -2 238.66 31.67
-6 0 -2 271.81 41.53
-6 0 -2 307.22 38.69
-6 0 -2 301.07 33.52
-6 0 -2 337.07 38.44
-6 0 -1 222.24 27.51
-6 0 -1 332.2 38.03
-6 0 -1 269.99 33.27
-6 0 -1 283.29 35.64
-6 0 -1 253.66 35.25
-6 0 -1 281.07 43
-6 0 -1 320.69 36.87
-6 0 -1 260.17 31.76
-6 0 0 557.16 50.93
-6 0 0 498.08 45.61
-6 0 0 461.91 42.05
-6 0 0 559.43 51.5
-6 0 0 629.71 55.01
-6 0 0 468.45 57.43
-6 0 0 533.06 47.7
-6 0 0 528.1 48.53
-6 0 1 162.64 34.74
-6 0 1 138.16 25.79
-6 0 1 150.93 23.74
-6 0 1 159.15 26.67
-6 0 1 169.59 26
-6 0 1 129.54 25.54
-6 0 1 153.6 25.45
-6 0 2 472.84 45.03
-6 0 2 504.92 47.63
-6 0 2 434.9 48.54
-6 0 2 451.76 59.53
-6 0 2 550.41 50.49
-6 0 2 498.05 48.69
-6 0 3 86.06 19.22
-6 0 3 84.12 19.07
-6 0 3 128.71 32.58
-6 0 3 93.79 21.93
-6 0 3 78.38 19.59
-6 0 4 715.19 59.4
-6 0 4 711.35 63.51
-6 0 4 725.09 60.68
-6 0 4 747.06 80.78
-6 0 4 817.88 65.47
-6 0 5 7.7 6.67
-6 0 5 22.68 11.05
-6 0 5 8.26 7.16
-6 0 5 10.29 7.48
-6 0 5 18.84 13.67
-6 1 -10 612.84 54.12
-6 1 -10 561.84 49.71
-6 1 -10 603.78 48.19
-6 1 -10 643.53 59.68
-6 1 -9 32.31 12.96
-6 1 -9 42.58 15.84
-6 1 -9 48.89 14.55
-6 1 -9 52.29 16.8
-6 1 -9 43.67 12.94
-6 1 -9 39.42 14
-6 1 -8 201.02 30.25
-6 1 -8 223.75 32.77
-6 1 -8 299.18 40.86
-6 1 -8 229.85 29.04
-6 1 -8 189.55 28.49
-6 1 -8 231.81 34.28
-6 1 -7 48.72 14.94
-6 1 -7 44.3 14.35
-6 1 -7 39.09 13.07
-6 1 -7 55.53 17.84
-6 1 -7 39.45 13.1
-6 1 -6 334.68 40.88
-6 1 -6 447.35 49.29
-6 1 -6 399.85 44.91
-6 1 -6 403.14 40.95
-6 1 -6 436.92 44.77
-6 1 -5 2.6 6.77
-6 1 -5 26.32 11.34
-6 1 -5 17.62 10.1
-6 1 -5 22.01 10.05
-6 1 -5 19.19 10.07
-6 1 -5 17.26 8.27
-6 1 -4 659.48 63.4
-6 1 -4 674.06 60.39
-6 1 -4 719.87 60.53
-6 1 -4 748.59 62.34
-6 1 -4 642.72 49.03
-6 1 -4 713.11 60.7
-6 1 -3 386.14 43.8
-6 1 -3 314.5 39.08
-6 1 -3 325.65 37.84
-6 1 -3 359.14 46.57
-6 1 -3 306.36 40.02
-6 1 -3 314.9 39.19
-6 1 -3 319.84 34.08
-6 1 -2 304.24 37.12
-6 1 -2 263.02 36.19
-6 1 -2 274.71 35.63
-6 1 -2 306.63 40.43
-6 1 -2 266.15 41.13
-6 1 -2 317.62 39.53
-6 1 -2 262.66 31.62
-6 1 -1 288.71 38.02
-6 1 -1 343.7 38.29
-6 1 -1 338.78 40.54
-6 1 -1 388.9 45.02
-6 1 -1 305.26 45.44
-6 1 -1 320.68 36.04
-6 1 -1 350.89 40.13
-6 1 0 237.59 34.03
-6 1 0 184.13 30.79
-6 1 0 209.47 38.09
-6 1 0 231.89 35.03
-6 1 0 184.81 28.39
-6 1 0 219.33 31.02
-6 1 1 315.45 38.77
-6 1 1 348.93 42.69
-6 1 1 268.2 44.78
-6 1 1 293.82 38.99
-6 1 1 219.13 32.1
-6 1 2 156.88 27.08
-6 1 2 185.31 31.14
-6 1 2 146.09 33.76
-6 1 2 199.03 30.73
-6 1 3 292.16 35.4
-6 1 3 358.46 40.59
-6 1 3 288.9 40.24
-6 1 3 403.56 57.68
-6 1 3 309.01 40
-6 1 4 104.8 21.77
-6 1 4 107.92 23.99
-6 1 4 97.44 22.84
-6 1 4 76.94 19.26
-6 1 4 106.14 30.67
-6 2 -9 322.76 39.45
-6 2 -9 308.13 35.6
-6 2 -9 376.22 43.99
-6 2 -8 -3.14 0.01
-6 2 -8 -2.72 4.99
-6 2 -8 2.41 4.43
-6 2 -8 2.01 3.68
-6 2 -7 288.65 39.01
-6 2 -7 385.66 47.42
-6 2 -7 384.51 45.26
-6 2 -7 369.27 41.92
-6 2 -6 25.16 12.04
-6 2 -6 2.76 7.19
-6 2 -6 12.86 8.19
-6 2 -6 26.66 12.16
-6 2 -5 487.01 52.33
-6 2 -5 573.54 55.91
-6 2 -5 611.59 58.22
-6 2 -5 501.38 51.31
-6 2 -4 108.17 23.74
-6 2 -4 81.5 20.41
-6 2 -4 69.96 19.81
-6 2 -4 87.09 21.04
-6 2 -3 268.72 36.3
-6 2 -3 267.13 37.54
-6 2 -3 263.9 38.27
-6 2 -3 276.67 38.76
-6 2 -3 247.31 34.36
-6 2 -2 112.01 20.91
-6 2 -2 106.42 23.66
-6 2 -2 102.1 22.27
-6 2 -2 125.42 25.54
-6 2 -2 146.1 28.37
-6 2 -2 100.89 25.67
-6 2 -2 124.03 23.65
-6 2 -1 378.63 44.45
-6 2 -1 381.69 43.87
-6 2 -1 279.32 40
-6 2 -1 270.9 43.61
-6 2 -1 292.47 38.2
-6 2 -1 313.39 36.32
-6 2 0 311.33 39.86
-6 2 0 211.2 33.95
-6 2 0 229.92 41.43
-6 2 0 182.22 32.33
-6 2 0 180.6 28.91
-6 2 0 272.18 35.76
-6 2 1 416.28 46.55
-6 2 1 333.26 40
-6 2 1 350.79 52.41
-6 2 1 458.72 50.21
-6 2 1 395.69 47.47
-6 2 2 251.77 35.44
-6 2 2 281.87 46.9
-6 2 2 235.49 36.85
-6 2 3 22.2 14.16
-6 2 3 51.95 16.3
-6 2 3 45.92 16.9
-6 3 -8 274.73 33.98
-6 3 -7 -2.87 0.04
-6 3 -7 2.66 5.99
-6 3 -6 281.82 38.91
-6 3 -6 300.68 41.25
-6 3 -6 367.52 45.96
-6 3 -6 264.42 38.94
-6 3 -5 71.3 20.1
-6 3 -5 44.27 16.33
-6 3 -5 49.01 16.94
-6 3 -5 62.6 18.54
-6 3 -4 386.93 46.61
-6 3 -4 309.9 43.63
-6 3 -4 353.57 43.99
-6 3 -4 379.48 46
-6 3 -3 23.12 11.26
-6 3 -3 2.95 5.42
-6 3 -3 7.98 8.46
-6 3 -3 19.08 10.92
-6 3 -2 450.7 49.27
-6 3 -2 354.48 46.47
-6 3 -2 334.76 42.83
-6 3 -2 367.7 45.66
-6 3 -1 63 18.2
-6 3 -1 61.53 19.08
-6 3 -1 41.58 15.01
-6 3 -1 50.9 17.59
-6 3 0 141.4 29.22
-6 3 0 154.4 30.03
-6 3 0 167.03 27.37
-6 3 0 187.92 31.77
-6 3 1 319.89 43.92
-6 3 1 318.18 39.7
-6 3 1 397.3 46.95
-6 3 2 75.5 24.45
-5 -7 -7 372.68 60.87
-5 -7 -6 34.15 12.25
-5 -7 -6 41.98 13.6
-5 -7 -5 223.5 46.63
-5 -7 -5 196.42 29.52
-5 -7 -5 187.66 29.39
-5 -7 -5 229.9 32.22
-5 -7 -4 288.98 53.46
-5 -7 -4 300.37 36.3
-5 -7 -4 259.37 34.21
-5 -7 -4 267.38 32.27
-5 -7 -4 316.71 38
-5 -7 -3 363.86 41.2
-5 -7 -3 416.75 42.06
-5 -7 -3 397.66 40.34
-5 -7 -3 362.33 41.36
-5 -7 -3 459 67.71
-5 -7 -3 410.71 40.55
-5 -7 -2 10.93 6.96
-5 -7 -2 12.84 7.86
-5 -7 -2 14.16 8.11
-5 -7 -2 9.66 7.01
-5 -7 -2 20.96 13.61
-5 -7 -2 4.24 4.77
-5 -7 -1 659.85 52.64
-5 -7 -1 674.77 53.81
-5 -7 -1 798.95 86.22
-5 -7 -1 626.1 49.02
-5 -7 0 2.35 5.28
-5 -7 0 2.36 3.06
-5 -7 0 -5.06 0.05
-5 -7 0 2.18 2.83
-5 -7 1 283.72 36.19
-5 -7 1 394.14 41.88
-5 -7 1 365.91 39.65
-5 -7 1 370.21 59.21
-5 -6 -9 264.01 34.64
-5 -6 -8 104.8 20.41
-5 -6 -8 123.64 23.3
-5 -6 -8 117.24 23.39
-5 -6 -7 312.18 51.6
-5 -6 -7 301.15 34.79
-5 -6 -7 275.67 34.88
-5 -6 -7 291.96 36.83
-5 -6 -7 284.93 33.88
-5 -6 -6 186.39 39.66
-5 -6 -6 204.95 29.7
-5 -6 -6 223.85 27.81
-5 -6 -6 186.93 27.65
-5 -6 -6 204.91 30.04
-5 -6 -6 237.13 30.82
-5 -6 -5 146.13 36.48
-5 -6 -5 171.65 26.2
-5 -6 -5 111.54 21.72
-5 -6 -5 182.37 25.18
-5 -6 -5 174.07 26.58
-5 -6 -5 173.99 26.4
-5 -6 -4 611.43 74.01
-5 -6 -4 579.09 49.74
-5 -6 -4 571.62 47.71
-5 -6 -4 650.67 52.52
-5 -6 -4 585.34 49.22
-5 -6 -4 593.05 50.87
-5 -6 -3 117.93 21.22
-5 -6 -3 89.28 19.01
-5 -6 -3 129.21 21.85
-5 -6 -3 121.73 22.65
-5 -6 -3 137.75 35.04
-5 -6 -3 127.1 20.69
-5 -6 -2 507.07 44.54
-5 -6 -2 562.76 47.99
-5 -6 -2 514.65 46.82
-5 -6 -2 553.86 48.55
-5 -6 -2 566 70.95
-5 -6 -2 528.7 44.17
-5 -6 -1 46.29 13.39
-5 -6 -1 86.05 18.53
-5 -6 -1 93.17 28.37
-5 -6 -1 81.89 16.57
-5 -6 -1 74.42 16.25
-5 -6 0 619.92 51.84
-5 -6 0 650.93 52.62
-5 -6 0 634.55 50.81
-5 -6 0 639.91 74.96
-5 -6 0 659.12 51.17
-5 -6 1 80.7 17.77
-5 -6 1 64.48 15.69
-5 -6 1 112.88 20.98
-5 -6 1 116.19 31.86
-5 -6 1 73.73 16.73
-5 -6 2 552.97 48.08
-5 -6 2 639.62 51.05
-5 -6 2 612.67 51.83
-5 -6 2 630.06 72.24
-5 -6 2 551.42 47.77
-5 -6 3 16.51 8.67
-5 -6 4 551.48 51.9
-5 -5 -10 368.64 64.48
-5 -5 -10 351.82 38.67
-5 -5 -10 318.11 39.77
-5 -5 -9 45.72 22.29
-5 -5 -9 39.03 12.65
-5 -5 -9 44.45 14.74
-5 -5 -8 441.25 67.17
-5 -5 -8 370.57 37.59
-5 -5 -8 340.11 38.03
-5 -5 -8 430.93 43.97
-5 -5 -7 364.33 58.67
-5 -5 -7 300.33 48.61
-5 -5 -7 320.87 34.51
-5 -5 -7 302.28 34.93
-5 -5 -7 275.26 34.52
-5 -5 -7 302.71 33.55
-5 -5 -6 323.22 53.13
-5 -5 -6 316.54 49.53
-5 -5 -6 307.5 34.74
-5 -5 -6 336.36 35.03
-5 -5 -6 272.41 32.19
-5 -5 -6 349.67 37.62
-5 -5 -5 392.42 55.86
-5 -5 -5 367.7 37.5
-5 -5 -5 363.72 37.1
-5 -5 -5 349.8 34.94
-5 -5 -5 394.47 38.59
-5 -5 -5 394.02 39.06
-5 -5 -4 355.08 53.12
-5 -5 -4 354.89 36.21
-5 -5 -4 349.5 36.07
-5 -5 -4 377.75 36.64
-5 -5 -4 365.26 37.07
-5 -5 -4 368.95 36.77
-5 -5 -3 489.48 43.05
-5 -5 -3 499.88 42.43
-5 -5 -3 513.26 43.62
-5 -5 -3 422.76 40.53
-5 -5 -3 431.91 39.49
-5 -5 -3 501 63.37
-5 -5 -3 474.71 39.87
-5 -5 -3 480.84 38.59
-5 -5 -2 190.47 26.23
-5 -5 -2 202.63 27.33
-5 -5 -2 206.41 26.35
-5 -5 -2 193.15 26.59
-5 -5 -2 203.18 25.95
-5 -5 -2 187.02 38.67
-5 -5 -2 225.9 26.22
-5 -5 -1 598.46 47.67
-5 -5 -1 592.05 48.16
-5 -5 -1 541.26 43.41
-5 -5 -1 589.33 47.89
-5 -5 -1 611.59 47.19
-5 -5 -1 718.14 74.24
-5 -5 -1 544.12 43.21
-5 -5 0 105.57 19.09
-5 -5 0 121.87 20.68
-5 -5 0 102.98 17.78
-5 -5 0 121.14 20.71
-5 -5 0 115.35 30.25
-5 -5 0 109.2 18.42
-5 -5 1 1273.59 72.84
-5 -5 1 1052.44 68.11
-5 -5 1 1238.2 70.44
-5 -5 1 1379.99 104.46
-5 -5 1 1270.93 75.64
-5 -5 1 1110.06 68.67
-5 -5 2 23.65 9.46
-5 -5 2 18.12 7.82
-5 -5 2 22.62 9.17
-5 -5 2 7.86 8.86
-5 -5 2 31.73 11
-5 -5 3 585.66 48.62
-5 -5 3 601.39 52.19
-5 -5 4 12.97 7.44
-5 -5 4 16.55 8.69
-5 -5 5 407.24 42.89
-5 -5 5 402.48 44.35
-5 -4 -11 212.25 49.55
-5 -4 -11 164.3 28.02
-5 -4 -10 29.59 18.85
-5 -4 -10 38.43 12.37
-5 -4 -10 45.03 14.48
-5 -4 -10 41.43 14.31
-5 -4 -9 412.26 65.72
-5 -4 -9 370.54 38.38
-5 -4 -9 425.71 44.97
-5 -4 -9 428.33 43.21
-5 -4 -8 36.51 19.17
-5 -4 -8 25.62 9.94
-5 -4 -8 23.17 10.45
-5 -4 -8 26.19 10.63
-5 -4 -7 662.28 70.85
-5 -4 -7 775.27 84.8
-5 -4 -7 797.27 55.59
-5 -4 -7 775.25 56.19
-5 -4 -7 795.22 58.06
-5 -4 -7 840.87 60.96
-5 -4 -7 779.55 53.83
-5 -4 -6 328.51 48.99
-5 -4 -6 411.28 59.35
-5 -4 -6 378.01 36.56
-5 -4 -6 335.29 34.54
-5 -4 -6 377.7 37.78
-5 -4 -6 372.22 35.6
-5 -4 -5 330.22 48.91
-5 -4 -5 424.36 38.19
-5 -4 -5 474.78 40.12
-5 -4 -5 346.84 35.67
-5 -4 -5 388.87 36.81
-5 -4 -4 614.91 66.71
-5 -4 -4 495.03 41.9
-5 -4 -4 511.31 42.55
-5 -4 -4 518 42.36
-5 -4 -4 513.97 42.56
-5 -4 -4 472.55 41.48
-5 -4 -3 475.16 39.86
-5 -4 -3 473.09 40.36
-5 -4 -3 481.93 40.75
-5 -4 -3 525.94 41.89
-5 -4 -3 440.93 39.46
-5 -4 -3 330.76 49.48
-5 -4 -3 437.17 38.17
-5 -4 -3 503.99 36.55
-5 -4 -2 438.01 38.66
-5 -4 -2 408.88 37.6
-5 -4 -2 453.54 38
-5 -4 -2 428.2 38.64
-5 -4 -2 422.44 37.32
-5 -4 -2 402.5 33.72
-5 -4 -1 303.67 32.08
-5 -4 -1 259.34 28.36
-5 -4 -1 310.93 31.78
-5 -4 -1 281.62 29.75
-5 -4 -1 341.6 33.72
-5 -4 -1 357.04 34.13
-5 -4 -1 358.35 50.27
-5 -4 0 721.05 51.24
-5 -4 0 803.93 53.67
-5 -4 0 736.96 53.33
-5 -4 0 750.57 51.49
-5 -4 0 739.85 48.87
-5 -4 0 819.94 55.57
-5 -4 0 761.56 74.21
-5 -4 0 792.34 50.36
-5 -4 1 230.34 26.91
-5 -4 1 237.65 26.62
-5 -4 1 277.6 28.02
-5 -4 1 250.76 29.07
-5 -4 1 282.95 43.2
-5 -4 1 263.08 27.21
-5 -4 2 1047.73 68.42
-5 -4 2 1313.09 96.23
-5 -4 2 1107.73 67.89
-5 -4 2 1100.72 64.83
-5 -4 2 1115.75 66.3
-5 -4 3 2.1 7.74
-5 -4 3 27.58 9.91
-5 -4 3 24.52 9.8
-5 -4 4 672.92 55.38
-5 -4 4 745.08 56.43
-5 -4 4 721.52 55.1
-5 -4 5 2.34 5.26
-5 -4 5 15.56 8.16
-5 -4 5 2.22 5.77
-5 -4 6 492.1 48.59
-5 -4 6 511.59 48.52
-5 -4 6 513.42 49.19
-5 -3 -12 377.17 45.66
-5 -3 -12 304.85 37.05
-5 -3 -12 399.08 69.01
-5 -3 -11 -2.25 2.92
-5 -3 -11 -6.02 0.04
-5 -3 -10 428.88 40.32
-5 -3 -10 418.14 42.46
-5 -3 -10 507.16 50.53
-5 -3 -10 482.3 71.81
-5 -3 -9 39.07 11.89
-5 -3 -9 37.73 12.22
-5 -3 -9 47.5 14.91
-5 -3 -9 31.92 18.31
-5 -3 -8 843.66 57.72
-5 -3 -8 848.81 64.55
-5 -3 -8 909.77 61.96
-5 -3 -8 872.47 91.21
-5 -3 -7 104.02 18.61
-5 -3 -7 108.29 19.54
-5 -3 -7 154.6 25.2
-5 -3 -7 83.24 26.36
-5 -3 -6 572.58 44.84
-5 -3 -6 578.65 49.06
-5 -3 -6 517.65 44.26
-5 -3 -6 571.11 68.34
-5 -3 -5 141.95 20.9
-5 -3 -5 143.54 21.89
-5 -3 -5 111.59 20.34
-5 -3 -5 101.8 28.21
-5 -3 -4 450.58 38.93
-5 -3 -4 447.26 38.16
-5 -3 -4 457.89 39.3
-5 -3 -4 503.37 58.3
-5 -3 -3 711.82 49.54
-5 -3 -3 686.28 48.85
-5 -3 -3 725.61 49.44
-5 -3 -3 734.05 50.33
-5 -3 -3 737.01 71.45
-5 -3 -3 711.35 48.78
-5 -3 -2 1168.65 66.07
-5 -3 -2 1106.04 65.1
-5 -3 -2 1177.61 67.1
-5 -3 -2 1119.08 64.48
-5 -3 -2 1180.06 66.61
-5 -3 -2 1344.06 97.4
-5 -3 -1 669.38 47.1
-5 -3 -1 645.4 45.94
-5 -3 -1 730.41 49.46
-5 -3 -1 638.93 46.69
-5 -3 -1 636.44 57.82
-5 -3 -1 713.86 49.56
-5 -3 0 205.72 25.2
-5 -3 0 212.36 24.48
-5 -3 0 241.85 26.84
-5 -3 0 228.25 26.85
-5 -3 0 229.81 27.03
-5 -3 0 278.16 37.18
-5 -3 1 578.23 45.26
-5 -3 1 644.82 44.05
-5 -3 1 608.57 42.53
-5 -3 1 593.41 44.67
-5 -3 1 550.45 43.4
-5 -3 1 605.47 57.8
-5 -3 1 542.92 44.44
-5 -3 2 140.53 21.76
-5 -3 2 141.11 20.94
-5 -3 2 127.91 19.36
-5 -3 2 130.49 19.79
-5 -3 2 142 27.39
-5 -3 2 136.92 21.49
-5 -3 3 919.79 63.72
-5 -3 3 978.33 63.53
-5 -3 3 1031.11 63.32
-5 -3 3 963.83 60.85
-5 -3 3 941.14 63.31
-5 -3 3 1140.31 83.33
-5 -3 4 202.07 27.34
-5 -3 4 187.18 27.33
-5 -3 4 204.46 28.19
-5 -3 4 222.37 29.69
-5 -3 5 927.31 65.68
-5 -3 5 882.96 64.27
-5 -3 5 946.87 66.91
-5 -3 5 906.65 64.05
-5 -3 6 -2.39 0.03
-5 -3 6 7.02 6.08
-5 -3 6 2.26 4.14
-5 -3 6 2.44 3.17
-5 -3 7 596.14 53.97
-5 -3 7 534.66 49.99
-5 -3 7 548.32 52.05
-5 -3 7 562.47 53.8
-5 -2 -12 6.04 7.84
-5 -2 -12 2.95 6.64
-5 -2 -11 404.92 66.9
-5 -2 -11 459.68 44.21
-5 -2 -10 10.71 12.04
-5 -2 -10 7.99 5.8
-5 -2 -10 2.66 7.73
-5 -2 -9 580.02 73.88
-5 -2 -9 536.61 45.12
-5 -2 -9 546.76 51.48
-5 -2 -9 505.87 45.35
-5 -2 -8 102.3 30.29
-5 -2 -8 87.53 18.29
-5 -2 -8 88.95 19.85
-5 -2 -8 82.03 16.78
-5 -2 -7 586.74 45.89
-5 -2 -7 718.59 76.39
-5 -2 -7 642.65 51.73
-5 -2 -7 740.02 56.71
-5 -2 -7 617.25 47.95
-5 -2 -6 78.55 16.03
-5 -2 -6 96.95 26.86
-5 -2 -6 88.36 16.87
-5 -2 -6 110.51 20.74
-5 -2 -6 82.77 17.76
-5 -2 -5 1380.67 76.64
-5 -2 -5 1457.48 106.56
-5 -2 -5 1379.83 80.05
-5 -2 -5 1358.31 78.49
-5 -2 -4 85.3 16.61
-5 -2 -4 76.19 16.6
-5 -2 -3 600.61 55
-5 -2 -3 642.95 47.49
-5 -2 -3 642.95 44.97
-5 -2 -3 627.83 43.97
-5 -2 -2 901.66 55.25
-5 -2 -2 915.47 55.6
-5 -2 -2 914.99 55.8
-5 -2 -2 917.31 70.88
-5 -2 -2 855.27 54.79
-5 -2 -2 913.72 58.48
-5 -2 -2 862.89 54.21
-5 -2 -1 350.08 32.67
-5 -2 -1 371.36 32.44
-5 -2 -1 334.5 32.87
-5 -2 -1 320.97 40.93
-5 -2 -1 333.26 31.59
-5 -2 -1 323.03 32.88
-5 -2 -1 301.01 30.51
-5 -2 0 368.36 34.55
-5 -2 0 398.58 35.57
-5 -2 0 394.93 33.88
-5 -2 0 390.45 35.27
-5 -2 0 441.32 48.54
-5 -2 0 410.34 32.94
-5 -2 0 431.16 38.4
-5 -2 1 976.28 61.96
-5 -2 1 1070.65 61.05
-5 -2 1 1071.94 66.61
-5 -2 1 1042.86 63.55
-5 -2 1 1032.39 59.24
-5 -2 1 979.06 61.19
-5 -2 1 1013.43 78.09
-5 -2 2 766.36 55.36
-5 -2 2 880.18 60.4
-5 -2 2 877.26 56.13
-5 -2 2 856.91 53.56
-5 -2 2 820.41 55.46
-5 -2 2 755.15 49.85
-5 -2 2 866.47 73.09
-5 -2 2 792.72 54.23
-5 -2 3 170.2 25.31
-5 -2 3 155.19 23.45
-5 -2 3 206.28 28.45
-5 -2 3 214.06 26.13
-5 -2 3 187.86 25.48
-5 -2 3 160.02 30.99
-5 -2 3 153.03 22.72
-5 -2 4 883.41 63.97
-5 -2 4 904.57 63.09
-5 -2 4 974.65 66.68
-5 -2 4 915.88 61.68
-5 -2 4 966.59 63.23
-5 -2 4 857.54 59.38
-5 -2 4 1078.17 85.11
-5 -2 5 39.34 13.14
-5 -2 5 46.66 13.88
-5 -2 5 38.26 12.08
-5 -2 5 44.42 13.41
-5 -2 5 25.43 13.39
-5 -2 5 40.97 12.2
-5 -2 6 424.31 43.46
-5 -2 6 391.67 42.57
-5 -2 6 376.86 42.52
-5 -2 6 400.58 39.57
-5 -2 7 50.08 15.76
-5 -2 7 60.66 17.12
-5 -2 7 50.43 15.43
-5 -1 -13 5.94 10.91
-5 -1 -12 331.38 35.89
-5 -1 -12 327.5 59.38
-5 -1 -12 316.65 42.21
-5 -1 -11 19.01 8.56
-5 -1 -11 5.33 6.93
-5 -1 -11 27.8 12.51
-5 -1 -10 572.43 46.5
-5 -1 -10 608.05 76.36
-5 -1 -10 672.81 58.72
-5 -1 -9 5.09 4.4
-5 -1 -9 4.64 6.03
-5 -1 -9 6.71 5.8
-5 -1 -9 -1.78 0.04
-5 -1 -9 2.47 3.21
-5 -1 -8 753.23 52.11
-5 -1 -8 853.79 84.53
-5 -1 -8 823.82 55.49
-5 -1 -8 790.33 54.61
-5 -1 -8 789.2 60.39
-5 -1 -8 888.53 64.41
-5 -1 -7 30.56 11.04
-5 -1 -7 57.74 15.25
-5 -1 -7 25.52 9.44
-5 -1 -7 68.01 22.67
-5 -1 -7 41.14 10.69
-5 -1 -7 54.01 12.93
-5 -1 -7 51.87 13.19
-5 -1 -6 467.33 36.94
-5 -1 -6 573.88 46.78
-5 -1 -6 539.75 43.73
-5 -1 -6 507.21 35.11
-5 -1 -6 498.1 39.32
-5 -1 -6 517.7 58.63
-5 -1 -6 530.49 41.32
-5 -1 -5 20.11 8.25
-5 -1 -5 27.19 10.54
-5 -1 -5 24.2 9.07
-5 -1 -5 30.44 10.08
-5 -1 -5 20.65 7.08
-5 -1 -5 27.97 13.63
-5 -1 -5 29.02 10.29
-5 -1 -5 16.97 7.66
-5 -1 -4 1446.21 83.69
-5 -1 -4 1477.99 79.27
-5 -1 -4 1533.2 80.68
-5 -1 -4 1450.75 80.8
-5 -1 -4 1426.5 73.19
-5 -1 -4 1537.5 82.5
-5 -1 -4 1437.42 72.01
-5 -1 -3 287.69 32.43
-5 -1 -3 216.55 24.28
-5 -1 -3 250.42 29.04
-5 -1 -3 217.35 24.79
-5 -1 -3 243.38 29.39
-5 -1 -3 264.84 35.59
-5 -1 -3 284.33 31.75
-5 -1 -3 277.04 27.58
-5 -1 -2 1263.3 73.19
-5 -1 -2 1207.25 70.65
-5 -1 -2 1125.29 62.68
-5 -1 -2 1061.12 63.22
-5 -1 -2 1244.64 71.5
-5 -1 -2 1195.95 72.16
-5 -1 -2 1123.74 80.99
-5 -1 -2 1162.88 66.87
-5 -1 -1 666.37 49.71
-5 -1 -1 628.66 45.35
-5 -1 -1 729.89 52.42
-5 -1 -1 654.64 49.44
-5 -1 -1 670.03 48.03
-5 -1 -1 657.75 60.49
-5 -1 -1 625.27 44.85
-5 -1 -1 754.71 54.05
-5 -1 -1 625.77 47.97
-5 -1 0 282.09 31.11
-5 -1 0 266.55 28.54
-5 -1 0 245.18 25.14
-5 -1 0 259.02 29.46
-5 -1 0 273.71 29.62
-5 -1 0 261.56 27.47
-5 -1 0 236.84 36.23
-5 -1 0 287.74 32.04
-5 -1 0 319.06 33.31
-5 -1 0 264.51 26.27
-5 -1 1 210.25 26.22
-5 -1 1 239.66 28.52
-5 -1 1 214.91 26.05
-5 -1 1 213.14 27.3
-5 -1 1 230.98 23.98
-5 -1 1 273.54 31.09
-5 -1 1 258.64 38.48
-5 -1 1 211.26 24.78
-5 -1 1 226.97 25.92
-5 -1 1 231.21 29.31
-5 -1 2 944.69 59.06
-5 -1 2 833.56 57.39
-5 -1 2 935.19 64.44
-5 -1 2 753.79 53.8
-5 -1 2 876.82 59.08
-5 -1 2 782.74 52.63
-5 -1 2 854.32 73.83
-5 -1 2 898.96 59.39
-5 -1 3 849.59 59.56
-5 -1 3 804.03 57.85
-5 -1 3 776.03 56.36
-5 -1 3 758.62 58.9
-5 -1 3 828.44 55.83
-5 -1 3 798.2 53.1
-5 -1 3 826.24 74.92
-5 -1 3 842.92 55.74
-5 -1 4 209.79 29.14
-5 -1 4 246.71 31.54
-5 -1 4 252.07 33
-5 -1 4 261.52 31.12
-5 -1 4 199.44 28.35
-5 -1 4 246.5 41.09
-5 -1 4 254.08 28.19
-5 -1 5 895.68 65.51
-5 -1 5 1033.06 70.31
-5 -1 5 868.99 64.59
-5 -1 5 904.31 64.23
-5 -1 5 867.54 63.5
-5 -1 5 884.23 81.9
-5 -1 6 81.6 19.7
-5 -1 6 89.09 20.66
-5 -1 6 98.56 21.27
-5 -1 6 92.24 20.53
-5 -1 6 101.63 21.36
-5 -1 6 82.45 24.66
-5 -1 7 270.87 36.44
-5 -1 7 271.92 36.57
-5 -1 7 297.09 36.73
-5 -1 7 269.84 36.9
-5 -1 7 294.01 49.58
-5 0 -12 34.64 14.05
-5 0 -12 26.25 10.19
-5 0 -11 512.09 47.06
-5 0 -11 500.68 44.21
-5 0 -11 600.67 56.29
-5 0 -10 20.34 8.99
-5 0 -10 14.44 7.59
-5 0 -10 13.75 10.32
-5 0 -10 17.27 9.07
-5 0 -10 17.94 9.99
-5 0 -9 518.65 49.39
-5 0 -9 498.45 43.76
-5 0 -9 465.44 40.79
-5 0 -9 615.25 53.65
-5 0 -9 408.64 57.87
-5 0 -8 71.61 17.26
-5 0 -8 48.46 14.84
-5 0 -8 67.16 15.17
-5 0 -8 47.68 12.36
-5 0 -8 59.25 14.55
-5 0 -8 39.39 17.78
-5 0 -7 720.37 51.33
-5 0 -7 756.94 57.11
-5 0 -7 734.7 51.16
-5 0 -7 698.91 48.39
-5 0 -7 663.81 51.1
-5 0 -7 758.7 72.95
-5 0 -7 757.75 55.17
-5 0 -7 779.27 61.1
-5 0 -6 21.8 8.93
-5 0 -6 23.14 9.98
-5 0 -6 17.36 8.32
-5 0 -6 14.5 6.64
-5 0 -6 19.69 8.87
-5 0 -6 15.62 6.67
-5 0 -6 26.78 9.95
-5 0 -6 20.32 11.64
-5 0 -6 28.5 9.83
-5 0 -5 1305.29 74.75
-5 0 -5 1348.88 74.84
-5 0 -5 1221.02 67.72
-5 0 -5 1201.39 63.91
-5 0 -5 1348.29 82.23
-5 0 -5 1296.4 66.32
-5 0 -5 1220.68 75.37
-5 0 -5 1223.42 90.38
-5 0 -5 1343 77.52
-5 0 -4 130.73 18.9
-5 0 -4 115.43 20.95
-5 0 -4 135.45 23.27
-5 0 -4 109.6 16.87
-5 0 -4 131.01 24.71
-5 0 -4 143.5 23.13
-5 0 -4 107.23 19.83
-5 0 -4 100.49 17.86
-5 0 -3 742.26 50.16
-5 0 -3 722.92 54.54
-5 0 -3 672.17 46.51
-5 0 -3 638.04 58.21
-5 0 -3 740.8 55.57
-5 0 -3 695.53 52.85
-5 0 -3 761.22 56.24
-5 0 -3 670.06 43.93
-5 0 -2 104.43 19.91
-5 0 -2 89.65 21.32
-5 0 -2 91.76 18.28
-5 0 -2 87.61 18.06
-5 0 -2 90.2 17.22
-5 0 -2 94.38 16.66
-5 0 -2 83.65 17.5
-5 0 -2 82.69 14.53
-5 0 -1 946.11 63.81
-5 0 -1 871.17 54.88
-5 0 -1 1076.65 65.94
-5 0 -1 1004.37 61.29
-5 0 -1 984.25 64.05
-5 0 -1 998.77 67.17
-5 0 -1 980.56 75.62
-5 0 -1 1040.79 65.69
-5 0 0 252.82 27.6
-5 0 0 254.57 30.97
-5 0 0 314.07 32.17
-5 0 0 261.32 29.86
-5 0 0 275.87 31.19
-5 0 0 284.93 33.89
-5 0 0 280.49 27.55
-5 0 0 268.6 38.78
-5 0 0 261.29 27.02
-5 0 0 281.52 32.94
-5 0 1 859.09 56.72
-5 0 1 1012.23 64.3
-5 0 1 862.62 58.07
-5 0 1 895.52 60.42
-5 0 1 853.59 52.79
-5 0 1 1002.19 65.91
-5 0 1 980.25 78.53
-5 0 1 825.09 55.57
-5 0 1 958.7 65.61
-5 0 2 605.49 48.66
-5 0 2 615.08 47.53
-5 0 2 604.2 49.5
-5 0 2 683.06 47.7
-5 0 2 626.9 50.22
-5 0 2 600.09 62.31
-5 0 2 564.03 41.4
-5 0 2 592.32 51.87
-5 0 2 545.17 45.22
-5 0 3 316.12 33.48
-5 0 3 309.52 33.66
-5 0 3 278.2 35.16
-5 0 3 280.76 32.67
-5 0 3 260.29 32.62
-5 0 3 257.48 41.58
-5 0 4 378.81 39.32
-5 0 4 312.15 36.86
-5 0 4 392.6 42.47
-5 0 4 377.02 38.38
-5 0 4 393.77 41.45
-5 0 4 394.38 53.23
-5 0 5 220.34 31.06
-5 0 5 252.86 34.5
-5 0 5 238.73 32.45
-5 0 5 203.86 29.34
-5 0 5 240.23 32.75
-5 0 5 216.99 41
-5 0 6 449.69 46.59
-5 0 6 555.79 51.45
-5 0 6 421.13 45.33
-5 0 6 496.98 48.6
-5 0 6 419.09 45.79
-5 0 6 485.75 63.1
-5 0 7 177.68 29.66
-5 0 7 183.61 29.64
-5 0 7 186.54 30.32
-5 0 7 187.07 30.22
-5 0 7 200.16 31.92
-5 0 7 168.36 38.65
-5 0 8 484.99 66.79
-5 1 -12 174.84 26.56
-5 1 -12 206.58 33.02
-5 1 -12 166.71 28.63
-5 1 -11 40.15 12.28
-5 1 -11 42.37 14.63
-5 1 -11 50.91 15.99
-5 1 -11 37.87 13.09
-5 1 -10 240.7 33.74
-5 1 -10 223.19 34.05
-5 1 -10 248.18 30.09
-5 1 -10 171.15 27.19
-5 1 -9 58.91 17.44
-5 1 -9 44.13 14.21
-5 1 -9 64.51 15.82
-5 1 -9 53.07 13.51
-5 1 -9 38.34 12.14
-5 1 -8 887.08 64.58
-5 1 -8 947.73 64.31
-5 1 -8 922.85 60.34
-5 1 -8 1012.59 67.49
-5 1 -8 1130.74 77.58
-5 1 -7 4.33 3.97
-5 1 -7 2.57 5.77
-5 1 -7 5.97 5.17
-5 1 -7 5.74 4.97
-5 1 -7 -2.24 4.11
-5 1 -7 1.63 3
-5 1 -7 4.08 4.59
-5 1 -7 5.68 5.49
-5 1 -6 596.77 48.27
-5 1 -6 524.74 44.74
-5 1 -6 523.83 44.15
-5 1 -6 594.82 50.91
-5 1 -6 575.3 43.42
-5 1 -6 657.95 56.39
-5 1 -6 588.89 50.4
-5 1 -6 583.81 49.73
-5 1 -5 -2.38 0.01
-5 1 -5 1.71 3.14
-5 1 -5 2.4 3.12
-5 1 -5 -2.19 4.03
-5 1 -5 2.85 2.62
-5 1 -5 2.02 2.63
-5 1 -5 -2.2 0.01
-5 1 -4 872.16 56.81
-5 1 -4 823.51 51.78
-5 1 -4 1016.4 68.99
-5 1 -4 897.35 63.91
-5 1 -4 854.05 66.33
-5 1 -4 925.39 65.71
-5 1 -4 784.07 53.29
-5 1 -4 1008.36 65.69
-5 1 -3 2.29 2.98
-5 1 -3 -2.62 0.06
-5 1 -3 8.5 5.52
-5 1 -3 2.16 2.81
-5 1 -3 1.85 4.16
-5 1 -3 9.08 5.2
-5 1 -3 2.16 2.8
-5 1 -2 1064.24 57.57
-5 1 -2 1105.59 71.95
-5 1 -2 1101.84 71.31
-5 1 -2 982.61 61.18
-5 1 -2 1144.27 71.23
-5 1 -2 987.15 75.64
-5 1 -2 1060.82 72.57
-5 1 -2 1042.01 67.8
-5 1 -1 268.36 26.66
-5 1 -1 253.61 30.4
-5 1 -1 255.85 32.56
-5 1 -1 279.16 33.26
-5 1 -1 236.04 27.93
-5 1 -1 212.7 34.42
-5 1 -1 242.37 33.27
-5 1 -1 316.63 35.34
-5 1 0 744.66 52.15
-5 1 0 653.91 45.84
-5 1 0 721.76 56.36
-5 1 0 761.29 55.25
-5 1 0 651.37 50.43
-5 1 0 635.87 62.2
-5 1 0 755.57 58.98
-5 1 0 576.1 51.91
-5 1 1 275.48 33.41
-5 1 1 207.95 25.61
-5 1 1 271.9 31.3
-5 1 1 249.3 30.65
-5 1 1 279.55 35.25
-5 1 1 251.49 39.04
-5 1 1 194.41 25.62
-5 1 1 258.73 33.6
-5 1 2 773.57 57.77
-5 1 2 691.25 50.56
-5 1 2 695.61 55.29
-5 1 2 793.47 59.8
-5 1 2 680.54 68.14
-5 1 2 699.84 58.54
-5 1 2 645.21 51.26
-5 1 3 141.95 22.5
-5 1 3 122.43 23.17
-5 1 3 180.26 35.4
-5 1 3 137.7 23.14
-5 1 3 168.11 28.14
-5 1 4 287.14 33.68
-5 1 4 270.83 35.18
-5 1 4 288.45 46.55
-5 1 4 230.12 31.55
-5 1 4 254.51 35.49
-5 1 5 395.07 41.28
-5 1 5 348.26 40
-5 1 5 379.78 43.34
-5 1 5 333.8 40.64
-5 1 5 394.65 56.62
-5 1 6 305.72 37.65
-5 1 6 331.16 39.42
-5 1 6 353.66 41.96
-5 1 6 270.03 36.45
-5 1 6 297.18 39.28
-5 1 6 210.87 43.24
-5 1 7 487.25 49.71
-5 1 7 484.1 50.06
-5 1 7 540.21 52.31
-5 1 7 486.1 50.23
-5 1 7 544.6 54
-5 1 7 518.53 68.87
-5 2 -11 192.76 30.87
-5 2 -11 199.35 33.17
-5 2 -11 183.59 27.39
-5 2 -11 207.76 31.7
-5 2 -10 101.46 19.69
-5 2 -10 60.71 18.55
-5 2 -10 97.45 21.07
-5 2 -10 87.12 20.02
-5 2 -9 126.54 23.07
-5 2 -9 155.3 29.69
-5 2 -9 164.33 26.86
-5 2 -9 140.03 23.23
-5 2 -9 144.85 25.14
-5 2 -8 194.55 27.87
-5 2 -8 213.92 33.33
-5 2 -8 216.5 30.43
-5 2 -8 185.45 25.18
-5 2 -7 1029.43 67.89
-5 2 -7 903.64 64.56
-5 2 -7 961.85 70.09
-5 2 -7 996.11 62.44
-5 2 -7 930.65 67.63
-5 2 -7 1115.96 73.91
-5 2 -7 943.72 72.98
-5 2 -6 9.64 6.26
-5 2 -6 -2.64 3.43
-5 2 -6 -2.03 3.73
-5 2 -6 5.06 4.9
-5 2 -6 -2.18 2.83
-5 2 -6 7.11 6.15
-5 2 -5 372.67 35.17
-5 2 -5 371.41 41.88
-5 2 -5 435.46 44.59
-5 2 -5 503.85 49.26
-5 2 -5 388.48 41.1
-5 2 -4 2.42 5.44
-5 2 -4 7.52 6.51
-5 2 -4 14.99 6.46
-5 2 -4 2.3 4.24
-5 2 -4 7.2 5.4
-5 2 -3 856.31 63.79
-5 2 -3 760.71 57.36
-5 2 -3 880.33 64.49
-5 2 -3 654.55 47.5
-5 2 -3 814.63 61.61
-5 2 -3 768.31 63.03
-5 2 -3 671.8 59.52
-5 2 -2 19.41 8.86
-5 2 -2 2.59 6.73
-5 2 -2 8.34 7.22
-5 2 -2 19.1 9.3
-5 2 -2 20.89 9.53
-5 2 -2 15.07 7.22
-5 2 -2 11.18 7.12
-5 2 -1 1162.78 77.4
-5 2 -1 1159.92 75.12
-5 2 -1 964.09 64.04
-5 2 -1 1141.88 71.09
-5 2 -1 1121.07 78.21
-5 2 -1 1023.47 79.74
-5 2 -1 1116.14 74.52
-5 2 0 94.88 23.73
-5 2 0 74.69 18.8
-5 2 0 107.25 21.81
-5 2 0 93.63 20.89
-5 2 0 103.85 20.42
-5 2 0 79.77 17.14
-5 2 1 334.78 40.86
-5 2 1 272.78 31.82
-5 2 1 303.46 35.16
-5 2 1 360.16 37.98
-5 2 1 290.93 43.12
-5 2 1 325.04 39.53
-5 2 1 401.54 42.05
-5 2 2 239.55 31.48
-5 2 2 384.2 43.46
-5 2 2 294.73 35.79
-5 2 2 377.16 50.4
-5 2 2 327.04 39.49
-5 2 2 335.29 38.31
-5 2 3 484.97 46.78
-5 2 3 689.99 60.1
-5 2 3 517.7 62.29
-5 2 3 592.64 52.8
-5 2 4 79.13 19
-5 2 4 123.14 31.2
-5 2 4 103.91 23.18
-5 2 4 105.99 22.4
-5 2 5 342.44 41.87
-5 2 5 237.5 33.07
-5 2 5 204.7 41.07
-5 2 5 275.38 37.62
-5 2 6 111.39 23.98
-5 2 6 127.26 26.15
-5 2 6 152.54 28.35
-5 2 6 119.37 31.75
-5 3 -10 183.61 26.55
-5 3 -10 198.82 28.69
-5 3 -9 88.98 21.44
-5 3 -9 99.09 21.48
-5 3 -9 63.7 19.45
-5 3 -9 105.96 22.11
-5 3 -9 91.12 18.99
-5 3 -9 83.12 17.52
-5 3 -8 345.16 41.54
-5 3 -8 269.82 35.81
-5 3 -8 343.76 34.81
-5 3 -8 326.26 35.95
-5 3 -8 407.81 48.12
-5 3 -8 344.23 41.14
-5 3 -7 26.06 11.75
-5 3 -7 45.96 14.65
-5 3 -7 26.14 9.91
-5 3 -7 40.46 12.29
-5 3 -7 37.97 13.18
-5 3 -7 27.89 11.33
-5 3 -7 31.8 13.03
-5 3 -6 395.35 37.89
-5 3 -6 380.67 44.27
-5 3 -6 435.95 47.08
-5 3 -6 390.93 46.04
-5 3 -6 440.22 44.92
-5 3 -5 77.96 19.52
-5 3 -5 59.57 17.67
-5 3 -5 78.32 16.12
-5 3 -5 78.96 19.72
-5 3 -5 42.12 14.14
-5 3 -4 464.17 40.09
-5 3 -4 574.52 53.33
-5 3 -4 496.43 49.96
-5 3 -4 476.69 48.66
-5 3 -4 421.11 47.94
-5 3 -3 2.42 3.15
-5 3 -3 2.82 5.17
-5 3 -3 2.58 4.75
-5 3 -3 5.14 4.72
-5 3 -3 2.35 3.05
-5 3 -2 755.85 63.3
-5 3 -2 812.57 63.64
-5 3 -2 774.07 59.59
-5 3 -2 618.03 60.04
-5 3 -2 691.36 59.12
-5 3 -1 54.16 17.04
-5 3 -1 60.26 17.09
-5 3 -1 66.17 17.5
-5 3 -1 47.06 13.04
-5 3 -1 67 17.78
-5 3 0 686.15 58.99
-5 3 0 517.73 46.73
-5 3 0 622.92 53.74
-5 3 0 573.22 59.55
-5 3 0 535.59 55.39
-5 3 0 611.75 57.01
-5 3 1 3.44 4.46
-5 3 1 2.79 5.12
-5 3 1 -2.58 0.01
-5 3 1 2.18 2.83
-5 3 1 -2.76 3.58
-5 3 2 338.25 42.6
-5 3 2 307.56 37.48
-5 3 2 249.88 42.35
-5 3 2 360.02 42.77
-5 3 2 379.73 42.73
-5 3 3 68.72 17.36
-5 3 3 82.47 25.55
-5 3 3 40.22 15.02
-5 3 3 79.01 19.31
-5 3 4 339.96 39.65
-5 3 4 376.97 46.45
-5 3 4 366.92 54.4
-5 3 4 443.94 47.24
-5 3 5 165.67 28.3
-5 3 5 201.05 33.19
-5 3 5 195.06 32.14
-5 3 5 189.75 40.45
-5 4 -8 97.73 19.67
-5 4 -8 85.94 21.1
-5 4 -8 59.96 15.88
-5 4 -7 282.72 32.69
-5 4 -7 286.01 37.47
-5 4 -7 394.32 47.57
-5 4 -7 335.63 42.31
-5 4 -7 281.31 34.05
-5 4 -6 57.18 17.51
-5 4 -6 65.04 16.16
-5 4 -6 55.66 17.94
-5 4 -6 62.23 14.81
-5 4 -6 73.24 19.78
-5 4 -6 91.63 21.31
-5 4 -5 257.61 31.41
-5 4 -5 290.62 39.2
-5 4 -5 317.64 41.22
-5 4 -5 247.58 35.97
-5 4 -5 267.44 38.94
-5 4 -4 50.81 16.31
-5 4 -4 15.03 9.6
-5 4 -4 55.02 17.15
-5 4 -4 30.79 13.13
-5 4 -3 430.93 48.23
-5 4 -3 482.6 50.33
-5 4 -3 423.35 46.04
-5 4 -3 378.71 47.16
-5 4 -3 423.71 46.24
-5 4 -2 -2.83 3.67
-5 4 -2 2.68 3.48
-5 4 -1 373.37 44.46
-5 4 -1 365.64 43.03
-5 4 -1 305.15 42.8
-5 4 -1 372.1 44.43
-5 4 0 3.06 3.98
-5 4 0 2.81 7.31
-5 4 0 2.86 7.43
-5 4 0 2.53 7.35
-5 4 1 550.37 54.28
-5 4 1 526.19 54.19
-5 4 1 480.5 46.77
-5 4 1 427.57 50.82
-5 4 2 28.69 11.2
-5 4 2 11.96 8.69
-5 4 2 2.73 8.68
-5 4 2 26.51 12.1
-5 4 3 358.27 42.2
-5 5 -5 59.7 15.8
-5 5 -5 92.39 18.96
-5 5 -2 291.61 39.91
-5 5 -2 265.84 38.13
-5 5 -1 -2.78 0.08
-4 -8 -4 228.61 32.46
-4 -8 -3 146.32 25.61
-4 -8 -2 190.1 29.19
-4 -7 -8 390.25 44.25
-4 -7 -7 66.91 17.99
-4 -7 -7 47.14 14.86
-4 -7 -7 68.99 17.82
-4 -7 -6 422.32 42.46
-4 -7 -6 445.55 45.34
-4 -7 -6 402.46 43.46
-4 -7 -6 506.3 68.36
-4 -7 -6 534.44 45.87
-4 -7 -6 440.26 44.89
-4 -7 -5 265.52 49.05
-4 -7 -5 223.07 30.26
-4 -7 -5 226.92 31.46
-4 -7 -5 218.75 30.52
-4 -7 -4 100.83 20
-4 -7 -4 79.49 26.73
-4 -7 -4 107.5 20.88
-4 -7 -4 89 19.57
-4 -7 -4 94.18 19.72
-4 -7 -3 157.27 24.93
-4 -7 -3 179.9 41.3
-4 -7 -3 168.11 26.4
-4 -7 -3 160.82 26.09
-4 -7 -3 167.64 27.68
-4 -7 -2 460.78 43.07
-4 -7 -2 509 69.03
-4 -7 -2 399.49 41.65
-4 -7 -2 424.81 41.7
-4 -7 -2 391.77 42.44
-4 -7 -1 500.18 45.41
-4 -7 -1 538.7 70.84
-4 -7 -1 471.29 46.24
-4 -7 -1 491.21 43.95
-4 -7 -1 510.27 47.69
-4 -7 0 198.97 28.24
-4 -7 0 252.83 48.03
-4 -7 0 203.32 29.5
-4 -7 0 213.01 30.29
-4 -7 1 585.11 50.15
-4 -7 1 667.3 54.91
-4 -7 1 634.61 52.81
-4 -7 2 63.53 15.84
-4 -7 2 50.63 20.73
-4 -7 2 31.6 11.41
-4 -7 2 34.4 11.57
-4 -7 3 208.94 29.9
-4 -7 3 210.68 29.2
-4 -6 -10 24.16 9.9
-4 -6 -9 321.71 36.7
-4 -6 -9 269.29 36.21
-4 -6 -8 -2.42 0.02
-4 -6 -8 -2.17 2.81
-4 -6 -7 509.82 47.2
-4 -6 -7 446.47 40.87
-4 -6 -7 413.58 41.6
-4 -6 -7 496.44 42.85
-4 -6 -7 435.03 58.98
-4 -6 -7 477.47 45.47
-4 -6 -6 111.19 20.35
-4 -6 -6 109.68 21.35
-4 -6 -6 114.8 21.09
-4 -6 -6 128.52 21.24
-4 -6 -6 119.45 31.02
-4 -6 -6 133.71 22.79
-4 -6 -5 622.17 50.22
-4 -6 -5 613.11 49.48
-4 -6 -5 694.23 53
-4 -6 -5 579.95 47.74
-4 -6 -5 608.94 70.71
-4 -6 -5 612.63 49.77
-4 -6 -4 392.16 36.46
-4 -6 -4 387.24 55.58
-4 -6 -4 381.95 37.92
-4 -6 -4 348.25 36.53
-4 -6 -4 396.41 35.98
-4 -6 -4 386.36 37.75
-4 -6 -4 403.76 39.07
-4 -6 -3 271.57 30.4
-4 -6 -3 340.66 52.28
-4 -6 -3 247.23 30.76
-4 -6 -3 274.16 31.41
-4 -6 -3 304.82 31.53
-4 -6 -3 289.71 32.96
-4 -6 -2 130.15 20.32
-4 -6 -2 126.4 31.51
-4 -6 -2 122.89 20.19
-4 -6 -2 125.24 21.26
-4 -6 -2 109.58 20.04
-4 -6 -1 534.2 44.44
-4 -6 -1 543.53 66.26
-4 -6 -1 545.46 43.73
-4 -6 -1 545.12 46.16
-4 -6 -1 602.37 48.67
-4 -6 0 652.72 49.24
-4 -6 0 654.57 72.08
-4 -6 0 650.22 47.29
-4 -6 0 579.31 48.7
-4 -6 0 617.25 49.52
-4 -6 1 217.37 27.59
-4 -6 1 232.98 42.93
-4 -6 1 189.01 25.86
-4 -6 1 192.74 27.05
-4 -6 1 206.32 27.36
-4 -6 2 836.45 57.88
-4 -6 2 930.65 61.4
-4 -6 2 914.38 84.34
-4 -6 2 772.95 57.14
-4 -6 2 791.88 56.5
-4 -6 3 113.41 20.15
-4 -6 3 164.04 25.44
-4 -6 3 140.45 22.5
-4 -6 3 111.8 19.82
-4 -6 4 437.48 41.21
-4 -6 4 494.04 47
-4 -6 5 111.11 22.3
-4 -6 5 67.19 16.87
-4 -6 6 485.65 49.54
-4 -5 -11 37.91 13.58
-4 -5 -11 47.76 23.28
-4 -5 -10 308.45 38.17
-4 -5 -10 337.97 36.16
-4 -5 -9 2.32 3.01
-4 -5 -9 1.97 2.56
-4 -5 -8 757.26 58.38
-4 -5 -8 894.56 91.07
-4 -5 -8 724.38 54.12
-4 -5 -7 53.03 13.01
-4 -5 -7 49.92 13.86
-4 -5 -7 60.2 14.74
-4 -5 -7 77.43 25.14
-4 -5 -7 55.2 19.76
-4 -5 -7 47.33 12.32
-4 -5 -7 68.25 15.45
-4 -5 -6 525.22 43.64
-4 -5 -6 612.44 45.76
-4 -5 -6 565.03 47.29
-4 -5 -6 613.46 66.14
-4 -5 -6 612.35 69.35
-4 -5 -6 581.02 42.39
-4 -5 -6 584.86 45.05
-4 -5 -6 554.61 45.48
-4 -5 -5 83.58 16.24
-4 -5 -5 58.62 14.2
-4 -5 -5 66.62 14.47
-4 -5 -5 58.83 20.46
-4 -5 -5 60.4 20.3
-4 -5 -5 71.87 15.42
-4 -5 -5 69.57 14.02
-4 -5 -5 69.93 15.14
-4 -5 -4 818.56 52.38
-4 -5 -4 770.91 49.25
-4 -5 -4 739.74 73.75
-4 -5 -4 766.28 53.21
-4 -5 -4 660.4 49.53
-4 -5 -4 827.76 52.13
-4 -5 -4 785.62 53.34
-4 -5 -4 677.37 50.53
-4 -5 -3 256.44 26.88
-4 -5 -3 234.69 24.88
-4 -5 -3 281.14 44.08
-4 -5 -3 221.53 26.86
-4 -5 -3 258.73 27.86
-4 -5 -3 210.6 25.83
-4 -5 -3 231.62 27.59
-4 -5 -3 233.62 26.41
-4 -5 -2 953.06 50.58
-4 -5 -2 949.53 48.94
-4 -5 -2 1114.28 86.35
-4 -5 -2 959.25 52.15
-4 -5 -2 965.9 54.08
-4 -5 -2 938.75 50.28
-4 -5 -2 943.94 53.92
-4 -5 -1 482.36 39.03
-4 -5 -1 522.55 39.97
-4 -5 -1 536.26 61.59
-4 -5 -1 501.59 41.77
-4 -5 -1 509.63 39.82
-4 -5 -1 538.94 43.11
-4 -5 0 312.66 30.9
-4 -5 0 388.05 51.34
-4 -5 0 338.93 32.4
-4 -5 0 296.61 28.71
-4 -5 0 328.23 32.71
-4 -5 0 331.72 32.57
-4 -5 0 274.13 26.93
-4 -5 1 581.13 43.57
-4 -5 1 551.15 61.83
-4 -5 1 575.15 45.04
-4 -5 1 568.18 44.11
-4 -5 1 524.41 42.45
-4 -5 1 550.23 39.9
-4 -5 2 367.03 34.86
-4 -5 2 432.81 39.36
-4 -5 2 472.98 55.79
-4 -5 2 372.9 35.19
-4 -5 2 408.6 36.27
-4 -5 3 531.21 43.05
-4 -5 3 624.43 46.51
-4 -5 3 672.71 66.61
-4 -5 3 596.89 48.95
-4 -5 3 615.71 47.8
-4 -5 3 573.63 43.99
-4 -5 4 318.39 35.8
-4 -5 4 284.67 32.87
-4 -5 5 973.91 67.89
-4 -5 5 808.48 60.25
-4 -5 6 39.1 13.49
-4 -5 6 29.19 11.33
-4 -5 7 487.91 49.77
-4 -5 7 548.13 50.74
-4 -4 -12 73.44 18.57
-4 -4 -12 74.86 29.28
-4 -4 -11 562.96 50.86
-4 -4 -11 620.18 83.17
-4 -4 -10 2.2 4.04
-4 -4 -10 1.8 2.33
-4 -4 -10 -5.56 0.04
-4 -4 -9 494.73 45.18
-4 -4 -9 509.98 42.55
-4 -4 -9 616.48 76.93
-4 -4 -8 3.98 3.65
-4 -4 -8 -2.01 0.04
-4 -4 -8 1.74 2.25
-4 -4 -8 7.78 4.95
-4 -4 -8 4.8 8.81
-4 -4 -7 860.14 58.55
-4 -4 -7 847.49 52.85
-4 -4 -7 815.02 56.94
-4 -4 -7 795.75 71.48
-4 -4 -7 919.44 87.97
-4 -4 -7 877.94 54.78
-4 -4 -7 855.95 55.81
-4 -4 -6 1.77 5.14
-4 -4 -6 4.48 3.88
-4 -4 -6 3.48 3.92
-4 -4 -6 7.19 4.58
-4 -4 -6 6.6 7.42
-4 -4 -6 4.07 7.47
-4 -4 -6 11.52 6.05
-4 -4 -6 10.76 5.65
-4 -4 -5 1256.1 69.92
-4 -4 -5 1216.74 67.18
-4 -4 -5 1206.2 65.23
-4 -4 -5 1218.57 67.03
-4 -4 -5 1168.23 67.25
-4 -4 -5 1166.59 94.76
-4 -4 -5 1275.36 93.16
-4 -4 -5 1265.66 64.93
-4 -4 -4 209.18 22.71
-4 -4 -4 222.45 22.11
-4 -4 -4 266.35 40.34
-4 -4 -4 221.51 37.61
-4 -4 -4 198.52 24.1
-4 -4 -4 228.26 24.95
-4 -4 -4 231.07 25.82
-4 -4 -4 210.24 24.97
-4 -4 -4 211.84 24.7
-4 -4 -3 732.39 44.44
-4 -4 -3 729.39 46.09
-4 -4 -3 725.8 68.27
-4 -4 -3 715.77 47.82
-4 -4 -3 750.54 48.46
-4 -4 -3 733.12 48.92
-4 -4 -3 747.36 49.63
-4 -4 -3 714.32 47.48
-4 -4 -2 556.92 38.48
-4 -4 -2 562.18 40.41
-4 -4 -2 607.05 61.24
-4 -4 -2 616.35 43.11
-4 -4 -2 573.82 40.7
-4 -4 -2 588.85 42.63
-4 -4 -2 576.85 40.74
-4 -4 -2 492.5 40.57
-4 -4 -1 1350.96 67.36
-4 -4 -1 1399.52 70.2
-4 -4 -1 1381.01 96.79
-4 -4 -1 1319.95 67.24
-4 -4 -1 1295.17 69.49
-4 -4 -1 1240.26 69.11
-4 -4 -1 1295.68 65.88
-4 -4 -1 1369.73 67.48
-4 -4 0 150.96 19.6
-4 -4 0 172.4 21.84
-4 -4 0 190.72 33.9
-4 -4 0 174.26 20.23
-4 -4 0 179.75 22.21
-4 -4 0 154.5 20.68
-4 -4 0 155.82 20.05
-4 -4 1 662.42 41.94
-4 -4 1 724.07 47.23
-4 -4 1 686.55 45.61
-4 -4 1 676.63 47.86
-4 -4 1 764.76 68.28
-4 -4 1 764.31 48.08
-4 -4 1 623.05 44.64
-4 -4 1 651.16 44.66
-4 -4 2 550.34 40.62
-4 -4 2 608.63 42.97
-4 -4 2 633.39 61.22
-4 -4 2 626.73 46.58
-4 -4 2 562.18 42.73
-4 -4 2 522.7 40.4
-4 -4 2 578.31 41.62
-4 -4 3 529.75 42.05
-4 -4 3 626.71 59.88
-4 -4 3 506.25 43.12
-4 -4 3 492.84 37.55
-4 -4 3 534.97 41.41
-4 -4 3 488.79 37.54
-4 -4 4 1313.8 73.63
-4 -4 4 1398.45 77.56
-4 -4 4 1352.67 79.07
-4 -4 5 173.47 24.62
-4 -4 5 192.72 26.78
-4 -4 5 242.55 30.91
-4 -4 6 466.31 43.9
-4 -4 6 400.88 42.07
-4 -4 7 78.62 18.42
-4 -4 7 94.12 20.69
-4 -4 8 490.44 49.35
-4 -4 8 454.86 46.8
-4 -3 -13 25.53 18.55
-4 -3 -12 193.15 27.92
-4 -3 -12 201.94 31.59
-4 -3 -12 248.69 53.15
-4 -3 -11 255.2 31.9
-4 -3 -11 239.07 33.94
-4 -3 -11 292.09 56.6
-4 -3 -10 1027.4 71.23
-4 -3 -10 899.32 62.38
-4 -3 -10 1001.85 101.66
-4 -3 -9 5.67 4.91
-4 -3 -9 6.63 5.74
-4 -3 -9 1.61 2.96
-4 -3 -9 4.97 9.12
-4 -3 -8 540.17 46.29
-4 -3 -8 455.92 40.42
-4 -3 -8 476.79 39.07
-4 -3 -8 503.63 65.79
-4 -3 -7 5.33 3.87
-4 -3 -7 3.39 3.81
-4 -3 -7 1.9 4.94
-4 -3 -7 6.13 4.45
-4 -3 -7 11.77 7.64
-4 -3 -7 4.2 9.44
-4 -3 -6 1061.12 62.42
-4 -3 -6 1064.91 58.6
-4 -3 -6 1048.36 64.71
-4 -3 -6 1041.24 60.5
-4 -3 -6 1086.04 61.08
-4 -3 -6 1079.66 80.8
-4 -3 -6 1199.21 95.42
-4 -3 -5 4.05 3.51
-4 -3 -5 4.53 3.92
-4 -3 -5 8.19 5.21
-4 -3 -5 7.09 6.51
-4 -3 -5 5.96 6.7
-4 -3 -5 -1.43 0.01
-4 -3 -5 -1.4 0.01
-4 -3 -4 2357.32 91.75
-4 -3 -4 2305.06 100.58
-4 -3 -4 2304.65 100.08
-4 -3 -4 2342.05 100.38
-4 -3 -4 2319.72 100.88
-4 -3 -4 2365.79 100.52
-4 -3 -4 2217.37 102.15
-4 -3 -4 2466.11 136.95
-4 -3 -4 2354.64 129.56
-4 -3 -4 2366.46 90.6
-4 -3 -3 45.31 10.63
-4 -3 -3 45.77 10.88
-4 -3 -3 50.07 11.18
-4 -3 -3 66.36 13.12
-4 -3 -3 56.84 11.88
-4 -3 -3 56.49 17.75
-4 -3 -3 58.87 11.82
-4 -3 -3 48.29 9.33
-4 -3 -2 645.66 43.32
-4 -3 -2 663.47 42.54
-4 -3 -2 652.37 44.01
-4 -3 -2 636.14 42.18
-4 -3 -2 692.63 43.31
-4 -3 -2 668.03 44.52
-4 -3 -2 652.72 43.23
-4 -3 -2 710.63 65.06
-4 -3 -2 684.76 40.19
-4 -3 -1 565.56 36.06
-4 -3 -1 483.59 36.35
-4 -3 -1 494.09 35.47
-4 -3 -1 466.28 36.46
-4 -3 -1 506.74 36.48
-4 -3 -1 479.57 36.64
-4 -3 -1 477.02 44
-4 -3 -1 514.78 53.06
-4 -3 -1 483.86 36.73
-4 -3 -1 534.12 34.1
-4 -3 0 1195.82 61.06
-4 -3 0 1257.52 64.72
-4 -3 0 1244.37 64.15
-4 -3 0 1224.91 60.52
-4 -3 0 1194.58 62.61
-4 -3 0 1194.71 62.13
-4 -3 0 1272.04 77.73
-4 -3 0 1279.31 65.94
-4 -3 0 1276.87 87.74
-4 -3 0 1236.27 60.94
-4 -3 1 446.24 34.83
-4 -3 1 477.63 36.96
-4 -3 1 493.26 35.59
-4 -3 1 490.14 35.68
-4 -3 1 534.41 36.66
-4 -3 1 457.16 32.44
-4 -3 1 481.84 44.99
-4 -3 1 546.76 54.21
-4 -3 1 482.1 37.91
-4 -3 2 1108.09 61.09
-4 -3 2 1180.56 75.27
-4 -3 2 1204.95 82.68
-4 -3 2 1066.5 62.85
-4 -3 2 1001.23 55.41
-4 -3 2 1058.67 58.34
-4 -3 2 1104.34 62.31
-4 -3 2 1087.39 58.17
-4 -3 3 351.49 29.63
-4 -3 3 411.8 35.83
-4 -3 3 384.37 34.37
-4 -3 3 367.13 33.42
-4 -3 3 374.87 31.66
-4 -3 3 359.98 40.43
-4 -3 3 387.41 44.8
-4 -3 3 362.48 34.45
-4 -3 4 500.7 42.37
-4 -3 4 544.09 43.77
-4 -3 4 528.96 43.68
-4 -3 4 591.22 45.55
-4 -3 5 868.1 59.59
-4 -3 5 865.68 60
-4 -3 5 964.9 62.82
-4 -3 5 888.44 60.38
-4 -3 6 291.19 30.65
-4 -3 6 235.42 30.32
-4 -3 6 244.45 30.88
-4 -3 6 221.41 29.4
-4 -3 6 229.57 29.99
-4 -3 7 542.16 49.44
-4 -3 7 525.85 45.27
-4 -3 7 601.44 51
-4 -3 7 485.34 46.4
-4 -3 7 579.23 50.68
-4 -3 8 55.35 14.73
-4 -3 8 73.4 18.01
-4 -3 8 66.1 17.5
-4 -3 8 53.48 15.19
-4 -3 8 62.6 16.92
-4 -3 9 569.65 50.66
-4 -3 9 476.52 48.18
-4 -3 9 505.99 50.77
-4 -3 9 478.09 48.48
-4 -2 -13 219.32 34.43
-4 -2 -13 196.4 48.19
-4 -2 -12 127.34 25.32
-4 -2 -12 87.27 30.38
-4 -2 -11 572.45 53.39
-4 -2 -11 475.74 42.34
-4 -2 -11 470.3 69.97
-4 -2 -10 89.34 17.22
-4 -2 -10 84 19.61
-4 -2 -10 76.3 26.53
-4 -2 -9 508.32 40.18
-4 -2 -9 578.72 44.86
-4 -2 -9 608.51 51.36
-4 -2 -9 624.48 73.4
-4 -2 -8 95.79 16.13
-4 -2 -8 97.6 17.12
-4 -2 -8 102.14 17.34
-4 -2 -8 107.38 20.27
-4 -2 -8 103.36 28.65
-4 -2 -7 1083.18 60.67
-4 -2 -7 1153.91 65.06
-4 -2 -7 1062.57 62.44
-4 -2 -7 1135.52 69.22
-4 -2 -7 1132.28 94.61
-4 -2 -6 31.61 8.95
-4 -2 -6 23.75 8.75
-4 -2 -6 23.36 8.08
-4 -2 -6 40.25 11.61
-4 -2 -6 17.96 11.45
-4 -2 -5 1712.35 79.17
-4 -2 -5 1665.54 83.34
-4 -2 -5 1682.41 80.35
-4 -2 -5 1669.86 84.71
-4 -2 -5 1845.16 114.23
-4 -2 -4 93.22 16.33
-4 -2 -4 112.12 17.61
-4 -2 -4 151.32 18.96
-4 -2 -4 124.95 16.8
-4 -2 -4 128.58 26.36
-4 -2 -3 1312.67 65.64
-4 -2 -3 1288.37 65.3
-4 -2 -3 1251.63 64.08
-4 -2 -3 1399.05 67.29
-4 -2 -2 12.86 5.49
-4 -2 -2 10.93 5.24
-4 -2 -2 16.8 6.25
-4 -2 -2 14.1 5.92
-4 -2 -2 22.48 9.2
-4 -2 -2 15.8 5.92
-4 -2 -2 14.5 4.76
-4 -2 -1 1590.79 74.56
-4 -2 -1 1637.1 68.79
-4 -2 -1 1610.34 66.72
-4 -2 -1 1607.73 75.78
-4 -2 -1 1630.27 74.08
-4 -2 -1 1569.08 74.25
-4 -2 -1 1542.59 73.53
-4 -2 -1 1560.8 74.71
-4 -2 -1 1642.84 90.5
-4 -2 0 160.01 19.43
-4 -2 0 135.18 16.51
-4 -2 0 143.41 19.1
-4 -2 0 145.54 16.16
-4 -2 0 120.99 16.01
-4 -2 0 133.1 17.7
-4 -2 0 129.18 17.26
-4 -2 0 149.27 24.32
-4 -2 0 134.32 18.01
-4 -2 1 1731.47 64.42
-4 -2 1 1597.03 58.66
-4 -2 1 1734.69 67.22
-4 -2 1 1636.92 56.95
-4 -2 1 1553.5 53.99
-4 -2 1 1610.24 61.39
-4 -2 1 1677.95 81.8
-4 -2 1 1514.19 60.43
-4 -2 2 730.72 48.53
-4 -2 2 723.56 47.05
-4 -2 2 752.63 50.39
-4 -2 2 745.86 46.32
-4 -2 2 750.86 42.21
-4 -2 2 668.99 45.93
-4 -2 2 757.05 48.45
-4 -2 2 733.78 59.76
-4 -2 3 635.62 46.96
-4 -2 3 660.92 48.7
-4 -2 3 668.8 47.56
-4 -2 3 710.5 47.43
-4 -2 3 706.18 46.9
-4 -2 3 716.68 60.4
-4 -2 3 675.88 46.89
-4 -2 4 467.28 40.5
-4 -2 4 431.57 38.64
-4 -2 4 437.29 39.38
-4 -2 4 453.82 38.77
-4 -2 4 449.6 37.15
-4 -2 4 451.62 49.15
-4 -2 4 466.76 38.96
-4 -2 5 563.95 46.63
-4 -2 5 537.64 45.34
-4 -2 5 479.7 42.88
-4 -2 5 556.98 41.05
-4 -2 5 542.3 42.29
-4 -2 5 543.34 55.64
-4 -2 5 500.06 42.13
-4 -2 6 505.04 42.05
-4 -2 6 552.34 47.59
-4 -2 6 547.87 47.26
-4 -2 6 502.94 43.57
-4 -2 6 568.45 48.45
-4 -2 7 490.72 46.75
-4 -2 7 513.8 44.27
-4 -2 7 458.46 45.06
-4 -2 7 469.88 42.94
-4 -2 7 508.5 47.78
-4 -2 8 542.03 47.19
-4 -2 8 530.62 49.73
-4 -2 8 430.11 44.85
-4 -2 8 501.46 45.03
-4 -2 8 452.47 47.53
-4 -2 9 51.73 15.72
-4 -2 9 49.28 15.49
-4 -2 9 39.9 14.3
-4 -2 9 43.23 13.6
-4 -1 -13 214.79 34.13
-4 -1 -13 163.47 42.57
-4 -1 -12 119.42 24.84
-4 -1 -12 82.48 28.71
-4 -1 -11 89.3 17.39
-4 -1 -11 97.61 30.69
-4 -1 -11 114.92 23.38
-4 -1 -10 627.96 47.09
-4 -1 -10 702.56 49.66
-4 -1 -10 647.85 77.33
-4 -1 -10 661.8 56.36
-4 -1 -9 216.72 25.27
-4 -1 -9 261.08 32.87
-4 -1 -9 244.65 26.92
-4 -1 -9 223.15 25.78
-4 -1 -9 193.15 26.04
-4 -1 -9 218.64 42.59
-4 -1 -8 855.96 53.79
-4 -1 -8 1012.37 65.44
-4 -1 -8 913.37 54.1
-4 -1 -8 871.82 53.86
-4 -1 -8 858.73 82.6
-4 -1 -8 902.43 52.93
-4 -1 -8 912.84 59.65
-4 -1 -7 168.46 21.12
-4 -1 -7 208.17 25.95
-4 -1 -7 188.56 22.35
-4 -1 -7 178.45 24.97
-4 -1 -7 198.68 21.85
-4 -1 -7 191.51 21.88
-4 -1 -7 171.07 20.54
-4 -1 -7 203.52 36.94
-4 -1 -7 199.61 21.39
-4 -1 -6 1115.21 65.6
-4 -1 -6 956.45 56.62
-4 -1 -6 1106.61 58.13
-4 -1 -6 1089.38 56.18
-4 -1 -6 1038.69 56.47
-4 -1 -6 1162.69 60.76
-4 -1 -6 1104.87 85.99
-4 -1 -6 1029.03 59.51
-4 -1 -6 1092.92 65.33
-4 -1 -5 14.14 6.1
-4 -1 -5 9.1 4.79
-4 -1 -5 19.98 8.09
-4 -1 -5 25.2 8.68
-4 -1 -5 16.96 5.85
-4 -1 -5 18.3 6.26
-4 -1 -5 6.05 5.56
-4 -1 -5 8.29 5.09
-4 -1 -5 10.3 5.56
-4 -1 -4 1306.98 58.19
-4 -1 -4 1302.86 61.5
-4 -1 -4 1293.38 55.54
-4 -1 -4 1297.4 46.96
-4 -1 -4 1267.86 46.64
-4 -1 -4 1207.84 45.84
-4 -1 -4 1300.56 57.46
-4 -1 -4 1217.15 48.13
-4 -1 -4 1372.83 59.27
-4 -1 -4 1327.3 80.72
-4 -1 -3 82.27 14.28
-4 -1 -3 92.95 13.63
-4 -1 -3 74.88 14.9
-4 -1 -3 66.72 12.93
-4 -1 -3 80.44 12.8
-4 -1 -3 78.06 11.15
-4 -1 -3 83.21 14.92
-4 -1 -3 90.13 13.5
-4 -1 -3 70.62 16.5
-4 -1 -3 49.36 11.82
-4 -1 -2 2193.63 89.62
-4 -1 -2 2213.25 99.15
-4 -1 -2 2133.05 95.55
-4 -1 -2 2161.64 81.48
-4 -1 -2 2313.3 93.93
-4 -1 -2 2180.12 81.04
-4 -1 -2 2141.56 96.36
-4 -1 -2 2234.02 92.36
-4 -1 -2 2043.95 106.17
-4 -1 -2 2226.9 99.4
-4 -1 -1 90.16 14.11
-4 -1 -1 106.7 16.51
-4 -1 -1 91.94 15.83
-4 -1 -1 114.42 13.68
-4 -1 -1 104.3 15.85
-4 -1 -1 84.89 10.8
-4 -1 -1 87.69 13.47
-4 -1 -1 114.27 16.98
-4 -1 -1 82.54 13.74
-4 -1 -1 92.35 19.3
-4 -1 -1 85.2 13.65
-4 -1 -1 92.04 16
-4 -1 0 2095.76 91.14
-4 -1 0 1883.59 85.63
-4 -1 0 1871.35 81.4
-4 -1 0 2192.95 93.38
-4 -1 0 1984.64 79.3
-4 -1 0 1925.74 88.24
-4 -1 0 1958.34 87.48
-4 -1 0 2019.88 83.95
-4 -1 0 1815.36 83.75
-4 -1 0 1976.2 92.15
-4 -1 0 2027.16 105.75
-4 -1 1 531.71 38.99
-4 -1 1 532.74 38.61
-4 -1 1 559.04 41.66
-4 -1 1 433.06 34.07
-4 -1 1 518.03 34.51
-4 -1 1 473.03 37.26
-4 -1 1 485.66 36.69
-4 -1 1 527.03 34.78
-4 -1 1 461.02 34.71
-4 -1 1 548.17 50.49
-4 -1 1 604.61 42.32
-4 -1 2 683.75 44.62
-4 -1 2 614.14 44.04
-4 -1 2 627.74 46.59
-4 -1 2 621.31 43.24
-4 -1 2 632.6 41.62
-4 -1 2 639.44 56.85
-4 -1 2 667.31 45.12
-4 -1 2 628.72 42.15
-4 -1 2 605.61 43.93
-4 -1 2 636.55 39.24
-4 -1 3 28 9.95
-4 -1 3 29.74 7.61
-4 -1 3 39.47 10.69
-4 -1 3 24.32 8.73
-4 -1 3 43.67 10.73
-4 -1 3 31.09 9.51
-4 -1 3 46.96 15.66
-4 -1 3 25.25 8.2
-4 -1 3 33.98 9.38
-4 -1 3 46.43 10.8
-4 -1 4 1407.34 79.41
-4 -1 4 1312.86 76.06
-4 -1 4 1566.79 73.92
-4 -1 4 1335.93 75.45
-4 -1 4 1525.59 81.1
-4 -1 4 1534.4 79.24
-4 -1 4 1652.82 102.11
-4 -1 4 1404.23 72.69
-4 -1 5 708.01 51.83
-4 -1 5 610.74 49.72
-4 -1 5 601.95 48.87
-4 -1 5 680.37 46.86
-4 -1 5 617.36 49.53
-4 -1 5 661.01 49.57
-4 -1 5 617.13 44.86
-4 -1 5 635.8 63
-4 -1 6 493.69 44.89
-4 -1 6 535.38 45.73
-4 -1 6 514.77 46.29
-4 -1 6 545.55 43.86
-4 -1 6 528.38 46.98
-4 -1 6 531.92 44.94
-4 -1 6 521.87 41.89
-4 -1 6 519.12 58.61
-4 -1 7 649.61 55.04
-4 -1 7 647.01 50.77
-4 -1 7 632.87 54.75
-4 -1 7 797.75 75.02
-4 -1 7 675.72 54.82
-4 -1 7 648.14 51.43
-4 -1 8 163.33 27.59
-4 -1 8 105.84 21.75
-4 -1 8 164.06 27.64
-4 -1 8 145.49 24.04
-4 -1 9 191.17 31.32
-4 -1 9 187.82 30.37
-4 -1 9 184.87 28.45
-4 -1 9 177.23 29.07
-4 0 -13 317.2 35.16
-4 0 -13 316.23 41.52
-4 0 -13 394.45 41.85
-4 0 -12 239.94 29.54
-4 0 -12 291.2 38.2
-4 0 -12 240.88 48.5
-4 0 -12 230.4 31.21
-4 0 -11 87.29 17.56
-4 0 -11 154.39 26.65
-4 0 -11 100.22 29.86
-4 0 -11 97.09 18.98
-4 0 -10 274.53 31.3
-4 0 -10 298.29 31
-4 0 -10 282.97 35.7
-4 0 -10 222.17 29.96
-4 0 -10 220.52 43.12
-4 0 -9 485.27 40.9
-4 0 -9 435.91 37.52
-4 0 -9 487.58 45.76
-4 0 -9 497.84 44.75
-4 0 -9 488.3 61.03
-4 0 -8 199.87 24.46
-4 0 -8 194.03 23.7
-4 0 -8 170.83 21
-4 0 -8 184.33 26.44
-4 0 -8 182.33 22.87
-4 0 -8 207.33 28.06
-4 0 -8 205.39 37.58
-4 0 -7 1326.26 70.49
-4 0 -7 1390.66 77.82
-4 0 -7 1376.14 68.39
-4 0 -7 1305.73 68.91
-4 0 -7 1276.48 70.48
-4 0 -7 1555.48 83.44
-4 0 -7 1387.71 70.65
-4 0 -7 1422.21 99.05
-4 0 -6 240.8 25.03
-4 0 -6 240.29 21.59
-4 0 -6 237.74 24.8
-4 0 -6 297.9 30.55
-4 0 -6 231.26 23.76
-4 0 -6 231.63 26.33
-4 0 -6 267.01 30.86
-4 0 -6 213.62 24.46
-4 0 -6 177.6 31.99
-4 0 -5 1310.2 65.26
-4 0 -5 1251.17 57.21
-4 0 -5 1276.34 67.37
-4 0 -5 1258.12 68.96
-4 0 -5 1285.81 63.03
-4 0 -5 1275.63 68.98
-4 0 -5 1207.48 84.58
-4 0 -5 1244.84 59.82
-4 0 -5 1330.52 70.92
-4 0 -5 1389.59 76.5
-4 0 -4 3.22 2.79
-4 0 -4 1.56 2.03
-4 0 -4 -1.07 1.96
-4 0 -4 8.77 5.02
-4 0 -4 3.59 3.11
-4 0 -4 2.04 2.29
-4 0 -4 5.05 4.64
-4 0 -4 -1.96 0.04
-4 0 -4 1.57 2.88
-4 0 -4 8.67 5.3
-4 0 -4 1.74 3.2
-4 0 -4 1.4 2.58
-4 0 -3 1088.47 62.23
-4 0 -3 1087.04 54.36
-4 0 -3 1132.53 60.1
-4 0 -3 1143.33 58.62
-4 0 -3 1100.62 52.73
-4 0 -3 1118.47 64.15
-4 0 -3 1033.7 55.58
-4 0 -3 1135.67 66.14
-4 0 -3 1136.31 65.17
-4 0 -3 1083.46 69.71
-4 0 -2 105.15 14.65
-4 0 -2 113.22 18.01
-4 0 -2 128.76 17.96
-4 0 -2 145.87 14.56
-4 0 -2 132.74 14.05
-4 0 -2 144.61 20.29
-4 0 -2 111.67 15.78
-4 0 -2 188.59 23.19
-4 0 -2 108.98 20.5
-4 0 -2 120.55 19.38
-4 0 -1 1912.51 87.31
-4 0 -1 1636.35 76.64
-4 0 -1 1881.09 87.61
-4 0 -1 1769.19 85.16
-4 0 -1 1660.67 73.6
-4 0 -1 1688.61 95.87
-4 0 -1 1963.1 90.84
-4 0 -1 1932.92 88.46
-4 0 -1 1863.91 82.47
-4 0 0 72.22 14.03
-4 0 0 71.3 14.37
-4 0 0 48.12 11.3
-4 0 0 72.51 12.59
-4 0 0 55.38 12.07
-4 0 0 48.94 10.28
-4 0 0 68.57 10.69
-4 0 0 73.99 12.22
-4 0 0 68.06 17.34
-4 0 0 82.35 16.11
-4 0 0 69.43 11.34
-4 0 0 74.84 14.56
-4 0 1 1787.82 84.78
-4 0 1 2004.58 95.45
-4 0 1 2059.96 84.05
-4 0 1 2157.43 94.44
-4 0 1 1922.8 87.29
-4 0 1 1766.76 84.88
-4 0 1 2054.34 92.09
-4 0 1 1962.5 89.41
-4 0 1 2106.41 111.19
-4 0 1 1990.13 94.26
-4 0 1 1831.88 82.21
-4 0 2 357.75 35.04
-4 0 2 299.61 29.52
-4 0 2 342.42 29.72
-4 0 2 292.73 29.81
-4 0 2 333.82 31
-4 0 2 345.37 29.91
-4 0 2 388.8 34.5
-4 0 2 349.86 42.49
-4 0 2 371.71 29.49
-4 0 2 346.89 32.82
-4 0 3 908.72 59.84
-4 0 3 845.91 55.18
-4 0 3 820.37 52.96
-4 0 3 882.13 54.05
-4 0 3 840.28 54.44
-4 0 3 786.94 48.07
-4 0 3 839.57 55.58
-4 0 3 856.45 71.76
-4 0 3 908.13 55.37
-4 0 3 791.86 47.65
-4 0 4 17.31 7.8
-4 0 4 21.32 8.33
-4 0 4 18.25 7.07
-4 0 4 8.86 5.65
-4 0 4 15.72 8.08
-4 0 4 9.22 5.88
-4 0 4 12.72 8.27
-4 0 4 17.69 6.57
-4 0 5 685.88 53.71
-4 0 5 803.14 58.2
-4 0 5 817.31 57.36
-4 0 5 807.88 52.54
-4 0 5 740.48 54.75
-4 0 5 715.21 54.38
-4 0 5 733.45 70.32
-4 0 6 554.65 47.37
-4 0 6 459.59 44.09
-4 0 6 517.01 47.07
-4 0 6 526.9 43.48
-4 0 6 452.21 43.88
-4 0 6 517.6 46.42
-4 0 6 512.87 59.26
-4 0 7 552.71 48.45
-4 0 7 501.47 48.38
-4 0 7 507.7 45.93
-4 0 7 600.45 51.83
-4 0 7 540.44 49.8
-4 0 7 606.43 51.76
-4 0 7 596.19 66.73
-4 0 8 376.47 42.9
-4 0 8 376.46 40.32
-4 0 8 403.29 44.17
-4 0 8 464.74 60.31
-4 0 8 354.15 40.54
-4 0 9 200.45 29.96
-4 0 9 264.87 36.92
-4 0 9 201.14 31.76
-4 0 9 203.25 41.44
-4 0 9 226.44 32.71
-4 1 -13 126.14 22.11
-4 1 -13 188.05 31.62
-4 1 -13 145.56 25.96
-4 1 -12 118.99 20.95
-4 1 -12 108.87 23.6
-4 1 -12 109.49 21.84
-4 1 -11 265.32 31.16
-4 1 -11 291.23 37.6
-4 1 -11 309.61 36.2
-4 1 -10 359.1 37.32
-4 1 -10 297.39 36.37
-4 1 -10 326.7 33.72
-4 1 -10 321.34 37.56
-4 1 -9 469.93 41.79
-4 1 -9 499.05 45.54
-4 1 -9 404.38 42.86
-4 1 -9 433.06 38.33
-4 1 -8 637.77 47.76
-4 1 -8 551.26 40.45
-4 1 -8 602.79 48.89
-4 1 -8 620.58 46.45
-4 1 -8 545.18 49.68
-4 1 -8 564.09 43.02
-4 1 -7 123.53 19.49
-4 1 -7 127.73 17.83
-4 1 -7 132.28 21.08
-4 1 -7 131.61 19.26
-4 1 -7 127.22 18.76
-4 1 -7 152.35 22.23
-4 1 -7 143.52 23.9
-4 1 -7 99.77 17.61
-4 1 -7 128.46 26.84
-4 1 -6 653.95 45.6
-4 1 -6 542.14 37.37
-4 1 -6 618.87 45.53
-4 1 -6 599.53 43.61
-4 1 -6 531.63 39.61
-4 1 -6 655.16 48.23
-4 1 -6 615.55 50.74
-4 1 -6 523.11 42.85
-4 1 -6 545.25 53.54
-4 1 -5 340.84 29.75
-4 1 -5 301.19 23.77
-4 1 -5 312.87 29.82
-4 1 -5 323.94 29.31
-4 1 -5 342.23 27.91
-4 1 -5 363.89 34.03
-4 1 -5 418.67 38.4
-4 1 -5 297.61 22.97
-4 1 -5 296.21 30.18
-4 1 -5 269.5 33.95
-4 1 -4 1193.62 67.18
-4 1 -4 1243.85 62.66
-4 1 -4 1077.41 60.87
-4 1 -4 1103.27 54.18
-4 1 -4 1131.75 66.23
-4 1 -4 1144.7 61.5
-4 1 -4 1071.08 57.27
-4 1 -4 1252.68 70.5
-4 1 -4 1264.1 73.44
-4 1 -4 1115.03 56.07
-4 1 -4 1104.91 69.44
-4 1 -4 1171.68 69.12
-4 1 -4 1071.14 72.54
-4 1 -3 36.37 12.09
-4 1 -3 47.78 12.91
-4 1 -3 53.71 10.22
-4 1 -3 52.13 13.05
-4 1 -3 40.7 8.58
-4 1 -3 40.65 9.94
-4 1 -3 32.05 7.5
-4 1 -3 55.46 13.33
-4 1 -3 48.92 13.09
-4 1 -3 46.21 11.32
-4 1 -3 43.63 9.62
-4 1 -2 2386.72 81.99
-4 1 -2 2317.91 58.31
-4 1 -2 2426.22 64.44
-4 1 -2 2228.67 91.44
-4 1 -2 2299.11 88.25
-4 1 -2 2607.18 88.06
-4 1 -2 2309.67 71.38
-4 1 -2 2538.88 88.27
-4 1 -2 2451.29 87.27
-4 1 -2 2540.88 64.85
-4 1 -1 18.62 7.61
-4 1 -1 5.01 4.34
-4 1 -1 2.7 2.48
-4 1 -1 1.09 2.45
-4 1 -1 24.95 10.2
-4 1 -1 7.54 5.47
-4 1 -1 3.46 3.18
-4 1 -1 4.7 4.07
-4 1 -1 1.06 1.94
-4 1 0 904.15 59.12
-4 1 0 742.48 47.74
-4 1 0 916.66 67.18
-4 1 0 851.97 58.77
-4 1 0 922.79 56.93
-4 1 0 929.8 54.72
-4 1 0 826.55 51.96
-4 1 0 938.85 59.24
-4 1 0 746.01 45.89
-4 1 1 1.9 4.28
-4 1 1 15.41 6.64
-4 1 1 6.35 4.13
-4 1 1 15.99 6.24
-4 1 1 5.12 4.4
-4 1 1 2.79 3.14
-4 1 1 7.22 4.14
-4 1 1 5.27 4.84
-4 1 1 11.2 6.42
-4 1 1 4.08 2.65
-4 1 1 3.46 3.89
-4 1 2 803.71 55.19
-4 1 2 1005.14 65.53
-4 1 2 973.61 57.11
-4 1 2 1075.73 63.5
-4 1 2 943.52 56.06
-4 1 2 1040.83 58.87
-4 1 2 983.37 60.83
-4 1 2 898.76 73.01
-4 1 2 991.52 63.46
-4 1 3 175.84 26.06
-4 1 3 120.55 20.17
-4 1 3 164.91 22.53
-4 1 3 176.31 22.89
-4 1 3 176.2 23.93
-4 1 3 170.91 24.11
-4 1 3 205.94 25.9
-4 1 3 179.71 32.28
-4 1 4 1569.91 88.29
-4 1 4 1927.36 99.49
-4 1 4 1889.1 93.41
-4 1 4 1666.45 87.62
-4 1 4 1803.47 95.02
-4 1 4 1743.01 113.72
-4 1 5 130.91 23.3
-4 1 5 115.22 20.79
-4 1 5 126.79 22.16
-4 1 5 138.64 21.14
-4 1 5 140.36 22.48
-4 1 5 130.45 22.85
-4 1 5 100.8 26.27
-4 1 6 355.26 38.93
-4 1 6 329.06 37.14
-4 1 6 332.23 37.85
-4 1 6 333.36 35.3
-4 1 6 317.97 36.13
-4 1 6 345.95 39.07
-4 1 6 405.94 54
-4 1 7 102.21 21.82
-4 1 7 91.31 20.12
-4 1 7 111.87 20.85
-4 1 7 123.56 23.03
-4 1 7 111.89 22.15
-4 1 7 124.94 23.75
-4 1 7 90.82 26.44
-4 1 8 255.43 34.3
-4 1 8 244.02 34.37
-4 1 8 275.84 47.43
-4 1 8 269.75 34.22
-4 1 8 231.02 34.22
-4 1 9 284.78 37.16
-4 1 9 233.45 35.11
-4 1 9 305.72 36.86
-4 1 9 219.77 33.51
-4 1 9 276.01 50.16
-4 2 -12 356.1 37.4
-4 2 -12 335.61 41.14
-4 2 -12 341.88 40.36
-4 2 -11 142.4 22.94
-4 2 -11 130.57 24.41
-4 2 -11 117.27 23.48
-4 2 -11 143.7 25.14
-4 2 -10 315.62 36.45
-4 2 -10 330.09 37.38
-4 2 -10 267.67 35.86
-4 2 -10 276.55 31.89
-4 2 -9 287.55 33.41
-4 2 -9 295.88 34.04
-4 2 -9 215.53 26.23
-4 2 -9 281.84 36.37
-4 2 -9 246.42 28.86
-4 2 -8 182.38 26.17
-4 2 -8 204.94 24.74
-4 2 -8 217.93 27.93
-4 2 -8 271.64 31.76
-4 2 -8 200.85 30.26
-4 2 -8 198.69 25.07
-4 2 -7 299 32.43
-4 2 -7 259.14 27.07
-4 2 -7 330.85 32.84
-4 2 -7 289.96 31.1
-4 2 -7 250.48 27.95
-4 2 -7 307.57 34.13
-4 2 -7 341.53 39.1
-4 2 -7 290.09 32.11
-4 2 -6 593.18 42.82
-4 2 -6 570.08 37.17
-4 2 -6 633.85 44.58
-4 2 -6 606.03 40.96
-4 2 -6 498.54 36.84
-4 2 -6 673.18 49.35
-4 2 -6 675.15 52.72
-4 2 -6 536.54 42.99
-4 2 -5 1251.81 74.65
-4 2 -5 1247.63 70.76
-4 2 -5 1143.59 62.23
-4 2 -5 1300.4 74.21
-4 2 -5 1322.17 67.9
-4 2 -5 1297.96 68.16
-4 2 -5 1293.33 76.9
-4 2 -5 1408.73 82.26
-4 2 -5 1267.46 76.4
-4 2 -4 143.28 23.13
-4 2 -4 106.05 19.9
-4 2 -4 60.1 13.67
-4 2 -4 98.53 16.9
-4 2 -4 59.56 11.57
-4 2 -4 73.5 13.23
-4 2 -4 69.25 13.34
-4 2 -4 58.95 14.76
-4 2 -4 64.36 15.63
-4 2 -4 101.75 18.75
-4 2 -3 608.99 46.4
-4 2 -3 621.84 39.42
-4 2 -3 597.29 49.08
-4 2 -3 615.01 39.95
-4 2 -3 613.23 40.99
-4 2 -3 650.28 51.46
-4 2 -3 656.95 51.65
-4 2 -3 606.48 39.77
-4 2 -3 634.16 51.61
-4 2 -3 598.26 49.61
-4 2 -2 47.58 14.1
-4 2 -2 32.36 11.28
-4 2 -2 42.16 9.83
-4 2 -2 51.31 13.52
-4 2 -2 44.54 9.86
-4 2 -2 54.95 14.47
-4 2 -2 56.29 14.54
-4 2 -2 39.28 10
-4 2 -2 80.51 16.51
-4 2 -1 984.9 64.25
-4 2 -1 926.13 49.83
-4 2 -1 1052.64 66.84
-4 2 -1 938.52 50.86
-4 2 -1 952.88 62.99
-4 2 -1 950.68 56.17
-4 2 -1 1059.13 62.45
-4 2 -1 889.78 64.81
-4 2 -1 826.17 64.38
-4 2 0 122.83 21.21
-4 2 0 81.05 19.89
-4 2 0 78.05 17.98
-4 2 0 96.38 17.08
-4 2 0 87.89 16.12
-4 2 0 95.72 18.87
-4 2 0 121.87 20.06
-4 2 0 69.83 12.35
-4 2 1 1902.75 100.4
-4 2 1 1873.95 109.26
-4 2 1 1947.41 101.85
-4 2 1 1787.84 91.07
-4 2 1 1916.29 93.9
-4 2 1 2085.65 101.66
-4 2 1 1796.53 82.63
-4 2 2 1.85 3.39
-4 2 2 9.87 6.04
-4 2 2 2.2 2.86
-4 2 2 -1.37 0.05
-4 2 2 7.74 4.92
-4 2 2 8.96 7.75
-4 2 2 4.23 4.75
-4 2 2 7.77 5.64
-4 2 3 648.67 51.26
-4 2 3 564.83 42.69
-4 2 3 592.08 45.93
-4 2 3 574.05 45.33
-4 2 3 500.46 53.52
-4 2 3 506.97 37.47
-4 2 3 626.98 45.75
-4 2 4 67.91 16.07
-4 2 4 86.44 17.76
-4 2 4 59.65 14.15
-4 2 4 76.66 18.46
-4 2 4 85.61 18.55
-4 2 4 69.62 21.3
-4 2 5 651.65 55.3
-4 2 5 526.83 47.65
-4 2 5 636.79 52.41
-4 2 5 646.87 54.2
-4 2 5 595.93 65.26
-4 2 5 622.82 48.98
-4 2 6 63.68 16.46
-4 2 6 68.19 17.04
-4 2 6 57.69 14.75
-4 2 6 62.02 16.76
-4 2 6 44.13 18.86
-4 2 7 469.16 47.17
-4 2 7 569.16 51.7
-4 2 7 564.39 49.18
-4 2 7 548.52 51.85
-4 2 8 46.58 15.83
-4 2 8 63.5 17.14
-4 2 8 36.13 13.2
-4 2 8 84.34 20.58
-4 3 -11 400.41 43.89
-4 3 -11 418.92 47.13
-4 3 -11 352.1 38.21
-4 3 -10 120.22 24.96
-4 3 -10 168.62 24.93
-4 3 -10 157.16 26.59
-4 3 -10 163.81 24.59
-4 3 -9 209.22 29.69
-4 3 -9 220.98 33.54
-4 3 -9 204.8 27.73
-4 3 -9 206.17 27.03
-4 3 -8 134.04 23.44
-4 3 -8 169.37 23.56
-4 3 -8 143.79 24.81
-4 3 -8 174.33 29.47
-4 3 -8 200.61 26.24
-4 3 -7 171.15 25.12
-4 3 -7 177.55 23.09
-4 3 -7 194.95 26.3
-4 3 -7 169.76 23.4
-4 3 -7 230.73 32.78
-4 3 -7 211.87 29.24
-4 3 -7 152.42 24.46
-4 3 -6 267.74 32.79
-4 3 -6 218.99 28.8
-4 3 -6 206.56 25.02
-4 3 -6 249.27 31.02
-4 3 -6 237.93 27.97
-4 3 -6 266.66 33.52
-4 3 -6 263.99 34.76
-4 3 -6 288.07 35.01
-4 3 -5 726.67 53.71
-4 3 -5 723.69 48.71
-4 3 -5 869.37 60.53
-4 3 -5 672.6 49.1
-4 3 -5 853.84 61.83
-4 3 -5 896.63 64.7
-4 3 -5 685.64 57.05
-4 3 -4 961.28 62.15
-4 3 -4 831.3 52.79
-4 3 -4 1056.9 68.46
-4 3 -4 861.02 55.08
-4 3 -4 856.07 65.71
-4 3 -4 981.99 67.72
-4 3 -4 1047.82 69.7
-4 3 -3 65.95 16.18
-4 3 -3 41.37 12.84
-4 3 -3 38.65 10.2
-4 3 -3 57.26 15.37
-4 3 -3 38.16 10.32
-4 3 -3 2.4 12.53
-4 3 -3 47.88 14.45
-4 3 -2 592.91 49.67
-4 3 -2 524.07 38.68
-4 3 -2 576.7 49.8
-4 3 -2 532.16 39.74
-4 3 -2 477.55 48.08
-4 3 -2 606.66 49.1
-4 3 -2 604.86 50.85
-4 3 -1 79.63 17.74
-4 3 -1 80.9 15.34
-4 3 -1 89.09 18.81
-4 3 -1 57.66 12.34
-4 3 -1 62.78 14.9
-4 3 -1 70.96 13.15
-4 3 -1 57.36 16.24
-4 3 -1 53.85 15.69
-4 3 -1 68.97 16.95
-4 3 0 655.05 44.26
-4 3 0 748.11 58.25
-4 3 0 760.59 58.28
-4 3 0 777.17 56.44
-4 3 0 666.59 48.71
-4 3 0 572.14 55.18
-4 3 0 686.72 58.46
-4 3 1 83.91 14.73
-4 3 1 88.3 21.71
-4 3 1 77.58 19.31
-4 3 1 101.68 20.45
-4 3 1 79.88 16.97
-4 3 1 90.93 17.53
-4 3 1 105.51 21.46
-4 3 2 1080.47 74.15
-4 3 2 984.25 65.48
-4 3 2 1114.27 72
-4 3 2 909.73 76.6
-4 3 2 953.21 69.73
-4 3 3 2.33 5.23
-4 3 3 -2.14 2.77
-4 3 3 2.47 4.54
-4 3 4 464.6 57.52
-4 3 4 535.15 47.58
-4 3 4 651.8 56.23
-4 3 5 -2.16 3.97
-4 3 5 17.58 9.02
-4 3 5 20.38 9.92
-4 3 5 7.73 8.69
-4 3 6 375.99 41.07
-4 3 6 455.6 47.02
-4 3 6 450.58 45.69
-4 3 7 40.86 14.51
-4 3 7 43.1 13.96
-4 3 7 50.04 15.96
-4 4 -10 187.78 27.82
-4 4 -10 216.47 29.73
-4 4 -9 -2.88 7.49
-4 4 -9 42.8 12.96
-4 4 -9 -2.52 6.54
-4 4 -9 46.03 14.41
-4 4 -9 31.71 11.21
-4 4 -8 340.46 40.75
-4 4 -8 423.29 43.67
-4 4 -8 434.19 40.41
-4 4 -8 493.15 47.93
-4 4 -8 450.29 41.62
-4 4 -7 67.08 16.42
-4 4 -7 82.97 16.93
-4 4 -7 90.94 20.18
-4 4 -7 78.88 16.76
-4 4 -6 154.88 24.82
-4 4 -6 117.73 19.92
-4 4 -6 169.98 26.81
-4 4 -6 154.73 23.09
-4 4 -6 157.96 26.81
-4 4 -6 115.03 22.96
-4 4 -5 546.17 41.14
-4 4 -5 490.85 45
-4 4 -5 541.95 41.7
-4 4 -5 520.23 47.59
-4 4 -5 462.64 46.36
-4 4 -4 203.96 25.12
-4 4 -4 194.91 29.51
-4 4 -4 243.22 27.98
-4 4 -4 274.81 35.38
-4 4 -4 168.3 28.4
-4 4 -3 286.24 35
-4 4 -3 244.57 28.27
-4 4 -3 251.33 34.29
-4 4 -3 283.96 30.1
-4 4 -3 338.66 38.9
-4 4 -3 334.09 37.83
-4 4 -3 248.55 35.77
-4 4 -2 406.98 41.94
-4 4 -2 323.24 32.09
-4 4 -2 404.14 43.14
-4 4 -2 292.27 30.82
-4 4 -2 357.79 40.42
-4 4 -2 413.21 41.02
-4 4 -2 232.68 35.2
-4 4 -1 425.59 44.59
-4 4 -1 387.63 35.78
-4 4 -1 410.96 44.09
-4 4 -1 432.94 36.84
-4 4 -1 390.76 45.12
-4 4 -1 408.9 42.55
-4 4 0 69.52 17.03
-4 4 0 51.22 13.04
-4 4 0 29.28 9.77
-4 4 0 49.65 15.18
-4 4 0 54.17 16.55
-4 4 0 61.46 16.94
-4 4 1 658.33 48.75
-4 4 1 790.78 63.83
-4 4 1 718.41 59.84
-4 4 1 736 62.72
-4 4 1 811.63 59.7
-4 4 1 698.34 53.17
-4 4 2 -1.68 0.02
-4 4 2 7.85 6.8
-4 4 2 13.21 7.67
-4 4 2 7.23 7
-4 4 3 413.17 45.16
-4 4 3 322.1 46.31
-4 4 3 381.07 41.6
-4 4 3 325.77 41.14
-4 4 4 3.68 4.78
-4 4 4 10.81 7.85
-4 4 5 405.83 46.14
-4 4 5 338.7 51.75
-4 4 6 -2.36 3.07
-4 4 6 9.75 7.75
-4 4 6 4.19 5.44
-4 4 6 2.72 6.12
-4 5 -8 140.04 26.79
-4 5 -8 107.18 21.24
-4 5 -7 289.59 36.13
-4 5 -7 282.68 33.6
-4 5 -7 280.74 37.56
-4 5 -7 246.32 31.89
-4 5 -6 24.75 11.29
-4 5 -6 28.81 11.02
-4 5 -6 -2.81 7.29
-4 5 -6 42.09 12.75
-4 5 -6 37.61 13.51
-4 5 -6 19.93 9.71
-4 5 -5 245.22 30.22
-4 5 -5 212.28 32.38
-4 5 -5 228.98 29.69
-4 5 -5 281.89 37.65
-4 5 -5 211.66 34.04
-4 5 -4 141.86 22.68
-4 5 -4 174.85 29.34
-4 5 -4 139.02 22.45
-4 5 -4 184.36 30.04
-4 5 -4 132.41 26.43
-4 5 -3 154.88 26.76
-4 5 -3 117.65 20.69
-4 5 -3 169.64 29.05
-4 5 -3 135.34 21.65
-4 5 -3 121.13 24.48
-4 5 -3 110.98 24.93
-4 5 -2 387.31 42.97
-4 5 -2 346.63 35.6
-4 5 -2 375.56 43.89
-4 5 -2 313.53 34.28
-4 5 -2 397.81 44.3
-4 5 -2 262.75 38.99
-4 5 -1 152.33 27.19
-4 5 -1 165.69 24.34
-4 5 -1 174.95 29.76
-4 5 -1 140.11 22.2
-4 5 -1 158.66 27.5
-4 5 -1 121.39 26.42
-4 5 0 291.42 33.34
-4 5 0 345.85 41.94
-4 5 0 341.15 41.71
-4 5 0 303.94 41.76
-4 5 0 351.33 40.63
-4 5 1 33.1 13.42
-4 5 1 28.67 10.55
-4 5 1 26.33 12.03
-4 5 1 18.65 10.4
-4 5 2 231.23 34.33
-4 5 2 186.12 26.52
-4 5 2 252.61 36.59
-4 5 2 216 34.21
-4 5 3 110.52 23.58
-4 5 3 116.33 24.37
-4 6 -3 94.94 21.53
-4 6 -3 91.36 19.86
-4 6 -3 78.08 17.5
-4 6 -2 187.94 30.9
-4 6 -2 137.11 23.56
-4 6 -2 126.92 23.02
-4 6 -1 189.96 31.19
-4 6 -1 133.3 23.88
-4 6 0 100.6 22.37
-4 6 0 89.16 19.28
-3 -8 -5 248.25 34.4
-3 -8 -5 263.04 32.94
-3 -8 -5 274.78 52.23
-3 -8 -4 43.65 13.76
-3 -8 -4 35.37 13.02
-3 -8 -4 36.17 13.32
-3 -8 -4 34.8 12.34
-3 -8 -4 15.9 13.79
-3 -8 -3 242.65 33.81
-3 -8 -3 238.63 33.34
-3 -8 -3 255.57 33.4
-3 -8 -3 252.48 34.21
-3 -8 -3 269.01 33.86
-3 -8 -3 323.73 57.8
-3 -8 -2 168.26 27.43
-3 -8 -2 152.03 27.07
-3 -8 -2 171.08 27.06
-3 -8 -2 183.17 29.07
-3 -8 -2 188.62 28.74
-3 -8 -2 142.01 39.14
-3 -8 -1 271.84 35.53
-3 -8 -1 279.72 36.45
-3 -8 -1 288.3 34.95
-3 -8 -1 301.46 36.99
-3 -8 -1 333.29 58.65
-3 -8 0 161.76 27.03
-3 -8 0 158.47 27.07
-3 -8 0 142.51 24.24
-3 -8 0 139.39 25.54
-3 -8 0 216.46 47.85
-3 -8 1 256.64 34.77
-3 -8 1 259.63 50.59
-3 -8 1 239.62 32.57
-3 -8 2 390.62 62.17
-3 -7 -8 453.09 48.39
-3 -7 -8 406.67 44.64
-3 -7 -8 495.93 46.32
-3 -7 -7 2.39 3.1
-3 -7 -7 4.51 4.14
-3 -7 -7 2.53 3.29
-3 -7 -6 326.74 39.39
-3 -7 -6 363.31 37.98
-3 -7 -6 329.34 38.12
-3 -7 -6 348.68 38.57
-3 -7 -6 382.01 57.19
-3 -7 -5 8.53 6.79
-3 -7 -5 24.78 10.04
-3 -7 -5 11.69 7.44
-3 -7 -5 15.51 8.15
-3 -7 -5 19.16 8.97
-3 -7 -5 4.67 6.07
-3 -7 -4 560.22 48.72
-3 -7 -4 583.67 49.73
-3 -7 -4 597.77 51.47
-3 -7 -4 586.16 50.37
-3 -7 -4 555.75 47.14
-3 -7 -4 499.66 67.94
-3 -7 -3 56.39 14.96
-3 -7 -3 53.89 14.65
-3 -7 -3 65.07 15.46
-3 -7 -3 63.05 15.77
-3 -7 -3 76.75 16.88
-3 -7 -3 57.98 23.54
-3 -7 -2 633.82 51.73
-3 -7 -2 644.03 53.04
-3 -7 -2 569.94 47.43
-3 -7 -2 524.98 46.85
-3 -7 -2 619.14 51.16
-3 -7 -2 756.45 82.93
-3 -7 -1 159.58 25.28
-3 -7 -1 170.63 26.66
-3 -7 -1 183.78 25.86
-3 -7 -1 176.04 25.46
-3 -7 -1 183.42 27.15
-3 -7 -1 187.87 41.32
-3 -7 0 304.32 34.72
-3 -7 0 319.71 34.48
-3 -7 0 288.84 34.68
-3 -7 0 322.16 36.52
-3 -7 0 408.6 59.53
-3 -7 1 215.94 28.77
-3 -7 1 191.54 24.55
-3 -7 1 233.45 30.7
-3 -7 1 206.97 29.23
-3 -7 1 307.31 51.31
-3 -7 2 287.81 33.4
-3 -7 2 337.8 33.44
-3 -7 2 264.1 32.93
-3 -7 2 346.23 38.57
-3 -7 2 325.3 52.87
-3 -7 3 379.77 38.48
-3 -7 3 422.77 38.53
-3 -7 3 378.9 38.88
-3 -7 3 330.71 38.38
-3 -7 3 427.97 59.66
-3 -7 4 281.49 33.05
-3 -7 4 292.5 32.96
-3 -7 4 305.36 36.03
-3 -7 5 382.29 38.76
-3 -7 5 349.59 36.89
-3 -6 -10 86.31 18.62
-3 -6 -10 63.4 17.62
-3 -6 -10 83.74 20.16
-3 -6 -9 337.65 40.61
-3 -6 -9 297.7 34.78
-3 -6 -9 354.42 40.72
-3 -6 -8 4.07 4.57
-3 -6 -8 2.39 4.39
-3 -6 -8 -2.33 4.28
-3 -6 -7 451.3 44.81
-3 -6 -7 448.98 42.05
-3 -6 -7 466.96 44.27
-3 -6 -6 1.81 7.8
-3 -6 -6 18.42 8.42
-3 -6 -6 19.32 7.92
-3 -6 -6 27.91 10.44
-3 -6 -6 23.61 9.23
-3 -6 -6 30.1 9.97
-3 -6 -6 27.87 14.63
-3 -6 -5 841.28 57.28
-3 -6 -5 775.7 58.01
-3 -6 -5 791.51 55.58
-3 -6 -5 853.87 58.97
-3 -6 -5 887.74 59.84
-3 -6 -5 854.3 55.84
-3 -6 -5 846.16 81.19
-3 -6 -4 26.59 9.78
-3 -6 -4 16.81 7.26
-3 -6 -4 18.24 7.88
-3 -6 -4 34.9 10.88
-3 -6 -4 17.49 8
-3 -6 -4 22.42 9.41
-3 -6 -4 34.84 11.55
-3 -6 -4 12.31 9.25
-3 -6 -3 1045.73 56.77
-3 -6 -3 1026.37 57.97
-3 -6 -3 998.23 53.88
-3 -6 -3 1025.65 57.95
-3 -6 -3 1109.29 58.89
-3 -6 -3 997.77 56.26
-3 -6 -3 1124.36 90.28
-3 -6 -2 242.8 28.73
-3 -6 -2 223.44 26.52
-3 -6 -2 234.53 29.62
-3 -6 -2 306.64 31.77
-3 -6 -2 291.07 31.47
-3 -6 -2 273.5 45.61
-3 -6 -1 414.06 37.6
-3 -6 -1 375.33 34.77
-3 -6 -1 393.24 38.01
-3 -6 -1 409.47 32.48
-3 -6 -1 393.47 37.7
-3 -6 -1 400.82 35.94
-3 -6 -1 358.03 52.48
-3 -6 0 3.48 3.2
-3 -6 0 8.18 5.2
-3 -6 0 9.35 4.91
-3 -6 0 12.18 9.13
-3 -6 0 12.33 6
-3 -6 0 1.87 4.2
-3 -6 0 7.4 5.37
-3 -6 1 862.98 58.85
-3 -6 1 881.77 58.29
-3 -6 1 926.72 55.28
-3 -6 1 869.22 60.1
-3 -6 1 1042.99 88.89
-3 -6 2 550.92 44.45
-3 -6 2 536.05 43.65
-3 -6 2 496.85 39.67
-3 -6 2 538.91 45.47
-3 -6 2 525.55 42.63
-3 -6 2 537.98 62.97
-3 -6 3 535.42 44.14
-3 -6 3 574.89 43.79
-3 -6 3 554.84 42.39
-3 -6 3 607.5 46.64
-3 -6 3 597.45 48.29
-3 -6 3 645.73 49.47
-3 -6 4 539.36 43.91
-3 -6 4 522.05 41.91
-3 -6 4 548.75 44.63
-3 -6 4 592.78 47.44
-3 -6 4 546.09 47.33
-3 -6 5 111.04 19.44
-3 -6 5 124.55 19.94
-3 -6 5 178.91 27.17
-3 -6 5 148.31 22.78
-3 -6 6 195.14 26.13
-3 -6 6 217.45 31.06
-3 -6 6 181.96 26.16
-3 -6 7 259.72 33.27
-3 -6 7 240.41 34.42
-3 -6 7 237.31 31.06
-3 -5 -12 153.68 28.08
-3 -5 -11 68.43 18.41
-3 -5 -11 57.97 16.09
-3 -5 -10 362.48 41.26
-3 -5 -10 395.54 41.84
-3 -5 -9 66.46 17.14
-3 -5 -9 70.56 17.36
-3 -5 -9 70.33 15.31
-3 -5 -9 111.73 31.6
-3 -5 -8 686.39 54.33
-3 -5 -8 625.2 51.74
-3 -5 -8 635.63 48.58
-3 -5 -7 5.87 5.08
-3 -5 -7 1.99 5.77
-3 -5 -7 8.7 5.53
-3 -5 -7 1.46 4.23
-3 -5 -7 4.08 5.3
-3 -5 -7 6.6 6.06
-3 -5 -6 862.06 57.17
-3 -5 -6 780.43 50.57
-3 -5 -6 728.83 53.22
-3 -5 -6 788.79 53.3
-3 -5 -6 736.65 48.99
-3 -5 -6 682.53 67.47
-3 -5 -6 940.42 81.63
-3 -5 -5 69.41 13.78
-3 -5 -5 63.67 13.32
-3 -5 -5 52.39 12.92
-3 -5 -5 63.81 14.45
-3 -5 -5 59.18 13.78
-3 -5 -5 53.8 12.4
-3 -5 -5 70.27 13.03
-3 -5 -5 64.96 20.42
-3 -5 -5 70.74 21.5
-3 -5 -4 972.8 57.17
-3 -5 -4 1031.1 61.28
-3 -5 -4 970.63 55.76
-3 -5 -4 967.76 58.58
-3 -5 -4 989.28 59.58
-3 -5 -4 971.33 58.3
-3 -5 -4 1021.01 60.47
-3 -5 -4 1076.1 57.03
-3 -5 -4 1030.99 83.99
-3 -5 -4 1023.29 80.46
-3 -5 -3 12.86 5.87
-3 -5 -3 23.52 7.59
-3 -5 -3 14.17 6.37
-3 -5 -3 23.26 8.05
-3 -5 -3 17.06 7.26
-3 -5 -3 -1.32 2.42
-3 -5 -3 22.86 8.16
-3 -5 -3 35.02 9.88
-3 -5 -3 10.4 7.79
-3 -5 -2 1315.78 68.59
-3 -5 -2 1291.5 65.69
-3 -5 -2 1348.9 71.35
-3 -5 -2 1143.85 63.35
-3 -5 -2 1299.13 70.28
-3 -5 -2 1284.55 68.39
-3 -5 -2 1401.8 64.32
-3 -5 -2 1415.27 99.61
-3 -5 -1 392.69 33.7
-3 -5 -1 352.67 30.43
-3 -5 -1 367.3 28.28
-3 -5 -1 406.23 50.77
-3 -5 -1 380.73 30.42
-3 -5 -1 387.86 34.7
-3 -5 -1 385.34 32.5
-3 -5 -1 404.09 35.23
-3 -5 -1 411.42 31.23
-3 -5 0 1247.26 68.68
-3 -5 0 1128.16 64.38
-3 -5 0 1283.88 61.87
-3 -5 0 1212.46 68.27
-3 -5 0 1206.32 63.51
-3 -5 0 1450.51 67.94
-3 -5 0 1351.16 96.63
-3 -5 1 6.11 4.43
-3 -5 1 1.48 1.92
-3 -5 1 3.45 3.34
-3 -5 1 2.38 2.18
-3 -5 1 3.61 2.71
-3 -5 1 4.72 4.56
-3 -5 1 1.44 2.65
-3 -5 1 -3.33 0.06
-3 -5 2 774.54 51.49
-3 -5 2 817.56 48.5
-3 -5 2 881.96 53.96
-3 -5 2 835.29 50.21
-3 -5 2 953.39 78.11
-3 -5 2 909.14 56.22
-3 -5 2 853.7 54.41
-3 -5 3 503.52 40.35
-3 -5 3 460.78 37.35
-3 -5 3 513.2 38.48
-3 -5 3 462.34 35.83
-3 -5 3 532.24 40.51
-3 -5 3 502.48 41.25
-3 -5 3 525.52 56.06
-3 -5 3 536.07 43.06
-3 -5 4 478.63 39.49
-3 -5 4 510.16 40.16
-3 -5 4 559.13 42.4
-3 -5 4 500.78 38.43
-3 -5 4 569.29 45.05
-3 -5 4 585.11 46.84
-3 -5 5 623.9 46.52
-3 -5 5 612 45.6
-3 -5 5 607.71 48.41
-3 -5 5 639.94 51.55
-3 -5 6 436.9 41.57
-3 -5 6 492.58 46.72
-3 -5 6 448.15 40.68
-3 -5 7 381.69 40.41
-3 -5 7 326.26 33.87
-3 -5 7 362.52 37.16
-3 -5 8 185.73 29.77
-3 -5 8 192.92 27.55
-3 -5 8 163.84 26.09
-3 -5 9 -4.83 9.92
-3 -4 -13 210.64 49.18
-3 -4 -13 166.26 27.12
-3 -4 -12 242.02 51.12
-3 -4 -12 173.28 27.63
-3 -4 -11 358.2 40.33
-3 -4 -11 444.61 67.75
-3 -4 -11 360.57 38.89
-3 -4 -10 126.97 22.77
-3 -4 -10 149.77 24.36
-3 -4 -9 410.56 40.32
-3 -4 -9 390.18 34.87
-3 -4 -9 386.15 38.17
-3 -4 -8 244.64 29.18
-3 -4 -8 207.97 24.5
-3 -4 -8 259.74 45.45
-3 -4 -8 207.26 26.75
-3 -4 -7 676.73 50.04
-3 -4 -7 713.5 51.48
-3 -4 -7 744.11 45.34
-3 -4 -7 795.99 50.55
-3 -4 -7 751.91 46.65
-3 -4 -7 765.18 64.91
-3 -4 -7 866.49 80.97
-3 -4 -6 32.15 9.62
-3 -4 -6 61.6 11.82
-3 -4 -6 35.25 9.57
-3 -4 -6 27.92 9.07
-3 -4 -6 42.71 10.14
-3 -4 -6 39.21 10.55
-3 -4 -6 50.45 18.74
-3 -4 -6 25.38 11.62
-3 -4 -5 1685.03 77.53
-3 -4 -5 1827.81 84.9
-3 -4 -5 1875.47 86.57
-3 -4 -5 1775.78 81.58
-3 -4 -5 1847.64 82.83
-3 -4 -5 1780.62 84.1
-3 -4 -5 1804.34 82.16
-3 -4 -5 1867.72 80.69
-3 -4 -5 1847.41 108.93
-3 -4 -5 1827.64 114.45
-3 -4 -4 4.44 3.22
-3 -4 -4 3.02 2.93
-3 -4 -4 -1.36 0.06
-3 -4 -4 8.99 4.72
-3 -4 -4 1.31 2.4
-3 -4 -4 2.69 2.47
-3 -4 -4 9.02 4.73
-3 -4 -4 4.64 3.02
-3 -4 -4 2.87 3.73
-3 -4 -4 2.95 3.84
-3 -4 -3 1352.54 63.91
-3 -4 -3 1264.28 59.89
-3 -4 -3 1293.35 64.99
-3 -4 -3 1307.95 66.34
-3 -4 -3 1300.27 65.19
-3 -4 -3 1365.88 67.04
-3 -4 -3 1271.39 65.7
-3 -4 -3 1264.85 63.5
-3 -4 -3 1295.19 61.1
-3 -4 -3 1334.98 90.2
-3 -4 -3 1415.52 90.86
-3 -4 -2 40.95 9.34
-3 -4 -2 50.05 9.73
-3 -4 -2 73.88 13.12
-3 -4 -2 42.31 9.62
-3 -4 -2 49.88 8.33
-3 -4 -2 48.74 10.36
-3 -4 -2 55.34 11.43
-3 -4 -2 86.26 21.17
-3 -4 -2 54.22 10.32
-3 -4 -1 944.07 51.98
-3 -4 -1 924.58 48.98
-3 -4 -1 956.64 46.11
-3 -4 -1 1055.23 53.33
-3 -4 -1 989.6 75.42
-3 -4 -1 961.85 51.67
-3 -4 -1 937.22 53.74
-3 -4 -1 937.15 53.75
-3 -4 -1 956.73 50.01
-3 -4 0 142.37 18.46
-3 -4 0 142.59 16.5
-3 -4 0 153.75 16.85
-3 -4 0 150.81 15.42
-3 -4 0 174.2 19.84
-3 -4 0 165.11 16.7
-3 -4 0 133.45 17.58
-3 -4 0 177.24 29.99
-3 -4 0 160.8 19.61
-3 -4 0 150.83 17.46
-3 -4 1 2322.3 98.68
-3 -4 1 2432.64 93.1
-3 -4 1 2165.18 96.41
-3 -4 1 2114.87 91.24
-3 -4 1 2344.65 90.28
-3 -4 1 2237.05 96.53
-3 -4 1 2402.71 91.2
-3 -4 1 2366.92 98.79
-3 -4 1 2541.2 129.69
-3 -4 1 2437.36 100.1
-3 -4 2 426.78 33.6
-3 -4 2 391.57 30.38
-3 -4 2 431.45 33.16
-3 -4 2 419.31 30.15
-3 -4 2 449.11 34.39
-3 -4 2 468.21 32.35
-3 -4 2 385.59 33.01
-3 -4 2 449.72 47.93
-3 -4 2 400.63 34.34
-3 -4 3 947.07 54.2
-3 -4 3 1014.42 54.31
-3 -4 3 984.4 53.81
-3 -4 3 988.87 56.06
-3 -4 3 930.37 51.38
-3 -4 3 916.56 52.9
-3 -4 3 973.19 58
-3 -4 3 1049.83 60.99
-3 -4 3 1127.06 77.35
-3 -4 4 138.43 18.19
-3 -4 4 146.36 18.01
-3 -4 4 141.57 18.94
-3 -4 4 169.56 20.78
-3 -4 4 159.83 20.5
-3 -4 4 180.86 23.08
-3 -4 4 141.82 21.52
-3 -4 5 657.74 48.46
-3 -4 5 644.52 49.7
-3 -4 5 555.37 42.58
-3 -4 6 486.39 40.22
-3 -4 6 476.75 41.86
-3 -4 6 467.43 37.51
-3 -4 7 625.55 50.07
-3 -4 7 606.75 45.03
-3 -4 7 601.92 46.87
-3 -4 8 466.3 44.99
-3 -4 8 531.14 44.07
-3 -4 8 577.08 47.33
-3 -4 9 115.35 22.7
-3 -4 9 107.66 21.85
-3 -4 9 124.41 24.22
-3 -3 -13 171.48 43.82
-3 -3 -12 173.51 25.94
-3 -3 -12 225.29 49.46
-3 -3 -11 187.41 26.03
-3 -3 -11 148.48 25.08
-3 -3 -11 173.42 41.9
-3 -3 -10 237.67 30
-3 -3 -10 248.83 29.48
-3 -3 -10 274.62 32.72
-3 -3 -9 610.81 47.36
-3 -3 -9 762.86 54.11
-3 -3 -9 626.36 43.48
-3 -3 -9 817.56 84.32
-3 -3 -9 583.61 47.05
-3 -3 -8 1212.22 67.93
-3 -3 -8 1207.12 70.04
-3 -3 -8 1166.49 62.59
-3 -3 -8 1302.83 104.96
-3 -3 -8 1137.43 66.19
-3 -3 -7 80.37 15.1
-3 -3 -7 128.62 15.71
-3 -3 -7 98.13 16.91
-3 -3 -7 87.13 14.47
-3 -3 -7 89.87 14.07
-3 -3 -7 91.69 25.43
-3 -3 -7 82.77 19.11
-3 -3 -7 80.52 14.82
-3 -3 -6 856.87 48.64
-3 -3 -6 865.51 53.62
-3 -3 -6 991.3 56.26
-3 -3 -6 918.98 52
-3 -3 -6 866.71 49.4
-3 -3 -6 887.64 66.01
-3 -3 -6 1102.03 85.59
-3 -3 -6 915.1 52.28
-3 -3 -5 88.3 11.8
-3 -3 -5 108.71 12.71
-3 -3 -5 101.4 15.74
-3 -3 -5 107.45 14.67
-3 -3 -5 117.7 16.9
-3 -3 -5 91.86 13.88
-3 -3 -5 101.08 14.86
-3 -3 -5 117.61 15.82
-3 -3 -5 110.37 25.03
-3 -3 -5 96.2 20.45
-3 -3 -4 1073.38 50.31
-3 -3 -4 1079.5 55.35
-3 -3 -4 1120.83 57.47
-3 -3 -4 1013.7 56.11
-3 -3 -4 1082.23 47.98
-3 -3 -4 1168.34 55.47
-3 -3 -4 1052.5 55.69
-3 -3 -4 1105.54 56.32
-3 -3 -4 1167.88 56.41
-3 -3 -4 1147.4 76.68
-3 -3 -4 1228.48 84
-3 -3 -3 224.33 19.63
-3 -3 -3 264.15 18.93
-3 -3 -3 278.45 22.51
-3 -3 -3 278.3 24.22
-3 -3 -3 224.43 21.94
-3 -3 -3 250.02 21.95
-3 -3 -3 265.32 34.33
-3 -3 -3 261.88 35.5
-3 -3 -3 273.22 24.22
-3 -3 -3 245.4 22.8
-3 -3 -3 207.23 21
-3 -3 -2 3323.35 123.54
-3 -3 -2 3415.93 126.11
-3 -3 -2 3331.97 125.37
-3 -3 -2 3294.03 120.26
-3 -3 -2 3419.42 115.92
-3 -3 -2 3558.24 110.99
-3 -3 -2 3169.24 111.38
-3 -3 -2 3425.51 123.65
-3 -3 -2 3566.74 156.58
-3 -3 -2 3495.55 125.53
-3 -3 -2 3277.08 123.12
-3 -3 -1 56.77 9.88
-3 -3 -1 36.98 5.92
-3 -3 -1 49.94 10.03
-3 -3 -1 32.56 7.54
-3 -3 -1 41.64 8.32
-3 -3 -1 47.65 14.55
-3 -3 -1 34.7 8.24
-3 -3 -1 34.52 6.06
-3 -3 -1 42.81 8.73
-3 -3 -1 31.03 7.94
-3 -3 -1 41.96 7.33
-3 -3 0 1596.28 71.94
-3 -3 0 1657.78 68.73
-3 -3 0 1659.52 65.4
-3 -3 0 1675.65 73.13
-3 -3 0 1690.72 72.42
-3 -3 0 1748.68 71.93
-3 -3 0 1718.46 75.24
-3 -3 0 1713.09 70.01
-3 -3 0 1774.21 66.74
-3 -3 0 1939.23 75.11
-3 -3 0 1767.46 84.28
-3 -3 0 1915.76 101.59
-3 -3 0 1714.61 76.23
-3 -3 0 1739.35 75.56
-3 -3 0 1744.6 72.32
-3 -3 1 63.26 11.36
-3 -3 1 91.44 12.22
-3 -3 1 97.95 13.8
-3 -3 1 93.62 13.37
-3 -3 1 76.23 12.43
-3 -3 1 78.9 12.49
-3 -3 1 68.17 10.51
-3 -3 1 73.7 11.2
-3 -3 1 81.45 10.9
-3 -3 1 91.24 12.07
-3 -3 1 73.43 14.51
-3 -3 1 85.29 18.83
-3 -3 1 87.74 13.87
-3 -3 2 1205.66 58.98
-3 -3 2 1281.12 55.16
-3 -3 2 1149.66 56.59
-3 -3 2 1279.5 61.8
-3 -3 2 1231.72 59.74
-3 -3 2 1268.43 61.59
-3 -3 2 1277.88 57.48
-3 -3 2 1374.48 64.46
-3 -3 2 1262.62 69.31
-3 -3 2 1453.04 83.84
-3 -3 2 1156.89 62.93
-3 -3 3 69.9 13.17
-3 -3 3 73.47 12.27
-3 -3 3 56.97 10.49
-3 -3 3 75.11 13.24
-3 -3 3 72.52 11.63
-3 -3 3 64.76 10.81
-3 -3 3 50.23 11.64
-3 -3 3 69.49 14.72
-3 -3 3 68.37 16.8
-3 -3 4 1597.97 74.09
-3 -3 4 1541.45 77.94
-3 -3 4 1486.97 68.39
-3 -3 4 1594.54 76.76
-3 -3 4 1576.79 79.94
-3 -3 5 272.13 27.34
-3 -3 5 240.37 27.57
-3 -3 5 271.1 28.22
-3 -3 5 275.78 29.1
-3 -3 5 261.43 29.32
-3 -3 6 1247.9 68.09
-3 -3 6 1113.86 68.12
-3 -3 6 1090.45 66.02
-3 -3 6 1187.2 69.35
-3 -3 6 1124.09 69.59
-3 -3 7 635.85 48.05
-3 -3 7 624.53 44.64
-3 -3 7 752.59 51.23
-3 -3 7 697.04 48.11
-3 -3 7 620.43 45.93
-3 -3 8 325.5 35.12
-3 -3 8 326.3 36.66
-3 -3 8 341.5 36.21
-3 -3 8 302.54 35.58
-3 -3 8 310.22 35.39
-3 -3 9 204.59 28.82
-3 -3 9 178.42 28.3
-3 -3 9 211.11 30.49
-3 -3 10 162.14 27.5
-3 -3 10 178.24 28
-3 -3 10 170.91 28.37
-3 -2 -14 412.89 46.95
-3 -2 -13 88.92 31.89
-3 -2 -13 125.94 25
-3 -2 -12 335.02 59.96
-3 -2 -12 426.3 44.74
-3 -2 -11 172.13 40.81
-3 -2 -11 138.48 21.05
-3 -2 -11 113.58 22.23
-3 -2 -10 130.2 33.97
-3 -2 -10 134.75 20.21
-3 -2 -10 176.25 26.94
-3 -2 -9 461.91 37.6
-3 -2 -9 527.04 44.83
-3 -2 -9 484.01 35.89
-3 -2 -9 387.6 57.08
-3 -2 -8 1064.94 93.46
-3 -2 -8 1074.63 60.98
-3 -2 -8 1177.68 59.39
-3 -2 -8 1154.82 63.15
-3 -2 -8 1256.78 71.03
-3 -2 -8 1163.94 57.98
-3 -2 -7 1397.03 67.82
-3 -2 -7 1460.8 68.28
-3 -2 -7 1344.46 67.18
-3 -2 -7 1359.88 69.37
-3 -2 -7 1524.56 78.06
-3 -2 -7 1475.13 64.46
-3 -2 -7 1498.91 84.69
-3 -2 -7 1541.63 106.84
-3 -2 -6 194.36 27.43
-3 -2 -6 198.28 34.18
-3 -2 -6 190.3 20.68
-3 -2 -6 179.97 20.43
-3 -2 -6 183.83 18.43
-3 -2 -6 220.77 24.64
-3 -2 -6 206.25 19.94
-3 -2 -6 202.65 20.52
-3 -2 -6 197.9 17.71
-3 -2 -6 175.44 18.27
-3 -2 -5 844.45 46.33
-3 -2 -5 907.17 48.06
-3 -2 -5 835.08 42.99
-3 -2 -5 930.69 41.92
-3 -2 -5 843.11 37.23
-3 -2 -5 861.95 45.34
-3 -2 -5 799.49 47.19
-3 -2 -5 797.21 46.65
-3 -2 -5 855.96 50.82
-3 -2 -5 866.61 40.27
-3 -2 -5 921.03 62.92
-3 -2 -5 890.54 70.79
-3 -2 -4 77.77 11.93
-3 -2 -4 72.2 11.79
-3 -2 -4 83.62 10.6
-3 -2 -4 69.99 7.11
-3 -2 -4 85.76 9.46
-3 -2 -4 63.27 11.85
-3 -2 -4 77.51 12.29
-3 -2 -4 78.82 11.78
-3 -2 -4 83.92 13.66
-3 -2 -4 83.14 9.17
-3 -2 -4 69.79 16.39
-3 -2 -4 76.54 18.87
-3 -2 -3 2070.84 85.65
-3 -2 -3 2212.53 85.68
-3 -2 -3 2126.24 86.28
-3 -2 -3 2149.79 78.01
-3 -2 -3 2149.45 71.98
-3 -2 -3 2184.22 79.08
-3 -2 -3 2213 108.98
-3 -2 -3 2274.94 113.86
-3 -2 -3 2170.03 86.02
-3 -2 -3 2147.18 86.51
-3 -2 -3 2131.56 89.15
-3 -2 -3 2068.3 73.22
-3 -2 -2 395.8 28.64
-3 -2 -2 457.77 29.74
-3 -2 -2 395.08 27.82
-3 -2 -2 420.91 40.97
-3 -2 -2 411.62 28.57
-3 -2 -2 427.13 18.44
-3 -2 -2 454.26 30.23
-3 -2 -2 427.94 28.6
-3 -2 -2 423.7 30.16
-3 -2 -2 449.05 26.5
-3 -2 -1 2909.02 101.12
-3 -2 -1 2960.22 104.99
-3 -2 -1 2773.5 102.68
-3 -2 -1 2740.05 102.35
-3 -2 -1 2739.05 117.04
-3 -2 -1 3060.88 131.73
-3 -2 -1 2966.63 104.91
-3 -2 -1 2771.61 89.3
-3 -2 -1 2705.48 103.54
-3 -2 -1 2669.84 101.56
-3 -2 -1 2781.63 102.25
-3 -2 -1 2717.99 103.85
-3 -2 -1 2568.42 97.18
-3 -2 0 10.07 3.91
-3 -2 0 13.72 4.82
-3 -2 0 12.82 3.08
-3 -2 0 17.55 5.11
-3 -2 0 13.98 4.86
-3 -2 0 12.43 4.66
-3 -2 0 18.64 7.28
-3 -2 0 26.62 9.96
-3 -2 0 12.82 4.81
-3 -2 0 17.85 3.93
-3 -2 0 13.9 4.52
-3 -2 0 9.68 4.14
-3 -2 0 19.92 5.77
-3 -2 0 15.29 4.47
-3 -2 1 1911.61 70.54
-3 -2 1 1997.19 79.43
-3 -2 1 1994.04 81.08
-3 -2 1 1957.21 76.87
-3 -2 1 1919.61 80.21
-3 -2 1 2115.57 83.5
-3 -2 1 2053.51 95.56
-3 -2 1 2142.94 85.82
-3 -2 1 2058.96 103.27
-3 -2 1 1993.31 74.04
-3 -2 1 2263.87 82.16
-3 -2 1 2009.54 75.26
-3 -2 1 1959.47 67.13
-3 -2 1 1967.04 81.63
-3 -2 2 15.84 5.67
-3 -2 2 21.95 6.85
-3 -2 2 12.09 3.79
-3 -2 2 14.78 4.67
-3 -2 2 24.87 6.73
-3 -2 2 18.91 5.63
-3 -2 2 13.65 5.34
-3 -2 2 17.2 4.08
-3 -2 2 18.89 5.13
-3 -2 2 19.63 6.38
-3 -2 2 17.86 8.16
-3 -2 2 10.43 5.99
-3 -2 2 19.87 5.13
-3 -2 3 1779.53 72.17
-3 -2 3 1799.08 74.12
-3 -2 3 2065.12 82.18
-3 -2 3 1952.46 77.54
-3 -2 3 1947.98 85.49
-3 -2 3 1766.21 71.39
-3 -2 3 1979.52 79.67
-3 -2 3 2014.35 85.45
-3 -2 3 2011.63 86.17
-3 -2 3 2120.99 100.99
-3 -2 3 1814.47 83.92
-3 -2 3 2048.65 98.71
-3 -2 4 164.53 18.65
-3 -2 4 137.37 15.03
-3 -2 4 178.14 21.44
-3 -2 4 165.87 16.13
-3 -2 4 171.3 19.07
-3 -2 4 136.65 18.78
-3 -2 4 128.57 18.57
-3 -2 4 128.22 22.23
-3 -2 4 139.23 19.1
-3 -2 5 1154.65 59.62
-3 -2 5 1254.78 67.86
-3 -2 5 1117.52 55.02
-3 -2 5 1206.69 66.79
-3 -2 5 1194.8 62.86
-3 -2 5 1011.44 63.02
-3 -2 5 1129.08 64.37
-3 -2 5 1375.99 81.51
-3 -2 6 201.62 25.86
-3 -2 6 171.2 22.43
-3 -2 6 170.44 28.26
-3 -2 6 176.62 23.44
-3 -2 6 182.24 24.17
-3 -2 6 160.44 23.1
-3 -2 7 885.09 62.3
-3 -2 7 973.78 60.77
-3 -2 7 1004.35 62.75
-3 -2 7 832.07 59.25
-3 -2 7 1013.5 64.74
-3 -2 8 331.33 35.54
-3 -2 8 333.81 37.03
-3 -2 8 332.49 35.55
-3 -2 8 346.19 36.9
-3 -2 8 392.41 39.92
-3 -2 9 431.49 44.11
-3 -2 9 474.09 44.87
-3 -2 9 477.3 44.13
-3 -2 9 434.66 42.88
-3 -2 10 269.97 35.82
-3 -2 10 327.73 38.17
-3 -2 10 303.2 35.7
-3 -2 10 242.12 32.39
-3 -2 11 131.48 24.1
-3 -1 -14 59.11 25.47
-3 -1 -14 30.41 12.98
-3 -1 -14 33.14 11.87
-3 -1 -13 209.6 47.62
-3 -1 -13 297.66 38.6
-3 -1 -13 229.85 30.4
-3 -1 -12 149.45 38.17
-3 -1 -12 125.84 24.57
-3 -1 -12 151.73 23.34
-3 -1 -11 882.65 91.83
-3 -1 -11 863.96 57.6
-3 -1 -11 915.57 66.78
-3 -1 -10 126.01 19.21
-3 -1 -10 100.14 29.76
-3 -1 -10 121.88 18.94
-3 -1 -10 139.02 23.52
-3 -1 -9 459.42 36.63
-3 -1 -9 411.12 57.51
-3 -1 -9 498.05 37.85
-3 -1 -9 510.88 37.18
-3 -1 -9 552.47 45.91
-3 -1 -8 767.43 46.61
-3 -1 -8 923.27 58.8
-3 -1 -8 768.6 74.68
-3 -1 -8 724.92 46.39
-3 -1 -8 778.93 47.08
-3 -1 -8 816.77 49.74
-3 -1 -7 241.78 22.28
-3 -1 -7 265.8 26.42
-3 -1 -7 266.03 23.66
-3 -1 -7 267.39 24.62
-3 -1 -7 343.35 32.54
-3 -1 -7 356.05 27.46
-3 -1 -7 269.29 25.14
-3 -1 -7 273.94 22.39
-3 -1 -7 293.48 42.73
-3 -1 -6 1025.36 49.5
-3 -1 -6 1004.02 51.96
-3 -1 -6 977.85 50.96
-3 -1 -6 1097.69 58.13
-3 -1 -6 1018.57 53.08
-3 -1 -6 1066.43 60.13
-3 -1 -6 1095.15 48.84
-3 -1 -6 946.89 51.53
-3 -1 -6 1028.14 50.74
-3 -1 -6 1066.7 79.61
-3 -1 -5 1275.62 59.99
-3 -1 -5 1255.26 84.52
-3 -1 -5 1235.88 58.87
-3 -1 -5 1297.57 60.57
-3 -1 -5 1411.65 68.18
-3 -1 -5 1343.8 59.59
-3 -1 -5 1253.71 60.11
-3 -1 -5 1252.92 64.48
-3 -1 -5 1212.42 58.6
-3 -1 -5 1369.06 53.02
-3 -1 -5 1277.94 51.64
-3 -1 -5 1244.25 56.46
-3 -1 -5 1361.19 54.66
-3 -1 -4 1335.51 49.13
-3 -1 -4 1292.21 65.22
-3 -1 -4 1286.29 61.67
-3 -1 -4 1370.86 60.89
-3 -1 -4 1371.41 48.12
-3 -1 -4 1376.47 50.61
-3 -1 -4 1308.1 60.55
-3 -1 -4 1345.02 61.04
-3 -1 -4 1332.51 64.87
-3 -1 -4 1277.97 57.8
-3 -1 -4 1340.22 62.48
-3 -1 -4 1454.63 85.41
-3 -1 -4 1339.57 54.29
-3 -1 -4 1323.89 56.37
-3 -1 -3 380.95 28.66
-3 -1 -3 357.77 25.24
-3 -1 -3 384.69 19.18
-3 -1 -3 376.05 24.37
-3 -1 -3 392.94 29.34
-3 -1 -3 420.3 40.62
-3 -1 -3 387.55 23.8
-3 -1 -3 403.65 25.23
-3 -1 -3 390.3 30.58
-3 -1 -3 408.58 27.79
-3 -1 -3 403.04 29.81
-3 -1 -3 407.02 29.01
-3 -1 -2 3006.91 115.09
-3 -1 -2 2890.35 107.28
-3 -1 -2 2889.38 111.09
-3 -1 -2 2977.03 111.29
-3 -1 -2 3047.22 108.66
-3 -1 -2 2858.56 122.68
-3 -1 -2 3066.26 113.74
-3 -1 -2 3025.84 101.6
-3 -1 -2 2974.85 96.67
-3 -1 -2 2942.72 98.51
-3 -1 -2 3023.1 108.1
-3 -1 -2 3209.27 109.68
-3 -1 -2 2920.02 108.08
-3 -1 -2 2899.28 112.27
-3 -1 -1 27.61 6.8
-3 -1 -1 26.06 6.5
-3 -1 -1 33.82 7.78
-3 -1 -1 22.89 6.2
-3 -1 -1 22.23 6.12
-3 -1 -1 16.9 7.23
-3 -1 -1 15.92 5.89
-3 -1 -1 23.55 6.14
-3 -1 -1 25.98 3.15
-3 -1 -1 32.53 5.15
-3 -1 -1 16.38 4.37
-3 -1 -1 23.05 4.85
-3 -1 -1 38.54 8.24
-3 -1 0 1321.97 61.02
-3 -1 0 1403.6 60.95
-3 -1 0 1384.76 57.99
-3 -1 0 1316.54 57.82
-3 -1 0 1305.68 59.68
-3 -1 0 1326.35 61.31
-3 -1 0 1366.12 71.67
-3 -1 0 1286.52 62.15
-3 -1 0 1169.28 57.53
-3 -1 0 1332.52 48.41
-3 -1 0 1294.45 54.15
-3 -1 0 1292.46 56.11
-3 -1 0 1379.33 62.73
-3 -1 0 1296.85 50.53
-3 -1 1 28.14 6.45
-3 -1 1 25.4 6.46
-3 -1 1 25.46 5.35
-3 -1 1 29.74 5.15
-3 -1 1 26.81 6.95
-3 -1 1 27.95 6.6
-3 -1 1 -0.82 0.24
-3 -1 1 14.71 5.7
-3 -1 1 28.48 7.08
-3 -1 1 36.99 8.11
-3 -1 1 26.56 5.91
-3 -1 1 24.24 6.94
-3 -1 1 35.8 6.05
-3 -1 1 25.99 9
-3 -1 1 21.15 6.59
-3 -1 1 30.01 7.1
-3 -1 1 32.76 4.05
-3 -1 2 2724.11 119.94
-3 -1 2 2569.99 100.65
-3 -1 2 2435.03 98.48
-3 -1 2 2606.22 99.65
-3 -1 2 2603.83 93.85
-3 -1 2 2404.48 99.77
-3 -1 2 2634.15 104.81
-3 -1 2 2522.49 91.19
-3 -1 2 2425.86 99.42
-3 -1 2 2576.88 91.8
-3 -1 2 2570.39 101.94
-3 -1 2 2494.96 98.57
-3 -1 2 2579.7 90.07
-3 -1 2 2750.6 100.18
-3 -1 2 2481.14 84.52
-3 -1 3 0.56 1.27
-3 -1 3 1.5 1.94
-3 -1 3 1.27 2.34
-3 -1 3 1.32 2.42
-3 -1 3 3.51 2.63
-3 -1 3 1.27 1.42
-3 -1 3 0.96 1.76
-3 -1 3 3.31 2.48
-3 -1 3 2.08 2.7
-3 -1 3 -1.19 1.55
-3 -1 3 -1.23 1.6
-3 -1 4 2216 97.2
-3 -1 4 2289.42 98.52
-3 -1 4 2127.31 86.65
-3 -1 4 2303.43 99.15
-3 -1 4 2105.5 81.47
-3 -1 4 2205.9 97.25
-3 -1 4 2267.83 93.41
-3 -1 4 2173.92 93.19
-3 -1 4 2496.9 118.8
-3 -1 4 2292.29 95.47
-3 -1 5 59.86 12.39
-3 -1 5 89.11 20.21
-3 -1 5 98.6 17.03
-3 -1 5 82.69 14.23
-3 -1 5 65.98 14.01
-3 -1 5 79.61 15.31
-3 -1 5 72.37 14.24
-3 -1 5 58.03 12.21
-3 -1 6 814.49 66.67
-3 -1 6 639.42 45.43
-3 -1 6 739.35 52.27
-3 -1 6 747.23 49.63
-3 -1 6 636.1 48.29
-3 -1 6 727.42 49.09
-3 -1 6 694.8 47.9
-3 -1 7 292.18 32.53
-3 -1 7 312.14 31.22
-3 -1 7 364.45 45.66
-3 -1 7 298.87 30.48
-3 -1 7 294.78 31.56
-3 -1 7 314.25 34.4
-3 -1 8 838.41 59.92
-3 -1 8 836.26 56.35
-3 -1 8 865.18 62.77
-3 -1 8 929.35 61.58
-3 -1 9 164.74 26.02
-3 -1 9 151.3 25.34
-3 -1 9 165.9 26.02
-3 -1 10 453.94 45.23
-3 -1 10 549.12 51.19
-3 -1 10 483.32 47.26
-3 -1 11 164.11 27.2
-3 -1 11 197.77 30.35
-3 -1 11 182.17 29.9
-3 0 -14 400.19 42.38
-3 0 -14 291.57 55.92
-3 0 -13 2.66 9.15
-3 0 -13 10.61 6.07
-3 0 -13 2.21 4.05
-3 0 -13 -5.35 0.08
-3 0 -12 384.68 38.45
-3 0 -12 411.06 37.44
-3 0 -12 404.17 40.49
-3 0 -12 352.79 58.28
-3 0 -11 214.12 26.22
-3 0 -11 211.77 30.44
-3 0 -11 170.64 23.47
-3 0 -11 212.93 27.37
-3 0 -11 153.94 36.76
-3 0 -10 417.75 36.56
-3 0 -10 428.1 36.63
-3 0 -10 472.26 40.02
-3 0 -10 358.39 54.38
-3 0 -9 165.64 34.32
-3 0 -9 189.93 22.46
-3 0 -9 176.71 25.27
-3 0 -9 181.68 21.75
-3 0 -9 185.02 22.98
-3 0 -9 181.64 23.56
-3 0 -8 812.32 75.65
-3 0 -8 898.79 53.81
-3 0 -8 965.4 51.04
-3 0 -8 1085.32 65.02
-3 0 -8 928.39 52.47
-3 0 -8 918.62 54.81
-3 0 -8 1093.37 61.81
-3 0 -7 458.07 31.19
-3 0 -7 419.2 49.45
-3 0 -7 455.17 33.83
-3 0 -7 470.41 30.52
-3 0 -7 421.14 30.57
-3 0 -7 507.9 40.24
-3 0 -7 453.72 31.86
-3 0 -7 443.58 33.79
-3 0 -7 467.66 33.46
-3 0 -7 513.14 39.98
-3 0 -6 847.29 49.29
-3 0 -6 936.57 56.28
-3 0 -6 922.22 44.11
-3 0 -6 916.17 45.56
-3 0 -6 922.38 47.8
-3 0 -6 944.39 48.03
-3 0 -6 1032.86 57.54
-3 0 -6 863.33 48.46
-3 0 -6 914.54 48.89
-3 0 -6 950.23 71.75
-3 0 -6 916.19 50.07
-3 0 -5 1451.91 64.69
-3 0 -5 1487.4 55.69
-3 0 -5 1388.56 66.77
-3 0 -5 1525.61 74.07
-3 0 -5 1391.94 57.22
-3 0 -5 1343.26 57.02
-3 0 -5 1383.71 59.62
-3 0 -5 1338.76 63.14
-3 0 -5 1320.43 60.96
-3 0 -5 1462.48 70.11
-3 0 -5 1302.79 62.54
-3 0 -5 1404.68 65.8
-3 0 -5 1406.09 85.87
-3 0 -5 1530.02 64.16
-3 0 -4 637.73 40.11
-3 0 -4 659.1 43.35
-3 0 -4 550.79 32.1
-3 0 -4 619.03 39.54
-3 0 -4 621.85 50.29
-3 0 -4 600.24 34.9
-3 0 -4 582.24 37.2
-3 0 -4 599.54 38.67
-3 0 -4 601.3 29.55
-3 0 -4 602.01 31.75
-3 0 -4 566.84 33.51
-3 0 -4 592.9 31.88
-3 0 -4 586.43 35.33
-3 0 -3 1894.68 69.63
-3 0 -3 2008.8 85.4
-3 0 -3 1890.57 81.14
-3 0 -3 1945.5 73.98
-3 0 -3 1937.2 73.42
-3 0 -3 1936.99 68.32
-3 0 -3 1787.34 63.51
-3 0 -3 1845.02 79.25
-3 0 -3 1872.7 78.79
-3 0 -3 1843.2 72.31
-3 0 -3 1793.96 73.22
-3 0 -3 1631.34 61.5
-3 0 -3 1804.47 74.09
-3 0 -3 1753.13 85.4
-3 0 -3 1904.76 81.79
-3 0 -3 1921.71 94.61
-3 0 -2 62.22 10.4
-3 0 -2 39.08 6.14
-3 0 -2 57.67 7.58
-3 0 -2 68.17 12.31
-3 0 -2 51.59 8.9
-3 0 -2 54.3 7
-3 0 -2 44.11 5.21
-3 0 -2 52.84 4.15
-3 0 -2 47.92 6.51
-3 0 -2 59.56 10.9
-3 0 -2 40.23 9.58
-3 0 -2 41.59 7.81
-3 0 -2 50.55 9.37
-3 0 -2 51.91 5.49
-3 0 -2 53.83 7.98
-3 0 -2 52.64 4.14
-3 0 -2 56.45 9.6
-3 0 -2 55.46 12.39
-3 0 -2 63.62 11.94
-3 0 -1 1379.08 60.89
-3 0 -1 1684.67 72.27
-3 0 -1 1577.56 60.65
-3 0 -1 1647.62 58.73
-3 0 -1 1531.72 71.55
-3 0 -1 1659.16 73.19
-3 0 -1 1585.79 68.09
-3 0 -1 1682.8 62.44
-3 0 -1 1636.35 57.37
-3 0 -1 1481.38 65.18
-3 0 -1 1671.72 73.26
-3 0 -1 1671.6 59.41
-3 0 -1 1626.85 60.35
-3 0 -1 1653.21 69.97
-3 0 -1 1693.11 82.78
-3 0 -1 1457.62 65.42
-3 0 -1 1771.58 76.58
-3 0 0 1469.51 77.67
-3 0 0 1355.04 67.9
-3 0 0 1321.98 59.94
-3 0 0 1433.33 57.7
-3 0 0 1443.45 52.27
-3 0 0 1464.19 67.48
-3 0 0 1373.78 64.46
-3 0 0 1416.68 62.19
-3 0 0 1436.87 58.29
-3 0 0 1406.63 56.05
-3 0 0 1404.75 54.84
-3 0 0 1445.95 51.17
-3 0 0 1472.11 66.27
-3 0 0 1406.47 63.82
-3 0 0 1559.8 60.87
-3 0 0 1429.16 51.36
-3 0 0 1473.18 65.73
-3 0 0 1405.05 50.18
-3 0 0 1220.13 58.31
-3 0 0 1456.8 68
-3 0 1 2370.35 93.66
-3 0 1 2668.61 104.3
-3 0 1 2570.38 115.94
-3 0 1 2611.21 95.69
-3 0 1 2525.57 81.77
-3 0 1 2369.65 84.14
-3 0 1 2696.35 102.42
-3 0 1 2513.51 91.77
-3 0 1 2598.71 87.74
-3 0 1 2538.48 88.35
-3 0 1 2476.65 99.68
-3 0 1 2369.18 97.34
-3 0 1 2482.4 91.12
-3 0 1 2452.05 96.94
-3 0 1 2527.61 100.84
-3 0 1 2482.27 97.82
-3 0 1 2676.56 96.81
-3 0 1 2661.08 104.09
-3 0 1 2148.22 94.36
-3 0 2 8.2 5.95
-3 0 2 5.86 3.73
-3 0 2 7.93 3.8
-3 0 2 13.63 4.7
-3 0 2 7.35 4.09
-3 0 2 4.44 3.22
-3 0 2 3.01 2.19
-3 0 2 1.35 3.51
-3 0 2 6.74 2.91
-3 0 2 7.68 3.74
-3 0 2 8.37 4.39
-3 0 2 3.35 2.52
-3 0 2 12 4.14
-3 0 2 15.25 5.44
-3 0 2 8.76 4.27
-3 0 2 3.83 2.02
-3 0 3 2126.88 80.87
-3 0 3 2095.62 94.32
-3 0 3 1909.32 88.83
-3 0 3 2127.14 83.1
-3 0 3 2211.98 92.74
-3 0 3 2062.98 77.43
-3 0 3 2189.96 87.74
-3 0 3 2143.86 91.24
-3 0 3 1933.64 80.13
-3 0 3 2092.6 90.88
-3 0 3 2084.56 85.98
-3 0 3 2044.28 77.34
-3 0 3 2186.72 110.42
-3 0 3 2101.69 88.95
-3 0 3 1996.27 83.26
-3 0 4 427.2 34.8
-3 0 4 413.73 30.06
-3 0 4 411.35 34.46
-3 0 4 411.65 31.91
-3 0 4 379.89 25.91
-3 0 4 370.96 32.6
-3 0 4 363.93 33.28
-3 0 4 343.89 40.78
-3 0 4 399.98 30.03
-3 0 4 352.87 27.87
-3 0 5 1123.73 64.22
-3 0 5 1183.87 63.25
-3 0 5 1249.91 68.17
-3 0 5 1036.33 52.11
-3 0 5 1013.49 62.19
-3 0 5 1162.87 65.2
-3 0 5 999.69 54.59
-3 0 6 162.01 22.79
-3 0 6 189.39 25.63
-3 0 6 174.38 23
-3 0 6 190.86 19.81
-3 0 6 164.19 23.3
-3 0 6 162.47 22.68
-3 0 6 160.83 19.64
-3 0 7 1287.9 72.86
-3 0 7 1346.22 77.99
-3 0 7 1226.88 72.74
-3 0 7 1141.6 71.54
-3 0 7 1223.48 70.08
-3 0 8 209.65 29.6
-3 0 8 198.86 27.49
-3 0 8 215.2 28.01
-3 0 8 160.52 24.78
-3 0 9 503.36 48.61
-3 0 9 443.13 44.03
-3 0 9 458.46 44.15
-3 0 10 318.57 38.15
-3 0 10 327.47 39.57
-3 0 10 348.35 39.12
-3 0 11 269.69 36.06
-3 0 11 245.64 33.39
-3 1 -14 14.97 8.35
-3 1 -14 18.45 8.31
-3 1 -13 331.52 37.01
-3 1 -13 410.31 45.65
-3 1 -13 438.46 44.25
-3 1 -13 395.4 37.97
-3 1 -12 20.72 8.49
-3 1 -12 25.14 10.84
-3 1 -12 12.17 6.41
-3 1 -12 43.73 13.33
-3 1 -12 23.51 13.66
-3 1 -11 641 49.11
-3 1 -11 696.32 49.41
-3 1 -11 774.24 56.3
-3 1 -10 110.53 28.86
-3 1 -10 139.91 20.46
-3 1 -10 168.27 25.88
-3 1 -10 164 22.47
-3 1 -10 179.23 24.86
-3 1 -10 142.28 23.02
-3 1 -9 379.45 51.03
-3 1 -9 504.42 38.73
-3 1 -9 505.06 44.19
-3 1 -9 449.51 36.47
-3 1 -9 483.13 40.59
-3 1 -9 531.3 44.4
-3 1 -8 88.51 22.75
-3 1 -8 120.78 17.54
-3 1 -8 128.45 20.88
-3 1 -8 156.18 19.32
-3 1 -8 113.11 18.24
-3 1 -8 130.98 21.31
-3 1 -8 116.2 17.26
-3 1 -7 1013.11 53.65
-3 1 -7 905.08 72.24
-3 1 -7 893.13 52.63
-3 1 -7 1014.47 60.12
-3 1 -7 1069.05 52.81
-3 1 -7 900.91 51.57
-3 1 -7 936.22 51.09
-3 1 -7 957.55 56.15
-3 1 -7 1029.1 63.47
-3 1 -7 941.62 54.99
-3 1 -6 564.91 38.79
-3 1 -6 568.38 52.2
-3 1 -6 596.3 38.7
-3 1 -6 587.49 38.13
-3 1 -6 599.84 42.21
-3 1 -6 581.31 35.65
-3 1 -6 520.88 35.26
-3 1 -6 569.16 39.61
-3 1 -6 597.62 41.36
-3 1 -6 569.95 44.8
-3 1 -5 1020.61 46.46
-3 1 -5 1201.42 66.04
-3 1 -5 1156.25 61.42
-3 1 -5 973.08 56.59
-3 1 -5 1049.79 69.09
-3 1 -5 1101.29 55.08
-3 1 -5 1217.93 59.14
-3 1 -5 1146.87 59.01
-3 1 -5 1016.72 49.58
-3 1 -5 1048.39 51.9
-3 1 -5 1066.62 52.54
-3 1 -5 1005.92 55.67
-3 1 -5 1082.36 49.79
-3 1 -4 1126.94 52.11
-3 1 -4 1046.68 49.96
-3 1 -4 1153.09 52.85
-3 1 -4 1102.63 50.45
-3 1 -4 1197.07 62.84
-3 1 -4 1097.05 49.26
-3 1 -4 1226.48 66
-3 1 -4 1195.05 53.83
-3 1 -4 1166.88 49.99
-3 1 -4 1059.05 50.91
-3 1 -4 1157.41 59.29
-3 1 -4 1084.09 56.09
-3 1 -4 1110.42 54.19
-3 1 -4 1062.38 60.55
-3 1 -4 1046.04 59.58
-3 1 -4 1147.5 68.22
-3 1 -4 1065.62 52.87
-3 1 -4 1078.94 56.1
-3 1 -3 817.6 40.76
-3 1 -3 868.06 42.44
-3 1 -3 819.6 41.13
-3 1 -3 842.05 41.04
-3 1 -3 836.57 42.47
-3 1 -3 949.77 54.81
-3 1 -3 922.92 52.93
-3 1 -3 822.34 41.82
-3 1 -3 904.27 46.58
-3 1 -3 849.17 40.31
-3 1 -3 832.11 41.29
-3 1 -3 975.7 52.83
-3 1 -3 884.23 46
-3 1 -3 857.81 44.14
-3 1 -3 765.05 50.42
-3 1 -3 789.84 50.95
-3 1 -3 832.37 54.17
-3 1 -3 893.35 47.56
-3 1 -3 870.23 50.22
-3 1 -3 855.35 47.06
-3 1 -2 1457.62 75.55
-3 1 -2 1446.78 74.4
-3 1 -2 1420.16 53.77
-3 1 -2 1480.38 62.38
-3 1 -2 1447.71 59.56
-3 1 -2 1547.24 73.6
-3 1 -2 1460.14 63.93
-3 1 -2 1445.55 57.4
-3 1 -2 1457.03 60.69
-3 1 -2 1466.87 59.38
-3 1 -2 1474.93 61.71
-3 1 -2 1442.37 60.98
-3 1 -2 1750.21 76.4
-3 1 -2 1628.24 75.36
-3 1 -2 1462.35 63.79
-3 1 -2 1493.35 56.43
-3 1 -2 1525.59 59.98
-3 1 -2 1578.01 69.06
-3 1 -2 1479.77 69.92
-3 1 -1 144.3 20.68
-3 1 -1 115.5 17.81
-3 1 -1 137 13.82
-3 1 -1 153.05 13.5
-3 1 -1 135.55 11.01
-3 1 -1 144.09 18.65
-3 1 -1 123.64 13.41
-3 1 -1 127.75 13.84
-3 1 -1 127.91 12.43
-3 1 -1 129.69 13.02
-3 1 -1 116.35 13.11
-3 1 -1 134.23 13.82
-3 1 -1 135.74 18.02
-3 1 -1 150.36 16.5
-3 1 -1 137.49 13.52
-3 1 -1 140.75 12.19
-3 1 -1 119.36 12.52
-3 1 -1 133.2 16.91
-3 1 -1 180.08 20.4
-3 1 0 1511.08 81.11
-3 1 0 1483.68 75.76
-3 1 0 1490.99 62.98
-3 1 0 1497.12 59.91
-3 1 0 1575.12 74.43
-3 1 0 1471.09 63.68
-3 1 0 1473.91 63.18
-3 1 0 1412.8 57.92
-3 1 0 1509.8 62.3
-3 1 0 1494.12 61.17
-3 1 0 1610.24 58.73
-3 1 0 1576.03 72.87
-3 1 0 1484.91 69.38
-3 1 0 1499.27 68.43
-3 1 0 1629.11 65.36
-3 1 0 1492.36 59.82
-3 1 0 1459.21 59.18
-3 1 0 1565.62 72.44
-3 1 0 1511.27 74.24
-3 1 1 471.36 42.22
-3 1 1 372.76 25.41
-3 1 1 436 35.68
-3 1 1 418.3 29.88
-3 1 1 434.67 24.79
-3 1 1 418 26.07
-3 1 1 423.03 26.49
-3 1 1 439.92 32.74
-3 1 1 463.26 33.57
-3 1 1 445.99 30.82
-3 1 1 446.98 30.56
-3 1 1 431.34 29.61
-3 1 1 459.97 35.27
-3 1 1 375.41 26.71
-3 1 1 422.62 25.38
-3 1 1 474.93 37.09
-3 1 2 2085.1 75.88
-3 1 2 2198.32 65.71
-3 1 2 2249.21 71.62
-3 1 2 2016.14 63.87
-3 1 2 2039.02 57.68
-3 1 2 2007.25 62.59
-3 1 2 2207.29 71.53
-3 1 2 2114.78 90.79
-3 1 2 1962.95 51.47
-3 1 2 2226.16 75.3
-3 1 2 2138.02 66.89
-3 1 2 1989.22 50.47
-3 1 2 2048.88 51.21
-3 1 2 1944.61 50.92
-3 1 3 195.83 19.77
-3 1 3 202.88 22.24
-3 1 3 165.81 16.89
-3 1 3 193.07 22.46
-3 1 3 214.59 23.32
-3 1 3 210.85 25.36
-3 1 3 197.33 17.6
-3 1 3 206 23.31
-3 1 4 1561.63 70.22
-3 1 4 1370.53 73.07
-3 1 4 1136.64 67.33
-3 1 4 1344.19 74.85
-3 1 4 1521.88 71.53
-3 1 4 1283.56 60.91
-3 1 5 86.88 16.71
-3 1 5 80.26 15.63
-3 1 5 71.62 15.36
-3 1 5 66.3 11.74
-3 1 6 880.86 59.23
-3 1 6 1066.88 64.52
-3 1 6 929.1 60.08
-3 1 6 922.52 63.14
-3 1 6 960.26 52.94
-3 1 7 7.3 5.3
-3 1 7 6.71 4.27
-3 1 7 2.1 3.85
-3 1 7 3.86 3.54
-3 1 7 9.25 5.89
-3 1 8 832.45 60.54
-3 1 8 833.71 62.93
-3 1 8 934.07 63.81
-3 1 9 50.91 15.15
-3 1 9 34.72 12.02
-3 1 9 50.22 14.23
-3 1 10 371.35 41.08
-3 1 10 400.54 43.1
-3 1 10 431.51 46.29
-3 2 -13 2.61 4.8
-3 2 -13 2.08 2.7
-3 2 -13 2.47 4.53
-3 2 -13 1.86 3.41
-3 2 -12 451.87 46.36
-3 2 -12 385.44 39.13
-3 2 -12 434.47 44
-3 2 -12 418.94 39.1
-3 2 -11 25.41 10.41
-3 2 -11 25.48 9.47
-3 2 -11 19.65 8.99
-3 2 -11 19.11 7.84
-3 2 -10 576.65 46.39
-3 2 -10 487.99 38.39
-3 2 -10 520.24 43.03
-3 2 -10 488.62 38.1
-3 2 -9 -2.13 3.91
-3 2 -9 1.94 5.64
-3 2 -9 18.5 7.49
-3 2 -9 7.67 4.88
-3 2 -9 11.31 6.47
-3 2 -9 7.86 5
-3 2 -8 831.01 53.14
-3 2 -8 950.9 59.96
-3 2 -8 883.6 53.18
-3 2 -8 873.99 53.75
-3 2 -8 1025.35 66.57
-3 2 -8 997.09 58.71
-3 2 -8 815.91 56.07
-3 2 -7 293.41 28.93
-3 2 -7 289.44 27.8
-3 2 -7 251.12 25.37
-3 2 -7 311.01 30.36
-3 2 -7 276.8 26.14
-3 2 -7 269.51 26.51
-3 2 -7 257.61 28.43
-3 2 -7 254.65 31.45
-3 2 -7 258.67 28.15
-3 2 -6 850.11 54.51
-3 2 -6 868.29 51.63
-3 2 -6 954.74 54.77
-3 2 -6 946.52 54.87
-3 2 -6 851.82 50.54
-3 2 -6 870.63 49.55
-3 2 -6 957.44 58.5
-3 2 -6 1015.26 64.35
-3 2 -6 942.07 56.03
-3 2 -5 881.36 55.69
-3 2 -5 880.06 50.43
-3 2 -5 877.53 53.31
-3 2 -5 903.92 50.51
-3 2 -5 873.64 47.22
-3 2 -5 874.95 48.59
-3 2 -5 895.21 48.72
-3 2 -5 886.75 52.67
-3 2 -5 927.23 57.1
-3 2 -4 950.23 51.92
-3 2 -4 777.61 31.64
-3 2 -4 770.11 47.58
-3 2 -4 776 42.89
-3 2 -4 766.27 39.68
-3 2 -4 871.24 40.5
-3 2 -4 1.72 2.26
-3 2 -4 938.66 49.23
-3 2 -4 740.25 37.03
-3 2 -4 802.1 37.18
-3 2 -4 738.92 34.12
-3 2 -4 -1.46 2.71
-3 2 -4 842.34 43.28
-3 2 -4 738.87 41.76
-3 2 -3 254.04 19.33
-3 2 -3 250.89 26.87
-3 2 -3 253.43 25.57
-3 2 -3 232.79 26.47
-3 2 -3 249.29 21.75
-3 2 -3 323.46 29.7
-3 2 -3 272.69 21.31
-3 2 -3 246.86 20.8
-3 2 -3 248.3 24.33
-3 2 -3 249.19 23.83
-3 2 -3 265.29 23.77
-3 2 -2 854.83 42.97
-3 2 -2 804.27 41.32
-3 2 -2 880.02 54.64
-3 2 -2 806.96 43.36
-3 2 -2 995.78 56.98
-3 2 -2 745.01 50.77
-3 2 -2 724.77 53
-3 2 -2 828.76 45
-3 2 -2 762.77 37.13
-3 2 -2 749.17 40.57
-3 2 -2 925.93 55.13
-3 2 -2 765.46 42.61
-3 2 -2 918.19 53.47
-3 2 -2 920.68 51.27
-3 2 -1 1173.93 65.93
-3 2 -1 1201.15 57.94
-3 2 -1 1370.73 66.96
-3 2 -1 1101.06 66.47
-3 2 -1 1062.44 66.66
-3 2 -1 1122.63 54.85
-3 2 -1 1121.94 49.97
-3 2 -1 1263.9 68.14
-3 2 -1 1196.66 55.32
-3 2 -1 1206.94 66.3
-3 2 -1 1183.2 52.21
-3 2 -1 1158.95 52.47
-3 2 0 529.32 30.43
-3 2 0 538.14 37.3
-3 2 0 588.61 42.08
-3 2 0 599.35 39.87
-3 2 0 535.55 34.71
-3 2 0 514.62 32.9
-3 2 0 513.26 32.73
-3 2 0 565.09 42.96
-3 2 0 562.3 32.13
-3 2 0 624.87 45.01
-3 2 0 496.26 42.27
-3 2 0 545.01 45.27
-3 2 1 2210.05 98.67
-3 2 1 1853.9 78.27
-3 2 1 1957.44 93.59
-3 2 1 1958.63 80.14
-3 2 1 2192.1 92.79
-3 2 1 2127.91 86.45
-3 2 1 1811.29 77.28
-3 2 1 1946.93 95.97
-3 2 1 1962.92 102.1
-3 2 1 1954.45 84.2
-3 2 2 106.64 16.2
-3 2 2 110.56 17.62
-3 2 2 105.91 14.73
-3 2 2 111.39 14.12
-3 2 2 98.35 12.55
-3 2 2 111.04 18.95
-3 2 2 72.87 18.02
-3 2 2 78.76 15.98
-3 2 3 966.79 52.58
-3 2 3 936.57 56.79
-3 2 3 793.42 46.42
-3 2 3 833.33 53.94
-3 2 3 955.1 61.15
-3 2 3 863.28 56.67
-3 2 4 142.54 19.79
-3 2 4 130.19 20.21
-3 2 4 106.48 15.25
-3 2 4 76.01 15.44
-3 2 4 94.51 18.45
-3 2 5 1057.05 60.27
-3 2 5 968.9 57.15
-3 2 5 934.99 45.72
-3 2 6 20.41 8.37
-3 2 6 22.19 9.09
-3 2 6 25.69 9.62
-3 2 6 22.05 7.62
-3 2 7 853.09 54.77
-3 2 7 996.17 68.4
-3 2 7 1088.45 67.88
-3 2 7 889.36 62.59
-3 2 8 33.76 10.28
-3 2 8 42.14 13.63
-3 2 8 29.61 10.68
-3 2 8 39.74 12.78
-3 2 9 374.8 40.81
-3 2 9 437.47 44.2
-3 2 9 474.51 47.63
-3 2 10 5.24 5.89
-3 2 10 11.51 7.32
-3 2 10 2.38 4.38
-3 3 -12 4.84 4.45
-3 3 -12 4.13 5.36
-3 3 -12 4.92 5.53
-3 3 -12 5.69 4.92
-3 3 -11 239.4 29.5
-3 3 -11 283.92 35.21
-3 3 -11 245.18 30.65
-3 3 -11 326.94 39.16
-3 3 -11 271.93 34.59
-3 3 -10 -2.41 6.99
-3 3 -10 2.08 5.4
-3 3 -10 5.37 4.65
-3 3 -10 7.29 4.73
-3 3 -10 10.93 6.95
-3 3 -10 1.78 3.27
-3 3 -9 953.1 59.89
-3 3 -9 955.66 62.35
-3 3 -9 835.43 56.98
-3 3 -9 880.13 57.68
-3 3 -9 995.37 69.36
-3 3 -9 868.06 61.63
-3 3 -8 96.69 17.23
-3 3 -8 82.14 16.7
-3 3 -8 103.18 17.72
-3 3 -8 94.54 16.71
-3 3 -8 94.5 18.04
-3 3 -8 98.31 18.59
-3 3 -7 644.54 47.06
-3 3 -7 738.47 49.21
-3 3 -7 659.88 50.33
-3 3 -7 788.39 54.88
-3 3 -7 711.35 48.12
-3 3 -7 677.01 47.01
-3 3 -6 31.3 9.63
-3 3 -6 51.67 11.84
-3 3 -6 53.54 11.61
-3 3 -6 40.29 10.85
-3 3 -6 33.09 10.73
-3 3 -6 35.97 10.73
-3 3 -5 253.44 24.27
-3 3 -5 247.17 24.3
-3 3 -5 249.57 27.45
-3 3 -5 264.33 25.63
-3 3 -5 202.54 26.36
-3 3 -5 248.31 26.91
-3 3 -4 242.57 26.91
-3 3 -4 281.49 28.76
-3 3 -4 270.25 26.62
-3 3 -4 267.77 25.91
-3 3 -4 283.37 32.01
-3 3 -4 284.66 32.03
-3 3 -3 1786.41 85.78
-3 3 -3 1971.03 91.29
-3 3 -3 1742.48 81.34
-3 3 -3 1760.21 80.65
-3 3 -3 1516.3 89.11
-3 3 -3 2194.73 98.54
-3 3 -2 1282.62 70.05
-3 3 -2 1168.18 59.27
-3 3 -2 1152.67 59.59
-3 3 -2 1070.32 69.56
-3 3 -2 1154.93 56.02
-3 3 -1 399 35.28
-3 3 -1 320.34 26.01
-3 3 -1 333.13 26.6
-3 3 -1 289.25 32.48
-3 3 -1 278.96 29.65
-3 3 -1 336.67 26.34
-3 3 0 346.66 28.9
-3 3 0 330.21 27.73
-3 3 0 322.32 34.22
-3 3 0 312.31 34.62
-3 3 0 299.81 34.6
-3 3 0 372.25 34.84
-3 3 0 334.37 30.71
-3 3 1 145.32 17.71
-3 3 1 202.68 27.02
-3 3 1 166.02 26.3
-3 3 1 141.32 23.61
-3 3 1 178.2 23.03
-3 3 2 707.62 48.05
-3 3 2 673.01 42.62
-3 3 2 585.79 39.33
-3 3 2 659.91 52.2
-3 3 3 469.13 36.09
-3 3 3 506.72 44.59
-3 3 3 515.91 45.74
-3 3 3 576.07 45.18
-3 3 4 1451.61 78.98
-3 3 4 1389.25 74.96
-3 3 4 1298.3 78.65
-3 3 5 12.85 7.36
-3 3 5 21.52 9.16
-3 3 5 7.41 4.72
-3 3 6 562.27 46.75
-3 3 6 673.77 50.95
-3 3 6 582.17 40.55
-3 3 7 15.31 8.52
-3 3 7 6.84 6.62
-3 3 7 -2.06 3.79
-3 3 7 15.06 6.87
-3 3 8 351.31 35.27
-3 3 8 299.35 35.92
-3 3 8 365.97 41.55
-3 3 9 1.86 2.42
-3 3 9 2.55 6.63
-3 3 9 -2.27 0.01
-3 4 -11 18.77 8.99
-3 4 -11 4.02 5.85
-3 4 -11 27.36 10.47
-3 4 -11 18.6 10.36
-3 4 -11 36.75 13.12
-3 4 -10 285.16 35.7
-3 4 -10 266.97 31.92
-3 4 -10 260.37 31.9
-3 4 -10 262.06 30.97
-3 4 -9 4.43 4.98
-3 4 -9 5.67 4.91
-3 4 -9 1.88 3.46
-3 4 -9 9.3 5.92
-3 4 -8 661.19 52.84
-3 4 -8 599.02 47.57
-3 4 -8 641.69 48.82
-3 4 -8 655.22 49.58
-3 4 -7 173.79 25.01
-3 4 -7 143.34 21.65
-3 4 -7 183.19 23.62
-3 4 -7 135.66 20.43
-3 4 -6 673.53 49.04
-3 4 -6 773.98 54.75
-3 4 -6 824.19 56.96
-3 4 -6 600.49 51.88
-3 4 -6 724.98 50.04
-3 4 -6 670.52 48.87
-3 4 -5 21.16 7.94
-3 4 -5 30.01 9.42
-3 4 -5 24.98 8.86
-3 4 -5 25.49 9.48
-3 4 -4 378.41 34.2
-3 4 -4 361.02 33.24
-3 4 -4 374.79 36.44
-3 4 -4 385.1 36.23
-3 4 -3 71.02 14.18
-3 4 -3 78.7 14.84
-3 4 -3 78.24 16.54
-3 4 -2 796.98 52.05
-3 4 -2 858.93 53.19
-3 4 -2 875.8 60.6
-3 4 -1 765.13 49.95
-3 4 -1 736.36 48.8
-3 4 -1 934.5 58.46
-3 4 -1 790.79 57.76
-3 4 0 343.79 31.14
-3 4 0 353.82 32.11
-3 4 0 411 40.51
-3 4 1 306.18 29.04
-3 4 1 334.92 31.33
-3 4 1 354.33 38.15
-3 4 2 247.97 32.47
-3 4 2 242.99 25.98
-3 4 2 289.58 31.64
-3 4 3 462.78 45.46
-3 4 3 458.79 45.44
-3 4 3 473.21 38.57
-3 4 4 244.9 32.62
-3 4 4 238.19 27.65
-3 4 5 537.64 49.27
-3 4 5 408.53 38.07
-3 4 6 7.11 6.16
-3 4 6 1.79 4.03
-3 4 7 432.13 40.35
-3 4 7 413.28 44.2
-3 4 8 30.1 12.19
-3 4 8 -2.26 0.04
-3 4 8 25.43 9.83
-3 5 -9 323.68 35.54
-3 5 -9 298.36 36.99
-3 5 -9 356.92 37.75
-3 5 -9 309.89 35.99
-3 5 -8 5.92 5.73
-3 5 -8 2.25 2.92
-3 5 -8 -2.01 0.03
-3 5 -8 1.99 2.59
-3 5 -7 297.62 33.33
-3 5 -7 271.38 33.72
-3 5 -7 270.53 32.08
-3 5 -7 298.63 33.35
-3 5 -6 1.89 2.45
-3 5 -6 2.07 2.69
-3 5 -6 1.88 3.46
-3 5 -6 1.87 2.42
-3 5 -5 577.91 46.55
-3 5 -5 564.05 47.85
-3 5 -5 635.26 48.43
-3 5 -5 478.34 42.61
-3 5 -4 68.18 15.19
-3 5 -4 65.97 16.15
-3 5 -4 48.14 12.79
-3 5 -3 564.3 44.61
-3 5 -3 551.79 48.04
-3 5 -3 498.34 42.08
-3 5 -2 152.33 22.2
-3 5 -2 195.35 28.35
-3 5 -2 175.59 24.07
-3 5 -1 237 27.96
-3 5 -1 246.58 32.85
-3 5 -1 282.17 30.54
-3 5 0 112.4 18.96
-3 5 0 99.65 20.85
-3 5 0 107.16 18.78
-3 5 1 404.08 36.85
-3 5 1 511.02 48.51
-3 5 1 494.01 41.94
-3 5 2 300.27 37.15
-3 5 2 240.45 27.61
-3 5 3 185.48 29.73
-3 5 4 443.69 46.79
-3 5 4 406.98 38.9
-3 5 5 95.88 21.41
-3 5 5 98.19 19.07
-3 5 6 164.63 27.97
-3 5 6 185.32 26.48
-3 5 7 37.05 12
-3 6 -7 -2.27 4.17
-3 6 -7 -2.16 3.97
-3 6 -6 427.1 41.76
-3 6 -6 426.64 41.81
-3 6 -6 426.15 42.45
-3 6 -5 36.91 11.93
-3 6 -5 29.42 10.94
-3 6 -5 20.5 9.25
-3 6 -4 203.82 28.11
-3 6 -4 210.71 28.46
-3 6 -3 14.06 7.38
-3 6 -3 2.35 5.3
-3 6 -3 5.96 5.16
-3 6 -2 398.3 39.57
-3 6 -2 405.69 43.97
-3 6 -2 411.97 39.83
-3 6 -1 42.11 12.84
-3 6 -1 49.5 15.14
-3 6 -1 63.5 15.06
-3 6 0 303.97 34.69
-3 6 0 368.19 41.98
-3 6 0 334.12 34.84
-3 6 1 118.1 21.42
-3 6 1 133.76 25.44
-3 6 1 112.63 20.24
-3 6 2 175.95 26.66
-3 6 2 169.4 28.74
-3 6 3 203.9 29.1
-3 6 3 209.02 32.58
-3 6 4 61.19 17.7
-2 -8 -6 69.02 17.98
-2 -8 -5 373.1 42.69
-2 -8 -5 431.42 43.56
-2 -8 -5 442.86 65.77
-2 -8 -5 438.26 46.37
-2 -8 -4 12.4 7.89
-2 -8 -4 19.58 9.54
-2 -8 -4 2.27 4.17
-2 -8 -4 5 4.59
-2 -8 -4 7.12 6.16
-2 -8 -4 4.07 4.58
-2 -8 -4 15.49 11.61
-2 -8 -3 329.2 40.22
-2 -8 -3 396.6 43.4
-2 -8 -3 389.18 42.6
-2 -8 -3 421.26 41.7
-2 -8 -3 409.07 44.01
-2 -8 -3 379.59 62.21
-2 -8 -2 21.68 9.91
-2 -8 -2 28.57 11.58
-2 -8 -2 30.56 11.44
-2 -8 -2 13.71 7.88
-2 -8 -2 48.28 13.97
-2 -8 -2 10.7 12.05
-2 -8 -1 371.38 41.6
-2 -8 -1 365.54 41.36
-2 -8 -1 295.54 36.37
-2 -8 -1 400.68 41.84
-2 -8 -1 316.23 37.57
-2 -8 -1 441.98 66.77
-2 -8 0 11.49 7.32
-2 -8 0 14.58 8.36
-2 -8 0 20.5 9.82
-2 -8 0 16.33 8.58
-2 -8 0 10.74 9.87
-2 -8 1 316.59 36.88
-2 -8 1 280.4 35.22
-2 -8 1 346.14 40.55
-2 -8 1 411.46 43.34
-2 -8 1 446.56 67.26
-2 -8 2 46.14 14.12
-2 -8 2 70.72 16.55
-2 -8 2 95.26 18.48
-2 -8 2 88.02 21.15
-2 -8 2 69.4 18.23
-2 -8 2 78.26 27.17
-2 -8 3 438.66 45.25
-2 -8 3 430.69 42.85
-2 -8 3 395.11 41.26
-2 -7 -8 170.06 28.84
-2 -7 -8 172.34 26.84
-2 -7 -8 155.6 26.83
-2 -7 -7 13.6 7.81
-2 -7 -7 23.93 10.32
-2 -7 -7 20.8 9.97
-2 -7 -7 28.37 10.99
-2 -7 -7 48.46 15.54
-2 -7 -6 294.92 36.91
-2 -7 -6 385.69 42.57
-2 -7 -6 411.67 42.97
-2 -7 -6 403.27 41.82
-2 -7 -6 406.09 41.58
-2 -7 -6 374.75 55.89
-2 -7 -5 51.28 14.56
-2 -7 -5 60.36 15.98
-2 -7 -5 44.99 12.8
-2 -7 -5 60.84 16.44
-2 -7 -5 79.59 17.96
-2 -7 -5 58.29 21.84
-2 -7 -4 602.49 51.95
-2 -7 -4 554.55 50.21
-2 -7 -4 638.75 52.77
-2 -7 -4 618.1 50.03
-2 -7 -4 578.72 46.92
-2 -7 -4 611.09 51.39
-2 -7 -4 770.82 82.01
-2 -7 -3 2.16 3.96
-2 -7 -3 2.1 3.86
-2 -7 -3 10.3 6.55
-2 -7 -3 8.67 6.29
-2 -7 -3 1.88 4.89
-2 -7 -3 2.08 2.7
-2 -7 -3 4.67 10.51
-2 -7 -2 645.85 52.4
-2 -7 -2 644.6 52.03
-2 -7 -2 589.17 49.66
-2 -7 -2 640.34 50.62
-2 -7 -2 562.14 48.96
-2 -7 -1 6.15 5.32
-2 -7 -1 -2.13 0.08
-2 -7 -1 6.01 4.51
-2 -7 -1 8.03 5.83
-2 -7 -1 9.79 6.23
-2 -7 -1 4.77 6.19
-2 -7 0 673.57 53.05
-2 -7 0 739.31 52.84
-2 -7 0 638.12 51.26
-2 -7 0 705.54 55.87
-2 -7 0 741.12 55.97
-2 -7 0 718.17 53.39
-2 -7 0 817.16 85.86
-2 -7 1 37.86 11.52
-2 -7 1 31.46 10.89
-2 -7 1 49.36 13.85
-2 -7 1 38.6 11.17
-2 -7 1 40.5 12.73
-2 -7 1 46.75 13.84
-2 -7 1 32.79 17.24
-2 -7 2 381.15 37.99
-2 -7 2 349.78 35.89
-2 -7 2 365.57 35.77
-2 -7 2 386.8 40.09
-2 -7 2 436.65 43.11
-2 -7 3 109.1 19.7
-2 -7 3 105.46 19.36
-2 -7 3 121.94 20.6
-2 -7 3 102.45 20.01
-2 -7 3 145.88 24.75
-2 -7 3 176.76 38.63
-2 -7 4 591.28 44.56
-2 -7 4 629.48 45.91
-2 -7 4 639.41 50.93
-2 -7 4 548.43 43.61
-2 -7 4 576.45 45.28
-2 -7 5 146.84 22.95
-2 -7 5 159.07 24.15
-2 -7 5 145.82 23.88
-2 -7 5 150.26 25.71
-2 -7 5 157.41 27.39
-2 -7 6 241.08 30.79
-2 -7 6 360.02 38.03
-2 -7 6 320.66 40.17
-2 -6 -10 104.05 21.69
-2 -6 -10 78.05 19.62
-2 -6 -9 215.19 28.13
-2 -6 -9 203.15 30.93
-2 -6 -9 223.82 33.12
-2 -6 -8 198.06 27.5
-2 -6 -8 185.75 28.72
-2 -6 -8 206.4 31.27
-2 -6 -7 375.82 38.86
-2 -6 -7 399.1 40.81
-2 -6 -7 406.01 43.04
-2 -6 -7 474.69 42.17
-2 -6 -7 475.71 44.47
-2 -6 -6 137.91 22.38
-2 -6 -6 121.29 22.21
-2 -6 -6 107.77 18.17
-2 -6 -6 137.45 22.79
-2 -6 -6 93.88 19.72
-2 -6 -6 110.71 20.26
-2 -6 -6 128.17 30.35
-2 -6 -5 713.77 54.66
-2 -6 -5 861.12 60.67
-2 -6 -5 759.02 56.31
-2 -6 -5 804.55 54.37
-2 -6 -5 886.73 59.14
-2 -6 -5 925.71 55.31
-2 -6 -5 881.18 58.98
-2 -6 -5 892.94 82.4
-2 -6 -4 46.6 12.91
-2 -6 -4 57.13 14.05
-2 -6 -4 50.79 12.93
-2 -6 -4 65.63 14.63
-2 -6 -4 62.55 15.11
-2 -6 -4 77.39 15.16
-2 -6 -4 47.91 12.99
-2 -6 -4 90.76 25.67
-2 -6 -3 432.02 40.08
-2 -6 -3 519.92 42.89
-2 -6 -3 480.63 41.78
-2 -6 -3 475.96 41.15
-2 -6 -3 455.16 37.8
-2 -6 -3 488.68 40.21
-2 -6 -3 503.98 42.37
-2 -6 -3 553.49 63.99
-2 -6 -2 6.04 4.4
-2 -6 -2 12.36 6.88
-2 -6 -2 17.13 7.38
-2 -6 -2 14.35 6.99
-2 -6 -2 17.89 7.71
-2 -6 -2 25.14 8.98
-2 -6 -2 8.69 5.54
-2 -6 -2 4.06 7.46
-2 -6 -1 1030.93 64.03
-2 -6 -1 1003.89 59.57
-2 -6 -1 1008.14 61.83
-2 -6 -1 950.3 63.09
-2 -6 -1 1146.62 66.23
-2 -6 -1 960.77 61.2
-2 -6 -1 1205.41 96.86
-2 -6 0 29.98 9.35
-2 -6 0 15.23 7.31
-2 -6 0 23.3 8.39
-2 -6 0 30.8 10.27
-2 -6 0 24.92 8.64
-2 -6 0 15.99 7.67
-2 -6 0 18.83 7.65
-2 -6 0 12.05 9.05
-2 -6 1 1486.87 78
-2 -6 1 1291.79 71.85
-2 -6 1 1379.17 75.73
-2 -6 1 1336.33 71.8
-2 -6 1 1510.43 80.24
-2 -6 1 1526.72 81.23
-2 -6 1 1495.71 74.53
-2 -6 1 1581.39 112.98
-2 -6 2 -1.66 3.05
-2 -6 2 6.19 5.32
-2 -6 2 3.02 3.39
-2 -6 2 7.06 5.13
-2 -6 2 -1.86 3.42
-2 -6 2 -3.85 0
-2 -6 3 432.64 38.07
-2 -6 3 448 37.88
-2 -6 3 438.65 37.67
-2 -6 3 439.35 39.21
-2 -6 3 461.16 41.98
-2 -6 3 502.25 43.08
-2 -6 3 558.87 62.76
-2 -6 4 176.07 23.35
-2 -6 4 151.91 21.79
-2 -6 4 161.18 23
-2 -6 4 181.73 23.93
-2 -6 4 170.41 25.35
-2 -6 4 204.28 28.15
-2 -6 4 180.58 24.97
-2 -6 5 598.47 45.36
-2 -6 5 643.82 47.26
-2 -6 5 534.57 47.01
-2 -6 5 664.63 49.56
-2 -6 5 595.17 49.59
-2 -6 6 191.37 26.68
-2 -6 6 195.13 25.66
-2 -6 6 203.32 25.41
-2 -6 7 545.89 46.96
-2 -6 7 505.8 43.71
-2 -6 8 172.79 26.79
-2 -5 -12 54.44 17.02
-2 -5 -11 284.71 35.6
-2 -5 -11 274.71 37.5
-2 -5 -11 306.66 39.22
-2 -5 -10 163.91 27.03
-2 -5 -10 191.64 30.08
-2 -5 -10 201.46 30.91
-2 -5 -9 434.53 38.21
-2 -5 -9 441.25 42.98
-2 -5 -9 418.27 44.28
-2 -5 -9 506.72 47.94
-2 -5 -8 311.15 32.16
-2 -5 -8 361.4 37.39
-2 -5 -8 352.16 38.8
-2 -5 -8 394.67 40.82
-2 -5 -7 264.74 28.98
-2 -5 -7 290.03 33.85
-2 -5 -7 268.83 31.04
-2 -5 -7 260.7 29.01
-2 -5 -7 284.61 32.31
-2 -5 -6 574.91 45.15
-2 -5 -6 662.57 48.6
-2 -5 -6 718.21 53.02
-2 -5 -6 762.44 52.48
-2 -5 -6 658.76 44.1
-2 -5 -6 628.19 42.11
-2 -5 -6 683.46 48.16
-2 -5 -6 623.47 62.03
-2 -5 -5 39.07 10.78
-2 -5 -5 32.06 10.03
-2 -5 -5 37.34 10.58
-2 -5 -5 39.1 10.14
-2 -5 -5 31.97 10.36
-2 -5 -5 25.4 8.8
-2 -5 -5 30.04 8.86
-2 -5 -5 57.93 18.24
-2 -5 -4 693.96 48.26
-2 -5 -4 763.32 48.69
-2 -5 -4 751.33 48.81
-2 -5 -4 706.2 48.22
-2 -5 -4 620.71 46.99
-2 -5 -4 752.61 47.06
-2 -5 -4 758.07 50.1
-2 -5 -4 744.69 68.72
-2 -5 -3 521.96 36.8
-2 -5 -3 493.07 38.76
-2 -5 -3 469.93 37.39
-2 -5 -3 478.42 36.27
-2 -5 -3 419.37 35.64
-2 -5 -3 504.35 39.65
-2 -5 -3 581.47 39.92
-2 -5 -3 447.81 37.48
-2 -5 -3 543.92 58.16
-2 -5 -2 1634.8 79.91
-2 -5 -2 1614.88 75.22
-2 -5 -2 1483.16 76.32
-2 -5 -2 1781.93 82.78
-2 -5 -2 1642.82 80.74
-2 -5 -2 1647.76 74.89
-2 -5 -2 1708.23 80.31
-2 -5 -2 1601.12 79.55
-2 -5 -2 1705.38 110.01
-2 -5 -1 91.09 15.42
-2 -5 -1 96.78 14.75
-2 -5 -1 90.63 15.21
-2 -5 -1 76.75 14.8
-2 -5 -1 91 13.25
-2 -5 -1 90.67 13.68
-2 -5 -1 90.54 15.7
-2 -5 -1 73.03 13.71
-2 -5 -1 76.02 22.02
-2 -5 0 1259.8 66.97
-2 -5 0 1209.59 62.77
-2 -5 0 1282.74 65.99
-2 -5 0 1187.74 67.25
-2 -5 0 1300.24 63.31
-2 -5 0 1291.77 68.53
-2 -5 0 1179.24 63.32
-2 -5 0 1399.63 97.36
-2 -5 0 1436.52 63.01
-2 -5 1 319 28.05
-2 -5 1 304.09 28.77
-2 -5 1 312.36 29.09
-2 -5 1 294.83 26.8
-2 -5 1 332.83 27.99
-2 -5 1 321.07 43.68
-2 -5 1 335.17 31.35
-2 -5 1 338.61 28.06
-2 -5 1 326.91 30.51
-2 -5 2 784.76 44.68
-2 -5 2 685.84 39.54
-2 -5 2 737.87 42.67
-2 -5 2 750.96 41.7
-2 -5 2 708.41 36.83
-2 -5 2 794.31 47.32
-2 -5 2 843.78 45.06
-2 -5 2 867.69 69.98
-2 -5 3 56.01 12.29
-2 -5 3 86.7 14.78
-2 -5 3 92.65 15.43
-2 -5 3 78.23 14.45
-2 -5 3 78.38 15.42
-2 -5 3 102.58 18.16
-2 -5 3 113.26 17.81
-2 -5 3 94 23.74
-2 -5 4 1736.56 81.85
-2 -5 4 1642.54 82.95
-2 -5 4 1782.12 83.22
-2 -5 4 1698.03 82.25
-2 -5 4 2023.42 114.61
-2 -5 4 1791.3 88.63
-2 -5 4 1809.69 88.02
-2 -5 5 90.59 16.86
-2 -5 5 89.89 15.84
-2 -5 5 103.84 16.81
-2 -5 5 108.96 18.32
-2 -5 5 135.09 20.24
-2 -5 6 698.77 49
-2 -5 6 753.91 49.03
-2 -5 6 730.33 52.22
-2 -5 6 722.4 51.72
-2 -5 7 406.23 35.08
-2 -5 7 443.96 40.54
-2 -5 7 419.9 39.84
-2 -5 8 293.49 34.27
-2 -5 8 307.96 34.57
-2 -5 9 46.26 14.1
-2 -5 9 66.44 16.53
-2 -5 10 310.66 36.88
-2 -4 -13 34.6 13.87
-2 -4 -13 52.5 23.98
-2 -4 -13 42.12 13.55
-2 -4 -12 283.52 36.97
-2 -4 -12 218.49 30.64
-2 -4 -12 222.5 48.39
-2 -4 -11 45.88 14.44
-2 -4 -11 70.98 16.99
-2 -4 -11 45.45 14.63
-2 -4 -11 36.57 19.24
-2 -4 -10 403.5 42.62
-2 -4 -10 416.21 40.55
-2 -4 -10 465.5 45.31
-2 -4 -9 362.86 36.35
-2 -4 -9 346.57 37.42
-2 -4 -9 271.35 33.42
-2 -4 -9 287.22 28.48
-2 -4 -9 370.73 56.05
-2 -4 -8 602.9 46.57
-2 -4 -8 590.65 48.05
-2 -4 -8 622.03 49.61
-2 -4 -8 555.43 40.98
-2 -4 -8 695.97 73.09
-2 -4 -7 411.04 36.95
-2 -4 -7 450.49 37.9
-2 -4 -7 448.84 39.99
-2 -4 -7 512.68 42.34
-2 -4 -7 494.54 37.23
-2 -4 -7 591.14 63.19
-2 -4 -6 492.44 36.41
-2 -4 -6 497.25 34.29
-2 -4 -6 504.08 39.31
-2 -4 -6 618.87 44.6
-2 -4 -6 480.07 40.47
-2 -4 -6 491.57 38.48
-2 -4 -6 515.37 37.82
-2 -4 -6 519.54 34.62
-2 -4 -6 472.26 48.19
-2 -4 -6 654.1 62.78
-2 -4 -5 1022.51 56.02
-2 -4 -5 970.73 56.07
-2 -4 -5 1019.1 60.3
-2 -4 -5 1047.79 54.64
-2 -4 -5 1143.86 60.85
-2 -4 -5 1024.79 53.55
-2 -4 -5 1117.55 51.63
-2 -4 -5 1044.73 57.25
-2 -4 -5 1110.24 76.48
-2 -4 -5 1220.49 83.64
-2 -4 -4 242.12 23.47
-2 -4 -4 255.87 24.18
-2 -4 -4 245.73 25.43
-2 -4 -4 235.74 19.07
-2 -4 -4 239.06 23.08
-2 -4 -4 279.59 25.79
-2 -4 -4 294.24 36.57
-2 -4 -4 261.58 35.34
-2 -4 -4 238.03 22.55
-2 -4 -4 252.28 21.29
-2 -4 -4 229.73 23.77
-2 -4 -3 1148.7 57.98
-2 -4 -3 1128.22 58.78
-2 -4 -3 1188.35 59.04
-2 -4 -3 1135.17 54.4
-2 -4 -3 1165.12 52.5
-2 -4 -3 1191.32 61.2
-2 -4 -3 1217.29 58.81
-2 -4 -3 1143.01 50.08
-2 -4 -3 1119.01 58.45
-2 -4 -3 1183.96 58.77
-2 -4 -3 1224.68 51.45
-2 -4 -3 1149.74 74.09
-2 -4 -3 1190.07 80.96
-2 -4 -3 1143.18 53.53
-2 -4 -2 286.3 23.75
-2 -4 -2 300.28 21.7
-2 -4 -2 298.97 26
-2 -4 -2 316.49 26.45
-2 -4 -2 291.87 23.24
-2 -4 -2 261.94 24.42
-2 -4 -2 316.35 22.63
-2 -4 -2 355.42 28.39
-2 -4 -2 309.81 25.64
-2 -4 -2 291.67 25.91
-2 -4 -2 297.73 24.39
-2 -4 -2 333.85 22.89
-2 -4 -2 342.87 40.99
-2 -4 -2 286.29 19.99
-2 -4 -1 1859.17 77.59
-2 -4 -1 1747.4 69.8
-2 -4 -1 1845.09 80.47
-2 -4 -1 1797.56 77.49
-2 -4 -1 1859.14 72.16
-2 -4 -1 1851.53 78.84
-2 -4 -1 1717.43 72.98
-2 -4 -1 1801.5 78.85
-2 -4 -1 1667.05 75.69
-2 -4 -1 1809.45 79.65
-2 -4 -1 1680.2 72.16
-2 -4 -1 1802.44 73.54
-2 -4 -1 1668.31 68.26
-2 -4 -1 1893.15 68.38
-2 -4 -1 1960.11 74.28
-2 -4 -1 1891.2 107.63
-2 -4 0 171.58 14.49
-2 -4 0 153.99 14.32
-2 -4 0 153.32 14.49
-2 -4 0 183.55 16.57
-2 -4 0 170.5 18.74
-2 -4 0 174.17 16.42
-2 -4 0 141.84 15.83
-2 -4 0 162.59 17.92
-2 -4 0 149.55 18.2
-2 -4 0 147.75 14.81
-2 -4 0 138.79 15.48
-2 -4 0 143.02 16.44
-2 -4 0 140.73 17.75
-2 -4 0 195.09 18.15
-2 -4 0 168.08 17.32
-2 -4 0 208.76 31.36
-2 -4 1 2199.17 86.08
-2 -4 1 2296.77 116.34
-2 -4 1 1868.33 81.19
-2 -4 1 2034.13 86.63
-2 -4 1 2127.28 76.49
-2 -4 1 2063.66 77.05
-2 -4 1 2176.45 85.14
-2 -4 1 1998.04 76.51
-2 -4 1 1908.31 79.01
-2 -4 1 2018.38 85.84
-2 -4 1 1869.78 80.42
-2 -4 1 2041.42 85.07
-2 -4 1 2015.15 76.23
-2 -4 1 1976.16 80.53
-2 -4 1 1881.81 85.9
-2 -4 2 3.58 3.1
-2 -4 2 6.85 3.92
-2 -4 2 3.06 2.65
-2 -4 2 7.91 4.15
-2 -4 2 1.57 1.44
-2 -4 2 5.25 3.81
-2 -4 2 9.92 4.02
-2 -4 2 4.86 3.53
-2 -4 2 9.42 4.3
-2 -4 2 7.24 4.15
-2 -4 2 2.47 3.21
-2 -4 2 6.89 3.15
-2 -4 3 1390.76 67.74
-2 -4 3 1411.08 65.57
-2 -4 3 1195.1 61.1
-2 -4 3 1253.86 57.34
-2 -4 3 1249.02 62.26
-2 -4 3 1266.81 64.6
-2 -4 3 1317.03 64.35
-2 -4 3 1384.06 68.43
-2 -4 3 1202.87 56.82
-2 -4 4 5.56 3.61
-2 -4 4 1.2 3.11
-2 -4 4 7.35 4.21
-2 -4 4 10.72 4.62
-2 -4 4 11.61 5.3
-2 -4 4 3.8 2.76
-2 -4 4 2.3 5.18
-2 -4 4 8.66 4.55
-2 -4 5 1232.61 68.75
-2 -4 5 1315.68 65.89
-2 -4 5 1267.42 65.69
-2 -4 5 1278.05 61.33
-2 -4 5 1378.11 69.74
-2 -4 5 1407.58 67.14
-2 -4 6 87.76 13.87
-2 -4 6 112.64 18.29
-2 -4 6 90.27 16.87
-2 -4 6 103.75 15.79
-2 -4 7 779.5 54.37
-2 -4 7 789.07 47.79
-2 -4 7 756.9 46.8
-2 -4 7 807.57 55.28
-2 -4 8 159.94 23.9
-2 -4 8 156.2 23.92
-2 -4 9 577.4 48.9
-2 -4 9 523.08 47.1
-2 -4 10 120.37 22.63
-2 -4 10 174.27 27.32
-2 -4 11 205.78 30.59
-2 -3 -13 408.27 44.48
-2 -3 -13 369.41 63.81
-2 -3 -13 445.8 45.34
-2 -3 -12 2.34 5.27
-2 -3 -12 5.77 5
-2 -3 -12 2.36 6.86
-2 -3 -12 -5.51 0.06
-2 -3 -12 2.18 5.66
-2 -3 -11 528.72 48.33
-2 -3 -11 608.76 47.65
-2 -3 -11 533.72 49.01
-2 -3 -11 623.12 77.68
-2 -3 -11 600.05 49.25
-2 -3 -10 56.53 14.98
-2 -3 -10 77.02 15.89
-2 -3 -10 89.15 18.38
-2 -3 -10 80.93 26.31
-2 -3 -10 81 16.66
-2 -3 -9 407.54 39.4
-2 -3 -9 528.03 41.76
-2 -3 -9 517.26 41.47
-2 -3 -9 483.51 43.01
-2 -3 -9 509.37 64.95
-2 -3 -9 494.26 39.92
-2 -3 -8 715.45 43.97
-2 -3 -8 745.89 51.79
-2 -3 -8 679.79 47.61
-2 -3 -8 793.3 50.93
-2 -3 -8 706.49 51.44
-2 -3 -8 867.28 80.34
-2 -3 -8 820.27 49.9
-2 -3 -7 999.77 51.96
-2 -3 -7 957.73 47.8
-2 -3 -7 959.39 57.73
-2 -3 -7 835.25 51.4
-2 -3 -7 968.1 55.85
-2 -3 -7 1000.82 55.54
-2 -3 -7 952.38 58.2
-2 -3 -7 1088.26 86.77
-2 -3 -7 893.18 46.08
-2 -3 -7 967.72 53.14
-2 -3 -6 294.1 21.48
-2 -3 -6 378.66 27.35
-2 -3 -6 336.47 24.64
-2 -3 -6 283.16 23.37
-2 -3 -6 295.24 28.23
-2 -3 -6 297.55 28.75
-2 -3 -6 311.3 26.62
-2 -3 -6 359.27 36.17
-2 -3 -6 416.49 48.63
-2 -3 -6 331.01 27.75
-2 -3 -6 369.53 30.15
-2 -3 -6 354.42 24.99
-2 -3 -6 343.68 27.11
-2 -3 -6 318.75 24.53
-2 -3 -6 323.12 23.21
-2 -3 -5 940.19 46.62
-2 -3 -5 876.31 39
-2 -3 -5 992.94 45.49
-2 -3 -5 874.87 44.1
-2 -3 -5 903.37 45.37
-2 -3 -5 963.78 51.66
-2 -3 -5 892.52 51.17
-2 -3 -5 884.9 47
-2 -3 -5 925.11 62.06
-2 -3 -5 1040.38 75.04
-2 -3 -5 883.76 44.88
-2 -3 -5 929.86 50.23
-2 -3 -5 850.47 46.59
-2 -3 -5 832.66 46.91
-2 -3 -5 918.18 46.21
-2 -3 -5 850.96 41.19
-2 -3 -4 964.75 40.93
-2 -3 -4 938.43 42.58
-2 -3 -4 1016.99 49.06
-2 -3 -4 998.73 48.44
-2 -3 -4 1001.13 38.82
-2 -3 -4 1124.72 45.35
-2 -3 -4 991.3 47.3
-2 -3 -4 996.11 48.3
-2 -3 -4 1018.11 43.43
-2 -3 -4 983.73 50.73
-2 -3 -4 919.97 50.9
-2 -3 -4 1023.43 48.99
-2 -3 -4 1038.63 66.73
-2 -3 -4 961.76 48.21
-2 -3 -4 1013.92 51.53
-2 -3 -4 954.74 48.44
-2 -3 -4 1003.93 50.42
-2 -3 -4 1057.07 50.01
-2 -3 -4 1071.19 48.19
-2 -3 -4 926.06 45.03
-2 -3 -3 484.46 25.57
-2 -3 -3 560.02 31.91
-2 -3 -3 552.56 29.62
-2 -3 -3 489.68 20.22
-2 -3 -3 527.02 30.23
-2 -3 -3 452.95 30.9
-2 -3 -3 530.33 32.37
-2 -3 -3 495.43 30.09
-2 -3 -3 502.4 26.62
-2 -3 -3 533.69 31.5
-2 -3 -3 542.76 33.97
-2 -3 -3 496.98 29.98
-2 -3 -3 494.99 31.5
-2 -3 -3 534.5 32.94
-2 -3 -3 484.19 29.94
-2 -3 -3 551.67 29.55
-2 -3 -3 559.28 46.74
-2 -3 -3 510.07 45.12
-2 -3 -3 513.73 28.39
-2 -3 -2 3602.22 115.01
-2 -3 -2 3509.34 141.07
-2 -3 -2 3470.52 145.02
-2 -3 -2 3367.15 118.12
-2 -3 -2 3392.37 116.73
-2 -3 -2 3415.26 116.6
-2 -3 -2 3404.85 115.6
-2 -3 -2 3214.32 110.82
-2 -3 -2 3080.74 106.14
-2 -3 -2 3245.9 114.41
-2 -3 -2 3405.08 98.29
-2 -3 -2 3128.86 110.12
-2 -3 -2 3364.38 116.97
-2 -3 -2 3267.56 109.87
-2 -3 -2 3171.81 118
-2 -3 -2 3169.74 114.48
-2 -3 -2 3190.94 117.31
-2 -3 -2 3073.38 117.79
-2 -3 -2 3161.49 107.15
-2 -3 -1 350.19 23.84
-2 -3 -1 432.93 24.63
-2 -3 -1 360.36 37.16
-2 -3 -1 405.82 23
-2 -3 -1 325.43 26.36
-2 -3 -1 325.35 22.79
-2 -3 -1 396.48 25.97
-2 -3 -1 364.22 23.82
-2 -3 -1 336.7 20.51
-2 -3 -1 333.63 20.54
-2 -3 -1 352.1 24.87
-2 -3 -1 333.5 21.41
-2 -3 -1 383.28 22.25
-2 -3 -1 373.85 25.67
-2 -3 -1 378.41 24.6
-2 -3 -1 339.12 24.32
-2 -3 -1 299.18 24.72
-2 -3 -1 344.26 18.69
-2 -3 -1 370.51 19.53
-2 -3 0 1514.22 61.77
-2 -3 0 1518.55 82.75
-2 -3 0 1573.26 61
-2 -3 0 1376.57 56.88
-2 -3 0 1316.22 61.28
-2 -3 0 1367.28 56.34
-2 -3 0 1527.53 58
-2 -3 0 1438.2 61.77
-2 -3 0 1510.48 54.45
-2 -3 0 1522.35 60
-2 -3 0 1314.42 48.9
-2 -3 0 1407.68 56.42
-2 -3 0 1459.49 61.45
-2 -3 0 1344.16 55.94
-2 -3 0 1316.5 58.65
-2 -3 0 1332.06 58.18
-2 -3 0 1344.99 61.52
-2 -3 0 1353.53 51.1
-2 -3 0 1405.76 51.91
-2 -3 1 197.15 14.17
-2 -3 1 224.24 20.08
-2 -3 1 185.88 18.25
-2 -3 1 217.12 17.61
-2 -3 1 204 13.81
-2 -3 1 200.86 17.01
-2 -3 1 214.19 19.08
-2 -3 1 187.56 16.03
-2 -3 1 161.23 17.09
-2 -3 1 198.9 16.86
-2 -3 1 176.85 14.71
-2 -3 1 203.93 19.68
-2 -3 1 249.96 20.56
-2 -3 1 195.96 26.56
-2 -3 1 193.05 18.85
-2 -3 1 196.8 17.03
-2 -3 1 207.17 16.79
-2 -3 1 179.34 18.02
-2 -3 1 214.13 14.71
-2 -3 1 229.71 18.65
-2 -3 2 1893.88 72.1
-2 -3 2 2211.78 84.06
-2 -3 2 2134.79 83.55
-2 -3 2 2089.15 83.57
-2 -3 2 1907.18 77.61
-2 -3 2 1886.2 71.31
-2 -3 2 1971.98 77.97
-2 -3 2 1893.46 79.77
-2 -3 2 1925.9 79.07
-2 -3 2 2014.12 78.15
-2 -3 2 1992.59 78.72
-2 -3 2 2130.71 71.77
-2 -3 2 2113.94 79.98
-2 -3 2 1921.52 80.53
-2 -3 2 2038.02 73.53
-2 -3 2 1983.01 83.38
-2 -3 2 2002.55 82.18
-2 -3 2 2073.92 102.03
-2 -3 2 1958.51 83.45
-2 -3 3 66.97 11.73
-2 -3 3 75.07 16.14
-2 -3 3 94.91 13.06
-2 -3 3 91.84 13.77
-2 -3 3 97.02 10.9
-2 -3 3 83.31 12.33
-2 -3 3 109.79 13.45
-2 -3 3 80.56 11.33
-2 -3 3 85.59 11.95
-2 -3 3 115.01 13.61
-2 -3 3 84.75 10.61
-2 -3 3 81.83 12.13
-2 -3 3 74.64 8.84
-2 -3 3 82.78 9.84
-2 -3 4 2227.51 86.23
-2 -3 4 2306.05 93.09
-2 -3 4 2397.13 94.52
-2 -3 4 2257.72 88.2
-2 -3 4 2661.66 95.58
-2 -3 4 2306.11 91.57
-2 -3 4 2367.18 95.93
-2 -3 4 2394.4 98.87
-2 -3 4 2195.29 87.67
-2 -3 4 2771.27 114.09
-2 -3 5 68.09 12.63
-2 -3 5 81.45 13.32
-2 -3 5 70.47 10.8
-2 -3 5 59.26 12.42
-2 -3 5 85.29 12.26
-2 -3 5 52.37 9.59
-2 -3 6 1082.12 53.62
-2 -3 6 951.19 51.86
-2 -3 6 1029.61 59.53
-2 -3 6 1120.9 62.9
-2 -3 6 1107.24 59.43
-2 -3 7 25.08 7.33
-2 -3 7 38.05 9.03
-2 -3 7 47.42 12.28
-2 -3 7 39.45 11.13
-2 -3 7 28.98 9.34
-2 -3 8 988.71 63.73
-2 -3 8 977.73 62.98
-2 -3 8 975.73 55.46
-2 -3 8 1012.23 55.3
-2 -3 9 121.38 21.38
-2 -3 9 101.02 19.68
-2 -3 9 86.57 15.01
-2 -3 9 121.58 18.17
-2 -3 10 592.85 50.3
-2 -3 10 573.6 50.44
-2 -3 10 532.73 41.9
-2 -3 11 157.34 26.38
-2 -3 11 139.64 24.5
-2 -3 11 144.39 21.65
-2 -2 -14 184.1 27.23
-2 -2 -13 2.34 3.04
-2 -2 -13 -2.38 4.37
-2 -2 -13 2.3 2.99
-2 -2 -13 2.41 4.42
-2 -2 -13 1.93 3.54
-2 -2 -13 -5.63 7.3
-2 -2 -12 588.09 52.28
-2 -2 -12 785.1 59.11
-2 -2 -12 676.67 54.84
-2 -2 -12 671.75 49.97
-2 -2 -12 754.18 57.81
-2 -2 -12 714.52 85.38
-2 -2 -11 200.3 27.76
-2 -2 -11 186.39 23.77
-2 -2 -11 187.94 26.92
-2 -2 -11 180.08 26.38
-2 -2 -11 146.41 21.49
-2 -2 -11 176.88 26.08
-2 -2 -11 169.95 40.32
-2 -2 -10 843.23 58.79
-2 -2 -10 935.46 56.66
-2 -2 -10 962.24 62.95
-2 -2 -10 857.28 59.97
-2 -2 -10 899.7 54.53
-2 -2 -10 1038.4 63.6
-2 -2 -10 904.4 89.28
-2 -2 -9 24.99 9.2
-2 -2 -9 21.16 7.8
-2 -2 -9 19.4 7.96
-2 -2 -9 23.96 8.63
-2 -2 -9 25.44 7.6
-2 -2 -9 35.74 10.36
-2 -2 -9 45.94 18.8
-2 -2 -8 400.62 28.28
-2 -2 -8 378.71 33.61
-2 -2 -8 372.94 31.48
-2 -2 -8 439.97 36.81
-2 -2 -8 334.35 32.48
-2 -2 -8 350.43 28.28
-2 -2 -8 461.94 35.83
-2 -2 -8 398.55 53.28
-2 -2 -7 156.47 30.84
-2 -2 -7 140.96 18.99
-2 -2 -7 132.27 17.17
-2 -2 -7 175.32 21.25
-2 -2 -7 148.37 16.1
-2 -2 -7 131.23 17.92
-2 -2 -7 137.91 14.49
-2 -2 -7 148.33 16.1
-2 -2 -7 149.47 18.8
-2 -2 -6 2412.25 107.14
-2 -2 -6 2648.41 136.82
-2 -2 -6 2409.13 100.43
-2 -2 -6 2411.92 90.98
-2 -2 -6 2530.07 98.84
-2 -2 -6 2439.08 89.1
-2 -2 -6 2512.21 102.11
-2 -2 -6 2392.64 95.22
-2 -2 -6 2525.11 91.95
-2 -2 -6 2417.85 90.8
-2 -2 -6 2969.13 102.51
-2 -2 -6 2539.15 97.6
-2 -2 -6 2443.11 87.17
-2 -2 -6 2477.57 99.36
-2 -2 -6 2395.44 93.67
-2 -2 -6 2576.7 93.43
-2 -2 -6 2435.26 88.49
-2 -2 -6 2407.05 89.9
-2 -2 -5 2851.69 106.39
-2 -2 -5 3226.32 133.46
-2 -2 -5 2761.82 91.5
-2 -2 -5 2946.48 85.44
-2 -2 -5 2947.75 89.48
-2 -2 -5 2901.38 81.04
-2 -2 -5 2927.6 81.71
-2 -2 -5 3003.43 91.08
-2 -2 -5 2820.59 80.06
-2 -2 -5 2749.64 90.34
-2 -2 -5 2694.44 83.87
-2 -2 -5 2811.35 81.71
-2 -2 -5 2775.13 78.83
-2 -2 -5 2861.49 88.4
-2 -2 -5 2901.67 86.43
-2 -2 -5 2668.02 85.29
-2 -2 -5 3106.32 93.4
-2 -2 -5 2861.75 84.47
-2 -2 -5 3190.21 97.01
-2 -2 -4 941.68 57.48
-2 -2 -4 1099.74 69.75
-2 -2 -4 851.25 42.41
-2 -2 -4 1012.26 47.36
-2 -2 -4 923.39 47.15
-2 -2 -4 973.54 37.85
-2 -2 -4 908.37 38.95
-2 -2 -4 1015.78 45.46
-2 -2 -4 898.56 42.43
-2 -2 -4 984.57 45.66
-2 -2 -4 947.05 41.17
-2 -2 -4 953.48 40.42
-2 -2 -4 936.74 36.42
-2 -2 -4 917.47 44.09
-2 -2 -4 934.92 45.81
-2 -2 -4 977.72 41.56
-2 -2 -4 957.6 45.36
-2 -2 -4 1010.41 45.74
-2 -2 -4 963.29 38.51
-2 -2 -3 518.21 28.26
-2 -2 -3 545.78 22.62
-2 -2 -3 579.93 28.2
-2 -2 -3 517.04 22.76
-2 -2 -3 514.65 26.68
-2 -2 -3 572.9 28.53
-2 -2 -3 526.19 30
-2 -2 -3 530.53 26.21
-2 -2 -3 494.55 23.65
-2 -2 -3 507.39 21.96
-2 -2 -3 539.53 29.86
-2 -2 -3 527.24 30.62
-2 -2 -3 547.09 31.59
-2 -2 -3 510.21 40.51
-2 -2 -3 585.77 45.88
-2 -2 -3 545.63 30.43
-2 -2 -3 549.51 30.5
-2 -2 -3 521.87 29.94
-2 -2 -2 369.21 20.03
-2 -2 -2 394.79 15.19
-2 -2 -2 382.25 23.93
-2 -2 -2 397.44 24.8
-2 -2 -2 393.02 24.6
-2 -2 -2 368.32 17.47
-2 -2 -2 386.92 22.11
-2 -2 -2 371.13 18.3
-2 -2 -2 438.22 24.18
-2 -2 -2 396.09 20.84
-2 -2 -2 371.06 23.89
-2 -2 -2 388.41 24.06
-2 -2 -2 360.55 24.29
-2 -2 -2 346.67 17.09
-2 -2 -2 356.31 14.82
-2 -2 -2 363.28 23.14
-2 -2 -2 449.06 36.73
-2 -2 -2 454.61 37.31
-2 -2 -1 1014.38 33.9
-2 -2 -1 1157.71 36.89
-2 -2 -1 1028.67 39.61
-2 -2 -1 1047.53 33.45
-2 -2 -1 1050.35 41.77
-2 -2 -1 1143.47 41.2
-2 -2 -1 1058.51 39.28
-2 -2 -1 1091.09 45.29
-2 -2 -1 1037.73 42.38
-2 -2 -1 1052.53 39.95
-2 -2 -1 1058.8 46.66
-2 -2 -1 1256.47 64.57
-2 -2 -1 1086.98 47.33
-2 -2 -1 1046.37 45.43
-2 -2 -1 1071.49 45.17
-2 -2 -1 1029.69 45.41
-2 -2 -1 1088.41 46.81
-2 -2 0 2135.76 67.02
-2 -2 0 2062.28 65.67
-2 -2 0 2204.19 79.61
-2 -2 0 2103.81 76.06
-2 -2 0 2018.27 74.22
-2 -2 0 2010.52 66.95
-2 -2 0 2013.26 77.54
-2 -2 0 2200.15 75.95
-2 -2 0 2276.27 76.87
-2 -2 0 2031.93 71.31
-2 -2 0 1969.21 76.57
-2 -2 0 2071.02 76.95
-2 -2 0 2167.66 78.13
-2 -2 0 2075.61 75.14
-2 -2 0 2255.59 72.37
-2 -2 0 2020.7 84.7
-2 -2 0 2220.45 97.27
-2 -2 0 2328.65 79.1
-2 -2 0 2087.72 78.74
-2 -2 0 1994.48 68.06
-2 -2 0 2111.85 75.45
-2 -2 1 4260.94 149.25
-2 -2 1 4781.84 163.94
-2 -2 1 4608.44 144.74
-2 -2 1 4298 143.75
-2 -2 1 4333.39 137.42
-2 -2 1 4464.84 142.43
-2 -2 1 4188.86 141.19
-2 -2 1 4253.28 141.24
-2 -2 1 4457.77 144.13
-2 -2 1 4192.93 130.33
-2 -2 1 4192.72 138.94
-2 -2 1 4006.14 132.54
-2 -2 1 4150.43 139.52
-2 -2 1 4262.89 136.56
-2 -2 1 4140.4 141.53
-2 -2 1 3902.99 139.83
-2 -2 1 4314.88 137.55
-2 -2 1 4530.62 139.93
-2 -2 1 4343.88 131.35
-2 -2 2 0.46 0.84
-2 -2 2 1.82 1.67
-2 -2 2 3.35 2.51
-2 -2 2 11.64 5.97
-2 -2 2 2.67 2.29
-2 -2 2 8.76 3.58
-2 -2 2 3.31 2.4
-2 -2 2 4.76 2.73
-2 -2 2 2.52 2.18
-2 -2 2 5.09 2.92
-2 -2 2 3.98 1.94
-2 -2 2 2.12 1.59
-2 -2 2 2.33 2.02
-2 -2 2 2.34 1.2
-2 -2 2 3.43 1.91
-2 -2 2 4.62 2.42
-2 -2 2 7.71 3.12
-2 -2 2 2.44 1.25
-2 -2 2 3.15 2.16
-2 -2 3 2844.51 108.46
-2 -2 3 3089.09 114.75
-2 -2 3 2852.72 101.58
-2 -2 3 2546.02 96.55
-2 -2 3 2573.79 98.68
-2 -2 3 2504.1 91.52
-2 -2 3 2536.11 98.31
-2 -2 3 2735.84 97.61
-2 -2 3 2429.15 98.75
-2 -2 3 2555.43 95.1
-2 -2 3 2409.07 90.01
-2 -2 3 2408.44 91.27
-2 -2 3 2720.85 92.96
-2 -2 3 2449.35 85.96
-2 -2 3 2590.91 99.17
-2 -2 3 2842.85 92.64
-2 -2 3 2632.41 85.96
-2 -2 3 2505.23 89.9
-2 -2 3 2488.81 88.94
-2 -2 3 2729.51 94.1
-2 -2 4 28.16 5.99
-2 -2 4 31.48 6.52
-2 -2 4 47.41 10.92
-2 -2 4 35.83 10.01
-2 -2 4 36.51 8.17
-2 -2 4 24.15 5.43
-2 -2 4 35.39 8.41
-2 -2 4 32.8 7.41
-2 -2 4 35.84 8.25
-2 -2 4 38.57 9.25
-2 -2 4 40.5 9.29
-2 -2 4 33.13 6.61
-2 -2 4 32.57 7.36
-2 -2 4 35.13 7.09
-2 -2 4 47.87 8.01
-2 -2 4 33.22 6.34
-2 -2 4 35.2 6.94
-2 -2 5 1345.8 60.11
-2 -2 5 1360.37 67.28
-2 -2 5 1323.46 58.01
-2 -2 5 1390.54 60.3
-2 -2 5 1392.57 66.22
-2 -2 5 1323.44 67.13
-2 -2 5 1338.23 59.34
-2 -2 5 1242.48 56.88
-2 -2 5 1382.48 60.28
-2 -2 5 1374.58 73.7
-2 -2 6 67.88 13.79
-2 -2 6 95.91 15.41
-2 -2 6 73.74 11.71
-2 -2 6 68.69 10.86
-2 -2 7 1037.1 62.38
-2 -2 7 1248.35 68.02
-2 -2 7 1119.53 64.51
-2 -2 7 1063.52 56.1
-2 -2 7 1092.68 55.13
-2 -2 8 97.34 17.83
-2 -2 8 120.88 19.93
-2 -2 8 122.64 20.51
-2 -2 8 95.38 14.47
-2 -2 8 86.25 14.37
-2 -2 9 1399.92 77.93
-2 -2 9 1400.19 80.36
-2 -2 9 1486.8 81.77
-2 -2 9 1307.82 69.81
-2 -2 9 1361.37 68.69
-2 -2 10 130.7 22.41
-2 -2 10 163.09 25.67
-2 -2 10 122.71 22.34
-2 -2 10 144.17 20.49
-2 -2 10 120.68 18.2
-2 -2 11 302.94 34.54
-2 -2 11 286.04 35.4
-2 -2 11 322.36 37.56
-2 -2 11 272.87 30.11
-2 -2 12 33.87 11.39
-2 -2 12 40.83 13.63
-2 -1 -14 22.77 16.53
-2 -1 -14 7.66 6.63
-2 -1 -14 6.46 5.6
-2 -1 -13 384.92 41.3
-2 -1 -13 357.7 61.18
-2 -1 -13 450.63 46.14
-2 -1 -13 385.08 39.06
-2 -1 -12 6.19 7.58
-2 -1 -12 18.39 8.96
-2 -1 -12 5.11 13.26
-2 -1 -12 11.09 6.36
-2 -1 -11 688.3 52.06
-2 -1 -11 857.08 60.36
-2 -1 -11 628.04 49.8
-2 -1 -11 628.74 75.4
-2 -1 -11 736.91 51.21
-2 -1 -10 95.62 17.51
-2 -1 -10 168.24 24.55
-2 -1 -10 98.57 17.57
-2 -1 -10 91.91 27.29
-2 -1 -10 102.91 16.85
-2 -1 -9 955.45 54.07
-2 -1 -9 1034.95 49.97
-2 -1 -9 1163.21 63.45
-2 -1 -9 887.41 52.39
-2 -1 -9 815.64 78.33
-2 -1 -9 999.19 51.9
-2 -1 -8 139.53 18.42
-2 -1 -8 143.13 16.61
-2 -1 -8 170.71 21.93
-2 -1 -8 140.06 18.5
-2 -1 -8 133.12 16.66
-2 -1 -8 102.69 26.01
-2 -1 -8 118.26 15.58
-2 -1 -7 1150.7 54.4
-2 -1 -7 1172.92 56.08
-2 -1 -7 1243.13 57.78
-2 -1 -7 1158.95 54.99
-2 -1 -7 1189.86 52.33
-2 -1 -7 1088.24 57.79
-2 -1 -7 1179.2 55.89
-2 -1 -7 1296.54 65.87
-2 -1 -7 1106.61 56.09
-2 -1 -7 1110.85 57.99
-2 -1 -7 1067.94 83.76
-2 -1 -7 1125.61 51.44
-2 -1 -6 97.28 22.37
-2 -1 -6 122.25 14.7
-2 -1 -6 82.01 12.29
-2 -1 -6 106.38 13.23
-2 -1 -6 92.32 14.58
-2 -1 -6 101.84 13.08
-2 -1 -6 93.66 11.96
-2 -1 -6 104.99 10.67
-2 -1 -6 98.55 12.35
-2 -1 -6 86.31 12.05
-2 -1 -6 95.86 9.29
-2 -1 -6 108.25 13.79
-2 -1 -6 95.68 10.81
-2 -1 -6 99.39 13.09
-2 -1 -6 103.75 12.13
-2 -1 -6 97.44 11.04
-2 -1 -5 2373.2 99.63
-2 -1 -5 2451.09 119.43
-2 -1 -5 2200.43 86.68
-2 -1 -5 2162.02 86.64
-2 -1 -5 2384.54 87.35
-2 -1 -5 2575.2 94.95
-2 -1 -5 2398.54 85.39
-2 -1 -5 2289.19 80.23
-2 -1 -5 2241.32 84.09
-2 -1 -5 2413.15 87.07
-2 -1 -5 2223.84 76.29
-2 -1 -5 2213.3 72.78
-2 -1 -5 2428.92 75.82
-2 -1 -5 2376.55 86.46
-2 -1 -5 2139.78 82.83
-2 -1 -5 2369.58 85.04
-2 -1 -5 2402.74 89.43
-2 -1 -5 2381.67 81.29
-2 -1 -4 1947.77 66.63
-2 -1 -4 2065.68 88.79
-2 -1 -4 2089.28 100.28
-2 -1 -4 1902.19 73.68
-2 -1 -4 1926.99 71.46
-2 -1 -4 2032.46 74.51
-2 -1 -4 2235.55 73.13
-2 -1 -4 2000.63 79.1
-2 -1 -4 1955.15 71.73
-2 -1 -4 1900.13 71.09
-2 -1 -4 2020.03 72.4
-2 -1 -4 1854.83 61.36
-2 -1 -4 1808.22 61.97
-2 -1 -4 1952.72 70.66
-2 -1 -4 1979.26 70.53
-2 -1 -4 1873.4 72.6
-2 -1 -4 1867.02 75.64
-2 -1 -4 1986.97 72.9
-2 -1 -3 896.24 52.76
-2 -1 -3 988.99 59.01
-2 -1 -3 879.97 39.91
-2 -1 -3 965.27 41.9
-2 -1 -3 875.88 40.2
-2 -1 -3 908.87 43.61
-2 -1 -3 923.11 44.14
-2 -1 -3 985.7 37.73
-2 -1 -3 946.94 38.77
-2 -1 -3 886.74 41.43
-2 -1 -3 862.93 40.36
-2 -1 -3 1013 42.64
-2 -1 -3 854.69 33.61
-2 -1 -3 918.82 31.53
-2 -1 -3 923.61 35.64
-2 -1 -3 856.66 36.78
-2 -1 -3 954.55 41.49
-2 -1 -3 934.38 33.68
-2 -1 -2 1585.71 59.98
-2 -1 -2 1472.21 53.54
-2 -1 -2 1525.49 57.51
-2 -1 -2 1573.61 61.32
-2 -1 -2 1571.75 60.18
-2 -1 -2 1556.41 59.53
-2 -1 -2 1555.06 58.29
-2 -1 -2 1552.8 60.39
-2 -1 -2 1497.7 53.81
-2 -1 -2 1554.28 53.62
-2 -1 -2 1524.61 62.55
-2 -1 -2 1468.53 59.07
-2 -1 -2 1509.31 59.26
-2 -1 -2 1657.26 62.22
-2 -1 -2 1516.79 56.49
-2 -1 -2 1672.66 76.26
-2 -1 -2 1527.36 61.41
-2 -1 -2 1596.36 76.8
-2 -1 -2 1533.15 48.12
-2 -1 -1 1312.32 52.47
-2 -1 -1 1273.45 51.2
-2 -1 -1 1268.26 50.3
-2 -1 -1 1244.22 50.27
-2 -1 -1 1296.48 51.59
-2 -1 -1 1313.93 48.16
-2 -1 -1 1044.97 52.52
-2 -1 -1 1152.73 49.75
-2 -1 -1 1352.57 51.67
-2 -1 -1 1189.09 50.16
-2 -1 -1 1213.3 46.14
-2 -1 -1 1264 45.99
-2 -1 -1 1254.99 51.05
-2 -1 -1 1347.04 40.63
-2 -1 -1 1281.43 59.44
-2 -1 -1 1202.72 63.79
-2 -1 -1 1265.21 53.4
-2 -1 -1 1371.63 51.79
-2 -1 -1 1346.39 52.56
-2 -1 0 3036.6 96.05
-2 -1 0 2853.12 102.73
-2 -1 0 3152.83 103.74
-2 -1 0 2949.92 98.89
-2 -1 0 2891.01 93.79
-2 -1 0 2981.93 101.64
-2 -1 0 2981.39 101.87
-2 -1 0 2973.38 93.59
-2 -1 0 3074.01 98.43
-2 -1 0 2720.38 101.82
-2 -1 0 2836.63 100.44
-2 -1 0 2785.32 100.96
-2 -1 0 3014.77 99.76
-2 -1 0 3047.6 111.96
-2 -1 0 3128.18 119.75
-2 -1 0 2811.82 103.63
-2 -1 0 3006.26 101.83
-2 -1 1 1863.8 61.88
-2 -1 1 2163.87 88.93
-2 -1 1 2158.03 74.49
-2 -1 1 1934.05 82.84
-2 -1 1 1816.13 72.77
-2 -1 1 1972.08 71.24
-2 -1 1 2034.13 67.79
-2 -1 1 1956.84 71.1
-2 -1 1 2044.73 73.64
-2 -1 1 1810.15 65.2
-2 -1 1 1931.61 60.27
-2 -1 1 1868.98 66.26
-2 -1 1 1812.48 68.6
-2 -1 1 1991.16 72.64
-2 -1 1 2000.36 59.31
-2 -1 1 2006.04 63.3
-2 -1 1 1856.66 64.07
-2 -1 1 1909.12 66.57
-2 -1 1 2009.83 72.78
-2 -1 1 1809.56 71.72
-2 -1 1 1924.49 75.13
-2 -1 1 1990.96 72.14
-2 -1 2 1756.49 60.25
-2 -1 2 2008.33 83
-2 -1 2 1925.47 81.11
-2 -1 2 1724.59 69.37
-2 -1 2 1966.81 70.47
-2 -1 2 1678.15 68.83
-2 -1 2 1761.14 66.18
-2 -1 2 1696.34 64.57
-2 -1 2 1770.13 69.74
-2 -1 2 1720.23 60.65
-2 -1 2 1778.83 55.18
-2 -1 2 1672.85 63.06
-2 -1 2 1715.48 67.19
-2 -1 2 1625.78 62.1
-2 -1 2 1798.98 68.65
-2 -1 2 1775.9 61.62
-2 -1 2 1692.88 57.38
-2 -1 2 1730.53 62.02
-2 -1 2 1671.7 66.26
-2 -1 2 1868.83 70.1
-2 -1 2 1702.68 62.12
-2 -1 2 1693.97 69.16
-2 -1 2 1681.6 70.71
-2 -1 3 110.66 10.47
-2 -1 3 107.22 9.7
-2 -1 3 108.69 7.55
-2 -1 3 122.63 13.02
-2 -1 3 120.67 11.91
-2 -1 3 105.82 9.8
-2 -1 3 99.72 12.16
-2 -1 3 112.85 11.19
-2 -1 3 110.06 9.47
-2 -1 3 110.87 10.64
-2 -1 3 107.16 11.16
-2 -1 3 106.42 13.27
-2 -1 3 99.49 13.26
-2 -1 3 96.28 12.14
-2 -1 3 117.49 17.54
-2 -1 3 113.09 13.27
-2 -1 3 108.41 13.36
-2 -1 3 94.73 12.85
-2 -1 3 117.38 14.08
-2 -1 4 1987.67 75.85
-2 -1 4 1817.23 76.46
-2 -1 4 1832.75 79.18
-2 -1 4 1836.87 72.75
-2 -1 4 1763.17 69.83
-2 -1 4 1747.02 62.68
-2 -1 4 1830.77 74.2
-2 -1 4 1781.43 71.96
-2 -1 4 1790 70.66
-2 -1 4 1802.78 66.28
-2 -1 4 1673.96 69.92
-2 -1 4 1721.3 68.07
-2 -1 4 1814.56 78.57
-2 -1 4 1888 77.48
-2 -1 4 1970.55 77.8
-2 -1 4 1764.78 67.87
-2 -1 4 1834.54 65.21
-2 -1 5 34.53 7.82
-2 -1 5 27.26 8.47
-2 -1 5 17.25 6.45
-2 -1 5 38.88 7.9
-2 -1 5 26.66 6.78
-2 -1 5 29.85 6.66
-2 -1 5 30.54 8.11
-2 -1 5 26.93 6.09
-2 -1 5 49.39 9.89
-2 -1 5 31 7.62
-2 -1 6 2658.31 105.17
-2 -1 6 2580.42 109.18
-2 -1 6 2415.97 98.13
-2 -1 6 2965.39 116.81
-2 -1 6 2524.97 108.87
-2 -1 6 2601.68 102.46
-2 -1 6 2921.85 107.09
-2 -1 7 43.36 11.75
-2 -1 7 35.01 10.18
-2 -1 7 53.82 10.26
-2 -1 7 46.92 11.75
-2 -1 7 80.76 12.97
-2 -1 7 49.97 10.57
-2 -1 8 566.33 38.33
-2 -1 8 580.89 40.66
-2 -1 8 631.74 46.6
-2 -1 8 610.11 46.86
-2 -1 8 599.35 47.84
-2 -1 9 14.46 6.24
-2 -1 9 13.2 5.7
-2 -1 9 30.21 11.1
-2 -1 9 12.62 6.64
-2 -1 9 29.1 10.4
-2 -1 10 727.42 47.87
-2 -1 10 677.19 48.52
-2 -1 10 671.5 52.11
-2 -1 10 749.55 57.47
-2 -1 10 854.19 61.31
-2 -1 11 84.25 16.03
-2 -1 11 98.85 17.89
-2 -1 11 84.43 19.37
-2 -1 11 108.6 21.58
-2 -1 11 83.16 18.43
-2 -1 12 519.03 44.44
-2 -1 12 542.46 51.38
-2 -1 12 556.78 51.36
-2 0 -14 398.07 64.02
-2 0 -14 440.98 47.42
-2 0 -14 395.21 41.47
-2 0 -13 12.99 9.33
-2 0 -13 10.36 11.65
-2 0 -13 25.24 10.23
-2 0 -12 506.15 45.12
-2 0 -12 413.04 61.67
-2 0 -12 473.76 42.82
-2 0 -12 463.14 38.07
-2 0 -11 10.96 7.11
-2 0 -11 1.73 3.9
-2 0 -11 5.33 4
-2 0 -11 14.46 6.77
-2 0 -10 772.61 51.71
-2 0 -10 676.55 48.44
-2 0 -10 677.24 48.15
-2 0 -10 668.71 45.24
-2 0 -10 818.27 52.4
-2 0 -9 1.4 1.82
-2 0 -9 7.28 5
-2 0 -9 1.38 3.58
-2 0 -9 3.75 3.24
-2 0 -9 3.73 4.84
-2 0 -9 1.44 2.64
-2 0 -8 1658.76 73.34
-2 0 -8 1428.9 70.29
-2 0 -8 1540.32 65.01
-2 0 -8 1400.83 69.1
-2 0 -8 1464.74 69.34
-2 0 -8 1507.81 71.32
-2 0 -7 137.56 14.47
-2 0 -7 135.17 16.71
-2 0 -7 156.78 16.56
-2 0 -7 160.23 15.23
-2 0 -7 164.5 18.87
-2 0 -7 142.54 16.89
-2 0 -7 125.19 14.08
-2 0 -7 175.45 21.43
-2 0 -7 133.73 16.25
-2 0 -7 125.82 15.86
-2 0 -7 118.79 25.28
-2 0 -7 137.84 15.12
-2 0 -6 1729.08 102.92
-2 0 -6 1934.1 72.66
-2 0 -6 1936.84 79.48
-2 0 -6 1774.28 75.8
-2 0 -6 1989.85 75.15
-2 0 -6 2133.37 88.76
-2 0 -6 1947.2 71.64
-2 0 -6 1883.74 72.65
-2 0 -6 2026.45 79.83
-2 0 -6 2139.1 80.93
-2 0 -6 1983.91 76.31
-2 0 -6 1814 66.25
-2 0 -6 1911.9 69.63
-2 0 -6 1989.18 78.74
-2 0 -6 1909.05 75.29
-2 0 -6 2192.57 86.24
-2 0 -6 1953.31 74.85
-2 0 -5 911.7 41.21
-2 0 -5 953.96 42.74
-2 0 -5 916.08 63.41
-2 0 -5 891.73 41.07
-2 0 -5 887.02 44.41
-2 0 -5 863.01 41.34
-2 0 -5 1024.58 42.62
-2 0 -5 967.44 50.39
-2 0 -5 911.42 44.89
-2 0 -5 971.99 40.11
-2 0 -5 963.65 43.07
-2 0 -5 963.54 41.98
-2 0 -5 892.09 36.59
-2 0 -5 904.31 33.94
-2 0 -5 920.37 43.19
-2 0 -5 977.64 44.94
-2 0 -5 977.95 49.99
-2 0 -5 901.39 44.52
-2 0 -5 859.11 31.43
-2 0 -4 1194.04 47.92
-2 0 -4 1186.88 52.23
-2 0 -4 1212.02 69.43
-2 0 -4 1198.37 51.91
-2 0 -4 1200.38 46.18
-2 0 -4 1204.1 43.86
-2 0 -4 1188.63 50.8
-2 0 -4 1100.66 49.18
-2 0 -4 1325.29 57.59
-2 0 -4 1224.85 46.48
-2 0 -4 1283.8 53.1
-2 0 -4 1262.26 51.06
-2 0 -4 1181.37 46.98
-2 0 -4 1180.73 43.3
-2 0 -4 1268.26 40.86
-2 0 -4 1147.92 49.3
-2 0 -4 1165.01 48.61
-2 0 -4 1203.22 39.75
-2 0 -4 1285.25 58.38
-2 0 -4 1202.56 53.21
-2 0 -4 1288.49 44.31
-2 0 -4 1166.51 51.62
-2 0 -3 369.15 23.88
-2 0 -3 410.03 33.17
-2 0 -3 325.93 14.3
-2 0 -3 330.61 20.89
-2 0 -3 331.97 14.97
-2 0 -3 370.75 21.76
-2 0 -3 333.73 23.36
-2 0 -3 315.76 21.5
-2 0 -3 356.21 21.48
-2 0 -3 339.31 20.64
-2 0 -3 334.43 19.66
-2 0 -3 355.46 16.99
-2 0 -3 349.86 23.5
-2 0 -3 364.63 25.74
-2 0 -3 336.43 19.64
-2 0 -3 338.21 18.12
-2 0 -3 306.32 18.67
-2 0 -3 321.78 18.43
-2 0 -3 273.81 11.9
-2 0 -3 305.33 20.38
-2 0 -3 325 18.37
-2 0 -3 330.11 18.24
-2 0 -2 2919.97 96.11
-2 0 -2 2755.11 93.65
-2 0 -2 2966.27 97.44
-2 0 -2 2824.73 101.87
-2 0 -2 2696.32 95.74
-2 0 -2 2951.54 104.36
-2 0 -2 2989.06 92.67
-2 0 -2 3092.59 89.99
-2 0 -2 3031.66 95.99
-2 0 -2 2837.55 100.02
-2 0 -2 2897.32 101.23
-2 0 -2 2946.75 85.18
-2 0 -2 2883.4 95.77
-2 0 -2 2436.62 88.16
-2 0 -2 2849.63 96.93
-2 0 -2 2730.28 96.67
-2 0 -2 2827.24 107.19
-2 0 -2 2950.94 103.25
-2 0 -2 2907.77 113.46
-2 0 -1 1318.35 53.66
-2 0 -1 1521.12 61.28
-2 0 -1 1523.2 55.27
-2 0 -1 1572.27 54.31
-2 0 -1 1616.38 56.91
-2 0 -1 1601.35 55.14
-2 0 -1 1608.28 63.22
-2 0 -1 1642.01 64.19
-2 0 -1 1512.51 58.61
-2 0 -1 1555.14 49.11
-2 0 -1 1613.63 52.75
-2 0 -1 1506.48 57.85
-2 0 -1 1523.76 62.42
-2 0 -1 1591.71 59.82
-2 0 -1 1586.23 52.42
-2 0 -1 1620.67 55.4
-2 0 -1 1571.84 61.08
-2 0 -1 1567.31 68.92
-2 0 -1 1691.52 64.66
-2 0 0 1259.54 59.18
-2 0 0 1159.2 47.92
-2 0 0 1199.2 53.44
-2 0 0 1283.34 46.89
-2 0 0 1220.27 42.44
-2 0 0 1215.47 52.11
-2 0 0 1127.42 48.37
-2 0 0 1157.25 46.44
-2 0 0 1184.7 45.24
-2 0 0 1225 41.83
-2 0 0 1177.5 44.4
-2 0 0 1251.24 47.88
-2 0 0 1302.35 52.32
-2 0 0 1216.3 50.3
-2 0 0 1155.71 51.17
-2 0 0 1314.78 47.65
-2 0 0 1269.23 42.73
-2 0 0 1202.17 51.97
-2 0 0 1226.33 40.96
-2 0 0 1163.6 52.37
-2 0 0 1021.72 46.11
-2 0 1 3611.46 122.93
-2 0 1 3413.79 110.06
-2 0 1 3622.35 133.68
-2 0 1 3576.64 122.51
-2 0 1 3636.08 116.17
-2 0 1 3692.16 117.81
-2 0 1 3564.41 106.67
-2 0 1 3325.6 117.44
-2 0 1 3716 119.39
-2 0 1 3504.58 120.63
-2 0 1 3522.36 114.79
-2 0 1 3615.47 106.29
-2 0 1 3491.09 111.06
-2 0 1 3581.43 111.8
-2 0 1 3456.77 114.6
-2 0 1 3572.26 119.89
-2 0 1 3610.46 120.17
-2 0 1 3425.03 113.17
-2 0 1 3313.9 105.6
-2 0 1 3751.74 119.55
-2 0 1 3639.67 123.22
-2 0 1 2991.73 116.84
-2 0 2 558.77 33.2
-2 0 2 520 25.78
-2 0 2 563.9 31.7
-2 0 2 546.04 29.09
-2 0 2 546.41 20.33
-2 0 2 509.38 30.89
-2 0 2 547.37 30.43
-2 0 2 537.15 27.31
-2 0 2 542.5 24.65
-2 0 2 539.57 19.93
-2 0 2 512.69 23.82
-2 0 2 518.24 27.91
-2 0 2 541.49 28.63
-2 0 2 521.92 31.38
-2 0 2 554.77 27.08
-2 0 2 623.9 33.24
-2 0 2 536.25 21.72
-2 0 2 530.67 20.95
-2 0 2 520.48 31.11
-2 0 2 567 34
-2 0 3 1499.74 64.32
-2 0 3 1354.73 56.03
-2 0 3 1513.1 60.98
-2 0 3 1387.47 58.85
-2 0 3 1490.59 65.79
-2 0 3 1410.42 61.92
-2 0 3 1420.11 47.06
-2 0 3 1474.15 59.18
-2 0 3 1456.79 56.55
-2 0 3 1538.3 51.2
-2 0 3 1401.63 52.77
-2 0 3 1371.61 46.67
-2 0 3 1383.89 57.66
-2 0 3 1448.77 56.02
-2 0 3 1511.78 58.37
-2 0 3 1690.51 66.74
-2 0 3 1448.82 50.58
-2 0 3 1393.22 49.65
-2 0 3 1426.94 63.64
-2 0 3 1536.9 66.71
-2 0 4 844.4 39.25
-2 0 4 715.58 35.89
-2 0 4 620.22 36.39
-2 0 4 728.62 43.58
-2 0 4 727.11 41.55
-2 0 4 717.19 35.13
-2 0 4 713.9 34.79
-2 0 4 647.06 31.11
-2 0 4 684.4 40.8
-2 0 4 677.09 29.85
-2 0 4 725.07 37.39
-2 0 4 664.36 35.36
-2 0 4 644.34 40.34
-2 0 4 733.05 42.48
-2 0 4 690.34 36.34
-2 0 5 1331.42 60.09
-2 0 5 1264.91 52.88
-2 0 5 1470.92 63.38
-2 0 5 1532.11 72.76
-2 0 5 1517.88 69.47
-2 0 5 1613.4 62.97
-2 0 5 1333.34 57.23
-2 0 5 1493.61 68.36
-2 0 5 1315.86 67.14
-2 0 6 18.23 6.9
-2 0 6 23.79 6.83
-2 0 6 32.09 9.07
-2 0 6 19.94 7.98
-2 0 6 9.73 5.13
-2 0 7 1625.43 73.99
-2 0 7 1763.5 84.5
-2 0 7 1608.44 84.78
-2 0 7 1642.52 81.89
-2 0 7 1647.39 77.03
-2 0 8 20.05 6.93
-2 0 8 21.2 8.6
-2 0 8 24.63 9.54
-2 0 8 15 7.2
-2 0 9 860.38 52.26
-2 0 9 970.21 64.53
-2 0 9 904.24 61.15
-2 0 9 788.98 56.32
-2 0 10 10.53 5.52
-2 0 10 2.12 3.9
-2 0 10 2.22 5.77
-2 0 10 -1.93 5.01
-2 0 11 440.66 38.23
-2 0 11 460.97 45.64
-2 0 11 455.63 46.08
-2 0 11 524 45.86
-2 0 12 30.99 10.03
-2 0 12 14.59 9.51
-2 1 -14 -5.18 0.15
-2 1 -13 254.91 32.54
-2 1 -13 228.65 30.64
-2 1 -13 307.85 35.6
-2 1 -13 206.35 43.85
-2 1 -12 132 22.53
-2 1 -12 126.43 19.76
-2 1 -12 117.27 20.59
-2 1 -11 713.04 52.04
-2 1 -11 611.05 44.6
-2 1 -11 656.29 49.65
-2 1 -10 13.81 7.09
-2 1 -10 8.37 5.13
-2 1 -10 14.48 6.93
-2 1 -9 1362.59 69.66
-2 1 -9 1390.7 72.97
-2 1 -9 1614.71 77.95
-2 1 -9 1463.01 75.55
-2 1 -8 55.04 11.55
-2 1 -8 69.73 13.75
-2 1 -8 68.55 12.34
-2 1 -8 73.94 13.8
-2 1 -8 67.68 19.66
-2 1 -7 785.8 40.96
-2 1 -7 727.12 39.06
-2 1 -7 710.51 39.67
-2 1 -7 717.61 41.04
-2 1 -7 782.93 39.26
-2 1 -6 41.89 8.14
-2 1 -6 38.49 12.51
-2 1 -6 46.21 8.59
-2 1 -6 36.22 6.67
-2 1 -6 36.97 8.16
-2 1 -6 35.99 6.48
-2 1 -6 31.57 8.73
-2 1 -6 46.12 9.01
-2 1 -6 34.26 7.21
-2 1 -6 54.83 9.12
-2 1 -6 31.9 7.72
-2 1 -6 30.48 5.88
-2 1 -6 40.46 7.06
-2 1 -6 27.16 7.08
-2 1 -6 28.73 7.1
-2 1 -6 22.2 5.79
-2 1 -6 24.52 7.16
-2 1 -5 2014.61 76.93
-2 1 -5 1950.52 70.25
-2 1 -5 2030.04 80.22
-2 1 -5 1719.63 93.84
-2 1 -5 1957.24 71.09
-2 1 -5 1965.15 80.43
-2 1 -5 2193.4 79.46
-2 1 -5 2020.17 83.96
-2 1 -5 1945.25 78.32
-2 1 -5 2047.65 77.2
-2 1 -5 1867.48 75.17
-2 1 -5 1748.02 70.2
-2 1 -5 1979.68 72.42
-2 1 -5 2043.97 70.64
-2 1 -5 1993.42 68.22
-2 1 -5 1925.01 77.56
-2 1 -5 2024.52 78.14
-2 1 -5 1914.46 81.13
-2 1 -5 2041.41 70.93
-2 1 -5 2143.4 82.89
-2 1 -4 365.37 22.12
-2 1 -4 328.22 22.3
-2 1 -4 360.1 26.75
-2 1 -4 335.33 31.53
-2 1 -4 360.55 15.01
-2 1 -4 348.54 19.55
-2 1 -4 352.95 24.61
-2 1 -4 345.6 25.06
-2 1 -4 361.08 26.06
-2 1 -4 398.74 25.23
-2 1 -4 385.7 24.32
-2 1 -4 352.97 22.23
-2 1 -4 358.49 22.99
-2 1 -4 356.81 19.01
-2 1 -4 353.94 20.4
-2 1 -4 375.74 21.34
-2 1 -4 403.16 18.87
-2 1 -4 358.03 23.52
-2 1 -4 347.92 23.69
-2 1 -4 328.13 26.26
-2 1 -4 395.22 30.28
-2 1 -4 329.66 18.9
-2 1 -4 378.73 22.63
-2 1 -4 349.39 25.41
-2 1 -3 4318.35 120.96
-2 1 -3 4182.68 136.45
-2 1 -3 3850.27 140.96
-2 1 -3 4112.58 142.87
-2 1 -3 4343.83 150.91
-2 1 -3 3871.07 127.54
-2 1 -3 4037.52 121.16
-2 1 -3 4199.07 136.58
-2 1 -3 4300.53 142.76
-2 1 -3 4177.57 138.48
-2 1 -3 4016.6 134.68
-2 1 -3 3856.11 133.28
-2 1 -3 4064.22 134.06
-2 1 -3 3908.61 134.82
-2 1 -3 3933.71 133.53
-2 1 -3 4122.51 122.99
-2 1 -3 4083 130.36
-2 1 -3 4201.16 134.92
-2 1 -3 3948.45 126.73
-2 1 -3 3975.61 133.3
-2 1 -3 4445.37 144.46
-2 1 -3 4354.74 148.5
-2 1 -3 3981.68 130.2
-2 1 -3 3765.44 137.17
-2 1 -3 4016.63 136.4
-2 1 -2 677.02 33.7
-2 1 -2 700.39 35.58
-2 1 -2 734.82 35.72
-2 1 -2 687.99 27.82
-2 1 -2 661.56 20.47
-2 1 -2 718.87 34.02
-2 1 -2 -0.98 1.32
-2 1 -2 663.63 22.27
-2 1 -2 700.72 27.87
-2 1 -2 739.81 25.85
-2 1 -2 699.43 25.89
-2 1 -2 759.96 28.23
-2 1 -2 707.35 26.79
-2 1 -2 709.17 25.94
-2 1 -2 723.72 27.18
-2 1 -2 720.51 20.01
-2 1 -2 758.28 35.41
-2 1 -2 667.31 25.44
-2 1 -2 652.8 25.48
-2 1 -2 724.72 31.14
-2 1 -2 697.26 31.27
-2 1 -2 -0.85 0.36
-2 1 -2 674.93 29.85
-2 1 -1 1037 52.61
-2 1 -1 969.56 51.74
-2 1 -1 1033.22 43.71
-2 1 -1 1009.8 39.44
-2 1 -1 1033.02 41.58
-2 1 -1 1057.75 43.7
-2 1 -1 1110.03 51.97
-2 1 -1 981.14 43.32
-2 1 -1 990.31 39.55
-2 1 -1 1048.36 44.12
-2 1 -1 983.23 42.97
-2 1 -1 999.31 41.86
-2 1 -1 1047.62 43.1
-2 1 -1 1064.11 42.2
-2 1 -1 1121.49 51.72
-2 1 -1 1116.33 45.99
-2 1 -1 1146.06 51.75
-2 1 -1 1108.61 41.91
-2 1 -1 1033.28 42.41
-2 1 -1 1166.89 50.84
-2 1 -1 1026.9 49.99
-2 1 0 2124.64 89.66
-2 1 0 2107.19 85.78
-2 1 0 2022.11 72.99
-2 1 0 1983.76 73.05
-2 1 0 2212.24 84.77
-2 1 0 1974.96 74.81
-2 1 0 2131.96 72.01
-2 1 0 2053.61 74.04
-2 1 0 2090.24 74.64
-2 1 0 2071.83 71.93
-2 1 0 2119.83 76.79
-2 1 0 2174.02 82.85
-2 1 0 2144.55 80.71
-2 1 0 2073.13 78.58
-2 1 0 2102.75 73.5
-2 1 0 2295.47 84.6
-2 1 0 2002.71 72.6
-2 1 0 2002.46 83.46
-2 1 1 462.45 23.18
-2 1 1 494.69 29.39
-2 1 1 476.27 25.53
-2 1 1 559.62 33.76
-2 1 1 427.69 23.63
-2 1 1 465.19 32.34
-2 1 1 453.76 23.96
-2 1 1 553.25 33.07
-2 1 1 449.54 26.77
-2 1 1 490.68 26.96
-2 1 1 477.26 23.08
-2 1 1 470.89 25.41
-2 1 1 503.86 22.72
-2 1 1 472.38 25.33
-2 1 1 478.45 23.86
-2 1 1 465.68 26.5
-2 1 1 484.34 28.32
-2 1 1 499.83 30.42
-2 1 1 576.25 35.22
-2 1 2 623.91 37.54
-2 1 2 581.92 30.46
-2 1 2 554.21 27.82
-2 1 2 570.16 35.97
-2 1 2 596.16 35.18
-2 1 2 609.66 35.77
-2 1 2 551.44 30.3
-2 1 2 548.7 25.85
-2 1 2 531.48 28.57
-2 1 2 629.25 24.1
-2 1 2 574.32 28.56
-2 1 2 622.37 31.23
-2 1 2 559.46 31.28
-2 1 2 632.52 33.52
-2 1 2 524.32 28.8
-2 1 2 592.39 32.33
-2 1 2 579.8 34.68
-2 1 2 536.06 26.46
-2 1 2 607.98 38.61
-2 1 3 2135.55 80.86
-2 1 3 2346.76 90.78
-2 1 3 2281.82 87.78
-2 1 3 1990.88 75.61
-2 1 3 2349.26 89.73
-2 1 3 2097.92 75.06
-2 1 3 2218.39 85.32
-2 1 3 1989.55 79.01
-2 1 3 1944.81 76.46
-2 1 3 2030.74 75.21
-2 1 3 1886.74 71.67
-2 1 3 2024.36 80.32
-2 1 3 2215.46 83.76
-2 1 3 2304.88 81.03
-2 1 3 2189.28 69.62
-2 1 3 2408.27 86.18
-2 1 3 2330.01 89.36
-2 1 3 2134.78 75.05
-2 1 3 2477.4 94.33
-2 1 4 2133.12 65.56
-2 1 4 1921.52 54.29
-2 1 4 2077.32 52.92
-2 1 4 1950.54 47.93
-2 1 4 2264.06 64.85
-2 1 4 2069.7 55.65
-2 1 4 2048.12 48.1
-2 1 4 2210.01 58.47
-2 1 4 2261.83 61.9
-2 1 4 1929.39 47.17
-2 1 4 2230.17 71.37
-2 1 4 1903.5 44.44
-2 1 4 2177.6 69.72
-2 1 5 226.71 18.22
-2 1 5 221.11 23.36
-2 1 5 243.03 18.23
-2 1 5 195.24 17.47
-2 1 5 272.26 27.25
-2 1 5 224.71 19.3
-2 1 5 196.7 22.36
-2 1 5 264.84 25.86
-2 1 5 286.71 25.34
-2 1 5 212.31 20.63
-2 1 6 1808.78 87.37
-2 1 6 1718.11 80.18
-2 1 6 1551.07 79.07
-2 1 6 1656.17 74.98
-2 1 7 -1.41 0.02
-2 1 7 1.64 3.01
-2 1 7 1.57 2.04
-2 1 7 1.25 1.62
-2 1 8 385.02 38.14
-2 1 8 397.32 37.97
-2 1 8 338.56 33.93
-2 1 8 420.71 33.92
-2 1 9 181.17 26.08
-2 1 9 174.41 26.54
-2 1 9 169.43 24.2
-2 1 9 180.76 22.95
-2 1 10 1066.27 69.81
-2 1 10 1042.52 71.22
-2 1 10 887.91 62.14
-2 1 10 956.91 59.91
-2 1 11 9.21 6.69
-2 1 11 2.42 7.03
-2 1 11 4.08 5.3
-2 1 11 5.18 5.01
-2 1 12 413.91 39.3
-2 1 12 445.86 46.72
-2 2 -13 2.12 7.28
-2 2 -13 18.68 9.1
-2 2 -12 206.61 28.64
-2 2 -12 233.02 27.03
-2 2 -12 240.8 31.67
-2 2 -11 136.56 21.8
-2 2 -11 153.99 21.37
-2 2 -11 129.58 22.36
-2 2 -10 623.57 47.89
-2 2 -10 762.5 48.67
-2 2 -10 704.41 52.14
-2 2 -9 1.54 2
-2 2 -9 1.71 3.13
-2 2 -9 -1.39 0.01
-2 2 -8 1590.59 75.26
-2 2 -8 1575.36 76.54
-2 2 -8 1580.62 79.31
-2 2 -8 1615.96 74.9
-2 2 -7 1.25 2.29
-2 2 -7 8.61 4.52
-2 2 -7 4.84 3.52
-2 2 -7 12.72 5.8
-2 2 -7 2.43 5.46
-2 2 -6 1052.61 56.34
-2 2 -6 994.99 67.57
-2 2 -6 1105.54 56.7
-2 2 -6 1051.23 49.21
-2 2 -6 1242.25 57.11
-2 2 -6 1114.15 51.73
-2 2 -6 1219.54 53.33
-2 2 -6 1067.03 56.22
-2 2 -6 1150.92 57.6
-2 2 -6 1138.14 59.6
-2 2 -6 1124.24 50.08
-2 2 -5 9.38 3.51
-2 2 -5 3.29 3.02
-2 2 -5 6.03 3.84
-2 2 -5 5.38 2.9
-2 2 -5 16.71 5.6
-2 2 -5 7.56 3.97
-2 2 -5 8.82 3.76
-2 2 -5 11.96 5.02
-2 2 -5 12.42 4.16
-2 2 -5 13.21 5.11
-2 2 -5 2.61 2.54
-2 2 -5 18.37 5.32
-2 2 -5 18.8 6.48
-2 2 -4 1136.16 59.68
-2 2 -4 1163.45 48.27
-2 2 -4 1086.68 53.9
-2 2 -4 1218.4 54.48
-2 2 -4 1081.36 50.75
-2 2 -4 1070.23 49.72
-2 2 -4 1136.89 50.14
-2 2 -4 1136.87 51.59
-2 2 -4 1048.76 50.17
-2 2 -4 1195.49 43.48
-2 2 -4 1065.5 50.18
-2 2 -4 1164.93 47.38
-2 2 -4 1078.81 52.83
-2 2 -4 1177.54 54.04
-2 2 -4 1100.93 52.26
-2 2 -4 1148.34 56.69
-2 2 -4 1164.01 53.85
-2 2 -3 1068.34 50.67
-2 2 -3 943.32 47.92
-2 2 -3 1048.86 50.85
-2 2 -3 924.83 41.85
-2 2 -3 968.23 48.53
-2 2 -3 1075.98 46.95
-2 2 -3 1030.76 45.47
-2 2 -3 1041.76 46.12
-2 2 -3 1072.17 47.26
-2 2 -3 1043.44 46.33
-2 2 -3 999.71 45.64
-2 2 -3 1020.55 41.47
-2 2 -3 1002.68 46.94
-2 2 -3 944.07 47.35
-2 2 -3 965.58 42.48
-2 2 -3 1005.11 38.17
-2 2 -3 972.13 39.27
-2 2 -3 928.56 49.54
-2 2 -3 931.64 49.32
-2 2 -3 986.72 38.48
-2 2 -2 3128.84 109.9
-2 2 -2 2981.32 108.15
-2 2 -2 2839.72 97.75
-2 2 -2 2838.06 104.36
-2 2 -2 2938.21 91.65
-2 2 -2 2850.64 98.65
-2 2 -2 2692.92 99.13
-2 2 -2 2717.96 97.47
-2 2 -2 2917.34 101.62
-2 2 -2 2866.05 100.95
-2 2 -2 2884.42 101.5
-2 2 -2 2790.97 101.5
-2 2 -2 2901.77 87.37
-2 2 -2 3000.25 99.83
-2 2 -2 2959.08 92.91
-2 2 -2 2664.77 102.36
-2 2 -2 2851.58 97.34
-2 2 -2 2929.51 110.53
-2 2 -2 2688.44 106.75
-2 2 -1 321.76 26.63
-2 2 -1 276.63 16.54
-2 2 -1 261.74 20.69
-2 2 -1 274.3 18.52
-2 2 -1 261.58 15.92
-2 2 -1 258.78 17.16
-2 2 -1 280.73 19.81
-2 2 -1 297.69 17.36
-2 2 -1 289.98 20.65
-2 2 -1 310.59 20.43
-2 2 -1 281.28 20.47
-2 2 -1 298.64 20.2
-2 2 -1 278.59 13.23
-2 2 -1 282.12 19.97
-2 2 -1 285.09 20.22
-2 2 -1 299.46 21.73
-2 2 -1 283.12 24.13
-2 2 -1 262.47 24.42
-2 2 0 2172.19 86.05
-2 2 0 1964 88.17
-2 2 0 1953.89 75.08
-2 2 0 1994.91 65.86
-2 2 0 1990.69 75.49
-2 2 0 1945.84 74.98
-2 2 0 1941.61 72.2
-2 2 0 1928.7 73
-2 2 0 1944.81 66.95
-2 2 0 2062.63 81.93
-2 2 0 2016.51 76.45
-2 2 0 1937.99 73.19
-2 2 0 1911.21 70.94
-2 2 0 1927.36 75.89
-2 2 0 2079.93 70.85
-2 2 0 2055.3 87.21
-2 2 0 2163.01 78.98
-2 2 1 904.1 48.14
-2 2 1 734.42 38.53
-2 2 1 754.77 34.06
-2 2 1 844.57 41.34
-2 2 1 768.33 39.32
-2 2 1 716.62 34.9
-2 2 1 726.22 33.59
-2 2 1 710.75 36.42
-2 2 1 785.49 37.95
-2 2 1 787.68 38.39
-2 2 1 775.82 47.95
-2 2 1 756.68 41.01
-2 2 1 709.01 36.1
-2 2 1 723.62 25.6
-2 2 2 519.63 35.63
-2 2 2 426.85 28.86
-2 2 2 491.21 28.22
-2 2 2 456.67 31.22
-2 2 2 480.93 27.83
-2 2 2 491.73 30.93
-2 2 2 455.21 27.64
-2 2 2 399.31 24.44
-2 2 2 425.37 26.57
-2 2 2 436.16 28
-2 2 2 480.92 32.44
-2 2 2 454.39 26.89
-2 2 2 462.76 35.46
-2 2 3 1531.02 72.72
-2 2 3 1457.99 61.59
-2 2 3 1455.27 61.85
-2 2 3 1529.85 69.41
-2 2 3 1277.85 59.89
-2 2 3 1283.4 55.4
-2 2 3 1228.22 55.96
-2 2 3 1269.07 53.13
-2 2 3 1220.51 55
-2 2 3 1315.87 61.61
-2 2 4 875.35 47.93
-2 2 4 951.39 55.39
-2 2 4 812.38 41.74
-2 2 4 821.82 45.97
-2 2 4 867.22 50.55
-2 2 5 815.92 43.69
-2 2 5 862.2 55.43
-2 2 5 1008.55 58.14
-2 2 5 1034.24 54.41
-2 2 5 801.4 48.12
-2 2 6 424.15 36.1
-2 2 6 395.82 33.25
-2 2 6 389.83 31.95
-2 2 6 365.15 28.71
-2 2 7 964.77 64.3
-2 2 7 871.28 58.24
-2 2 7 1019.22 60.6
-2 2 7 1081.18 63.15
-2 2 7 1029.88 57.85
-2 2 8 41.18 12.63
-2 2 8 35.49 11.15
-2 2 8 61.09 13.24
-2 2 9 501.82 46.74
-2 2 9 447.27 43.54
-2 2 9 464.13 42.1
-2 2 9 564.13 47.49
-2 2 9 506.91 41.42
-2 2 10 8.82 5.61
-2 2 10 21.16 10.13
-2 2 10 2 4.51
-2 2 10 19.87 9.51
-2 2 11 458.88 41.83
-2 2 11 500.6 49.41
-2 2 11 523.69 50.77
-2 2 11 415.39 42.12
-2 3 -12 118.75 20.08
-2 3 -12 138.85 24.44
-2 3 -12 91.17 19.1
-2 3 -11 492.92 40.76
-2 3 -11 508.06 46.46
-2 3 -11 503.16 44.28
-2 3 -10 75.82 15.43
-2 3 -10 108.45 20.2
-2 3 -10 101.47 18.71
-2 3 -9 539.21 41.62
-2 3 -9 647.29 48.59
-2 3 -9 574.71 43.23
-2 3 -9 542.75 43.47
-2 3 -8 1.45 2.65
-2 3 -8 1.72 2.23
-2 3 -8 1.55 2.02
-2 3 -8 4.5 3.89
-2 3 -7 723.22 43.29
-2 3 -7 716.84 45.81
-2 3 -7 707.28 48.49
-2 3 -7 615.47 43.44
-2 3 -7 650.86 45.19
-2 3 -6 10.16 4.64
-2 3 -6 6.61 4.54
-2 3 -6 1.3 1.69
-2 3 -6 4.42 3.31
-2 3 -5 2165.16 91.08
-2 3 -5 2061.22 92.92
-2 3 -5 2229.5 94.01
-2 3 -5 2457.1 93.81
-2 3 -5 2314.67 96.99
-2 3 -5 2196.66 92.46
-2 3 -5 2192.84 93.64
-2 3 -4 -0.79 1.44
-2 3 -4 2.31 2.12
-2 3 -4 0.89 1.64
-2 3 -4 2.15 2.8
-2 3 -4 4.57 3.31
-2 3 -4 0.84 1.89
-2 3 -4 -1.07 1.97
-2 3 -4 1.2 1.56
-2 3 -4 1.29 1.67
-2 3 -3 1110.42 57.63
-2 3 -3 1195.35 52.76
-2 3 -3 1332 53.25
-2 3 -3 1208.1 52.86
-2 3 -3 1154.9 50.82
-2 3 -3 1184.81 61.68
-2 3 -3 1174.8 61.97
-2 3 -3 1122.96 59.37
-2 3 -3 1166.85 54.97
-2 3 -3 1205.33 58.78
-2 3 -3 1224.33 53.92
-2 3 -3 1201.54 58.78
-2 3 -3 1125.28 53.42
-2 3 -3 1234.35 60.17
-2 3 -2 395.5 28.85
-2 3 -2 349.42 27.65
-2 3 -2 377.46 25.09
-2 3 -2 435.33 32.03
-2 3 -2 390.94 26.41
-2 3 -2 401.01 29.2
-2 3 -2 354.82 28.42
-2 3 -2 360.13 25.56
-2 3 -2 374.24 28.45
-2 3 -2 338.57 28.48
-2 3 -2 434.81 33.91
-2 3 -2 349.04 23.7
-2 3 -2 398.01 25.19
-2 3 -1 994.78 46.01
-2 3 -1 966.12 52.78
-2 3 -1 970.42 41.74
-2 3 -1 980.73 47.23
-2 3 -1 1083.28 50.26
-2 3 -1 949.59 49.71
-2 3 -1 952.4 45.29
-2 3 -1 939.86 45.78
-2 3 -1 857.3 48.09
-2 3 -1 1010.64 46.21
-2 3 -1 921.09 55.24
-2 3 -1 880.6 51.79
-2 3 0 248.02 19.53
-2 3 0 265.95 20.74
-2 3 0 294.72 27.33
-2 3 0 305.35 22.24
-2 3 0 271.13 23.17
-2 3 0 266.36 21.03
-2 3 0 310.49 29.14
-2 3 0 289.15 23.24
-2 3 0 261.41 22.5
-2 3 1 1555.72 71.69
-2 3 1 1834.42 75.2
-2 3 1 1736.92 73.1
-2 3 1 1528.36 82.96
-2 3 1 1616.45 70.58
-2 3 1 1797.03 75.22
-2 3 1 1644.1 69.27
-2 3 1 1671.13 67.68
-2 3 2 378.58 34.22
-2 3 2 312.79 25.25
-2 3 2 383.83 29.23
-2 3 2 360.44 24.34
-2 3 3 1003.34 59.58
-2 3 3 913.63 50.82
-2 3 3 883.26 46.79
-2 3 3 831.73 45.93
-2 3 4 931.36 58.34
-2 3 4 861.38 50.62
-2 3 4 875.15 49.24
-2 3 4 852.76 46.84
-2 3 5 386.62 36.15
-2 3 5 350.93 31.07
-2 3 5 379.99 31.82
-2 3 5 363.45 28.61
-2 3 6 443.95 36.23
-2 3 6 461.53 37.41
-2 3 6 411.85 38.34
-2 3 7 145.55 21.4
-2 3 7 124.63 19.26
-2 3 7 146.58 23.48
-2 3 7 118.93 20.21
-2 3 8 702.42 48.48
-2 3 8 603.74 42.34
-2 3 8 642.51 49.93
-2 3 9 188.08 26.89
-2 3 9 149.55 22.88
-2 3 9 157.15 26.2
-2 3 9 141.03 22.9
-2 3 10 508.63 46.52
-2 3 10 386.6 40.23
-2 3 10 485.89 48.32
-2 3 10 438.91 40.83
-2 3 11 23.9 9.68
-2 3 11 2.13 7.34
-2 4 -11 83.1 18.55
-2 4 -11 126.54 20.77
-2 4 -11 125.92 23.42
-2 4 -10 309.06 34.42
-2 4 -10 284.2 32.4
-2 4 -10 328.23 33.04
-2 4 -10 346.38 37.83
-2 4 -9 46.5 13.12
-2 4 -9 58.04 14.37
-2 4 -9 70.1 15.12
-2 4 -9 84.6 17.82
-2 4 -8 410.92 38.22
-2 4 -8 431.58 38.2
-2 4 -8 474.83 38.97
-2 4 -8 462.18 41.19
-2 4 -7 110.24 18.53
-2 4 -7 102.65 17.45
-2 4 -7 125.36 18.9
-2 4 -7 109.67 19.07
-2 4 -6 1211.5 68.79
-2 4 -6 1176.43 65.28
-2 4 -6 1206.9 67.59
-2 4 -6 1101.42 63.86
-2 4 -6 1284.6 66.42
-2 4 -5 1.54 2.01
-2 4 -5 27.55 8.63
-2 4 -5 20.35 7.61
-2 4 -5 27.29 8.55
-2 4 -5 26.79 8.86
-2 4 -5 30 9.09
-2 4 -5 32.05 9.4
-2 4 -4 786.07 49.69
-2 4 -4 836.66 50.69
-2 4 -4 826.32 52.09
-2 4 -4 783.84 50.98
-2 4 -4 851 53.13
-2 4 -4 832.05 46.73
-2 4 -4 833.81 50.55
-2 4 -3 9.31 5.18
-2 4 -3 14.64 5.99
-2 4 -3 4.65 4.03
-2 4 -3 5.69 4.13
-2 4 -3 6.77 3.56
-2 4 -3 5.48 3.98
-2 4 -2 741.46 46.09
-2 4 -2 752.77 46.62
-2 4 -2 781.1 51.8
-2 4 -2 678.98 45.7
-2 4 -2 697.07 44.85
-2 4 -1 13.23 6.45
-2 4 -1 9.9 5.2
-2 4 -1 7.57 4.34
-2 4 -1 6.52 4.15
-2 4 0 2247.45 102.65
-2 4 0 2123.32 97.69
-2 4 0 2000.55 89.92
-2 4 0 2140.07 91.71
-2 4 1 793.77 54.12
-2 4 1 761.72 52.26
-2 4 1 704.43 44.26
-2 4 2 457.05 40.54
-2 4 2 416.38 34.18
-2 4 2 482.08 41.38
-2 4 2 422.59 32.68
-2 4 3 151.07 20.06
-2 4 3 189.69 21.17
-2 4 3 156.75 23.34
-2 4 4 428.67 35.66
-2 4 4 372.28 31.47
-2 4 4 413.68 39.8
-2 4 5 239.32 26.92
-2 4 5 250.12 25.19
-2 4 5 221.62 28.94
-2 4 6 793.97 57.6
-2 4 6 800.95 54.11
-2 4 7 528.23 43.56
-2 4 8 52.35 15.42
-2 4 8 48.77 13.42
-2 4 9 221.56 32.04
-2 4 9 242.31 29.49
-2 4 10 26.65 10.99
-2 4 10 17.06 8.78
-2 5 -10 90.94 19.96
-2 5 -10 100.25 18.69
-2 5 -10 81.11 18.35
-2 5 -10 85.44 18.6
-2 5 -9 335.92 37.41
-2 5 -9 336.16 34.57
-2 5 -9 307.99 34.44
-2 5 -9 324 35.94
-2 5 -8 144.99 23.87
-2 5 -8 143.21 22.02
-2 5 -8 118.92 20.55
-2 5 -8 133.67 22.43
-2 5 -7 326.77 35
-2 5 -7 337.7 34.17
-2 5 -7 330.4 34.66
-2 5 -7 292.02 32.36
-2 5 -6 47.6 12.64
-2 5 -6 45.85 12.14
-2 5 -6 49.54 13
-2 5 -6 41.86 12.12
-2 5 -6 43.35 11.98
-2 5 -5 900.87 57.57
-2 5 -5 802.88 54.02
-2 5 -5 905.07 57.65
-2 5 -5 843.21 56.42
-2 5 -5 765.43 52.94
-2 5 -4 7.13 5.18
-2 5 -4 18.37 8.4
-2 5 -4 4.85 4.7
-2 5 -4 16.65 7.49
-2 5 -4 8.15 5.6
-2 5 -3 711.65 52.34
-2 5 -3 692.99 48.33
-2 5 -3 683.49 49.3
-2 5 -3 723.15 49.13
-2 5 -2 5.63 4.22
-2 5 -2 6.2 4.94
-2 5 -2 4.74 3.56
-2 5 -1 666.46 52.13
-2 5 -1 731.79 50.91
-2 5 -1 739.39 48.82
-2 5 -1 711.64 48.8
-2 5 0 -1.97 0.01
-2 5 0 1.77 3.98
-2 5 0 1.51 2.78
-2 5 0 1.6 2.93
-2 5 1 929.17 57.96
-2 5 1 876.39 60.78
-2 5 1 971.98 64.86
-2 5 2 165.28 25.4
-2 5 2 162.31 21.63
-2 5 2 168.68 25.49
-2 5 3 459.44 43.55
-2 5 3 405.38 41.18
-2 5 3 391.25 34.53
-2 5 3 421.83 37.53
-2 5 4 153.53 25.04
-2 5 4 122.47 19.13
-2 5 4 121.19 20.22
-2 5 5 411.35 41.57
-2 5 5 373.64 34.29
-2 5 5 390.71 37.57
-2 5 6 200.58 27.17
-2 5 6 188.46 28
-2 5 7 195.54 27.25
-2 5 8 138.56 23.43
-2 6 -8 353.37 37.95
-2 6 -8 325.15 37.6
-2 6 -8 356.12 37
-2 6 -7 65.89 16.22
-2 6 -7 81.84 17.5
-2 6 -7 65.81 16.02
-2 6 -6 351.12 36.03
-2 6 -6 351.14 37.56
-2 6 -6 331.78 35.53
-2 6 -6 376.43 37.91
-2 6 -5 20.68 8.81
-2 6 -5 23.41 9.15
-2 6 -5 14.28 7.51
-2 6 -5 13.34 7.01
-2 6 -4 422.65 40.82
-2 6 -4 407.81 38.34
-2 6 -4 328.81 35.87
-2 6 -4 387.28 37.75
-2 6 -3 60.57 15.91
-2 6 -3 61.43 14.81
-2 6 -3 65.82 15.12
-2 6 -2 452.58 43.5
-2 6 -2 420.21 39.1
-2 6 -2 412.12 38.27
-2 6 -1 2.18 2.83
-2 6 -1 8.95 5.69
-2 6 -1 3.7 4.16
-2 6 0 596.76 51.33
-2 6 0 580.62 48.35
-2 6 0 563.3 45.58
-2 6 0 598.03 47.38
-2 6 1 54.03 15.55
-2 6 1 52.43 14.5
-2 6 1 56.62 13.88
-2 6 1 72.14 16.06
-2 6 2 406.54 39.94
-2 6 2 539.44 48.44
-2 6 2 493.67 47.33
-2 6 3 2.32 4.26
-2 6 3 3.56 3.27
-2 6 3 -2.31 3
-2 6 4 249.61 29.71
-2 6 4 250.13 33.6
-2 6 5 103.8 21.95
-2 6 5 141.5 22.01
-2 6 5 129.82 22.67
-2 6 6 231.31 30.6
-2 6 6 213.47 31.14
-2 7 -5 208.49 30.26
-2 7 -5 179.98 27.11
-2 7 -4 20.71 9.71
-2 7 -4 21.04 9.08
-2 7 -3 495.93 47.61
-2 7 -3 476.3 44.2
-2 7 -3 456.61 43.68
-2 7 -2 2.36 3.06
-2 7 -2 2.04 4.59
-2 7 -2 2.09 2.72
-2 7 -1 210.7 30.85
-2 7 -1 184.42 26.56
-2 7 -1 220.58 29.57
-2 7 0 34.06 12.67
-2 7 0 30.26 10.84
-2 7 0 31.76 11.37
-2 7 1 174.62 28.94
-2 7 1 196.45 27.87
-2 7 1 222.9 30.24
-2 7 2 37.8 12.43
-2 7 2 45.13 14.5
-2 7 2 27.36 12.13
-2 7 2 34.76 12.01
-2 7 3 366.5 39.76
-2 7 4 16.07 8.26
-1 -8 -5 278.43 52.25
-1 -8 -4 61.27 17.29
-1 -8 -4 42.47 13.38
-1 -8 -4 51.43 14.99
-1 -8 -4 76.91 27.49
-1 -8 -4 48.41 15.23
-1 -8 -3 212.7 32.48
-1 -8 -3 283.67 35.91
-1 -8 -3 229.37 32.28
-1 -8 -3 249.17 34.99
-1 -8 -3 231.24 48.31
-1 -8 -3 315.36 35.37
-1 -8 -2 34.24 12.72
-1 -8 -2 25.35 10.39
-1 -8 -2 21.28 10.21
-1 -8 -2 21.89 10.5
-1 -8 -2 26.77 17.04
-1 -8 -2 25.41 10.67
-1 -8 -1 412.69 44.08
-1 -8 -1 336.72 39.39
-1 -8 -1 412.33 43.97
-1 -8 -1 356.72 40.8
-1 -8 -1 477.81 70.99
-1 -8 -1 384.51 41.44
-1 -8 0 19.51 10.03
-1 -8 0 23.26 10.48
-1 -8 0 27.14 17.28
-1 -8 0 27.7 10.83
-1 -8 0 20.19 9.23
-1 -8 1 444.41 46.52
-1 -8 1 450.6 45.09
-1 -8 1 577.06 76.81
-1 -8 1 373.44 40.99
-1 -8 1 501.24 46.79
-1 -8 2 2.42 3.15
-1 -8 2 4.52 5.09
-1 -8 2 8.84 6.42
-1 -8 2 4.33 4.87
-1 -8 2 5.31 6.9
-1 -8 3 209.85 31.33
-1 -8 3 226.84 30.08
-1 -8 3 217.14 30.3
-1 -7 -8 280.74 38.33
-1 -7 -8 295.96 38.9
-1 -7 -8 314.49 38.64
-1 -7 -8 335.26 37.51
-1 -7 -7 89.22 20.28
-1 -7 -7 116.54 22.81
-1 -7 -7 130.5 25.49
-1 -7 -7 116.65 23.49
-1 -7 -7 101.07 20.56
-1 -7 -6 118.97 23.43
-1 -7 -6 182.63 29.42
-1 -7 -6 218.35 31.41
-1 -7 -6 186.22 27.97
-1 -7 -6 183.17 27.56
-1 -7 -5 122.6 20.98
-1 -7 -5 134.38 23.97
-1 -7 -5 109.37 22.35
-1 -7 -5 146.48 35.71
-1 -7 -5 149.74 25.68
-1 -7 -4 232.18 29.55
-1 -7 -4 192.09 29.27
-1 -7 -4 227.84 31.38
-1 -7 -4 217.17 30.24
-1 -7 -4 197.55 29.25
-1 -7 -3 335.41 36.87
-1 -7 -3 337.03 38.57
-1 -7 -3 369.69 38.66
-1 -7 -3 361.15 36.12
-1 -7 -3 356.48 39.24
-1 -7 -3 361.23 38.37
-1 -7 -2 551.56 48.47
-1 -7 -2 570.09 49.86
-1 -7 -2 619.25 50.93
-1 -7 -2 613.12 48.69
-1 -7 -2 629.6 50.81
-1 -7 -2 557.94 49.26
-1 -7 -1 12.48 7.15
-1 -7 -1 3.97 4.47
-1 -7 -1 4.26 4.8
-1 -7 0 603.04 49.52
-1 -7 0 633.06 52.61
-1 -7 0 592.19 48.62
-1 -7 0 562.45 48.44
-1 -7 1 2.15 3.96
-1 -7 1 1.71 3.15
-1 -7 1 -1.94 3.56
-1 -7 2 626.32 50.26
-1 -7 2 622.54 49.78
-1 -7 2 625.49 50.46
-1 -7 2 697.49 54.85
-1 -7 2 634.39 48.33
-1 -7 2 709.9 51.49
-1 -7 3 61.57 15.35
-1 -7 3 52.68 14.83
-1 -7 3 105.58 30.43
-1 -7 3 51.02 13.48
-1 -7 3 46.78 13.5
-1 -7 3 75.87 16.38
-1 -7 4 331.17 36.9
-1 -7 4 341.06 54.12
-1 -7 4 302.99 34.46
-1 -7 4 303.91 32.74
-1 -7 4 347.08 36.02
-1 -7 5 29.74 10.95
-1 -7 5 21.82 9.31
-1 -7 6 608.35 50.62
-1 -7 6 637.48 51.61
-1 -6 -10 174.54 30.6
-1 -6 -9 38.77 13.47
-1 -6 -9 32.22 12
-1 -6 -9 50.16 15.31
-1 -6 -8 483.19 47.76
-1 -6 -8 449.76 46.83
-1 -6 -8 459.96 42.45
-1 -6 -8 413.5 42.73
-1 -6 -7 250.66 33.14
-1 -6 -7 217.53 30.91
-1 -6 -7 234.74 29.21
-1 -6 -7 227.42 30.6
-1 -6 -6 237 30.63
-1 -6 -6 280.53 44.64
-1 -6 -6 209.24 29.72
-1 -6 -6 203.51 29.29
-1 -6 -5 255.62 28.38
-1 -6 -5 255.46 31.44
-1 -6 -5 223.27 29.68
-1 -6 -5 207.9 29.12
-1 -6 -4 235.88 29.93
-1 -6 -4 274.35 30.25
-1 -6 -4 279.78 28.28
-1 -6 -4 305.17 33.98
-1 -6 -4 212.26 28.1
-1 -6 -3 691.05 52.93
-1 -6 -3 581.21 47.77
-1 -6 -3 716.89 48.77
-1 -6 -3 773.58 50.35
-1 -6 -3 746.65 53.34
-1 -6 -3 696.36 52.48
-1 -6 -2 328.09 33.4
-1 -6 -2 304.63 33.49
-1 -6 -2 302.11 32.71
-1 -6 -2 331.21 33.43
-1 -6 -1 727.92 52.13
-1 -6 -1 615.45 47.43
-1 -6 -1 677.95 47.13
-1 -6 -1 723.62 50.7
-1 -6 -1 789.23 53.57
-1 -6 0 150.16 21.91
-1 -6 0 95.42 17.49
-1 -6 0 132.72 19.3
-1 -6 0 167.94 22.99
-1 -6 1 578.07 42.13
-1 -6 1 570.69 43.73
-1 -6 1 521.03 42.15
-1 -6 1 566.35 42.22
-1 -6 1 496.87 39.34
-1 -6 1 545.97 43.31
-1 -6 2 11.25 6.27
-1 -6 2 9.86 5.66
-1 -6 2 11.81 6.58
-1 -6 2 18.24 7.39
-1 -6 2 15.91 7.04
-1 -6 3 1337.05 72.41
-1 -6 3 1320.63 73.45
-1 -6 3 1334.53 74.08
-1 -6 3 1378.72 76.91
-1 -6 3 1354 72.97
-1 -6 3 1304 70.04
-1 -6 4 13.63 7.67
-1 -6 4 1.56 8.09
-1 -6 4 6.69 5.33
-1 -6 4 19.09 8.44
-1 -6 4 22.39 13.71
-1 -6 4 12 6.75
-1 -6 5 582.8 45.41
-1 -6 5 554.08 42.12
-1 -6 5 517.43 40.89
-1 -6 5 596.68 46.46
-1 -6 6 -1.88 0.05
-1 -6 6 -1.8 0.05
-1 -6 7 535.08 45.89
-1 -6 7 470.95 42.07
-1 -6 8 65.32 16.03
-1 -6 8 50.07 13.56
-1 -5 -11 321.1 37.47
-1 -5 -11 285.18 39.97
-1 -5 -11 310.58 39.64
-1 -5 -10 47.88 15.02
-1 -5 -10 28.35 11.52
-1 -5 -10 31.51 12.79
-1 -5 -9 431.59 45.34
-1 -5 -9 506.8 49.13
-1 -5 -9 422.96 43.77
-1 -5 -8 181.56 27.26
-1 -5 -8 135.21 23.98
-1 -5 -8 149.33 25.93
-1 -5 -8 143.2 21.04
-1 -5 -8 159.47 24.54
-1 -5 -7 518.84 47.09
-1 -5 -7 427.91 42.19
-1 -5 -7 390.68 40.01
-1 -5 -7 434.94 40.3
-1 -5 -7 517.43 40.78
-1 -5 -6 98.1 18.55
-1 -5 -6 92.24 18.4
-1 -5 -6 97.53 23.9
-1 -5 -6 95.14 18.26
-1 -5 -5 650.55 49.48
-1 -5 -5 627.58 48.46
-1 -5 -5 694.81 44.91
-1 -5 -5 706.39 42.34
-1 -5 -5 603.64 47.3
-1 -5 -4 644.9 47.15
-1 -5 -4 589.43 45.77
-1 -5 -4 630.47 43.61
-1 -5 -4 619.43 40.49
-1 -5 -4 659.56 47.7
-1 -5 -3 632.15 45.35
-1 -5 -3 579.91 43.38
-1 -5 -3 610.54 40.76
-1 -5 -3 538.35 42.79
-1 -5 -2 962.19 56.05
-1 -5 -2 998.14 58.9
-1 -5 -2 982.31 57.45
-1 -5 -2 984.06 58.11
-1 -5 -2 902.88 51.76
-1 -5 -1 277.44 28.27
-1 -5 -1 321.26 28.9
-1 -5 -1 302.68 24.99
-1 -5 -1 259.69 27.27
-1 -5 -1 276.1 27.56
-1 -5 0 822.53 49.29
-1 -5 0 695.48 45.59
-1 -5 0 813.77 46.51
-1 -5 0 754.31 45.26
-1 -5 0 859.52 49.93
-1 -5 1 363.33 31.49
-1 -5 1 361.37 30.99
-1 -5 1 317.08 28.09
-1 -5 1 339 29.14
-1 -5 1 352.68 31
-1 -5 2 1231.31 64.06
-1 -5 2 1251.83 64.95
-1 -5 2 1103.62 60.14
-1 -5 2 1239.5 63.91
-1 -5 2 1289.71 65.94
-1 -5 3 56.92 12.35
-1 -5 3 62.67 12.23
-1 -5 3 65.3 13.02
-1 -5 3 56.26 11.36
-1 -5 3 66.41 12.93
-1 -5 4 1078.42 60.17
-1 -5 4 934.26 57.34
-1 -5 4 1037.69 57.17
-1 -5 4 1070.98 60.21
-1 -5 4 1027.95 56.76
-1 -5 5 10.75 5.25
-1 -5 5 17.34 6.72
-1 -5 5 13.97 6.38
-1 -5 5 10.51 5.13
-1 -5 5 13.47 6.45
-1 -5 6 852.73 53.55
-1 -5 6 951.78 59.82
-1 -5 6 985.65 54.91
-1 -5 6 946.02 57.87
-1 -5 7 -1.81 0.03
-1 -5 7 1.68 2.18
-1 -5 7 1.65 3.04
-1 -5 8 654.03 46.76
-1 -5 8 674.41 52.31
-1 -5 8 720.05 51.4
-1 -5 8 619.14 47.84
-1 -5 9 31.21 11.18
-1 -5 9 30.18 9.78
-1 -5 9 38.35 10.87
-1 -5 10 450.02 44.48
-1 -5 10 427.42 38.6
-1 -5 10 395.97 37.17
-1 -4 -12 589.43 50.27
-1 -4 -12 564.87 54.85
-1 -4 -12 565.83 53.67
-1 -4 -11 14.31 7.51
-1 -4 -11 2.46 3.2
-1 -4 -11 2.52 4.64
-1 -4 -10 349.48 39.5
-1 -4 -10 293.26 37.54
-1 -4 -9 -4.18 0.05
-1 -4 -9 2.19 4.02
-1 -4 -8 600.98 49.2
-1 -4 -8 619.59 41.83
-1 -4 -8 506.04 46.32
-1 -4 -8 488.24 43.87
-1 -4 -8 647.38 68.21
-1 -4 -7 226.98 28.11
-1 -4 -7 217.08 28.23
-1 -4 -7 199.68 26.94
-1 -4 -7 277.76 41.52
-1 -4 -7 266.05 25.89
-1 -4 -7 222.66 25.93
-1 -4 -6 1726.37 89.57
-1 -4 -6 1691.1 86.65
-1 -4 -6 1768.32 89
-1 -4 -6 1887.31 102.88
-1 -4 -6 1862.38 77.19
-1 -4 -6 1746.38 81.31
-1 -4 -6 1555.02 81.93
-1 -4 -5 335.07 31.29
-1 -4 -5 285.37 30.2
-1 -4 -5 289.73 29.86
-1 -4 -5 277.07 36.22
-1 -4 -5 322.18 25.84
-1 -4 -5 323.52 24.6
-1 -4 -5 256.12 26.85
-1 -4 -4 784.02 44.46
-1 -4 -4 759.54 48.7
-1 -4 -4 745.04 48.31
-1 -4 -4 835.65 51.06
-1 -4 -4 837.18 46.57
-1 -4 -4 742.67 36.73
-1 -4 -4 835.08 44.14
-1 -4 -3 863.47 44.77
-1 -4 -3 854.41 46.09
-1 -4 -3 842.06 50.56
-1 -4 -3 880 51.42
-1 -4 -3 1034.51 54.74
-1 -4 -3 892.54 39.54
-1 -4 -3 914.29 48.05
-1 -4 -3 927.44 44.06
-1 -4 -3 919.69 58.48
-1 -4 -2 239.07 25.27
-1 -4 -2 197.31 18.88
-1 -4 -2 197.2 21.67
-1 -4 -2 221.01 22.43
-1 -4 -2 205.27 21.65
-1 -4 -2 258.4 21.9
-1 -4 -2 276.77 23.48
-1 -4 -2 237.65 18.86
-1 -4 -1 764.5 39.79
-1 -4 -1 719.47 32.68
-1 -4 -1 645.64 29.66
-1 -4 -1 731.99 31.52
-1 -4 -1 732.05 34.16
-1 -4 -1 591.35 33.18
-1 -4 -1 644.87 36.07
-1 -4 -1 705.12 33.2
-1 -4 -1 672.47 36.18
-1 -4 -1 664.18 35.93
-1 -4 -1 704.56 32.08
-1 -4 -1 615.94 32.21
-1 -4 -1 688.85 26.25
-1 -4 -1 674.23 29.16
-1 -4 0 2178.34 81.57
-1 -4 0 2207 83.59
-1 -4 0 2521.73 97.19
-1 -4 0 2429.02 87.62
-1 -4 0 2269.36 83.65
-1 -4 0 2184.02 84.13
-1 -4 0 2324.94 85.81
-1 -4 0 2176.35 90.47
-1 -4 0 2077.91 84.11
-1 -4 0 2223.8 89.09
-1 -4 0 2081.93 83.38
-1 -4 0 2234.28 90.18
-1 -4 0 2260.57 86.25
-1 -4 0 2102.65 80.23
-1 -4 0 2145.6 86.08
-1 -4 0 2068.38 80.87
-1 -4 0 1966.11 84.35
-1 -4 1 1895.04 75.56
-1 -4 1 1758.4 65.46
-1 -4 1 1865.86 72.47
-1 -4 1 1730.13 76.34
-1 -4 1 1785.25 73.26
-1 -4 1 1657.11 71.51
-1 -4 1 1570.94 74.48
-1 -4 1 1731.64 76.84
-1 -4 1 1906.55 71.77
-1 -4 1 1793.65 67.3
-1 -4 1 1956.79 79.18
-1 -4 1 2068.93 85.94
-1 -4 1 1893.43 71.02
-1 -4 1 1572.28 71.93
-1 -4 2 438.54 32.17
-1 -4 2 394.2 22.52
-1 -4 2 376.04 28.47
-1 -4 2 329.4 27.07
-1 -4 2 402.13 27.83
-1 -4 2 322.27 27.36
-1 -4 2 387.17 25.47
-1 -4 2 349.7 27.5
-1 -4 2 337.83 26.04
-1 -4 3 1948.83 84.5
-1 -4 3 2125.02 88.09
-1 -4 3 2023.8 86.98
-1 -4 3 2146.76 88.43
-1 -4 3 2222.55 83.68
-1 -4 3 2002.91 84.23
-1 -4 4 3.7 2.69
-1 -4 4 1.07 1.39
-1 -4 4 1.18 3.43
-1 -4 4 2.14 1.97
-1 -4 4 -2.3 0.06
-1 -4 4 4.84 3.51
-1 -4 4 4.2 2.73
-1 -4 4 3.69 3.2
-1 -4 5 465.81 31.22
-1 -4 5 397.53 30.87
-1 -4 5 456.31 31.82
-1 -4 5 467.63 35.77
-1 -4 5 464.08 35.23
-1 -4 5 452.7 34.08
-1 -4 5 418.5 31.19
-1 -4 6 259.85 25.23
-1 -4 6 315.19 29.96
-1 -4 6 275.95 27.67
-1 -4 6 288.58 27.68
-1 -4 6 296.57 25.75
-1 -4 7 1503.39 74.1
-1 -4 7 1638.13 82.18
-1 -4 7 1570.91 79.06
-1 -4 7 1504.09 76.38
-1 -4 8 1.66 3.05
-1 -4 8 5.75 4.18
-1 -4 8 10.07 5.28
-1 -4 8 12.56 6.99
-1 -4 9 926.03 59.41
-1 -4 9 902.84 61.17
-1 -4 9 859.27 54.44
-1 -4 9 779.86 52.32
-1 -4 10 63.99 16
-1 -4 10 62.75 14.17
-1 -4 10 57.03 13.33
-1 -4 11 261.46 33.71
-1 -4 11 244.82 28.58
-1 -4 11 214.28 27.04
-1 -3 -13 281.64 37.65
-1 -3 -13 255.14 35.67
-1 -3 -13 234.49 49.23
-1 -3 -13 368.56 40.09
-1 -3 -12 -2.46 3.2
-1 -3 -12 3.78 4.25
-1 -3 -12 9.68 7.03
-1 -3 -12 -5.17 0.05
-1 -3 -12 4.26 3.91
-1 -3 -12 3.56 4.01
-1 -3 -11 591.28 53.65
-1 -3 -11 633.06 49.27
-1 -3 -11 638.08 54.57
-1 -3 -11 773.05 83.98
-1 -3 -11 650.46 47.24
-1 -3 -11 770.91 55.05
-1 -3 -10 19.3 9.24
-1 -3 -10 21.1 8.85
-1 -3 -10 13.29 6.37
-1 -3 -10 4.52 5.88
-1 -3 -10 8.62 6.86
-1 -3 -9 1014 66.55
-1 -3 -9 1085.06 62.47
-1 -3 -9 1045.8 91.92
-1 -3 -9 993.71 66.23
-1 -3 -8 34.74 10.9
-1 -3 -8 19.33 7.2
-1 -3 -8 21.97 8.6
-1 -3 -8 37.02 15.96
-1 -3 -8 19.44 6.31
-1 -3 -7 910.02 50.2
-1 -3 -7 832.11 42.79
-1 -3 -7 750.04 47.63
-1 -3 -7 814.7 55.05
-1 -3 -7 846.34 55.27
-1 -3 -7 853.79 46.69
-1 -3 -6 429.42 29.99
-1 -3 -6 381.94 28.55
-1 -3 -6 405.75 25.55
-1 -3 -6 382.03 30.5
-1 -3 -6 402.26 34.83
-1 -3 -6 347.9 24.28
-1 -3 -6 450.34 29.85
-1 -3 -6 401.82 34.58
-1 -3 -6 426.32 25.52
-1 -3 -6 399.55 29.19
-1 -3 -6 421.77 47.62
-1 -3 -6 409.78 37.25
-1 -3 -5 1460.22 60.71
-1 -3 -5 1487.1 79.62
-1 -3 -5 1661.58 93.88
-1 -3 -5 1377.48 70.01
-1 -3 -5 1445.35 60.25
-1 -3 -5 1428.91 60.4
-1 -3 -5 1547.6 66.62
-1 -3 -5 1387.12 65.02
-1 -3 -5 1459.49 62.22
-1 -3 -5 1389.43 56.34
-1 -3 -5 1566.78 67.67
-1 -3 -5 1450.7 64.02
-1 -3 -5 1412.26 62.97
-1 -3 -5 1355.37 65.86
-1 -3 -5 1416.54 69.12
-1 -3 -5 1529.95 73.06
-1 -3 -5 1387.42 58.54
-1 -3 -5 1479.83 65.11
-1 -3 -5 1375.07 58.89
-1 -3 -4 456.79 27.94
-1 -3 -4 439 26.01
-1 -3 -4 512.63 42.8
-1 -3 -4 511.95 44.52
-1 -3 -4 470.91 26.46
-1 -3 -4 466.29 28.8
-1 -3 -4 453.97 27.07
-1 -3 -4 502.57 30.92
-1 -3 -4 446.37 30.1
-1 -3 -4 486.96 31.07
-1 -3 -4 472.97 30.14
-1 -3 -4 473.04 24.43
-1 -3 -4 485.76 29.75
-1 -3 -4 464.44 31.75
-1 -3 -4 444.11 32.02
-1 -3 -4 467.5 33.99
-1 -3 -4 423.43 32.49
-1 -3 -4 464.41 27.84
-1 -3 -4 442.27 24.47
-1 -3 -4 463.28 26.97
-1 -3 -3 3027.42 92.39
-1 -3 -3 2693.95 48.77
-1 -3 -3 2936.45 62.99
-1 -3 -3 2744.67 57.72
-1 -3 -3 2623.52 61.46
-1 -3 -3 2636.84 44.62
-1 -3 -3 2671.82 66.76
-1 -3 -3 2531.37 57.96
-1 -3 -3 2549.52 66.19
-1 -3 -3 2584.89 68.69
-1 -3 -3 2990.34 58.32
-1 -3 -3 2718.25 59.99
-1 -3 -3 2808.33 64.13
-1 -3 -3 2565.01 58.12
-1 -3 -3 2747.41 55.31
-1 -3 -2 541.97 25.44
-1 -3 -2 537.06 24.39
-1 -3 -2 662.36 41.85
-1 -3 -2 529.6 31.98
-1 -3 -2 588.1 30.61
-1 -3 -2 580.03 32
-1 -3 -2 595.25 32.3
-1 -3 -2 536.95 29.19
-1 -3 -2 553.13 31.29
-1 -3 -2 550.16 25.19
-1 -3 -2 562.39 33.51
-1 -3 -2 574.71 30.89
-1 -3 -2 519.5 32.42
-1 -3 -2 554.38 34
-1 -3 -2 532.42 31.5
-1 -3 -2 623.73 29.61
-1 -3 -1 866.99 35.64
-1 -3 -1 813.64 46.29
-1 -3 -1 855.04 38.66
-1 -3 -1 778.95 37.58
-1 -3 -1 847.76 39.34
-1 -3 -1 922.21 43.75
-1 -3 -1 945.99 37.8
-1 -3 -1 839.75 31.28
-1 -3 -1 769.75 38.64
-1 -3 -1 849.93 39.11
-1 -3 -1 794.28 40.03
-1 -3 -1 744.4 40.65
-1 -3 -1 765.99 35.78
-1 -3 -1 861.25 42.64
-1 -3 -1 724.6 39.87
-1 -3 -1 815.99 36.47
-1 -3 -1 807.4 37.31
-1 -3 -1 774.28 37.67
-1 -3 0 1510.51 62.62
-1 -3 0 1721.55 62.25
-1 -3 0 1640.88 62.9
-1 -3 0 1635.96 64.05
-1 -3 0 1617.41 60.63
-1 -3 0 1846.31 72.07
-1 -3 0 1713.24 65.57
-1 -3 0 1781.29 64.27
-1 -3 0 1637.6 55.02
-1 -3 0 1654.09 64.38
-1 -3 0 1660.1 63.49
-1 -3 0 1657.48 65.23
-1 -3 0 1590.78 63.61
-1 -3 0 1751.01 67.5
-1 -3 0 1743.29 68.21
-1 -3 0 1484.35 65.78
-1 -3 0 1588.36 66.45
-1 -3 0 1663.08 64.33
-1 -3 0 1717.43 63.19
-1 -3 1 885.68 42.59
-1 -3 1 1053.46 48.86
-1 -3 1 1097.24 51.56
-1 -3 1 932.72 37.76
-1 -3 1 1044.1 43.81
-1 -3 1 1041.79 45.17
-1 -3 1 1003.11 46.85
-1 -3 1 833.77 43.7
-1 -3 1 952.88 43.51
-1 -3 1 932.4 45.54
-1 -3 1 886.19 43.8
-1 -3 1 972.88 38.16
-1 -3 1 1028.13 39.03
-1 -3 1 931.41 41.62
-1 -3 1 974.93 44.42
-1 -3 1 935.55 36.33
-1 -3 1 1048.97 33.46
-1 -3 2 1153.01 52.7
-1 -3 2 1258.6 55.95
-1 -3 2 1564.39 50.97
-1 -3 2 1154.49 44.37
-1 -3 2 1272.33 56.67
-1 -3 2 1415.48 62.29
-1 -3 2 1577.78 64.76
-1 -3 2 1328.95 52.86
-1 -3 2 1333.79 47.11
-1 -3 2 1312.57 55.68
-1 -3 2 1287.9 56.08
-1 -3 2 1262.74 56.33
-1 -3 2 1196.75 55.67
-1 -3 2 1220.54 54.8
-1 -3 2 1379.13 52.87
-1 -3 2 1284.98 57.3
-1 -3 2 1155.07 46.88
-1 -3 3 523.3 25.37
-1 -3 3 507.2 28.27
-1 -3 3 410.24 24.87
-1 -3 3 541.14 21.79
-1 -3 3 617.11 44.23
-1 -3 3 463.39 28.31
-1 -3 3 512.17 23.81
-1 -3 3 503.35 27.81
-1 -3 3 639.54 34.84
-1 -3 3 605.55 35.6
-1 -3 3 563.78 20.91
-1 -3 3 501.05 25.11
-1 -3 3 523.65 28.59
-1 -3 3 493.7 26.47
-1 -3 3 465.43 28.08
-1 -3 3 473.65 27.27
-1 -3 3 443.12 23.05
-1 -3 3 463.92 21.82
-1 -3 3 551.02 31.02
-1 -3 4 2509.12 85.68
-1 -3 4 2263.36 65.6
-1 -3 4 2315.49 57.14
-1 -3 4 2325.14 55.08
-1 -3 4 2664.13 72.03
-1 -3 4 2507.14 57.18
-1 -3 4 2056.68 53.01
-1 -3 4 2231.15 60
-1 -3 4 2103.7 61.32
-1 -3 4 2352.56 54.98
-1 -3 4 2359.6 67.37
-1 -3 4 2330.18 60.49
-1 -3 5 318.56 23.44
-1 -3 5 341.18 23.78
-1 -3 5 353.49 26.05
-1 -3 5 350.83 22.01
-1 -3 5 344.72 21.3
-1 -3 5 343.61 22.88
-1 -3 5 337.53 26.68
-1 -3 5 314.31 25.38
-1 -3 5 415.43 23.75
-1 -3 6 1261.1 58.74
-1 -3 6 1134.9 60.23
-1 -3 6 1214.15 59.56
-1 -3 6 1291.81 65.46
-1 -3 6 1307.49 64.99
-1 -3 7 73.13 12.68
-1 -3 7 55.93 11.18
-1 -3 7 65.94 13.6
-1 -3 7 58.23 12.5
-1 -3 8 726.04 46.79
-1 -3 8 778.72 47.7
-1 -3 8 792.57 51.64
-1 -3 8 783.37 53.29
-1 -3 9 14.44 6.51
-1 -3 9 15.61 7.15
-1 -3 9 11.17 6.41
-1 -3 9 15.49 7.08
-1 -3 10 936.75 57.3
-1 -3 10 888.08 55.57
-1 -3 10 948.17 64.27
-1 -3 10 887.27 60.19
-1 -3 11 1.62 2.98
-1 -3 11 -1.67 0.01
-1 -3 11 2.2 4.94
-1 -3 12 371.69 36.43
-1 -3 12 438.46 38.58
-1 -3 12 473.94 46.15
-1 -2 -13 65.29 16.92
-1 -2 -13 64.6 15.53
-1 -2 -13 56.14 16.23
-1 -2 -13 33.3 12.44
-1 -2 -12 455.13 40.58
-1 -2 -12 559.61 48.81
-1 -2 -12 457.19 45.1
-1 -2 -12 418.22 44.18
-1 -2 -11 9.43 5.42
-1 -2 -11 25.37 9.82
-1 -2 -11 21.43 8.3
-1 -2 -11 16.9 8.24
-1 -2 -11 17.21 8.84
-1 -2 -10 565.21 47.75
-1 -2 -10 590.09 40.27
-1 -2 -10 600.71 42.98
-1 -2 -10 503.15 45.26
-1 -2 -10 583.21 42.39
-1 -2 -10 603.38 46.76
-1 -2 -9 6.94 3.98
-1 -2 -9 7.22 5.24
-1 -2 -9 5.39 5.22
-1 -2 -9 4.67 4.04
-1 -2 -9 5.27 3.43
-1 -2 -8 1644.93 71.13
-1 -2 -8 1785.21 80.39
-1 -2 -8 1544.51 72.54
-1 -2 -8 1533.74 81.32
-1 -2 -8 1616.42 82.39
-1 -2 -7 16.4 6.1
-1 -2 -7 19.54 5.54
-1 -2 -7 23.13 5.88
-1 -2 -7 18.6 7.21
-1 -2 -7 32 9.27
-1 -2 -7 12.56 4.72
-1 -2 -6 2016.04 84.3
-1 -2 -6 1791.94 85.3
-1 -2 -6 1927.33 68.68
-1 -2 -6 2044.17 82.8
-1 -2 -6 1894.08 77.92
-1 -2 -6 1847.38 79.13
-1 -2 -6 2139 82.19
-1 -2 -6 1793.46 74.76
-1 -2 -6 2148.62 83.65
-1 -2 -6 1928.85 73.82
-1 -2 -6 1696.46 75.21
-1 -2 -6 1861.85 85.22
-1 -2 -6 2084.13 71.82
-1 -2 -6 1881.89 74.51
-1 -2 -6 2073.52 77.36
-1 -2 -6 1903.73 74.79
-1 -2 -5 199.29 29.03
-1 -2 -5 210.9 21.83
-1 -2 -5 216.52 21.32
-1 -2 -5 172.37 13.55
-1 -2 -5 221.97 19
-1 -2 -5 204 17.97
-1 -2 -5 176.86 17.4
-1 -2 -5 200.78 17.87
-1 -2 -5 180.25 18.07
-1 -2 -5 185.58 16.44
-1 -2 -5 180.54 14.42
-1 -2 -5 172.43 16.4
-1 -2 -5 190.11 19.87
-1 -2 -5 189.02 14.48
-1 -2 -5 212.67 17.21
-1 -2 -5 182.78 15.36
-1 -2 -5 169.42 15.3
-1 -2 -4 1534.55 59.41
-1 -2 -4 1541.58 58.48
-1 -2 -4 1586.07 73.3
-1 -2 -4 1827.01 89.37
-1 -2 -4 1666.31 68.79
-1 -2 -4 1509.81 57.96
-1 -2 -4 1736.62 63.62
-1 -2 -4 1552.26 62.79
-1 -2 -4 1494.85 52.06
-1 -2 -4 1629.97 64.38
-1 -2 -4 1571.03 61.26
-1 -2 -4 1526.86 61.03
-1 -2 -4 1506.88 55.59
-1 -2 -4 1547.48 64.41
-1 -2 -4 1477.17 61.62
-1 -2 -4 1585.63 67.71
-1 -2 -4 1505.63 58.55
-1 -2 -4 1594.18 62.09
-1 -2 -4 1540.3 60.86
-1 -2 -3 463.91 24.93
-1 -2 -3 450.79 22.88
-1 -2 -3 475.29 34.62
-1 -2 -3 500.31 38.31
-1 -2 -3 441.23 24.18
-1 -2 -3 501.22 25.43
-1 -2 -3 438.75 23.42
-1 -2 -3 444.62 25.92
-1 -2 -3 456.78 21.59
-1 -2 -3 443.94 25.89
-1 -2 -3 494.15 27.29
-1 -2 -3 431.83 20.18
-1 -2 -3 474.64 25.69
-1 -2 -3 448.44 25.74
-1 -2 -3 437.95 23.99
-1 -2 -3 496.72 28.92
-1 -2 -3 451.88 28
-1 -2 -3 455.82 26.79
-1 -2 -3 456.87 24.81
-1 -2 -3 468.52 26.25
-1 -2 -3 442.28 23.13
-1 -2 -3 488.4 23.89
-1 -2 -2 2441.35 82.8
-1 -2 -2 2608.32 103.84
-1 -2 -2 2547.35 82.35
-1 -2 -2 2641.45 102.72
-1 -2 -2 2588.81 86.48
-1 -2 -2 2663.57 87.69
-1 -2 -2 2342.24 83.29
-1 -2 -2 2446.14 87.06
-1 -2 -2 2354.91 85.77
-1 -2 -2 2567.93 84.76
-1 -2 -2 2792.4 80.42
-1 -2 -2 2491.37 77.65
-1 -2 -2 2495.14 86.43
-1 -2 -2 2376.32 77.92
-1 -2 -2 2647.77 87.12
-1 -2 -2 2385.92 83.82
-1 -2 -2 2584.86 89.23
-1 -2 -2 2367.24 86.73
-1 -2 -2 2528.67 89.4
-1 -2 -2 2613.87 86.35
-1 -2 -2 2586.75 87.66
-1 -2 -2 2357.41 84.22
-1 -2 -1 1191.62 43.74
-1 -2 -1 1253.9 62.52
-1 -2 -1 1261.39 44.52
-1 -2 -1 1119.85 44.21
-1 -2 -1 1183.46 56.08
-1 -2 -1 1166.09 44.71
-1 -2 -1 1214.44 47.94
-1 -2 -1 1271.21 46.64
-1 -2 -1 1221.46 47.28
-1 -2 -1 1369.35 49.52
-1 -2 -1 1227.22 38.12
-1 -2 -1 1176.88 43.03
-1 -2 -1 1143.33 46.76
-1 -2 -1 1193.58 47.8
-1 -2 -1 1197.31 45.53
-1 -2 -1 1168.4 45.66
-1 -2 -1 1228.85 48.85
-1 -2 -1 1251.02 48.01
-1 -2 -1 1230.77 47.96
-1 -2 -1 1274.35 48.28
-1 -2 -1 1165.73 44.91
-1 -2 -1 1133.54 46.13
-1 -2 0 2840.17 40.72
-1 -2 0 2718.87 40.65
-1 -2 0 2959.82 79.32
-1 -2 0 2815.54 47.5
-1 -2 0 2660.95 44.18
-1 -2 0 2704.31 50.87
-1 -2 0 2715.59 40.87
-1 -2 0 2830.54 41.59
-1 -2 0 2996.15 51.01
-1 -2 0 3113.06 56.91
-1 -2 0 2771.06 23.86
-1 -2 0 2904.26 48.82
-1 -2 0 2861.39 45.35
-1 -2 0 2730.85 49.54
-1 -2 0 2999.81 47.59
-1 -2 0 2934.71 46.66
-1 -2 0 2586.27 46.7
-1 -2 0 2859.4 47.71
-1 -2 0 2718.98 42.02
-1 -2 0 2722.03 48.01
-1 -2 1 2681.97 91.06
-1 -2 1 2774.42 87.57
-1 -2 1 2724.96 87.56
-1 -2 1 2728.82 90.09
-1 -2 1 2930.43 108.34
-1 -2 1 2797.8 90.66
-1 -2 1 2579.11 91.59
-1 -2 1 2703.98 87.6
-1 -2 1 2571.88 84.57
-1 -2 1 2823.25 96.35
-1 -2 1 2757.08 94.61
-1 -2 1 2516.16 81.89
-1 -2 1 2771.13 91.17
-1 -2 1 2663.76 90
-1 -2 1 2658.94 91.05
-1 -2 1 2576.78 90.77
-1 -2 1 2713.09 88.31
-1 -2 1 2718.28 91.98
-1 -2 2 1818.49 37.16
-1 -2 2 1821.21 43.97
-1 -2 2 1835.27 40.59
-1 -2 2 2139.93 64.99
-1 -2 2 1935.21 42.49
-1 -2 2 1806.06 45.12
-1 -2 2 1887.33 41.73
-1 -2 2 2045.44 41.51
-1 -2 2 1973.06 52.86
-1 -2 2 2179.27 52.85
-1 -2 2 1840.64 35.99
-1 -2 2 1886.74 26.06
-1 -2 2 1789.61 43.79
-1 -2 2 1867.65 38.94
-1 -2 2 1811.51 42.13
-1 -2 2 1906.32 43.86
-1 -2 2 1881.26 44.48
-1 -2 2 1795.2 36.17
-1 -2 2 1799.22 33.38
-1 -2 2 1730.3 31.93
-1 -2 2 1962.66 47.09
-1 -2 3 756.67 36.31
-1 -2 3 868.47 39.16
-1 -2 3 934.35 48.23
-1 -2 3 705.31 38.24
-1 -2 3 766.57 39.7
-1 -2 3 776.73 35.14
-1 -2 3 747.6 41.85
-1 -2 3 962.12 42.68
-1 -2 3 862.43 30.03
-1 -2 3 827.34 33.92
-1 -2 3 865.43 39.14
-1 -2 3 782.36 35.67
-1 -2 3 791.12 37.86
-1 -2 3 664.95 36.59
-1 -2 3 787.78 34.43
-1 -2 3 795.65 30.2
-1 -2 3 826.97 32.01
-1 -2 3 744.8 37.52
-1 -2 4 370.44 24.65
-1 -2 4 451.28 28.65
-1 -2 4 453.43 31.09
-1 -2 4 386.47 27.86
-1 -2 4 396.8 27.45
-1 -2 4 381.96 21.66
-1 -2 4 460.2 31.24
-1 -2 4 470.32 28.21
-1 -2 4 409.7 19.38
-1 -2 4 407.64 22.53
-1 -2 4 383.64 25.06
-1 -2 4 386.79 23.79
-1 -2 4 374.53 24.78
-1 -2 4 373.74 25.75
-1 -2 4 451.72 26.91
-1 -2 4 421.67 23.77
-1 -2 4 379.18 16.4
-1 -2 4 412.24 20.46
-1 -2 4 423.56 26.39
-1 -2 5 1469.83 65.65
-1 -2 5 1602.98 67.15
-1 -2 5 1885.84 73.47
-1 -2 5 1834.68 69.44
-1 -2 5 1596.37 73.59
-1 -2 5 1574.27 57.88
-1 -2 5 1625.19 61.89
-1 -2 5 1591.15 66.47
-1 -2 5 1532.35 64.06
-1 -2 5 1624.7 58.76
-1 -2 5 1622.7 67.86
-1 -2 5 1749.35 65.39
-1 -2 5 1627.59 67.9
-1 -2 5 1497.77 58.43
-1 -2 5 1640.24 71.35
-1 -2 5 1583.23 71.83
-1 -2 5 1718.5 72.93
-1 -2 6 320.38 27.76
-1 -2 6 309.76 27.12
-1 -2 6 295.77 26.07
-1 -2 6 300.62 24.37
-1 -2 6 293.79 23.93
-1 -2 6 304.24 22.8
-1 -2 6 326.98 23.69
-1 -2 7 2062.12 93.01
-1 -2 7 2213.17 94.13
-1 -2 7 2078.6 86.61
-1 -2 7 2051.41 86.93
-1 -2 7 2017.32 90.02
-1 -2 8 140.93 20.78
-1 -2 8 149.75 20.75
-1 -2 8 158.87 19.05
-1 -2 8 168.33 19.82
-1 -2 8 190.18 22.27
-1 -2 9 476.12 41.1
-1 -2 9 462.44 39.32
-1 -2 9 491.02 37.05
-1 -2 9 442.44 34.87
-1 -2 9 464.02 37.99
-1 -2 10 -1.5 0.03
-1 -2 10 -1.44 0.03
-1 -2 10 -1.84 0.03
-1 -2 11 761.38 52
-1 -2 11 772.66 51.42
-1 -2 11 802.8 59.41
-1 -2 11 834.63 58.74
-1 -2 12 17.39 8.16
-1 -2 12 23.25 8.36
-1 -2 12 11.46 7.31
-1 -1 -14 79.79 18.72
-1 -1 -14 111.53 23.13
-1 -1 -13 330.51 35.88
-1 -1 -13 369.21 41.17
-1 -1 -13 300.19 36.87
-1 -1 -13 337.49 39.64
-1 -1 -12 123.63 20.73
-1 -1 -12 151.02 24.82
-1 -1 -12 81.99 18.4
-1 -1 -12 120.15 22.57
-1 -1 -11 408.29 36.65
-1 -1 -11 462.43 41.66
-1 -1 -11 381.96 38.22
-1 -1 -11 351.54 37.16
-1 -1 -10 110.37 17.58
-1 -1 -10 121.32 19.87
-1 -1 -10 117.3 19.98
-1 -1 -10 75.4 16.25
-1 -1 -9 1851.67 80.88
-1 -1 -9 1782.12 83.28
-1 -1 -9 1986.9 90.6
-1 -1 -9 1737.66 88.37
-1 -1 -9 1780.47 88.82
-1 -1 -8 16.7 5.92
-1 -1 -8 13.77 5.95
-1 -1 -8 21.08 6.81
-1 -1 -8 17.5 7.58
-1 -1 -8 8.73 5.02
-1 -1 -7 1107.54 56.2
-1 -1 -7 1314 56.3
-1 -1 -7 1169.16 58.13
-1 -1 -7 1199.43 49.58
-1 -1 -7 1270.79 64.07
-1 -1 -7 1162.71 56.93
-1 -1 -7 1380.68 64.64
-1 -1 -7 1275.16 55.75
-1 -1 -7 1183.25 62.86
-1 -1 -6 26.85 5.89
-1 -1 -6 24.13 5.89
-1 -1 -6 17.31 5.43
-1 -1 -6 26.02 7.03
-1 -1 -6 20.06 5.57
-1 -1 -6 25.76 5.25
-1 -1 -6 29.75 6.29
-1 -1 -6 17.56 5.41
-1 -1 -6 24.86 5.17
-1 -1 -6 32.08 5.71
-1 -1 -6 24.81 7.04
-1 -1 -6 18.58 6.22
-1 -1 -6 23.16 5.73
-1 -1 -6 22.18 5.46
-1 -1 -6 28.45 6.18
-1 -1 -5 1202.45 54.13
-1 -1 -5 1285.08 51.34
-1 -1 -5 1331.59 53.56
-1 -1 -5 1278.54 53.07
-1 -1 -5 1401.79 57.73
-1 -1 -5 1239.29 50.71
-1 -1 -5 1215.69 48.54
-1 -1 -5 1170.43 54.43
-1 -1 -5 1370.76 50.03
-1 -1 -5 1143.76 48.56
-1 -1 -5 1171.53 56.33
-1 -1 -5 1396.22 54.75
-1 -1 -5 1338.81 45.53
-1 -1 -5 1193.06 57.37
-1 -1 -5 1229 53.96
-1 -1 -5 1272.97 52.27
-1 -1 -5 1259.3 51.39
-1 -1 -4 112.32 12.4
-1 -1 -4 103.21 11.94
-1 -1 -4 140.88 12.35
-1 -1 -4 126.3 8.76
-1 -1 -4 114.52 11.53
-1 -1 -4 113.62 10.8
-1 -1 -4 122.99 10.59
-1 -1 -4 94.83 9.5
-1 -1 -4 121.7 11.9
-1 -1 -4 120.47 9.62
-1 -1 -4 104.48 11.34
-1 -1 -4 115.45 9.49
-1 -1 -4 105.39 8.82
-1 -1 -4 107.26 11.84
-1 -1 -4 110.6 9.43
-1 -1 -4 110.63 9.64
-1 -1 -4 125.62 10.08
-1 -1 -4 117.05 10.19
-1 -1 -4 100.22 9.69
-1 -1 -3 7568.33 281.21
-1 -1 -3 9173.28 270.65
-1 -1 -3 8435.51 263.67
-1 -1 -3 9206.38 260.68
-1 -1 -3 8351.3 261.69
-1 -1 -3 8977.35 259.06
-1 -1 -3 9998.96 263.81
-1 -1 -3 8541.17 256.67
-1 -1 -3 8136.23 262.12
-1 -1 -3 8832.91 258.34
-1 -1 -3 8482.02 257.11
-1 -1 -3 8338.67 263.81
-1 -1 -3 8992.25 260.86
-1 -1 -3 8853.55 262.86
-1 -1 -3 8569.03 257.81
-1 -1 -3 7994.83 263.07
-1 -1 -3 8974.52 260.76
-1 -1 -3 8651.5 259.8
-1 -1 -3 8235.13 258.17
-1 -1 -3 8919.58 259.32
-1 -1 -2 3423.55 101.35
-1 -1 -2 3237.85 102.56
-1 -1 -2 3501.53 116.14
-1 -1 -2 3403.2 122.25
-1 -1 -2 3182.7 105.99
-1 -1 -2 3343.63 104.66
-1 -1 -2 3146.78 105.94
-1 -1 -2 3310.72 106.91
-1 -1 -2 3215.17 105.9
-1 -1 -2 3312.68 105.25
-1 -1 -2 3175.8 106.22
-1 -1 -2 3323.99 103.94
-1 -1 -2 3372.05 99.11
-1 -1 -2 3263.28 100.61
-1 -1 -2 3456.98 102.97
-1 -1 -2 3200.33 106.27
-1 -1 -2 3320.4 103.27
-1 -1 -2 3586.26 106.48
-1 -1 -2 3314.23 105.63
-1 -1 -2 3246.3 105.78
-1 -1 -2 3275.47 106.07
-1 -1 -2 3274.76 101.29
-1 -1 -2 3774.11 105.28
-1 -1 -1 1101.17 16.86
-1 -1 -1 1114.24 20.97
-1 -1 -1 1078.35 18.21
-1 -1 -1 1095.77 23.28
-1 -1 -1 1123.94 16.67
-1 -1 -1 1112.81 22.79
-1 -1 -1 1085.56 18.05
-1 -1 -1 1163.45 24.3
-1 -1 -1 1064.52 20.48
-1 -1 -1 1196.66 18.52
-1 -1 -1 1125.72 24.88
-1 -1 -1 1147.98 38.54
-1 -1 -1 1206 40.1
-1 -1 -1 1131.01 25.1
-1 -1 -1 1103.59 24.63
-1 -1 -1 1037.77 25.28
-1 -1 -1 1114.83 25.04
-1 -1 -1 1083.43 25.48
-1 -1 0 566.61 19.56
-1 -1 0 548.06 27.31
-1 -1 0 651.31 25.48
-1 -1 0 628.75 32.69
-1 -1 0 565.88 24.88
-1 -1 0 577.21 22.26
-1 -1 0 580.48 24.5
-1 -1 0 592.22 24.58
-1 -1 0 629.96 24.06
-1 -1 0 643.88 26.01
-1 -1 0 542.37 23.83
-1 -1 0 570.98 23.4
-1 -1 0 572.3 20.21
-1 -1 0 582.4 24.39
-1 -1 0 588.57 22.82
-1 -1 0 570.03 21.95
-1 -1 0 588.21 24.48
-1 -1 0 545.9 23.31
-1 -1 0 588.56 24.14
-1 -1 0 592.1 20.86
-1 -1 0 550.91 23.62
-1 -1 1 1216.85 42.84
-1 -1 1 1187.86 49.75
-1 -1 1 1325.6 54.23
-1 -1 1 1269.66 45.57
-1 -1 1 1323.22 47.25
-1 -1 1 1272.85 45.16
-1 -1 1 1229.18 46.56
-1 -1 1 1400.74 49.16
-1 -1 1 1297.68 47.84
-1 -1 1 1323.9 47.39
-1 -1 1 1237.3 43.59
-1 -1 1 1217.67 46.2
-1 -1 1 1207.24 44.94
-1 -1 1 1364.75 47.37
-1 -1 1 1327.36 41.1
-1 -1 1 1390.4 44.23
-1 -1 1 1188.29 42.92
-1 -1 1 1225.56 45.11
-1 -1 1 1257.68 45.07
-1 -1 1 1352.8 41.45
-1 -1 1 1274.79 45.47
-1 -1 2 674.3 30.6
-1 -1 2 650.9 28.22
-1 -1 2 625.73 26.82
-1 -1 2 597.4 27.15
-1 -1 2 731.32 35.11
-1 -1 2 656.03 29.74
-1 -1 2 571.07 29.73
-1 -1 2 593.23 26.01
-1 -1 2 703.92 23.25
-1 -1 2 645.67 31.4
-1 -1 2 704.25 30.26
-1 -1 2 657.05 23.08
-1 -1 2 603 27.2
-1 -1 2 631.33 29.08
-1 -1 2 647.03 29.38
-1 -1 2 620.08 25.31
-1 -1 2 628.99 27.73
-1 -1 2 660.04 26.77
-1 -1 2 713.5 28.01
-1 -1 2 622.45 23.7
-1 -1 2 561.48 29.5
-1 -1 3 4950.43 75.84
-1 -1 3 4486.92 65.36
-1 -1 3 4308.36 64.26
-1 -1 3 4620.94 65.76
-1 -1 3 5437.62 81.36
-1 -1 3 4581.68 73.16
-1 -1 3 4973.76 50.17
-1 -1 3 4837.81 77.06
-1 -1 3 4638.8 53.31
-1 -1 3 4807.95 47.4
-1 -1 3 5101.33 81.98
-1 -1 3 5064.39 70.78
-1 -1 3 4779.43 50.46
-1 -1 3 4325.72 67.63
-1 -1 3 4379.02 64.82
-1 -1 3 4707.73 69.19
-1 -1 3 4309.39 59.14
-1 -1 3 4582.34 54.29
-1 -1 3 5023.69 64.59
-1 -1 3 4758.23 75.21
-1 -1 4 3174.17 60.65
-1 -1 4 3152.92 59.1
-1 -1 4 3892.44 65.69
-1 -1 4 3303.41 68.75
-1 -1 4 3345.36 70.63
-1 -1 4 3613.16 47.69
-1 -1 4 3130.19 41.63
-1 -1 4 3606.68 59.93
-1 -1 4 3546.61 72.25
-1 -1 4 3425.04 47.55
-1 -1 4 3164.38 58.06
-1 -1 4 3314.07 61.02
-1 -1 4 3186.89 55.27
-1 -1 4 3219.54 61.97
-1 -1 4 3368.86 66.92
-1 -1 4 3383.32 60.7
-1 -1 4 3306.03 69.18
-1 -1 5 431.59 27.83
-1 -1 5 420.35 27.99
-1 -1 5 462.31 19.98
-1 -1 5 407.27 14.98
-1 -1 5 436.43 25.24
-1 -1 5 394.48 23.54
-1 -1 5 456.66 20.36
-1 -1 5 491.42 25.06
-1 -1 5 423.31 23.26
-1 -1 5 423.43 23.1
-1 -1 5 453.02 25.9
-1 -1 5 403.43 26.47
-1 -1 5 486.84 25.32
-1 -1 5 479.04 27.35
-1 -1 5 506.08 23.54
-1 -1 5 498.76 28.91
-1 -1 6 1229.82 57.71
-1 -1 6 1218.3 48.92
-1 -1 6 1162.15 51.6
-1 -1 6 1119.38 53.26
-1 -1 6 1034.43 52.86
-1 -1 6 1153.47 58.97
-1 -1 6 1154.21 59.42
-1 -1 6 1209.47 55.92
-1 -1 6 1163.21 52.21
-1 -1 6 1246.78 54.25
-1 -1 6 1177.92 55.99
-1 -1 6 974.25 54.43
-1 -1 7 76.28 13.9
-1 -1 7 89.96 14.14
-1 -1 7 70.12 11.52
-1 -1 7 92.57 13.53
-1 -1 7 89.02 15.17
-1 -1 8 1083.39 59.43
-1 -1 8 993.53 54.33
-1 -1 8 1029.6 56.14
-1 -1 8 1118.35 63.48
-1 -1 8 1199.63 64.67
-1 -1 9 246.52 26.38
-1 -1 9 196.48 22.91
-1 -1 9 221.07 23.5
-1 -1 9 244.83 28.52
-1 -1 10 819.85 52.96
-1 -1 10 738.32 48.63
-1 -1 10 779.02 50.91
-1 -1 10 856.07 58.46
-1 -1 10 779.74 55.58
-1 -1 11 33.99 11.66
-1 -1 11 32.26 9.62
-1 -1 11 40.36 11.14
-1 -1 11 41.95 13.1
-1 -1 12 655.35 54.59
-1 -1 12 640.3 52.78
-1 -1 12 641.33 47.27
-1 -1 12 633.52 48.52
-1 -1 13 38.52 11.4
-1 -1 13 27.75 9.95
-1 0 -14 128.11 25.18
-1 0 -13 82.93 18.28
-1 0 -13 91.24 20.36
-1 0 -13 98.93 19.83
-1 0 -13 84.11 20.18
-1 0 -12 519.36 46.13
-1 0 -12 557.59 46.39
-1 0 -12 615.21 52.14
-1 0 -12 602.19 50.15
-1 0 -11 190.89 24.91
-1 0 -11 197.37 27.5
-1 0 -11 201.64 27.34
-1 0 -10 526.65 37.88
-1 0 -10 597.82 43.84
-1 0 -10 660.88 49.33
-1 0 -10 631.79 47.38
-1 0 -10 570.93 44.45
-1 0 -9 140.05 17.15
-1 0 -9 150.53 21.13
-1 0 -9 121.64 18.26
-1 0 -9 135.03 18.75
-1 0 -9 141.26 20.7
-1 0 -8 1773.96 70.81
-1 0 -8 1684.63 74.29
-1 0 -8 1627.86 78.81
-1 0 -8 1704.25 78.01
-1 0 -8 1885.54 84.94
-1 0 -7 37.08 9.27
-1 0 -7 63.14 10.97
-1 0 -7 33.35 7.68
-1 0 -7 30.22 6.56
-1 0 -7 26.49 7.5
-1 0 -7 25.89 6.72
-1 0 -7 36.48 7.77
-1 0 -7 37.74 7.05
-1 0 -7 22.9 6.1
-1 0 -7 33.45 7.28
-1 0 -7 36.88 7.54
-1 0 -6 1833.99 71.18
-1 0 -6 1702.15 71
-1 0 -6 1840.54 67.56
-1 0 -6 1795.1 63.07
-1 0 -6 1591.26 68.6
-1 0 -6 1874.7 72.15
-1 0 -6 1842.17 74.05
-1 0 -6 1695.4 71.93
-1 0 -6 1678.29 60.15
-1 0 -6 1864.49 68.63
-1 0 -6 1791.16 68.01
-1 0 -6 1700.65 73.71
-1 0 -6 1894.66 63.49
-1 0 -6 1809.89 63.12
-1 0 -6 1774.08 68.54
-1 0 -5 42.41 6.34
-1 0 -5 42.08 7.1
-1 0 -5 47.83 5.19
-1 0 -5 34.31 6.69
-1 0 -5 47.98 6.86
-1 0 -5 45.33 4.85
-1 0 -5 49.48 5.69
-1 0 -5 57.54 8.16
-1 0 -5 68.98 9.36
-1 0 -5 62.88 7.88
-1 0 -5 43.03 4.73
-1 0 -5 48.47 8.03
-1 0 -5 53.66 7.28
-1 0 -5 62.63 7.75
-1 0 -5 53.43 8.7
-1 0 -5 54.17 6.49
-1 0 -5 58.83 6.54
-1 0 -5 50 8.16
-1 0 -5 66.35 10.41
-1 0 -4 2672.88 40.74
-1 0 -4 2801.08 50.17
-1 0 -4 2798.59 39.04
-1 0 -4 2652.3 51.44
-1 0 -4 2726.23 45.65
-1 0 -4 2681.02 37.56
-1 0 -4 2543.62 47.4
-1 0 -4 2987.35 55.31
-1 0 -4 2653.56 34.9
-1 0 -4 2799.63 47.83
-1 0 -4 2628.42 27.5
-1 0 -4 2530.49 50.61
-1 0 -4 2808.51 44.32
-1 0 -4 1.31 1.81
-1 0 -4 2853.08 53.48
-1 0 -4 3026.53 47.21
-1 0 -4 3254.27 60.15
-1 0 -4 3115.78 44.05
-1 0 -4 63.24 6.22
-1 0 -4 2891.23 52.95
-1 0 -4 3192.08 61.17
-1 0 -3 8.7 2.3
-1 0 -3 4.8 1.81
-1 0 -3 9.64 2.5
-1 0 -3 11.29 2.7
-1 0 -3 7.64 2.55
-1 0 -3 9.22 3.24
-1 0 -3 6.4 2.08
-1 0 -3 15.24 3.12
-1 0 -3 11.9 2.02
-1 0 -3 12.63 3.34
-1 0 -3 7.1 2.42
-1 0 -3 8.95 2.65
-1 0 -3 8.98 2.07
-1 0 -3 4.2 1.42
-1 0 -3 14.47 3.46
-1 0 -3 14.28 3.31
-1 0 -3 13.25 2.9
-1 0 -3 9.87 1.5
-1 0 -3 7.47 2.56
-1 0 -2 6463 191.45
-1 0 -2 6423.09 193.19
-1 0 -2 6993.68 196.91
-1 0 -2 6387.6 208.84
-1 0 -2 6661.69 190.84
-1 0 -2 6855.59 196.12
-1 0 -2 6543.36 194.56
-1 0 -2 6232.64 198.21
-1 0 -2 6774.14 195.56
-1 0 -2 5949.74 195.68
-1 0 -2 6779.24 192.64
-1 0 -2 6164.4 195.24
-1 0 -2 6274.69 194.75
-1 0 -2 6285.96 192.67
-1 0 -2 6430.35 190.42
-1 0 -2 6445.68 194.35
-1 0 -2 6705.73 193.83
-1 0 -2 6288.25 195.05
-1 0 -2 6733.39 191.24
-1 0 -2 6235.6 199.01
-1 0 -2 6342.33 196.96
-1 0 -1 282.4 17.22
-1 0 -1 285.68 15.72
-1 0 -1 284.44 18.82
-1 0 -1 287.72 13.49
-1 0 -1 270.02 13.34
-1 0 -1 283.92 15.17
-1 0 -1 279.77 14.76
-1 0 -1 301.63 13.8
-1 0 -1 288.36 13.11
-1 0 -1 285.79 13.69
-1 0 -1 276.1 15.31
-1 0 -1 303.47 16.45
-1 0 -1 281.02 13.75
-1 0 -1 265.88 10.99
-1 0 -1 264.78 12.15
-1 0 -1 262.78 11.44
-1 0 -1 265.36 13.84
-1 0 -1 267.5 13.59
-1 0 -1 279.29 14
-1 0 0 1382.44 29.47
-1 0 0 1261.92 16.92
-1 0 0 1474.97 36.02
-1 0 0 1397.04 24.84
-1 0 0 1397.18 30.15
-1 0 0 1377.3 18.34
-1 0 0 1376.87 22.73
-1 0 0 1356.8 28.65
-1 0 0 1358.02 25.5
-1 0 0 1352.62 23.79
-1 0 0 1387.93 21.28
-1 0 0 1377.19 22.22
-1 0 0 1391.46 17.81
-1 0 0 1417.45 28.69
-1 0 0 1389.53 28.46
-1 0 0 1447.92 27.13
-1 0 0 1503.15 24.64
-1 0 0 1384.73 18.94
-1 0 0 1459.42 25.57
-1 0 0 1342.99 28.99
-1 0 1 1674.08 51.76
-1 0 1 1634.8 57.5
-1 0 1 1609.96 55.71
-1 0 1 1521.8 53.54
-1 0 1 1463.87 55.1
-1 0 1 1544.69 53.43
-1 0 1 1634.69 55
-1 0 1 1650.03 53.04
-1 0 1 1593.08 50.89
-1 0 1 1647.04 50.59
-1 0 1 1614.32 53.78
-1 0 1 1674.75 54.19
-1 0 1 1480.78 48.57
-1 0 1 1592.04 49.02
-1 0 1 1690.29 56.85
-1 0 1 1339.27 54.23
-1 0 1 1631.67 57.7
-1 0 2 3615.45 107.36
-1 0 2 3546.43 112.28
-1 0 2 3712.65 109.95
-1 0 2 3612.68 107.61
-1 0 2 3297.69 111.31
-1 0 2 3403.46 106.74
-1 0 2 3419.02 106.24
-1 0 2 3516.82 102.09
-1 0 2 3293.62 103.77
-1 0 2 3245.53 107.97
-1 0 2 3276.9 104.84
-1 0 2 3202.26 104.63
-1 0 2 3280.3 108.42
-1 0 2 3463.99 103.22
-1 0 2 3418.18 103.82
-1 0 2 2963.04 111.19
-1 0 2 3266.15 108.35
-1 0 2 3578.99 112.62
-1 0 2 3080.31 109.57
-1 0 3 1719.99 63.92
-1 0 3 1434.21 61.54
-1 0 3 1616.65 60.6
-1 0 3 1556.19 56.17
-1 0 3 1685.53 61.34
-1 0 3 1693.53 57.51
-1 0 3 1551.56 63.88
-1 0 3 1649.27 61.98
-1 0 3 1703.48 56.66
-1 0 3 1646.94 54.58
-1 0 3 1792.43 66.21
-1 0 3 1690.7 64.85
-1 0 3 1596.53 60.39
-1 0 3 1737.28 63.61
-1 0 3 1636.5 56.94
-1 0 3 1791.06 61.78
-1 0 4 1797.62 65.55
-1 0 4 1593.11 68
-1 0 4 1739.61 66.98
-1 0 4 1735.95 64.49
-1 0 4 1673.03 64.67
-1 0 4 1595.08 60.69
-1 0 4 1655.58 66.5
-1 0 4 1828.39 70.76
-1 0 4 1766.26 62.49
-1 0 4 1745.83 67.45
-1 0 4 1716.71 57.63
-1 0 4 1696.42 59
-1 0 4 1843.05 73.02
-1 0 4 1776.5 70.58
-1 0 4 1664.49 57.73
-1 0 4 1670.5 65.28
-1 0 5 919.79 41.43
-1 0 5 844.61 41.2
-1 0 5 919.62 40.82
-1 0 5 1075.91 49.19
-1 0 5 896.48 32.44
-1 0 5 825.03 38.55
-1 0 5 838.94 43.7
-1 0 5 890.72 44.49
-1 0 5 967.13 43.21
-1 0 5 871.88 37.1
-1 0 5 899.49 48.52
-1 0 5 869.41 47.24
-1 0 5 890.49 43.28
-1 0 5 791.57 44.16
-1 0 5 957.26 43.73
-1 0 6 577.77 29.94
-1 0 6 584.23 32.01
-1 0 6 538.46 30.47
-1 0 6 542.14 34.75
-1 0 6 575.47 36.85
-1 0 6 582.75 32.29
-1 0 6 595.34 36.07
-1 0 6 629.03 40.02
-1 0 6 598.82 39.7
-1 0 6 593.66 37.38
-1 0 6 567.18 33.23
-1 0 6 552.26 34.1
-1 0 6 649.72 34.65
-1 0 7 947.74 46.71
-1 0 7 979.98 52.61
-1 0 7 968.72 53.96
-1 0 7 990.96 57.75
-1 0 7 1102.9 59.99
-1 0 7 1079.47 53.3
-1 0 7 1080.01 48.67
-1 0 8 342.28 28.51
-1 0 8 340.47 25.61
-1 0 8 361.98 29.99
-1 0 8 401.02 34.85
-1 0 8 428.9 36.48
-1 0 8 337.37 29.96
-1 0 9 1131.94 60.55
-1 0 9 1117.95 61.8
-1 0 9 1214.94 68.78
-1 0 9 1186.22 68.53
-1 0 9 1055.73 61.63
-1 0 10 39.54 10.9
-1 0 10 59.04 12.76
-1 0 10 59.58 14.83
-1 0 10 49.43 12.33
-1 0 10 43.89 12.47
-1 0 11 476.8 39.3
-1 0 11 474.57 40.43
-1 0 11 536.6 46.56
-1 0 11 511.62 45.64
-1 0 12 37.37 11.35
-1 0 12 42.07 11.8
-1 0 12 31.52 12.43
-1 0 12 19.65 9.44
-1 0 13 359.82 36.75
-1 0 13 444.23 44.59
-1 0 13 379.21 37
-1 1 -14 189.34 29.36
-1 1 -13 151.49 25.26
-1 1 -13 144.17 24.02
-1 1 -13 147.47 24.87
-1 1 -12 257.18 32.05
-1 1 -12 206.66 28.43
-1 1 -12 253.68 31.08
-1 1 -11 503.98 43.75
-1 1 -11 579.22 46.36
-1 1 -10 209.51 25.66
-1 1 -10 208.68 25.39
-1 1 -10 203.7 22
-1 1 -9 810.34 51.75
-1 1 -9 817.51 51.68
-1 1 -9 848.74 47.66
-1 1 -8 12.42 5.22
-1 1 -8 16.88 6.54
-1 1 -8 25.6 8.56
-1 1 -8 13.04 5.88
-1 1 -7 1517.18 61.99
-1 1 -7 1444.49 64.76
-1 1 -7 1678.09 69.89
-1 1 -7 1528.29 64.34
-1 1 -7 1513.33 70.38
-1 1 -7 1530.23 66.81
-1 1 -7 1527.16 64.51
-1 1 -7 1475.06 69.27
-1 1 -6 486.93 26.93
-1 1 -6 451.49 19.97
-1 1 -6 411.39 23.17
-1 1 -6 426.26 25.51
-1 1 -6 405.9 21.1
-1 1 -6 481.33 19.57
-1 1 -6 433.85 18.74
-1 1 -6 349.64 20.1
-1 1 -6 439.94 25.82
-1 1 -6 450.67 23.29
-1 1 -6 402.03 22.36
-1 1 -6 442.39 24.82
-1 1 -6 415.86 22.96
-1 1 -6 449.09 24.2
-1 1 -6 460.67 28.45
-1 1 -6 475.9 21.32
-1 1 -6 385.79 18.46
-1 1 -6 414.49 26.89
-1 1 -5 2512.39 56.31
-1 1 -5 2435.82 37.62
-1 1 -5 2490.65 47.66
-1 1 -5 2536.67 57.68
-1 1 -5 2170.69 43.97
-1 1 -5 2525.19 52.04
-1 1 -5 2374.72 51.26
-1 1 -5 2369.22 51.78
-1 1 -5 2611.94 52.95
-1 1 -5 2366.75 33.39
-1 1 -5 2331.14 49.29
-1 1 -5 2482.89 60
-1 1 -5 2285.5 55.93
-1 1 -5 2386.14 50.69
-1 1 -5 2342.04 55.95
-1 1 -5 2323.83 44.41
-1 1 -5 2405.75 39.04
-1 1 -5 2632.92 45.88
-1 1 -5 2447.46 40.89
-1 1 -5 2505.43 59.1
-1 1 -5 2229.39 40.35
-1 1 -4 41.67 6.84
-1 1 -4 41.52 5.33
-1 1 -4 35.86 4.93
-1 1 -4 41.93 7.08
-1 1 -4 39.71 6.34
-1 1 -4 28.6 5.59
-1 1 -4 29.32 4.96
-1 1 -4 35.83 5.78
-1 1 -4 50.09 6.93
-1 1 -4 38.81 4.17
-1 1 -4 34.37 5.48
-1 1 -4 40 6.96
-1 1 -4 33.23 6.32
-1 1 -4 44.01 5.95
-1 1 -4 36.13 5
-1 1 -4 45.64 7.26
-1 1 -4 50.26 6.78
-1 1 -4 45.66 5.14
-1 1 -4 54.33 5.25
-1 1 -4 39.66 7.09
-1 1 -4 38.01 5.17
-1 1 -3 2215.93 76.82
-1 1 -3 2401.08 80.71
-1 1 -3 2462.58 73.44
-1 1 -3 2274.24 80.25
-1 1 -3 2268.09 76.94
-1 1 -3 2198.71 71.92
-1 1 -3 2422.2 81.04
-1 1 -3 2290.05 79.31
-1 1 -3 2318.95 77.23
-1 1 -3 2274.86 79.1
-1 1 -3 2169.59 69.89
-1 1 -3 2214.53 75.65
-1 1 -3 2481.7 77.32
-1 1 -3 2395.46 72.51
-1 1 -3 2241.52 77.84
-1 1 -3 2383.14 80.51
-1 1 -3 2358.23 75.69
-1 1 -3 2367.16 80.4
-1 1 -3 2193.47 70.69
-1 1 -3 2251.93 80.93
-1 1 -3 2424.75 77.05
-1 1 -2 2081.31 72.34
-1 1 -2 2094.64 72.63
-1 1 -2 2135.71 72.03
-1 1 -2 2235.37 78.07
-1 1 -2 2099.78 69.33
-1 1 -2 2070.69 72.74
-1 1 -2 2086.89 71.7
-1 1 -2 2196.13 72.1
-1 1 -2 2085.69 70.78
-1 1 -2 2092.94 71.28
-1 1 -2 2208.01 72.38
-1 1 -2 2028.24 67.38
-1 1 -2 2007.68 70.43
-1 1 -2 2124.02 70.67
-1 1 -2 2015.08 68.14
-1 1 -2 2106.51 71.88
-1 1 -2 2166.6 66.51
-1 1 -2 2041.21 65.95
-1 1 -2 2123.88 73.61
-1 1 -2 2081.64 72.47
-1 1 -1 5478.01 79.22
-1 1 -1 5712.81 78.4
-1 1 -1 5439.16 72.7
-1 1 -1 5350.7 64.86
-1 1 -1 5642.43 68.53
-1 1 -1 5573.23 70.49
-1 1 -1 5776.33 70.81
-1 1 -1 4982.49 69.24
-1 1 -1 5298.9 69.06
-1 1 -1 5482.97 70.53
-1 1 -1 5676.03 71.49
-1 1 -1 5681.62 63.29
-1 1 -1 5414.45 63.97
-1 1 -1 5544.06 56.77
-1 1 -1 5440.28 64.92
-1 1 -1 5680.05 71.17
-1 1 -1 5694.83 55.83
-1 1 -1 5727.33 65.75
-1 1 -1 5866.64 72.53
-1 1 -1 5415.29 65.26
-1 1 -1 5673.41 78.83
-1 1 -1 5599.01 76.2
-1 1 0 131.32 8.79
-1 1 0 135 7.47
-1 1 0 126.61 9.69
-1 1 0 133.48 9.21
-1 1 0 119.23 9.02
-1 1 0 123.29 9.59
-1 1 0 120.07 9.53
-1 1 0 140.59 12.02
-1 1 0 137.95 7.87
-1 1 0 149.88 11.2
-1 1 0 130.87 9.52
-1 1 0 154.31 7.43
-1 1 0 129.48 10.06
-1 1 0 142.47 8.96
-1 1 0 121.28 7.99
-1 1 0 138.02 10.05
-1 1 0 143.65 12.63
-1 1 0 142.86 12.63
-1 1 1 3891.45 127.79
-1 1 1 3747.49 121.23
-1 1 1 3630.84 118.32
-1 1 1 3952.96 120.33
-1 1 1 3740.31 119.82
-1 1 1 3628.17 119.42
-1 1 1 3987.42 120.97
-1 1 1 3639.94 122.35
-1 1 1 3631.94 120.54
-1 1 1 3953.92 115.55
-1 1 1 4065.38 119.4
-1 1 1 3801.14 124.63
-1 1 1 4048.22 127.76
-1 1 2 617.97 31.18
-1 1 2 500.97 26.04
-1 1 2 463.66 23.94
-1 1 2 510.21 26.58
-1 1 2 519.81 26.24
-1 1 2 518.9 21.84
-1 1 2 551.14 28.36
-1 1 2 535.09 25.48
-1 1 2 520.52 29.94
-1 1 2 509.88 24.07
-1 1 2 557.66 29.72
-1 1 2 499.09 21.32
-1 1 3 1250.55 51.95
-1 1 3 1446.31 58.63
-1 1 3 1426.95 55.26
-1 1 3 1503.73 51.36
-1 1 3 1533.24 60.1
-1 1 3 1535.58 61.28
-1 1 3 1433.53 56.66
-1 1 3 1384.07 58.78
-1 1 3 1248.22 51.85
-1 1 3 1385.36 59.99
-1 1 4 2045 67.57
-1 1 4 1768.3 69.11
-1 1 4 1910.98 77.97
-1 1 4 2017.19 76.9
-1 1 4 1612.8 66.87
-1 1 4 1747.66 75.39
-1 1 4 1832.19 70.76
-1 1 4 2097.99 62.94
-1 1 4 1945.78 77
-1 1 4 2087.85 79.11
-1 1 4 1687.22 67.92
-1 1 4 1761.61 72.14
-1 1 4 1817 74.1
-1 1 5 1547.7 50.08
-1 1 5 1329.51 38.87
-1 1 5 1534.45 54.74
-1 1 5 1445.35 43.64
-1 1 5 1378.92 40.59
-1 1 5 1581.08 53.83
-1 1 5 1542.53 49.52
-1 1 5 1354.96 36.62
-1 1 5 1621.89 57.66
-1 1 5 1467.73 47.94
-1 1 5 1596.77 49.43
-1 1 5 1720.73 39.2
-1 1 5 1667.21 40.16
-1 1 5 1695.39 40.27
-1 1 6 557.79 31.75
-1 1 6 512.46 33.98
-1 1 6 515.25 38.16
-1 1 6 492.18 34.59
-1 1 6 531.31 34.03
-1 1 6 615.13 40.91
-1 1 7 704.6 39.4
-1 1 7 750.22 44.35
-1 1 7 830.2 51.86
-1 1 7 674 46.39
-1 1 7 687.74 44.18
-1 1 7 838.57 51.6
-1 1 8 890.75 47.12
-1 1 8 949.77 59.11
-1 1 8 882.6 56.3
-1 1 8 842.27 50.54
-1 1 8 970.73 59.55
-1 1 8 798.96 50.55
-1 1 9 220.58 27.73
-1 1 9 213.48 27.1
-1 1 9 202.27 23.33
-1 1 9 239.69 29.08
-1 1 9 181.69 22.83
-1 1 10 490.32 39.21
-1 1 10 481.33 43.31
-1 1 10 540.22 45.97
-1 1 10 444.77 38.46
-1 1 11 79.1 16.2
-1 1 11 94.76 19.3
-1 1 11 89.18 19.26
-1 1 12 533.31 48.82
-1 1 12 583.97 50.46
-1 1 12 475.78 42.17
-1 1 13 22.37 8.75
-1 1 13 18.83 9.68
-1 2 -13 353.02 38.63
-1 2 -13 362 39.49
-1 2 -12 426.81 41.8
-1 2 -12 557.22 47.38
-1 2 -11 66.93 15.43
-1 2 -11 93.6 18.36
-1 2 -10 264.69 29.34
-1 2 -10 249.31 28.43
-1 2 -10 233.67 24.68
-1 2 -9 542.97 34.06
-1 2 -9 658.54 37.48
-1 2 -9 605.88 40.83
-1 2 -9 678.28 43.34
-1 2 -8 779.7 39.15
-1 2 -8 847.87 40.38
-1 2 -8 892.46 46.98
-1 2 -8 874.4 46.5
-1 2 -7 257.39 21.72
-1 2 -7 253.99 20.99
-1 2 -7 227.52 22.31
-1 2 -7 251.59 23.75
-1 2 -7 254.05 22.57
-1 2 -7 266.23 19.78
-1 2 -6 2574.38 91.89
-1 2 -6 2840.42 96.08
-1 2 -6 2661.34 95.35
-1 2 -6 2706.51 98.14
-1 2 -6 2742.74 92.43
-1 2 -6 2571.31 99.78
-1 2 -6 2832.6 97.41
-1 2 -6 2656.69 93.46
-1 2 -6 2730.48 100.38
-1 2 -6 2367.24 91.36
-1 2 -6 2820.69 93.75
-1 2 -5 47.02 8.49
-1 2 -5 38.02 7.3
-1 2 -5 47.08 7.89
-1 2 -5 52.88 7.35
-1 2 -5 53.53 8.03
-1 2 -5 48.36 8.56
-1 2 -5 42.13 6.01
-1 2 -5 55.64 8.82
-1 2 -5 44.92 7.47
-1 2 -5 33.58 7.87
-1 2 -5 37.17 7.9
-1 2 -5 33.78 6.08
-1 2 -5 49.45 8.09
-1 2 -5 33.58 7.35
-1 2 -5 45.41 8.49
-1 2 -5 47.32 7.45
-1 2 -5 35.58 5.6
-1 2 -5 43.34 6.85
-1 2 -5 44.93 8.87
-1 2 -4 1775.8 67.22
-1 2 -4 1617.55 64.61
-1 2 -4 1678.18 62.39
-1 2 -4 1603.96 64.41
-1 2 -4 1653.92 57.65
-1 2 -4 1675.05 65.94
-1 2 -4 1756.66 60.95
-1 2 -4 1703.21 66.71
-1 2 -4 1628.39 69
-1 2 -4 1623.19 67.73
-1 2 -4 1641.55 63.16
-1 2 -4 1658.59 64.47
-1 2 -4 1593.32 60.44
-1 2 -4 1711.89 68.02
-1 2 -4 1664.22 67.33
-1 2 -4 1692.87 65.03
-1 2 -4 1697.32 67.33
-1 2 -4 1747.43 69.76
-1 2 -3 714.53 34.06
-1 2 -3 629.93 30.63
-1 2 -3 570.43 27.32
-1 2 -3 648.03 33.58
-1 2 -3 648.01 32.77
-1 2 -3 656.93 33.73
-1 2 -3 618.64 31.34
-1 2 -3 611.69 31.06
-1 2 -3 616.69 30.46
-1 2 -3 627.28 31.56
-1 2 -3 586.65 29.27
-1 2 -3 574.9 27.61
-1 2 -3 548.06 27.95
-1 2 -3 620.27 32.42
-1 2 -3 565.21 30.86
-1 2 -3 628.64 33.27
-1 2 -3 614.96 30.03
-1 2 -3 647.3 22.96
-1 2 -3 652.41 34.32
-1 2 -2 1767.07 67.28
-1 2 -2 1731.7 59.84
-1 2 -2 1643.54 60.77
-1 2 -2 1629.51 61.92
-1 2 -2 1596.03 65.35
-1 2 -2 1640.69 59.36
-1 2 -2 1604.32 63.09
-1 2 -2 1677.77 63.05
-1 2 -2 1701.14 62.86
-1 2 -2 1679.14 62.26
-1 2 -2 1577.5 61.73
-1 2 -2 1816.26 65.67
-1 2 -2 1740.54 62.82
-1 2 -2 1696.3 59.53
-1 2 -2 1733.26 65.42
-1 2 -2 1699.86 62.96
-1 2 -2 1703.1 59.82
-1 2 -2 1674.65 65.62
-1 2 -1 11.76 4.07
-1 2 -1 21.84 4.99
-1 2 -1 14.48 3.5
-1 2 -1 34.45 5.68
-1 2 -1 17.79 4.1
-1 2 -1 39.46 6.09
-1 2 -1 17.09 4.45
-1 2 -1 14.61 4.5
-1 2 -1 15.73 3.57
-1 2 -1 16.27 4.19
-1 2 -1 12.34 3.79
-1 2 -1 15.04 1.88
-1 2 -1 14.31 2.89
-1 2 -1 13.7 3.26
-1 2 -1 13.69 3.75
-1 2 -1 21.31 4.9
-1 2 -1 18.73 5.28
-1 2 -1 16.04 4.45
-1 2 0 4627.56 144.15
-1 2 0 4636.71 142
-1 2 0 4354.12 133.39
-1 2 0 4269.12 141.75
-1 2 0 4861.48 139.07
-1 2 0 4720.9 149.72
-1 2 0 4265.3 138.19
-1 2 0 4449.51 143.89
-1 2 0 4664.85 146.08
-1 2 0 4691.89 146.95
-1 2 0 4462.94 143.44
-1 2 0 4419.66 143.2
-1 2 0 4130.57 141.97
-1 2 0 4506.82 150.73
-1 2 0 4525.53 150.67
-1 2 1 798.74 35.07
-1 2 1 807.67 41.75
-1 2 1 798.02 33.99
-1 2 1 755.85 35.76
-1 2 1 710.5 36.91
-1 2 1 682.92 29.03
-1 2 1 797.6 37.89
-1 2 1 778.05 35.48
-1 2 1 764.68 34.29
-1 2 1 767.57 36.71
-1 2 1 802.46 40.75
-1 2 1 721.9 40.46
-1 2 1 816.25 35.92
-1 2 2 2490.05 89.81
-1 2 2 2444.24 89.54
-1 2 2 2435.85 87.59
-1 2 2 2710.61 92.32
-1 2 2 2810.49 102.52
-1 2 2 2690.96 96.51
-1 2 2 2455.11 82.03
-1 2 2 2408.49 90.37
-1 2 2 2810.53 96.31
-1 2 2 2729.25 98.81
-1 2 2 2578.73 93.48
-1 2 2 2848.69 94.23
-1 2 2 2562.92 98.87
-1 2 3 418.7 17.06
-1 2 3 509.3 31.65
-1 2 3 402.44 27.16
-1 2 3 406.18 24.94
-1 2 3 486.92 29.31
-1 2 3 441.54 26.52
-1 2 3 458.73 32.9
-1 2 3 439.23 20.65
-1 2 3 431.07 28.82
-1 2 3 483.59 32.07
-1 2 3 400.04 20.23
-1 2 3 435.65 26.02
-1 2 3 410.21 28.97
-1 2 3 452.03 17.48
-1 2 4 556.66 31.25
-1 2 4 616.41 38.1
-1 2 4 602.74 33.19
-1 2 4 602.6 36.8
-1 2 4 572.09 36.04
-1 2 4 598.35 33.16
-1 2 4 630.02 36.35
-1 2 4 685.7 38.61
-1 2 4 696.08 40.25
-1 2 4 543.27 24.08
-1 2 5 102.6 15.23
-1 2 5 144.15 15.13
-1 2 5 118.05 13.79
-1 2 5 151.49 17.07
-1 2 5 133.25 16.15
-1 2 5 114.31 13.21
-1 2 5 113.39 15.56
-1 2 6 1731.56 75.52
-1 2 6 1824.08 81.1
-1 2 6 1827.08 84.64
-1 2 7 726.84 36.77
-1 2 7 800.32 42.53
-1 2 7 805.54 46.74
-1 2 8 383 29.85
-1 2 8 449.95 39.14
-1 2 8 338.46 31.41
-1 2 8 360.05 32.22
-1 2 8 416.13 37.14
-1 2 9 836.57 50.64
-1 2 9 871.02 55.71
-1 2 9 984.87 63.61
-1 2 9 968.44 58.35
-1 2 9 1103.09 67.09
-1 2 10 89 18.82
-1 2 10 76.66 15.55
-1 2 10 118.21 21.15
-1 2 10 100.64 17.77
-1 2 10 118.16 21.2
-1 2 11 128.02 22.9
-1 2 11 140.08 23.9
-1 2 11 126.79 20.85
-1 2 11 163.81 26.03
-1 2 12 243.41 29.95
-1 2 12 267.16 34.2
-1 2 12 238.64 32.46
-1 3 -12 258.04 32.45
-1 3 -12 325.88 36.74
-1 3 -11 387.67 39.12
-1 3 -11 450.95 42.31
-1 3 -10 254.89 29.72
-1 3 -10 285.2 31.54
-1 3 -10 227.65 25.22
-1 3 -9 269.44 26.22
-1 3 -9 287.38 30.26
-1 3 -9 203.53 25.75
-1 3 -9 250.47 26.82
-1 3 -9 272.96 26.95
-1 3 -8 464.35 34.8
-1 3 -8 477.49 38.6
-1 3 -8 456.33 36.1
-1 3 -8 430.6 36.51
-1 3 -8 529.82 37.41
-1 3 -7 973.4 53.47
-1 3 -7 1074.22 58.94
-1 3 -7 955.24 54.99
-1 3 -7 975.1 56.95
-1 3 -7 1065.33 55.3
-1 3 -6 195.16 20.1
-1 3 -6 198.78 21.62
-1 3 -6 176 20.8
-1 3 -6 167.52 19.46
-1 3 -6 174.75 19.16
-1 3 -5 1471.01 68.28
-1 3 -5 1465.13 70.53
-1 3 -5 1425.81 68.26
-1 3 -5 1741.64 66.97
-1 3 -5 1658.06 72.4
-1 3 -5 1529.51 68.78
-1 3 -5 1447.75 69.13
-1 3 -5 1559.48 61.58
-1 3 -4 67.93 10.29
-1 3 -4 84.04 10.35
-1 3 -4 75.41 10.27
-1 3 -4 91.44 10.52
-1 3 -4 76.19 11.65
-1 3 -4 82.99 12.28
-1 3 -4 85.74 10.66
-1 3 -4 80.01 11.62
-1 3 -4 121.99 13.15
-1 3 -4 92.55 10.96
-1 3 -4 90.67 13.52
-1 3 -4 84.7 12.45
-1 3 -4 94.19 11.84
-1 3 -4 85.18 10.21
-1 3 -4 89.2 12.71
-1 3 -4 88.86 12.12
-1 3 -4 105.72 14.21
-1 3 -3 1684.66 71.21
-1 3 -3 1749.09 62.03
-1 3 -3 1531.44 66.28
-1 3 -3 1718.28 66.02
-1 3 -3 1614.28 66.07
-1 3 -3 1703 67.74
-1 3 -3 1719.13 67.08
-1 3 -3 1715.38 72.33
-1 3 -3 1731.59 67.43
-1 3 -3 1750.05 65.61
-1 3 -3 1766.37 68.83
-1 3 -3 1809.78 73.05
-1 3 -3 1753.48 68.52
-1 3 -3 1646.07 70.93
-1 3 -3 1594.25 68.66
-1 3 -3 1639.21 64.65
-1 3 -3 1701.32 72.13
-1 3 -2 144.54 15.8
-1 3 -2 101.82 10.01
-1 3 -2 112.16 12.54
-1 3 -2 120.73 14.17
-1 3 -2 100 10.2
-1 3 -2 95.18 11.37
-1 3 -2 136.37 13.25
-1 3 -2 113.37 12.52
-1 3 -2 103.23 12.51
-1 3 -2 101.92 13.49
-1 3 -2 124.51 13.47
-1 3 -2 126.76 12.15
-1 3 -2 117.28 14.04
-1 3 -2 123.73 13.11
-1 3 -2 133.21 14.76
-1 3 -2 130.38 14.73
-1 3 -2 125.85 12.4
-1 3 -1 2385.07 88.41
-1 3 -1 2496.3 91.38
-1 3 -1 2421.23 78.08
-1 3 -1 2372.53 84.49
-1 3 -1 2298.4 86.65
-1 3 -1 2369.97 87.5
-1 3 -1 2491.31 88.23
-1 3 -1 2445.49 83.9
-1 3 -1 2425.48 92.84
-1 3 -1 2309.78 93.28
-1 3 -1 2399.47 89.73
-1 3 -1 2531.07 86.69
-1 3 -1 2534.2 92.89
-1 3 -1 2665.8 96.45
-1 3 -1 2252.32 85.05
-1 3 -1 2325.83 90.39
-1 3 0 48.39 7.92
-1 3 0 45.32 7.67
-1 3 0 44.91 7.72
-1 3 0 53.85 7.49
-1 3 0 47.05 9.46
-1 3 0 43.43 6.62
-1 3 0 37.47 7.75
-1 3 0 41.9 8.26
-1 3 0 38.12 6.98
-1 3 0 49 8.38
-1 3 0 47.57 9.45
-1 3 0 45.14 7.28
-1 3 0 45.53 9.76
-1 3 1 1565.16 65.78
-1 3 1 1590.65 65.38
-1 3 1 1716.93 65.58
-1 3 1 1711.21 75.73
-1 3 1 1560.01 60.8
-1 3 1 1852.33 71.88
-1 3 1 1575.96 68.68
-1 3 1 1793.4 71.91
-1 3 1 1622.96 66.41
-1 3 1 1718.87 68.37
-1 3 1 1626.03 70.05
-1 3 1 2001.16 77.36
-1 3 1 1734.58 65.95
-1 3 1 1807.36 77.77
-1 3 2 19.87 5.54
-1 3 2 22.36 7.04
-1 3 2 17.24 3.91
-1 3 2 9.62 3.96
-1 3 2 18.97 5.8
-1 3 2 10.44 4.63
-1 3 2 20.09 5.97
-1 3 2 14.97 5.57
-1 3 2 19.23 5.33
-1 3 2 25.87 5.83
-1 3 2 30.06 6.63
-1 3 2 9.63 4.71
-1 3 2 17.02 5.28
-1 3 2 13.93 4.66
-1 3 3 1966.54 79.61
-1 3 3 1940.8 87.92
-1 3 3 1997.49 79.62
-1 3 3 1858.76 68.52
-1 3 3 1921.07 78.72
-1 3 3 1960.47 86.34
-1 3 3 1885.35 75.56
-1 3 3 1791.16 73.13
-1 3 3 1979.42 81.56
-1 3 3 2106.54 85.03
-1 3 4 264.9 22.83
-1 3 4 268.65 26.59
-1 3 4 230.67 22.5
-1 3 4 279.05 27.95
-1 3 4 283.32 25.02
-1 3 5 981.02 52.2
-1 3 5 1064.53 58.42
-1 3 5 1091.41 57.2
-1 3 5 994.76 55.02
-1 3 6 416.3 31.51
-1 3 6 475.21 36.46
-1 3 6 428.86 34.32
-1 3 6 441.45 35.67
-1 3 7 707.41 47.67
-1 3 7 808.08 51.9
-1 3 7 709.86 44.7
-1 3 8 177.8 23.37
-1 3 8 142.96 19.06
-1 3 8 211.99 26.19
-1 3 9 340.98 29.22
-1 3 9 340.21 35.58
-1 3 9 301.28 30.62
-1 3 9 343.54 34.7
-1 3 10 383.73 40.65
-1 3 10 417.3 38.17
-1 3 10 320.36 33.33
-1 3 10 395.61 39.88
-1 3 11 68.87 17.29
-1 3 11 111.58 20.02
-1 3 11 105.98 21.54
-1 3 11 116.44 22.12
-1 3 12 375.52 41.58
-1 3 12 362.17 40.6
-1 3 12 313.01 35.09
-1 4 -12 48.02 14.3
-1 4 -11 128.43 23.02
-1 4 -11 118.06 21.63
-1 4 -10 222.89 29.03
-1 4 -10 199.25 27.37
-1 4 -10 202.13 25.95
-1 4 -9 575.7 46.2
-1 4 -9 523.9 42.11
-1 4 -9 549.67 44.94
-1 4 -9 570.44 43.3
-1 4 -9 511.2 39.84
-1 4 -8 604.65 44.89
-1 4 -8 590.61 46.4
-1 4 -8 693.2 48.97
-1 4 -8 652.69 45.89
-1 4 -8 622.63 43.42
-1 4 -7 376.41 33.15
-1 4 -7 417.1 35.91
-1 4 -7 371.47 31.92
-1 4 -7 378.79 34.24
-1 4 -7 403.8 34.19
-1 4 -6 532.68 40.62
-1 4 -6 535.72 39.31
-1 4 -6 442.91 36.56
-1 4 -6 560.51 39.04
-1 4 -6 556 40.5
-1 4 -6 644.93 42.43
-1 4 -5 70.77 13.56
-1 4 -5 77.31 13.67
-1 4 -5 73.34 13.16
-1 4 -5 71.05 12.83
-1 4 -5 86.24 14.58
-1 4 -5 92.5 14.93
-1 4 -4 845.76 49.37
-1 4 -4 838.67 47.74
-1 4 -4 864.95 49.14
-1 4 -4 829.36 48.96
-1 4 -4 930.48 52.15
-1 4 -3 355.52 29.97
-1 4 -3 314.21 27.52
-1 4 -3 293.9 24.71
-1 4 -3 344.03 28.18
-1 4 -3 406.66 30.23
-1 4 -3 375.04 29.42
-1 4 -3 331.2 26.36
-1 4 -2 1617.25 76.6
-1 4 -2 1751.57 75.47
-1 4 -2 1771.68 69.23
-1 4 -2 1751.37 75.19
-1 4 -2 1697.56 75.01
-1 4 -2 1679.25 69.46
-1 4 -2 1682.43 74.36
-1 4 -2 1524.99 68.89
-1 4 -1 26.19 7.55
-1 4 -1 13.51 4.35
-1 4 -1 8.08 4.26
-1 4 -1 15.8 5.04
-1 4 -1 13.33 5.78
-1 4 -1 17.09 5.19
-1 4 -1 22.35 7.22
-1 4 0 1551.17 74.7
-1 4 0 1656.18 65.19
-1 4 0 1617.91 72.56
-1 4 0 1534.35 71.05
-1 4 0 1399.1 62.46
-1 4 0 1642.9 64.37
-1 4 0 1600.8 77.51
-1 4 0 1637.46 67
-1 4 1 1.39 1.81
-1 4 1 2.63 2.55
-1 4 1 1.43 1.86
-1 4 1 1.37 2.52
-1 4 1 0.82 1.06
-1 4 2 1136.41 58.95
-1 4 2 1218.67 66.29
-1 4 2 1176.09 65.58
-1 4 2 1207.18 56.66
-1 4 2 1290.96 62.94
-1 4 3 21.27 6.89
-1 4 3 19.64 7.63
-1 4 3 21.95 6.68
-1 4 3 30.5 9.58
-1 4 3 32.28 8.9
-1 4 4 1128.32 57.53
-1 4 4 1089.04 62.51
-1 4 4 866.5 55.68
-1 4 4 1041.09 55.61
-1 4 4 959.97 62.09
-1 4 4 1154.09 60.62
-1 4 5 92.29 14.97
-1 4 5 85.92 16.23
-1 4 5 90.34 15.09
-1 4 5 108.35 19.42
-1 4 5 108.77 17.18
-1 4 6 923.87 54.61
-1 4 6 1015.87 60.92
-1 4 6 965.91 58.42
-1 4 6 933.72 56.83
-1 4 7 173.66 23.59
-1 4 7 193.46 24.42
-1 4 7 165.33 21.32
-1 4 8 415.71 38.27
-1 4 8 438.83 39.4
-1 4 8 415.13 35.84
-1 4 9 176.15 25.64
-1 4 9 172.72 25
-1 4 10 195.3 27.24
-1 4 10 228.99 30.31
-1 4 10 187.73 28.63
-1 4 11 166.97 25.69
-1 4 11 177.91 28.49
-1 4 11 156.27 25.71
-1 5 -10 224.15 28.64
-1 5 -10 287.11 34.1
-1 5 -9 175.07 25.64
-1 5 -9 141.13 23.51
-1 5 -9 136.35 22.14
-1 5 -8 154.67 21.78
-1 5 -8 186.11 25.29
-1 5 -8 180.51 25
-1 5 -8 198.23 26.78
-1 5 -8 157.23 22.97
-1 5 -7 384.28 35.33
-1 5 -7 355.73 35.27
-1 5 -7 398.8 36.48
-1 5 -7 395.42 34.59
-1 5 -7 378.69 35.42
-1 5 -7 309.26 31.76
-1 5 -6 376.31 35.86
-1 5 -6 394.35 35.13
-1 5 -6 373.39 34.92
-1 5 -6 364.31 33
-1 5 -6 408.94 35.91
-1 5 -6 372.29 33.45
-1 5 -5 339.54 33.34
-1 5 -5 386.09 34.04
-1 5 -5 444.33 37.08
-1 5 -5 306.76 30.3
-1 5 -5 385.72 33.89
-1 5 -5 381.72 32.28
-1 5 -4 443.45 36.36
-1 5 -4 423.84 36.99
-1 5 -4 461.82 36.55
-1 5 -4 514.49 38.09
-1 5 -4 445.74 34.37
-1 5 -3 1335.22 69.23
-1 5 -3 1366.13 72.36
-1 5 -3 1397.01 69.97
-1 5 -3 1259.46 66.35
-1 5 -3 1300.18 64.73
-1 5 -2 33.88 9.4
-1 5 -2 41.41 10.95
-1 5 -2 55.51 12.13
-1 5 -2 28.15 7.76
-1 5 -2 29.14 8.48
-1 5 -1 564.65 40.73
-1 5 -1 542.97 39.55
-1 5 -1 504.84 39.85
-1 5 -1 495.85 37.58
-1 5 -1 583.09 44.2
-1 5 -1 465.93 32.68
-1 5 0 11.79 6.19
-1 5 0 3.03 2.79
-1 5 0 9.99 5.24
-1 5 1 665.79 45.03
-1 5 1 718.39 49.95
-1 5 1 732.69 51.71
-1 5 2 124.7 18.06
-1 5 2 116.47 19.31
-1 5 2 110.63 19.21
-1 5 3 2059.64 95.07
-1 5 3 2193.77 103.8
-1 5 3 2184.95 104.95
-1 5 3 2172.68 98.41
-1 5 4 80.61 15.16
-1 5 4 57.71 14.21
-1 5 4 95.4 18.69
-1 5 4 71.73 14.81
-1 5 5 187.98 23.52
-1 5 5 188.71 25.74
-1 5 5 187.06 26.96
-1 5 5 186.5 24.62
-1 5 6 60.71 13.59
-1 5 6 76.1 16.29
-1 5 6 75.57 17.39
-1 5 6 68.45 15.28
-1 5 7 453.05 40.96
-1 5 7 442.33 38.51
-1 5 8 33.67 11.55
-1 5 8 41.2 11.84
-1 5 9 675.81 53.66
-1 6 -9 242.23 30.38
-1 6 -8 121.15 21.18
-1 6 -8 91.46 19.14
-1 6 -8 108.51 20.61
-1 6 -8 83.14 16.64
-1 6 -7 287.09 30.97
-1 6 -7 295.14 33.66
-1 6 -7 294.89 33.81
-1 6 -7 224.5 28.53
-1 6 -7 274.55 30.8
-1 6 -6 212.51 26.71
-1 6 -6 288.14 32.54
-1 6 -6 262.97 31.74
-1 6 -6 247.9 29.42
-1 6 -6 238.31 27.46
-1 6 -5 295.54 30.68
-1 6 -5 285 32.11
-1 6 -5 264 31.5
-1 6 -5 233.15 28.22
-1 6 -5 206.29 25.26
-1 6 -4 258.48 29.07
-1 6 -4 287.07 31.71
-1 6 -4 261.88 29.35
-1 6 -4 251.13 26.5
-1 6 -3 96.47 17.49
-1 6 -3 148.75 22.76
-1 6 -3 135.4 20.56
-1 6 -2 767.97 51.37
-1 6 -2 725.79 52.73
-1 6 -2 717.64 53.59
-1 6 -2 680.81 49.46
-1 6 -1 138.11 21.01
-1 6 -1 146.43 22.25
-1 6 -1 121.78 19.29
-1 6 -1 185.71 26.04
-1 6 -1 128.46 20.48
-1 6 0 626.2 49.32
-1 6 0 548.61 44.6
-1 6 0 525.31 42.79
-1 6 1 39.62 12.4
-1 6 1 52.13 13.52
-1 6 1 43.33 11.76
-1 6 2 337.8 33.35
-1 6 2 371.36 37.73
-1 6 2 358.28 37.41
-1 6 3 2.02 6.44
-1 6 3 -2.07 2.69
-1 6 4 796.95 54.96
-1 6 4 905.14 62.39
-1 6 4 756.34 59.37
-1 6 4 876.75 58.96
-1 6 5 1.79 2.32
-1 6 5 4.12 3.78
-1 6 5 2.26 2.94
-1 6 5 3.91 4.4
-1 6 6 365.45 36.23
-1 6 6 381.19 39.44
-1 6 6 336.77 36.65
-1 6 6 378.65 41.6
-1 6 7 4.2 4.73
-1 6 7 1.87 4.85
-1 6 8 188.84 28.16
-1 6 8 196.39 27
-1 7 -7 52.14 14.26
-1 7 -6 251 30.8
-1 7 -6 297.12 35.2
-1 7 -6 233.92 30.42
-1 7 -6 281.51 35.04
-1 7 -5 182.1 25.7
-1 7 -5 157.14 25.29
-1 7 -5 157.52 25.72
-1 7 -5 166 25.19
-1 7 -4 192.84 26.51
-1 7 -4 186.59 27.57
-1 7 -4 205.31 28.87
-1 7 -4 219.52 28.77
-1 7 -3 298.7 32.58
-1 7 -3 293.6 34.47
-1 7 -3 244.5 31.86
-1 7 -3 261.23 31.24
-1 7 -2 102.54 19.11
-1 7 -2 97.54 19.6
-1 7 -2 88.96 17.94
-1 7 -2 78.14 17.79
-1 7 -1 221.96 28.6
-1 7 -1 258.33 32.89
-1 7 -1 247.09 30.46
-1 7 0 93.03 18.49
-1 7 0 114.97 22.41
-1 7 0 97.23 19.31
-1 7 0 92.09 18.38
-1 7 1 465.21 45.22
-1 7 1 410.7 41.54
-1 7 1 446.05 42.13
-1 7 2 76.26 17.83
-1 7 2 58.7 15.84
-1 7 2 77.16 17.2
-1 7 3 284.63 32.97
-1 7 3 347.8 39.48
-1 7 3 362.44 39.44
-1 7 4 -1.98 3.64
-1 7 4 2.36 3.06
-1 7 4 2.26 2.94
-1 7 5 222.92 29.57
-1 7 5 288.21 36.73
-1 7 5 260.63 33.81
-1 7 6 -2.03 3.73
-1 7 6 2.26 2.93
0 -8 -4 141.58 25.59
0 -8 -3 175.72 27.79
0 -8 -3 122.98 25.17
0 -8 -2 109.53 22.91
0 -8 -2 123.29 24.65
0 -8 -2 156.74 27.08
0 -8 -1 116.27 22.89
0 -8 -1 94.05 20.77
0 -8 -1 123.55 23.95
0 -8 0 72.21 17.72
0 -8 0 57.36 17.08
0 -8 0 54.41 16.05
0 -8 1 347.86 40.51
0 -8 1 379.65 40.87
0 -8 1 392.53 41.72
0 -8 2 62.41 16.14
0 -8 2 58.07 16.04
0 -8 2 54.31 15.64
0 -7 -7 236.18 34.38
0 -7 -7 279.09 36.45
0 -7 -7 241.34 35.38
0 -7 -6 42.88 13.52
0 -7 -6 42.61 14.95
0 -7 -6 25.96 11.22
0 -7 -5 198.84 31.58
0 -7 -5 254.54 34.75
0 -7 -5 236.36 31.9
0 -7 -4 110.68 21.28
0 -7 -4 93.41 21.06
0 -7 -4 96.35 21.4
0 -7 -3 313.31 37.69
0 -7 -3 280.88 35.65
0 -7 -3 317.09 37.48
0 -7 -3 319.72 35.92
0 -7 -2 270.98 34.25
0 -7 -2 251.42 33.75
0 -7 -2 270.87 32.2
0 -7 -2 296.2 35.44
0 -7 -1 258.52 32.45
0 -7 -1 261.15 33.37
0 -7 -1 282.61 34.85
0 -7 -1 295.3 34.71
0 -7 0 248.4 31.23
0 -7 0 251.05 31.64
0 -7 0 251.26 31.93
0 -7 0 242.01 31.46
0 -7 1 134.69 22.83
0 -7 1 142.45 23.47
0 -7 1 194.3 27.25
0 -7 1 170.44 25.99
0 -7 2 270.61 32.18
0 -7 2 307.53 32.78
0 -7 2 301.34 33.85
0 -7 2 320.89 34.59
0 -7 2 287.17 33.7
0 -7 3 51.9 13.5
0 -7 3 40.35 11.98
0 -7 3 39.49 12.09
0 -7 3 43.76 12.37
0 -7 3 59.15 15.04
0 -7 4 574.49 48.01
0 -7 4 659.34 50.14
0 -7 4 690.95 51.99
0 -7 4 561.41 48.62
0 -7 5 60.15 15.58
0 -7 5 34.84 11.66
0 -7 5 44.75 12.94
0 -7 6 247.67 30.6
0 -7 6 267.86 32.56
0 -7 6 287.57 33.61
0 -7 7 15.82 7.71
0 -6 -9 5.14 6.67
0 -6 -9 2.64 4.85
0 -6 -8 172.26 28.83
0 -6 -8 220.3 32.59
0 -6 -8 220.26 32.6
0 -6 -7 9.32 6.77
0 -6 -7 2.46 6.4
0 -6 -7 2.32 6.74
0 -6 -6 947.44 68.81
0 -6 -6 948.83 66.28
0 -6 -6 927.63 67.76
0 -6 -5 243.78 30.73
0 -6 -5 220.48 30.7
0 -6 -5 187.01 28.37
0 -6 -4 217.62 29.72
0 -6 -4 253.44 30.6
0 -6 -4 247.97 31.87
0 -6 -3 194.27 27.25
0 -6 -3 200.31 26.18
0 -6 -3 193.65 27.44
0 -6 -2 427.97 40.35
0 -6 -2 436.69 38.54
0 -6 -2 395.78 39.32
0 -6 -2 450.66 41.49
0 -6 -1 90.25 18.2
0 -6 -1 153.57 21.48
0 -6 -1 116.2 20.31
0 -6 -1 113.44 20.04
0 -6 0 840.31 56.27
0 -6 0 759.82 54.07
0 -6 0 920.62 50.92
0 -6 0 848.29 57.19
0 -6 0 771.37 54.8
0 -6 1 815.48 54.37
0 -6 1 803.93 51.77
0 -6 1 666.74 49.95
0 -6 1 793.59 46.89
0 -6 1 682.34 51.39
0 -6 1 771.1 52.62
0 -6 2 134.7 20.63
0 -6 2 168.85 22.3
0 -6 2 169.83 23.24
0 -6 2 154.57 21.78
0 -6 2 161.4 23.21
0 -6 3 514.01 42.25
0 -6 3 603.37 43.97
0 -6 3 594.54 44.89
0 -6 3 545.8 42.01
0 -6 3 512.87 43.57
0 -6 4 87.64 16.77
0 -6 4 106.31 18.65
0 -6 4 93.32 17.16
0 -6 4 114.7 19.65
0 -6 4 104.73 17.28
0 -6 5 403.81 37.74
0 -6 5 405.01 37.53
0 -6 5 393.69 37.84
0 -6 6 88.01 17.55
0 -6 6 87.46 17.07
0 -6 6 117.05 18.97
0 -6 6 102.14 18.4
0 -6 7 478.32 42.01
0 -6 7 546.33 45.85
0 -6 7 508.42 43.54
0 -6 8 40.76 12.08
0 -6 8 36.61 11.86
0 -6 8 38.27 11.7
0 -6 9 462.68 42.22
0 -6 9 500.76 44.21
0 -6 9 526.74 47.07
0 -5 -11 373.44 43.78
0 -5 -10 22.76 10.4
0 -5 -10 16.42 10.07
0 -5 -10 27.69 11.34
0 -5 -9 410.65 45.21
0 -5 -9 325.6 38.95
0 -5 -9 307.64 38.73
0 -5 -8 2.11 6.13
0 -5 -8 2.27 2.95
0 -5 -8 2.5 5.61
0 -5 -8 11.61 7.39
0 -5 -7 400.91 40.53
0 -5 -7 440.46 44.68
0 -5 -7 446.39 43.86
0 -5 -7 450.91 43.16
0 -5 -6 47.8 13.24
0 -5 -6 43.78 12.97
0 -5 -6 37.75 12.24
0 -5 -5 1192.65 74.06
0 -5 -5 1258.07 75.69
0 -5 -5 1318.71 74.54
0 -5 -4 20.33 8.25
0 -5 -4 29.26 10.09
0 -5 -4 16.29 5.94
0 -5 -4 20.32 8.99
0 -5 -3 618.72 47.37
0 -5 -3 569.28 35.68
0 -5 -3 602.22 46.12
0 -5 -3 613.43 44.52
0 -5 -2 170.14 23.14
0 -5 -2 216.01 20.29
0 -5 -2 203.02 25.01
0 -5 -2 236.34 25.38
0 -5 -1 803.29 52.22
0 -5 -1 906.97 52.27
0 -5 -1 831.6 46.3
0 -5 -1 811.91 52.63
0 -5 -1 742.88 51.35
0 -5 0 852.48 49.73
0 -5 0 788.18 50.12
0 -5 0 689.34 47.14
0 -5 0 810.45 44.52
0 -5 0 742.14 49.54
0 -5 0 748.53 49.67
0 -5 1 842.21 51.37
0 -5 1 825.17 49.07
0 -5 1 727.2 48.64
0 -5 1 888.25 46.18
0 -5 1 773.03 49.75
0 -5 1 851.1 52.63
0 -5 2 394.19 33.09
0 -5 2 385.52 31.69
0 -5 2 336.65 31.01
0 -5 2 430.85 29.79
0 -5 2 390.85 32.25
0 -5 2 394.2 33.97
0 -5 3 402.38 33.5
0 -5 3 412.49 33.81
0 -5 3 388.87 33.48
0 -5 3 445.25 33.48
0 -5 3 374.52 31.2
0 -5 3 387.86 33.69
0 -5 4 605.63 42.86
0 -5 4 630.5 43.74
0 -5 4 568.34 42.05
0 -5 4 633.9 42.24
0 -5 4 578.06 42.64
0 -5 4 681.55 42.49
0 -5 5 388.68 34.35
0 -5 5 368.24 32.93
0 -5 5 455.18 34.75
0 -5 5 374.53 30.39
0 -5 5 332.62 32.02
0 -5 6 983.37 59.06
0 -5 6 781.75 52.8
0 -5 6 1017.17 57.11
0 -5 6 849.18 55.14
0 -5 7 24.03 8.35
0 -5 7 22.92 8.53
0 -5 7 34.5 10.53
0 -5 8 481.12 40.37
0 -5 8 486.79 40.99
0 -5 8 518.6 43.98
0 -5 9 43.71 11.86
0 -5 9 46.34 12.31
0 -5 9 39.49 12.09
0 -5 10 417.05 39.31
0 -5 10 464.75 40.93
0 -5 10 523.92 46.24
0 -4 -12 297.92 34.78
0 -4 -12 171.07 30.45
0 -4 -11 19.77 9.27
0 -4 -11 22.48 10.27
0 -4 -11 13.19 9.07
0 -4 -10 549.16 45.2
0 -4 -10 407.82 44.12
0 -4 -10 431.22 46.66
0 -4 -9 30.11 10.02
0 -4 -9 42.67 13.81
0 -4 -9 58.04 15.65
0 -4 -8 948.73 65.61
0 -4 -8 769.92 56.15
0 -4 -8 889.46 62.2
0 -4 -7 72.7 17.17
0 -4 -7 71.2 16.12
0 -4 -7 74.8 12.64
0 -4 -7 60.42 14.17
0 -4 -6 796.11 55.96
0 -4 -6 705.61 52.41
0 -4 -6 800.96 54.59
0 -4 -6 785.9 43.19
0 -4 -6 674.14 49.78
0 -4 -6 697.49 48.01
0 -4 -5 210.35 26.43
0 -4 -5 218.3 25.49
0 -4 -5 178.18 23.91
0 -4 -5 176.33 18.04
0 -4 -5 200.29 24.77
0 -4 -5 166.47 21.72
0 -4 -4 1225.71 65.76
0 -4 -4 1099.44 65.08
0 -4 -4 1235.87 66.04
0 -4 -4 1099.79 64.97
0 -4 -4 1223.98 54.97
0 -4 -3 48.38 11.28
0 -4 -3 35.48 7.41
0 -4 -3 28.71 8.36
0 -4 -3 35.55 9.99
0 -4 -3 35.26 7.72
0 -4 -2 2086.91 80.53
0 -4 -2 2176.14 79.83
0 -4 -2 2014.43 91.53
0 -4 -2 2079.95 88.66
0 -4 -2 1939.47 89.98
0 -4 -1 186.17 17.88
0 -4 -1 200.24 19.11
0 -4 -1 216.94 22.89
0 -4 -1 216.62 21.16
0 -4 -1 205.14 21.9
0 -4 -1 219 20.43
0 -4 -1 193.68 18.75
0 -4 -1 183.72 16.1
0 -4 0 1006.41 47.63
0 -4 0 1003.59 49.14
0 -4 0 920.37 52.01
0 -4 0 987.46 53.14
0 -4 0 1022.74 51.65
0 -4 0 1018 53.5
0 -4 0 983.36 50
0 -4 0 966.27 45.08
0 -4 0 998.39 47.57
0 -4 1 832.89 40.84
0 -4 1 760.8 40.14
0 -4 1 795.45 45.97
0 -4 1 790.44 44.96
0 -4 1 688.58 42.81
0 -4 1 810.82 44.65
0 -4 1 681.32 42.83
0 -4 1 843.2 40.43
0 -4 1 804.03 38.94
0 -4 2 837.22 48.39
0 -4 2 953.16 52.53
0 -4 2 1110.87 54.67
0 -4 2 1009.99 51.93
0 -4 2 931.3 51.82
0 -4 2 1016.77 46.79
0 -4 2 1081.97 51.68
0 -4 2 1099.87 48.4
0 -4 3 626.66 39.19
0 -4 3 574.2 38.13
0 -4 3 620.57 39
0 -4 3 527.68 37.3
0 -4 3 618.46 37
0 -4 3 621.42 37.36
0 -4 3 578.11 33.03
0 -4 4 619.42 41.52
0 -4 4 709.25 43.75
0 -4 4 681.08 43.53
0 -4 4 736.82 40.86
0 -4 4 734.25 38.45
0 -4 4 819.48 44.15
0 -4 5 1263.77 65.36
0 -4 5 1326.02 66.92
0 -4 5 1332.72 61.18
0 -4 5 1285.66 66.12
0 -4 5 1493.76 66.47
0 -4 6 316.68 29.36
0 -4 6 316.39 29.22
0 -4 6 399.72 33.08
0 -4 6 383.62 31.02
0 -4 6 435.98 32.11
0 -4 7 482.42 37.73
0 -4 7 504.03 38.23
0 -4 7 490.88 39.52
0 -4 7 519.13 37.71
0 -4 7 524.75 37.17
0 -4 8 201.45 25.19
0 -4 8 172.07 22.25
0 -4 8 173.46 22.23
0 -4 9 541.91 44.96
0 -4 9 544.28 42.32
0 -4 10 1.99 4.47
0 -4 10 5.06 4.38
0 -4 10 8.45 5.38
0 -4 11 781.12 57.72
0 -4 11 664.55 49.8
0 -4 11 605.32 47.59
0 -3 -12 167.38 28.52
0 -3 -12 208.05 32.05
0 -3 -11 411.62 39.93
0 -3 -11 351.54 40.16
0 -3 -11 398.39 43.76
0 -3 -10 176.4 27.24
0 -3 -10 128.04 24
0 -3 -10 207.63 26.5
0 -3 -10 146.66 20.22
0 -3 -9 907.96 64.17
0 -3 -9 993.48 67.22
0 -3 -9 1100.84 63.04
0 -3 -9 967.71 54.95
0 -3 -8 7.56 4.91
0 -3 -8 9.84 6.26
0 -3 -8 2.94 3.31
0 -3 -8 4.77 3.46
0 -3 -7 690.39 47.11
0 -3 -7 839.08 50.62
0 -3 -7 786.94 38.26
0 -3 -6 88.98 16.73
0 -3 -6 68.25 12.15
0 -3 -6 109.31 17.46
0 -3 -6 98.47 12.91
0 -3 -5 1593.37 40.17
0 -3 -5 1492.33 55.47
0 -3 -5 1410.79 59.19
0 -3 -5 1523.2 47.27
0 -3 -5 1537.21 63.66
0 -3 -4 27.68 6.78
0 -3 -4 23.41 6.96
0 -3 -4 41.14 7.56
0 -3 -4 28.21 7.63
0 -3 -4 23.52 5.67
0 -3 -4 26.92 7.26
0 -3 -4 31.98 7.33
0 -3 -4 31.48 7.79
0 -3 -4 -5.02 6.54
0 -3 -4 21.94 7.27
0 -3 -4 38.93 9.52
0 -3 -4 19.93 7.13
0 -3 -4 21.15 5.66
0 -3 -4 25.68 7.46
0 -3 -3 2860.5 65.98
0 -3 -3 2682.69 72.3
0 -3 -3 2988.91 68.5
0 -3 -3 2810.87 61.81
0 -3 -3 2720.28 71.47
0 -3 -3 2734.17 70.19
0 -3 -3 2580.86 76.38
0 -3 -3 2537.05 75.85
0 -3 -3 2583.62 73.7
0 -3 -3 2821.7 81.25
0 -3 -3 3238.55 92.38
0 -3 -3 2871.67 42.23
0 -3 -3 2786.92 63.55
0 -3 -3 2774.82 76.62
0 -3 -3 2766.69 62.73
0 -3 -2 387.58 21.09
0 -3 -2 411.65 25.6
0 -3 -2 400.6 24.79
0 -3 -2 369.68 26.77
0 -3 -2 369.8 26.07
0 -3 -2 428.78 26.98
0 -3 -2 415.68 26.16
0 -3 -2 419.41 22.09
0 -3 -2 430.35 27.21
0 -3 -2 423.37 22.7
0 -3 -2 423.3 22.66
0 -3 -2 440.2 29.24
0 -3 -1 2284.42 50.26
0 -3 -1 2321.64 45.67
0 -3 -1 2212.64 55.2
0 -3 -1 2114.24 49.3
0 -3 -1 2224.64 55.68
0 -3 -1 2113.18 54.16
0 -3 -1 2338.89 60.1
0 -3 -1 1995.55 58.59
0 -3 -1 2363.63 58.29
0 -3 -1 2219.38 31
0 -3 -1 2502.61 50.96
0 -3 -1 2421.16 47.64
0 -3 -1 2197.78 49.84
0 -3 -1 2011.65 45.41
0 -3 0 721.21 38.07
0 -3 0 792.9 36.65
0 -3 0 756.02 36.14
0 -3 0 790.81 38.23
0 -3 0 746.3 40.38
0 -3 0 816.63 39.35
0 -3 0 732.63 39.86
0 -3 0 742.33 39.94
0 -3 0 821.12 39.86
0 -3 0 823.96 37.87
0 -3 0 702.49 34.25
0 -3 0 787.9 36.88
0 -3 0 771.88 34.91
0 -3 1 881.26 42.69
0 -3 1 885.97 40.11
0 -3 1 772.92 41.99
0 -3 1 913.88 38.79
0 -3 1 817.34 41.03
0 -3 1 919.27 40.01
0 -3 1 931.42 40.49
0 -3 1 831.52 42.51
0 -3 1 837.73 43.77
0 -3 1 845.15 41.87
0 -3 1 873.89 43.53
0 -3 1 875.94 39.72
0 -3 1 976.13 41.55
0 -3 1 883.94 38.09
0 -3 2 82.48 11.49
0 -3 2 91.43 5.44
0 -3 2 82.13 12.22
0 -3 2 86.16 9.04
0 -3 2 98.67 10.97
0 -3 2 68.17 10.57
0 -3 2 87.39 9.85
0 -3 2 107.42 20.76
0 -3 2 97.4 11.78
0 -3 2 84.53 12.26
0 -3 2 85.45 11.17
0 -3 2 98.58 12.6
0 -3 2 99.9 11.63
0 -3 2 106.19 12.03
0 -3 2 90.15 10.08
0 -3 3 3728.73 120.03
0 -3 3 3921.44 120.05
0 -3 3 3868.31 121.19
0 -3 3 3601.09 124.55
0 -3 3 3474.71 117.27
0 -3 3 3421.64 125.33
0 -3 3 3525.79 122.85
0 -3 3 3659.16 123.22
0 -3 3 3523.3 125.95
0 -3 3 3575.73 122.26
0 -3 3 3200.09 124.97
0 -3 3 3587.12 109.99
0 -3 3 3511.1 125.32
0 -3 3 3651.19 124.29
0 -3 3 3420.01 122.1
0 -3 4 868.05 31.51
0 -3 4 903 36.84
0 -3 4 964.01 38.07
0 -3 4 867.99 37.21
0 -3 4 833.71 32.75
0 -3 4 -2.98 6.71
0 -3 4 922.3 39.81
0 -3 4 -0.76 1.4
0 -3 4 916.02 35.08
0 -3 4 845.06 37.65
0 -3 4 842.58 36.03
0 -3 4 833.39 31.2
0 -3 4 1019.64 33.65
0 -3 4 213.1 22.17
0 -3 4 814.59 37.66
0 -3 5 422.47 30.84
0 -3 5 510.49 30.97
0 -3 5 636.92 29.34
0 -3 5 503.97 30.47
0 -3 5 615.81 34.53
0 -3 5 637.87 32.29
0 -3 5 615.52 27.87
0 -3 5 578.42 31.37
0 -3 5 572.42 27.38
0 -3 6 1631.43 67.99
0 -3 6 1529.85 73.36
0 -3 6 1733.66 75.9
0 -3 6 1682.43 77.36
0 -3 6 1838.43 69.76
0 -3 6 1772.58 74
0 -3 6 1598.26 72.9
0 -3 7 84.79 13.99
0 -3 7 92.04 15.27
0 -3 7 90.99 14.71
0 -3 7 114.19 15.06
0 -3 7 97.27 14.69
0 -3 8 375.68 33.85
0 -3 8 424.51 33.15
0 -3 8 360.53 31.14
0 -3 8 369.25 31.68
0 -3 9 749.96 51.89
0 -3 9 718.34 47.67
0 -3 9 734.21 48.29
0 -3 10 614.45 48.24
0 -3 10 550.45 42.37
0 -3 10 582.11 43.51
0 -3 11 -2.04 0
0 -3 11 1.68 3.08
0 -3 11 1.66 4.31
0 -3 12 582.75 50.68
0 -3 12 689.08 49.59
0 -3 12 562.94 45.95
0 -2 -13 167.47 25.48
0 -2 -13 183.27 28.09
0 -2 -13 145.26 25.69
0 -2 -13 106.86 23.5
0 -2 -12 143.37 25.23
0 -2 -12 163.84 27.35
0 -2 -12 167.65 24.46
0 -2 -12 186.28 27.95
0 -2 -12 196.05 25.37
0 -2 -11 269.55 34.12
0 -2 -11 304.6 36.65
0 -2 -11 289.4 31.33
0 -2 -11 368.11 37.06
0 -2 -11 348.22 33.05
0 -2 -10 471.76 43.82
0 -2 -10 470.8 44.49
0 -2 -10 546.24 44.31
0 -2 -10 547.65 40.47
0 -2 -9 101.04 18.72
0 -2 -9 120.44 20.54
0 -2 -9 115.22 18.64
0 -2 -9 130.22 17.4
0 -2 -8 1067.62 66
0 -2 -8 1129.14 68.31
0 -2 -8 1170.44 59.16
0 -2 -7 154.2 20.96
0 -2 -7 143.18 16.72
0 -2 -7 150.26 16.67
0 -2 -7 169.67 21.59
0 -2 -6 1336.51 57.79
0 -2 -6 1337.37 45.74
0 -2 -6 1296.91 56.57
0 -2 -6 1366.56 46.6
0 -2 -6 1381.06 49.34
0 -2 -5 67.66 12.23
0 -2 -5 82.6 8.29
0 -2 -5 85.33 12.08
0 -2 -5 90.97 12.38
0 -2 -5 80.74 10.48
0 -2 -5 66.35 12.14
0 -2 -5 78.13 10.18
0 -2 -5 78.87 11.46
0 -2 -5 62 11.09
0 -2 -5 73.64 10.34
0 -2 -5 72.82 10.77
0 -2 -5 98.62 11.67
0 -2 -5 86.18 7.42
0 -2 -4 2661.41 71.97
0 -2 -4 2814.94 65.16
0 -2 -4 2512.72 63.54
0 -2 -4 2642.28 56.22
0 -2 -4 2640.39 73.13
0 -2 -4 2799.85 57.57
0 -2 -4 2696.01 58.3
0 -2 -4 2530.24 62.04
0 -2 -4 2511.32 62.46
0 -2 -4 2708.73 57.98
0 -2 -4 2659.38 45.01
0 -2 -3 48.12 8.59
0 -2 -3 93.44 10.68
0 -2 -3 108.63 11.62
0 -2 -3 84.63 9.06
0 -2 -3 83.47 10.82
0 -2 -3 89.26 12.14
0 -2 -3 89.78 11.16
0 -2 -3 95.19 9.94
0 -2 -3 101.75 12.38
0 -2 -3 92.42 9.62
0 -2 -2 2088.48 87.38
0 -2 -2 2598.19 86.02
0 -2 -2 2582.39 85.37
0 -2 -2 2368.17 89.4
0 -2 -2 2418.47 85.8
0 -2 -2 2435.93 82.4
0 -2 -2 2504.78 89.2
0 -2 -2 2323.89 87.2
0 -2 -2 2103.24 88.33
0 -2 -2 2446.83 89.09
0 -2 -2 2277.06 88.31
0 -2 -2 2560.14 91.72
0 -2 -2 2414.13 84.11
0 -2 -2 2772.86 76.85
0 -2 -1 2.72 1.51
0 -2 -1 -0.58 0.03
0 -2 -1 0.45 1.01
0 -2 -1 0.56 1.04
0 -2 -1 0.62 0.81
0 -2 -1 1.63 1.58
0 -2 -1 1.85 1.6
0 -2 -1 2.01 0.85
0 -2 -1 0.44 0.81
0 -2 -1 2.67 1.94
0 -2 -1 1.46 0.95
0 -2 -1 6.67 2.38
0 -2 -1 4.48 2.18
0 -2 0 4030.17 57.15
0 -2 0 4298.2 55.35
0 -2 0 4109.11 53.86
0 -2 0 3976.88 57.95
0 -2 0 3939.06 58.3
0 -2 0 3921.46 59.38
0 -2 0 4475.05 63.9
0 -2 0 3982.26 58.85
0 -2 0 4249.86 62.44
0 -2 0 3944.35 56.58
0 -2 0 3839.33 54.21
0 -2 0 3957.34 52.1
0 -2 0 3664.94 49.09
0 -2 1 592.33 28.13
0 -2 1 575.18 28.33
0 -2 1 557.76 24.3
0 -2 1 547.7 24.84
0 -2 1 547.03 26.44
0 -2 1 582.4 25.89
0 -2 1 564.68 27.35
0 -2 1 493.46 25.99
0 -2 1 474.86 26.88
0 -2 1 567.11 27.8
0 -2 1 548.36 26.03
0 -2 1 539.32 26.09
0 -2 1 571.99 24.93
0 -2 2 2672.68 52.29
0 -2 2 2613.46 30.37
0 -2 2 2988.03 31.88
0 -2 2 2960.24 44.93
0 -2 2 2755.72 48.73
0 -2 2 2692.45 42.46
0 -2 2 2639.82 48.14
0 -2 2 2844.41 50.59
0 -2 2 2712.89 52.24
0 -2 2 2765.45 51.36
0 -2 2 2917.63 49.7
0 -2 2 2782.13 52.5
0 -2 2 2784.1 49.67
0 -2 2 2765.82 44.9
0 -2 2 3279.97 46.9
0 -2 2 2681.92 50.01
0 -2 3 1172.85 34.05
0 -2 3 1136.25 29.89
0 -2 3 1230.86 36.53
0 -2 3 1075.43 30.88
0 -2 3 2.22 2.9
0 -2 3 1091.55 35.66
0 -2 3 1104.36 32.58
0 -2 3 1061.21 35.16
0 -2 3 1206.43 33.57
0 -2 3 1020.98 34.74
0 -2 3 1129.45 19.13
0 -2 3 1077.45 34.11
0 -2 3 1120.71 31.04
0 -2 3 1291.68 32.92
0 -2 4 1590.02 38.36
0 -2 4 1577.9 42.92
0 -2 4 1720.83 46.81
0 -2 4 1631.5 45.52
0 -2 4 1533.41 38.51
0 -2 4 1455.16 44.12
0 -2 4 1486.3 41.12
0 -2 4 1521.2 46.01
0 -2 4 1748.61 42.58
0 -2 4 1494.59 43.26
0 -2 4 1695.16 46.43
0 -2 4 1507.01 24.7
0 -2 4 1461.94 38.54
0 -2 4 1751.71 42.51
0 -2 5 411.29 26.7
0 -2 5 441.56 24.55
0 -2 5 456.82 22.49
0 -2 5 405.53 22.94
0 -2 5 463.89 25.27
0 -2 5 434.38 21.81
0 -2 5 467.3 26.64
0 -2 5 445.24 24.29
0 -2 5 468.4 27.92
0 -2 5 471.6 26.33
0 -2 5 543.49 25.52
0 -2 5 467.16 27.06
0 -2 5 467.48 26.68
0 -2 5 513.55 25.29
0 -2 6 1224.51 42.18
0 -2 6 1176.93 44.97
0 -2 6 1256.65 43.32
0 -2 6 1206.41 45.27
0 -2 6 1298.47 49.88
0 -2 6 1201.87 40.22
0 -2 6 1181.17 45.27
0 -2 6 1172.24 38.69
0 -2 6 1207.93 42.89
0 -2 7 798.14 45.16
0 -2 7 716.07 43.43
0 -2 7 824.42 43.6
0 -2 7 759.58 40.02
0 -2 7 800.24 47.55
0 -2 7 781.3 44.65
0 -2 8 397.38 31.48
0 -2 8 391.34 31.25
0 -2 8 487.45 32.88
0 -2 8 429.4 35.11
0 -2 8 388.49 31.4
0 -2 9 979.34 60.08
0 -2 9 1025 57
0 -2 9 893.63 54.29
0 -2 10 242.41 28.37
0 -2 10 276.09 27.56
0 -2 10 195.46 23.62
0 -2 11 448.39 41.35
0 -2 11 433.4 37.31
0 -2 11 443.04 37.35
0 -2 12 65.32 16.28
0 -2 12 58.58 13.51
0 -2 12 59.7 13.94
0 -2 13 339.56 38.66
0 -2 13 357.98 35.56
0 -2 13 376.74 36.74
0 -1 -13 103.98 21.17
0 -1 -13 63.52 18.42
0 -1 -13 113.09 22.58
0 -1 -13 105.98 20.33
0 -1 -12 218.74 30.72
0 -1 -12 258.72 33.95
0 -1 -12 291.43 32.26
0 -1 -12 293.63 34.57
0 -1 -11 494.72 45.3
0 -1 -11 523.79 43.31
0 -1 -11 616.7 48.72
0 -1 -11 557.69 48.4
0 -1 -10 437.07 40.93
0 -1 -10 419.76 39.14
0 -1 -10 393.05 35.58
0 -1 -10 405.84 35.52
0 -1 -10 437.94 38.67
0 -1 -10 367.35 33.3
0 -1 -9 685.56 44.58
0 -1 -9 629.94 48.66
0 -1 -9 677.12 46.3
0 -1 -9 717.52 48.64
0 -1 -9 588.64 46.64
0 -1 -8 187.58 19.7
0 -1 -8 186.08 23.25
0 -1 -8 208.3 22.42
0 -1 -8 200.02 22.45
0 -1 -8 202.98 23.86
0 -1 -7 1193.79 63.53
0 -1 -7 1088.74 61.84
0 -1 -7 1104.27 59.53
0 -1 -7 1141.36 49.68
0 -1 -7 1145.01 56.12
0 -1 -6 495.14 33.14
0 -1 -6 540.63 28.51
0 -1 -6 502.65 24.25
0 -1 -6 545.16 28.58
0 -1 -6 487.76 28.96
0 -1 -6 554.84 25.07
0 -1 -6 534.66 31.46
0 -1 -6 514.68 23.1
0 -1 -6 511.16 30.11
0 -1 -6 512.88 27.68
0 -1 -6 498.56 27.97
0 -1 -6 416.52 30.68
0 -1 -6 539.58 22.03
0 -1 -6 503.3 31.73
0 -1 -5 1942.75 58.08
0 -1 -5 2428.74 52.67
0 -1 -5 2080.51 49.3
0 -1 -5 2116.01 47.3
0 -1 -5 2086.78 56.42
0 -1 -5 2389.22 63.87
0 -1 -5 1859.34 54.6
0 -1 -5 2255.33 68.3
0 -1 -5 2280.78 57.85
0 -1 -5 2265.95 58.13
0 -1 -5 2094.56 51.86
0 -1 -5 2234.51 36
0 -1 -5 2161.49 67.01
0 -1 -5 2044.38 63.3
0 -1 -4 9.53 2.76
0 -1 -4 7.6 3.24
0 -1 -4 6.45 2.48
0 -1 -4 9.43 3.23
0 -1 -4 9.74 3.73
0 -1 -4 5.09 2.34
0 -1 -4 8.46 3.39
0 -1 -4 14.52 3.2
0 -1 -4 -2.64 0.26
0 -1 -4 7.67 3.51
0 -1 -4 10.81 4.19
0 -1 -4 6.23 2.66
0 -1 -4 8.36 2.89
0 -1 -4 9.18 3.08
0 -1 -4 8.67 3.7
0 -1 -3 3588.69 64.71
0 -1 -3 3905.68 55.19
0 -1 -3 3303.11 57.88
0 -1 -3 3326.28 58.57
0 -1 -3 4221.52 44.43
0 -1 -3 3898.92 55.6
0 -1 -3 4089.74 68.76
0 -1 -3 4158.89 68.27
0 -1 -3 3678.15 55.42
0 -1 -3 3852.25 56.55
0 -1 -3 3445.34 54.15
0 -1 -3 4313.26 37.11
0 -1 -3 4002.52 48.13
0 -1 -3 3576.53 60.78
0 -1 -2 58.2 5.71
0 -1 -2 58.18 6.88
0 -1 -2 55.66 6.61
0 -1 -2 59.05 7.38
0 -1 -2 51.1 6.32
0 -1 -2 61.32 6.18
0 -1 -2 64.18 6.8
0 -1 -2 64.04 7.48
0 -1 -2 64.52 6.24
0 -1 -1 5504.4 147.04
0 -1 -1 5192.86 144.96
0 -1 -1 4664.13 147.98
0 -1 -1 4813.61 146.86
0 -1 -1 5390.89 150.07
0 -1 -1 4787.09 145.99
0 -1 -1 4754.67 148.06
0 -1 -1 5257.86 146.16
0 -1 -1 4865.54 145.91
0 -1 -1 4806.23 147.85
0 -1 0 3.1 1.24
0 -1 0 4.52 1.48
0 -1 0 5.88 1.58
0 -1 0 7.25 1.74
0 -1 0 3.72 1.19
0 -1 0 4.82 1.43
0 -1 0 -0.24 0.45
0 -1 0 2.9 1.28
0 -1 0 5.05 1.57
0 -1 0 13.29 2.49
0 -1 0 9.93 2.03
0 -1 0 4.88 1.18
0 -1 0 4.9 1.32
0 -1 0 4.4 1.48
0 -1 0 5.31 1.28
0 -1 0 4.1 1.19
0 -1 1 1733.23 57.75
0 -1 1 1720.99 57.93
0 -1 1 1689.79 55.5
0 -1 1 1805.42 57.15
0 -1 1 1724.11 55.67
0 -1 1 1637.3 57.65
0 -1 1 1682.66 56.84
0 -1 1 1699.16 57.59
0 -1 1 1700.85 57.82
0 -1 1 1805.44 57.13
0 -1 1 1767.9 54.5
0 -1 1 1855.38 53.25
0 -1 1 1834.11 57.52
0 -1 1 1770.7 56.27
0 -1 1 1777.6 57.53
0 -1 2 889.8 24.48
0 -1 2 962.99 21.38
0 -1 2 953.28 24.83
0 -1 2 -0.32 2.77
0 -1 2 1106.96 27.2
0 -1 2 1053.81 24.42
0 -1 2 1050.92 23.22
0 -1 2 1093.11 24.42
0 -1 2 1009.39 25.88
0 -1 2 1001.97 25.28
0 -1 2 937.23 23.68
0 -1 2 957.04 22.62
0 -1 2 1022.63 19.09
0 -1 2 1044.33 23.76
0 -1 2 975.74 20.76
0 -1 3 4643.64 43.3
0 -1 3 4220.7 55.2
0 -1 3 4215.73 53.83
0 -1 3 4971.21 63.5
0 -1 3 4270.81 58.65
0 -1 3 4335.85 51.01
0 -1 3 4763.05 61.65
0 -1 3 4574.56 63.34
0 -1 3 4307.61 57.67
0 -1 3 4213.82 58.73
0 -1 3 4731.38 60.24
0 -1 3 4140.86 59.97
0 -1 3 4340.11 54.63
0 -1 3 4193.32 55.06
0 -1 3 4474.19 57.48
0 -1 3 4829.96 58.96
0 -1 4 612.61 27.21
0 -1 4 667.08 24.05
0 -1 4 647.29 26.4
0 -1 4 591.33 25.62
0 -1 4 652.24 26.59
0 -1 4 648.34 24.69
0 -1 4 675.93 18.48
0 -1 4 659.29 25.06
0 -1 4 604.6 24.36
0 -1 4 627.72 26.31
0 -1 4 656.63 27.45
0 -1 4 649.74 25.67
0 -1 4 671.08 27.09
0 -1 4 694.41 24.99
0 -1 4 628.76 25.61
0 -1 4 744.37 27.18
0 -1 5 2613.63 42.15
0 -1 5 2796.4 55.08
0 -1 5 2255.96 50.06
0 -1 5 2325.19 36.98
0 -1 5 2359.13 50.36
0 -1 5 2193.49 49.37
0 -1 5 2374.56 57.18
0 -1 5 2183.96 51.26
0 -1 5 2250.87 57.84
0 -1 5 2261.47 48.74
0 -1 5 2103.57 53.37
0 -1 5 2386.36 54.74
0 -1 5 2142.74 53.36
0 -1 5 2307.22 49.94
0 -1 5 2443.48 56.45
0 -1 5 2112.61 50.8
0 -1 6 617.72 26.53
0 -1 6 506.91 26.35
0 -1 6 510.51 19.09
0 -1 6 487.38 25.43
0 -1 6 507.12 24.99
0 -1 6 499.12 28.67
0 -1 6 522.6 27.41
0 -1 6 526.52 28.76
0 -1 6 510.56 28.41
0 -1 6 512.94 27.45
0 -1 6 530.02 31.1
0 -1 6 517.82 25.3
0 -1 6 491.09 28.44
0 -1 6 551.24 29.4
0 -1 6 542.88 26.99
0 -1 7 714.29 36.07
0 -1 7 652.74 41.9
0 -1 7 730.38 44.03
0 -1 7 781.3 37.94
0 -1 7 657.21 40.43
0 -1 7 693.83 40.65
0 -1 7 642.85 39.2
0 -1 7 699.61 38.74
0 -1 7 649.72 38.3
0 -1 8 719.29 46.4
0 -1 8 711.68 44.43
0 -1 8 712.03 43.52
0 -1 8 767.61 44.19
0 -1 8 737.11 41.78
0 -1 8 682.09 41.43
0 -1 9 569.91 42.5
0 -1 9 555.18 40.08
0 -1 9 550.57 38.67
0 -1 9 536.84 38.03
0 -1 10 748.45 51.79
0 -1 10 694.89 47.81
0 -1 10 684.22 45.88
0 -1 10 683.49 45.64
0 -1 11 194.66 26.38
0 -1 11 203.34 24.24
0 -1 11 200.78 24.32
0 -1 12 406.21 40.16
0 -1 12 357.61 34.27
0 -1 12 371.33 34.68
0 -1 13 99.5 20.3
0 -1 13 116.27 19.64
0 -1 13 88.94 17.48
0 0 -13 398.3 42.12
0 0 -13 378.47 39.17
0 0 -13 455.89 44.92
0 0 -13 327.51 39.31
0 0 -12 203.11 26.97
0 0 -12 235.21 30.76
0 0 -12 137.58 25.01
0 0 -11 334.7 33.66
0 0 -11 333.6 35.34
0 0 -11 313.09 35.09
0 0 -10 317.6 32.82
0 0 -10 325.36 31.52
0 0 -10 324.65 34.22
0 0 -9 496.83 37.55
0 0 -9 562.43 41.54
0 0 -9 441.61 38.7
0 0 -9 450.24 35.21
0 0 -8 483.23 35.91
0 0 -8 482.26 33.81
0 0 -8 569.68 34.5
0 0 -8 552.51 34.54
0 0 -8 599.56 38.16
0 0 -7 779.81 38.67
0 0 -7 953.48 44.71
0 0 -7 879.99 40.59
0 0 -7 879.79 35.98
0 0 -7 945.32 46.94
0 0 -7 807.66 41.24
0 0 -7 757.54 32.61
0 0 -7 770 32.33
0 0 -7 848.48 39.45
0 0 -6 4222.34 135.25
0 0 -6 4070.2 139.78
0 0 -6 4639.03 145.25
0 0 -6 3964.92 139.61
0 0 -6 3799.83 138.35
0 0 -6 3509.83 131.39
0 0 -6 4092.39 135.37
0 0 -6 3884.8 140.74
0 0 -6 3733.06 133.28
0 0 -6 4198.47 138.86
0 0 -6 4093.69 138.27
0 0 -6 4189.03 129.59
0 0 -6 4092.96 122.07
0 0 -6 4075.07 140.35
0 0 -5 170.13 14.08
0 0 -5 191.46 12.18
0 0 -5 209.61 18.17
0 0 -5 176.98 14.14
0 0 -5 172.03 15.85
0 0 -5 167.09 15.47
0 0 -5 176.17 14.23
0 0 -5 173.58 16.92
0 0 -5 161.77 13.79
0 0 -5 169.29 12.1
0 0 -5 167.99 15.05
0 0 -5 174.66 15.36
0 0 -5 172.45 9.25
0 0 -5 179.41 16.38
0 0 -4 1142.69 35.27
0 0 -4 1174.2 31.68
0 0 -4 1165.99 25.56
0 0 -4 1201.8 31.77
0 0 -4 1177.23 36.33
0 0 -4 1164.04 31.12
0 0 -4 1144.75 34.63
0 0 -4 1175.8 36.58
0 0 -4 1119.8 30.63
0 0 -4 1196.1 27.17
0 0 -4 1195.61 34.67
0 0 -4 1147.69 33.93
0 0 -4 1129.15 19.2
0 0 -4 1088.75 24.76
0 0 -3 70.32 7.53
0 0 -3 68.74 6.61
0 0 -3 63.64 5.12
0 0 -3 59.74 7.12
0 0 -3 73.95 6.62
0 0 -3 58.37 6.63
0 0 -3 -2.03 0.11
0 0 -3 57.38 7.26
0 0 -3 65.1 6.27
0 0 -3 68.5 5.55
0 0 -3 72.47 7.23
0 0 -3 53.57 6.35
0 0 -3 65.38 3.88
0 0 -3 -0.33 0.44
0 0 -3 66.42 5.15
0 0 -3 68.84 7.65
0 0 -2 834.97 19.25
0 0 -2 858.37 15.66
0 0 -2 840.57 18.36
0 0 -2 828.27 21.89
0 0 -2 802.33 20.09
0 0 -2 826.16 21.83
0 0 -2 907.32 16.71
0 0 -2 885.17 21.04
0 0 -2 842.06 20.56
0 0 -2 848.77 21.24
0 0 -2 903.71 18.67
0 0 -2 872.53 21.1
0 0 -2 792.04 17.97
0 0 -2 981.14 22.88
0 0 -2 876.5 15.73
0 0 -1 286.76 8.77
0 0 -1 294.66 8.72
0 0 -1 289.85 7.42
0 0 -1 294.54 8.41
0 0 -1 290.76 8.86
0 0 1 283.74 7.55
0 0 1 321.75 9.88
0 0 1 302.96 9.18
0 0 1 295.08 7.64
0 0 1 285.39 8.79
0 0 1 296.92 9.01
0 0 1 317.56 8.96
0 0 1 319.61 8.57
0 0 2 865.58 20.44
0 0 2 878.09 16.31
0 0 2 842.14 19.61
0 0 2 859.09 22.94
0 0 2 862.56 17.8
0 0 2 863.89 22.05
0 0 2 873.13 18.67
0 0 2 874.54 21.74
0 0 2 882.1 22.22
0 0 2 787.56 20.87
0 0 2 887.72 21
0 0 2 904.62 21.4
0 0 2 780.2 18.38
0 0 2 824.94 15.36
0 0 3 72.69 5.23
0 0 3 65.91 7.08
0 0 3 67.71 5.66
0 0 3 65.45 6.03
0 0 3 65.99 7.89
0 0 3 61.97 6.51
0 0 3 56.4 6.97
0 0 3 74.54 6.73
0 0 3 62.16 7.46
0 0 3 62.95 6.97
0 0 3 71.21 7.37
0 0 3 77.05 7.72
0 0 3 60.01 6.45
0 0 3 70.11 5.57
0 0 4 1331.37 24.52
0 0 4 1269.63 27.98
0 0 4 1206.76 39.18
0 0 4 1081.03 30.66
0 0 4 1246.22 29.58
0 0 4 1209.91 36.62
0 0 4 1210.35 37.47
0 0 4 1142.47 30.36
0 0 4 1265.53 36.71
0 0 4 1223.52 34.17
0 0 4 1106.74 33.92
0 0 4 1403.9 37.32
0 0 4 1055.8 31.04
0 0 4 1234.42 26.06
0 0 5 195.61 10.43
0 0 5 153.32 14.41
0 0 5 155.43 13.18
0 0 5 183.52 12.1
0 0 5 189.22 12.93
0 0 5 185.74 17.53
0 0 5 160.26 13.18
0 0 5 181.2 15.8
0 0 5 174.27 16.13
0 0 5 173.78 13.48
0 0 5 200.26 17.01
0 0 5 163.11 14.63
0 0 5 153.69 14.36
0 0 5 163.55 14.09
0 0 5 205.77 16.14
0 0 5 178.08 11.09
0 0 5 185.43 14.73
0 0 6 4244.65 80.85
0 0 6 4049.55 73.02
0 0 6 4512.24 63.56
0 0 6 4381 66.36
0 0 6 4451.81 95.11
0 0 6 4329.7 72.54
0 0 6 4463.84 84.76
0 0 6 4106.85 79.57
0 0 6 4413.79 80.24
0 0 6 4089.28 73.62
0 0 6 4412.94 56.96
0 0 6 4695.13 89.9
0 0 6 4068.13 69.36
0 0 6 4539.93 86.22
0 0 6 4352.02 79.69
0 0 6 3983 75.02
0 0 7 875.77 44.36
0 0 7 884.93 39.58
0 0 7 900.12 45.13
0 0 7 1005.01 47.91
0 0 7 892.91 50.08
0 0 7 864.99 48.62
0 0 7 878.88 42.34
0 0 7 905.43 47.03
0 0 7 811.08 45.45
0 0 7 989.22 53.94
0 0 7 877.07 40.09
0 0 7 831.74 44.51
0 0 7 919.35 46.46
0 0 8 563.81 40.52
0 0 8 586.47 40.13
0 0 8 555.42 37.17
0 0 8 610.75 38.48
0 0 8 550.66 34.97
0 0 8 578.96 36.49
0 0 8 613.84 43.69
0 0 9 492.26 34.13
0 0 9 446.43 37.49
0 0 9 461.2 37.13
0 0 9 497.94 36.18
0 0 9 571.37 38.26
0 0 10 374.1 31.94
0 0 10 331.27 30.1
0 0 10 339.28 33.48
0 0 10 352.74 33.12
0 0 10 326.75 28.28
0 0 11 294.74 29.7
0 0 11 326.79 34.57
0 0 11 337.92 33.39
0 0 11 315.67 28.53
0 0 11 270.74 28.62
0 0 12 154.19 22.13
0 0 12 143.24 23.99
0 0 12 147.59 21.86
0 0 13 326.74 33.82
0 0 13 377.67 36.47
0 0 13 371.42 40.02
0 1 -13 115.07 22.57
0 1 -13 87.41 20.07
0 1 -13 92.81 19.37
0 1 -12 404.96 39.12
0 1 -12 434.86 42.62
0 1 -11 178.85 26.65
0 1 -11 169.88 24.98
0 1 -11 198.96 25.93
0 1 -11 193.12 26.88
0 1 -10 617.45 47.25
0 1 -10 686.77 45.91
0 1 -10 720.6 49.66
0 1 -10 723.7 51.62
0 1 -9 606.13 42.14
0 1 -9 606.47 44.29
0 1 -9 557.46 39
0 1 -8 779.92 44.42
0 1 -8 651.24 37.86
0 1 -8 633.11 43.98
0 1 -8 721.16 42.04
0 1 -8 680.97 43.94
0 1 -8 798.3 49.64
0 1 -7 654.14 38.7
0 1 -7 663.89 41.25
0 1 -7 606.41 34.34
0 1 -7 666.76 36.83
0 1 -7 690.79 38.68
0 1 -7 536.21 31.8
0 1 -7 651.06 39.86
0 1 -7 764.04 44.25
0 1 -6 561.9 30.45
0 1 -6 522.12 26.28
0 1 -6 487.89 30.33
0 1 -6 492.81 26.07
0 1 -6 511.32 31.37
0 1 -6 515.07 30.54
0 1 -6 491.44 32.68
0 1 -6 470.62 27.84
0 1 -6 461.91 28.75
0 1 -6 471.23 29.81
0 1 -6 540 31.84
0 1 -6 505.95 30.22
0 1 -6 435.12 26.36
0 1 -6 519.19 32.26
0 1 -6 561.6 34.84
0 1 -5 2053.55 79.15
0 1 -5 2162.71 75.08
0 1 -5 2357.65 82.66
0 1 -5 2276.57 75.91
0 1 -5 2130.27 81.56
0 1 -5 2288.04 81.65
0 1 -5 2378.88 85
0 1 -5 2140.33 80.9
0 1 -5 2095.32 77.56
0 1 -5 2270.98 80.46
0 1 -5 2381.85 82.9
0 1 -5 2026.59 78.96
0 1 -5 2380.49 83.66
0 1 -5 1833.79 75.54
0 1 -5 2097.25 73
0 1 -5 2385.3 86.25
0 1 -4 642.6 31.12
0 1 -4 629.02 27.91
0 1 -4 603 28.33
0 1 -4 683.05 32.34
0 1 -4 638.66 27.93
0 1 -4 742.21 32.64
0 1 -4 634.05 31.1
0 1 -4 666.99 33.85
0 1 -4 579.12 30.5
0 1 -4 629.65 30.37
0 1 -4 609.74 30.94
0 1 -4 625.61 29.49
0 1 -4 629.37 31.62
0 1 -4 706.98 32.75
0 1 -4 598.12 28.96
0 1 -4 606.36 26.83
0 1 -4 686.46 33.94
0 1 -4 715.03 31.52
0 1 -3 4172.92 54.41
0 1 -3 4513.33 61.21
0 1 -3 4338.08 49.39
0 1 -3 4308.1 59.27
0 1 -3 4453.97 62.93
0 1 -3 4041.13 55.91
0 1 -3 4083.5 58.19
0 1 -3 3925.99 54.28
0 1 -3 4238.47 52.75
0 1 -3 4300.19 60.32
0 1 -3 4271.94 58.21
0 1 -3 4082.03 53.33
0 1 -3 4818.07 63.38
0 1 -3 4508.65 52.26
0 1 -3 4151.04 38.71
0 1 -3 4308.77 51.9
0 1 -2 922.88 32.61
0 1 -2 969.67 35.37
0 1 -2 918.19 33.24
0 1 -2 1019 37.56
0 1 -2 1033.82 37.13
0 1 -2 969.68 34.69
0 1 -2 950.23 37.79
0 1 -2 1001.48 36.62
0 1 -2 971.24 36.73
0 1 -2 904.36 35.53
0 1 -2 948.52 37.06
0 1 -2 964.67 35.91
0 1 -2 997.98 37.51
0 1 -2 874.64 34.97
0 1 -2 1009.68 37.36
0 1 -2 923.6 35.99
0 1 -2 997.14 36.37
0 1 -2 1099.81 37.42
0 1 -1 1750.92 53.24
0 1 -1 1872.9 54.99
0 1 -1 1850.74 57.27
0 1 -1 1797.86 55.95
0 1 -1 1738.82 55.96
0 1 -1 1794.99 58.18
0 1 -1 1647.02 56.76
0 1 -1 1648.2 58.23
0 1 -1 1865.2 57.75
0 1 -1 1711.68 57.79
0 1 -1 1714.35 57.82
0 1 -1 1725.62 57.42
0 1 -1 1785.12 58.58
0 1 -1 1822.87 58
0 1 -1 1706.71 57.26
0 1 -1 1705.43 56.67
0 1 0 3 1.26
0 1 0 6.59 1.32
0 1 0 4.51 1.27
0 1 0 4.42 1.35
0 1 0 6.83 1.77
0 1 0 6 1.72
0 1 0 3.18 1.29
0 1 0 6.84 1.78
0 1 0 4.54 1.42
0 1 0 3.23 1.24
0 1 0 3.69 1.38
0 1 0 3.47 1.24
0 1 0 3.67 1.52
0 1 0 3.84 1.15
0 1 1 4547.6 149.87
0 1 1 4939.6 151.97
0 1 1 5404.79 150.51
0 1 1 5247.09 148.48
0 1 1 5318.09 152.74
0 1 1 4883.03 151
0 1 1 4991.59 151.51
0 1 1 5013.57 150.5
0 1 1 4724.66 149.43
0 1 1 4668.52 148.94
0 1 2 63.28 5.27
0 1 2 75.98 7.2
0 1 2 64.44 7.41
0 1 2 52.79 5.47
0 1 2 56.11 6.8
0 1 2 63.68 7.35
0 1 2 66.47 7.27
0 1 2 71.67 7.17
0 1 2 81.06 7.45
0 1 2 49.33 5.71
0 1 2 66.43 7.36
0 1 2 65.33 4
0 1 3 3840 136.56
0 1 3 3991.21 136.46
0 1 3 3914.61 131.73
0 1 3 4444.54 137.76
0 1 3 4104.34 133.31
0 1 3 4191.3 138.05
0 1 3 4474.08 131.29
0 1 3 4200.41 126.65
0 1 3 4330.48 135.09
0 1 3 4579.45 134.21
0 1 3 4321.39 133.82
0 1 4 14.03 3.56
0 1 4 7.43 2.89
0 1 4 14.35 4.48
0 1 4 6.99 3.2
0 1 4 -2.28 2.97
0 1 4 13.44 4.23
0 1 4 12.02 4.08
0 1 4 10.49 3.09
0 1 4 11.57 2.73
0 1 4 11.39 3.78
0 1 4 21.63 4.38
0 1 4 6.35 2.87
0 1 4 11.62 3.88
0 1 4 12.07 3.74
0 1 4 13.91 3.72
0 1 5 2164.84 48.2
0 1 5 2597.44 49.68
0 1 5 2192.1 56.76
0 1 5 2179.07 39.66
0 1 5 2182.02 48.45
0 1 5 2352.48 62.79
0 1 5 2.79 5.32
0 1 5 2206.78 57.11
0 1 5 2204.49 48.25
0 1 5 2418.83 44.44
0 1 5 2305.85 56.1
0 1 5 1981.05 49.88
0 1 5 2284.21 57.67
0 1 5 2290.8 46.13
0 1 5 2.75 2.6
0 1 6 527.47 25.66
0 1 6 582.98 33.46
0 1 6 509.62 29.15
0 1 6 523.4 21.45
0 1 6 520.84 33.11
0 1 6 533.18 25.71
0 1 6 555.38 30.78
0 1 6 550.31 30.44
0 1 6 521.29 27.66
0 1 6 554.65 29.99
0 1 6 451.93 25.51
0 1 6 568.14 24.28
0 1 6 551.25 26.66
0 1 7 1291.65 65.86
0 1 7 1230.71 55.59
0 1 7 1297.87 60.29
0 1 7 1021.87 54.14
0 1 7 1211.86 53.9
0 1 7 1407.24 65.44
0 1 7 1117.04 60.28
0 1 7 1203.31 56.61
0 1 7 1260.79 59.92
0 1 7 1362.44 61.11
0 1 8 203.12 20.27
0 1 8 206.57 21.85
0 1 8 202.85 21.66
0 1 8 227.18 21.61
0 1 8 222.66 24.07
0 1 8 243.65 25.34
0 1 8 209.57 24.37
0 1 9 581.94 38.94
0 1 9 618.91 42.42
0 1 9 618.38 42.19
0 1 9 615.68 40.07
0 1 9 640.92 45.98
0 1 9 747.15 48.38
0 1 9 680.89 48.95
0 1 10 406.81 32.59
0 1 10 417.19 35.34
0 1 10 424.01 38.19
0 1 10 420.72 37.86
0 1 10 429.6 35.31
0 1 10 498.8 42.84
0 1 11 509.62 38.98
0 1 11 574.64 43.7
0 1 11 607.45 48.14
0 1 11 550.93 45.27
0 1 11 612.12 44.64
0 1 11 710.41 53.67
0 1 12 275.4 30.77
0 1 12 349.08 36.89
0 1 12 296.63 31.75
0 1 13 87.99 19.58
0 1 13 114.13 20.03
0 2 -13 327.83 39.58
0 2 -13 322.41 37.11
0 2 -13 419.76 41.84
0 2 -12 58.38 14.87
0 2 -12 52.42 14.18
0 2 -11 479.73 41.76
0 2 -11 428.32 40.97
0 2 -11 448.88 41.21
0 2 -11 443.88 38.13
0 2 -10 191.91 24.59
0 2 -10 217.09 27.46
0 2 -10 192.35 25.55
0 2 -10 244.98 26.66
0 2 -9 970.4 54.78
0 2 -9 875.33 53.2
0 2 -8 406.57 32.87
0 2 -8 373.01 27.17
0 2 -8 333.34 29
0 2 -8 365.27 32.33
0 2 -7 702.63 45.09
0 2 -7 751.57 40.98
0 2 -7 777.56 45.28
0 2 -7 891.44 49.39
0 2 -7 745.54 39.94
0 2 -7 747.7 43.94
0 2 -6 1122.67 48.57
0 2 -6 1207.03 49.77
0 2 -6 1214.76 53.76
0 2 -6 1174.04 55.85
0 2 -6 1082.15 53.82
0 2 -6 1120.11 56.96
0 2 -6 1205.91 56.03
0 2 -6 1051.65 49.36
0 2 -6 1072.98 51.19
0 2 -6 1191.02 52.48
0 2 -6 1155.07 51.74
0 2 -5 420.13 24.65
0 2 -5 411.47 20.59
0 2 -5 507.89 26.19
0 2 -5 437.25 22.73
0 2 -5 451.32 26.81
0 2 -5 416.14 28.95
0 2 -5 453.3 28.2
0 2 -5 455.07 24.56
0 2 -5 437.96 28.79
0 2 -5 429.93 27.89
0 2 -5 427.26 27.06
0 2 -5 436.89 29.61
0 2 -5 484.23 29.31
0 2 -5 469.11 28.19
0 2 -5 419.33 25.94
0 2 -5 451.05 26.71
0 2 -5 515.58 30.37
0 2 -5 419.22 25.45
0 2 -4 1400.81 59.05
0 2 -4 1462.38 58.53
0 2 -4 1459.14 58
0 2 -4 1495.78 60.85
0 2 -4 1647.74 58.14
0 2 -4 1455.36 56.44
0 2 -4 1476.77 52.32
0 2 -4 1457.32 53.98
0 2 -4 1507.05 60.77
0 2 -4 1562.14 56.54
0 2 -4 1454.72 60.25
0 2 -4 1519.38 62.85
0 2 -4 1383.92 59.38
0 2 -4 1544.09 60.2
0 2 -4 1459.74 50.21
0 2 -4 1413.64 57.61
0 2 -4 1583.28 61.81
0 2 -4 1574.03 61.28
0 2 -4 1469.16 58.2
0 2 -3 1071.89 45.3
0 2 -3 1043.51 44.44
0 2 -3 1055.22 43.89
0 2 -3 1072.23 46.12
0 2 -3 1049.26 40.86
0 2 -3 1118.76 43.63
0 2 -3 1100.97 40.25
0 2 -3 1035.41 41.35
0 2 -3 1083.97 46.14
0 2 -3 1023 42.36
0 2 -3 1116.64 46.47
0 2 -3 1094.98 47.71
0 2 -3 1117.72 46.12
0 2 -3 1137.14 45.87
0 2 -3 1085.45 38.38
0 2 -3 1022.68 46.02
0 2 -3 1049.79 44.44
0 2 -2 2660.35 91.29
0 2 -2 2649.46 90.26
0 2 -2 2767.25 91.45
0 2 -2 2789.94 93.02
0 2 -2 2608.11 87.23
0 2 -2 2614.43 86.81
0 2 -2 2818.21 90.28
0 2 -2 2539.23 88.51
0 2 -2 2660.41 92.37
0 2 -2 2892.99 95.52
0 2 -2 2775.49 92.92
0 2 -2 2621.01 89.78
0 2 -2 2740.43 91.21
0 2 -2 2980.4 92.93
0 2 -2 2770.96 86.07
0 2 -2 2635.2 82.4
0 2 -2 2490.32 90.61
0 2 -2 2701.34 90.18
0 2 -1 592.98 22
0 2 -1 576.83 23.37
0 2 -1 549.35 19.84
0 2 -1 513.7 14.39
0 2 -1 496.3 19.16
0 2 -1 518.11 17.97
0 2 -1 538.94 20.91
0 2 -1 501.43 21.35
0 2 -1 596.95 22.07
0 2 -1 575.31 21.18
0 2 -1 536.46 20.92
0 2 -1 528.47 21.43
0 2 -1 455.83 19.4
0 2 -1 587.64 21.6
0 2 -1 477.19 18.76
0 2 0 3956.4 121.58
0 2 0 3278.14 124.8
0 2 0 3815.06 123.41
0 2 0 3860.18 124.66
0 2 0 3980.5 127.19
0 2 0 3950.42 127.74
0 2 0 3820.34 126.64
0 2 0 3781.86 126.51
0 2 0 3991.11 125.87
0 2 0 4442.7 130.42
0 2 0 3850.22 126.32
0 2 0 4075.65 124.74
0 2 0 4147.75 126.63
0 2 0 4282.74 121.96
0 2 1 7.83 2.45
0 2 1 3.6 2.06
0 2 1 1.85 1.35
0 2 1 0.57 0.74
0 2 1 1.71 1.81
0 2 1 7.94 2.83
0 2 1 11.07 3.37
0 2 1 0.49 1.27
0 2 1 2.54 1.62
0 2 1 1.14 1.49
0 2 1 5.22 2.09
0 2 1 2.01 1.46
0 2 1 1.21 1.05
0 2 2 2539.98 84.79
0 2 2 2449.13 88.58
0 2 2 2481.83 84.96
0 2 2 2243.72 80.63
0 2 2 2367.09 86.55
0 2 2 2493.64 85.79
0 2 2 2575.4 87.03
0 2 2 2420.44 85.06
0 2 2 2283.15 84.02
0 2 2 2372 82.14
0 2 3 87.82 9.81
0 2 3 105.18 12.08
0 2 3 91.3 9.42
0 2 3 91.27 11.87
0 2 3 75.67 5.76
0 2 3 98.37 11.88
0 2 3 98.4 11.19
0 2 3 87.1 10.47
0 2 3 88.49 10.85
0 2 3 93.75 11.36
0 2 3 92.62 10.66
0 2 3 91.69 10.84
0 2 4 2737.6 97.25
0 2 4 2549.71 103.08
0 2 4 2939.83 106.23
0 2 4 2922.59 104.51
0 2 4 2987.44 101.6
0 2 4 2991.42 105.87
0 2 4 2881.69 94.41
0 2 4 2801.45 103.47
0 2 4 2840.22 103.21
0 2 4 2778.71 100.46
0 2 4 2868.57 101.48
0 2 5 102.87 11.32
0 2 5 91.25 13.3
0 2 5 90.38 13.27
0 2 5 70.38 10.63
0 2 5 97.61 13.34
0 2 5 89.83 12.99
0 2 5 85.97 11.08
0 2 5 83.9 12.06
0 2 5 80.1 10.72
0 2 5 103 10.35
0 2 6 1497.98 61.21
0 2 6 1568.82 71.83
0 2 6 1624.3 72.17
0 2 6 1480.28 59.18
0 2 6 1302.1 59.84
0 2 6 1448.82 67.15
0 2 6 1547.11 68
0 2 6 1353.38 63.89
0 2 6 1574.39 63.79
0 2 7 173.86 18.71
0 2 7 185.89 20.33
0 2 7 177.22 21.73
0 2 8 1146.36 53.19
0 2 8 1241.89 61.49
0 2 8 1212.92 57.46
0 2 8 1261.92 63.32
0 2 9 96.84 15.2
0 2 9 118.33 19.09
0 2 9 111.16 16.18
0 2 9 89.71 16.45
0 2 9 137.8 20.98
0 2 10 534.21 39.21
0 2 10 498.41 40.97
0 2 10 581.58 46.94
0 2 10 596.62 46.37
0 2 10 524.94 43.8
0 2 11 321.6 30.78
0 2 11 341.78 35.71
0 2 11 348.51 36.44
0 2 11 402.49 40.05
0 2 11 362 34.58
0 2 12 180.08 26.89
0 2 12 202.13 28.06
0 2 12 189.75 28.63
0 2 12 177.08 25.18
0 2 13 128.74 23.51
0 2 13 191.1 26.08
0 2 13 173.38 27.99
0 3 -12 481.14 45.86
0 3 -12 680.18 52.57
0 3 -11 3.85 3.54
0 3 -11 1.95 3.57
0 3 -11 3.82 4.3
0 3 -11 1.76 2.29
0 3 -10 593.48 46.09
0 3 -10 686.39 49.85
0 3 -10 612.66 45.3
0 3 -9 778.13 51.78
0 3 -9 734 51.28
0 3 -9 707.77 49.04
0 3 -9 902.27 56.95
0 3 -8 453.29 35.51
0 3 -8 347.66 32.94
0 3 -8 373.54 32.26
0 3 -8 369.24 33.47
0 3 -7 85.29 14.79
0 3 -7 59.59 11.57
0 3 -7 90.16 14.54
0 3 -7 81.15 12.32
0 3 -7 83.07 14.06
0 3 -7 76.28 13.57
0 3 -6 1515.53 73.66
0 3 -6 1492.06 69.97
0 3 -6 1751.98 74.17
0 3 -6 1519.61 67.77
0 3 -6 1721.5 78.44
0 3 -6 1593.9 73.2
0 3 -6 1634.92 68.33
0 3 -6 1591.51 71.63
0 3 -5 606.9 30.54
0 3 -5 647.76 41.35
0 3 -5 528.29 35.58
0 3 -5 628.05 32.26
0 3 -5 585.76 37.49
0 3 -5 562.15 35.16
0 3 -5 575.69 35.3
0 3 -5 550.81 32.58
0 3 -5 548.53 33.12
0 3 -5 589.93 33.13
0 3 -5 585.97 36.88
0 3 -5 555.74 33.12
0 3 -5 500.26 30.18
0 3 -5 616.2 32.35
0 3 -4 933.62 45.19
0 3 -4 828.74 37.36
0 3 -4 837.64 39.73
0 3 -4 813.74 36.23
0 3 -4 887.28 39.71
0 3 -4 870.24 48.31
0 3 -4 852.45 45.6
0 3 -4 842.7 40.08
0 3 -4 941.44 45.26
0 3 -4 856.18 46.19
0 3 -4 864.19 43.95
0 3 -4 889.94 43.31
0 3 -4 913.05 35.73
0 3 -4 858.41 42.92
0 3 -4 820.59 40.82
0 3 -4 783.69 41.61
0 3 -4 862.06 44.85
0 3 -4 871.02 43.64
0 3 -4 829.87 41.61
0 3 -3 3503.45 70.2
0 3 -3 3513.95 69.71
0 3 -3 3195.46 60.22
0 3 -3 3350.97 54.74
0 3 -3 3518.08 56.73
0 3 -3 3486.37 62.79
0 3 -3 3416.63 69.95
0 3 -3 3830.62 76.15
0 3 -3 3539.46 64.67
0 3 -3 3454.19 65.99
0 3 -3 3492.24 68.25
0 3 -3 3538.8 68.61
0 3 -3 3809.55 55.84
0 3 -3 3480.72 67.6
0 3 -3 3426.29 67.32
0 3 -3 3365.14 64.04
0 3 -3 3315.04 67.73
0 3 -3 3062.93 63.76
0 3 -2 96.54 12.21
0 3 -2 67.37 9.8
0 3 -2 64.98 9.47
0 3 -2 70.47 8.73
0 3 -2 70.9 7.04
0 3 -2 63.31 8.99
0 3 -2 85.85 9.62
0 3 -2 67.7 8.33
0 3 -2 80.89 10.03
0 3 -2 81.33 11.47
0 3 -2 82.39 10.54
0 3 -2 95.76 11.81
0 3 -2 71.74 10.44
0 3 -2 82.05 10.54
0 3 -2 73.04 10.12
0 3 -2 77.71 10.39
0 3 -2 98.96 11.13
0 3 -1 846.24 42.64
0 3 -1 874.35 36.35
0 3 -1 924.16 41.38
0 3 -1 869.32 28.78
0 3 -1 883.21 34.43
0 3 -1 782.37 39.43
0 3 -1 834.33 34.33
0 3 -1 906.48 38.03
0 3 -1 888.42 39.22
0 3 -1 906.98 42.21
0 3 -1 833.13 42.55
0 3 -1 871.13 40.7
0 3 -1 897.68 41.72
0 3 -1 800.23 40.19
0 3 -1 896.57 40.26
0 3 -1 867.87 40.84
0 3 -1 846.04 40.05
0 3 -1 844.45 38.88
0 3 0 715.32 29.95
0 3 0 701.04 31.12
0 3 0 701.25 33.99
0 3 0 715.38 33.35
0 3 0 759.66 38.55
0 3 0 794.5 39.11
0 3 0 675.87 35.52
0 3 0 808.85 37.98
0 3 0 787.95 36.37
0 3 0 782.29 36.64
0 3 0 751.3 27.27
0 3 0 676.04 34.48
0 3 0 745.94 37.47
0 3 0 811.85 39.84
0 3 1 2093.01 78.7
0 3 1 2179.4 77.92
0 3 1 2170.39 80.35
0 3 1 2114.15 84.96
0 3 1 2347.76 84.74
0 3 1 2286.21 84.31
0 3 1 2023.09 81.95
0 3 1 2307.27 81.66
0 3 1 2165.9 77.25
0 3 1 2191.86 81.14
0 3 1 2057.9 78.53
0 3 1 2026.45 81.08
0 3 1 2267.06 83.09
0 3 1 2244.19 84.24
0 3 2 420.15 26.64
0 3 2 421.51 29.39
0 3 2 447.04 27.87
0 3 2 361.37 23.31
0 3 2 439.89 28.54
0 3 2 422.35 25.46
0 3 2 484.59 27.76
0 3 2 417.94 26.56
0 3 2 412.74 27.24
0 3 2 463.61 29.04
0 3 2 365.84 23.56
0 3 3 2709.74 99.28
0 3 3 2914.02 105.08
0 3 3 3079.21 110.16
0 3 3 2678.45 103.54
0 3 3 2587.48 98.28
0 3 3 2975.91 106.26
0 3 3 2823.83 105.65
0 3 3 2785.77 101.72
0 3 3 2776.99 103.77
0 3 3 2986.08 108
0 3 3 2901.14 105.12
0 3 3 2986.94 106.27
0 3 4 29.78 7.44
0 3 4 28.37 8.3
0 3 4 18.92 5.94
0 3 4 19.27 6.05
0 3 4 20.72 5.22
0 3 4 29.15 7.65
0 3 4 33.47 7.48
0 3 4 30.31 6.55
0 3 4 38.72 8.58
0 3 4 30.51 7.31
0 3 4 23.89 6.76
0 3 5 1722.23 67.81
0 3 5 1633.86 77.57
0 3 5 1667.01 75.45
0 3 5 1513.23 71.03
0 3 5 1711.49 74.89
0 3 5 1704.61 71.85
0 3 5 1724.76 73.54
0 3 5 1622.43 62.6
0 3 6 90.14 13.76
0 3 6 99.62 14.98
0 3 6 91.36 15.03
0 3 6 103.04 16.42
0 3 6 99.02 14.03
0 3 7 741.55 46.06
0 3 7 855.32 53.4
0 3 7 857.81 53.04
0 3 7 837.25 50.35
0 3 8 5.28 3.83
0 3 8 6.54 4.75
0 3 8 1.48 1.92
0 3 9 949.74 56.56
0 3 9 981.89 60.09
0 3 9 1041.8 64.57
0 3 10 147.54 20.76
0 3 10 151.57 22.08
0 3 10 134.26 22.3
0 3 10 154.62 23.75
0 3 11 360.82 34.12
0 3 11 462.72 40.63
0 3 11 436.73 42.43
0 3 11 375.49 39.11
0 3 12 277.42 32.17
0 3 12 226.02 30.59
0 3 12 198.13 28.62
0 3 12 252.64 33.32
0 4 -12 8.65 6.88
0 4 -11 689.53 50.29
0 4 -11 655.05 49.23
0 4 -10 9.31 5.92
0 4 -10 -2.06 3.79
0 4 -10 1.82 4.09
0 4 -10 1.93 2.51
0 4 -9 580.13 41.96
0 4 -9 610.36 42.7
0 4 -9 566.47 42.68
0 4 -8 234.23 25.31
0 4 -8 164.24 20.72
0 4 -8 183.17 23.6
0 4 -8 216.05 24.85
0 4 -7 471.83 36.05
0 4 -7 460.72 33.03
0 4 -7 458.39 33.46
0 4 -7 453.45 30.49
0 4 -7 435.57 33.39
0 4 -7 478.07 35.87
0 4 -6 325.75 28.82
0 4 -6 353.55 27.85
0 4 -6 346.58 27.77
0 4 -6 341.6 25.89
0 4 -6 345.19 28.56
0 4 -6 380.78 30.68
0 4 -5 1324.6 55.97
0 4 -5 1245.96 50.2
0 4 -5 1400.6 52.61
0 4 -5 1270.97 48.77
0 4 -5 1193.87 46.61
0 4 -5 1255.71 52.32
0 4 -5 1278.47 54.5
0 4 -4 746.13 40.36
0 4 -4 652.66 37.99
0 4 -4 703.3 36.47
0 4 -4 730.97 36.02
0 4 -4 668.04 34.83
0 4 -4 707.37 37.35
0 4 -4 753.57 33.88
0 4 -3 599.85 34.41
0 4 -3 557.7 37.38
0 4 -3 485.5 33.3
0 4 -3 618.81 35.21
0 4 -3 509.4 33.55
0 4 -3 538.53 35.1
0 4 -3 500.35 28.61
0 4 -2 970.08 43.99
0 4 -2 1007.39 44.43
0 4 -2 902.05 48.03
0 4 -2 1036.15 53.53
0 4 -2 1002.47 48.01
0 4 -2 939.47 48.97
0 4 -2 1008.85 47.6
0 4 -2 829.76 44.83
0 4 -2 1108.64 51.45
0 4 -2 998.74 47.88
0 4 -2 1034.06 48.09
0 4 -2 941.22 48.63
0 4 -1 742.92 36.5
0 4 -1 769.46 38.58
0 4 -1 733.2 43.71
0 4 -1 795.9 40.93
0 4 -1 795.92 39.88
0 4 -1 770.15 41.75
0 4 -1 765.78 42.81
0 4 -1 763.29 33.61
0 4 -1 785.31 40.56
0 4 -1 764.9 38.74
0 4 -1 726.69 39.9
0 4 0 1047.8 52.22
0 4 0 934.82 51.3
0 4 0 974.76 46.82
0 4 0 934.74 43.81
0 4 0 1014.24 47.82
0 4 0 937.47 45.06
0 4 0 850.75 39.92
0 4 0 1003.89 42.28
0 4 0 965.12 46.84
0 4 0 1015.34 50.2
0 4 1 192.72 20.24
0 4 1 176.83 15.74
0 4 1 223.61 19.45
0 4 1 194.68 20.76
0 4 1 201.72 18.42
0 4 1 170.49 16.04
0 4 1 184.12 17.28
0 4 1 176.04 18.66
0 4 2 1976.09 79.17
0 4 2 2049.03 85.41
0 4 2 2070.5 82.85
0 4 2 2039.31 88.54
0 4 2 2013.99 85.38
0 4 2 2071.1 79.5
0 4 3 39.93 7.93
0 4 3 39.08 8.99
0 4 3 43.71 9.62
0 4 3 31.84 8.07
0 4 3 37.03 9.77
0 4 3 28.62 7.06
0 4 4 1170.8 59.77
0 4 4 1063.77 53.06
0 4 4 1276.28 62.41
0 4 4 1132.23 63.36
0 4 4 1136.55 58.74
0 4 4 1331.37 64.22
0 4 5 180.45 20.97
0 4 5 190.18 18.73
0 4 5 168.11 20.77
0 4 5 198.73 22.05
0 4 5 223.18 25.54
0 4 5 186.97 21.6
0 4 6 772.04 48.56
0 4 6 859.53 52.01
0 4 6 818.93 50.95
0 4 6 740.12 51.97
0 4 6 754.96 47.73
0 4 7 58.42 12.94
0 4 7 75.13 14.9
0 4 7 61.23 14.48
0 4 7 58.83 12.99
0 4 8 894.64 55.65
0 4 8 926.99 59.7
0 4 8 993.29 63.15
0 4 8 933.3 59.13
0 4 9 33.58 10.03
0 4 9 56.08 13.78
0 4 9 42.61 12.04
0 4 10 508.93 41.9
0 4 10 523.18 44.53
0 4 10 487.17 44.65
0 4 11 10.59 6.07
0 4 11 6.48 4.87
0 4 11 11.91 6.82
0 4 11 13 7.96
0 4 12 206.07 29.98
0 5 -10 402.49 40.81
0 5 -10 501.29 44.5
0 5 -9 55.22 14.33
0 5 -9 32.9 10.98
0 5 -9 68.55 16.8
0 5 -9 57.69 14.41
0 5 -8 490.14 42.08
0 5 -8 509.59 46.08
0 5 -8 503.4 42.89
0 5 -8 405.94 36.85
0 5 -8 469.53 40.25
0 5 -7 36.49 11.08
0 5 -7 23.55 8.69
0 5 -7 29.95 10.01
0 5 -7 31.72 9.44
0 5 -6 923.95 52.33
0 5 -6 839.29 55.03
0 5 -6 820.65 52.55
0 5 -6 804.92 54.35
0 5 -6 815.84 51.49
0 5 -5 330.17 29.13
0 5 -5 406.37 35.03
0 5 -5 302.9 29.24
0 5 -5 349.72 33.15
0 5 -5 356.73 30.98
0 5 -4 620.16 41.16
0 5 -4 637.36 45.34
0 5 -4 596.05 41.79
0 5 -4 651.73 45.52
0 5 -4 667.91 43.19
0 5 -3 395.71 31.74
0 5 -3 457.19 36.13
0 5 -3 364.39 30.4
0 5 -3 402.22 30.67
0 5 -3 335.14 29.42
0 5 -2 351.38 29.64
0 5 -2 367.29 32.66
0 5 -2 407.61 31.53
0 5 -2 375.37 30.16
0 5 -2 353.85 28.98
0 5 -1 822.11 50.88
0 5 -1 849.51 48.7
0 5 -1 821.67 48.7
0 5 -1 759.18 45.18
0 5 0 750.39 48.72
0 5 0 863.39 45.63
0 5 0 778.37 47.46
0 5 0 754.5 43.78
0 5 0 766.35 46.78
0 5 0 741.92 47.63
0 5 1 818.02 50.68
0 5 1 828.17 51.63
0 5 1 817.86 45.62
0 5 1 703.13 42.61
0 5 1 868.65 49.87
0 5 2 248.7 23.11
0 5 2 185.01 23.2
0 5 2 203.96 19.98
0 5 2 188.56 22.19
0 5 3 553.6 40.21
0 5 3 561.28 36.57
0 5 3 574.54 41.78
0 5 3 582.86 44.36
0 5 3 663.86 41.15
0 5 3 639.32 44.79
0 5 4 42.91 11.47
0 5 4 25.38 8.7
0 5 4 20.76 7.18
0 5 4 25.34 9.08
0 5 4 26.08 8.94
0 5 5 1312.66 70.65
0 5 5 1374.43 73.08
0 5 5 1441.73 71.98
0 5 5 1327.28 75.55
0 5 5 1338.63 72.39
0 5 6 50.37 12.16
0 5 6 40.25 11.6
0 5 6 49.23 11.89
0 5 6 45.24 13.02
0 5 6 51.74 12.29
0 5 7 433.33 37.93
0 5 7 456.27 39.33
0 5 7 502.12 44.29
0 5 7 477.87 40.87
0 5 8 1.72 3.87
0 5 8 -1.8 2.34
0 5 8 2.06 3.79
0 5 8 7.47 5.42
0 5 9 339.73 34.89
0 5 9 416.63 39.89
0 5 9 393.71 38.58
0 5 10 27.76 9.93
0 5 10 22.63 9.65
0 5 10 16.43 8.02
0 5 11 406 39.46
0 6 -9 491.06 45.38
0 6 -9 478.16 45.73
0 6 -8 31.04 11.42
0 6 -8 22.79 9.73
0 6 -8 28.97 10.28
0 6 -7 484.13 44.04
0 6 -7 452.03 40.09
0 6 -7 513.43 42.82
0 6 -7 584.92 47.7
0 6 -6 87.39 16.03
0 6 -6 111.29 19.96
0 6 -6 89.86 17.06
0 6 -6 90.72 17.08
0 6 -6 104.34 19.46
0 6 -5 395.16 34.56
0 6 -5 406.29 38.32
0 6 -5 377 34.54
0 6 -5 407.22 35.74
0 6 -5 391.43 37.47
0 6 -4 91.95 16.09
0 6 -4 74.57 16.2
0 6 -4 84.91 15.72
0 6 -4 90.69 15.87
0 6 -4 90.74 17.33
0 6 -3 485.59 38.72
0 6 -3 526.58 40.35
0 6 -3 471.49 37.43
0 6 -3 574.51 44.81
0 6 -2 197.06 25.27
0 6 -2 149.83 20.62
0 6 -2 195.94 23.39
0 6 -2 159.32 21.41
0 6 -2 170.67 20.94
0 6 -1 691.84 47.47
0 6 -1 704.98 48.65
0 6 -1 712.51 45.78
0 6 -1 779.47 52.6
0 6 0 782.16 50.89
0 6 0 860.77 54.55
0 6 0 705.84 45.48
0 6 0 780.41 53.92
0 6 1 130.39 19.32
0 6 1 98.05 15.34
0 6 1 128.34 20.14
0 6 1 132.72 19.63
0 6 2 381.02 34.94
0 6 2 375.96 36.91
0 6 3 186.98 24.29
0 6 3 209.82 23.43
0 6 3 195.79 26.23
0 6 3 201.03 26.15
0 6 4 205.61 25.57
0 6 4 222.57 27.2
0 6 4 228.61 29.06
0 6 4 281.36 27.96
0 6 4 190.9 25.67
0 6 5 203.46 25.78
0 6 5 206.54 26.51
0 6 5 191.77 23.85
0 6 5 200.54 27.8
0 6 5 200.65 26.34
0 6 6 972.6 62.8
0 6 6 1094.42 67.39
0 6 6 1050.19 63.3
0 6 6 1047.14 69.23
0 6 6 1005.96 63.85
0 6 7 5.56 4.81
0 6 7 3.54 3.25
0 6 7 6.57 5.69
0 6 7 3.98 4.48
0 6 8 239.62 29.4
0 6 8 268.75 31.23
0 6 8 226.39 31.58
0 6 8 224.28 29.71
0 6 9 5.89 4.42
0 6 9 6.45 5.58
0 6 9 9.94 6.83
0 6 9 4.66 6.05
0 7 -7 24.29 10.36
0 7 -7 22.38 9.4
0 7 -6 239.57 31.79
0 7 -6 219.54 27.96
0 7 -6 251.25 32.17
0 7 -5 48.78 13.08
0 7 -5 42.52 13.33
0 7 -5 60.45 14.09
0 7 -5 72.54 17.14
0 7 -4 646.37 47.99
0 7 -4 652.39 52.26
0 7 -4 610.55 47.39
0 7 -4 582.54 45.31
0 7 -4 608.56 51.03
0 7 -3 50.67 13.29
0 7 -3 40.3 11.67
0 7 -3 41.25 11.35
0 7 -3 44.81 13.28
0 7 -2 278.56 30.74
0 7 -2 314.14 34.53
0 7 -2 262.57 29.86
0 7 -1 137.74 21.51
0 7 -1 134.85 21.98
0 7 -1 142.1 23.26
0 7 -1 144.35 21.81
0 7 0 259.14 31.23
0 7 0 249.06 30.07
0 7 0 262.52 30.32
0 7 1 249.97 30.92
0 7 1 287.91 32.05
0 7 2 276.7 32.92
0 7 2 257.67 30.63
0 7 2 249.83 30.01
0 7 2 273.29 32.72
0 7 3 248.46 30.36
0 7 3 340.98 36.95
0 7 3 286.85 33.69
0 7 4 106.35 19.83
0 7 4 95.13 20.27
0 7 4 114.64 21.47
0 7 5 234.92 29.53
0 7 5 239.74 31.9
0 7 5 226.92 30.07
0 7 6 48.32 13.65
0 7 6 46.42 14.2
0 7 6 51.11 14.17
0 7 7 258.92 32.42
0 7 7 331.11 37.06
0 8 -3 370.57 37.53
0 8 -2 41.47 12.87
0 8 -1 336.17 36.15
0 8 -1 325.43 36.09
0 8 -1 398.42 40.84
0 8 0 56.14 14.6
0 8 0 68.52 16.23
0 8 0 66.16 17.11
0 8 1 125.26 23.41
0 8 1 136.78 24.02
0 8 1 141.48 23.67
0 8 2 110.83 22.34
0 8 2 117.01 21.78
0 8 3 151.64 25.33
1 -8 1 105.87 21.5
1 -7 -5 266.77 36.3
1 -7 -5 236.17 34.41
1 -7 -4 2.49 3.23
1 -7 -4 -2.5 3.24
1 -7 -3 230.3 33.21
1 -7 -3 297.81 37.54
1 -7 -2 89.9 20.24
1 -7 -2 48.34 14.78
1 -7 -2 93.19 20.39
1 -7 -1 473.31 45.21
1 -7 -1 344.94 40.72
1 -7 -1 483.71 47.14
1 -7 -1 473.03 45.4
1 -7 0 90.2 19.63
1 -7 0 115.41 21.68
1 -7 0 120.39 19.09
1 -7 0 97.74 21.19
1 -7 0 81.07 18.18
1 -7 1 229.17 30.24
1 -7 1 293.19 29.72
1 -7 1 253.69 31.89
1 -7 1 207.35 29.83
1 -7 1 196 29.47
1 -7 2 63.59 15.61
1 -7 2 95.38 19.44
1 -7 2 108.29 20.14
1 -7 2 81.44 18.61
1 -7 3 292.4 34.49
1 -7 3 267.62 33.09
1 -7 3 261.11 31.77
1 -7 4 210.76 27.85
1 -7 4 211.43 29.14
1 -7 4 205.12 29.01
1 -7 4 203.3 27.37
1 -7 5 189.2 26.49
1 -7 5 189.45 27.34
1 -7 5 133.28 24.11
1 -7 6 317.88 34.79
1 -7 6 277.26 33.5
1 -7 6 260.78 33.23
1 -6 -8 225.15 32.45
1 -6 -8 244.88 34.93
1 -6 -8 182.91 29.91
1 -6 -7 2.58 8.87
1 -6 -7 2.47 5.56
1 -6 -7 4.58 4.21
1 -6 -6 317.39 39.37
1 -6 -6 395.97 40.54
1 -6 -6 282.85 37.27
1 -6 -5 2.38 3.09
1 -6 -5 -2.35 0.02
1 -6 -5 2.03 2.64
1 -6 -4 779.4 60.44
1 -6 -4 846.25 58.06
1 -6 -4 726.46 59.47
1 -6 -3 -1.78 2.32
1 -6 -3 8.7 6.31
1 -6 -3 -1.39 2.54
1 -6 -3 4.28 4.81
1 -6 -2 357.88 38.31
1 -6 -2 389.41 32.43
1 -6 -2 314.54 35.91
1 -6 -2 349.35 33.97
1 -6 -1 44.25 13.15
1 -6 -1 50.21 13.59
1 -6 -1 53.2 14.09
1 -6 -1 55.74 12.84
1 -6 -1 57.88 12.56
1 -6 -1 61.72 12.71
1 -6 0 518.53 44.31
1 -6 0 656.98 43.75
1 -6 0 536.45 46.28
1 -6 0 571.52 46.63
1 -6 0 550.12 46.92
1 -6 1 154.09 22.45
1 -6 1 147.21 19.88
1 -6 1 140.45 22.83
1 -6 1 135.19 22.36
1 -6 1 151.39 22.55
1 -6 2 774.49 52.99
1 -6 2 700.73 50.14
1 -6 2 669.11 51.98
1 -6 2 670.3 52.17
1 -6 3 155.24 22.38
1 -6 3 155.27 23.49
1 -6 3 137.36 20.36
1 -6 3 154.98 21.85
1 -6 3 122.79 18
1 -6 3 126.8 21.34
1 -6 4 257.32 28.96
1 -6 4 286 31.68
1 -6 4 274.48 29.8
1 -6 4 300.64 30.74
1 -6 4 264.73 30.68
1 -6 5 264.1 29.22
1 -6 5 243.14 29.49
1 -6 5 301.86 31.28
1 -6 5 246.54 29.79
1 -6 5 275.88 30.23
1 -6 6 313.89 33.21
1 -6 6 287.56 31.29
1 -6 6 236.3 29.6
1 -6 6 271.56 30.81
1 -6 7 283.67 31.86
1 -6 7 284.93 31.82
1 -6 7 262.18 31.17
1 -6 7 282.29 31.9
1 -6 8 93.34 18.23
1 -6 8 112.5 19.98
1 -6 8 100.05 19.44
1 -6 8 98.35 19.33
1 -6 9 235.15 30.24
1 -6 9 215.32 28.54
1 -6 9 219.01 28.93
1 -5 -10 132.31 24.97
1 -5 -9 424.63 44.92
1 -5 -9 436.68 48.28
1 -5 -9 556.23 50.65
1 -5 -9 441.26 47.04
1 -5 -8 31.53 11.36
1 -5 -8 22.06 10.1
1 -5 -8 33.82 13.11
1 -5 -8 34.39 12.3
1 -5 -7 326.81 38.82
1 -5 -7 407.28 34.43
1 -5 -7 434.04 42.35
1 -5 -7 387.77 42.17
1 -5 -7 462.05 46.79
1 -5 -6 75.99 17.98
1 -5 -6 47.66 14.19
1 -5 -6 61.49 15.35
1 -5 -6 74.49 14
1 -5 -6 69.3 16.2
1 -5 -5 175.65 24.86
1 -5 -5 212.11 29.27
1 -5 -5 217.47 29.13
1 -5 -5 202.47 22.67
1 -5 -5 163.06 25.7
1 -5 -4 55.82 14.97
1 -5 -4 63.99 15.68
1 -5 -4 69.74 14.92
1 -5 -4 63.04 12.59
1 -5 -4 58.74 15.21
1 -5 -3 1754.13 97.09
1 -5 -3 1862.35 99.4
1 -5 -3 2110.26 88.18
1 -5 -3 1894.62 97.54
1 -5 -3 2175.58 95.33
1 -5 -2 102.28 15.53
1 -5 -2 140.27 22.21
1 -5 -2 137.44 18.03
1 -5 -2 143.66 23.01
1 -5 -2 142.97 21.67
1 -5 -2 135.92 19.12
1 -5 -1 625.44 47.14
1 -5 -1 785.14 47.42
1 -5 -1 740.49 44.95
1 -5 -1 693.14 50.67
1 -5 0 12.6 5.67
1 -5 0 9.72 4.74
1 -5 0 11 5.77
1 -5 0 16.33 7.35
1 -5 0 4.62 4.48
1 -5 1 433.95 37.86
1 -5 1 524.65 39.53
1 -5 1 467.72 37.77
1 -5 1 506.21 35.95
1 -5 1 509.87 40.46
1 -5 2 48.26 11.83
1 -5 2 46.5 10.7
1 -5 2 33.34 9.21
1 -5 2 36.92 10.15
1 -5 2 25.02 7.9
1 -5 2 30.8 8.48
1 -5 2 34.79 10.11
1 -5 3 1481.46 71.32
1 -5 3 1469.33 76.23
1 -5 3 1413.78 71.87
1 -5 3 1406.42 72.39
1 -5 3 1492.13 70.07
1 -5 3 1576.17 74.2
1 -5 3 1370.98 74.86
1 -5 4 495.12 39.84
1 -5 4 476.89 35.04
1 -5 4 462 37.06
1 -5 4 510.95 38.33
1 -5 4 478.96 37.51
1 -5 4 546.55 37.09
1 -5 4 477.02 39.26
1 -5 5 372.85 33.93
1 -5 5 449.54 35.95
1 -5 5 323.92 32.63
1 -5 5 355.99 32.6
1 -5 6 356.72 33.78
1 -5 6 390.6 34.64
1 -5 6 410.72 36.41
1 -5 6 399.73 35.07
1 -5 7 380.59 35.09
1 -5 7 446.09 37.56
1 -5 7 351.64 34.81
1 -5 7 367.45 35.08
1 -5 8 156.95 22.74
1 -5 8 148.93 22.38
1 -5 8 189.92 25.27
1 -5 8 179.22 24.52
1 -5 9 195.44 26.42
1 -5 9 125.63 20.36
1 -5 9 160.03 23.81
1 -5 10 301.94 34.26
1 -5 10 255.72 30.86
1 -5 10 322.96 33.35
1 -4 -11 124.72 24.76
1 -4 -11 153.75 24.59
1 -4 -11 131.13 26.36
1 -4 -10 211.93 32.53
1 -4 -10 180.46 29.93
1 -4 -9 165.96 26.43
1 -4 -9 136.04 25.69
1 -4 -9 169.2 22.28
1 -4 -8 410.45 41.31
1 -4 -8 405.22 43.06
1 -4 -8 468.35 36.91
1 -4 -7 114.54 20.68
1 -4 -7 193.19 21.97
1 -4 -7 191.08 28.02
1 -4 -6 973.63 60.54
1 -4 -6 781.53 55.04
1 -4 -6 880.93 61.63
1 -4 -6 812.18 48.68
1 -4 -5 65.91 15
1 -4 -5 100.15 17.64
1 -4 -5 101.21 18.84
1 -4 -5 113.49 20.15
1 -4 -5 92.75 14.39
1 -4 -4 956.43 61.55
1 -4 -4 1023.85 53.48
1 -4 -4 1073.89 64.16
1 -4 -4 1036.26 64.47
1 -4 -4 1033.41 59.94
1 -4 -3 18.94 7.68
1 -4 -3 22.66 8.42
1 -4 -3 33.29 9
1 -4 -3 16.76 8.16
1 -4 -3 1.06 8.08
1 -4 -2 1213.19 57.86
1 -4 -2 1146.2 65.16
1 -4 -2 1176.59 65.02
1 -4 -2 1227.49 61.15
1 -4 -2 1092.62 65.82
1 -4 -2 1204.68 58.28
1 -4 -1 8.37 4.79
1 -4 -1 4 3.46
1 -4 -1 3.84 3.05
1 -4 -1 1.07 1.39
1 -4 -1 1.02 2.97
1 -4 -1 -1.58 2.06
1 -4 0 1493.22 79.13
1 -4 0 1710.43 78.62
1 -4 0 1628.35 75.99
1 -4 0 1634.01 71.15
1 -4 0 1773.11 72.87
1 -4 0 1550.34 68.86
1 -4 0 1693.26 72.01
1 -4 1 16.66 5.57
1 -4 1 14.55 5.42
1 -4 1 13.48 4.83
1 -4 1 14.03 5.7
1 -4 1 13.94 5.95
1 -4 1 19.75 6.41
1 -4 1 15.11 5.18
1 -4 1 23.56 6.49
1 -4 1 19.12 6.18
1 -4 1 20.7 7.34
1 -4 1 13.06 4.31
1 -4 2 1819.76 70.03
1 -4 2 1647.03 78.49
1 -4 2 1622.5 74.62
1 -4 2 1838.27 77.95
1 -4 2 1631.27 70.86
1 -4 2 1792.77 77.14
1 -4 2 1856.49 77.36
1 -4 2 1780.37 74.44
1 -4 2 1626.52 78.66
1 -4 3 334.76 28.07
1 -4 3 367.69 27.76
1 -4 3 379.88 30.97
1 -4 3 370.58 29.16
1 -4 3 351.37 28.5
1 -4 3 362.1 27.68
1 -4 3 402.15 32.42
1 -4 4 901.08 49.87
1 -4 4 882.44 50.56
1 -4 4 893.96 51.91
1 -4 4 890.6 46.63
1 -4 4 1028.32 53.49
1 -4 4 918.58 48.54
1 -4 4 891.43 52.74
1 -4 5 95.68 14.94
1 -4 5 97.09 15.35
1 -4 5 78.79 12.72
1 -4 5 96.57 15.07
1 -4 5 99.04 15.89
1 -4 6 541.42 39.61
1 -4 6 562.72 40.12
1 -4 6 600.18 38.14
1 -4 6 668.26 42.83
1 -4 6 508.52 39.48
1 -4 7 433.22 35.22
1 -4 7 398.54 33.22
1 -4 7 392.98 33.29
1 -4 7 328.54 31.4
1 -4 8 677.35 47.42
1 -4 8 609.92 43.87
1 -4 8 685.91 46.65
1 -4 8 629.76 45.82
1 -4 9 486.3 41.1
1 -4 9 484.72 39.26
1 -4 9 525.47 41.65
1 -4 9 543.04 42.49
1 -4 10 184.46 24.88
1 -4 10 212.98 27.35
1 -4 11 111.13 19.92
1 -4 11 102.26 18.81
1 -4 11 138.9 22.99
1 -4 12 38.03 12.31
1 -3 -12 309.71 33.54
1 -3 -12 259.01 35.16
1 -3 -11 68.4 17.54
1 -3 -11 99.57 22.16
1 -3 -11 113.92 19.4
1 -3 -11 117.11 21.35
1 -3 -10 351.21 39.34
1 -3 -10 320.66 38.82
1 -3 -10 356.75 34.18
1 -3 -10 409.4 39.04
1 -3 -9 351.55 32.36
1 -3 -9 304.7 35.19
1 -3 -9 309.44 36.63
1 -3 -8 164.29 24.09
1 -3 -8 135.83 23.2
1 -3 -8 138.95 18.7
1 -3 -7 674.57 46.16
1 -3 -7 640.12 46.92
1 -3 -7 752.8 40.97
1 -3 -6 397.79 33.79
1 -3 -6 385.91 35.04
1 -3 -6 413.2 32.96
1 -3 -6 421.95 29.37
1 -3 -5 969.58 53.18
1 -3 -5 859.09 47.41
1 -3 -5 979.42 50.21
1 -3 -5 983.11 43.07
1 -3 -4 247.9 26.75
1 -3 -4 268.22 22.45
1 -3 -4 274.96 26.15
1 -3 -4 243.88 26.09
1 -3 -4 248.96 21.35
1 -3 -4 269.53 22.79
1 -3 -3 1956.39 75.21
1 -3 -3 1947.71 77.91
1 -3 -3 1861.98 81.32
1 -3 -3 1668.24 78.38
1 -3 -3 2070.31 88.52
1 -3 -3 1628.21 82.13
1 -3 -3 1926.14 75.94
1 -3 -3 1929.31 82.4
1 -3 -3 2060.3 74.76
1 -3 -3 1821.56 86
1 -3 -2 26.23 6.52
1 -3 -2 27.31 6.58
1 -3 -2 24.69 6.97
1 -3 -2 20.22 5.21
1 -3 -2 16.74 5.75
1 -3 -2 17.43 6.43
1 -3 -2 23.23 5.43
1 -3 -2 11.53 4.54
1 -3 -2 18.9 5.09
1 -3 -2 43.67 7.78
1 -3 -2 15.72 6.16
1 -3 -1 1715.51 76.39
1 -3 -1 1791.59 65.37
1 -3 -1 1613.15 68.92
1 -3 -1 1624.15 68.62
1 -3 -1 1464.27 70.4
1 -3 -1 1524.51 69.85
1 -3 -1 1691 67.03
1 -3 -1 1660.59 66.22
1 -3 -1 1672.9 60.01
1 -3 -1 1454.86 64.55
1 -3 -1 1685.35 63.68
1 -3 -1 1657.74 57.35
1 -3 0 45.02 9.98
1 -3 0 46.22 7.94
1 -3 0 38.93 7.51
1 -3 0 44.04 8.3
1 -3 0 44.13 8.4
1 -3 0 60.65 10.49
1 -3 0 48.89 9.3
1 -3 0 38.58 7.27
1 -3 0 60.77 6.42
1 -3 0 41.09 8.02
1 -3 0 48.54 6.46
1 -3 0 36.03 6.79
1 -3 0 30.97 6.83
1 -3 1 2523.75 90.39
1 -3 1 2386.93 99
1 -3 1 2445.71 91.58
1 -3 1 2562.04 93.22
1 -3 1 2580.43 91.14
1 -3 1 2467.31 95.64
1 -3 1 2155.76 89.58
1 -3 1 2599.62 94.32
1 -3 1 2387.27 95.47
1 -3 1 2563.34 93.56
1 -3 1 2350.5 88.82
1 -3 1 2421.11 89.61
1 -3 1 2389 90.93
1 -3 1 2626.36 86.68
1 -3 1 2550.7 90.37
1 -3 1 2590.16 91.88
1 -3 2 111.65 14.64
1 -3 2 102.48 14.58
1 -3 2 107.88 13.3
1 -3 2 120.06 13.48
1 -3 2 111.58 11.62
1 -3 2 136.51 15.55
1 -3 2 112.19 14.41
1 -3 2 129.34 13.64
1 -3 2 123.93 13.63
1 -3 2 121.85 13.82
1 -3 2 107.05 10.66
1 -3 2 116.34 11.43
1 -3 2 118.71 13.71
1 -3 2 137.96 12.77
1 -3 2 130.04 13.47
1 -3 2 123.32 13.2
1 -3 3 1719.8 74.77
1 -3 3 1702.64 69.65
1 -3 3 1678.09 71.55
1 -3 3 1794.92 63.92
1 -3 3 1665.44 68.02
1 -3 3 1682.79 67.56
1 -3 3 1742.87 73.29
1 -3 3 1617.47 69.42
1 -3 3 1788.81 69.67
1 -3 3 1801.51 64.41
1 -3 3 1757.16 71.82
1 -3 3 1681.4 68.23
1 -3 3 1639.63 68.32
1 -3 3 1751.32 67.77
1 -3 4 97.63 13.32
1 -3 4 90.94 11.97
1 -3 4 79.72 11.02
1 -3 4 75.79 12.02
1 -3 4 85.23 10.51
1 -3 4 74.82 10.33
1 -3 4 85.81 11.87
1 -3 4 82.9 12.09
1 -3 4 85.7 11.14
1 -3 4 94.17 13.54
1 -3 4 75.81 8.86
1 -3 5 1561.93 60.47
1 -3 5 1416.93 66.74
1 -3 5 1513.8 67.91
1 -3 5 1316.93 62.08
1 -3 5 1489.54 69.54
1 -3 5 1590.32 69.21
1 -3 5 1675.16 67.62
1 -3 6 172.26 19.2
1 -3 6 212.3 21.6
1 -3 6 232.13 19.83
1 -3 6 190.77 20.52
1 -3 6 183.86 18.87
1 -3 6 193.94 21.15
1 -3 7 980.07 56.07
1 -3 7 1014.38 55.15
1 -3 7 1076.88 54.5
1 -3 7 1008.2 56.36
1 -3 8 454.75 36.02
1 -3 8 417.48 33.45
1 -3 8 487.11 36.82
1 -3 8 476.73 34.28
1 -3 8 499.06 37.85
1 -3 9 256.4 27.66
1 -3 9 294.08 29.05
1 -3 9 269.34 27.95
1 -3 10 248.91 28.53
1 -3 10 256.57 28
1 -3 10 253.04 27.68
1 -3 10 223.55 26.09
1 -3 11 477.19 41.89
1 -3 11 424.83 38.02
1 -3 11 435.64 38.58
1 -3 12 272.98 32.64
1 -3 12 266.88 30.41
1 -3 12 268.2 30.44
1 -3 13 74.96 17.27
1 -2 -12 251.07 35.09
1 -2 -12 258.27 32.69
1 -2 -12 211.52 31.06
1 -2 -12 246.07 30.08
1 -2 -11 111.63 22.44
1 -2 -11 127.71 21.91
1 -2 -11 73.25 18.01
1 -2 -11 112.05 19.41
1 -2 -11 110.59 21.19
1 -2 -10 93.45 20.01
1 -2 -10 104.59 19
1 -2 -10 85.16 18.52
1 -2 -10 123.15 19.52
1 -2 -10 99.4 19.53
1 -2 -9 837.65 53.38
1 -2 -9 832.01 55.62
1 -2 -9 752.5 50.97
1 -2 -8 325.27 32.46
1 -2 -8 344.14 34.08
1 -2 -8 338.57 28.64
1 -2 -8 337.06 32.87
1 -2 -7 713.75 46.66
1 -2 -7 721.19 45.49
1 -2 -7 798.21 41.52
1 -2 -7 617.03 43.11
1 -2 -6 1658.31 68.18
1 -2 -6 1683.03 60.23
1 -2 -6 1625.25 65.36
1 -2 -6 1693.06 67.7
1 -2 -6 1648.69 50.26
1 -2 -6 1753.14 58.14
1 -2 -5 119.21 14.5
1 -2 -5 127.75 14.73
1 -2 -5 114.04 14.14
1 -2 -5 107.05 14.71
1 -2 -5 107.12 12.58
1 -2 -5 89.74 15.31
1 -2 -5 107.86 15.31
1 -2 -5 98.51 15.13
1 -2 -5 107.03 13.74
1 -2 -5 104.51 15.96
1 -2 -5 119.97 12.74
1 -2 -4 560.52 34.39
1 -2 -4 583.33 36.77
1 -2 -4 531.19 33.02
1 -2 -4 655.08 34.94
1 -2 -4 584.87 30.55
1 -2 -4 536.56 38.41
1 -2 -4 591.65 33.04
1 -2 -4 555.25 38.3
1 -2 -4 518.89 32.71
1 -2 -4 615.69 27.13
1 -2 -4 622.35 33.19
1 -2 -4 553.15 36.89
1 -2 -4 582 38.07
1 -2 -3 388.66 27.43
1 -2 -3 406.89 28.84
1 -2 -3 416.91 26.5
1 -2 -3 448.27 26.4
1 -2 -3 415.91 31.26
1 -2 -3 384.77 23.2
1 -2 -3 418.54 30.74
1 -2 -3 425.17 25.49
1 -2 -3 418.96 30.74
1 -2 -3 403.86 28.82
1 -2 -3 472.21 21.08
1 -2 -3 385.73 25.55
1 -2 -2 2357.15 89.23
1 -2 -2 2716.69 91.38
1 -2 -2 2397.99 95.44
1 -2 -2 2557.6 89.35
1 -2 -2 2660.68 93.44
1 -2 -2 2706.38 89.47
1 -2 -2 2607.02 98.04
1 -2 -2 2578.57 94.58
1 -2 -2 2609.99 90.61
1 -2 -2 2546.28 100.54
1 -2 -1 748.29 33.08
1 -2 -1 804.99 33.16
1 -2 -1 823.57 36.54
1 -2 -1 826.23 37.68
1 -2 -1 787.57 39.74
1 -2 -1 693.58 37.17
1 -2 -1 687.47 37.94
1 -2 -1 792.11 36.48
1 -2 -1 820.98 26.15
1 -2 -1 676.56 25.88
1 -2 -1 783.2 34.27
1 -2 -1 795.94 29.19
1 -2 -1 791.12 42.66
1 -2 -1 746.74 34.72
1 -2 0 4559.22 139.78
1 -2 0 4389.44 128.44
1 -2 0 4686.86 129.21
1 -2 0 4224.93 128.38
1 -2 0 4241.32 131.84
1 -2 0 4110.14 130.99
1 -2 0 4198.2 126.81
1 -2 0 4501.03 131.98
1 -2 0 4373.76 121.07
1 -2 0 4633.12 128.45
1 -2 0 4441.53 121.94
1 -2 0 4699.83 131.9
1 -2 0 4217.62 130.51
1 -2 1 16.56 4.12
1 -2 1 11.13 4.03
1 -2 1 16.49 4.27
1 -2 1 13.73 3.9
1 -2 1 14.87 4
1 -2 1 17.7 4.58
1 -2 1 25.33 5.21
1 -2 1 20.82 4.72
1 -2 1 25.36 4.75
1 -2 1 27.21 2.66
1 -2 1 14.12 3.42
1 -2 1 15.48 4.1
1 -2 1 19.39 3.77
1 -2 1 25.68 4.97
1 -2 1 17.08 4.36
1 -2 2 1640.18 46.22
1 -2 2 1589.29 45.94
1 -2 2 1624.65 39.8
1 -2 2 1658.29 36.24
1 -2 2 1564.03 32.38
1 -2 2 1700.35 42.11
1 -2 2 1743.06 44.24
1 -2 2 1718.04 35.94
1 -2 2 1613.96 43.7
1 -2 2 1632.34 39.73
1 -2 2 1564.37 38.06
1 -2 2 1672.76 40.88
1 -2 2 1562.6 39
1 -2 2 1707.1 37.94
1 -2 2 1481.21 39.35
1 -2 3 623.19 33.99
1 -2 3 628.13 26.75
1 -2 3 611.11 31.65
1 -2 3 675.89 32.51
1 -2 3 554.62 24
1 -2 3 609.97 28.22
1 -2 3 594.73 22.92
1 -2 3 637.91 33.1
1 -2 3 592.61 30.72
1 -2 3 605.54 31.65
1 -2 3 610.63 25.65
1 -2 3 647.42 33.97
1 -2 3 593.03 32.33
1 -2 3 627.54 30.14
1 -2 3 647.93 28.84
1 -2 3 609.28 30.48
1 -2 3 638 31.8
1 -2 3 632.03 31.45
1 -2 3 683.79 31.85
1 -2 4 1770.25 60.65
1 -2 4 1643.5 61.33
1 -2 4 1807.59 66.19
1 -2 4 1615.19 66.01
1 -2 4 1716.33 68.56
1 -2 4 1859.97 68.16
1 -2 4 1508.22 66.24
1 -2 4 1629.02 60
1 -2 4 1712.85 63.85
1 -2 4 1654.68 66.17
1 -2 4 1604.34 68.54
1 -2 4 1628.41 54.25
1 -2 4 1671.49 66.35
1 -2 4 1758.2 67.22
1 -2 4 1853.7 63.26
1 -2 4 1705.73 65.81
1 -2 4 1919.84 69.56
1 -2 5 57.23 8.43
1 -2 5 43.89 8.48
1 -2 5 45.37 8.17
1 -2 5 35.09 7.44
1 -2 5 44.34 6.04
1 -2 5 44 7.13
1 -2 5 38.49 7.63
1 -2 5 48.23 8.37
1 -2 5 42.89 8.57
1 -2 5 49.1 7.5
1 -2 5 52.99 8.32
1 -2 5 49.82 8.31
1 -2 5 54.95 7.13
1 -2 5 49.29 8.85
1 -2 5 54.55 8.79
1 -2 6 2489.84 63.16
1 -2 6 2628.02 66.89
1 -2 6 2672.12 67.99
1 -2 6 2715.02 63.79
1 -2 6 2480.76 56
1 -2 6 2945.7 65.86
1 -2 6 2845.43 59.32
1 -2 6 2797.2 70.5
1 -2 6 2611.27 63.64
1 -2 7 234.16 19.89
1 -2 7 256.4 23.63
1 -2 7 245.74 23.04
1 -2 7 239.7 21.98
1 -2 7 267.58 24.15
1 -2 7 238.76 21.54
1 -2 8 802.71 48.11
1 -2 8 760.04 47.34
1 -2 8 919.34 50.78
1 -2 8 883.6 47.76
1 -2 8 820.29 49.19
1 -2 9 687.02 44.35
1 -2 9 566.91 41.4
1 -2 9 617.18 42.86
1 -2 9 676.27 42.45
1 -2 9 672.54 45.35
1 -2 10 221.11 25.02
1 -2 10 267.25 27.44
1 -2 10 232.19 26.09
1 -2 10 249.5 27.64
1 -2 11 68.05 14.24
1 -2 11 69.86 14.58
1 -2 11 85.12 16.89
1 -2 12 513.44 41.6
1 -2 12 481.59 40.8
1 -2 12 473.96 42.92
1 -2 13 321.79 33.67
1 -2 13 304.55 32.83
1 -2 13 371.56 38.31
1 -1 -12 478.71 47.82
1 -1 -12 504.49 47.28
1 -1 -12 415.87 41.15
1 -1 -12 544.97 48.41
1 -1 -12 556.95 45.8
1 -1 -11 100.38 18.38
1 -1 -11 89.53 19.33
1 -1 -11 81.78 17.17
1 -1 -11 103.26 19.35
1 -1 -11 56.95 15.07
1 -1 -10 397.69 40.51
1 -1 -10 431.39 40.85
1 -1 -10 429.01 39.14
1 -1 -10 497.62 42.48
1 -1 -10 448.21 38.06
1 -1 -9 222.6 24.31
1 -1 -9 182.53 25.01
1 -1 -9 200.93 24.96
1 -1 -9 166.83 22.38
1 -1 -9 197.43 25.18
1 -1 -8 821.74 43.91
1 -1 -8 821.56 47.74
1 -1 -8 762.95 46.85
1 -1 -8 736.43 47.65
1 -1 -7 647.24 32.32
1 -1 -7 695.1 38.15
1 -1 -7 652.39 42.34
1 -1 -7 743.94 43.3
1 -1 -6 493.74 34.7
1 -1 -6 448.6 28.28
1 -1 -6 516.35 30.83
1 -1 -6 481.09 26.53
1 -1 -6 471.3 32.84
1 -1 -6 477.98 28.87
1 -1 -5 1371.17 43.96
1 -1 -5 1369.25 43.42
1 -1 -5 1252.24 46.31
1 -1 -5 1394.89 47.26
1 -1 -5 1444.3 48.9
1 -1 -5 1332.35 53.67
1 -1 -5 1467.46 35.71
1 -1 -5 1211.51 40.87
1 -1 -5 1456.6 45.5
1 -1 -5 1438.81 46.15
1 -1 -5 1381.82 48.96
1 -1 -5 1518.92 55.87
1 -1 -4 1531.28 53.4
1 -1 -4 1702.88 48.67
1 -1 -4 1744.32 47.76
1 -1 -4 1636.52 52.67
1 -1 -4 1632.01 48.63
1 -1 -4 1711.23 47.51
1 -1 -4 1641.11 49.26
1 -1 -4 1562.2 51.07
1 -1 -4 1648.87 49.84
1 -1 -4 1535.5 55.26
1 -1 -4 1807.72 45.48
1 -1 -4 1848.34 35.17
1 -1 -4 1649.02 56.3
1 -1 -3 1394.61 36
1 -1 -3 1340.88 25.75
1 -1 -3 1353.33 35.5
1 -1 -3 1335.54 47.51
1 -1 -3 1395.08 40.95
1 -1 -3 1229.26 39.77
1 -1 -3 1203.4 43.12
1 -1 -3 1296.42 40.78
1 -1 -3 1247.68 45.64
1 -1 -3 1171.16 40.03
1 -1 -3 1102.91 42.16
1 -1 -3 1368.87 39.2
1 -1 -3 1241.62 44.48
1 -1 -2 514.22 24.79
1 -1 -2 501.8 25.34
1 -1 -2 464.06 27.91
1 -1 -2 490.07 26.09
1 -1 -2 541.01 29.86
1 -1 -2 530.24 23.53
1 -1 -2 514.81 28.83
1 -1 -2 549.83 28.91
1 -1 -2 485.92 27.14
1 -1 -2 560.16 24.24
1 -1 -2 521.85 25.22
1 -1 -2 505.91 29.51
1 -1 -1 3639.82 109.98
1 -1 -1 3314.58 115.48
1 -1 -1 3602.22 120.37
1 -1 -1 3934.04 115.8
1 -1 -1 3337.32 119.61
1 -1 -1 3566.14 113.64
1 -1 -1 3807.48 118.05
1 -1 -1 3741.83 109.09
1 -1 -1 3885.18 119.86
1 -1 -1 3620.77 113.18
1 -1 -1 3567.61 120.12
1 -1 -1 3301.87 121.43
1 -1 -1 3736.07 115.35
1 -1 0 135.18 9.67
1 -1 0 160.58 13.27
1 -1 0 126.68 8.04
1 -1 0 132.01 8.2
1 -1 0 126.54 9.74
1 -1 0 128.39 9.92
1 -1 0 116.76 8.96
1 -1 0 123.98 7.19
1 -1 0 121.1 10.88
1 -1 0 160.46 9.41
1 -1 0 134.32 6.76
1 -1 0 131.28 10.52
1 -1 0 143.56 9.49
1 -1 0 116.54 10.16
1 -1 0 143.1 12.06
1 -1 1 5409.87 175.23
1 -1 1 6291.22 175.23
1 -1 1 5503.32 172.36
1 -1 1 5712.57 171.21
1 -1 1 5892.4 169.9
1 -1 1 5488.55 168.9
1 -1 1 5852.85 165.85
1 -1 1 5342.93 170
1 -1 1 5900.15 171.93
1 -1 1 5520.41 171.44
1 -1 1 5644.2 171.17
1 -1 1 5668.62 171.74
1 -1 1 5229.8 170.38
1 -1 1 5038.17 170.22
1 -1 1 5597.51 169.89
1 -1 1 5245.42 166.11
1 -1 1 5744.75 170.92
1 -1 1 6035.79 168.11
1 -1 1 5883.4 173.25
1 -1 1 5538.69 173.26
1 -1 2 2132.62 72.96
1 -1 2 2114.15 73.26
1 -1 2 2251.77 72.99
1 -1 2 2238.11 70.67
1 -1 2 2133.69 72.59
1 -1 2 2029.52 68.15
1 -1 2 2188.8 66.64
1 -1 2 2134.16 70.89
1 -1 2 2193.75 73.57
1 -1 2 2111.58 72.26
1 -1 2 2113.58 73.19
1 -1 2 1960.94 72.19
1 -1 2 2222.94 67.32
1 -1 2 2024.59 69.64
1 -1 2 1954.59 70.94
1 -1 2 2055.04 68.17
1 -1 2 2253.14 72.76
1 -1 2 2208.22 69.57
1 -1 2 2050.95 72.2
1 -1 2 2143.6 71.22
1 -1 3 2367.08 80.66
1 -1 3 2455.03 74.7
1 -1 3 2307.85 79.98
1 -1 3 2376.49 81.23
1 -1 3 2204.67 78.97
1 -1 3 2395.36 82.16
1 -1 3 2116.5 79.71
1 -1 3 2417.8 72.44
1 -1 3 2178.73 78.62
1 -1 3 2309.97 72.85
1 -1 3 2177.63 76.18
1 -1 3 2509.09 82.26
1 -1 3 2402.82 80.69
1 -1 3 2251.96 80.64
1 -1 3 2390.21 77.24
1 -1 3 2466.8 74.16
1 -1 3 2236.24 78.72
1 -1 3 2265.34 80.26
1 -1 3 2392.61 80.82
1 -1 4 40.55 6.39
1 -1 4 41.31 6.8
1 -1 4 38.17 6.76
1 -1 4 36.98 6.57
1 -1 4 40.48 6.7
1 -1 4 51 6.82
1 -1 4 44.81 4.26
1 -1 4 34.5 3.94
1 -1 4 43.56 5.71
1 -1 4 49.95 6.99
1 -1 4 38.77 6.78
1 -1 4 33.49 6.22
1 -1 4 44.05 7.17
1 -1 4 39.66 4.51
1 -1 4 46.63 5.71
1 -1 4 46.33 7.01
1 -1 4 44.01 6.87
1 -1 4 47.89 7.39
1 -1 5 2580.77 91.96
1 -1 5 2427.25 90.02
1 -1 5 2509.58 86.45
1 -1 5 2415.05 79.65
1 -1 5 2423.22 78.06
1 -1 5 2664.1 88.35
1 -1 5 2521.99 91.2
1 -1 5 2467.63 89.44
1 -1 5 2397.26 87.29
1 -1 5 2504.83 90.06
1 -1 5 2422.42 88.54
1 -1 5 2429.14 84.32
1 -1 5 2439.08 88.72
1 -1 5 2465.67 90.78
1 -1 5 2547.13 90.36
1 -1 6 428.27 29.16
1 -1 6 472.15 28.97
1 -1 6 401.39 24.4
1 -1 6 397.38 25.34
1 -1 6 449.38 25.82
1 -1 6 453.17 29.22
1 -1 6 466.53 28.58
1 -1 6 421.17 25.12
1 -1 6 436.87 28.54
1 -1 6 458.58 27.86
1 -1 6 480.88 29.85
1 -1 6 410.73 25.95
1 -1 6 492.74 28.84
1 -1 6 402.02 27.97
1 -1 6 448.65 29.06
1 -1 7 1605.58 65.02
1 -1 7 1532.47 69.03
1 -1 7 1600.06 66.69
1 -1 7 1547.6 68.6
1 -1 7 1506.01 68.38
1 -1 7 1562.04 62.4
1 -1 7 1620.47 67.96
1 -1 7 1544.72 69.59
1 -1 7 1568.89 62.87
1 -1 8 24.28 6.55
1 -1 8 35.83 9.06
1 -1 8 18.6 6.25
1 -1 8 14.78 6.11
1 -1 8 19.23 6.43
1 -1 8 15.58 5.81
1 -1 9 923.01 54.39
1 -1 9 915.09 52.47
1 -1 9 1019.8 51.13
1 -1 9 899.47 52.08
1 -1 9 867.61 50.91
1 -1 10 223.82 25.75
1 -1 10 208.54 23.64
1 -1 10 257.8 25.97
1 -1 10 207.55 23.8
1 -1 11 527.91 40.58
1 -1 11 558.03 41.41
1 -1 11 566.93 44.31
1 -1 12 241.59 27.65
1 -1 12 257.92 28.38
1 -1 12 290.72 32.05
1 -1 13 150.98 22.58
1 -1 13 164.66 23.32
1 -1 13 189.21 26.94
1 0 -13 356.29 40.29
1 0 -13 303.74 38.66
1 0 -12 20.81 10.84
1 0 -12 40.52 12.71
1 0 -12 19.67 8.88
1 0 -11 504.02 42.89
1 0 -11 480.92 43.77
1 0 -11 464.11 44.87
1 0 -10 78.54 16.46
1 0 -10 54.73 13.02
1 0 -10 61.84 13.99
1 0 -10 52.4 12.86
1 0 -10 41.51 12.93
1 0 -9 1254.76 67.37
1 0 -9 1163.39 63.67
1 0 -9 991.95 61.41
1 0 -9 1042.7 65.56
1 0 -8 358.97 32.21
1 0 -8 380.07 27.25
1 0 -8 342.56 28.51
1 0 -8 392.89 31.63
1 0 -8 351.56 29.7
1 0 -7 937.01 49.23
1 0 -7 1069.38 42.88
1 0 -7 1071.72 47.32
1 0 -7 1167 50.84
1 0 -7 955.5 46.44
1 0 -6 566.48 35.14
1 0 -6 583.78 32.9
1 0 -6 563.96 29.76
1 0 -6 572.57 34.1
1 0 -6 619.27 25.27
1 0 -6 574.88 29.14
1 0 -6 582.32 30.02
1 0 -5 943.86 30.76
1 0 -5 896.15 28.5
1 0 -5 836.75 31.39
1 0 -5 796.17 33.9
1 0 -5 809.28 33.75
1 0 -5 826.21 36.36
1 0 -5 679.71 36.17
1 0 -5 897.92 35.07
1 0 -5 930.09 35.09
1 0 -5 833 34.29
1 0 -5 752.99 36.84
1 0 -4 1738.22 46.94
1 0 -4 1697.8 44.66
1 0 -4 1784.31 44.31
1 0 -4 1736.55 43.91
1 0 -4 1654.77 27.68
1 0 -4 1645.7 34.78
1 0 -4 1876.57 40.73
1 0 -4 1505.52 45.97
1 0 -4 1663.55 42.02
1 0 -4 1574.13 43.8
1 0 -4 1677.34 45.54
1 0 -4 1706.18 45.5
1 0 -4 1712.16 51.9
1 0 -4 1669.74 26.45
1 0 -4 1588.53 49.19
1 0 -3 1564.83 36.77
1 0 -3 1457.81 40.36
1 0 -3 1666.5 39.17
1 0 -3 1663.15 43.88
1 0 -3 1440.19 29.37
1 0 -3 1394.03 39.85
1 0 -3 1833.56 30.19
1 0 -3 1645.99 36.18
1 0 -3 1574.17 41.24
1 0 -3 1507.46 37.8
1 0 -3 1543.68 39.03
1 0 -3 1579.66 39.73
1 0 -3 1516.73 39.8
1 0 -3 1477.86 42.92
1 0 -3 1471.62 25.8
1 0 -3 1636.47 45.15
1 0 -2 3377.19 105.46
1 0 -2 3337.88 108.91
1 0 -2 3268.21 104.35
1 0 -2 3167.91 103.85
1 0 -2 3452.62 108.37
1 0 -2 3123.29 107.94
1 0 -2 3417.33 107.79
1 0 -2 3364.18 108.97
1 0 -2 3127.65 107.61
1 0 -2 3560.36 103.41
1 0 -2 3392 99.99
1 0 -2 3194.24 109.3
1 0 -2 3281.97 109.98
1 0 -2 3311.32 101.79
1 0 -2 3394.61 106.9
1 0 -2 3168.7 110.24
1 0 -2 3581.21 105.79
1 0 -1 1527.53 57.11
1 0 -1 1583.18 51.56
1 0 -1 1485.42 54.27
1 0 -1 1724.85 55.82
1 0 -1 1542.83 54.54
1 0 -1 1569.64 53.39
1 0 -1 1669.37 54.34
1 0 -1 1657.97 52.61
1 0 -1 1572.51 50.15
1 0 -1 1604.85 50.62
1 0 -1 1570.5 52.91
1 0 -1 1503.75 53.74
1 0 -1 1462.78 52.82
1 0 -1 1737.01 51.76
1 0 -1 1547.9 54.11
1 0 -1 1569.85 48.56
1 0 -1 1604.64 56.36
1 0 -1 1556.44 52.84
1 0 -1 1563.19 48.64
1 0 -1 1627.95 56.45
1 0 0 1319.97 42.24
1 0 0 1403.83 49.09
1 0 0 1426.31 51.53
1 0 0 1489.46 46.16
1 0 0 1358.99 48.22
1 0 0 1316.5 44.58
1 0 0 1328.08 42.48
1 0 0 1443.15 47.86
1 0 0 1360.97 45.95
1 0 0 1361.15 46.69
1 0 0 1338.05 45.58
1 0 0 1337.31 42.52
1 0 0 1325.41 44.53
1 0 0 1294.91 43.61
1 0 0 1379.44 43.97
1 0 0 1361.82 45.34
1 0 0 1335.66 47.1
1 0 0 1397.07 46.39
1 0 0 1390.27 45.43
1 0 0 1404.64 47.61
1 0 0 1279.69 43
1 0 0 1310.5 47.6
1 0 0 1398.43 46.33
1 0 0 1415.58 42.06
1 0 1 288.82 16.97
1 0 1 300.33 15.74
1 0 1 289.19 18.45
1 0 1 275.92 12.93
1 0 1 268.03 13.11
1 0 1 280.63 14.77
1 0 1 265.67 13.55
1 0 1 281.19 14.28
1 0 1 269.7 13.39
1 0 1 270.29 13.56
1 0 1 270.16 13.48
1 0 1 269.78 13.16
1 0 1 247.44 12.51
1 0 1 270.65 11.18
1 0 1 294.45 15.15
1 0 1 276.09 13.31
1 0 1 270.82 15.39
1 0 1 261.65 11.83
1 0 1 262.07 11.93
1 0 1 306.11 14.55
1 0 1 263.88 13.19
1 0 1 286.02 13.78
1 0 2 6321.4 188.97
1 0 2 6526.09 190.59
1 0 2 6333.63 204.13
1 0 2 6608.18 194.1
1 0 2 6514.54 188.02
1 0 2 6594.35 192.51
1 0 2 6055.02 192.15
1 0 2 6263.91 190.64
1 0 2 6392.04 187.78
1 0 2 6493.59 189.9
1 0 2 5903.58 193.12
1 0 2 6187.56 192.64
1 0 2 6697.66 192.89
1 0 2 6157.07 189.9
1 0 2 6518.05 187.64
1 0 2 6645.71 190.63
1 0 2 6520.65 191.32
1 0 2 6628.52 193.49
1 0 2 6356.52 190.24
1 0 2 6178.41 190.99
1 0 2 6758.8 191.78
1 0 2 6127.57 188.35
1 0 3 10.3 1.85
1 0 3 7.32 2.3
1 0 3 4.47 1.89
1 0 3 13.79 3.98
1 0 3 9.74 2.58
1 0 3 12.65 2.7
1 0 3 5.06 2.06
1 0 3 16.83 3.18
1 0 3 4.29 1.61
1 0 3 14.47 2.34
1 0 3 14.62 3.23
1 0 3 14.67 3.82
1 0 3 6.51 2.34
1 0 3 6.66 2.39
1 0 3 8.58 2.61
1 0 3 3.76 1.52
1 0 3 10.64 2.9
1 0 3 6.89 2.3
1 0 3 15 2.76
1 0 3 7.93 2.57
1 0 3 5.14 1.55
1 0 3 12.37 1.68
1 0 3 15.09 3.18
1 0 4 2958.86 95.59
1 0 4 2821.27 95.47
1 0 4 3278.57 98.77
1 0 4 2910.94 92.14
1 0 4 2888.28 94.63
1 0 4 2762.46 96.09
1 0 4 2827.77 91.71
1 0 4 2761.62 89.04
1 0 4 2790.22 90.57
1 0 4 3078.68 99.34
1 0 4 2883.83 96.62
1 0 4 2836.8 96.68
1 0 4 2693.65 92.98
1 0 4 2729.74 97.48
1 0 4 2855.87 89.78
1 0 4 2786.6 96.62
1 0 4 2700.39 95.61
1 0 4 3010.57 90.88
1 0 4 2769.75 94.35
1 0 4 2758.74 87.97
1 0 4 2944.43 97.08
1 0 5 52.23 6.45
1 0 5 59.83 8.31
1 0 5 48.26 7.68
1 0 5 66.79 7.64
1 0 5 59.91 8.37
1 0 5 62.32 8.46
1 0 5 51.39 7.08
1 0 5 49.78 4.8
1 0 5 64.83 9.73
1 0 5 44.47 7.19
1 0 5 44.44 7.69
1 0 5 58.38 8.94
1 0 5 48.03 6.84
1 0 5 49.81 6.06
1 0 5 50.29 8.08
1 0 5 50.06 7.84
1 0 5 49.17 5.33
1 0 5 47.02 5.68
1 0 5 48.18 7.46
1 0 6 1928.19 44.11
1 0 6 1879.06 55.46
1 0 6 1783.42 47.67
1 0 6 1759.85 51.59
1 0 6 1890.57 56.87
1 0 6 1781.2 44.38
1 0 6 1950.8 40.25
1 0 6 1869.02 52.57
1 0 6 1808.29 50.09
1 0 6 1719.56 49.56
1 0 6 1766.99 51.16
1 0 6 1661.46 38.2
1 0 6 1887.63 50.18
1 0 6 1985.49 48.05
1 0 6 1910.01 51.58
1 0 6 1859.75 49.61
1 0 6 1764.34 32.34
1 0 7 31.88 7.67
1 0 7 39.19 8.08
1 0 7 34.22 8.36
1 0 7 41.56 8.67
1 0 7 30.63 6.95
1 0 7 40.17 7.58
1 0 7 35.35 7.91
1 0 7 34.55 6.79
1 0 7 31.51 8.19
1 0 7 24.99 6.29
1 0 7 39.23 6.72
1 0 8 1752.64 78.74
1 0 8 1748.19 75.49
1 0 8 1860.68 74.13
1 0 8 1838.2 79.01
1 0 8 1961.26 84.93
1 0 8 1718.37 76.91
1 0 8 1734.22 76.88
1 0 9 147.35 19.21
1 0 9 133.25 16.99
1 0 9 135.41 17.79
1 0 9 137.8 19.64
1 0 9 127 17
1 0 9 142.73 17.9
1 0 10 676.72 46.32
1 0 10 659.98 43.96
1 0 10 694.63 48.87
1 0 10 603.8 42
1 0 10 583.5 41.58
1 0 11 185.02 22.84
1 0 11 223.73 24.73
1 0 11 183.46 22.68
1 0 11 193.36 24.94
1 0 12 578.51 44.12
1 0 12 613.08 45.54
1 0 12 623.95 48.46
1 0 13 82.75 15.93
1 0 13 85.79 16.86
1 0 13 87.98 17.1
1 0 13 99.27 19.45
1 0 14 160.62 23.88
1 0 14 157.3 23.45
1 0 14 149.96 22.3
1 1 -13 25.32 10.8
1 1 -12 640.52 50.86
1 1 -12 611.51 49.58
1 1 -12 496.76 48.51
1 1 -11 35.18 11.38
1 1 -11 25.5 9.79
1 1 -11 33.92 12.03
1 1 -10 836.99 55.48
1 1 -10 895.07 58.59
1 1 -10 749.17 56.54
1 1 -9 246.75 24.64
1 1 -9 254.75 25.46
1 1 -9 246.22 25.68
1 1 -9 257.57 27.25
1 1 -9 194.71 23.7
1 1 -8 1112.55 58.56
1 1 -8 980.34 57.94
1 1 -8 1068.11 58.18
1 1 -8 991 56.95
1 1 -8 1161.94 61.72
1 1 -7 93.87 13.8
1 1 -7 105.41 13.08
1 1 -7 82.42 13.56
1 1 -7 98.25 11.65
1 1 -7 92.8 14.17
1 1 -7 93.61 14.02
1 1 -7 95.17 14.44
1 1 -6 819.81 34.04
1 1 -6 1176.18 46.76
1 1 -6 1045.73 44.12
1 1 -6 1119.59 40.72
1 1 -6 1206.48 46.41
1 1 -6 -4.68 6.11
1 1 -6 1068.84 44.95
1 1 -6 224.14 20.47
1 1 -6 1063.34 36.42
1 1 -6 1086.8 32.49
1 1 -6 1039.24 41.5
1 1 -6 1113.34 46.08
1 1 -6 1042.89 39.16
1 1 -5 380.94 23.03
1 1 -5 438.07 24.8
1 1 -5 388.24 18
1 1 -5 374.78 23.57
1 1 -5 349.9 23.67
1 1 -5 414.69 16.23
1 1 -5 393.57 25.43
1 1 -5 382.55 23.63
1 1 -5 384.78 24.82
1 1 -5 418.53 23.34
1 1 -5 429.53 25.45
1 1 -5 372.44 24.67
1 1 -5 353.18 24.52
1 1 -5 402.74 21.62
1 1 -5 346.71 21.48
1 1 -5 463.57 27.16
1 1 -4 3256.13 64.51
1 1 -4 3279.43 48.25
1 1 -4 3198.35 48.05
1 1 -4 3205.94 66.27
1 1 -4 2979.43 64.17
1 1 -4 3169.08 47.06
1 1 -4 4019.43 76.44
1 1 -4 3284.66 46.06
1 1 -4 3268 68.29
1 1 -4 3312.55 66.74
1 1 -4 3405.55 70.78
1 1 -4 3145.24 63.58
1 1 -4 3444.52 68.03
1 1 -4 2753.86 63.84
1 1 -4 3116.92 69.46
1 1 -4 3499.6 62.9
1 1 -4 2699.16 59.64
1 1 -4 3229.08 61.05
1 1 -3 4944.96 79.09
1 1 -3 4502.93 67.08
1 1 -3 4946.09 70.42
1 1 -3 4188.79 75.59
1 1 -3 4166.29 58.93
1 1 -3 3946.74 69.05
1 1 -3 4473.28 71.7
1 1 -3 4614.83 52.5
1 1 -3 4400.51 56.82
1 1 -3 4569.84 57.06
1 1 -3 5118.74 81.75
1 1 -3 3298.82 76.24
1 1 -3 4554.06 50.5
1 1 -3 4814.94 77.07
1 1 -3 4394.87 73.22
1 1 -3 4515.96 72.02
1 1 -3 4652.49 73.98
1 1 -3 4496.94 70.99
1 1 -3 4850.37 45.96
1 1 -3 3826.27 67.66
1 1 -3 4339.39 69.07
1 1 -2 610.47 19.26
1 1 -2 657.59 25.23
1 1 -2 604.27 20.89
1 1 -2 624.22 20.63
1 1 -2 621.69 27.43
1 1 -2 582.48 21.61
1 1 -2 662.36 23.84
1 1 -2 647.02 14.2
1 1 -2 642.14 18.87
1 1 -2 732.34 26.99
1 1 -2 622.71 27.5
1 1 -2 580.9 13.3
1 1 -2 647.09 24.42
1 1 -2 585.67 21.37
1 1 -2 712.68 24.09
1 1 -2 599.5 21.85
1 1 -2 636.11 21.93
1 1 -2 611.49 14.87
1 1 -2 582.83 22.05
1 1 -2 630.63 22.93
1 1 -1 1251.39 44.32
1 1 -1 1325.74 47.5
1 1 -1 1312.26 42.17
1 1 -1 1181.61 47.86
1 1 -1 1287.37 52.9
1 1 -1 1149.22 43.78
1 1 -1 1279.65 45.7
1 1 -1 1256.39 44
1 1 -1 1291.88 43.52
1 1 -1 1214.3 48.43
1 1 -1 1207.21 39.55
1 1 -1 1335.81 48.57
1 1 -1 1283.49 39.27
1 1 -1 1310.14 46.64
1 1 -1 1166.96 42.93
1 1 -1 1272.79 45.2
1 1 -1 1195.7 45.11
1 1 -1 1271.4 44.22
1 1 -1 1266.02 42.87
1 1 -1 1221.59 39.96
1 1 -1 1290.6 42.15
1 1 -1 1213.1 43.38
1 1 -1 1255.62 45.88
1 1 -1 1155.04 45.07
1 1 0 594.53 16.55
1 1 0 528.07 24.29
1 1 0 539.27 21.46
1 1 0 621.89 29.73
1 1 0 596.68 23.15
1 1 0 572 19.12
1 1 0 587.06 21.28
1 1 0 606.77 21.77
1 1 0 599.37 20.66
1 1 0 563.93 21.16
1 1 0 667.63 24.69
1 1 0 557.55 22.22
1 1 0 564.61 21
1 1 0 577.44 17.08
1 1 0 602.74 21.28
1 1 0 565.19 18.99
1 1 0 589.71 21.54
1 1 0 581.24 21.14
1 1 0 569.41 20.33
1 1 0 591.28 20.52
1 1 0 558.51 21.34
1 1 0 570.35 20.93
1 1 0 599.18 17.88
1 1 0 600.75 21.61
1 1 1 1048.04 45.08
1 1 1 1271.49 40.45
1 1 1 1060.03 39.95
1 1 1 1149.65 48.75
1 1 1 1168.64 49.73
1 1 1 1118.05 36.9
1 1 1 1077.23 40.01
1 1 1 1077.02 41.39
1 1 1 1110.93 39.8
1 1 1 1071.31 40.34
1 1 1 1101.29 40.54
1 1 1 1173.49 41.1
1 1 1 1201.08 40.72
1 1 1 1149.34 40.92
1 1 1 1121.88 38.71
1 1 1 1066.26 39.66
1 1 1 1140.89 37.15
1 1 1 1088.16 38.79
1 1 1 1167.06 37.11
1 1 1 1192.53 38.55
1 1 1 1093.13 38
1 1 1 1088.75 39.48
1 1 1 1062.52 39.63
1 1 1 1087.38 40.3
1 1 1 1165.27 36.71
1 1 2 3206.34 102.85
1 1 2 3174.59 104.97
1 1 2 3604.38 114.66
1 1 2 3318.57 117.98
1 1 2 3183.79 104.57
1 1 2 3153.28 104.85
1 1 2 3290.24 103.43
1 1 2 3356.8 104.87
1 1 2 3097.28 104.76
1 1 2 3150.55 105.54
1 1 2 3529.99 105.25
1 1 2 3577.58 103.25
1 1 2 3544.93 103.35
1 1 2 3462.57 103.73
1 1 2 3249.31 98.54
1 1 2 3142.38 105.71
1 1 2 3225.85 102.06
1 1 2 3225.65 104.15
1 1 2 3398.31 105.51
1 1 2 3362.7 104.86
1 1 2 3072.97 104.32
1 1 2 3534.29 105.93
1 1 2 3263.12 104.26
1 1 2 3521.06 101.57
1 1 2 3437.73 105.05
1 1 3 9475.4 278.68
1 1 3 8594.6 271.55
1 1 3 8949.93 271.68
1 1 3 9128.62 267.04
1 1 3 9999 265.34
1 1 3 8411.38 271.83
1 1 3 8808.72 271.78
1 1 3 9390.15 271.95
1 1 3 9860.25 270.61
1 1 3 8571.04 268.55
1 1 3 9199.06 265.95
1 1 3 8486.3 272.64
1 1 3 8872 271.24
1 1 3 9466.06 269
1 1 3 8598.17 269
1 1 3 8691.76 269.43
1 1 3 8756.25 268.8
1 1 3 9133.56 272.72
1 1 3 8600.21 271.24
1 1 3 8960.42 268.55
1 1 3 9164.34 272.4
1 1 3 9209.34 269.17
1 1 3 8874.44 270.07
1 1 4 115.34 11.45
1 1 4 123.35 9.18
1 1 4 116.37 10.72
1 1 4 107.2 7.25
1 1 4 114.07 8.45
1 1 4 87.35 9.5
1 1 4 112.87 11.23
1 1 4 108.01 10.66
1 1 4 124.2 10.57
1 1 4 99.53 10.98
1 1 4 108.98 5.15
1 1 4 150.58 9.82
1 1 4 117.95 9.82
1 1 4 97.63 7.73
1 1 4 119.71 8.83
1 1 4 119.24 11.12
1 1 4 135.6 10.86
1 1 4 118.04 11.08
1 1 4 118.92 10.83
1 1 4 128.14 7.16
1 1 4 115.75 10.12
1 1 5 1517.96 46
1 1 5 1211.33 46.38
1 1 5 1228 43.91
1 1 5 1218.56 45.14
1 1 5 1323.84 32.94
1 1 5 1275.24 37.27
1 1 5 1243.77 44.47
1 1 5 1268.69 36.22
1 1 5 1244.12 33.43
1 1 5 1289.9 46.26
1 1 5 1217.36 42.45
1 1 5 1306.66 42.73
1 1 5 1293.83 40.07
1 1 5 1401.89 51.31
1 1 5 1298.72 32.37
1 1 5 1333.45 47.12
1 1 5 1340.72 36.61
1 1 5 1241.11 37.15
1 1 5 1312.59 32.28
1 1 6 21.51 5.44
1 1 6 23.73 6.25
1 1 6 19.56 5.43
1 1 6 36.16 6.76
1 1 6 20.38 4.8
1 1 6 20.21 6.32
1 1 6 22.27 5.48
1 1 6 -2.95 5.45
1 1 6 28.89 6.82
1 1 6 19.48 5.45
1 1 6 28.91 6.44
1 1 6 25.57 6.27
1 1 6 20.79 3.99
1 1 6 29.65 5.56
1 1 6 22.3 3.07
1 1 7 1255.71 43.33
1 1 7 1340.49 47.45
1 1 7 1225.91 47.28
1 1 7 1315.19 46.62
1 1 7 1200.22 45.85
1 1 7 1229.24 51.23
1 1 7 1245.89 38.44
1 1 7 1285.8 47.05
1 1 7 1173.4 40.1
1 1 7 1329.12 44.4
1 1 7 1273.77 47.27
1 1 8 13.96 4.78
1 1 8 7.62 4.01
1 1 8 9.61 4.61
1 1 8 10.96 5.64
1 1 8 12.77 5.18
1 1 8 18.75 6.25
1 1 8 15.36 5.53
1 1 8 17.84 6.91
1 1 9 1970.97 91.72
1 1 9 2164.83 86.84
1 1 9 1716.95 81.57
1 1 9 1928.39 84.26
1 1 9 1797.64 83.13
1 1 9 1803.94 82.97
1 1 9 1941.82 87.31
1 1 9 1975.65 85.35
1 1 10 129.22 20.4
1 1 10 128.68 17.93
1 1 10 108.64 16.79
1 1 10 110.29 16.98
1 1 10 118.77 18.42
1 1 10 117.25 17.11
1 1 10 105.51 16.22
1 1 11 428.93 35.57
1 1 11 388.82 33.85
1 1 11 360.96 33.47
1 1 11 438.25 36.09
1 1 11 432.74 37.92
1 1 12 94.02 18.32
1 1 12 106.34 18.27
1 1 12 109.93 18.3
1 1 12 93.11 16.85
1 1 12 134.39 22.82
1 1 13 386.71 36.56
1 1 13 339.77 36.42
1 1 13 327.08 32.58
1 1 13 367.35 35.6
1 1 14 81.34 16.22
1 1 14 106.24 19.53
1 1 14 85.32 17.39
1 2 -12 16.1 8.46
1 2 -12 10.06 6.41
1 2 -12 14.97 8.34
1 2 -12 9.99 6.87
1 2 -11 668.55 52.66
1 2 -11 825.12 56.42
1 2 -11 837.15 58.24
1 2 -10 1.73 3.89
1 2 -10 1.73 3.18
1 2 -10 -1.77 0.02
1 2 -10 3.36 3.08
1 2 -9 413.43 34.45
1 2 -9 544.84 38.09
1 2 -9 516.09 38.35
1 2 -8 161.38 19.32
1 2 -8 142.2 18.92
1 2 -8 206 22.04
1 2 -8 225.62 23.5
1 2 -7 2032.97 65.04
1 2 -7 1859.45 64.78
1 2 -7 2214.16 66
1 2 -7 2247.4 69.46
1 2 -7 10.91 12.27
1 2 -7 -1.3 3.37
1 2 -6 -1.17 1.52
1 2 -6 303.02 20.63
1 2 -6 349.45 26.18
1 2 -6 277.5 21.94
1 2 -6 281.64 22.99
1 2 -6 327.7 23.88
1 2 -6 319.69 23.93
1 2 -6 290.58 17.41
1 2 -5 1625.6 37.07
1 2 -5 1579.55 53.78
1 2 -5 1633.79 45.27
1 2 -5 -4 7.36
1 2 -5 1566.63 48.68
1 2 -5 1 1.4
1 2 -5 1499.71 50
1 2 -5 1359.38 46.45
1 2 -5 1420.81 48.67
1 2 -5 1682.01 49.05
1 2 -5 1548.74 47.42
1 2 -5 1502.89 45.14
1 2 -5 1699.16 49.84
1 2 -5 1398.26 41.91
1 2 -5 1489.5 46.67
1 2 -5 1470.13 46.57
1 2 -5 1551.73 37.9
1 2 -4 370.36 11.17
1 2 -4 362.25 16.91
1 2 -4 380.89 24.19
1 2 -4 381.3 23.23
1 2 -4 452.31 27.38
1 2 -4 387.65 21.53
1 2 -4 390.05 23.38
1 2 -4 399.25 24.19
1 2 -4 405.19 21.45
1 2 -4 402.96 22.87
1 2 -4 371.29 22.62
1 2 -4 378.54 22.96
1 2 -4 371.33 17.93
1 2 -4 365.99 21.5
1 2 -4 332.63 21.05
1 2 -4 376.17 21.26
1 2 -4 391.74 22.28
1 2 -3 248.07 21.16
1 2 -3 730.7 21.73
1 2 -3 745.34 15.93
1 2 -3 721.42 29.68
1 2 -3 791.5 32.1
1 2 -3 795.34 30.1
1 2 -3 803.69 28.94
1 2 -3 2.59 4.79
1 2 -3 778.16 33.72
1 2 -3 -0.74 0.52
1 2 -3 767.06 29.88
1 2 -3 824.28 26.4
1 2 -3 834.55 31.3
1 2 -3 862.11 29.69
1 2 -3 877.31 19.04
1 2 -3 757.6 28.96
1 2 -3 757.12 23.12
1 2 -3 751.19 29.4
1 2 -3 928.76 29.24
1 2 -3 759.51 29.51
1 2 -3 880.13 27.68
1 2 -2 1804.97 42.3
1 2 -2 1781.8 38.93
1 2 -2 1765.33 41.6
1 2 -2 1687.86 41.43
1 2 -2 1951.2 34.92
1 2 -2 1834.32 27.46
1 2 -2 1051.88 41.58
1 2 -2 459.16 28
1 2 -2 1792.23 23.75
1 2 -2 1817.27 32.74
1 2 -2 1952.62 42.29
1 2 -2 1943.25 47.77
1 2 -2 1847.37 42.7
1 2 -2 -1.92 5.85
1 2 -2 1874.54 42.19
1 2 -2 1829.7 44.03
1 2 -2 1790.06 42.04
1 2 -2 1841.39 35.62
1 2 -2 1961.09 45.11
1 2 -2 1712.15 31.17
1 2 -2 1787.21 33.9
1 2 -2 1823.14 43.5
1 2 -2 2023.24 33.93
1 2 -1 2709.14 51.06
1 2 -1 2729.08 45.84
1 2 -1 2566.5 48.34
1 2 -1 2719.54 52.04
1 2 -1 2634.19 48.35
1 2 -1 2629.89 37.25
1 2 -1 2725.87 44.04
1 2 -1 1729.94 49.82
1 2 -1 2722.21 47.69
1 2 -1 1938.1 56.58
1 2 -1 2706.84 32.48
1 2 -1 2564.38 40.64
1 2 -1 2572.82 49.91
1 2 -1 291.08 22.72
1 2 -1 1.27 14.72
1 2 -1 2595.95 49.52
1 2 -1 2633.19 50.36
1 2 -1 2623.01 48.67
1 2 -1 2657.89 41.02
1 2 -1 2510.21 49.54
1 2 -1 2477.72 40.77
1 2 -1 2632.49 35.73
1 2 -1 3198.16 33.74
1 2 0 2570.5 94.6
1 2 0 2766.71 102.26
1 2 0 2588.87 91.34
1 2 0 2819.66 90.6
1 2 0 3000.3 89.69
1 2 0 2700.26 99.14
1 2 0 2863.85 93.58
1 2 0 2531.03 94.94
1 2 0 2689.76 86.87
1 2 0 2894.72 94.03
1 2 0 2862.18 92.32
1 2 0 2863.39 93.7
1 2 0 2921.5 93.37
1 2 0 2638.01 93.26
1 2 0 2852.49 93.44
1 2 0 2651.69 93.29
1 2 0 2842.14 91.14
1 2 0 2579.37 92.97
1 2 0 2753.58 84.3
1 2 1 1004.37 42.13
1 2 1 1107.28 52.29
1 2 1 1211.89 44.34
1 2 1 1158.62 43.91
1 2 1 1184.95 43.31
1 2 1 1149.67 44.14
1 2 1 1061.48 47.64
1 2 1 1261.65 46.87
1 2 1 1220.6 45.86
1 2 1 1197.71 46.89
1 2 1 1090.44 44.38
1 2 1 1194.66 46.23
1 2 1 1233.27 45.91
1 2 1 1189.1 44.65
1 2 1 1169.05 45.27
1 2 1 1245.23 46.81
1 2 1 1210.69 44.99
1 2 1 1223.23 43.9
1 2 2 2466.04 35.39
1 2 2 2317.79 46.54
1 2 2 2624.67 50.75
1 2 2 2408.64 45.91
1 2 2 2521.45 48.97
1 2 2 2328.35 49.85
1 2 2 2526.45 49.49
1 2 2 2357.07 42.32
1 2 2 2505.1 45.9
1 2 2 2635.94 49.78
1 2 2 2325.42 44.88
1 2 2 2521.26 40.08
1 2 2 2349.39 42.28
1 2 2 2470.57 48.6
1 2 2 2406.2 39.02
1 2 2 2431.51 63.47
1 2 2 2463.95 44.29
1 2 3 454.53 23.65
1 2 3 435.29 21.99
1 2 3 419.8 21.4
1 2 3 510.86 16.51
1 2 3 462 23.86
1 2 3 438.56 22.1
1 2 3 428.18 21.83
1 2 3 434.95 18.44
1 2 3 468.04 22.87
1 2 3 483.97 21.87
1 2 3 483.79 20.17
1 2 3 484.94 18.4
1 2 3 466.8 12.84
1 2 4 1436.78 43.63
1 2 4 1594.8 47.32
1 2 4 1613.26 33.79
1 2 4 1470.95 43.25
1 2 4 1.77 4.62
1 2 4 1609.43 46.25
1 2 4 1584.3 45.2
1 2 4 1661.02 44.86
1 2 4 1599.9 37.61
1 2 4 0.92 1.44
1 2 4 1549.49 33.6
1 2 4 1570.84 46.31
1 2 4 1413.66 39.15
1 2 4 1101.67 40.18
1 2 5 186.71 17.43
1 2 5 195.6 15.83
1 2 5 215.35 14.28
1 2 5 204.66 17.2
1 2 5 216.33 19.37
1 2 5 207.35 13.74
1 2 5 198.17 17.77
1 2 5 202.25 17.54
1 2 5 277.02 19
1 2 5 205.02 17.39
1 2 5 206.72 13.85
1 2 5 227.14 13.75
1 2 5 195.31 11.99
1 2 5 184.07 12.28
1 2 5 177.13 13.17
1 2 5 199.7 16.81
1 2 5 195.78 17.18
1 2 6 2143.04 45.25
1 2 6 2000.45 63.69
1 2 6 2174.61 58.94
1 2 6 2062.25 47.19
1 2 6 2116.45 61.38
1 2 6 1954.19 55.95
1 2 6 2048.13 54.11
1 2 6 2119.92 60.27
1 2 6 1920.14 53.43
1 2 6 2110.43 56.93
1 2 6 1875.94 56.7
1 2 7 21.39 6.15
1 2 7 -3.18 5.87
1 2 7 30.54 7.33
1 2 7 26.69 7.61
1 2 7 33 8.89
1 2 7 59.16 8.62
1 2 7 23.07 6.53
1 2 7 33.16 8
1 2 8 1513.39 73.62
1 2 8 1676.46 76.11
1 2 8 1687.46 80.52
1 2 8 1682.71 73.63
1 2 8 1633.38 71.55
1 2 9 6.45 5.13
1 2 9 9.92 4.53
1 2 9 4.05 3.51
1 2 9 12.34 5.63
1 2 9 6.5 4.14
1 2 10 578.71 42.61
1 2 10 585.37 43.74
1 2 10 543.59 41.13
1 2 10 534.02 40.04
1 2 10 651.53 48.17
1 2 11 24.26 9.01
1 2 11 11.22 5.9
1 2 11 9.04 5.19
1 2 11 15.59 7.6
1 2 12 441.92 40.65
1 2 12 466.03 40.19
1 2 12 419.72 37.45
1 2 12 554.32 47.89
1 2 13 36.2 11.75
1 2 13 53.36 13.79
1 2 13 55.73 13.41
1 2 13 47.41 14.42
1 2 14 247.35 29.22
1 3 -12 454.38 42.67
1 3 -12 370.25 39.52
1 3 -12 469.46 43.35
1 3 -11 5.64 4.88
1 3 -11 1.94 2.52
1 3 -11 -1.95 0.02
1 3 -10 974.98 60.41
1 3 -10 805.71 57.65
1 3 -10 1019.3 63.71
1 3 -9 27.9 9.24
1 3 -9 16.62 7.18
1 3 -9 15.32 7.35
1 3 -8 823.41 49.57
1 3 -8 701.99 48.51
1 3 -8 764.34 51.15
1 3 -7 63.65 12.55
1 3 -7 56.89 11.35
1 3 -7 72.12 12.61
1 3 -7 48.64 10.84
1 3 -7 53.75 11.12
1 3 -7 69.53 13.52
1 3 -6 1274.82 63.54
1 3 -6 1124.88 56.68
1 3 -6 1283.74 65.07
1 3 -6 1278.61 60.31
1 3 -6 1279.15 62.52
1 3 -6 1134.69 60.35
1 3 -5 340.43 23.96
1 3 -5 296.29 25.12
1 3 -5 301.23 25.31
1 3 -5 376.84 29.36
1 3 -5 317.06 26.4
1 3 -5 306.9 23.62
1 3 -5 372.82 23.25
1 3 -5 336.55 24.69
1 3 -5 295.13 22.74
1 3 -5 339.9 24.6
1 3 -4 2313.7 87.7
1 3 -4 2338.25 82.96
1 3 -4 2220.45 86.83
1 3 -4 2409.67 87.85
1 3 -4 2260.45 80.32
1 3 -4 2424.4 86.7
1 3 -4 2477.37 86.73
1 3 -4 2275.49 90.52
1 3 -4 2140.35 88.68
1 3 -4 2248.84 84.85
1 3 -4 2239.21 81.52
1 3 -4 2170.26 89.27
1 3 -4 2078.61 86.52
1 3 -4 2275.96 84.61
1 3 -4 2225.73 86.89
1 3 -3 441.86 28.25
1 3 -3 466.71 29.04
1 3 -3 497.74 27.1
1 3 -3 503.36 29.23
1 3 -3 510.38 27.19
1 3 -3 495.79 25.72
1 3 -3 522.64 29.57
1 3 -3 534.1 29.53
1 3 -3 478.98 31.8
1 3 -3 515.89 30.49
1 3 -3 515.13 31.35
1 3 -3 469.33 27.6
1 3 -3 527.67 30.83
1 3 -3 514.67 31.34
1 3 -3 503.5 27.23
1 3 -3 474.86 29.57
1 3 -2 1212.05 54.55
1 3 -2 1390.89 53.65
1 3 -2 1226.27 46.93
1 3 -2 1179.61 52.43
1 3 -2 1209.86 53.45
1 3 -2 1234.62 38.9
1 3 -2 1231.62 50.84
1 3 -2 1262.73 44.98
1 3 -2 1285.74 49.21
1 3 -2 1197.61 52.9
1 3 -2 1333.4 54.71
1 3 -2 1252 52.79
1 3 -2 1154.62 53.89
1 3 -2 1312.8 54.92
1 3 -2 1265.12 50.93
1 3 -2 1319.3 54.8
1 3 -2 1231.32 45.81
1 3 -2 1286.33 48.68
1 3 -1 976.06 45.1
1 3 -1 893.66 39.99
1 3 -1 960.68 43.03
1 3 -1 926.29 37.13
1 3 -1 1004.3 42.89
1 3 -1 974.14 36.61
1 3 -1 899.34 39.08
1 3 -1 995.32 44.63
1 3 -1 992.68 43.63
1 3 -1 1062.29 44.41
1 3 -1 947.17 44.83
1 3 -1 956.29 43.9
1 3 -1 867.82 39.76
1 3 -1 977.56 44.01
1 3 -1 901.59 37.89
1 3 -1 916.63 43
1 3 -1 945.31 37.08
1 3 0 1813 72.02
1 3 0 1623.29 62.55
1 3 0 1610.67 57.7
1 3 0 1770.26 64.7
1 3 0 1788.47 62.16
1 3 0 1516 56.82
1 3 0 1562.74 59.99
1 3 0 1522.17 64.08
1 3 0 1657.58 65.51
1 3 0 1699.78 64.22
1 3 0 1803.03 65.53
1 3 0 1482.58 62.83
1 3 0 1609.69 64.17
1 3 0 1574.46 63.06
1 3 0 1565.35 63.73
1 3 1 813.52 37.63
1 3 1 877.47 40.59
1 3 1 843.31 35.14
1 3 1 793.25 39.9
1 3 1 812.71 39.78
1 3 1 769.87 38.2
1 3 1 896.05 40.39
1 3 1 853.79 40.01
1 3 1 884.82 35.66
1 3 1 786.43 33.1
1 3 1 816.75 38.12
1 3 1 796.32 43.29
1 3 1 743.12 37.85
1 3 1 790.55 39.38
1 3 2 530.98 34.91
1 3 2 454 23.48
1 3 2 541.79 29.34
1 3 2 602.18 25.34
1 3 2 563.94 30.21
1 3 2 569.91 32.91
1 3 2 513.09 26.78
1 3 2 460.67 29.69
1 3 2 589.82 32.89
1 3 2 547.66 30.55
1 3 2 569.95 30.48
1 3 2 576.24 31.64
1 3 2 571.89 30.97
1 3 2 535.23 30.04
1 3 2 501.2 30.29
1 3 2 543.34 30.98
1 3 2 529.32 29.99
1 3 2 569.62 30.17
1 3 3 2720.9 94.69
1 3 3 2366.42 97.57
1 3 3 2506.13 90.01
1 3 3 2865.02 99.16
1 3 3 2528.86 97.09
1 3 3 2183.62 88.57
1 3 3 2720.45 96.95
1 3 3 2494.84 84.75
1 3 3 2736 94.12
1 3 3 2767.69 96.57
1 3 3 2732.72 94.4
1 3 3 2807.44 96.02
1 3 3 2563.95 95.41
1 3 3 2498.16 95.4
1 3 4 446.59 29.86
1 3 4 483.18 30.46
1 3 4 519.98 31.71
1 3 4 482.1 30.41
1 3 4 458.67 29.8
1 3 4 502.95 32.08
1 3 4 486.17 31.64
1 3 4 493.09 28.35
1 3 4 491.75 30.43
1 3 5 1508.37 66.84
1 3 5 1360.29 65.39
1 3 5 1598.89 66.35
1 3 5 1563.4 67.13
1 3 5 1520.18 61.77
1 3 5 1501.73 68.39
1 3 5 1395.98 66.32
1 3 5 1393 60.55
1 3 5 1489.2 67.11
1 3 6 398.26 31.53
1 3 6 364.22 29.35
1 3 6 372 29.52
1 3 6 437.22 31.27
1 3 6 369.4 25.66
1 3 6 384.1 30.44
1 3 6 400.33 26.56
1 3 7 774.39 48.22
1 3 7 879.79 50.32
1 3 7 862.02 50.17
1 3 7 923.23 53.92
1 3 7 904.36 45.55
1 3 8 34.29 9.27
1 3 8 18.56 6.69
1 3 8 13.81 6.63
1 3 8 20.13 7.21
1 3 9 1026.69 58.47
1 3 9 842.97 53.46
1 3 9 917.37 59.05
1 3 10 16.32 7.05
1 3 10 18.52 7.99
1 3 10 24.67 8.51
1 3 11 721.22 50.91
1 3 11 715.86 53.79
1 3 11 603.78 46.01
1 3 11 629.77 48.25
1 3 11 601.76 47.94
1 3 12 1.87 4.2
1 3 12 -2.16 2.8
1 3 12 1.72 4.46
1 3 12 1.94 3.57
1 3 13 290.88 33.26
1 3 13 309.55 36.82
1 3 13 286.43 31.88
1 4 -11 247.4 31.09
1 4 -11 240.69 30.97
1 4 -10 71.09 16.33
1 4 -10 62.78 15.34
1 4 -9 895.34 59.4
1 4 -9 833.17 57.12
1 4 -8 6.88 4.47
1 4 -8 14.8 6.66
1 4 -8 4.93 3.7
1 4 -7 1608.58 78.84
1 4 -7 1416.01 72.97
1 4 -7 1461.32 75.33
1 4 -7 1393.33 68.77
1 4 -6 263.57 27.18
1 4 -6 243.55 24.38
1 4 -6 230.78 24.24
1 4 -6 285.83 27.5
1 4 -6 246.56 23.24
1 4 -5 445.31 29.69
1 4 -5 415.6 32.9
1 4 -5 384.06 29.03
1 4 -5 452.11 34.95
1 4 -5 417.93 28.07
1 4 -5 427.21 29.78
1 4 -5 415.6 32.07
1 4 -5 362.19 30.39
1 4 -4 1.87 2.43
1 4 -4 1.25 1.63
1 4 -4 1.18 2.17
1 4 -4 6.52 3.42
1 4 -4 0.86 1.58
1 4 -4 1.13 1.47
1 4 -4 2.32 2.13
1 4 -4 2.57 2.48
1 4 -3 1916.4 75.78
1 4 -3 2112.66 82.93
1 4 -3 2208.74 88.12
1 4 -3 2047.87 85.82
1 4 -3 2020.96 80.71
1 4 -3 2054.11 78.89
1 4 -3 2046.49 80.02
1 4 -3 2044.18 77.9
1 4 -3 2088.14 85.99
1 4 -2 351 22.41
1 4 -2 338 25.61
1 4 -2 370.03 28.35
1 4 -2 326.26 26.83
1 4 -2 278.76 22.15
1 4 -2 333.35 23.69
1 4 -2 324.09 25.71
1 4 -2 317.79 21.01
1 4 -1 1486.57 63.85
1 4 -1 1718.81 72.08
1 4 -1 1749.74 73.11
1 4 -1 1697.46 73.74
1 4 -1 1667.42 67.86
1 4 -1 1732.2 70.03
1 4 -1 1664.49 65.78
1 4 -1 1664.61 69.22
1 4 -1 1507.92 70.06
1 4 -1 1873.68 63.32
1 4 0 2052.15 44.69
1 4 0 1974.49 49.03
1 4 0 2011.34 59.29
1 4 0 2169.85 60.85
1 4 0 2158.53 57.93
1 4 0 2095.33 54.37
1 4 0 1964.6 49.06
1 4 0 2232.19 60.52
1 4 0 2038.43 54.78
1 4 0 1907.69 56.61
1 4 0 2030.17 56.57
1 4 0 2256.85 59.32
1 4 1 603.17 31.8
1 4 1 633.51 34.27
1 4 1 659.13 38.49
1 4 1 634.84 39.06
1 4 1 660.93 39.04
1 4 1 750.14 40.26
1 4 1 712.23 38.19
1 4 1 643.35 39.13
1 4 1 668.72 35.29
1 4 1 754.66 38.37
1 4 1 730.84 39.77
1 4 1 668.33 38.29
1 4 1 652.25 38.15
1 4 2 212.13 17.05
1 4 2 249.04 21.79
1 4 2 221.15 21.54
1 4 2 266.4 22.55
1 4 2 219.08 20.57
1 4 2 186.3 18.4
1 4 2 218.39 19.36
1 4 2 209.16 19.71
1 4 2 219.47 20.05
1 4 2 183.37 20.19
1 4 2 198.5 18.19
1 4 2 233.91 21.15
1 4 2 244.25 21.2
1 4 3 880.86 47.71
1 4 3 811.16 45.1
1 4 3 896.01 45.34
1 4 3 909.15 49.43
1 4 3 842.57 46.94
1 4 3 948.21 45.72
1 4 3 963.62 47.17
1 4 3 890.14 46.59
1 4 3 867.14 41.43
1 4 4 811.99 44.75
1 4 4 808.48 46.51
1 4 4 874.24 48.94
1 4 4 711.73 44.47
1 4 4 747.95 43.55
1 4 4 821.49 43.35
1 4 4 828.41 46.02
1 4 5 250.78 24
1 4 5 326.56 28.07
1 4 5 249.68 25.45
1 4 5 353.75 28.54
1 4 5 288.79 26.53
1 4 5 261.84 24.11
1 4 6 1705.23 81.46
1 4 6 1745.5 79.27
1 4 6 1787.25 73.81
1 4 6 1756.73 81.32
1 4 6 1865.73 78.87
1 4 6 1860.08 85.05
1 4 6 1837.7 84.2
1 4 6 1734.33 81.29
1 4 7 225.81 24.88
1 4 7 207.95 22.76
1 4 7 266.64 27.56
1 4 7 237.55 26.17
1 4 7 246.66 25.78
1 4 8 565.32 42.05
1 4 8 591.65 44.56
1 4 8 507.74 41.1
1 4 8 576.37 42.76
1 4 9 1.6 2.08
1 4 9 -1.79 2.32
1 4 9 1.67 3.06
1 4 9 1.65 2.15
1 4 10 303.75 32.07
1 4 10 363.01 36.66
1 4 10 321.11 33.5
1 4 11 5.36 4.65
1 4 11 8.29 6.02
1 4 12 540.4 45.62
1 4 12 590.64 48.92
1 4 12 660.51 53.78
1 5 -10 473.57 45.95
1 5 -10 479.67 44.45
1 5 -10 366.43 38.99
1 5 -9 28.78 10
1 5 -9 30.6 11.38
1 5 -9 32.41 11.19
1 5 -9 25.87 9.8
1 5 -8 592.58 47.28
1 5 -8 714.03 54.84
1 5 -8 751.01 54
1 5 -8 580.97 46.28
1 5 -7 1.71 2.22
1 5 -7 3.91 3.59
1 5 -7 5.41 4.69
1 5 -7 1.57 2.87
1 5 -6 843.69 54.5
1 5 -6 971.01 61.09
1 5 -6 938.18 58.67
1 5 -5 7.55 4.81
1 5 -5 14.43 5.85
1 5 -5 8.42 5.17
1 5 -5 12.66 5.79
1 5 -5 16.93 7.3
1 5 -5 20.82 8.06
1 5 -4 1075.58 61.51
1 5 -4 970.11 58.4
1 5 -4 997.22 52.28
1 5 -4 1073.42 59.35
1 5 -4 972.85 52.9
1 5 -4 1009.41 53.28
1 5 -4 941.42 55.16
1 5 -3 55.99 12.22
1 5 -3 76.35 12.35
1 5 -3 48.87 9.77
1 5 -3 67.29 12.05
1 5 -3 42.07 10.07
1 5 -2 1200.76 54.39
1 5 -2 1403.71 50.93
1 5 -2 1318.53 48.56
1 5 -2 1213.67 48.03
1 5 -2 1257.51 51.35
1 5 -2 1262.95 52.21
1 5 -1 354.03 30.7
1 5 -1 348.11 27.87
1 5 -1 331.91 26.85
1 5 -1 371.71 29.8
1 5 -1 325.71 27.86
1 5 0 793.14 48.05
1 5 0 696.25 42.36
1 5 0 774.62 40.06
1 5 0 744.46 45.75
1 5 0 749.48 44.78
1 5 0 718.81 44.32
1 5 0 861.93 48.57
1 5 1 321.87 27.18
1 5 1 345.54 24.63
1 5 1 221.37 24.47
1 5 1 309.74 27.61
1 5 1 316.11 28.16
1 5 1 285.83 25.47
1 5 1 253.13 24.6
1 5 2 947.86 48.09
1 5 2 933.91 53.06
1 5 2 934.03 51.16
1 5 2 916.83 51.87
1 5 2 1020.36 53.49
1 5 2 1016.4 55.83
1 5 3 640.66 38.1
1 5 3 618.37 40.59
1 5 3 601.87 42.66
1 5 3 546.31 39.15
1 5 3 489.29 36.13
1 5 3 623.84 40.7
1 5 4 585.03 38.88
1 5 4 568.02 40.32
1 5 4 644.43 44.59
1 5 4 668.37 43.6
1 5 4 523.44 37.55
1 5 4 589.08 40.97
1 5 5 649.18 42.46
1 5 5 737.41 46.95
1 5 5 595.23 44.68
1 5 5 677.36 45.26
1 5 5 624.76 44.07
1 5 5 591.1 40.69
1 5 6 107.68 17.81
1 5 6 103.82 16.21
1 5 6 108.08 16.69
1 5 6 115.13 16.98
1 5 6 112.68 18.65
1 5 6 104.88 17.49
1 5 6 124.72 19.02
1 5 7 561.17 42.64
1 5 7 416.95 35.3
1 5 7 451.46 39.11
1 5 7 512.37 42.08
1 5 7 539.43 41.77
1 5 8 201.29 25.65
1 5 8 161.69 23.75
1 5 8 178.44 24.46
1 5 8 234.78 27.45
1 5 9 467.73 41.23
1 5 9 504.34 43.7
1 5 9 519.56 44.18
1 5 9 524.36 43.94
1 5 10 26.21 10.34
1 5 10 22.18 9.47
1 5 10 34.96 11.3
1 5 11 312.74 34.56
1 5 11 333.51 36.46
1 5 11 381.87 39.39
1 6 -9 418.16 41.62
1 6 -8 45.79 12.92
1 6 -8 55.26 14.86
1 6 -8 59.57 14.26
1 6 -7 449.51 39.26
1 6 -7 449.02 40.44
1 6 -7 461.34 38.49
1 6 -6 -1.83 2.38
1 6 -6 -2.05 0.03
1 6 -6 1.95 2.53
1 6 -6 -1.67 3.07
1 6 -5 535.24 43.1
1 6 -5 611.45 47.19
1 6 -5 515.75 41.27
1 6 -4 5.12 4.96
1 6 -4 1.54 3.99
1 6 -4 14.28 7.69
1 6 -3 1338.99 74.04
1 6 -3 1310.58 66.35
1 6 -3 1250.87 67.07
1 6 -3 1306.33 69.63
1 6 -2 6.68 4.86
1 6 -2 14.83 6.32
1 6 -2 8.63 4.95
1 6 -2 19.67 7.03
1 6 -2 11.52 6.21
1 6 -1 526.38 37.95
1 6 -1 525.98 40.08
1 6 -1 476.41 37.3
1 6 -1 557.03 42.72
1 6 0 139.62 20.35
1 6 0 149.9 19.2
1 6 0 157.44 21.26
1 6 0 101.22 17.19
1 6 0 165.57 20.48
1 6 0 127.01 17.98
1 6 1 736.31 48.72
1 6 1 724.44 45.51
1 6 1 762.34 46.52
1 6 1 697.94 47.49
1 6 1 624.67 42.74
1 6 1 660.69 45.14
1 6 2 305.7 28.89
1 6 2 334.51 32.34
1 6 2 261.56 26.6
1 6 2 339.57 31.29
1 6 2 309.13 30.57
1 6 3 685.44 45.68
1 6 3 644.33 47.57
1 6 3 564.69 41.16
1 6 3 633.43 45.67
1 6 4 239.24 25.56
1 6 4 242.83 27.74
1 6 4 267.64 28.48
1 6 4 339.28 31.13
1 6 4 264.17 29.64
1 6 5 268.19 29.53
1 6 5 279.39 29.71
1 6 5 243.02 29.45
1 6 5 266.72 28.65
1 6 5 259.55 26.6
1 6 6 242.63 28.33
1 6 6 220.49 27.08
1 6 6 217 26.34
1 6 6 217.16 28.6
1 6 7 220.09 27.82
1 6 7 232.06 28.21
1 6 7 203.74 28.28
1 6 7 242.16 28.74
1 6 8 550.81 45.78
1 6 8 539.99 45.23
1 6 8 432.99 41.2
1 6 8 495.2 44.93
1 6 9 40.91 12.78
1 6 9 41.39 12.58
1 6 9 29.73 10.97
1 6 9 38.01 12.31
1 6 10 237.78 31.06
1 6 10 260.15 32.57
1 6 10 216.23 29.32
1 7 -7 127.11 22.47
1 7 -6 669.89 54.64
1 7 -6 637.66 51.51
1 7 -6 637.72 49.61
1 7 -5 29.7 11.04
1 7 -5 24.13 9.79
1 7 -5 17.79 7.68
1 7 -4 309.36 35.01
1 7 -4 266.96 30.35
1 7 -4 318.62 34.83
1 7 -3 51.92 13.14
1 7 -3 44.29 11.54
1 7 -3 80.1 17.31
1 7 -2 559.95 42.58
1 7 -2 558.13 46.93
1 7 -2 509.52 41.49
1 7 -2 599.61 45.3
1 7 -1 3.8 4.27
1 7 -1 7.95 5.06
1 7 -1 1.56 2.87
1 7 -1 1.73 4.48
1 7 0 611.03 48.32
1 7 0 623.28 47.54
1 7 0 655.93 45.68
1 7 0 543.2 42.6
1 7 1 3.27 3
1 7 1 4.66 4.03
1 7 1 1.83 3.35
1 7 1 3.06 2.81
1 7 1 3.47 3.19
1 7 1 1.83 3.36
1 7 2 602.06 45.62
1 7 2 599.31 46.68
1 7 2 589.34 44.22
1 7 2 627.94 49.32
1 7 3 392.81 37.01
1 7 3 403.25 35.53
1 7 3 308.12 34.53
1 7 4 201.87 26.59
1 7 4 204.85 28.01
1 7 4 172.86 23.58
1 7 5 90.29 17.95
1 7 5 131.21 20.57
1 7 5 162.15 24.96
1 7 5 108.78 19.91
1 7 6 215.57 28.29
1 7 6 140.54 22.3
1 7 6 145.82 24.55
1 7 6 160.2 24.25
1 7 7 122.2 21.76
1 7 7 123.47 22.96
1 7 7 116.61 20.4
1 7 7 101.87 19.89
1 7 8 306.35 35.26
1 7 8 298.6 35.93
1 7 8 302.58 34.46
1 8 -4 6.66 5.77
1 8 -3 203.82 26.84
1 8 -3 241.07 31.81
1 8 -2 7.13 5.18
1 8 -2 8.75 5.68
1 8 -2 5.49 4.12
1 8 -1 467.22 43.94
1 8 -1 363.65 36.94
1 8 0 17.86 8.56
1 8 0 23.09 9.84
1 8 1 404.33 40.84
1 8 2 14.85 8.72
1 8 3 218.78 30.12
1 8 3 252.27 31.55
1 8 4 52.22 14.43
1 8 4 50.8 14.35
1 8 5 225.39 30.25
2 -7 -3 449.76 46.7
2 -7 -3 426.07 46.45
2 -7 -2 27.48 11.72
2 -7 -2 35.16 12.57
2 -7 -2 19.29 10.87
2 -7 -1 165.37 28.3
2 -7 -1 184.85 28.88
2 -7 -1 210.21 31.82
2 -7 -1 177.56 27.67
2 -7 -1 233.65 28.36
2 -7 -1 245.16 28.98
2 -7 0 26.38 11.11
2 -7 0 41.23 15.14
2 -7 0 33.16 12.35
2 -7 0 51.8 14.87
2 -7 0 45.66 12.33
2 -7 0 42.78 12.08
2 -7 1 161.63 28.24
2 -7 1 203.84 28.69
2 -7 1 214.31 29.46
2 -7 1 215.53 31.41
2 -7 1 255.55 29.27
2 -7 2 -2.34 9.1
2 -7 2 -2.26 4.16
2 -7 2 1.74 2.26
2 -7 3 528.28 49.63
2 -7 3 478.52 46.63
2 -7 3 608.84 46.14
2 -7 4 21.8 9.42
2 -7 4 34.29 12.61
2 -7 5 219.48 30.22
2 -6 -6 203.49 32.12
2 -6 -6 200.39 31.43
2 -6 -6 159.29 28.8
2 -6 -5 97.47 22.04
2 -6 -5 135.59 25.23
2 -6 -5 106.42 22.75
2 -6 -5 141.26 21.2
2 -6 -4 267.69 36.24
2 -6 -4 264.55 34.72
2 -6 -4 259.3 35.26
2 -6 -4 271.17 29.53
2 -6 -3 2.49 4.58
2 -6 -3 4.48 5.04
2 -6 -3 -2.31 0.02
2 -6 -3 -1.61 0.02
2 -6 -2 440.22 44.42
2 -6 -2 490.75 48.9
2 -6 -2 451.19 38.31
2 -6 -2 456.81 38.41
2 -6 -2 428.18 42.46
2 -6 -1 77.45 17.5
2 -6 -1 48.22 13.68
2 -6 -1 92.78 16.84
2 -6 -1 55.01 13.08
2 -6 0 567.27 46.75
2 -6 0 619.43 44.57
2 -6 0 549.37 48.86
2 -6 0 543.5 46.99
2 -6 0 530.9 48.06
2 -6 1 4.07 4.58
2 -6 1 5.45 4.72
2 -6 1 3.14 3.53
2 -6 1 3.7 3.4
2 -6 1 4.22 6.13
2 -6 2 455.13 39.97
2 -6 2 552.39 41.86
2 -6 2 466.7 40.85
2 -6 2 487.75 43.94
2 -6 2 437.9 42.77
2 -6 3 74.17 15.46
2 -6 3 63.56 16.32
2 -6 3 70.53 14.53
2 -6 3 79.81 17.08
2 -6 4 322.34 36.3
2 -6 4 388.41 36.49
2 -6 4 450.96 37.35
2 -6 4 355.07 36.72
2 -6 4 447.35 38.56
2 -6 5 16.35 7.98
2 -6 5 20.74 8.3
2 -6 5 17.93 7.74
2 -6 5 13.29 6.99
2 -6 5 22.23 8.61
2 -6 6 275.14 33.17
2 -6 6 324.01 34.71
2 -6 6 332.23 33.74
2 -6 7 76.21 17.74
2 -6 7 105.82 19.7
2 -6 7 92.98 18.14
2 -6 7 110.44 19.43
2 -6 8 287.09 34.22
2 -6 8 310.58 33.9
2 -5 -8 196.32 25.69
2 -5 -8 232.72 34.45
2 -5 -8 151.12 27.14
2 -5 -7 210.95 25.91
2 -5 -7 192 30.2
2 -5 -6 161.17 26.65
2 -5 -6 162.66 27.17
2 -5 -6 171.9 28.11
2 -5 -6 216.44 25.85
2 -5 -5 411.13 42.35
2 -5 -5 311.44 37.47
2 -5 -5 310.46 38.06
2 -5 -5 429.91 35.87
2 -5 -4 138.49 24.28
2 -5 -4 148.17 24.48
2 -5 -4 151.53 25.49
2 -5 -4 150.67 20.67
2 -5 -3 391.28 41.04
2 -5 -3 393.16 39.72
2 -5 -3 405.3 41.22
2 -5 -3 391.12 33.66
2 -5 -2 161.28 24.92
2 -5 -2 119.84 22.92
2 -5 -2 148.59 22.96
2 -5 -2 205.85 23.11
2 -5 -2 168.04 21.44
2 -5 -1 783.07 57.29
2 -5 -1 874.22 62.86
2 -5 -1 956.36 60.05
2 -5 -1 837.78 51.77
2 -5 -1 931.85 54.59
2 -5 0 1.63 2.99
2 -5 0 4.14 3.58
2 -5 0 8.61 5.91
2 -5 0 2.07 5.38
2 -5 1 705.37 48.13
2 -5 1 795.35 48.07
2 -5 1 733.73 51.32
2 -5 1 645.18 47.24
2 -5 1 599.01 48.63
2 -5 1 625.9 50.73
2 -5 2 3.36 3.08
2 -5 2 2.92 3.79
2 -5 2 -1.78 6.12
2 -5 2 9.86 5.48
2 -5 2 8.23 4.71
2 -5 2 17.63 7.14
2 -5 3 723.3 47.22
2 -5 3 629.01 49.02
2 -5 3 736.32 47.55
2 -5 3 770.82 48.42
2 -5 3 785.38 49.39
2 -5 3 671.56 49.38
2 -5 4 13.76 5.93
2 -5 4 1.77 5.13
2 -5 4 9.83 6.32
2 -5 4 6.09 4.84
2 -5 4 8.14 5.6
2 -5 4 1.43 5.58
2 -5 5 846.64 57.84
2 -5 5 966.93 56.29
2 -5 5 1002.2 58.61
2 -5 5 794.29 54.24
2 -5 5 855.41 53.66
2 -5 6 45.28 12.74
2 -5 6 44.79 11.88
2 -5 6 67.7 13.72
2 -5 6 42.42 11.5
2 -5 6 56.95 12.72
2 -5 7 334.22 34.78
2 -5 7 380.2 35.4
2 -5 7 316 32.18
2 -5 7 306.54 31.38
2 -5 8 124.1 21.08
2 -5 8 152.63 22.72
2 -5 8 122.27 19.84
2 -5 8 154.79 22.54
2 -5 9 316.09 34.98
2 -5 9 375.78 35.79
2 -5 10 104.74 19.73
2 -5 10 86.63 18.1
2 -4 -10 9.41 6.84
2 -4 -10 29.73 10.24
2 -4 -10 13.4 8.53
2 -4 -9 185.43 28.36
2 -4 -9 255.23 29.58
2 -4 -9 213.16 32.75
2 -4 -8 40.01 12.91
2 -4 -8 72.41 15.38
2 -4 -8 53.59 15.89
2 -4 -7 518.36 44.67
2 -4 -7 469.37 46.22
2 -4 -7 464.31 38.83
2 -4 -6 671.71 50.15
2 -4 -6 692.48 53.46
2 -4 -6 645.2 53.62
2 -4 -6 697.13 47.18
2 -4 -5 238.4 27.54
2 -4 -5 209.67 28.68
2 -4 -5 219.28 29.31
2 -4 -5 180.84 26.65
2 -4 -5 229.11 25.01
2 -4 -4 376.53 37.85
2 -4 -4 389.13 37.85
2 -4 -4 396.36 34.4
2 -4 -4 390.16 32.53
2 -4 -3 151.6 23.43
2 -4 -3 170.79 20.73
2 -4 -3 145.2 22.13
2 -4 -3 157.68 19.35
2 -4 -3 177.08 20.88
2 -4 -2 407.52 38.74
2 -4 -2 382.69 35.34
2 -4 -2 477.03 34.04
2 -4 -2 409.33 31.85
2 -4 -2 388.02 31.69
2 -4 -1 665.85 48.43
2 -4 -1 653.63 50.58
2 -4 -1 737.81 42.28
2 -4 -1 708.58 47.73
2 -4 -1 715.13 43.59
2 -4 -1 784.86 46.3
2 -4 0 2069.49 92.03
2 -4 0 2138.17 88.81
2 -4 0 1992.25 93.89
2 -4 0 2021.09 98.91
2 -4 1 1.24 1.62
2 -4 1 12.78 5.22
2 -4 1 10.18 4.64
2 -4 1 13.28 5.72
2 -4 1 16.84 7.25
2 -4 2 810.41 46.46
2 -4 2 742.98 49.46
2 -4 2 721.68 50.61
2 -4 2 791.39 46.1
2 -4 2 788.87 46.08
2 -4 2 810.07 49.51
2 -4 2 720.17 45.19
2 -4 3 12.06 5.78
2 -4 3 6.72 3.85
2 -4 3 10.54 5.87
2 -4 3 2.95 3.83
2 -4 3 9.21 4.49
2 -4 3 10.72 4.9
2 -4 3 9.87 5.07
2 -4 3 11.78 4.56
2 -4 3 5.41 3.72
2 -4 4 843.79 47.23
2 -4 4 890.06 54.29
2 -4 4 816.13 48.24
2 -4 4 931.2 51.06
2 -4 4 884.93 51.05
2 -4 4 800.35 50.1
2 -4 5 43.1 9.45
2 -4 5 30.33 9.69
2 -4 5 34.19 9.05
2 -4 5 38.44 9.96
2 -4 5 28.1 8.73
2 -4 5 22.39 7.28
2 -4 6 1287.03 69.7
2 -4 6 1358.44 67.18
2 -4 6 1387.29 69.95
2 -4 6 1167.18 64.61
2 -4 6 1217.91 64.48
2 -4 7 115.58 18.66
2 -4 7 101 16.45
2 -4 7 105.07 17.64
2 -4 7 117.44 17.49
2 -4 7 96.85 15.97
2 -4 8 444.94 38.85
2 -4 8 581.36 43.53
2 -4 8 509.79 38.97
2 -4 8 465.98 37.36
2 -4 8 487.45 38.73
2 -4 9 70.95 15.18
2 -4 9 52.23 13.11
2 -4 9 70.77 14.08
2 -4 9 62.47 13.91
2 -4 10 314.46 33.96
2 -4 10 338.14 34.32
2 -4 11 114.04 20.58
2 -4 11 91.44 18.19
2 -4 11 95.32 18.85
2 -3 -11 7.86 8.34
2 -3 -11 11.77 7.49
2 -3 -10 500.42 42.66
2 -3 -10 432.14 46.06
2 -3 -10 410.72 42.96
2 -3 -9 175.13 23.86
2 -3 -9 127.6 24.3
2 -3 -9 127.09 22.54
2 -3 -8 619.71 49.61
2 -3 -8 629.53 42.69
2 -3 -8 545.38 43.99
2 -3 -7 138.1 22.94
2 -3 -7 116.3 19.82
2 -3 -7 152.91 20.51
2 -3 -6 393.45 37
2 -3 -6 360.64 33.87
2 -3 -6 430.88 35.8
2 -3 -6 446.36 33.15
2 -3 -5 292.9 29.74
2 -3 -5 332.61 33.41
2 -3 -5 358.05 30.13
2 -3 -5 351.42 34.4
2 -3 -4 823.6 50.43
2 -3 -4 854.98 56.24
2 -3 -4 903.61 50.45
2 -3 -4 869.58 55.74
2 -3 -3 857.98 52.85
2 -3 -3 844.23 54.82
2 -3 -3 843.06 47.92
2 -3 -3 840.1 47.4
2 -3 -3 791.83 44.64
2 -3 -2 362.15 31.06
2 -3 -2 352.52 27.02
2 -3 -2 374.29 27.89
2 -3 -2 342.9 32.86
2 -3 -2 368.17 24.27
2 -3 -2 374.31 28.86
2 -3 -1 1588.6 75.2
2 -3 -1 1648.27 68.51
2 -3 -1 1553.6 69.94
2 -3 -1 1577.16 81.05
2 -3 -1 1858.48 67.95
2 -3 -1 1592.82 72.26
2 -3 0 255.12 21.73
2 -3 0 280.66 22.28
2 -3 0 281.68 18.8
2 -3 0 252.88 21.99
2 -3 0 291.01 22.19
2 -3 0 298.13 21.34
2 -3 0 248.86 18.03
2 -3 0 293.15 28.14
2 -3 1 921.79 55.18
2 -3 1 1023.54 46.91
2 -3 1 950.62 48.7
2 -3 1 981.08 48.44
2 -3 1 912.17 47.21
2 -3 1 990.4 48.78
2 -3 1 921.53 50.58
2 -3 1 1008.11 49.8
2 -3 1 993.47 43.32
2 -3 1 991.86 47.4
2 -3 1 1006.91 45.8
2 -3 1 881.37 47.64
2 -3 2 335.52 24.16
2 -3 2 405.02 29.87
2 -3 2 347.69 25.08
2 -3 2 381.25 27.59
2 -3 2 399.25 27.18
2 -3 2 365.21 25.28
2 -3 2 404.15 27.19
2 -3 2 421.13 28.69
2 -3 2 374.75 27.51
2 -3 2 310.41 27.63
2 -3 2 376.17 31.75
2 -3 3 1166.09 49.47
2 -3 3 1109.29 51.59
2 -3 3 1201.27 53.54
2 -3 3 1187.34 57.49
2 -3 3 1093.92 52.24
2 -3 3 1169.54 52.29
2 -3 3 1131.85 53.82
2 -3 3 1172.86 56.43
2 -3 3 1184.24 56.61
2 -3 3 1133.38 59.01
2 -3 3 1207.75 60.54
2 -3 4 3.01 2.39
2 -3 4 0.72 1.61
2 -3 4 1.04 2.34
2 -3 4 3.09 2.24
2 -3 4 1.66 1.86
2 -3 4 0.94 1.22
2 -3 4 3.12 2.26
2 -3 4 -1.1 2.02
2 -3 4 -1.21 0.03
2 -3 4 3.26 2.44
2 -3 5 2180.96 91.67
2 -3 5 2320.55 91.3
2 -3 5 2281.88 86.15
2 -3 5 2406.13 95.86
2 -3 5 2328.09 92.06
2 -3 5 2253.26 93.01
2 -3 5 2089.01 94.07
2 -3 6 2.54 2.86
2 -3 6 8.51 4.15
2 -3 6 3.54 3.43
2 -3 6 5.52 3.52
2 -3 6 14.16 5.29
2 -3 6 11.8 5.65
2 -3 7 758.88 43.44
2 -3 7 740.4 46.99
2 -3 7 699.21 44.52
2 -3 7 667.94 42.32
2 -3 7 706.17 43.78
2 -3 7 683.39 45.65
2 -3 8 2.7 2.48
2 -3 8 1.49 2.73
2 -3 8 1.23 2.26
2 -3 8 1.3 2.93
2 -3 8 -1.46 0.02
2 -3 9 577.8 42.27
2 -3 9 606.25 44.72
2 -3 9 576.6 40.27
2 -3 9 643.46 43.75
2 -3 9 567.32 42.73
2 -3 10 106.07 18.19
2 -3 10 74.89 15.34
2 -3 10 121.73 20.1
2 -3 11 529.12 42.98
2 -3 11 520.26 43.03
2 -3 11 563.43 45.84
2 -3 12 90.22 17.6
2 -3 12 90.68 18
2 -3 12 125.88 21.35
2 -2 -11 370.74 41.03
2 -2 -11 458.29 39.88
2 -2 -11 489.58 43.87
2 -2 -11 378.2 39.85
2 -2 -11 390.56 40.47
2 -2 -10 13.95 7.99
2 -2 -10 -7.77 0.35
2 -2 -10 12.73 7.3
2 -2 -10 20.1 8.56
2 -2 -10 15.08 7.92
2 -2 -9 415.58 40.7
2 -2 -9 423.71 38.87
2 -2 -9 514.53 39.37
2 -2 -9 373.79 37.86
2 -2 -8 36.26 12.29
2 -2 -8 44.12 12.43
2 -2 -8 36.78 11.54
2 -2 -8 62.6 13.35
2 -2 -7 961.35 49.7
2 -2 -7 799.77 51.64
2 -2 -7 841.84 50.89
2 -2 -7 861.1 49.14
2 -2 -7 922.3 55.36
2 -2 -6 319.68 25.43
2 -2 -6 380.95 29.63
2 -2 -6 336.84 31.84
2 -2 -6 272.06 27.35
2 -2 -6 349 30.53
2 -2 -6 343.95 32.32
2 -2 -5 737.31 50.09
2 -2 -5 744.32 47.35
2 -2 -5 717.26 49.04
2 -2 -5 772.62 45.64
2 -2 -5 732.17 48.45
2 -2 -4 825.76 50.73
2 -2 -4 690.36 46.76
2 -2 -4 735.04 45.22
2 -2 -4 794.94 50.15
2 -2 -4 781.73 44.48
2 -2 -4 848.6 41.89
2 -2 -3 1278.81 61.6
2 -2 -3 1391.58 56.12
2 -2 -3 1249.6 59.76
2 -2 -3 1247.39 64.73
2 -2 -3 1393.93 53.42
2 -2 -3 1207.43 63
2 -2 -3 1231.83 56.3
2 -2 -3 1200.19 59.54
2 -2 -3 1457.32 56.08
2 -2 -3 1307.77 56.11
2 -2 -3 1135.99 64.13
2 -2 -2 398.44 29.72
2 -2 -2 421.07 27.22
2 -2 -2 441.13 24.85
2 -2 -2 452.74 31.62
2 -2 -2 399.23 28.27
2 -2 -2 444.48 32.41
2 -2 -2 459.62 24.94
2 -2 -2 470.75 32.14
2 -2 -2 417.24 28
2 -2 -2 493.76 27.81
2 -2 -2 450.07 34.55
2 -2 -1 734.47 41.57
2 -2 -1 798.3 38.93
2 -2 -1 745.41 40.2
2 -2 -1 720.46 31.64
2 -2 -1 670.02 39.92
2 -2 -1 732.4 41.68
2 -2 -1 748.35 34.33
2 -2 -1 736.38 31.88
2 -2 -1 734.38 36.1
2 -2 -1 753.66 30.11
2 -2 -1 750.45 36.04
2 -2 -1 681.89 44.49
2 -2 0 1943.88 84.69
2 -2 0 2042.32 72.59
2 -2 0 1847.58 73.74
2 -2 0 1987.69 74.56
2 -2 0 1899.26 72.39
2 -2 0 1957.22 63.93
2 -2 0 1738.19 75.8
2 -2 0 1737.71 74.46
2 -2 0 1820.79 68.62
2 -2 0 1919.19 76.49
2 -2 0 2148.31 68.14
2 -2 0 2081.33 77.26
2 -2 0 1934.55 67.31
2 -2 0 1914.55 70.52
2 -2 0 1905.68 62.07
2 -2 0 2016.61 80.23
2 -2 0 2009.03 77.73
2 -2 0 1879.23 79.31
2 -2 1 293.12 19.38
2 -2 1 285.77 25
2 -2 1 325.43 21.66
2 -2 1 269.83 17.09
2 -2 1 308.83 21.13
2 -2 1 306.46 21.77
2 -2 1 309.99 21.74
2 -2 1 301.98 20.7
2 -2 1 260.04 20.39
2 -2 1 274.66 20.27
2 -2 1 290.15 20.53
2 -2 1 289.09 16.24
2 -2 1 266.69 18.38
2 -2 1 234.36 14.25
2 -2 1 256.32 20.76
2 -2 2 2913.87 106.25
2 -2 2 2857.2 110.07
2 -2 2 2994.78 104.63
2 -2 2 2955.95 100.17
2 -2 2 2884.86 102.31
2 -2 2 2843.33 103.28
2 -2 2 2948.71 104.11
2 -2 2 2909.76 103.68
2 -2 2 2648.73 99.35
2 -2 2 2807.38 100.76
2 -2 2 2975.55 103.7
2 -2 2 2963.25 100.4
2 -2 2 3058.11 101.52
2 -2 2 3089.5 96.04
2 -2 2 2681.85 103.41
2 -2 3 903.12 48.04
2 -2 3 983.41 49.39
2 -2 3 1116.8 48.94
2 -2 3 978.73 45.23
2 -2 3 1032.41 47.63
2 -2 3 990.83 47.51
2 -2 3 1014.51 48.1
2 -2 3 1018.79 41.22
2 -2 3 956.81 42.95
2 -2 3 998.81 43.23
2 -2 3 973.64 46.4
2 -2 3 1057.97 46.23
2 -2 3 1054.31 43.35
2 -2 3 1012.02 45.96
2 -2 3 1041.99 44.95
2 -2 3 1006.52 37.37
2 -2 3 988.07 47.01
2 -2 3 1001.19 42.49
2 -2 4 1075.77 39.75
2 -2 4 1062.24 41.16
2 -2 4 1103.87 41.6
2 -2 4 1236.96 38.34
2 -2 4 1124.68 39.38
2 -2 4 1115.51 33.82
2 -2 4 1101.48 30.01
2 -2 4 1125.4 34.43
2 -2 4 1043.14 37.29
2 -2 4 1036.55 41.98
2 -2 4 1059.18 39.3
2 -2 4 1001.21 37.58
2 -2 4 1070.18 36.62
2 -2 4 1103.61 38.55
2 -2 4 1097.43 37.11
2 -2 5 10.92 4.05
2 -2 5 6.23 3.28
2 -2 5 11.73 3.58
2 -2 5 13.71 4.69
2 -2 5 8.47 3.43
2 -2 5 10.06 4.34
2 -2 5 2.93 2.13
2 -2 5 8.72 3.93
2 -2 5 9.12 4.37
2 -2 5 3.02 2.27
2 -2 5 5.81 3.56
2 -2 5 18.73 5.17
2 -2 6 1131.03 53.62
2 -2 6 1127.92 57.11
2 -2 6 1146.11 51.86
2 -2 6 1224.54 59.21
2 -2 6 1109.32 54.49
2 -2 6 1240.59 59.75
2 -2 6 1236.47 58.62
2 -2 6 1144.52 53.92
2 -2 7 4.71 3
2 -2 7 4.68 3.4
2 -2 7 8.97 3.97
2 -2 7 3.46 3
2 -2 7 1.23 5.78
2 -2 7 13.53 5.02
2 -2 7 7.25 4.15
2 -2 7 9.07 4.34
2 -2 8 1569.82 72.56
2 -2 8 1527.46 74.34
2 -2 8 1635.43 71.37
2 -2 8 1686.13 78.64
2 -2 8 1625.22 75.93
2 -2 8 1572.2 70.71
2 -2 9 1.37 2.52
2 -2 9 1.38 3.59
2 -2 9 2.57 2.89
2 -2 9 1.49 4.32
2 -2 9 6.87 4.72
2 -2 10 696.93 47.38
2 -2 10 665.57 47.07
2 -2 10 733.11 47.88
2 -2 10 711.85 48.33
2 -2 11 141.52 21.51
2 -2 11 141.66 20.76
2 -2 11 153.98 21.51
2 -2 11 126.71 19.6
2 -2 12 250.69 29.66
2 -2 12 226.05 26.83
2 -2 12 187.55 25.13
2 -2 13 16.04 7.32
2 -2 13 1.79 4.66
2 -1 -12 346.74 38.94
2 -1 -12 311.94 37.59
2 -1 -12 347.46 40.96
2 -1 -11 1.95 5.66
2 -1 -11 6.99 6.05
2 -1 -11 -8.46 0.13
2 -1 -11 10.4 6.61
2 -1 -11 4.18 5.43
2 -1 -11 4.34 3.98
2 -1 -10 1035.29 58.01
2 -1 -10 921.87 59.79
2 -1 -10 1080.81 61.02
2 -1 -10 872.57 56.53
2 -1 -10 765.87 52.39
2 -1 -9 138.8 22.44
2 -1 -9 135.18 22.61
2 -1 -9 189.49 24.21
2 -1 -9 125.72 21.22
2 -1 -8 357.43 34.57
2 -1 -8 346.72 33.92
2 -1 -8 388.16 32.47
2 -1 -8 318.82 31.53
2 -1 -7 13.48 6.56
2 -1 -7 13.75 6.19
2 -1 -7 1.62 2.98
2 -1 -7 8.26 4.34
2 -1 -7 -5.99 0.18
2 -1 -7 20.33 7.26
2 -1 -6 1458.61 63.04
2 -1 -6 1550.52 55.74
2 -1 -6 1671.27 60.78
2 -1 -6 1415.76 61.6
2 -1 -6 1697.52 63.14
2 -1 -5 215.42 22.87
2 -1 -5 198.14 22.58
2 -1 -5 195.86 18.92
2 -1 -5 251.28 22.35
2 -1 -5 238.77 22.36
2 -1 -5 199.96 19.99
2 -1 -5 182.5 22.17
2 -1 -5 214.75 19.49
2 -1 -4 2002.52 55.07
2 -1 -4 1761.08 62.57
2 -1 -4 1969.57 54.82
2 -1 -4 1896.27 52.68
2 -1 -4 1821.21 58.29
2 -1 -4 1862.68 59.61
2 -1 -4 2048.99 59.62
2 -1 -4 1845.85 56.95
2 -1 -4 1831.53 63.06
2 -1 -4 2089.87 53.91
2 -1 -4 1791.51 62.83
2 -1 -3 2140.25 50.19
2 -1 -3 1983.77 64.11
2 -1 -3 2025.83 49.51
2 -1 -3 1946.15 57.92
2 -1 -3 2117.67 58.18
2 -1 -3 1925.13 58.88
2 -1 -3 2006.24 57.49
2 -1 -3 1953.68 55.9
2 -1 -3 2200.25 42.8
2 -1 -3 1925.04 61.47
2 -1 -3 2151.41 53.38
2 -1 -3 2181.69 53.34
2 -1 -2 636.74 28.75
2 -1 -2 491.78 25.75
2 -1 -2 553.91 29.88
2 -1 -2 587.34 25.46
2 -1 -2 550.52 23.64
2 -1 -2 508.38 29.15
2 -1 -2 585.11 29.03
2 -1 -2 565.85 29.67
2 -1 -2 529.66 30.34
2 -1 -2 615.15 21.71
2 -1 -2 564.89 24.48
2 -1 -2 528.62 32.31
2 -1 -1 477.36 24.1
2 -1 -1 506.58 32.67
2 -1 -1 475.69 22.6
2 -1 -1 438.07 24.25
2 -1 -1 462.9 24.5
2 -1 -1 437.93 25.52
2 -1 -1 489.14 25.39
2 -1 -1 443.06 21.78
2 -1 -1 420.44 21.46
2 -1 -1 481.19 27.52
2 -1 -1 437.51 28.17
2 -1 -1 403.8 24.53
2 -1 -1 437.45 20.91
2 -1 -1 476.92 26.91
2 -1 -1 464.36 21.55
2 -1 -1 480.66 28.86
2 -1 -1 446.27 28.54
2 -1 0 2082.09 69.33
2 -1 0 1866.62 78.65
2 -1 0 2173.21 69.6
2 -1 0 1813.68 65.87
2 -1 0 1816.2 69.13
2 -1 0 2010.03 63.52
2 -1 0 2015.92 72.22
2 -1 0 1958.08 71.43
2 -1 0 2077.71 72.12
2 -1 0 2012.76 68.3
2 -1 0 1996.58 68.51
2 -1 0 1826.56 63.04
2 -1 0 1846.68 74.1
2 -1 0 1931.02 73.97
2 -1 0 2003.32 69.12
2 -1 0 1951.72 73.6
2 -1 0 2083.83 59.86
2 -1 0 1964.32 66.96
2 -1 0 1924.8 75.97
2 -1 0 1904.35 74.3
2 -1 1 984.82 39.36
2 -1 1 1001.25 48.33
2 -1 1 1095.35 42.44
2 -1 1 1061.56 49.88
2 -1 1 1015.94 40.33
2 -1 1 979.72 41.16
2 -1 1 969.08 39.03
2 -1 1 1038.19 38.58
2 -1 1 939.81 42.65
2 -1 1 966.64 42.22
2 -1 1 949.92 40.5
2 -1 1 1033.13 43.16
2 -1 1 981.55 41.08
2 -1 1 971.65 43.06
2 -1 1 893.24 40.39
2 -1 1 1003.44 33.6
2 -1 1 956.94 39.4
2 -1 1 1018.72 41.07
2 -1 1 1032.28 39.45
2 -1 1 1072.55 35.88
2 -1 1 1012.89 45.9
2 -1 1 954.15 43.92
2 -1 2 665.45 33.68
2 -1 2 697.23 36.65
2 -1 2 719.24 38.47
2 -1 2 791.84 41.34
2 -1 2 763.31 30.26
2 -1 2 713.68 32.77
2 -1 2 673.13 32.77
2 -1 2 638.66 29.21
2 -1 2 770.15 33.06
2 -1 2 692.36 34.06
2 -1 2 718.61 34.6
2 -1 2 707.13 33.59
2 -1 2 709.26 34.04
2 -1 2 686.76 33.99
2 -1 2 684.04 31.62
2 -1 2 702.78 30.69
2 -1 2 731.62 29.02
2 -1 2 757.17 32.66
2 -1 2 701.41 29.6
2 -1 2 744.2 35.5
2 -1 2 681.88 34.3
2 -1 3 4155.88 131.38
2 -1 3 4171.48 134.64
2 -1 3 3969.21 135.25
2 -1 3 4052.43 145.95
2 -1 3 3966.19 139.55
2 -1 3 4369.99 133.87
2 -1 3 4066 128.53
2 -1 3 3936.7 128.53
2 -1 3 3956.98 130.39
2 -1 3 4160.1 133.75
2 -1 3 4112.67 123.15
2 -1 3 4070.3 135.24
2 -1 3 3956.87 135.43
2 -1 3 3925.36 134.67
2 -1 3 3881.17 135.08
2 -1 3 4078.91 135.21
2 -1 3 4125.9 126.63
2 -1 3 4198.5 127.37
2 -1 3 3984.66 130.41
2 -1 3 4035.72 125.55
2 -1 3 4210.88 132.46
2 -1 3 4083.4 129.43
2 -1 3 3900.67 134.23
2 -1 3 4277.23 132.9
2 -1 4 334.93 21.76
2 -1 4 386.07 24.47
2 -1 4 376.78 21.76
2 -1 4 388.51 26.71
2 -1 4 342.97 19.89
2 -1 4 385.86 23.75
2 -1 4 340.3 19.69
2 -1 4 371.29 20.37
2 -1 4 347.7 22.39
2 -1 4 376.18 17.94
2 -1 4 386.21 25.39
2 -1 4 368.42 23.9
2 -1 4 395.74 25.55
2 -1 4 390.27 24.94
2 -1 4 383.18 24.85
2 -1 4 355.12 14.65
2 -1 4 321.05 19.93
2 -1 4 333.75 17.92
2 -1 4 340.26 15.13
2 -1 4 345.35 22.14
2 -1 4 322.79 21.86
2 -1 4 367.16 19.34
2 -1 5 1853.6 53.35
2 -1 5 1938.24 43.27
2 -1 5 2005.15 61.72
2 -1 5 1965.36 49.22
2 -1 5 1971.88 54.91
2 -1 5 1800.3 43.13
2 -1 5 1988.42 60.55
2 -1 5 2019.2 59.32
2 -1 5 1901.39 54.85
2 -1 5 1901.47 57.22
2 -1 5 1881.72 58.52
2 -1 5 1921.78 42.13
2 -1 5 1945.2 49
2 -1 5 1931.82 53.06
2 -1 5 1869.86 41.76
2 -1 5 1803.94 47.7
2 -1 5 1926.72 53.29
2 -1 5 2088.26 36.32
2 -1 5 1996.78 53.32
2 -1 5 1949.07 54.24
2 -1 6 40.66 9.06
2 -1 6 43.99 9.05
2 -1 6 41.6 7.85
2 -1 6 30.56 7.3
2 -1 6 42.62 8.77
2 -1 6 37.14 7.81
2 -1 6 32.03 6.38
2 -1 6 27.11 6.73
2 -1 6 33.86 7.26
2 -1 6 29.56 6.29
2 -1 6 44.62 9.53
2 -1 6 39.2 8.06
2 -1 6 28.91 6.4
2 -1 6 31.07 7.17
2 -1 7 711.22 39.02
2 -1 7 731.29 40.43
2 -1 7 787.48 44.99
2 -1 7 765.57 43.44
2 -1 7 706.02 42.32
2 -1 7 762.58 42.74
2 -1 7 722.92 41.61
2 -1 8 77.81 12.28
2 -1 8 95.2 15.33
2 -1 8 60.11 10.56
2 -1 8 57.23 11.35
2 -1 8 93.14 14.07
2 -1 8 67.74 11.8
2 -1 8 69.27 12.24
2 -1 9 1434.62 69.2
2 -1 9 1522.65 74.65
2 -1 9 1610.3 72.84
2 -1 9 1413.7 71.48
2 -1 9 1470.06 70.63
2 -1 9 1412.96 70.43
2 -1 10 5.41 3.93
2 -1 10 10.84 5.28
2 -1 10 13.84 5.96
2 -1 10 1.45 4.63
2 -1 10 6.53 4.15
2 -1 10 6.1 4.43
2 -1 11 681.77 46.92
2 -1 11 672.45 46.18
2 -1 11 724.59 50.33
2 -1 11 668.21 47.54
2 -1 12 128.64 19.74
2 -1 12 108.05 18.33
2 -1 12 103.2 18.43
2 -1 12 142.62 22.07
2 -1 13 299.29 31.46
2 -1 13 274.46 30.39
2 -1 14 1.79 3.29
2 0 -12 52.21 14.69
2 0 -12 30.64 10.96
2 0 -12 45.3 15.49
2 0 -11 509.45 44.87
2 0 -11 496.14 43.57
2 0 -11 395.55 40.02
2 0 -11 389.38 42
2 0 -10 10.41 7.65
2 0 -10 1.82 3.35
2 0 -10 5.6 4.85
2 0 -10 -7.95 10.33
2 0 -10 1.86 3.41
2 0 -9 729.59 49.54
2 0 -9 966.56 53.07
2 0 -9 981.02 54.87
2 0 -9 791.94 50.2
2 0 -8 21.05 7.87
2 0 -8 7.54 4.39
2 0 -8 8.66 5.95
2 0 -8 9.22 5.14
2 0 -7 1439.94 63.25
2 0 -7 1590.65 58.76
2 0 -7 1434.79 61.83
2 0 -7 1396.01 56.14
2 0 -6 16.91 6.04
2 0 -6 -5.33 9.8
2 0 -6 13.69 6.17
2 0 -6 19.23 6.81
2 0 -6 9.46 4.98
2 0 -6 10.46 5.38
2 0 -6 14.2 5.76
2 0 -5 1342.03 52.48
2 0 -5 1350.81 45.84
2 0 -5 1304.46 46.19
2 0 -5 1345.78 46.13
2 0 -5 1345.51 50.72
2 0 -5 1272.83 49.43
2 0 -5 1235.59 52.27
2 0 -5 1328.71 54.42
2 0 -5 1164.71 49.07
2 0 -5 1427.25 47.66
2 0 -5 1527.13 47.61
2 0 -4 659.79 36.6
2 0 -4 660.02 35.18
2 0 -4 691.67 38.98
2 0 -4 654.93 37.7
2 0 -4 595.44 38.81
2 0 -4 615 38.5
2 0 -4 691.88 43.95
2 0 -4 743.52 32.65
2 0 -4 630.65 37.9
2 0 -4 704.19 37.31
2 0 -4 643.26 39.67
2 0 -4 706.96 35.91
2 0 -4 721.96 35.13
2 0 -3 1529.26 61.47
2 0 -3 1242.5 57.36
2 0 -3 1273.2 59.4
2 0 -3 1370.31 55.48
2 0 -3 1356.93 58.27
2 0 -3 1340.46 52.52
2 0 -3 1404.57 48.79
2 0 -3 1341.52 53.4
2 0 -3 1313.79 59.52
2 0 -3 1538.4 71.61
2 0 -3 1391 55.75
2 0 -3 1420.59 54.59
2 0 -3 1489.84 63.61
2 0 -3 1453 56.27
2 0 -3 1281.91 61.53
2 0 -3 1426.73 54.25
2 0 -2 507.06 32.07
2 0 -2 497.2 24.5
2 0 -2 465.86 27.34
2 0 -2 563.7 30.72
2 0 -2 560.14 28
2 0 -2 545.07 28.12
2 0 -2 505.07 26.01
2 0 -2 548.62 23.12
2 0 -2 520.09 23.74
2 0 -2 546.96 18.96
2 0 -2 517.7 30.91
2 0 -2 543.39 26.48
2 0 -2 520.24 28.57
2 0 -2 576.05 28.11
2 0 -2 458.91 25.57
2 0 -2 507.96 24.01
2 0 -2 516.81 28.74
2 0 -2 506.57 26.15
2 0 -2 501.94 30.69
2 0 -2 513.23 20.52
2 0 -2 446.82 28.58
2 0 -1 2946.69 115.75
2 0 -1 3396.28 105.47
2 0 -1 3879.34 116.49
2 0 -1 3446.92 114.7
2 0 -1 3171.47 109.7
2 0 -1 3087.77 109.86
2 0 -1 3333.98 112.88
2 0 -1 3518.31 109.82
2 0 -1 3363.9 106.25
2 0 -1 3532 106.48
2 0 -1 3287.42 101.09
2 0 -1 3333.61 103.17
2 0 -1 3374.43 107.21
2 0 -1 3390.26 111.62
2 0 -1 2985.52 110.57
2 0 -1 3275.77 112.01
2 0 -1 3625.61 109.98
2 0 -1 3054.82 108.4
2 0 -1 3087.47 113.29
2 0 -1 3408.54 100.48
2 0 -1 3601.09 101.25
2 0 -1 3186.8 114.55
2 0 0 1268.21 22.86
2 0 0 1173.31 38.94
2 0 0 1156.03 42.62
2 0 0 1136.93 31.1
2 0 0 1130.65 36.43
2 0 0 1082.03 27.74
2 0 0 1156.29 21.93
2 0 0 1167.83 34.86
2 0 0 1155.6 31.59
2 0 0 1172.72 33.65
2 0 0 1118.36 30.9
2 0 0 1146.83 27.3
2 0 0 1117.72 21.91
2 0 0 1143.33 26.27
2 0 0 1115.69 28.56
2 0 0 1221.88 31.56
2 0 0 1217.43 35.43
2 0 0 1153.29 34.8
2 0 0 1222.66 33.53
2 0 0 1146.66 23.93
2 0 0 1178.91 36.08
2 0 0 1187.49 33.06
2 0 0 1235.5 20.79
2 0 0 1183.29 18.91
2 0 1 1584.66 65.5
2 0 1 1593.02 57.55
2 0 1 1438.11 60.57
2 0 1 1709.35 70.82
2 0 1 1459.47 52.18
2 0 1 1455.25 59.3
2 0 1 1556.69 57.91
2 0 1 1524.67 55.78
2 0 1 1465.04 53.8
2 0 1 1535.25 56.15
2 0 1 1482.51 52.75
2 0 1 1447.78 55.45
2 0 1 1517 54.96
2 0 1 1553.78 54.4
2 0 1 1551.33 54.25
2 0 1 1554.26 60.18
2 0 1 1502.14 59.09
2 0 1 1487.51 56.09
2 0 1 1589.86 57.5
2 0 1 1450.31 59.86
2 0 1 1547.71 49.48
2 0 1 1512.17 56.25
2 0 1 1500.47 58.12
2 0 2 3042.78 87.91
2 0 2 2755.21 96.08
2 0 2 2810.19 89.93
2 0 2 2861.95 104
2 0 2 2842.13 97.02
2 0 2 2772.99 99.16
2 0 2 2964.68 109.68
2 0 2 2721.35 92.01
2 0 2 2683.25 92.83
2 0 2 2719.94 96.79
2 0 2 2987.5 94.9
2 0 2 2688.49 95.27
2 0 2 2713.97 93.92
2 0 2 2632.21 94.01
2 0 2 2723.08 94.66
2 0 2 2777.19 94.55
2 0 2 2822.03 93.41
2 0 2 2885.09 92.7
2 0 2 2938.27 86.54
2 0 2 2860.46 86.19
2 0 2 2617.36 86.13
2 0 2 2880.67 89.84
2 0 2 2744.8 97.52
2 0 2 2770.37 93.34
2 0 2 2794.44 99.55
2 0 2 2929.61 95.62
2 0 2 2607.49 92.63
2 0 2 2884.05 94.56
2 0 3 324.35 13.05
2 0 3 361.6 19.85
2 0 3 320.29 17.82
2 0 3 353.54 25.69
2 0 3 361.31 23.1
2 0 3 331.13 27.96
2 0 3 331.93 14.21
2 0 3 306.86 19.17
2 0 3 324.86 21.04
2 0 3 326.2 19.12
2 0 3 297.16 18.71
2 0 3 299.79 20.47
2 0 3 329.47 21.04
2 0 3 337.44 17.87
2 0 3 346.68 21.49
2 0 3 307.03 20.04
2 0 3 381.47 21.52
2 0 3 319.08 20
2 0 3 308.33 16.43
2 0 3 292.6 13.19
2 0 3 312.36 12.63
2 0 3 311.68 14.36
2 0 3 339.32 17.48
2 0 3 312.28 17.9
2 0 3 311.18 21.11
2 0 3 354.23 23.26
2 0 3 354.24 19.42
2 0 3 333.73 20.04
2 0 3 331.57 18.26
2 0 3 319.08 18.88
2 0 4 1228.77 48.13
2 0 4 1239.39 44.94
2 0 4 1278.75 59.15
2 0 4 1237.31 52.34
2 0 4 1206.37 43.24
2 0 4 1203.29 50.14
2 0 4 1187.11 50.07
2 0 4 1211.18 47.51
2 0 4 1197.54 46.92
2 0 4 1217.51 43.45
2 0 4 1213.2 52.63
2 0 4 1129.9 50.05
2 0 4 1088.23 50.7
2 0 4 1177.91 51.08
2 0 4 1135.83 46.82
2 0 4 1230.78 39.52
2 0 4 1204.36 43.09
2 0 4 1171.25 47.28
2 0 4 1214.68 48.6
2 0 4 1270.68 48.93
2 0 4 1205.29 47.33
2 0 4 1267.47 44.02
2 0 4 1236.2 48.57
2 0 5 936.08 31.85
2 0 5 919.81 41.5
2 0 5 962.79 33.09
2 0 5 890.52 41.9
2 0 5 1106.31 53.71
2 0 5 901.5 42.81
2 0 5 929.55 38.62
2 0 5 953.85 33.59
2 0 5 979.56 44.19
2 0 5 926.68 39.6
2 0 5 945.41 40.06
2 0 5 919.64 41.45
2 0 5 901.38 45.92
2 0 5 920.4 41.32
2 0 5 1015.49 36.4
2 0 5 881.18 44.45
2 0 5 953.44 45.47
2 0 5 839.83 42.24
2 0 5 872.74 41.49
2 0 5 963.19 30.72
2 0 5 959.75 39.43
2 0 5 893.81 41.35
2 0 5 940.19 42.42
2 0 5 860.15 38.78
2 0 5 882.8 39.05
2 0 5 888.28 40.54
2 0 5 986.64 44.52
2 0 6 2215.54 83.07
2 0 6 2092.38 80.56
2 0 6 1863.47 73.93
2 0 6 1945.11 77.03
2 0 6 1881.56 76.94
2 0 6 2056.67 76.47
2 0 6 1940.83 67.81
2 0 6 1937.37 69.1
2 0 6 1940.12 73.69
2 0 6 2016.02 74.96
2 0 6 1966.79 74.14
2 0 6 1894.34 74.43
2 0 6 1893.26 67.1
2 0 6 1932.31 70.74
2 0 6 1863.94 64.45
2 0 6 1915.89 75.01
2 0 6 1946.33 71.65
2 0 6 2038.46 75.46
2 0 7 147.61 16.65
2 0 7 142.77 13.75
2 0 7 171.09 15.61
2 0 7 145.79 15.76
2 0 7 146.82 15.72
2 0 7 133.64 15.58
2 0 7 162.32 18.59
2 0 7 147.17 15.66
2 0 7 122.82 15.46
2 0 7 156.79 17.76
2 0 7 166.41 15.88
2 0 8 1534.51 67.23
2 0 8 1503.56 67.75
2 0 8 1492.06 68.6
2 0 8 1620.56 74
2 0 8 1479.82 66.61
2 0 8 1572.07 70.06
2 0 8 1469.23 71.23
2 0 8 1544.42 71.11
2 0 9 3.42 2.96
2 0 9 1.18 1.53
2 0 9 1.14 1.48
2 0 9 1.38 3.6
2 0 9 -1.32 0.03
2 0 9 3 2.59
2 0 9 1.14 2.09
2 0 9 2.7 2.48
2 0 10 809.12 48.08
2 0 10 749.34 47.51
2 0 10 740.66 46.73
2 0 10 785.3 46.86
2 0 10 741.74 49.46
2 0 10 818.29 51.62
2 0 11 12.86 6.27
2 0 11 13.33 6.85
2 0 11 10.14 5.64
2 0 11 1.4 3.64
2 0 12 502.02 40.21
2 0 12 531.55 41.72
2 0 12 552.77 43.9
2 0 13 23.05 8.6
2 0 13 45.7 12.07
2 0 13 38.37 11.66
2 0 14 409.42 37.52
2 0 14 389.81 37.21
2 0 14 321.22 34.03
2 1 -12 552.91 47.9
2 1 -12 637.28 52.35
2 1 -12 468.17 47.74
2 1 -11 99.95 18.98
2 1 -11 128.24 21.89
2 1 -11 61.51 16.59
2 1 -10 626.3 48.95
2 1 -10 727.96 51.27
2 1 -10 732.33 52.6
2 1 -10 704.99 54.25
2 1 -9 18.65 8.74
2 1 -9 13.15 6.41
2 1 -9 16.66 7.19
2 1 -9 13.83 6.32
2 1 -9 -7.34 0.39
2 1 -9 21.91 8.2
2 1 -8 573.91 41.63
2 1 -8 589.26 39.78
2 1 -8 554.43 39.41
2 1 -8 562.06 39.27
2 1 -8 600.3 39.08
2 1 -7 45.59 10.97
2 1 -7 59.67 12.23
2 1 -7 37.63 10.19
2 1 -7 48.5 10.8
2 1 -6 2302.37 67.28
2 1 -6 2619.33 74.68
2 1 -6 2696.05 75.52
2 1 -6 2540.97 76.07
2 1 -6 2387.66 69.75
2 1 -5 44.12 8.85
2 1 -5 26.17 8.23
2 1 -5 31.95 6.28
2 1 -5 25.58 7.43
2 1 -5 30.74 7.56
2 1 -5 31.42 8.11
2 1 -5 28.11 7.13
2 1 -5 27.96 6.64
2 1 -5 34.43 8.41
2 1 -5 28.28 6.59
2 1 -4 1881.85 50.38
2 1 -4 1658.26 56.48
2 1 -4 1750.94 45.18
2 1 -4 1736.66 60.25
2 1 -4 1497.54 49.73
2 1 -4 1852.34 42.56
2 1 -4 1782.05 43.76
2 1 -4 1674.48 60.95
2 1 -4 1863.97 57.9
2 1 -4 1434.92 47.27
2 1 -4 1713.25 51.56
2 1 -4 1713.06 56.73
2 1 -4 1787.28 51.49
2 1 -4 1737.82 54.15
2 1 -4 1806.88 55.32
2 1 -4 1839.33 54.05
2 1 -4 1593.81 49.23
2 1 -4 1611.49 42.23
2 1 -4 1723.55 58.13
2 1 -4 1539.93 43.22
2 1 -3 116.47 10.98
2 1 -3 94.88 12.74
2 1 -3 85.77 9.78
2 1 -3 90.83 13.85
2 1 -3 98.03 11.63
2 1 -3 120.91 10.59
2 1 -3 107.61 10.46
2 1 -3 119.47 13.6
2 1 -3 101.87 13.53
2 1 -3 113.96 12.47
2 1 -3 85.28 10.57
2 1 -3 106.45 12.85
2 1 -3 96.69 11.38
2 1 -3 112.67 12.65
2 1 -3 102.99 11.58
2 1 -3 96.78 10.48
2 1 -3 88.66 9.65
2 1 -3 104.12 9.03
2 1 -3 115.32 13.77
2 1 -3 100.84 9.64
2 1 -2 1635.07 67.7
2 1 -2 1710 59.11
2 1 -2 1847.28 60.11
2 1 -2 1677.64 69.13
2 1 -2 1704.98 63.89
2 1 -2 1705.77 75.81
2 1 -2 1585.23 63.57
2 1 -2 1713.12 62.98
2 1 -2 1793.56 62.32
2 1 -2 1742.63 69.11
2 1 -2 1652.96 57.85
2 1 -2 1689.38 69.23
2 1 -2 1658.44 53.81
2 1 -2 1799.84 68.62
2 1 -2 1607.25 62.65
2 1 -2 1778.53 66.51
2 1 -2 1728.13 63.37
2 1 -2 1538.96 59.15
2 1 -2 1664.94 59.5
2 1 -2 1603.74 62.2
2 1 -2 1730.07 60.21
2 1 -2 1627.65 65.54
2 1 -2 1347.06 61.37
2 1 -1 1754.84 70.17
2 1 -1 1818.56 64.21
2 1 -1 1975.06 62.5
2 1 -1 1967.29 77.65
2 1 -1 1928.18 82.68
2 1 -1 1858.89 69.74
2 1 -1 2100.72 73.74
2 1 -1 1752.4 68.02
2 1 -1 1897.83 67.75
2 1 -1 1784.75 64.41
2 1 -1 1751.27 69.41
2 1 -1 1826.21 67.4
2 1 -1 1830.73 68.44
2 1 -1 1937.59 64.31
2 1 -1 2079.33 74.52
2 1 -1 1868.55 61.59
2 1 -1 1910.38 58.08
2 1 -1 1850.81 70.75
2 1 -1 1971.94 65.58
2 1 -1 1909.74 69.67
2 1 -1 2052.05 65.73
2 1 -1 1820.48 61.07
2 1 -1 1756.22 65.57
2 1 -1 1810.75 68.29
2 1 -1 1897.21 67.77
2 1 -1 1911.17 66.24
2 1 -1 1897.85 67.47
2 1 -1 1612.22 66.19
2 1 -1 1797.39 69.89
2 1 0 3081.57 94.62
2 1 0 2867.18 98.71
2 1 0 2979.4 87.99
2 1 0 2896.03 106.72
2 1 0 2979.46 113.79
2 1 0 2866.74 100.18
2 1 0 2887.12 98.27
2 1 0 3389.06 103.09
2 1 0 2968.53 88.68
2 1 0 2848.03 94.89
2 1 0 2733.43 90.67
2 1 0 2822.32 100.05
2 1 0 2944.49 98.14
2 1 0 2920.07 98.04
2 1 0 2929.7 99
2 1 0 2783.77 97.11
2 1 0 2805.7 99.39
2 1 0 2821.83 93.67
2 1 0 2945.5 89.26
2 1 0 3107.88 98.91
2 1 0 2905.19 91.77
2 1 0 3045.59 97.44
2 1 0 3016.47 91.97
2 1 0 2811.69 98.76
2 1 0 2802.94 96.74
2 1 0 3008.28 97.01
2 1 0 2839.88 97.03
2 1 0 2468.74 93.84
2 1 0 2806.97 99.1
2 1 1 1234.27 56.57
2 1 1 1338.22 63.19
2 1 1 1128.17 50.75
2 1 1 1242.2 49.62
2 1 1 1210.14 61.74
2 1 1 1233.29 39.74
2 1 1 1199.44 44.32
2 1 1 1193.74 43.67
2 1 1 1213.4 49.28
2 1 1 1216.64 49.43
2 1 1 1240.97 48.51
2 1 1 1118.08 49.84
2 1 1 1194.4 49.95
2 1 1 1095.11 43.84
2 1 1 1210.96 48.97
2 1 1 1229.45 43.7
2 1 1 1199.54 43.62
2 1 1 1323.36 48.54
2 1 1 1278.1 41.75
2 1 1 1215.12 46.14
2 1 1 1289.09 40.14
2 1 1 1273.3 38.85
2 1 1 1301.27 44.5
2 1 1 1286.69 42.73
2 1 1 1228.89 42.18
2 1 1 1260.22 47.95
2 1 1 1266.93 47.53
2 1 1 1198.17 50.23
2 1 1 1216.9 51.67
2 1 1 1222.22 47.84
2 1 1 1299.69 49.53
2 1 1 1274.53 49.01
2 1 2 1520.87 66.7
2 1 2 1525.1 58.73
2 1 2 1635.42 71.5
2 1 2 1499.26 60.06
2 1 2 1555.39 72.41
2 1 2 1448.05 54.57
2 1 2 1516.07 51.45
2 1 2 1428.81 57.31
2 1 2 1567.29 57.82
2 1 2 1573.66 57.42
2 1 2 1466.32 58.57
2 1 2 1496.95 58.41
2 1 2 1435.17 50.43
2 1 2 1514.07 51.92
2 1 2 1522.41 56.33
2 1 2 1599.96 55.71
2 1 2 1493.88 59.08
2 1 2 1567.89 57.04
2 1 2 1633.11 59.1
2 1 2 1510.25 60.27
2 1 2 1522.78 57.47
2 1 2 1516.53 58.94
2 1 2 1513.86 52.59
2 1 2 1591.69 47.59
2 1 2 1495.52 48.83
2 1 2 1540.98 48.86
2 1 2 1546.95 52.84
2 1 2 1473.94 48.5
2 1 2 1497.48 50.73
2 1 2 1575.27 47.63
2 1 2 1578.41 48.98
2 1 2 1516.35 54.16
2 1 3 866.12 47.73
2 1 3 923.64 41.54
2 1 3 842.75 40.36
2 1 3 938.64 49.51
2 1 3 931.09 52.99
2 1 3 890.26 35.69
2 1 3 897.09 38.46
2 1 3 912.76 38.35
2 1 3 887.58 38.24
2 1 3 886.22 39.77
2 1 3 944.34 40.34
2 1 3 911.91 40.58
2 1 3 882.58 38.72
2 1 3 978.34 37.82
2 1 3 866.81 39.99
2 1 3 889.54 34.54
2 1 3 852.99 30.03
2 1 3 840.05 35.78
2 1 3 880.97 35.47
2 1 3 886.27 38.1
2 1 3 888.38 32.62
2 1 3 860.15 34.09
2 1 3 895.19 35.5
2 1 3 875.24 39.87
2 1 3 850.02 37.62
2 1 3 943.22 40.15
2 1 3 875.69 40.96
2 1 3 918.16 39.2
2 1 3 888.23 40.98
2 1 3 977.28 33.02
2 1 3 928.85 34.61
2 1 4 2018.15 66.97
2 1 4 1912.86 68.09
2 1 4 1918.84 89.51
2 1 4 2000 73.19
2 1 4 2127.6 83.65
2 1 4 1873.51 68.53
2 1 4 1918.38 71.51
2 1 4 1890.9 64.11
2 1 4 1881.85 70.93
2 1 4 2002.95 70.32
2 1 4 1891.88 68.26
2 1 4 1868 72.7
2 1 4 1873.98 73.47
2 1 4 1935.04 71.85
2 1 4 1970.67 69.07
2 1 4 1827.64 72.58
2 1 4 1802.8 63.49
2 1 4 1912.86 71.57
2 1 4 2014.76 66.05
2 1 4 1975.37 62.2
2 1 4 1914.73 68.39
2 1 4 1876.61 68.84
2 1 4 1912.44 69.11
2 1 4 1850.58 71.08
2 1 4 1872.92 70.8
2 1 4 1922.47 70.97
2 1 4 1939.96 73.51
2 1 4 1933.97 74.4
2 1 4 1890.6 66.52
2 1 4 1865.74 64.38
2 1 4 2133.33 71.75
2 1 5 2430.53 81.06
2 1 5 2336.36 83.58
2 1 5 2399.43 84.29
2 1 5 2739.08 96.11
2 1 5 2214.74 84.77
2 1 5 2286.91 79.51
2 1 5 2340.93 79.32
2 1 5 2410.8 82.64
2 1 5 2479.21 82.63
2 1 5 2340.09 84.8
2 1 5 2270.34 87.69
2 1 5 2333.22 86.84
2 1 5 2303.7 86.39
2 1 5 2378.95 77.71
2 1 5 2287.61 77.3
2 1 5 2308.82 80.68
2 1 5 2435.63 84
2 1 5 2557.12 84.39
2 1 5 2241.32 84.24
2 1 5 2328.61 83.42
2 1 5 2274.7 83.42
2 1 5 2424.49 78.95
2 1 5 2309.55 73.36
2 1 5 1994.14 69.44
2 1 5 2308.01 80.21
2 1 5 2590.84 85.62
2 1 6 116.31 11.97
2 1 6 117.31 14.8
2 1 6 114.91 13.6
2 1 6 85.62 10.54
2 1 6 113.01 14.15
2 1 6 108.96 13.47
2 1 6 102.47 13.24
2 1 6 114 10.51
2 1 6 101 9.57
2 1 6 100.54 11.21
2 1 6 87.79 10.49
2 1 6 119.92 11.25
2 1 6 105.12 12.47
2 1 6 106.84 12.47
2 1 6 103.41 11.71
2 1 6 109.56 12.69
2 1 6 97.22 9.28
2 1 6 121.22 11.61
2 1 6 118.53 12.1
2 1 6 84.24 11.44
2 1 6 107.1 12.19
2 1 7 1122.21 45.99
2 1 7 1132.46 34.63
2 1 7 1211.31 43.97
2 1 7 1153.23 41.56
2 1 7 1121.74 42.96
2 1 7 1046.13 43.31
2 1 7 1139.34 46.64
2 1 7 1186.09 44.92
2 1 7 1133.2 45.91
2 1 7 1121.74 40.04
2 1 7 1251.72 39.16
2 1 8 141.1 16.44
2 1 8 181.89 18.26
2 1 8 154.06 17.75
2 1 8 156.11 18.85
2 1 8 166.24 18.21
2 1 8 156.91 18.77
2 1 8 169.8 19.9
2 1 9 1049.47 53.93
2 1 9 990.51 52.63
2 1 9 979.96 53.75
2 1 9 1021.93 56.46
2 1 9 925.71 51.54
2 1 9 937.58 55.16
2 1 9 1103.29 59.63
2 1 10 137.91 20.01
2 1 10 104.81 16.31
2 1 10 136 17.69
2 1 10 97.67 15.88
2 1 10 107.05 17.46
2 1 10 164.01 20.71
2 1 10 101.47 16.59
2 1 11 759.63 50.45
2 1 11 809.31 49.94
2 1 11 812.05 51.17
2 1 11 734.55 50.99
2 1 11 813.12 54.99
2 1 11 842.65 52.67
2 1 12 13.69 7.7
2 1 12 8.05 5.54
2 1 12 13.23 6.95
2 1 12 9.1 5.58
2 1 12 7.91 5.04
2 1 13 431.4 39.04
2 1 13 314.2 33.33
2 1 13 349.68 33.7
2 1 13 412.43 37.42
2 1 13 494.51 43.79
2 1 14 8.93 5.68
2 1 14 1.81 3.33
2 1 14 7.03 5.1
2 2 -12 32.21 11.43
2 2 -12 37.53 12.96
2 2 -11 322.22 33.08
2 2 -11 271.92 33.1
2 2 -10 156.24 22.2
2 2 -10 146.13 21.17
2 2 -10 162.35 22.91
2 2 -10 116.68 19.71
2 2 -10 -1.79 0.15
2 2 -10 -16 20.78
2 2 -10 143.48 22.97
2 2 -9 1213.76 71.23
2 2 -9 1395.42 72.87
2 2 -9 1523.47 76.66
2 2 -9 1169.86 69.69
2 2 -9 1452.33 76.32
2 2 -9 1467.39 79.25
2 2 -8 96.7 16.52
2 2 -8 115.7 17.16
2 2 -8 86.54 15.28
2 2 -8 96.6 16.08
2 2 -8 114.66 18.43
2 2 -8 100.34 17.59
2 2 -7 980.42 49.67
2 2 -7 1162.65 50.21
2 2 -7 1126.82 50
2 2 -7 1062.94 49.54
2 2 -7 1206.61 55.11
2 2 -7 1119.89 55.07
2 2 -6 64.87 12.71
2 2 -6 65.18 12.79
2 2 -6 57.16 11.07
2 2 -6 65.98 11.48
2 2 -6 79.4 12.61
2 2 -6 67.66 13.14
2 2 -6 69.13 12.97
2 2 -6 61.98 10.49
2 2 -6 74.61 12.57
2 2 -5 1185.61 44.12
2 2 -5 1296.5 46.93
2 2 -5 1282.23 53.19
2 2 -5 1128.9 45.13
2 2 -5 1264.24 52.48
2 2 -5 1193.49 43.93
2 2 -5 1531.74 59.95
2 2 -5 1303.52 53.99
2 2 -5 1427.14 46.97
2 2 -4 36.05 7.23
2 2 -4 43.8 9.87
2 2 -4 21.51 7.48
2 2 -4 23.78 6.37
2 2 -4 28.07 6.56
2 2 -4 39.54 7.83
2 2 -4 30.16 6.83
2 2 -4 26.46 7.31
2 2 -4 27.25 6.65
2 2 -4 25.03 7.33
2 2 -4 28.98 6.57
2 2 -4 39.52 7.25
2 2 -4 27.07 6.22
2 2 -4 18.21 6.1
2 2 -3 2712.29 56.51
2 2 -3 2411.17 76.2
2 2 -3 2382.73 57.22
2 2 -3 2369.73 58.22
2 2 -3 2500.65 62.95
2 2 -3 2529.34 38.15
2 2 -3 2456.03 53
2 2 -3 2256.99 54.16
2 2 -3 2621.47 55.55
2 2 -3 2977.84 78.94
2 2 -3 2241.27 73.93
2 2 -3 2327.39 60.2
2 2 -3 2410.37 62.08
2 2 -3 2373.37 59.03
2 2 -3 2812.42 69.88
2 2 -3 2582.33 62.97
2 2 -3 2724.49 67.52
2 2 -3 2738.8 63.2
2 2 -3 2389.79 56.94
2 2 -3 2826.68 71.1
2 2 -3 2243.2 56.19
2 2 -3 2442.17 46.38
2 2 -2 1.35 1.17
2 2 -2 2.75 2
2 2 -2 6.48 4.12
2 2 -2 1.17 1.32
2 2 -2 6.43 1.69
2 2 -2 2.04 1.48
2 2 -2 0.57 1.49
2 2 -2 3.14 2.72
2 2 -2 9.35 2.12
2 2 -2 4.86 3.09
2 2 -2 9.92 1.96
2 2 -2 5.19 2.1
2 2 -2 2.26 1.69
2 2 -2 3.25 1.86
2 2 -2 2.76 1.79
2 2 -2 16.95 5.03
2 2 -2 3.62 2.08
2 2 -2 0.75 0.98
2 2 -2 0.51 1.15
2 2 -2 0.63 1.17
2 2 -2 0.63 1.64
2 2 -2 -0.87 0.06
2 2 -2 8.26 3.34
2 2 -2 0.69 1.55
2 2 -1 3934.97 135.93
2 2 -1 4176.73 135.77
2 2 -1 4525.88 142.26
2 2 -1 4347.12 128.58
2 2 -1 3965.78 142.71
2 2 -1 4051.14 152.44
2 2 -1 4047.05 135.79
2 2 -1 4056.14 132.72
2 2 -1 3949.99 134.41
2 2 -1 4142.36 132.59
2 2 -1 3751.26 133.67
2 2 -1 4074.25 143
2 2 -1 4713.38 145.83
2 2 -1 4149.6 126.83
2 2 -1 4118.22 125.46
2 2 -1 4456.92 138.46
2 2 -1 4306.65 133.45
2 2 -1 4102.43 136.22
2 2 -1 4275.7 129.76
2 2 -1 4055.96 123.86
2 2 -1 4296.23 135.69
2 2 -1 3977.79 131.48
2 2 -1 4238.95 133.73
2 2 -1 3981.44 137.81
2 2 -1 4045.46 136.07
2 2 0 2235.61 66.31
2 2 0 2035.63 83.25
2 2 0 2010.49 91.93
2 2 0 1896.01 75.04
2 2 0 2069.36 91.14
2 2 0 2051.98 71.11
2 2 0 1933.97 74.14
2 2 0 2082.63 75.57
2 2 0 1913.04 72.34
2 2 0 1964.58 74.42
2 2 0 2311.99 83.27
2 2 0 2012.05 79.42
2 2 0 2062 74.86
2 2 0 2068.26 77.52
2 2 0 2172.89 68.2
2 2 0 2253.57 77.76
2 2 0 2119.96 75.58
2 2 0 2067.57 75.07
2 2 0 2108.03 71.27
2 2 0 2150.19 73.62
2 2 0 2149.58 75.42
2 2 0 2133.32 64.38
2 2 0 2184.21 74.07
2 2 0 2031.18 73.36
2 2 0 2039.54 75.35
2 2 0 2014.68 74.37
2 2 0 2071.33 76.56
2 2 0 2068.3 77.1
2 2 0 2169.5 76.77
2 2 0 2125.69 68.7
2 2 1 1091.55 53
2 2 1 1107.73 47.34
2 2 1 951.36 44.29
2 2 1 1069.49 58.38
2 2 1 1091.59 58.6
2 2 1 1058.53 43.58
2 2 1 1036.97 39.98
2 2 1 1033.56 44.76
2 2 1 1013.44 44.74
2 2 1 1064.72 47.67
2 2 1 1069.36 43.67
2 2 1 1023.89 45.49
2 2 1 1244.81 50.38
2 2 1 1065.16 46.13
2 2 1 1075.58 43.45
2 2 1 1024.5 45.91
2 2 1 1098.22 46.28
2 2 1 1120.29 42.87
2 2 1 1112.52 44.08
2 2 1 1135.58 39.73
2 2 1 1085.09 41.79
2 2 1 1169.27 45
2 2 1 1126.58 42.74
2 2 1 1106.77 45.84
2 2 1 1055.69 44.81
2 2 1 1079.37 44.12
2 2 1 1059.37 46.67
2 2 1 1043.96 46.06
2 2 1 1086.68 40.92
2 2 2 387.55 24.12
2 2 2 413.77 25.06
2 2 2 356.76 20.77
2 2 2 394.37 18.31
2 2 2 389.82 29.33
2 2 2 358.05 22.42
2 2 2 420.05 23.62
2 2 2 401.8 32.73
2 2 2 425.56 32.75
2 2 2 403.61 18.93
2 2 2 382.15 22.48
2 2 2 370.39 23.95
2 2 2 361.75 21.67
2 2 2 356.82 22.67
2 2 2 402.13 23.49
2 2 2 432.08 25.18
2 2 2 397.24 23.79
2 2 2 355.43 22.91
2 2 2 358.5 23.17
2 2 2 390 23.26
2 2 2 408.47 19.18
2 2 2 428.78 21.92
2 2 2 397.33 19.27
2 2 2 433.23 21.08
2 2 2 386.15 20.24
2 2 2 385.67 22.05
2 2 2 389.65 23.07
2 2 2 366.29 23.57
2 2 2 369.56 22.96
2 2 2 365 21.93
2 2 2 401.5 21.85
2 2 2 433.91 18.7
2 2 3 534.07 24.96
2 2 3 587.68 39.01
2 2 3 518.72 28.34
2 2 3 521.89 39.14
2 2 3 514.65 27.5
2 2 3 501.93 27.42
2 2 3 582.1 24.53
2 2 3 503.33 28.6
2 2 3 505.61 26.72
2 2 3 518.01 27.37
2 2 3 520.65 29.3
2 2 3 495.27 27.58
2 2 3 595.02 29.2
2 2 3 534.03 29.5
2 2 3 491.04 28.14
2 2 3 589.46 24.91
2 2 3 531.43 20.69
2 2 3 507.5 27.41
2 2 3 527.91 29.4
2 2 3 524.16 25.38
2 2 3 466.57 22.25
2 2 3 522.52 26.03
2 2 3 526.79 27.96
2 2 3 496.74 28.33
2 2 3 534.28 27.65
2 2 3 480.53 28.18
2 2 3 514.28 28.16
2 2 4 1011 31.81
2 2 4 851.05 48.52
2 2 4 1026.51 47.13
2 2 4 968.7 34.86
2 2 4 897.24 34.26
2 2 4 944.51 33.2
2 2 4 908.42 33.4
2 2 4 951.12 29.92
2 2 4 916.04 33.08
2 2 4 970.54 35.77
2 2 4 1089.78 31.36
2 2 4 932.83 34.19
2 2 4 940.03 35.55
2 2 4 1000.17 29.29
2 2 4 892.59 35.09
2 2 4 973.53 32.34
2 2 4 972.02 19.83
2 2 4 973.87 28.33
2 2 4 991.46 32.74
2 2 4 962.04 32.34
2 2 4 882.81 31.88
2 2 4 957.43 33.45
2 2 4 870.75 30.48
2 2 4 865.7 31.97
2 2 4 913.18 34.73
2 2 5 3319.1 118.94
2 2 5 3035.45 106.18
2 2 5 2921.69 103.99
2 2 5 2767.64 103.69
2 2 5 2779.07 104.33
2 2 5 2922.53 106.14
2 2 5 3169.04 97.83
2 2 5 2762.5 105.85
2 2 5 3250.05 107.16
2 2 5 3088.06 101.3
2 2 5 2956.52 108.53
2 2 5 2898.81 102
2 2 5 2939.55 94.09
2 2 5 2899.02 101.83
2 2 5 2740.12 100.48
2 2 5 3102.59 103.3
2 2 5 2838.03 104.21
2 2 5 2940.91 104.33
2 2 5 2934.28 103.27
2 2 5 2894.9 98.58
2 2 5 2797.82 101.97
2 2 5 2701.27 105.78
2 2 5 2957.52 103.81
2 2 6 2484.29 98.54
2 2 6 2535.23 91.35
2 2 6 2506.16 88.58
2 2 6 2608.76 94.33
2 2 6 2500.98 93.42
2 2 6 2563.31 91.45
2 2 6 2501.65 94.36
2 2 6 2667.48 98.67
2 2 6 2511.19 91.3
2 2 6 2607.38 92.56
2 2 6 2446.89 96.62
2 2 6 2391.35 95.64
2 2 6 2151.18 93.02
2 2 7 139.94 15.77
2 2 7 140.5 16.87
2 2 7 183.62 18.51
2 2 7 158.33 14.95
2 2 7 136.04 17.01
2 2 7 144.52 16.19
2 2 7 137.25 16.67
2 2 7 113.88 13.47
2 2 8 405.09 31.97
2 2 8 403.8 29.58
2 2 8 409.37 31.11
2 2 8 418.58 33.54
2 2 8 417.7 31.09
2 2 8 376.13 28.88
2 2 9 54.93 11.96
2 2 9 24.69 7.74
2 2 9 39.12 9.73
2 2 9 26.69 7.74
2 2 9 32.79 9.72
2 2 9 26.54 7.88
2 2 9 34.97 8.56
2 2 10 956.11 55.29
2 2 10 906.91 55.88
2 2 10 974.33 55.02
2 2 10 974.33 60.2
2 2 10 1041.89 57.96
2 2 11 181.33 23.57
2 2 11 190.33 22.79
2 2 11 151.09 21.11
2 2 11 152.34 23.18
2 2 11 148.18 21.27
2 2 11 162.07 21.25
2 2 12 672.03 48.64
2 2 12 683.99 49.79
2 2 12 661.83 51.64
2 2 12 567.23 45.23
2 2 12 714.91 48.26
2 2 13 -1.77 0.02
2 2 13 1.83 3.35
2 2 13 4.21 4.73
2 2 13 -1.76 3.23
2 2 14 221.01 28.08
2 2 14 205.52 29.68
2 2 14 170.35 24.66
2 3 -11 166.32 26.14
2 3 -10 485.79 39.91
2 3 -10 40.8 14.75
2 3 -9 70.75 15.01
2 3 -9 94.48 17.4
2 3 -8 961.42 48.87
2 3 -8 829.39 47.29
2 3 -8 887.24 49.63
2 3 -8 807.49 43.53
2 3 -7 41.46 9.63
2 3 -7 25.66 8.04
2 3 -7 32.08 8.45
2 3 -7 38.28 10.29
2 3 -6 970.79 42.16
2 3 -6 843.42 45.11
2 3 -6 919.37 43.28
2 3 -6 898.78 43.98
2 3 -6 1002.92 51.56
2 3 -5 68.77 13
2 3 -5 -4.52 8.32
2 3 -5 61.24 11.98
2 3 -5 71.88 10.77
2 3 -5 62.61 12.21
2 3 -5 61.34 10.81
2 3 -5 79.48 12.4
2 3 -5 4.98 4.36
2 3 -4 2379.12 71.22
2 3 -4 2322.47 68.84
2 3 -4 2231.73 60.24
2 3 -4 2314.25 54.31
2 3 -4 2153.93 66.7
2 3 -4 2055.41 59.04
2 3 -3 45.07 11.49
2 3 -3 84.11 14.91
2 3 -3 84.32 9.37
2 3 -3 91.74 12.3
2 3 -3 96.57 12.81
2 3 -3 76.4 12.28
2 3 -3 85.94 11.57
2 3 -3 111.81 14.43
2 3 -3 88.39 11.3
2 3 -3 91.79 9.59
2 3 -3 85.17 11.14
2 3 -3 82.41 8.27
2 3 -3 89.14 10.58
2 3 -3 89.55 13.33
2 3 -3 90.28 12.11
2 3 -2 2140.51 57.27
2 3 -2 1809.94 62.69
2 3 -2 1755.21 57.95
2 3 -2 2065.52 63.73
2 3 -2 2115.48 79.14
2 3 -2 1370.47 65.68
2 3 -2 1772.98 61.91
2 3 -2 2056.84 51.13
2 3 -2 1734.48 60.51
2 3 -2 2190.87 48.68
2 3 -2 1832.58 63.05
2 3 -2 2023.6 67.07
2 3 -2 2138.95 63.72
2 3 -2 1996.51 60.92
2 3 -2 1868.35 62.88
2 3 -2 1924.73 59.11
2 3 -2 1945.2 50.92
2 3 -2 1996.78 62.9
2 3 -2 1833.08 54.49
2 3 -2 1667.65 64.4
2 3 -2 1750.39 61.18
2 3 -1 176.71 16.36
2 3 -1 196.09 13.31
2 3 -1 193.08 18.04
2 3 -1 189.63 16.51
2 3 -1 186.58 15.07
2 3 -1 196.26 13.31
2 3 -1 153.32 13.4
2 3 -1 165.81 18.79
2 3 -1 272.79 24.37
2 3 -1 199.34 17.02
2 3 -1 182.91 12.36
2 3 -1 183.59 16.89
2 3 -1 208.11 17.74
2 3 -1 203.62 16.63
2 3 -1 214.22 17.63
2 3 -1 207.46 15.98
2 3 -1 196.7 16.9
2 3 -1 202.87 12.52
2 3 -1 219.75 17.21
2 3 -1 202.46 15.08
2 3 -1 194.19 10.18
2 3 -1 172.08 15.8
2 3 -1 221.92 8.97
2 3 0 1463.13 60.96
2 3 0 1429.13 54.56
2 3 0 1236.86 61.46
2 3 0 1514.59 74.46
2 3 0 1336.58 54.86
2 3 0 1289.77 57.34
2 3 0 1341.43 53.05
2 3 0 1334.03 55.52
2 3 0 1661.15 70.29
2 3 0 1383.54 59.14
2 3 0 1308.23 62.21
2 3 0 1335.1 47.7
2 3 0 1389.14 59.93
2 3 0 1509.24 58.73
2 3 0 1430.43 55.56
2 3 0 1482.86 58.5
2 3 0 1385.48 58.01
2 3 0 1655.18 61.07
2 3 0 1457.21 51.38
2 3 0 1445.32 57.66
2 3 0 1372.48 56.29
2 3 0 1435.12 58.91
2 3 1 437.25 21.23
2 3 1 322.36 21.79
2 3 1 347.67 25.62
2 3 1 400.48 31.62
2 3 1 324.71 19.45
2 3 1 360.55 18.81
2 3 1 391.43 20.94
2 3 1 387.06 19.51
2 3 1 340.81 19.77
2 3 1 473.04 29.4
2 3 1 318.25 21.42
2 3 1 358.86 22.34
2 3 1 330.73 14.76
2 3 1 369.68 22.87
2 3 1 369.03 20.88
2 3 1 364.32 20.65
2 3 1 350.68 19.85
2 3 1 355.41 21.18
2 3 1 371.61 21.02
2 3 1 349.68 21.08
2 3 2 3291.51 71.32
2 3 2 2976.43 60.14
2 3 2 3204.24 54.2
2 3 2 3230.28 82.72
2 3 2 2999.81 57.79
2 3 2 3129.54 89.5
2 3 2 3282.29 56.38
2 3 2 3180.35 62.82
2 3 2 3322.85 60.09
2 3 2 3248.85 62.86
2 3 2 3414.47 70.28
2 3 2 3161.29 66.17
2 3 2 3356.6 71.53
2 3 2 3333.46 66.91
2 3 2 3364 62.22
2 3 2 3340.57 58.81
2 3 2 3473.44 63.65
2 3 2 3389.76 66.12
2 3 2 3189.99 60.13
2 3 2 3366.17 65.01
2 3 3 504.96 30.87
2 3 3 536.97 27.23
2 3 3 677.92 34.77
2 3 3 492.64 31.31
2 3 3 530.19 33.04
2 3 3 506.88 30.41
2 3 3 496.93 31.84
2 3 3 495.12 30.51
2 3 3 490.45 27.97
2 3 3 463.17 26.49
2 3 3 546.31 30.06
2 3 3 486.06 27.73
2 3 3 494.23 29.87
2 3 3 510.7 30.29
2 3 3 508.35 27.68
2 3 3 542.74 30.81
2 3 3 516.39 27.47
2 3 3 489.44 27.74
2 3 3 578.89 42.09
2 3 3 529.51 28.26
2 3 4 1197.92 49.71
2 3 4 983.28 49.27
2 3 4 1073.64 51.87
2 3 4 1029.81 51.97
2 3 4 980.82 49.08
2 3 4 1101.56 52.21
2 3 4 996.48 48.81
2 3 4 1004.2 45.26
2 3 4 1016.97 47.82
2 3 4 1066.32 47.32
2 3 4 983.11 44.42
2 3 4 1023.19 45.09
2 3 4 903.18 46.98
2 3 4 975.17 60.52
2 3 4 1002.46 45.24
2 3 4 1043.63 41.46
2 3 4 1086.64 47.51
2 3 5 840.23 45.4
2 3 5 843.55 46.51
2 3 5 918.33 45.06
2 3 5 920.76 41.05
2 3 5 776.33 40.53
2 3 5 933.29 45.11
2 3 5 942.42 42.07
2 3 5 885.77 44.55
2 3 5 930.31 44.26
2 3 5 846 45.49
2 3 5 915.26 48
2 3 6 317.75 25.68
2 3 6 321.67 27.21
2 3 6 383.12 27.45
2 3 6 324.05 27.66
2 3 6 323.38 25.32
2 3 6 306.67 26.49
2 3 6 321.26 25.37
2 3 6 241.37 24.36
2 3 7 875.5 51.32
2 3 7 984.4 51.69
2 3 7 941.67 54.06
2 3 7 965.04 49.92
2 3 7 870.58 51.46
2 3 7 905.24 49.1
2 3 8 698.47 46.2
2 3 8 616.55 44.21
2 3 8 730.73 43.64
2 3 8 736.2 48.58
2 3 9 432.05 37.52
2 3 9 416.54 31.78
2 3 9 454.52 34.5
2 3 9 509.79 37.73
2 3 9 443.19 36.4
2 3 10 64.5 14.04
2 3 10 79.45 15.28
2 3 10 85.7 17
2 3 10 97.37 15.25
2 3 11 526.38 42.99
2 3 11 601.19 47.78
2 3 11 626.34 46.38
2 3 12 5.29 5.13
2 3 12 10.21 6.5
2 3 12 14.2 7.29
2 3 13 389.52 37.76
2 3 13 380.5 37.54
2 3 13 358.63 39.22
2 3 13 409.82 38.85
2 4 -10 169.43 26.27
2 4 -9 497.96 42.42
2 4 -9 602.46 48.82
2 4 -8 146.27 21.13
2 4 -8 125.92 18.59
2 4 -8 104.95 18.05
2 4 -8 158.1 23.48
2 4 -7 845.04 53.19
2 4 -7 719.14 47.81
2 4 -7 780.71 50.73
2 4 -7 869.82 56.57
2 4 -6 89.69 15.96
2 4 -6 68.62 13.36
2 4 -6 99.29 15.78
2 4 -6 99.18 17.3
2 4 -5 1267.91 64.93
2 4 -5 1364.8 70.67
2 4 -5 1376.38 69.97
2 4 -5 1211.92 63.94
2 4 -5 1508.31 67.4
2 4 -4 2.21 2.49
2 4 -4 10.7 5.49
2 4 -4 -0.94 0.04
2 4 -4 16.24 6.02
2 4 -4 2.71 2.49
2 4 -4 11.16 4.8
2 4 -3 1260.04 59.69
2 4 -3 1290.12 64.23
2 4 -3 1258.6 58.4
2 4 -3 1160.02 63.37
2 4 -3 1327.15 62.68
2 4 -3 1366.4 62.93
2 4 -2 6.58 3.45
2 4 -2 2.23 2.05
2 4 -2 4.29 3.12
2 4 -2 1.05 1.92
2 4 -1 1941.63 80.31
2 4 -1 1883.58 75.19
2 4 -1 1939.65 80.09
2 4 -1 1864.34 70.12
2 4 -1 1967.11 78.35
2 4 -1 1806.96 74.42
2 4 -1 1791.86 79.14
2 4 0 156.81 21.32
2 4 0 137.28 14.27
2 4 0 132.86 15.53
2 4 0 165.49 14.03
2 4 0 152.52 16.94
2 4 0 140.43 15.87
2 4 0 123.89 12.21
2 4 0 145.27 14.23
2 4 0 127.13 15.86
2 4 0 173.21 15.91
2 4 1 1807.99 83.08
2 4 1 1777.88 67.03
2 4 1 1601.16 64.21
2 4 1 1873.57 73.92
2 4 1 1764.31 70.41
2 4 1 1772.32 69.12
2 4 1 1601.19 71.15
2 4 1 1597.59 66.93
2 4 1 1905.98 72.71
2 4 1 1787.7 70.09
2 4 2 329.6 24.75
2 4 2 190.38 19.01
2 4 2 337.66 26.8
2 4 2 303.18 19.6
2 4 2 283.39 24.78
2 4 2 332.11 26.13
2 4 2 332.11 20.9
2 4 2 296.83 23.38
2 4 2 350.33 24.96
2 4 2 311.48 23.21
2 4 2 303.53 21.93
2 4 2 302.74 22.14
2 4 2 294.27 23.21
2 4 2 326.61 26.51
2 4 2 322.26 30.63
2 4 3 1004.9 62.44
2 4 3 1221.72 52.85
2 4 3 1195.05 53.4
2 4 3 1120.04 54.8
2 4 3 1256.7 58.91
2 4 3 1174.7 58.1
2 4 3 1257.49 58.74
2 4 3 1092.11 52.5
2 4 3 1132.04 54.06
2 4 3 1129.13 52.73
2 4 3 1021.2 47.61
2 4 3 1279.07 54.45
2 4 3 1157.35 58.38
2 4 3 1123.61 55.47
2 4 4 223.63 22.86
2 4 4 260.79 23.71
2 4 4 259.04 22.41
2 4 4 262.22 21.06
2 4 4 242.44 22.44
2 4 4 229.79 23.59
2 4 4 264.01 21.5
2 4 4 266.65 22.08
2 4 4 260.41 24.44
2 4 4 217.12 21.8
2 4 5 1090.09 53.22
2 4 5 1029.62 53.96
2 4 5 836.66 53.41
2 4 5 1003.45 55.12
2 4 5 996.26 53.54
2 4 5 1076.25 55.82
2 4 5 951.17 54.49
2 4 6 536.99 35.95
2 4 6 497.65 36.15
2 4 6 393.36 34.93
2 4 6 500.01 33.7
2 4 6 526.26 38.23
2 4 6 515.79 36.32
2 4 6 501.77 37.4
2 4 6 465.9 35.63
2 4 7 514.69 36.51
2 4 7 470.07 33
2 4 7 456.53 36.01
2 4 7 402.37 35.22
2 4 7 464.67 35.39
2 4 7 445.35 35.95
2 4 8 639.99 43.31
2 4 8 552.07 42
2 4 8 595.69 39.02
2 4 8 557.45 42.37
2 4 8 565.66 43.49
2 4 8 583.54 41.37
2 4 9 370.47 34.11
2 4 9 357.69 34.68
2 4 9 349.61 32.76
2 4 10 423.03 37.86
2 4 10 419.72 39.07
2 4 10 410.34 36.84
2 4 11 59.86 14.23
2 4 11 73.6 16.62
2 4 11 48.22 12.81
2 4 12 193.11 27.19
2 4 12 211.63 29.22
2 4 12 254.28 30.31
2 4 13 47.8 13.25
2 5 -9 64.9 16.24
2 5 -9 62.45 14.15
2 5 -8 291.89 33.83
2 5 -8 240.28 27.77
2 5 -7 398.37 38.61
2 5 -7 342.97 33.32
2 5 -7 365.11 34.86
2 5 -7 381.85 34.42
2 5 -6 717.49 51.14
2 5 -6 669.2 46.6
2 5 -6 663.42 48.22
2 5 -6 632.8 45.45
2 5 -5 90.18 17.05
2 5 -5 115.55 18.64
2 5 -5 120.01 17.94
2 5 -5 94.52 15.95
2 5 -4 1690.87 77.97
2 5 -4 1680.15 82.08
2 5 -4 1548.04 79.81
2 5 -4 1466.39 75.77
2 5 -4 1690.51 76.95
2 5 -3 70.85 13.11
2 5 -3 78.38 14.51
2 5 -3 90.82 14.52
2 5 -3 61.45 12.44
2 5 -2 830.97 45.13
2 5 -2 689.32 45.8
2 5 -2 770.4 46.23
2 5 -2 638.91 43.72
2 5 -1 326.83 27.28
2 5 -1 327.84 25.89
2 5 -1 347.31 29.56
2 5 -1 306.42 27.51
2 5 -1 298.39 27.49
2 5 0 1295.64 64.24
2 5 0 1263.04 59.98
2 5 0 1396.26 63.02
2 5 0 1215.75 63.52
2 5 0 1223.54 63.98
2 5 0 1324.31 61.81
2 5 0 1301.81 64.98
2 5 1 96.33 14.72
2 5 1 104.29 15.59
2 5 1 107.26 13.9
2 5 1 84.7 13.89
2 5 1 111.45 15.4
2 5 1 64.69 12.21
2 5 1 74.52 12.16
2 5 2 1645.83 76.67
2 5 2 1621.69 76.08
2 5 2 1604.77 73.37
2 5 2 1482.85 73.88
2 5 2 1566.63 72.75
2 5 2 1576.52 70.79
2 5 2 1682 77.49
2 5 3 481.3 33.45
2 5 3 481.66 36.86
2 5 3 519.7 37.41
2 5 3 500.85 36.91
2 5 3 446.47 34.05
2 5 3 453.09 35.36
2 5 3 422.47 32.14
2 5 4 763.88 44.31
2 5 4 722.04 43.73
2 5 4 570.39 43.74
2 5 4 734.17 46.66
2 5 4 728.76 46.63
2 5 4 765.31 46.69
2 5 4 622.26 43.61
2 5 5 33.19 8.97
2 5 5 31.95 8.83
2 5 5 32.5 9.94
2 5 5 37.18 9.87
2 5 5 21.52 7.74
2 5 5 43.72 10.72
2 5 5 36.93 9.97
2 5 6 751 47.03
2 5 6 705.89 46.4
2 5 6 773.45 49.76
2 5 6 602.85 44.6
2 5 6 639.47 45.83
2 5 6 658.11 46.16
2 5 7 297.98 29.41
2 5 7 297.09 29.46
2 5 7 308.88 31.17
2 5 7 292.3 29.79
2 5 7 306.2 30.9
2 5 7 274.37 29
2 5 8 419.03 35.9
2 5 8 353.34 33.65
2 5 8 352.51 34.09
2 5 8 349.11 33.66
2 5 8 379.73 35.67
2 5 8 323.27 32.4
2 5 9 401.29 37.72
2 5 9 359.06 35.04
2 5 9 410.1 38.74
2 5 9 400.3 36.59
2 5 10 173.16 25.1
2 5 10 183.07 26.08
2 5 10 187.04 25.61
2 5 11 222.02 29.39
2 5 11 291.45 34.58
2 5 11 349.9 35.76
2 5 12 44.54 13.2
2 6 -8 163.36 26.98
2 6 -8 128.49 23.66
2 6 -8 112.84 19.94
2 6 -7 590.43 50.15
2 6 -7 512.27 46.3
2 6 -7 491.63 42.53
2 6 -6 165.06 25.6
2 6 -6 197.81 27.02
2 6 -6 155.33 22.77
2 6 -5 623.7 48.95
2 6 -5 579.67 47.12
2 6 -5 558.88 45.3
2 6 -5 513.49 41.8
2 6 -4 140.98 20.62
2 6 -4 159 23.71
2 6 -4 189.78 25.43
2 6 -4 143.51 22.16
2 6 -4 138.39 20.9
2 6 -4 156.94 20.97
2 6 -3 406.88 35.67
2 6 -3 476.71 39.49
2 6 -3 491.7 40.38
2 6 -3 395.99 35.46
2 6 -3 433.8 35.7
2 6 -2 -1.64 0
2 6 -2 -1.48 0
2 6 -1 1562.34 61.46
2 6 -1 1313.67 60.62
2 6 -1 1453.27 61.69
2 6 -1 1247.91 57.65
2 6 0 21.6 7.72
2 6 0 10.67 5.61
2 6 0 10.36 5.45
2 6 0 13.54 6.49
2 6 1 1040.58 61.05
2 6 1 1230.22 64.22
2 6 1 913.45 57.5
2 6 1 956.88 56.61
2 6 1 1129.31 62.13
2 6 1 1077.77 61.28
2 6 2 14.04 5.69
2 6 2 17.56 7.19
2 6 2 8.64 4.95
2 6 2 19.51 7.55
2 6 2 12.53 6.75
2 6 2 5.96 4.34
2 6 2 9.9 5.2
2 6 3 498.58 35.76
2 6 3 381.94 36.55
2 6 3 442.19 35.94
2 6 3 467.11 37.72
2 6 3 461.34 37.14
2 6 3 490.65 38.69
2 6 3 500.15 39.83
2 6 4 50 11.18
2 6 4 50.25 13.27
2 6 4 55.51 12.76
2 6 4 58.99 13
2 6 4 64.24 13.73
2 6 4 51.17 12.77
2 6 5 759.11 50.31
2 6 5 788.9 49.96
2 6 5 807.22 53.23
2 6 5 773.16 52.02
2 6 5 782.82 52.61
2 6 5 836.75 55.15
2 6 6 116.16 18.79
2 6 6 118.1 18.4
2 6 6 108.71 19.03
2 6 6 110.59 18.58
2 6 6 129.7 20.08
2 6 6 110.89 19.13
2 6 7 500.76 40.98
2 6 7 405.7 37.03
2 6 7 416.64 39.02
2 6 7 468.98 39.88
2 6 7 458.29 40.63
2 6 7 436.72 39.71
2 6 8 191.98 25.79
2 6 8 225.39 28.34
2 6 8 178.69 24.2
2 6 8 164.95 24.57
2 6 8 196.91 26.89
2 6 9 213.71 28.74
2 6 9 220.84 28.84
2 6 9 220.41 28.9
2 6 10 78.74 17.55
2 6 10 65.55 15.87
2 7 -6 298.23 32.95
2 7 -5 134.88 21.3
2 7 -5 130.63 22.59
2 7 -4 551.82 44.7
2 7 -4 479.36 39.21
2 7 -4 562.02 45.28
2 7 -3 85.81 16.65
2 7 -3 123.87 20.99
2 7 -3 104.96 19.96
2 7 -2 430.5 37.62
2 7 -2 339.49 33.96
2 7 -2 400.22 38.65
2 7 -1 29.33 10.33
2 7 -1 44.4 12.3
2 7 -1 50.94 12.71
2 7 0 783.33 52.59
2 7 0 755.48 52.73
2 7 0 700.96 51.38
2 7 0 639.31 48.24
2 7 1 1.79 2.32
2 7 1 -1.69 3.1
2 7 1 -1.79 4.65
2 7 1 1.74 3.2
2 7 1 -1.67 0.01
2 7 1 3.25 3.65
2 7 2 399.79 39.68
2 7 2 550.44 43.14
2 7 2 595.15 46.14
2 7 2 535.14 43.05
2 7 2 450.36 39.31
2 7 2 542.29 42.42
2 7 3 6.73 5.35
2 7 3 5.19 5.02
2 7 3 3.9 4.38
2 7 3 1.71 2.22
2 7 3 -1.86 2.41
2 7 4 573.67 44.74
2 7 4 593.06 46.31
2 7 4 564.6 44.92
2 7 4 578.84 47.41
2 7 5 37.89 11.26
2 7 5 46.52 12.63
2 7 5 64.23 14.72
2 7 5 52.96 14.69
2 7 6 342.32 36.39
2 7 6 404.11 38.25
2 7 6 374.47 38.74
2 7 7 26 9.74
2 7 7 18.46 8.18
2 7 7 28.84 10.32
2 7 7 33.03 11.71
2 7 8 99.75 19.72
2 7 8 149.53 24.26
2 7 8 143.11 23.75
2 8 -2 40.6 12.36
2 8 -2 49.47 14.29
2 8 -2 41.48 12.54
2 8 -1 308.57 34.38
2 8 -1 413.52 40.51
2 8 -1 291.12 32.98
2 8 -1 342.37 35.5
2 8 0 14.91 7.67
2 8 0 19.68 9.23
2 8 0 25.83 9.59
2 8 0 10.17 7
2 8 1 366.02 36.27
2 8 1 358.79 37.45
2 8 1 349.76 35.16
2 8 1 291.44 33.68
2 8 2 9.13 5.82
2 8 2 17.19 8.23
2 8 2 16.61 7.95
2 8 2 12.4 7.11
2 8 3 364.87 37.18
2 8 3 400.36 38
2 8 3 311.51 36.54
2 8 4 2.01 5.23
2 8 4 9.45 6.5
2 8 4 14.97 9.21
2 8 5 390.77 39.52
2 8 5 356.03 37.07
3 -6 -4 62.81 16.97
3 -6 -4 55.13 16.35
3 -6 -4 47.84 15.89
3 -6 -4 59.2 14.3
3 -6 -3 153.84 25.89
3 -6 -3 182.07 25.45
3 -6 -3 166.91 27.77
3 -6 -3 148.57 27.95
3 -6 -2 202.33 28.96
3 -6 -2 181.75 25.25
3 -6 -2 176.61 28.1
3 -6 -2 144.69 26.93
3 -6 -2 174.55 24.29
3 -6 -1 149.52 22.76
3 -6 -1 141.39 24.28
3 -6 -1 101.24 22.41
3 -6 -1 130.43 21.39
3 -6 0 328.79 34.23
3 -6 0 341.48 34.05
3 -6 0 299.41 35.27
3 -6 0 363.86 39.74
3 -6 0 308.4 37.95
3 -6 0 300.17 39.06
3 -6 1 60.45 14.08
3 -6 1 52.12 13.54
3 -6 1 51.96 16.13
3 -6 1 34.54 13.45
3 -6 1 64.47 16.33
3 -6 2 484.16 40.56
3 -6 2 388.04 41.76
3 -6 2 402.25 41.06
3 -6 3 15.64 7.49
3 -6 3 6.67 6.46
3 -6 3 2.03 3.73
3 -6 4 231.27 28.25
3 -6 4 274.13 30.77
3 -6 4 244.56 32.21
3 -6 4 219.94 29.13
3 -6 5 63.85 14.61
3 -6 5 56.02 14.18
3 -6 5 24.05 9.89
3 -6 5 33.11 11.08
3 -6 6 490.46 41.47
3 -6 6 442.91 41.14
3 -6 6 407.61 39.6
3 -6 6 364.35 40
3 -5 -6 169.6 28.25
3 -5 -6 163.75 27.77
3 -5 -6 203.25 26.65
3 -5 -5 119.68 23.9
3 -5 -5 81.72 18.9
3 -5 -5 105.37 19.05
3 -5 -4 460.36 46.52
3 -5 -4 373.32 40.85
3 -5 -4 472.27 40.35
3 -5 -3 161.27 25.32
3 -5 -3 142.52 21.93
3 -5 -3 146.35 25.33
3 -5 -3 190.89 29.44
3 -5 -2 276.89 32.45
3 -5 -2 244.69 28.31
3 -5 -2 292.36 29.49
3 -5 -2 230.9 31.32
3 -5 -2 302.92 37.43
3 -5 -1 446.4 40.8
3 -5 -1 426.47 37.43
3 -5 -1 445.55 37.25
3 -5 -1 398.58 40.41
3 -5 -1 440.16 44.83
3 -5 0 118.86 19.73
3 -5 0 107.22 18.34
3 -5 0 117.25 18.52
3 -5 0 100.41 20.77
3 -5 0 108.6 20
3 -5 1 279.12 28.56
3 -5 1 219.61 29.33
3 -5 1 234.54 31.15
3 -5 1 216.7 27.39
3 -5 1 236.76 29.23
3 -5 2 255.22 26.56
3 -5 2 206.11 24.67
3 -5 2 142.15 23.57
3 -5 2 176.66 26.64
3 -5 2 188.65 25.5
3 -5 3 629.62 44.36
3 -5 3 589.98 43.97
3 -5 3 511.82 45.43
3 -5 3 540.88 47.14
3 -5 3 528.6 43.82
3 -5 4 106.28 17.97
3 -5 4 89.07 16.51
3 -5 4 60.01 15.21
3 -5 4 47.82 12.7
3 -5 5 710.11 49.64
3 -5 5 656.2 47.51
3 -5 5 555.23 47.52
3 -5 5 665.01 48.44
3 -5 6 8.31 5.29
3 -5 6 3.51 3.22
3 -5 6 3.88 3.57
3 -5 6 8.34 5.3
3 -5 7 280.19 32.61
3 -5 7 300.66 32.72
3 -5 7 317.58 32.42
3 -5 8 -1.99 3.64
3 -5 8 7.67 5.56
3 -5 8 1.76 2.28
3 -5 9 278.81 33.04
3 -5 9 399.63 39.18
3 -4 -8 17.55 9.21
3 -4 -8 9.46 6.02
3 -4 -7 425.43 45.17
3 -4 -7 463.1 41.2
3 -4 -6 8.71 6
3 -4 -6 20.45 10.22
3 -4 -6 13.28 7.61
3 -4 -5 487.13 39.83
3 -4 -5 443.85 44.11
3 -4 -4 246.07 27.46
3 -4 -4 236.44 31.17
3 -4 -4 155.45 24.71
3 -4 -3 484.08 36.65
3 -4 -3 478.56 38.6
3 -4 -3 448.74 43.65
3 -4 -3 375.86 37.97
3 -4 -2 260.8 25.93
3 -4 -2 260.6 27.41
3 -4 -2 194.8 28.07
3 -4 -2 241.04 28.49
3 -4 -1 329.04 29.3
3 -4 -1 317.5 30.45
3 -4 -1 250.43 31.87
3 -4 -1 322.87 31.78
3 -4 0 351.03 31.66
3 -4 0 377.71 33.07
3 -4 0 330.32 29.75
3 -4 0 362.88 37.67
3 -4 0 318.02 32.67
3 -4 1 906.51 51.89
3 -4 1 811.63 47.49
3 -4 1 795.73 57.27
3 -4 1 735.07 47.69
3 -4 1 844.56 53.43
3 -4 2 892.17 50.61
3 -4 2 903.88 52.27
3 -4 2 758 53.21
3 -4 2 863.17 58.44
3 -4 2 737.2 50.67
3 -4 2 840.68 51.17
3 -4 3 110.45 16.37
3 -4 3 74.49 13.95
3 -4 3 73.23 15.69
3 -4 3 66.17 14.59
3 -4 3 96.16 14.51
3 -4 3 67.97 13.6
3 -4 4 409.63 30.89
3 -4 4 424.14 34.13
3 -4 4 421.37 34.44
3 -4 4 349.36 31.69
3 -4 4 329.99 33.26
3 -4 4 413.2 36.64
3 -4 5 35.02 10.06
3 -4 5 26.63 8.85
3 -4 5 51.78 11.38
3 -4 5 23.28 8.41
3 -4 6 812.72 51.41
3 -4 6 849.85 53.05
3 -4 6 728.28 47.6
3 -4 6 681.19 50.33
3 -4 7 172.05 23.77
3 -4 7 184.52 23.54
3 -4 7 178.86 23.52
3 -4 8 546.27 44.84
3 -4 8 656.99 48.3
3 -4 8 672.23 47.78
3 -4 9 1.81 3.32
3 -4 9 1.85 2.41
3 -4 9 1.72 3.87
3 -4 10 253.53 30.58
3 -4 10 345.52 35.79
3 -4 10 361.36 35.29
3 -4 11 9.57 6.1
3 -4 11 22.51 9.95
3 -3 -9 -2.43 4.47
3 -3 -9 1.94 2.51
3 -3 -8 351.31 35.25
3 -3 -8 345.56 39.38
3 -3 -8 274.67 35.39
3 -3 -7 15.15 7.95
3 -3 -7 10.46 5.99
3 -3 -7 6.03 5.22
3 -3 -7 -6.85 0.23
3 -3 -7 13.09 8.01
3 -3 -6 501.23 44.99
3 -3 -6 571.92 43.14
3 -3 -6 485.74 45.93
3 -3 -6 521.31 45.85
3 -3 -5 11.28 6.46
3 -3 -5 7.77 4.95
3 -3 -5 11.85 6.79
3 -3 -5 6.02 7.82
3 -3 -5 9.67 6.15
3 -3 -4 1201.49 69.45
3 -3 -4 1212.05 65.11
3 -3 -4 1237.82 71.6
3 -3 -4 1094.21 70.51
3 -3 -3 456.93 33.48
3 -3 -3 446.22 41.16
3 -3 -3 533.31 41.01
3 -3 -3 483.84 37.06
3 -3 -2 753.31 43.4
3 -3 -2 636.04 49.93
3 -3 -2 587.74 43.59
3 -3 -2 632.27 42.94
3 -3 -1 156 18.33
3 -3 -1 192 25.3
3 -3 -1 143.58 19.16
3 -3 -1 172.69 20.63
3 -3 0 332.45 25.19
3 -3 0 323.73 27.26
3 -3 0 330.49 33.36
3 -3 0 321.54 28.89
3 -3 0 299.57 26.93
3 -3 1 309.2 26.45
3 -3 1 290.63 24.31
3 -3 1 315.87 32.18
3 -3 1 300.73 25.41
3 -3 1 319.84 26.16
3 -3 2 1096.76 57.74
3 -3 2 1214.27 57.87
3 -3 2 1252.85 60.45
3 -3 2 1026.33 60.09
3 -3 2 1107.54 64.62
3 -3 2 1204.6 56.3
3 -3 2 1184.35 57.41
3 -3 3 1859.17 81.75
3 -3 3 1886.48 81.7
3 -3 3 1888.69 81.32
3 -3 3 1835.94 85.45
3 -3 3 1909.45 88.54
3 -3 3 1879.75 79.2
3 -3 4 258.52 24.42
3 -3 4 336.78 25.41
3 -3 4 256.35 26.49
3 -3 4 311.44 29
3 -3 4 317.09 25.56
3 -3 4 294.84 27
3 -3 4 346.79 28.59
3 -3 4 308.08 26.86
3 -3 5 304.87 25.66
3 -3 5 221.93 24.67
3 -3 5 261.1 23.1
3 -3 5 258.67 25.06
3 -3 5 288.32 26.51
3 -3 5 262.13 25.68
3 -3 6 41.59 9.31
3 -3 6 41.9 10.24
3 -3 6 44.39 10.88
3 -3 6 50.64 11.44
3 -3 6 39.94 9.24
3 -3 6 44.28 10.88
3 -3 7 655.45 46.26
3 -3 7 745.49 46.51
3 -3 7 754.25 49.01
3 -3 7 730.77 48.06
3 -3 8 84.47 15.57
3 -3 8 81.87 15.71
3 -3 8 114.58 17.2
3 -3 8 122.62 18.67
3 -3 9 879.73 56.56
3 -3 9 956.71 60.14
3 -3 9 947.9 58.56
3 -3 10 5.02 3.77
3 -3 10 7.34 5.33
3 -3 10 13.77 7.42
3 -3 11 262.56 29.65
3 -3 11 257.28 29.65
3 -3 11 276.37 32.27
3 -3 11 271.16 30.84
3 -3 12 3.64 3.35
3 -3 12 3.66 3.37
3 -3 12 6.11 5.29
3 -2 -10 12 7.64
3 -2 -10 -8.38 0.25
3 -2 -10 8.57 5.57
3 -2 -10 12.1 6.93
3 -2 -10 9.24 7.35
3 -2 -9 342.11 37.85
3 -2 -9 306.3 33.88
3 -2 -9 348.4 34.5
3 -2 -9 348.1 38.14
3 -2 -8 33.91 12.01
3 -2 -8 18.78 8.11
3 -2 -8 35.85 11.95
3 -2 -8 33.91 10.63
3 -2 -7 935.18 53.19
3 -2 -7 854.1 55.32
3 -2 -7 767.87 49.58
3 -2 -7 839 53.68
3 -2 -7 919.66 58.17
3 -2 -6 9.29 5.34
3 -2 -6 21.61 8.44
3 -2 -6 26.33 8.29
3 -2 -6 21.95 7.9
3 -2 -6 12.63 6.64
3 -2 -6 22.36 8.74
3 -2 -5 914.28 48.59
3 -2 -5 848.94 46.64
3 -2 -5 852.52 49.89
3 -2 -5 787.89 44.36
3 -2 -5 816.92 50.69
3 -2 -5 869.72 52.11
3 -2 -4 102.26 17.63
3 -2 -4 102.62 17.22
3 -2 -4 115.97 16.47
3 -2 -4 103.11 18.38
3 -2 -4 111.52 16.65
3 -2 -3 727.94 46.08
3 -2 -3 726.84 49.05
3 -2 -3 746.31 47.56
3 -2 -3 903.08 45.67
3 -2 -3 734.98 43.43
3 -2 -3 808.63 43.07
3 -2 -3 800.27 53.72
3 -2 -2 74.81 12.81
3 -2 -2 94.23 11.89
3 -2 -2 81.87 15.63
3 -2 -2 82.04 13.46
3 -2 -2 65.33 10.74
3 -2 -2 91.57 15.08
3 -2 -1 1846.82 82.88
3 -2 -1 1986.96 83.3
3 -2 -1 1826.37 78.63
3 -2 -1 2026.23 75.24
3 -2 -1 1818.73 89.66
3 -2 -1 1945.38 78.6
3 -2 0 506.87 32.06
3 -2 0 477.48 28.59
3 -2 0 481.9 31.73
3 -2 0 485.08 31.99
3 -2 0 435.83 31.73
3 -2 0 525.64 34.8
3 -2 0 479.81 31.89
3 -2 0 537.09 40.43
3 -2 0 515.04 28.85
3 -2 0 536.65 34.4
3 -2 1 1171.46 54.47
3 -2 1 1070.85 52.7
3 -2 1 1222.42 51.93
3 -2 1 1016.74 52.59
3 -2 1 1081.28 51.93
3 -2 1 1195.68 49.61
3 -2 1 1008.44 59.88
3 -2 1 1070.86 50.93
3 -2 1 1099.41 53.16
3 -2 1 1167.91 48.22
3 -2 2 772.09 42.64
3 -2 2 788.04 38.33
3 -2 2 733.15 39.21
3 -2 2 798.75 38.81
3 -2 2 761.21 44.3
3 -2 2 847.8 39.65
3 -2 2 744.47 47.84
3 -2 2 844.95 44.24
3 -2 2 750.82 42.7
3 -2 2 785.71 41.21
3 -2 2 841.57 45.63
3 -2 2 887.12 41.68
3 -2 3 275.25 22.52
3 -2 3 238.72 22.48
3 -2 3 280.12 20.34
3 -2 3 240.11 24.17
3 -2 3 287.12 23.65
3 -2 3 220.23 20.32
3 -2 3 285.05 23.03
3 -2 3 244.13 22.2
3 -2 3 239.72 20.62
3 -2 4 767.45 40.5
3 -2 4 775.35 42.61
3 -2 4 759.74 44.45
3 -2 4 776.82 45.23
3 -2 4 787.28 44.09
3 -2 4 768.1 43.79
3 -2 4 866.8 46.02
3 -2 4 789 44.82
3 -2 4 840.71 39.51
3 -2 5 903.61 48.66
3 -2 5 864.59 48.64
3 -2 5 947.13 50.42
3 -2 5 885.3 49.54
3 -2 5 826.8 47.83
3 -2 5 942.35 47.8
3 -2 5 843.4 43.75
3 -2 5 889.86 46.94
3 -2 6 838.09 48.78
3 -2 6 901.33 50.9
3 -2 6 858.02 48.1
3 -2 6 828.91 48.89
3 -2 6 834.72 48.24
3 -2 6 777.2 42.12
3 -2 6 881.81 46.71
3 -2 7 283.03 24.31
3 -2 7 245.88 24.53
3 -2 7 284.86 27.43
3 -2 7 313.66 28.45
3 -2 7 261.28 24.98
3 -2 7 258.48 25.97
3 -2 8 892.77 51.99
3 -2 8 871.79 50.34
3 -2 8 910.86 54.64
3 -2 8 854.98 52.67
3 -2 8 812.2 51.68
3 -2 9 9.85 5.17
3 -2 9 17.66 7.52
3 -2 9 6.42 4.42
3 -2 9 9.25 5.3
3 -2 9 12.23 5.96
3 -2 10 421.84 36.4
3 -2 10 451.58 37.57
3 -2 10 548.41 43.6
3 -2 10 530.9 41.67
3 -2 10 573.66 43.6
3 -2 11 27.1 9.28
3 -2 11 22.54 8.65
3 -2 11 27.77 9.93
3 -2 11 21.25 8.63
3 -2 12 378.7 35.73
3 -2 12 356.86 34.89
3 -2 12 397.43 39.38
3 -2 12 381.74 37.79
3 -2 13 3.54 3.98
3 -2 13 1.79 3.28
3 -2 13 2.05 3.76
3 -1 -11 83.55 18.69
3 -1 -11 107.39 22.5
3 -1 -10 309.8 36.04
3 -1 -10 298.9 34.17
3 -1 -10 346.76 35.27
3 -1 -10 369.3 38.64
3 -1 -9 31.79 11.02
3 -1 -9 19.36 8.36
3 -1 -9 42.87 12.11
3 -1 -9 28.98 11.1
3 -1 -8 807.51 53.21
3 -1 -8 739.91 48.82
3 -1 -8 754.43 51.76
3 -1 -8 859.83 51.3
3 -1 -8 850.09 48.17
3 -1 -7 -1.59 0.02
3 -1 -7 1.8 2.33
3 -1 -7 8.91 5.1
3 -1 -7 -6.86 0.02
3 -1 -7 1.63 2.12
3 -1 -7 1.68 2.17
3 -1 -7 -1.83 0.02
3 -1 -6 860.94 55.92
3 -1 -6 829.74 56.06
3 -1 -6 826.93 52.74
3 -1 -6 783.77 54.07
3 -1 -6 957.65 55.02
3 -1 -6 943.58 55.12
3 -1 -5 66.98 12.97
3 -1 -5 71.43 14.22
3 -1 -5 68.17 14.17
3 -1 -5 69.36 13.01
3 -1 -5 84.3 15.89
3 -1 -4 1168.15 65.12
3 -1 -4 1158.99 62.29
3 -1 -4 1265.47 65.19
3 -1 -4 1278.45 63.49
3 -1 -4 1208.43 60.54
3 -1 -4 1345.54 62.18
3 -1 -4 1173.35 66.4
3 -1 -3 175.92 16.28
3 -1 -3 200.78 20.64
3 -1 -3 180.92 21.25
3 -1 -3 184.6 19.96
3 -1 -3 190.22 19.05
3 -1 -3 193.08 23.28
3 -1 -3 217.82 20.66
3 -1 -2 1874.2 75.5
3 -1 -2 1881.16 72.57
3 -1 -2 1959.63 79.82
3 -1 -2 1740.85 79.48
3 -1 -2 1831.08 76.65
3 -1 -2 1732.77 73.14
3 -1 -2 1681.1 72.22
3 -1 -2 2007.31 71.53
3 -1 -2 1714.04 84.75
3 -1 -2 2123.41 81.66
3 -1 -1 424.38 23.56
3 -1 -1 368.13 31.6
3 -1 -1 400.6 23.72
3 -1 -1 330.57 22.03
3 -1 -1 337.5 24.06
3 -1 -1 372.24 25.95
3 -1 -1 394.03 24.62
3 -1 -1 402.75 21.35
3 -1 -1 377.22 24.44
3 -1 -1 428.63 28.86
3 -1 -1 374.25 26.07
3 -1 -1 419.19 26.45
3 -1 -1 366.36 27.83
3 -1 -1 400.04 29.17
3 -1 0 1467.19 54.57
3 -1 0 1287.67 67.34
3 -1 0 1460.74 49.75
3 -1 0 1445.08 60.85
3 -1 0 1435.17 58.61
3 -1 0 1408.1 58.41
3 -1 0 1417.55 54.26
3 -1 0 1416.32 54.17
3 -1 0 1417.14 61.97
3 -1 0 1273.97 60.11
3 -1 0 1374.97 55.87
3 -1 0 1464.41 51.89
3 -1 0 1252.73 59.53
3 -1 0 1369.18 58.32
3 -1 0 1330.16 51.22
3 -1 0 1454.65 66.2
3 -1 0 1265.5 61.96
3 -1 0 1300.09 61.29
3 -1 0 1584.31 58.33
3 -1 0 1536.44 75.39
3 -1 1 141.73 13.77
3 -1 1 146.47 19.49
3 -1 1 136.02 13.8
3 -1 1 124.88 10.74
3 -1 1 120.44 13.79
3 -1 1 108.85 12.65
3 -1 1 116.79 13.05
3 -1 1 109.59 11.66
3 -1 1 117.71 11.65
3 -1 1 146.86 14.28
3 -1 1 145.14 11.98
3 -1 1 111.11 15.81
3 -1 1 138.05 15.85
3 -1 1 116.11 13.87
3 -1 1 112.82 12.57
3 -1 1 111.67 10.3
3 -1 2 1504.73 70.19
3 -1 2 1560.41 61.67
3 -1 2 1575.66 73.75
3 -1 2 1398.17 55.86
3 -1 2 1365.58 58.79
3 -1 2 1381.86 55.67
3 -1 2 1397.79 55.73
3 -1 2 1446.82 61.15
3 -1 2 1413.78 60.53
3 -1 2 1463.94 58.08
3 -1 2 1418.66 58.84
3 -1 2 1397.44 60.02
3 -1 2 1364.66 54.45
3 -1 2 1424.6 55.79
3 -1 2 1422.61 52.41
3 -1 2 1356.05 59.24
3 -1 2 1434.92 54.24
3 -1 2 1428.5 66.9
3 -1 2 1329.75 61.1
3 -1 2 1337.29 60.14
3 -1 3 879.64 49.8
3 -1 3 916.76 53.58
3 -1 3 852.98 39.88
3 -1 3 873.66 41.89
3 -1 3 823.52 41.69
3 -1 3 756.35 36.93
3 -1 3 845.63 43.25
3 -1 3 868.3 41.05
3 -1 3 829.71 42.48
3 -1 3 815.51 42.59
3 -1 3 845.81 41.62
3 -1 3 809.07 42.37
3 -1 3 799.84 38.06
3 -1 3 831.85 37.46
3 -1 3 863.24 39.07
3 -1 3 842.25 32.5
3 -1 3 880.38 42.25
3 -1 3 772.41 44.3
3 -1 3 844.16 42.37
3 -1 3 849.97 42.53
3 -1 4 1100.54 62.35
3 -1 4 1127.95 57.98
3 -1 4 1076.66 48.29
3 -1 4 1145.02 42.67
3 -1 4 1113.87 51.11
3 -1 4 1084.53 51.25
3 -1 4 1118.35 52.54
3 -1 4 1066.27 50.73
3 -1 4 1028.92 51.7
3 -1 4 1065.2 51.77
3 -1 4 1050.13 45.7
3 -1 4 1020.83 43.67
3 -1 4 1035.98 46.54
3 -1 4 1074.99 49.77
3 -1 4 1064.9 51.14
3 -1 4 1045.17 45.36
3 -1 4 976.29 46.39
3 -1 4 861.95 46.53
3 -1 4 1063.82 47.73
3 -1 5 992.82 51.04
3 -1 5 1022.97 52.13
3 -1 5 1046.07 51.94
3 -1 5 947.92 51
3 -1 5 1036.53 49.26
3 -1 5 990.84 43.11
3 -1 5 1065.15 47.92
3 -1 5 999.74 45.36
3 -1 5 986.32 48.91
3 -1 5 1094.6 48.57
3 -1 5 1023.02 51.88
3 -1 5 1013.16 50.31
3 -1 5 1068.28 56.61
3 -1 6 539.13 30.38
3 -1 6 625.32 35.55
3 -1 6 532.5 27.78
3 -1 6 517.49 29.45
3 -1 6 530.5 31.48
3 -1 6 596.62 34.29
3 -1 6 591.92 34.45
3 -1 6 564.93 33.6
3 -1 7 929.16 53.24
3 -1 7 924.64 49.21
3 -1 7 987.37 51.77
3 -1 7 1036.15 54.35
3 -1 7 899.76 52.17
3 -1 7 905.73 51.96
3 -1 8 116.31 17.78
3 -1 8 114.61 15.84
3 -1 8 143.13 17.62
3 -1 8 116.27 17.55
3 -1 8 150.1 19.18
3 -1 8 139.4 18.81
3 -1 8 153.15 18.42
3 -1 9 503.94 35.91
3 -1 9 432.4 34.2
3 -1 9 443.18 37.37
3 -1 9 498.58 35.74
3 -1 9 511.49 38.38
3 -1 9 502.23 38.94
3 -1 10 142.94 19.34
3 -1 10 130.36 18.85
3 -1 10 203.43 25.19
3 -1 10 204.34 23.77
3 -1 10 165.26 22.43
3 -1 11 724.39 48.14
3 -1 11 718.62 48.66
3 -1 11 806.1 54.55
3 -1 11 753.51 50.34
3 -1 11 725.24 52.05
3 -1 12 17.24 7.08
3 -1 12 24.09 8.62
3 -1 12 32.22 10.74
3 -1 12 25.91 9.63
3 -1 13 342.61 33.9
3 -1 13 381.31 35.99
3 -1 13 410.22 40.17
3 -1 13 441.31 40.81
3 -1 14 24.49 9.66
3 0 -11 283.51 33.64
3 0 -11 233.83 31.61
3 0 -11 195.87 29.92
3 0 -10 231.53 30.98
3 0 -10 316.54 33.56
3 0 -10 280.24 32.84
3 0 -9 456.5 37.36
3 0 -9 510.93 40.8
3 0 -9 373.38 37.04
3 0 -9 419.35 38.67
3 0 -8 179.16 22.81
3 0 -8 188.68 24.24
3 0 -8 164.03 23.64
3 0 -8 144.14 22.71
3 0 -7 1002.63 55.1
3 0 -7 1123.01 54.97
3 0 -7 1214.68 57.89
3 0 -7 1058.58 54.64
3 0 -7 1122.93 58.79
3 0 -6 165.83 21.37
3 0 -6 144.3 19.91
3 0 -6 138.24 20.21
3 0 -6 170.03 21.5
3 0 -6 156.98 20.04
3 0 -6 173.57 21
3 0 -5 1033.35 57.8
3 0 -5 1073.8 56.83
3 0 -5 887.78 56.21
3 0 -5 1134.22 55.99
3 0 -5 1147.54 59.31
3 0 -5 899.13 56.37
3 0 -5 895.12 54.47
3 0 -4 315.27 23.45
3 0 -4 401.42 31.59
3 0 -4 390.35 29.42
3 0 -4 305.89 28.52
3 0 -4 307.71 26.86
3 0 -4 367.39 29.75
3 0 -4 342.76 30.66
3 0 -3 1866.83 83.85
3 0 -3 1818.95 78.7
3 0 -3 1944.72 87.44
3 0 -3 2002.11 75.85
3 0 -3 2205.17 79.86
3 0 -3 2073.49 100.67
3 0 -3 2100.35 85.38
3 0 -3 1866.33 78.04
3 0 -3 1980.61 85.58
3 0 -3 1883.97 73.67
3 0 -3 1849.68 80.2
3 0 -2 8.02 3.61
3 0 -2 3.13 2.71
3 0 -2 5.82 5.04
3 0 -2 1.82 2.04
3 0 -2 7.1 3.24
3 0 -2 4.21 3.09
3 0 -2 7.54 4.32
3 0 -2 7.65 2.99
3 0 -2 6.29 3.6
3 0 -2 6.5 2.97
3 0 -2 5.91 2.39
3 0 -2 5.15 2.32
3 0 -2 5.88 2.65
3 0 -2 2.23 2.9
3 0 -2 6.14 3.15
3 0 -2 -0.55 1.01
3 0 -2 3.76 2.39
3 0 -2 10.93 3.53
3 0 -2 9.72 4.37
3 0 -1 2326.9 97.08
3 0 -1 2501.44 80.26
3 0 -1 2331.58 86.81
3 0 -1 2380.19 82.39
3 0 -1 2341.61 82.98
3 0 -1 2368.65 78.88
3 0 -1 2456.04 75.77
3 0 -1 2298.98 81.05
3 0 -1 2449.35 89.5
3 0 -1 2315.07 88.69
3 0 -1 2302.1 86.4
3 0 -1 2211.24 88.74
3 0 -1 2320.11 83.96
3 0 -1 2702.86 118.18
3 0 -1 2620.36 97.03
3 0 -1 2317.88 92.16
3 0 -1 2333.64 86.41
3 0 -1 2517.59 92.16
3 0 -1 2231.35 89.04
3 0 -1 2322.7 89.49
3 0 -1 2538.34 84.32
3 0 -1 2321.45 91.47
3 0 -1 2358.83 74.71
3 0 -1 2279.83 91.7
3 0 0 1393.72 64.82
3 0 0 1502.95 48.54
3 0 0 1265.49 60.32
3 0 0 1379.16 56.41
3 0 0 1448.05 75.33
3 0 0 1312.83 58.66
3 0 0 1228.37 56.71
3 0 0 1393.57 56.99
3 0 0 1269.62 52.1
3 0 0 1304.96 53.67
3 0 0 1285.22 50.86
3 0 0 1350.4 48.01
3 0 0 1341.79 56.28
3 0 0 1282.48 57.86
3 0 0 1289.25 58.81
3 0 0 1426.68 58.47
3 0 0 1311.61 48.96
3 0 0 1351.61 46.77
3 0 0 1304.99 57.39
3 0 0 1418.62 45.34
3 0 0 1278.03 59.03
3 0 0 1327.88 56.96
3 0 1 1456.63 67.58
3 0 1 1608.01 52.5
3 0 1 1539.89 73.47
3 0 1 1555.02 62.9
3 0 1 1532.71 67.54
3 0 1 1594.25 79.09
3 0 1 1475.41 54.86
3 0 1 1519.44 64.8
3 0 1 1508.15 63.12
3 0 1 1507.21 60.83
3 0 1 1473.37 61.88
3 0 1 1544.47 58.09
3 0 1 1541.28 61.13
3 0 1 1485.52 58.88
3 0 1 1470.54 55.67
3 0 1 1560.71 59.54
3 0 1 1653.58 61.97
3 0 1 1585.79 66.39
3 0 1 1527.76 64.89
3 0 1 1552.85 62.01
3 0 1 1656.63 65.61
3 0 1 1563.96 62.3
3 0 1 1510.67 64.38
3 0 1 1469.23 61.45
3 0 1 1489.47 60.18
3 0 2 54.79 12.58
3 0 2 51.53 11.28
3 0 2 50.03 9.46
3 0 2 38.68 7.45
3 0 2 55.47 7.23
3 0 2 57 9.55
3 0 2 46.47 8.89
3 0 2 68.49 9.79
3 0 2 62.43 9.44
3 0 2 53.99 8.18
3 0 2 43.5 7.22
3 0 2 43.27 7.89
3 0 2 50.17 8.19
3 0 2 47.02 4.94
3 0 2 47.46 7.02
3 0 2 34.52 6.62
3 0 2 53.08 8.06
3 0 2 58.82 7.49
3 0 2 50.69 8.97
3 0 2 51.6 8.17
3 0 2 63.9 10.17
3 0 2 64.4 9.8
3 0 2 56.76 9.14
3 0 2 56.29 6.61
3 0 2 57.97 7.3
3 0 2 45.57 9.07
3 0 2 47.81 5.34
3 0 2 41.89 7.73
3 0 2 47.53 7.82
3 0 3 1788.57 34.41
3 0 3 1819.68 52.53
3 0 3 1731.96 39.78
3 0 3 2175.24 84.52
3 0 3 1883.49 65.16
3 0 3 2006.15 55.93
3 0 3 1783.26 55.93
3 0 3 1992.15 73.7
3 0 3 1831.25 44.34
3 0 3 1848.95 53.71
3 0 3 1803.21 46.58
3 0 3 1765.9 47.79
3 0 3 1773.85 50.08
3 0 3 1794.73 50.21
3 0 3 1799.22 48.44
3 0 3 1731.17 45.35
3 0 3 1771.18 50
3 0 3 1740.31 49.32
3 0 3 1806.19 48.72
3 0 3 1853.82 31.69
3 0 3 1945.4 37.73
3 0 3 1801.08 29.81
3 0 3 1860.61 30.45
3 0 3 1845.91 39.75
3 0 3 1773.22 53
3 0 3 1819.85 46.55
3 0 3 2055.71 57.22
3 0 3 1854.2 51.28
3 0 3 1803.7 53.95
3 0 3 1812.25 47.53
3 0 3 1809.21 46.11
3 0 4 588.75 29.8
3 0 4 572.67 32.27
3 0 4 741.19 51.4
3 0 4 599.48 41.04
3 0 4 575.33 35.97
3 0 4 587.12 44.46
3 0 4 578.7 31.45
3 0 4 587.02 34.45
3 0 4 617.99 32.58
3 0 4 591.99 31.98
3 0 4 633.62 34.83
3 0 4 593.55 34.2
3 0 4 580.92 29.22
3 0 4 594.87 34.24
3 0 4 571.32 34.01
3 0 4 557.29 34.09
3 0 4 571.4 33.62
3 0 4 573.19 32.92
3 0 4 583.39 26.52
3 0 4 566.13 23.57
3 0 4 606.51 29.99
3 0 4 658.99 36.53
3 0 4 577.33 31.2
3 0 4 581.77 35.44
3 0 4 646.07 34.2
3 0 4 604.09 30.76
3 0 4 572.24 31
3 0 5 1442.73 71.15
3 0 5 1374.79 63.01
3 0 5 1414.06 59.17
3 0 5 1391.73 55.06
3 0 5 1380.91 51.96
3 0 5 1387.58 62.51
3 0 5 1359.87 61.47
3 0 5 1336.72 61.86
3 0 5 1295.77 60.42
3 0 5 1279.54 60
3 0 5 1355.61 53.22
3 0 5 1243.44 56.38
3 0 5 1311.39 55.73
3 0 5 1477.29 63.23
3 0 5 1394.81 56.46
3 0 5 1337.09 55.66
3 0 5 1368.62 55.84
3 0 5 1421.2 55.54
3 0 5 1279.31 55.52
3 0 5 1318.64 57.55
3 0 5 1465.09 59.88
3 0 5 1287.49 59.22
3 0 5 1437.02 57.36
3 0 6 963.33 43.3
3 0 6 872.91 48.55
3 0 6 908.41 48.82
3 0 6 822.33 46.28
3 0 6 868.96 47.59
3 0 6 883.76 48.07
3 0 6 861.83 41.4
3 0 6 865.79 42.51
3 0 6 897.79 42.31
3 0 6 936.43 47.92
3 0 6 884.4 43.45
3 0 6 863.69 41.53
3 0 6 973.04 44.53
3 0 6 929.96 45.45
3 0 6 945.96 44.15
3 0 6 912.99 44.2
3 0 6 876.71 42.68
3 0 6 931.12 55.85
3 0 6 1142.06 63.02
3 0 6 962.25 48.81
3 0 7 502.09 35.16
3 0 7 471.59 29.12
3 0 7 413.14 28.42
3 0 7 421.47 29.21
3 0 7 488.51 34.04
3 0 7 472.8 32.69
3 0 7 452.23 33.3
3 0 7 402.92 31.79
3 0 8 926.24 54.41
3 0 8 966.31 49.55
3 0 8 925.59 49.64
3 0 8 1024.09 53.32
3 0 8 983.44 54.22
3 0 8 954.18 55.15
3 0 9 171.15 21.97
3 0 9 170.13 19.01
3 0 9 179.15 20.16
3 0 9 191.83 21.23
3 0 9 205.17 22.83
3 0 9 199.91 23.35
3 0 10 565.56 42.76
3 0 10 464.86 35.09
3 0 10 548.01 38.3
3 0 10 509.99 37.1
3 0 10 463.79 36.71
3 0 10 483.45 39.53
3 0 11 221.3 26.94
3 0 11 223.73 24.54
3 0 11 201.42 23.67
3 0 11 248.55 26.54
3 0 11 233.95 27.84
3 0 12 425.44 36.42
3 0 12 462.65 36.93
3 0 12 389.61 37.83
3 0 13 6.62 5.26
3 0 13 1.96 3.59
3 0 14 398.44 37.49
3 0 14 401.25 40.06
3 0 14 386.95 39.95
3 1 -11 176.78 25.73
3 1 -11 169.09 25.59
3 1 -11 144.88 23.96
3 1 -11 117.2 23.07
3 1 -10 420.16 39.91
3 1 -10 484.86 42.97
3 1 -10 489.03 41.89
3 1 -10 346.33 37.83
3 1 -10 417.62 41.97
3 1 -9 126.8 21.59
3 1 -9 150.6 22.33
3 1 -9 137.03 21
3 1 -9 186.89 24.53
3 1 -9 125.08 21.26
3 1 -8 845.32 49.86
3 1 -8 823.69 49.22
3 1 -8 812.65 51.25
3 1 -8 685.75 46.73
3 1 -7 265.41 27
3 1 -7 231.21 25.92
3 1 -7 300.16 28.97
3 1 -7 275.83 27.4
3 1 -7 230.29 26.58
3 1 -6 635.56 41.7
3 1 -6 607.42 39.8
3 1 -6 698.42 42.9
3 1 -6 710.99 41.99
3 1 -6 624.84 44.24
3 1 -6 609.27 41.56
3 1 -5 75.42 14.13
3 1 -5 67.18 12.37
3 1 -5 74.71 13.61
3 1 -5 65.18 12.11
3 1 -5 70.8 14.21
3 1 -5 74.28 13.02
3 1 -5 59.48 12.54
3 1 -4 2091.31 71.14
3 1 -4 2407.91 67.05
3 1 -4 2113.77 69.03
3 1 -4 1907.37 60.25
3 1 -4 2195.3 71.1
3 1 -4 2054.25 71.23
3 1 -4 2415.85 72.13
3 1 -3 -0.76 0.02
3 1 -3 1.99 1.29
3 1 -3 -1.16 0.02
3 1 -3 -1.28 0.02
3 1 -3 5.04 4.36
3 1 -3 -0.85 2.19
3 1 -3 2.59 2.51
3 1 -3 3.66 2.52
3 1 -3 -1.16 0.02
3 1 -3 1.26 1.64
3 1 -3 5.36 2.45
3 1 -3 2.72 2.35
3 1 -3 10.4 4.74
3 1 -3 4.41 2.8
3 1 -3 0.74 1.67
3 1 -3 2.56 2.21
3 1 -2 2265.46 94.47
3 1 -2 2494.4 82.74
3 1 -2 2646.14 85.07
3 1 -2 2373.3 99.26
3 1 -2 2535.23 111.69
3 1 -2 2356.67 92.04
3 1 -2 2316.73 89.44
3 1 -2 2249.68 90.97
3 1 -2 2418.11 89.86
3 1 -2 2435.59 90.1
3 1 -2 2466.95 85.78
3 1 -2 2752.59 102.12
3 1 -2 2514.17 99.12
3 1 -2 2375.95 80.17
3 1 -2 2450.79 96.95
3 1 -2 2512.15 90.36
3 1 -2 2672.35 95.7
3 1 -2 2320.71 87.87
3 1 -2 2368.84 89.51
3 1 -2 2719.68 87.76
3 1 -2 2609.81 89.91
3 1 -2 1822.77 85.15
3 1 -2 2256.23 92.33
3 1 -1 30.45 5.03
3 1 -1 25.88 6.24
3 1 -1 23.53 6.37
3 1 -1 24.02 4.33
3 1 -1 19.06 6.39
3 1 -1 27.63 6.27
3 1 -1 24.22 9.02
3 1 -1 23.53 6.34
3 1 -1 32.91 7.33
3 1 -1 24.44 6
3 1 -1 31.98 5.96
3 1 -1 32.32 7.93
3 1 -1 26.74 4.99
3 1 -1 26.63 4
3 1 -1 23.11 5.26
3 1 -1 38.07 7.53
3 1 -1 29.84 7.33
3 1 -1 30.7 5.37
3 1 -1 16.81 5.32
3 1 -1 27.59 6.07
3 1 -1 23.54 5.9
3 1 -1 31.18 6.13
3 1 -1 25.93 6.13
3 1 -1 27.72 5.86
3 1 -1 24.49 5.77
3 1 0 1350.3 50.02
3 1 0 1314.79 56.39
3 1 0 1399.79 45.56
3 1 0 1333.41 61.6
3 1 0 1220.59 63.86
3 1 0 1386.94 74.74
3 1 0 1263.81 57.84
3 1 0 1275.47 61.6
3 1 0 1253.36 55.18
3 1 0 1370.3 75.23
3 1 0 1232.71 50.96
3 1 0 1264.86 43.45
3 1 0 1376.99 56.95
3 1 0 1342.61 56.84
3 1 0 1373.58 57.4
3 1 0 1236.49 54.27
3 1 0 1302.83 57.6
3 1 0 1245.18 52.37
3 1 0 1249.84 43.5
3 1 0 1231.21 49.98
3 1 0 1244.81 46.54
3 1 0 1389.73 59.22
3 1 0 1292.25 50.68
3 1 0 1363.11 55.51
3 1 0 1256.85 45.28
3 1 0 1221.52 55.41
3 1 0 1344.26 54.94
3 1 0 1245 57.06
3 1 0 1234.93 54.29
3 1 0 1418.65 55.99
3 1 0 1025.54 49.39
3 1 0 1222.1 56.16
3 1 1 23.21 3.03
3 1 1 30.67 6.82
3 1 1 24.65 3.45
3 1 1 22.42 5.26
3 1 1 23.03 4.92
3 1 1 26.92 6.87
3 1 1 15.18 7.29
3 1 1 20.42 7.06
3 1 1 29.25 9.76
3 1 1 17.92 5.61
3 1 1 20.63 5.47
3 1 1 21.32 3.83
3 1 1 26.32 6.48
3 1 1 25.71 6.01
3 1 1 25.39 6.27
3 1 1 21.96 5.48
3 1 1 30.76 6.68
3 1 1 16.54 4.59
3 1 1 25.34 5.29
3 1 1 20.16 3.81
3 1 1 47.87 6.32
3 1 1 21.78 4.25
3 1 1 13.06 3.83
3 1 1 27.37 3.81
3 1 1 22.31 4.05
3 1 1 24.2 5.86
3 1 1 20.87 5.32
3 1 1 18.81 5.45
3 1 1 20.03 5.13
3 1 1 21.97 5.58
3 1 1 27.16 5.14
3 1 1 17.47 4.01
3 1 1 15.55 3.87
3 1 2 3001.4 56.07
3 1 2 2911.32 67.67
3 1 2 3060.14 32.1
3 1 2 2963.51 83.26
3 1 2 3364.06 100.09
3 1 2 2849.61 63.95
3 1 2 2984.91 69.69
3 1 2 3061.18 94.45
3 1 2 2880.53 43.52
3 1 2 2985.15 49.64
3 1 2 2965.5 63.88
3 1 2 2903.43 61.54
3 1 2 2942.19 64.6
3 1 2 3004.07 66.22
3 1 2 2899.86 60.99
3 1 2 3034.71 60.09
3 1 2 2821.4 58.2
3 1 2 2772.59 58.14
3 1 2 2904.23 50.52
3 1 2 3050.16 52.84
3 1 2 3206.07 47.16
3 1 2 3172.62 52.5
3 1 2 3119.37 25.35
3 1 2 3037.06 42.63
3 1 2 3037.24 36.59
3 1 2 2952.36 34.62
3 1 2 2825.13 65.15
3 1 2 2914.75 63.31
3 1 2 3037.97 62.03
3 1 2 2899.09 60.23
3 1 2 2954.77 69.01
3 1 2 2500.02 42.27
3 1 2 2927.71 50.85
3 1 2 2846.83 60.19
3 1 3 400.68 21.57
3 1 3 401.48 16.66
3 1 3 392.64 25.43
3 1 3 392 16.6
3 1 3 367.39 31.32
3 1 3 487.61 38.91
3 1 3 406.66 26.86
3 1 3 383.05 26.82
3 1 3 362.58 34.25
3 1 3 391.43 18.48
3 1 3 392.9 22.16
3 1 3 371.29 16.95
3 1 3 388.4 24.88
3 1 3 410.4 24.69
3 1 3 389.79 24.95
3 1 3 382.17 25.24
3 1 3 386.04 26.01
3 1 3 375.08 24.56
3 1 3 383.06 23.68
3 1 3 354.85 24.24
3 1 3 361.63 22.48
3 1 3 346.73 21.83
3 1 3 400.78 21.52
3 1 3 393.39 19.41
3 1 3 370.94 13.02
3 1 3 365.05 18.49
3 1 3 393.98 26.13
3 1 3 344.29 25.71
3 1 3 408.96 24.73
3 1 3 366.55 24.96
3 1 3 344.11 23.15
3 1 3 407.83 26.59
3 1 3 397.02 21.06
3 1 3 389.04 23.46
3 1 4 1348.84 49.91
3 1 4 1381 48.46
3 1 4 1258.87 55.61
3 1 4 1416.16 71.35
3 1 4 1429.58 62.13
3 1 4 1565.8 76.84
3 1 4 1365.73 61.07
3 1 4 1391.69 76.5
3 1 4 1298.06 49.73
3 1 4 1387.62 56.1
3 1 4 1381.36 56.7
3 1 4 1389.97 57.43
3 1 4 1352.2 58.37
3 1 4 1294.51 58.56
3 1 4 1386.7 59.2
3 1 4 1362.47 59.81
3 1 4 1354.79 56.51
3 1 4 1352.87 55.17
3 1 4 1328.79 59.39
3 1 4 1239.47 56.2
3 1 4 1377.7 54.22
3 1 4 1338.28 51.78
3 1 4 1364.45 47.63
3 1 4 1356.43 49.06
3 1 4 1325.23 51.55
3 1 4 1355.11 60.93
3 1 4 1359.06 59.73
3 1 4 1314.91 56.24
3 1 4 1410.32 59.71
3 1 4 1291.26 56.39
3 1 4 1393.07 61.45
3 1 4 1326.33 52.06
3 1 4 1309.57 53.52
3 1 5 1236.37 64.87
3 1 5 1221.14 57.82
3 1 5 1396.34 50.96
3 1 5 1588.47 66.1
3 1 5 1403.07 48.68
3 1 5 1275.42 42.55
3 1 5 1303.89 42.61
3 1 5 1245.29 46.9
3 1 5 1320.55 38.83
3 1 5 1233.93 46.25
3 1 5 1260.67 44.94
3 1 5 1321.32 40.91
3 1 5 1319.58 33.73
3 1 5 1320.44 45.49
3 1 5 1262.78 40.49
3 1 5 1339.85 45.08
3 1 5 1286.84 42.47
3 1 5 1332.1 48.93
3 1 5 1337.32 38.97
3 1 5 1449.21 37.39
3 1 5 1291.81 37.79
3 1 5 1309.51 34.73
3 1 5 1268.56 40.71
3 1 5 1327.12 41.31
3 1 5 1360.7 46.04
3 1 5 1297.69 45.62
3 1 5 1276.52 43.89
3 1 5 1329.44 37.12
3 1 5 1444.48 44.88
3 1 6 1082.85 49.9
3 1 6 1066.24 45.82
3 1 6 1035.02 53.19
3 1 6 953.83 51.55
3 1 6 951.32 51.1
3 1 6 1016.42 48.62
3 1 6 1082.97 50.55
3 1 6 968.66 45.78
3 1 6 965.88 50.89
3 1 6 1060.43 49.74
3 1 6 978.65 47.63
3 1 6 1038.51 47.29
3 1 6 1045.71 46.74
3 1 6 1008.33 44.75
3 1 6 1033.65 47
3 1 6 1013.83 45.76
3 1 6 1064.99 49.43
3 1 6 1021.33 44.91
3 1 6 1037.47 48.68
3 1 6 1268.03 64.95
3 1 6 1126.34 52.34
3 1 7 256.34 19.41
3 1 7 276.36 21.76
3 1 7 269.98 24.31
3 1 7 233.29 23.38
3 1 7 252.23 22.01
3 1 7 272.9 25.36
3 1 7 257.65 21.18
3 1 7 281.28 21.1
3 1 7 245.8 22.02
3 1 7 256.35 19.51
3 1 8 814.27 45.33
3 1 8 790.83 48.1
3 1 8 807.63 42.34
3 1 8 787.35 43.52
3 1 8 724.56 45.81
3 1 8 752.02 47.49
3 1 8 777.96 45.17
3 1 9 500.99 38.03
3 1 9 489.19 32.94
3 1 9 499.68 34.5
3 1 9 434.56 34.64
3 1 9 457.33 36.77
3 1 9 519.83 36.9
3 1 10 150.69 20.74
3 1 10 121.51 16.37
3 1 10 109.05 16.27
3 1 10 124.57 17.7
3 1 10 111.43 17.01
3 1 10 150.44 20.96
3 1 10 116.8 17.99
3 1 11 821.38 51.6
3 1 11 824.89 55.56
3 1 11 894.04 53.09
3 1 11 900.59 56.67
3 1 12 128.46 21.31
3 1 12 128.66 20.56
3 1 12 166.84 22.07
3 1 12 158.18 22.61
3 1 13 265.91 31.49
3 1 13 180.82 25.51
3 1 13 265.1 29
3 1 13 257.95 30.15
3 1 14 43.93 12.33
3 1 14 33.76 11.47
3 1 14 38.68 12.44
3 2 -11 136.81 24.11
3 2 -11 121.57 22
3 2 -10 193.8 27.42
3 2 -10 285.12 32.25
3 2 -10 249.54 32.12
3 2 -10 198.01 27.13
3 2 -9 422.27 38.35
3 2 -9 417.5 35.25
3 2 -9 431.32 38.45
3 2 -9 416.26 37.67
3 2 -9 480.29 42.85
3 2 -8 311.5 31.62
3 2 -8 314.52 31.56
3 2 -7 815.83 47.35
3 2 -7 882.64 48.53
3 2 -7 967.26 53.22
3 2 -6 203.84 22.19
3 2 -6 193.7 23.01
3 2 -6 211.07 24.52
3 2 -6 143.39 19.79
3 2 -6 157.15 21.08
3 2 -5 1044.55 51.86
3 2 -5 1062.74 47.66
3 2 -5 995.62 56.04
3 2 -5 971.37 50.08
3 2 -5 1030.61 51.62
3 2 -4 154.45 19.16
3 2 -4 152.68 16.67
3 2 -4 156.44 19.94
3 2 -4 129.74 19.39
3 2 -4 143.41 18.96
3 2 -4 151.77 19.1
3 2 -4 131.77 13.51
3 2 -3 1751.21 68.14
3 2 -3 2113.99 70.8
3 2 -3 1775.77 62.31
3 2 -3 1733.76 48.08
3 2 -3 1904.02 64.6
3 2 -3 1820.88 54
3 2 -3 1951.33 54.44
3 2 -3 1935.7 51.64
3 2 -3 1696.16 50.26
3 2 -3 1704.57 49.58
3 2 -3 1727.12 51.69
3 2 -3 1777.03 54.24
3 2 -3 1715.94 71.9
3 2 -2 33.96 7.53
3 2 -2 8.51 5.43
3 2 -2 13.64 4.15
3 2 -2 15.71 5.27
3 2 -2 15.72 4.91
3 2 -2 14.19 4.36
3 2 -2 16.64 6.23
3 2 -2 16.03 3.75
3 2 -2 21.99 7.28
3 2 -2 16.18 4.95
3 2 -2 10.52 4.09
3 2 -2 18.84 4.98
3 2 -2 12.69 4.97
3 2 -2 16.63 4.78
3 2 -2 11.13 3.31
3 2 -2 19.81 4.77
3 2 -2 17.71 5.38
3 2 -2 21.67 5.22
3 2 -2 17.94 5.33
3 2 -2 17.17 5.11
3 2 -2 12.31 3.99
3 2 -2 8.8 4.31
3 2 -1 1907.31 87.2
3 2 -1 1811.24 77.93
3 2 -1 2031.08 96.2
3 2 -1 1818.02 69.75
3 2 -1 1905.02 74.96
3 2 -1 1724.69 77.97
3 2 -1 2005.27 76.2
3 2 -1 1969.37 75.64
3 2 -1 1898.9 75.92
3 2 -1 1934.81 76.96
3 2 -1 2020.43 85.46
3 2 -1 1893.71 69.41
3 2 -1 2241.17 87.46
3 2 -1 1713.89 73.34
3 2 -1 1989.68 79.49
3 2 -1 2000.2 79.93
3 2 -1 1985.81 71.11
3 2 -1 2100.99 77.72
3 2 -1 2170.5 77.18
3 2 -1 2079.98 72.17
3 2 -1 1996.34 65.45
3 2 -1 2048.35 74.89
3 2 -1 2042.27 75.09
3 2 -1 1864.89 72.44
3 2 -1 1772.28 76.02
3 2 -1 1911.88 74.72
3 2 -1 1893.59 73.46
3 2 -1 1992.71 81.47
3 2 0 9.3 3.81
3 2 0 11.8 3.93
3 2 0 10.02 4.1
3 2 0 14.72 2.36
3 2 0 13.14 4.4
3 2 0 13.28 6.97
3 2 0 17.96 6.66
3 2 0 10.16 4.33
3 2 0 10.28 5.89
3 2 0 8.23 2.65
3 2 0 12.74 3.89
3 2 0 9.45 4.07
3 2 0 15.29 4.64
3 2 0 6.8 3.11
3 2 0 13.77 4.45
3 2 0 10.74 4.2
3 2 0 12.54 4.9
3 2 0 15.13 5.44
3 2 0 12.39 3.66
3 2 0 15.16 2.71
3 2 0 13.7 3.27
3 2 0 14.34 4.37
3 2 0 9.09 3.87
3 2 0 -0.63 0.21
3 2 0 15.31 3.61
3 2 0 11.63 2.23
3 2 0 13.17 3.8
3 2 0 14.76 4.79
3 2 0 16.11 4.36
3 2 0 17.25 5.26
3 2 0 10.91 4.01
3 2 0 19.42 5.23
3 2 0 24.56 5.2
3 2 0 12.43 3.99
3 2 0 14.04 4.17
3 2 1 2749.96 98.16
3 2 1 2717.89 87.11
3 2 1 2846.82 100.9
3 2 1 2692.36 110.75
3 2 1 2990.23 106.12
3 2 1 2626.73 101.65
3 2 1 2963.9 122.01
3 2 1 2610.45 98.82
3 2 1 2716.78 121.15
3 2 1 2593.4 87.04
3 2 1 2570.23 93.35
3 2 1 2756.9 89.49
3 2 1 2587.78 101.74
3 2 1 2631.1 99.93
3 2 1 2586.9 97.65
3 2 1 2799.49 97.57
3 2 1 2696.08 100.33
3 2 1 2608.89 98.11
3 2 1 2922.46 106.62
3 2 1 2671.51 88.15
3 2 1 2727.98 97.63
3 2 1 2774.32 85.59
3 2 1 2851.69 96.34
3 2 1 2839.47 87.46
3 2 1 2727.03 91.79
3 2 1 2871.2 94.33
3 2 1 2764.56 91.45
3 2 1 2644.16 95.97
3 2 1 2779.35 98.43
3 2 1 2659.24 100.21
3 2 1 2533.35 96.96
3 2 1 2491.58 93.08
3 2 1 2731.48 87.25
3 2 1 2565.47 98.67
3 2 2 411.57 33.72
3 2 2 423.44 29.29
3 2 2 457.17 30.1
3 2 2 402.06 27.15
3 2 2 467.56 39.1
3 2 2 443.09 39.36
3 2 2 396.41 17.88
3 2 2 423.03 23.14
3 2 2 424.76 23.4
3 2 2 408.27 28.53
3 2 2 440.08 27.39
3 2 2 418.03 26.43
3 2 2 355.47 26.23
3 2 2 423.04 25.87
3 2 2 417.58 27.29
3 2 2 477.34 31.24
3 2 2 372.53 21.87
3 2 2 411.64 18.88
3 2 2 401.43 26.2
3 2 2 446.3 27.13
3 2 2 434.81 24.68
3 2 2 399.11 15.62
3 2 2 440.07 24.19
3 2 2 409.05 20.36
3 2 2 449.54 21.44
3 2 2 413.05 18.91
3 2 2 447.97 24.06
3 2 2 429.18 25.85
3 2 2 409.17 27.67
3 2 2 373.21 25.78
3 2 2 436.41 27.22
3 2 2 429.18 27.54
3 2 2 396.61 21.71
3 2 3 2180.12 77.87
3 2 3 2225.71 69.35
3 2 3 2265.19 97.57
3 2 3 2193.47 86.25
3 2 3 2199.6 83.99
3 2 3 2366.74 103.08
3 2 3 2173.01 103.47
3 2 3 2123.49 78.05
3 2 3 2058.67 74.66
3 2 3 2060.35 83.1
3 2 3 2083.57 80.74
3 2 3 2139.61 83.03
3 2 3 2054.71 79.68
3 2 3 2130.46 82.47
3 2 3 2274.43 86.22
3 2 3 2263.77 82.38
3 2 3 2103.53 82.52
3 2 3 2205.39 81.24
3 2 3 2076.21 79.56
3 2 3 2247.87 76.01
3 2 3 2192.63 75.9
3 2 3 2148.08 69.12
3 2 3 2191.16 71.74
3 2 3 2077.37 71.38
3 2 3 2193.43 77.05
3 2 3 2053.68 79.51
3 2 3 2038.22 82.96
3 2 3 2018.34 81.57
3 2 3 2006.77 81.02
3 2 3 2135.73 84.9
3 2 3 2007.67 72.68
3 2 3 2146.23 80.4
3 2 4 80.22 7.91
3 2 4 79.76 15.21
3 2 4 73.93 15.75
3 2 4 69.57 10.7
3 2 4 85.13 12.12
3 2 4 74.94 14.97
3 2 4 82.66 9.62
3 2 4 68.87 9.63
3 2 4 74.89 9.78
3 2 4 66.74 9.4
3 2 4 79.06 11.25
3 2 4 95.97 11.98
3 2 4 66.44 10.3
3 2 4 74.76 10.71
3 2 4 66.22 10.56
3 2 4 62.01 9.36
3 2 4 90.84 11.72
3 2 4 76.42 9.59
3 2 4 89.53 9.78
3 2 4 87.7 11.16
3 2 4 74 7.32
3 2 4 76.53 9.68
3 2 4 76.91 8.15
3 2 4 67.55 7.9
3 2 4 72.1 10.94
3 2 4 74.26 9.98
3 2 4 89.7 11.99
3 2 4 61.58 9.54
3 2 4 74.45 10.66
3 2 4 73.67 9.96
3 2 5 861.54 45.73
3 2 5 845.89 45
3 2 5 938.38 56.58
3 2 5 835.26 40.32
3 2 5 824.31 42.18
3 2 5 866.81 44.47
3 2 5 964.2 43.86
3 2 5 749.49 44.25
3 2 5 877.36 43.13
3 2 5 900.5 40.52
3 2 5 860.57 43.95
3 2 5 881.15 40.14
3 2 5 834.8 41
3 2 5 798.52 42.91
3 2 5 927.59 43.72
3 2 5 808.55 43.8
3 2 5 809.22 43.16
3 2 5 839.85 44.92
3 2 5 827.8 38.92
3 2 5 872.97 39.23
3 2 5 807.53 43.54
3 2 5 802.84 39.74
3 2 5 851.14 43.75
3 2 5 867.51 43.84
3 2 6 200.66 19.84
3 2 6 166.07 18.74
3 2 6 183.52 17.71
3 2 6 210.67 17.46
3 2 6 189.23 19.12
3 2 6 190.84 15.89
3 2 6 197.7 18.23
3 2 6 189.76 17.57
3 2 6 206.65 19.28
3 2 6 196.15 17.03
3 2 6 181.27 16.58
3 2 6 191.25 18.99
3 2 6 214.94 25.02
3 2 6 191.46 16.16
3 2 6 166.34 17.03
3 2 6 180.23 19.14
3 2 7 1380.41 66.41
3 2 7 1439.8 67
3 2 7 1552.23 65.13
3 2 7 1391.84 67.71
3 2 7 1329.86 67.03
3 2 7 1452.29 63.11
3 2 7 1437.41 67.41
3 2 8 1132.03 59.99
3 2 8 1103.35 58.77
3 2 8 1187.65 61.53
3 2 8 1132.08 60.69
3 2 8 1180.72 57.4
3 2 8 1148.99 59.81
3 2 9 466.42 36.3
3 2 9 431.53 34.75
3 2 9 415.72 34.58
3 2 9 449.82 36.04
3 2 9 510.36 35.07
3 2 9 423.66 33.84
3 2 9 443.75 35.95
3 2 10 139.83 20.17
3 2 10 164.87 21.34
3 2 10 135.95 20.13
3 2 10 140.98 19.11
3 2 10 148.83 20.07
3 2 10 135.54 20.17
3 2 11 139.65 20.92
3 2 11 119.35 18.92
3 2 11 120.17 19.66
3 2 11 136.31 19.54
3 2 11 118.68 19.42
3 2 12 314.13 33.66
3 2 12 343.19 33.48
3 2 12 306.31 32.73
3 2 12 321.55 31.76
3 2 12 350.23 35.27
3 2 13 169.39 23.64
3 2 13 134.91 22.44
3 2 13 120.65 20.76
3 2 13 109.03 20.25
3 3 -10 110.05 20.17
3 3 -9 125.02 21.45
3 3 -9 189.6 26.92
3 3 -8 228.19 27.73
3 3 -8 299.12 31.88
3 3 -7 623.35 43.34
3 3 -7 700.95 47.06
3 3 -7 -6.56 17.02
3 3 -7 -1.82 4.72
3 3 -6 1044.8 54.72
3 3 -6 925.83 42.76
3 3 -6 999.7 53.14
3 3 -6 1074.91 56.32
3 3 -6 -5.92 13.31
3 3 -6 -1.66 4.31
3 3 -6 922.44 55.89
3 3 -5 269.3 27.14
3 3 -5 306.2 31.4
3 3 -5 210.75 23.92
3 3 -5 257.95 22.15
3 3 -4 1285.1 56.68
3 3 -4 1319.68 47.82
3 3 -3 55.82 11.61
3 3 -3 61.73 10.27
3 3 -3 90.53 14.35
3 3 -3 75.05 15.04
3 3 -3 84.25 15.87
3 3 -2 1077.71 64.27
3 3 -2 1475.3 71.29
3 3 -2 1214.02 62.12
3 3 -2 1169.03 55.23
3 3 -2 1229.16 60.49
3 3 -2 1387.5 55.75
3 3 -2 1315.1 60.26
3 3 -2 1173.13 55.73
3 3 -2 1071.96 51.4
3 3 -2 1179.75 52.79
3 3 -1 81.16 14.06
3 3 -1 72.99 9.6
3 3 -1 87.49 11.62
3 3 -1 77.64 11.75
3 3 -1 79.73 10.12
3 3 -1 61.06 9.79
3 3 -1 79.36 14.14
3 3 -1 92.96 15.32
3 3 -1 78.04 11.1
3 3 -1 80.74 12.63
3 3 -1 85.02 12.46
3 3 -1 91.35 10.86
3 3 -1 104.82 13.21
3 3 -1 81.59 11.56
3 3 -1 94.34 11.87
3 3 -1 82.78 11.06
3 3 -1 74.04 9.9
3 3 -1 76 11.32
3 3 -1 85.28 13.42
3 3 0 1749.92 79.33
3 3 0 1797.54 92.84
3 3 0 1567.81 67.32
3 3 0 1693.16 68.67
3 3 0 1668.91 65.79
3 3 0 1592.24 67.47
3 3 0 1633.66 70.66
3 3 0 1482.39 66.38
3 3 0 1653.37 72.56
3 3 0 1817.19 71.01
3 3 0 1714.44 68.12
3 3 0 1852.09 70.08
3 3 0 1747.66 67.08
3 3 0 1948.49 81.7
3 3 0 1602.69 75.05
3 3 0 1581.7 70.65
3 3 0 1643.31 67.81
3 3 0 1667.48 66.28
3 3 0 1621.3 70.82
3 3 0 1641.62 69.89
3 3 1 32.01 7.29
3 3 1 38.21 11.9
3 3 1 31.68 9.3
3 3 1 49.49 8.5
3 3 1 66.13 11.15
3 3 1 43.91 7.54
3 3 1 31.3 6.94
3 3 1 44.57 8.51
3 3 1 38.24 8.62
3 3 1 33.63 8.53
3 3 1 36.83 8.07
3 3 1 33.18 6.79
3 3 1 41.54 7.71
3 3 1 38.71 7.17
3 3 1 40.61 8.42
3 3 1 38.95 7.35
3 3 1 36.55 6.64
3 3 1 45.35 7.86
3 3 1 47.98 7.44
3 3 1 -0.87 2.79
3 3 1 31.53 7.33
3 3 1 49.9 8.71
3 3 1 37.81 8.26
3 3 1 40.6 7.99
3 3 1 55.85 8.55
3 3 1 33.08 5.55
3 3 1 30.66 7.47
3 3 1 30.26 7.17
3 3 2 3241.65 131.31
3 3 2 3467.61 122.04
3 3 2 3026.37 116.55
3 3 2 3319.06 141.39
3 3 2 3211.5 111.94
3 3 2 3112.62 113.99
3 3 2 3421.15 117.32
3 3 2 3001.13 115.94
3 3 2 3110.57 120.51
3 3 2 3199.88 114.18
3 3 2 3226.58 117.24
3 3 2 3859.6 127.59
3 3 2 3429.96 121.25
3 3 2 3224.41 117.91
3 3 2 3237.01 113.32
3 3 2 3601.55 120.12
3 3 2 3533.41 112.51
3 3 2 3548.03 115.32
3 3 2 3270.14 110.72
3 3 2 3370.33 112
3 3 2 3378.76 115.56
3 3 2 3473.46 118.4
3 3 2 3050.59 118.78
3 3 2 3235.98 117.56
3 3 2 3369.98 116
3 3 2 3118.91 119.4
3 3 2 3393 112.64
3 3 2 3175.39 120.57
3 3 3 236.41 21.49
3 3 3 246.99 22.86
3 3 3 266.47 20.15
3 3 3 262.38 27.99
3 3 3 251.06 20.91
3 3 3 253.39 21.07
3 3 3 270.44 30.98
3 3 3 254.12 19.5
3 3 3 244.83 19.94
3 3 3 234.12 21.36
3 3 3 260.12 19.89
3 3 3 241.84 21.05
3 3 3 233.67 20.14
3 3 3 328.96 24.94
3 3 3 210.34 20.43
3 3 3 229.58 21.11
3 3 3 268.17 22.44
3 3 3 280.71 16.94
3 3 3 228.57 20.22
3 3 3 252.29 18.69
3 3 3 227.97 16.18
3 3 3 258.14 20.04
3 3 3 248.77 21.86
3 3 3 242.56 19.08
3 3 3 224.83 19.75
3 3 4 1157.49 53.09
3 3 4 1212.8 52.73
3 3 4 1110.42 50.84
3 3 4 1072.48 50.28
3 3 4 1168.9 50.2
3 3 4 1043.72 50.25
3 3 4 1077.08 53.89
3 3 4 1081.47 51.77
3 3 4 1128.99 48.06
3 3 4 1065.27 49.57
3 3 4 1057.05 53.14
3 3 4 1075.13 51.12
3 3 4 1089.15 56.87
3 3 4 1008.22 51.03
3 3 4 1102.68 54.34
3 3 4 1297.47 55.72
3 3 4 1146.9 54.69
3 3 4 1061.98 52.71
3 3 4 1068.02 53.07
3 3 5 126.45 15.24
3 3 5 141.97 16.6
3 3 5 90.3 12.4
3 3 5 85.52 12.36
3 3 5 112.87 14.16
3 3 5 117.07 13.83
3 3 5 85.39 11.27
3 3 5 94 12.54
3 3 5 126.43 15.17
3 3 5 108.04 14.65
3 3 5 95.51 12.35
3 3 5 83.08 12.9
3 3 6 878.15 49.91
3 3 6 881.69 50.05
3 3 6 1000.97 51.65
3 3 6 899.96 50.8
3 3 6 910.66 46.7
3 3 6 1024.21 47.3
3 3 6 942.51 51.06
3 3 7 87.85 14.29
3 3 7 70.56 12.85
3 3 7 89.32 14.12
3 3 7 88.02 14.63
3 3 7 85.43 12.8
3 3 7 74.36 13.28
3 3 8 1156.87 62
3 3 8 1145.47 60.87
3 3 8 1250.74 64.69
3 3 8 1363.15 61.61
3 3 8 1145.77 62.71
3 3 9 652.32 43.86
3 3 9 671.25 46.72
3 3 9 661.68 46.67
3 3 9 697.68 46.71
3 3 9 703.3 45.85
3 3 10 282.78 27.4
3 3 10 256.4 28.36
3 3 10 237.45 26.03
3 3 10 262.77 28.87
3 3 11 137.36 21.23
3 3 11 139.99 21.91
3 3 11 178.11 22.96
3 3 12 155.04 23.63
3 3 12 175.91 24.94
3 3 12 163.75 24.85
3 3 12 178.4 23.82
3 3 13 207.36 28.77
3 3 13 173.26 25.35
3 3 13 217.12 28.4
3 4 -9 99.27 20.65
3 4 -9 100.96 20.05
3 4 -8 501.41 45.15
3 4 -8 455.83 41.71
3 4 -7 612.59 48.46
3 4 -7 513.24 43.49
3 4 -7 522.9 38.84
3 4 -6 420.33 36.33
3 4 -6 437.91 34.05
3 4 -6 377.59 33.95
3 4 -6 388.02 29.9
3 4 -5 665.61 46.3
3 4 -5 623.41 44.37
3 4 -5 684.95 43.76
3 4 -5 537.26 42.09
3 4 -5 543.49 37.03
3 4 -4 157.46 20.97
3 4 -4 143.83 19.88
3 4 -4 158.53 20.19
3 4 -4 143.13 20.26
3 4 -4 142.31 17.69
3 4 -3 1015.67 55.88
3 4 -3 1022.54 55.47
3 4 -3 1068.41 55.47
3 4 -3 956.17 56.12
3 4 -3 863.01 49.39
3 4 -3 935.61 61.93
3 4 -3 966.84 51.75
3 4 -2 424.31 32.74
3 4 -2 403.55 31.39
3 4 -2 435.33 32.93
3 4 -2 442.08 35.34
3 4 -2 343.81 28.79
3 4 -2 422.55 39.02
3 4 -2 441.07 32.29
3 4 -1 2339.48 93.65
3 4 -1 2331.54 92.87
3 4 -1 2268.19 94.89
3 4 -1 2144.72 91.85
3 4 -1 2296.2 93.52
3 4 0 176.92 17.91
3 4 0 144.41 16.54
3 4 0 147.44 19.71
3 4 0 201.21 24.5
3 4 0 153.8 17.99
3 4 0 152.71 18.2
3 4 0 141.39 17.52
3 4 1 948.79 38.71
3 4 1 957.76 43.61
3 4 1 860.57 43.05
3 4 1 929.51 34.53
3 4 1 980.57 39.98
3 4 1 837.06 41.29
3 4 1 988.57 35.9
3 4 1 967.27 43.93
3 4 2 44.76 10.26
3 4 2 45.45 9.67
3 4 2 52.23 9.08
3 4 2 61.42 11.14
3 4 2 66.86 13.01
3 4 2 60.03 11.4
3 4 2 63.21 11.16
3 4 2 47.47 8.83
3 4 2 47.76 8.94
3 4 2 56.5 9.16
3 4 2 69.87 12.22
3 4 2 62.92 13.79
3 4 3 1362.52 63.67
3 4 3 1315.35 64.42
3 4 3 1277.82 59.51
3 4 3 1260.48 65.14
3 4 3 1260.09 62.26
3 4 3 1279.61 59.84
3 4 3 1342.14 64.2
3 4 3 1245.19 58.07
3 4 4 3.45 2.58
3 4 4 1.18 3.05
3 4 4 2.4 2.2
3 4 4 1.05 1.92
3 4 4 1.33 1.73
3 4 4 1.21 1.58
3 4 4 3.34 2.5
3 4 5 1837.7 81.47
3 4 5 1887.23 83.94
3 4 5 1718.17 84.09
3 4 5 1724.38 79.71
3 4 5 1889.66 83.63
3 4 5 1872.9 80.19
3 4 6 31.84 8.78
3 4 6 56.56 11.85
3 4 6 39.29 9.86
3 4 6 35.71 9.29
3 4 6 46.86 11.33
3 4 6 36.53 9.53
3 4 6 36.11 9.01
3 4 7 748.94 47.59
3 4 7 728.75 45.43
3 4 7 629.78 44.73
3 4 7 716.47 46.76
3 4 7 679.37 46.42
3 4 7 754.91 45.05
3 4 8 204.72 24.26
3 4 8 207.17 23.11
3 4 8 239.53 26.2
3 4 8 199.71 24.55
3 4 9 332.36 32.99
3 4 9 399.02 33.38
3 4 9 375.48 35.06
3 4 9 407.11 36.56
3 4 10 151.44 22.3
3 4 10 183.57 22.57
3 4 10 156.31 23.41
3 4 10 125.93 20.96
3 4 11 355.98 36.06
3 4 11 348.69 36.17
3 4 12 164.26 24.71
3 4 12 188.76 26.95
3 5 -8 159.96 25.74
3 5 -8 129.56 22.12
3 5 -8 127.36 19.88
3 5 -7 312.54 35.01
3 5 -7 258.85 30.92
3 5 -7 275.39 28.82
3 5 -6 477.3 42.36
3 5 -6 405.1 38.63
3 5 -6 423.7 35.81
3 5 -5 570.21 45.05
3 5 -5 514.92 43.38
3 5 -5 475.3 38.15
3 5 -5 584.32 42.38
3 5 -4 570.06 43.5
3 5 -4 467.13 40.67
3 5 -4 439.87 36.5
3 5 -4 572.7 41.32
3 5 -3 423.49 38.15
3 5 -3 412.34 34.45
3 5 -3 457.27 36.39
3 5 -3 472.33 37.83
3 5 -3 495.19 35.95
3 5 -2 810.75 53.75
3 5 -2 773.39 48.9
3 5 -2 796.09 50.09
3 5 -2 863.2 51.96
3 5 -2 771.44 47.58
3 5 -1 5.44 3.95
3 5 -1 4.13 3.09
3 5 -1 1.31 2.94
3 5 -1 5.09 3.7
3 5 0 1018.03 52.9
3 5 0 1266.83 58.02
3 5 0 1331.45 56.59
3 5 0 427.78 39.49
3 5 0 204.87 32.29
3 5 0 1274.37 56.74
3 5 1 391.55 31.54
3 5 1 372.73 30.52
3 5 1 168.28 21.87
3 5 1 78.93 17.63
3 5 1 406.23 31.37
3 5 1 378.38 29.41
3 5 1 406.11 29.77
3 5 2 1281.93 61.09
3 5 2 1271.74 66.27
3 5 2 1283.26 63.22
3 5 2 1288.03 65.65
3 5 2 1054 63.69
3 5 2 1176.8 58.83
3 5 2 1333.8 66.22
3 5 3 17.41 6.48
3 5 3 15.33 6.29
3 5 3 23.43 8.08
3 5 3 16.19 5.84
3 5 3 21.06 7.31
3 5 3 21.5 7.42
3 5 4 981.97 55.05
3 5 4 1031.11 59.02
3 5 4 1052.46 55.83
3 5 4 913.59 57.1
3 5 4 917.9 55.7
3 5 4 1003.37 56.4
3 5 5 68.69 13.6
3 5 5 82.9 15.32
3 5 5 61.17 12.78
3 5 5 79.38 15.57
3 5 5 94.81 16.11
3 5 5 66.95 13.23
3 5 6 689.19 46.94
3 5 6 678.44 48.95
3 5 6 731.67 48.27
3 5 6 709.35 50.35
3 5 6 740.18 49.67
3 5 6 769.05 48.46
3 5 7 6.78 4.32
3 5 7 1.52 1.98
3 5 7 6.92 5.5
3 5 7 6.31 4.58
3 5 7 3.48 3.19
3 5 7 3.26 3.66
3 5 7 4.37 4.23
3 5 8 619 46.12
3 5 8 653.24 44.2
3 5 8 684.99 49.27
3 5 8 583.16 47.84
3 5 8 662.78 48.92
3 5 9 71.9 15.54
3 5 9 85.72 17.01
3 5 9 64.65 15.56
3 5 9 71.05 15.65
3 5 10 347.95 35.73
3 5 10 379.63 38.69
3 5 10 412.11 39.55
3 5 10 396.18 38.46
3 5 11 71.29 16.34
3 5 11 44.99 13.38
3 5 11 65.04 15.92
3 6 -7 208.1 30.29
3 6 -7 210.92 28.85
3 6 -7 194.1 25.72
3 6 -6 159.13 25.39
3 6 -6 194.34 27.12
3 6 -6 164.44 23.29
3 6 -5 126.3 21.53
3 6 -5 105.89 19.85
3 6 -5 109.54 18.82
3 6 -4 588.27 46.32
3 6 -4 552 46.18
3 6 -4 428.94 38.39
3 6 -4 513.51 41.4
3 6 -3 638.33 47.31
3 6 -3 511.33 45.17
3 6 -3 557.06 42.99
3 6 -3 617.88 44.99
3 6 -2 473.04 39.47
3 6 -2 524.99 41.08
3 6 -2 507.29 41.21
3 6 -2 488.98 37.84
3 6 -1 823.26 54.26
3 6 -1 881.01 55.72
3 6 -1 900.72 55.96
3 6 -1 921.81 54.9
3 6 -1 942.84 53.52
3 6 0 14.32 6.86
3 6 0 4.72 3.54
3 6 0 15.83 6.64
3 6 0 4.43 4.29
3 6 0 2.97 3.35
3 6 1 378.23 32.67
3 6 1 354.91 33.78
3 6 1 343.37 33.27
3 6 1 371.79 33.85
3 6 1 388.67 31.84
3 6 1 389.82 34.36
3 6 2 232.05 27.05
3 6 2 270.97 26.51
3 6 2 278.03 29.42
3 6 2 279.32 29.65
3 6 2 264.8 28.26
3 6 3 1006.1 58.14
3 6 3 1195.64 66.79
3 6 3 927.86 60.71
3 6 3 1084.37 59.84
3 6 3 1169.38 65.52
3 6 3 1123.76 64.13
3 6 4 17 6.65
3 6 4 18.81 7.7
3 6 4 8.52 5.44
3 6 4 32.48 9.79
3 6 4 24.56 8.78
3 6 4 13.01 7.02
3 6 5 786.55 50.74
3 6 5 788.27 55.5
3 6 5 769.79 51.29
3 6 5 738.99 52.93
3 6 5 767.67 53.26
3 6 5 820.85 53.64
3 6 6 26.44 8.83
3 6 6 21.01 8.97
3 6 6 33.47 10.21
3 6 6 14.51 7.1
3 6 6 31.1 10.3
3 6 6 21.85 8.48
3 6 7 392.48 35.75
3 6 7 429.11 35.07
3 6 7 374.68 36.32
3 6 7 438.5 40.18
3 6 7 496.12 41.67
3 6 7 420.65 37.69
3 6 8 -1.72 0
3 6 8 5.59 5.41
3 6 8 3.87 4.35
3 6 8 3.77 4.23
3 6 8 -1.75 3.94
3 6 9 291.89 32.64
3 6 9 362.44 37.05
3 6 9 290.11 34.1
3 6 9 360.01 37.1
3 6 10 79.49 17.72
3 6 10 81.52 18.31
3 6 10 98.47 19.36
3 7 -5 301.16 36.1
3 7 -5 342.28 35.4
3 7 -5 395.87 40.53
3 7 -5 364.59 39
3 7 -4 288.24 34.93
3 7 -4 293.06 32.47
3 7 -4 292.33 33.74
3 7 -4 301.67 34.45
3 7 -3 304.09 35.44
3 7 -3 329.56 34.08
3 7 -3 304.98 32.47
3 7 -3 298.47 34.15
3 7 -2 293.41 31.91
3 7 -2 308.72 32.75
3 7 -2 335.3 35.06
3 7 -1 206.83 26.55
3 7 -1 223.75 27.44
3 7 -1 233.86 28.08
3 7 0 292.41 31.75
3 7 0 315.68 33.72
3 7 0 277 31.18
3 7 0 358.78 34.97
3 7 0 369.7 34.9
3 7 1 195.25 25.68
3 7 1 196.83 25.73
3 7 1 131.01 21.57
3 7 1 186.38 25.1
3 7 2 654.87 48.93
3 7 2 571.83 46.22
3 7 2 634.65 48.46
3 7 2 598.64 47.67
3 7 3 88.39 17.19
3 7 3 74.68 15.81
3 7 3 88.63 17.89
3 7 3 55.86 12.52
3 7 3 55.64 14.66
3 7 4 490.8 43.38
3 7 4 543.57 42.95
3 7 4 523.11 43.79
3 7 4 556.75 45.41
3 7 4 561.72 41.9
3 7 4 438.18 42.68
3 7 5 7.64 5.55
3 7 5 16.07 7.34
3 7 5 9.32 5.94
3 7 5 13.28 6.98
3 7 5 14.3 6.85
3 7 5 14.67 7.7
3 7 6 335.21 34.37
3 7 6 309.18 34.25
3 7 6 364.67 36.12
3 7 6 301.33 33.38
3 7 6 306.42 31.3
3 7 7 1.98 2.57
3 7 7 1.96 3.6
3 7 7 -1.96 3.61
3 7 7 -1.96 4.41
3 7 7 1.73 3.18
3 7 8 433.79 41.25
3 7 8 371.85 38.97
3 7 8 415.05 40.43
3 7 8 370.18 38.43
3 7 8 349.14 35.77
3 8 -2 314.84 34.8
3 8 -1 297.35 34.3
3 8 -1 320.88 35.02
3 8 -1 248.3 31.38
3 8 -1 246.49 30.77
3 8 0 157.62 24.76
3 8 0 143.62 23.16
3 8 0 185.18 26.55
3 8 1 298.16 34.4
3 8 1 220.76 29.18
3 8 1 256.41 31.19
3 8 2 133.96 22.36
3 8 2 170.79 25.05
3 8 2 160.03 25.31
3 8 2 110.86 21.24
3 8 3 265.62 31.64
3 8 3 262.59 31.54
3 8 3 280.3 32.95
3 8 3 180.06 27.6
3 8 4 37.98 11.64
3 8 4 34.03 10.75
3 8 4 24.49 10.46
3 8 5 213.73 28.61
3 8 5 252.59 30.72
4 -6 0 80.5 18.55
4 -6 1 131.13 26.06
4 -6 1 146.97 26.76
4 -6 1 173.31 27.09
4 -6 2 96.48 22.1
4 -6 2 129.6 24.54
4 -6 3 80.17 19.5
4 -5 -4 301.32 39.44
4 -5 -3 86.06 20.8
4 -5 -3 116.57 20.51
4 -5 -2 211.63 27.81
4 -5 -2 159.39 26.38
4 -5 -2 206.52 32.14
4 -5 -2 233.68 27.52
4 -5 -1 24.41 9.14
4 -5 -1 12.82 7.37
4 -5 -1 32.93 12.75
4 -5 -1 28.61 9.79
4 -5 0 272.95 36.78
4 -5 0 349.78 35.76
4 -5 0 348.74 34.11
4 -5 1 170.3 24.62
4 -5 1 170.99 23.39
4 -5 1 157.8 26.01
4 -5 1 164.21 27.53
4 -5 1 134.49 22.99
4 -5 2 404.78 37.06
4 -5 2 306.56 36.49
4 -5 2 335.29 39.29
4 -5 3 174.54 24.05
4 -5 3 168.5 22.58
4 -5 3 130.56 23.3
4 -5 3 142.66 24.44
4 -5 4 177.48 24.38
4 -5 4 180.86 24.07
4 -5 4 133.23 23.56
4 -5 5 299.42 32.21
4 -5 5 269.8 30.43
4 -5 5 225.37 30.36
4 -5 6 36.63 11.41
4 -5 6 38.36 11.38
4 -5 6 6.19 6.01
4 -5 7 339.17 35.35
4 -5 7 273.64 31.78
4 -5 7 232.32 31.11
4 -5 8 138.19 23.22
4 -4 -6 -1.95 3.58
4 -4 -6 2.43 4.45
4 -4 -6 2.32 3.01
4 -4 -5 460.19 41.03
4 -4 -5 355.04 41.51
4 -4 -5 331.5 38.32
4 -4 -4 20.27 9.58
4 -4 -4 16.7 8.59
4 -4 -4 19.41 9.47
4 -4 -3 333.61 34.54
4 -4 -3 350.32 40.83
4 -4 -3 436.76 35.89
4 -4 -2 1.75 3.93
4 -4 -2 7.09 6.13
4 -4 -2 5.99 4.35
4 -4 -1 716.69 50.55
4 -4 -1 593.84 53.39
4 -4 -1 755.07 48.97
4 -4 0 49.51 12.81
4 -4 0 51.65 14.94
4 -4 0 50.8 12.04
4 -4 1 392.38 36.27
4 -4 1 348.88 38.71
4 -4 1 442.93 36.19
4 -4 1 391.09 31.81
4 -4 2 320.74 29.74
4 -4 2 274.47 31.67
4 -4 2 276.2 33.38
4 -4 2 321.23 31.96
4 -4 2 351.22 32.25
4 -4 2 340.8 30.21
4 -4 3 323.76 31.03
4 -4 3 316.8 29.38
4 -4 3 271.83 27.05
4 -4 3 226.21 28.76
4 -4 3 270.32 32.09
4 -4 4 221.57 24.75
4 -4 4 208.91 25.12
4 -4 4 182.73 22.16
4 -4 4 169.65 24.65
4 -4 5 558.87 42.8
4 -4 5 542.83 41.18
4 -4 6 138.78 21.11
4 -4 6 139.17 21.23
4 -4 6 141.23 21.91
4 -4 7 101.62 18.33
4 -4 7 71.74 15.4
4 -4 7 65.66 14.95
4 -4 8 515.77 43.38
4 -4 8 473.83 41.49
4 -4 8 445.52 40.96
4 -4 9 75.33 16.49
4 -4 9 60.13 15.41
4 -4 9 47.01 13.25
4 -4 10 257.09 31.75
4 -4 10 235.16 29.68
4 -3 -7 46.84 13.18
4 -3 -7 38.1 12.7
4 -3 -7 34.56 12.35
4 -3 -6 377.06 41.16
4 -3 -6 343.31 39.06
4 -3 -6 435.99 39.74
4 -3 -5 4.49 6.52
4 -3 -5 6.25 5.42
4 -3 -5 17.83 8.02
4 -3 -4 395.25 42.16
4 -3 -4 462.11 43.26
4 -3 -4 523.76 42.05
4 -3 -3 1.65 4.28
4 -3 -3 2.18 4.01
4 -3 -3 7.25 5.26
4 -3 -3 1.3 2.39
4 -3 -2 824.28 62
4 -3 -2 989.76 54.33
4 -3 -2 933.15 57.39
4 -3 -1 83.22 18.08
4 -3 -1 91.32 14.94
4 -3 -1 78.85 15.35
4 -3 0 634.21 51.67
4 -3 0 709.38 44.5
4 -3 0 639.6 45.97
4 -3 1 67.84 15.64
4 -3 1 66.09 12.75
4 -3 1 81.3 14.18
4 -3 1 69.79 12.08
4 -3 1 68.3 14.08
4 -3 2 590.08 37.99
4 -3 2 492.69 37.51
4 -3 2 551.8 38.76
4 -3 2 501.49 40.43
4 -3 2 496.33 43.31
4 -3 3 33.08 9.27
4 -3 3 53.7 11.78
4 -3 3 35.26 9.15
4 -3 3 60.99 14.18
4 -3 3 42.74 11.62
4 -3 4 941.13 55.02
4 -3 4 881.61 52.91
4 -3 4 984.59 53.75
4 -3 4 895.55 51.75
4 -3 4 795.58 52.98
4 -3 4 907.93 58.08
4 -3 5 774.9 50.15
4 -3 5 779.9 49.33
4 -3 5 827.86 50.04
4 -3 5 743.94 46.98
4 -3 5 748.09 50.25
4 -3 6 247.82 27.24
4 -3 6 256.65 26.72
4 -3 6 273.71 28.09
4 -3 6 231.28 24.13
4 -3 6 237.72 26.7
4 -3 7 203.97 24.1
4 -3 7 167.53 22.52
4 -3 7 174.26 23.25
4 -3 7 178.27 22.84
4 -3 8 208.26 24.63
4 -3 8 166.92 23.39
4 -3 8 186.13 24.67
4 -3 8 188.77 24.02
4 -3 9 237.41 26.75
4 -3 9 212.2 27.19
4 -3 9 185.12 25.51
4 -3 9 199.91 25.18
4 -3 10 148.76 23.78
4 -3 10 178.94 25.18
4 -3 10 127.61 20.71
4 -3 11 446.71 42.73
4 -3 11 456.79 42.16
4 -3 11 390.42 37.52
4 -3 12 18.27 8.23
4 -2 -8 -8.22 21.35
4 -2 -8 27.1 10.99
4 -2 -7 525.75 42.34
4 -2 -7 414.87 39.56
4 -2 -7 471.69 43.27
4 -2 -6 67.82 14.92
4 -2 -6 52.22 14.69
4 -2 -6 69.48 15.42
4 -2 -6 38.72 12.23
4 -2 -5 529.34 46.99
4 -2 -5 522.77 45.67
4 -2 -5 567.56 45.48
4 -2 -5 615.58 45.42
4 -2 -4 70.73 16.32
4 -2 -4 73.3 15.73
4 -2 -4 88.87 16.24
4 -2 -3 528.25 40.26
4 -2 -3 452.56 42.26
4 -2 -3 457.76 39.55
4 -2 -3 496.89 33.88
4 -2 -2 1.43 3.7
4 -2 -2 1.08 3.14
4 -2 -2 1.5 2.76
4 -2 -2 1.92 2.49
4 -2 -1 1562.96 86.94
4 -2 -1 1761.56 78.04
4 -2 -1 1844.66 82.49
4 -2 -1 1752.07 75.54
4 -2 -1 1569.49 79.42
4 -2 0 79.72 14.13
4 -2 0 73.32 15.94
4 -2 0 104.1 14.94
4 -2 0 90.73 13.77
4 -2 1 917.89 53.49
4 -2 1 912.48 45.75
4 -2 1 904.9 49.32
4 -2 1 951.99 50.67
4 -2 1 953.55 51.21
4 -2 1 813.57 56.37
4 -2 2 49.3 10.3
4 -2 2 40.98 9.43
4 -2 2 44.97 9.9
4 -2 2 50.23 9.53
4 -2 2 35.77 10.42
4 -2 2 41.2 9.94
4 -2 3 575.9 38.72
4 -2 3 587.55 38.62
4 -2 3 595.14 36.78
4 -2 3 585.14 36.46
4 -2 3 542.49 37.44
4 -2 3 530.4 37.75
4 -2 3 579.39 43.28
4 -2 4 81.4 13.72
4 -2 4 91.44 13.97
4 -2 4 89.93 14.03
4 -2 4 76.97 13.44
4 -2 4 82.74 13.63
4 -2 4 98.16 14.9
4 -2 4 98.82 16.28
4 -2 5 1305.42 65.14
4 -2 5 1434.45 65.98
4 -2 5 1270.71 64.5
4 -2 5 1230.19 64.83
4 -2 5 1177.32 62.12
4 -2 5 1184.32 62.51
4 -2 6 585.31 40.63
4 -2 6 523.17 38.77
4 -2 6 582.03 40.78
4 -2 6 537.37 39.89
4 -2 6 523.4 37.67
4 -2 6 617.63 40.56
4 -2 7 347.91 30.48
4 -2 7 287.99 28.44
4 -2 7 316.16 30.03
4 -2 7 258.37 27.77
4 -2 7 271.42 26.36
4 -2 7 254.76 25.98
4 -2 8 200.45 23.6
4 -2 8 201.06 24.67
4 -2 8 255.44 27.48
4 -2 8 165.9 22.6
4 -2 8 202.25 22.69
4 -2 8 218.75 23.95
4 -2 9 306.94 29.65
4 -2 9 265.7 29.99
4 -2 9 287.06 30.44
4 -2 9 304.5 31.54
4 -2 9 236.13 26.12
4 -2 10 265.32 28.42
4 -2 10 268.77 30.9
4 -2 10 292.41 31.43
4 -2 10 245.13 29.48
4 -2 10 260.29 27.87
4 -2 11 147.36 23.95
4 -2 11 162.05 23.84
4 -2 11 167.63 24.68
4 -2 12 368.3 38.52
4 -2 12 350.96 37.27
4 -1 -9 196.58 28.59
4 -1 -9 305.35 33.57
4 -1 -8 192.26 28.34
4 -1 -8 268.86 31.22
4 -1 -8 223.96 28.33
4 -1 -7 96.78 18.72
4 -1 -7 74.82 17.08
4 -1 -7 131.14 20.78
4 -1 -7 112.22 19.57
4 -1 -6 330.84 35.68
4 -1 -6 280.1 33.05
4 -1 -6 384.84 36.03
4 -1 -6 346.48 33.77
4 -1 -5 108.48 19.66
4 -1 -5 107.11 18.52
4 -1 -5 118.23 18.47
4 -1 -5 93.98 17.59
4 -1 -4 1462.07 83.77
4 -1 -4 1440.77 79.92
4 -1 -4 1858.85 83
4 -1 -4 1620.63 83.93
4 -1 -4 1809.24 82.68
4 -1 -3 172.93 24.35
4 -1 -3 127.91 19.13
4 -1 -3 130.77 18.37
4 -1 -3 192.71 22.28
4 -1 -2 875.81 50.86
4 -1 -2 947.35 53.21
4 -1 -2 753.42 54.21
4 -1 -2 874.79 44
4 -1 -2 794.18 50.94
4 -1 -2 840.16 46.99
4 -1 -1 1.67 3.07
4 -1 -1 5.13 2.94
4 -1 -1 6.39 3.66
4 -1 -1 4.38 2.79
4 -1 -1 4.89 3.56
4 -1 -1 15.52 6
4 -1 0 710.71 42.22
4 -1 0 728.13 50.41
4 -1 0 787.29 41.41
4 -1 0 841.47 42.61
4 -1 0 713.62 42.97
4 -1 0 751.22 44.55
4 -1 1 6.38 3.65
4 -1 1 0.95 1.23
4 -1 1 -0.93 1.71
4 -1 1 3.43 2.36
4 -1 1 2.22 1.92
4 -1 1 7.57 4.81
4 -1 1 1.85 2.08
4 -1 1 2.2 2.85
4 -1 2 2176.41 87.67
4 -1 2 2217.03 91.6
4 -1 2 2206.18 88.9
4 -1 2 2325.42 90.3
4 -1 2 2318.81 87.07
4 -1 2 2305.96 84.97
4 -1 2 2175.12 88.01
4 -1 2 2023.22 96.77
4 -1 2 2222.55 89.56
4 -1 3 32.63 7.03
4 -1 3 29.78 7.93
4 -1 3 43.04 8.46
4 -1 3 45.76 9.74
4 -1 3 36.5 8.64
4 -1 3 48.54 9.24
4 -1 3 52.99 9.57
4 -1 3 42.73 10.46
4 -1 4 1148.1 57.27
4 -1 4 1064.03 52.38
4 -1 4 1062.02 55.64
4 -1 4 1082.67 53.42
4 -1 4 1127.05 55.51
4 -1 4 1154.71 57.2
4 -1 4 1098.98 52.98
4 -1 4 1055.43 57.72
4 -1 5 295.79 25.59
4 -1 5 305.71 26.76
4 -1 5 312.78 27.08
4 -1 5 294.03 25.51
4 -1 5 330.15 27.72
4 -1 5 348 28.61
4 -1 5 314.3 25.18
4 -1 6 546.08 37.82
4 -1 6 529.19 37.74
4 -1 6 600.69 40
4 -1 6 579.72 38.79
4 -1 6 593.22 39.75
4 -1 6 582.13 40.01
4 -1 6 589.42 36.59
4 -1 7 96.9 15.84
4 -1 7 135.08 17.86
4 -1 7 86.29 14.85
4 -1 7 119.19 17.33
4 -1 7 103 16.34
4 -1 7 106.73 16.9
4 -1 7 123.14 16.12
4 -1 8 541.06 41.29
4 -1 8 580.1 40.37
4 -1 8 594.36 41.89
4 -1 8 599.71 42.85
4 -1 8 582.76 42.31
4 -1 8 560.05 41.98
4 -1 9 386.21 35.32
4 -1 9 417.29 34.37
4 -1 9 421.51 36.78
4 -1 9 395.11 34.15
4 -1 9 414.5 36.07
4 -1 9 395.19 35.59
4 -1 10 333.69 31.37
4 -1 10 425.52 37.81
4 -1 10 366.79 33.13
4 -1 10 377.92 34.87
4 -1 10 350.88 34.71
4 -1 11 329.01 34.6
4 -1 11 305.28 32.22
4 -1 11 284.45 32.51
4 -1 12 126.42 21.94
4 -1 12 112.24 20.81
4 -1 12 141.73 22
4 -1 13 177.04 26.63
4 -1 13 150.34 23.12
4 -1 13 149.3 24.53
4 0 -9 237.75 28.87
4 0 -9 281.82 32.06
4 0 -8 348.82 34.33
4 0 -8 307.26 34.22
4 0 -7 425.98 38.39
4 0 -7 472.28 40.6
4 0 -7 509.12 40.75
4 0 -7 528.2 40.58
4 0 -6 412.82 39.09
4 0 -6 418.82 38.11
4 0 -6 507.09 40.06
4 0 -6 430.19 39.69
4 0 -5 738.47 45.83
4 0 -5 794.18 50.53
4 0 -5 688.68 45.67
4 0 -5 703.06 43.26
4 0 -5 642.61 44.28
4 0 -4 14.37 6.89
4 0 -4 24.38 8.4
4 0 -4 15.67 7.51
4 0 -4 9.34 5.36
4 0 -4 17.56 6.8
4 0 -3 775.14 49.11
4 0 -3 701.56 50.42
4 0 -3 754.95 48.88
4 0 -3 757.89 50.63
4 0 -3 745.77 45.67
4 0 -2 331.61 25.34
4 0 -2 357.46 31.29
4 0 -2 306.56 31.04
4 0 -2 259.96 26.08
4 0 -2 326.17 31.2
4 0 -2 375.53 28.83
4 0 -1 1650.75 78.22
4 0 -1 1795.2 75.83
4 0 -1 1696.03 85.69
4 0 -1 1876.9 70.62
4 0 -1 1841.14 71.28
4 0 -1 1819.19 77.9
4 0 0 55.68 10.35
4 0 0 71.67 11.31
4 0 0 69.55 11.29
4 0 0 53.82 9.95
4 0 0 54.16 12.16
4 0 0 67.13 9.54
4 0 0 70.02 10.12
4 0 0 75.07 9.19
4 0 1 1748.11 68.69
4 0 1 1703.65 70.29
4 0 1 1736.86 67.53
4 0 1 1757.39 72.06
4 0 1 1631.2 70.11
4 0 1 1803.46 73.76
4 0 1 1676.48 65.85
4 0 1 1621.21 79.83
4 0 1 1643.83 71.41
4 0 2 115.89 20.98
4 0 2 99.28 13.75
4 0 2 114.43 12.91
4 0 2 119.11 13.98
4 0 2 122.79 15.24
4 0 2 108.97 13.33
4 0 2 122.09 13.17
4 0 2 115.73 15.03
4 0 2 118.27 14.19
4 0 2 107.54 16.3
4 0 2 127.08 14.72
4 0 2 144.31 13.31
4 0 2 99.11 12.57
4 0 2 117.7 13.59
4 0 3 965.88 54.64
4 0 3 1054.86 49.74
4 0 3 1053.55 52.19
4 0 3 1043.18 47.86
4 0 3 1091.68 51.96
4 0 3 1071.89 51.16
4 0 3 994.04 50.92
4 0 3 1050.66 49.88
4 0 3 1091.58 50.51
4 0 3 1043.27 53.21
4 0 4 2.19 2.01
4 0 4 9.8 4.17
4 0 4 2.11 1.94
4 0 4 -1 1.83
4 0 4 11.29 4.62
4 0 4 5.86 3.44
4 0 4 2.1 1.82
4 0 4 1.92 2.16
4 0 4 4.34 3.15
4 0 4 4.53 2.77
4 0 5 1170.51 57.29
4 0 5 1242.9 60.81
4 0 5 1229.82 60.68
4 0 5 1241.28 60.01
4 0 5 1227.92 60.45
4 0 5 1209.32 59.23
4 0 6 231.65 22.59
4 0 6 221.02 22.95
4 0 6 216.26 22.53
4 0 6 246.93 23.78
4 0 6 211.2 22.22
4 0 6 240.4 23.57
4 0 7 1364.19 67.76
4 0 7 1324.99 67.62
4 0 7 1361.35 68.03
4 0 7 1319.85 66.66
4 0 7 1382.81 68.71
4 0 8 176.01 21.46
4 0 8 170.13 21.63
4 0 8 186.59 22.76
4 0 8 159.01 21.12
4 0 8 170.88 21.58
4 0 9 479.04 37.14
4 0 9 428.39 36.21
4 0 9 471.71 38.34
4 0 9 437.87 37.12
4 0 9 434.39 37.03
4 0 10 248.59 27.05
4 0 10 227.57 26.46
4 0 10 214.39 26.49
4 0 10 232.85 27.82
4 0 10 293.35 30.4
4 0 11 94.59 16.72
4 0 11 90.32 16.75
4 0 11 113 19.89
4 0 11 92.25 17.66
4 0 11 106.14 18.89
4 0 12 273.3 32.11
4 0 12 296.18 31.04
4 0 12 250.91 30.91
4 0 12 267 31.5
4 0 13 392.1 39.51
4 0 13 344.19 37.92
4 1 -10 180.42 26.85
4 1 -9 180.3 26.72
4 1 -9 179.04 25.5
4 1 -9 195.23 26.43
4 1 -8 142.49 21.81
4 1 -8 155.54 23.43
4 1 -8 124.22 21.34
4 1 -7 590.26 44.51
4 1 -7 568.7 46.3
4 1 -7 623.68 45.21
4 1 -7 719.37 46.35
4 1 -7 591.53 44.99
4 1 -6 451.99 38.99
4 1 -6 480.07 41.78
4 1 -6 425.67 37.64
4 1 -6 538.66 41.27
4 1 -6 529.28 38.85
4 1 -5 559.06 46.04
4 1 -5 603.47 44.16
4 1 -5 543.33 43.54
4 1 -5 543.99 44.71
4 1 -5 655.59 43.88
4 1 -5 679.54 47.87
4 1 -4 1360.37 73.38
4 1 -4 1405.46 72.35
4 1 -4 1127.83 66.87
4 1 -4 1366.2 72.02
4 1 -4 1407.61 67.56
4 1 -4 1241.41 71.64
4 1 -3 47.21 10.03
4 1 -3 23.73 8.2
4 1 -3 16.37 7.09
4 1 -3 17.2 7.36
4 1 -3 44.19 11.39
4 1 -3 24.22 6.07
4 1 -3 38.01 10.04
4 1 -2 573.96 43.3
4 1 -2 673.29 46.72
4 1 -2 574.41 33.54
4 1 -2 620.02 43.66
4 1 -2 627.13 43.33
4 1 -2 651.49 37.79
4 1 -2 550.71 39.47
4 1 -1 482.76 34.68
4 1 -1 495.47 39.11
4 1 -1 509.08 31.06
4 1 -1 571.15 40.61
4 1 -1 497.67 27.76
4 1 -1 507.81 37.57
4 1 -1 552.84 33.04
4 1 0 1792.16 72.14
4 1 0 1864.14 71.14
4 1 0 2013.91 85.65
4 1 0 1958.47 74.41
4 1 0 1841.4 77
4 1 0 1944.78 87.41
4 1 0 1850.6 75.89
4 1 0 1833.13 86.36
4 1 0 2074.15 81.61
4 1 0 1790.7 78.75
4 1 1 105.92 12.78
4 1 1 108.24 12.63
4 1 1 87.96 11.23
4 1 1 97.69 10.66
4 1 1 104.44 11.62
4 1 1 90.74 12.41
4 1 1 89.14 14.99
4 1 1 93.68 10.6
4 1 1 64.58 10.5
4 1 2 1971.43 89.52
4 1 2 2260.61 80.62
4 1 2 2066.08 82.67
4 1 2 2054.8 81.9
4 1 2 2105.97 79.17
4 1 2 2114.3 76.05
4 1 2 2104.51 82.55
4 1 2 2145.07 85.11
4 1 2 2068.46 80.02
4 1 2 2166.08 82.09
4 1 2 2244.62 78.05
4 1 2 1956.84 83.83
4 1 3 53.01 10.86
4 1 3 85.19 12.14
4 1 3 71.59 11.31
4 1 3 66.68 10.08
4 1 3 68.59 9.62
4 1 3 64.55 10.55
4 1 3 64.6 10.9
4 1 3 73.5 11.23
4 1 3 75.49 9.96
4 1 4 1290.78 54.25
4 1 4 1192.85 58.33
4 1 4 1291.06 56.93
4 1 4 1228.97 58.98
4 1 4 1197.22 58.66
4 1 4 1232.83 56.75
4 1 4 1268.6 55.93
4 1 4 1200.57 59.33
4 1 5 21.09 6.62
4 1 5 19.27 6.2
4 1 5 16.98 5.9
4 1 5 13.8 5.14
4 1 5 22.07 6.74
4 1 5 16.56 5.21
4 1 5 16.31 4.99
4 1 6 989.88 54.24
4 1 6 1015.36 55.15
4 1 6 1041.39 54.42
4 1 6 989.7 53.01
4 1 6 1123.89 51.87
4 1 6 1012.64 54.93
4 1 7 155.21 19.23
4 1 7 147.58 19.27
4 1 7 151.99 19.21
4 1 7 151.47 19.02
4 1 7 177.09 18.26
4 1 7 157.82 19.75
4 1 8 857.8 51.54
4 1 8 851.16 51.86
4 1 8 858.45 52.12
4 1 8 873.54 52.67
4 1 9 214.89 24.39
4 1 9 207.57 24.35
4 1 9 208.7 24.85
4 1 9 276.87 28.04
4 1 10 688.15 47.6
4 1 10 732.62 49.21
4 1 10 697.13 50.02
4 1 10 719.4 49.97
4 1 11 94.29 17.1
4 1 11 110.76 18.55
4 1 11 111.23 19.9
4 1 11 120.17 19.82
4 1 12 121.75 20.31
4 1 12 128.67 20.47
4 1 12 99.39 19.22
4 1 12 113.5 20.21
4 1 13 170 25.45
4 1 13 170.23 24.91
4 1 13 182.93 26.88
4 2 -9 39.57 12.4
4 2 -9 27.7 11.23
4 2 -9 20.84 10.14
4 2 -8 447.88 38.25
4 2 -8 429.37 39.13
4 2 -8 395.74 37.57
4 2 -7 417.78 37.31
4 2 -7 479.4 37.66
4 2 -7 432.87 38.85
4 2 -7 452.84 39.31
4 2 -6 515.96 44.89
4 2 -6 487.71 39.86
4 2 -6 504.62 40.14
4 2 -6 561.23 38.83
4 2 -6 407.85 36.17
4 2 -5 444.72 36.65
4 2 -5 529.11 39.87
4 2 -5 559.57 36.59
4 2 -5 479.43 38.97
4 2 -5 477.57 41.67
4 2 -5 573.11 42.11
4 2 -4 448.92 37.4
4 2 -4 451.72 37.89
4 2 -4 461.84 33.85
4 2 -4 425.53 38.28
4 2 -4 452.61 41.06
4 2 -4 489.66 40.25
4 2 -3 562.88 42.48
4 2 -3 682.62 46.15
4 2 -3 674.19 39.73
4 2 -3 637.17 47.04
4 2 -3 720.11 49.3
4 2 -3 717.83 50.72
4 2 -2 644.49 43.82
4 2 -2 701.68 45.69
4 2 -2 629.72 46.26
4 2 -2 764.92 50.23
4 2 -2 730.35 49.07
4 2 -1 1542.95 63.13
4 2 -1 1463.1 72.25
4 2 -1 1538.19 78.13
4 2 -1 1765.84 82.26
4 2 -1 1569.71 63.23
4 2 -1 1546.87 77.85
4 2 -1 1553.08 73.5
4 2 0 112.9 17.4
4 2 0 154.09 18.04
4 2 0 145.57 15.15
4 2 0 147.82 19.69
4 2 0 138.77 13.56
4 2 0 133.92 14.09
4 2 0 150.35 20.2
4 2 0 96.19 12.52
4 2 0 117.06 13.13
4 2 0 127.6 16.47
4 2 1 1675.43 72.52
4 2 1 1856.89 69.61
4 2 1 1573.87 77.39
4 2 1 1810.18 81.96
4 2 1 1575.2 67.05
4 2 1 1656.86 67.77
4 2 1 1531.21 70.51
4 2 1 1566.09 77.03
4 2 1 1505.78 65.19
4 2 2 12.61 3.92
4 2 2 11.88 3.64
4 2 2 16.38 5.3
4 2 2 15.18 5.24
4 2 2 14.33 6.34
4 2 2 11.72 4.7
4 2 2 30.99 8.93
4 2 2 14.52 4.64
4 2 2 13.07 4.87
4 2 2 19.09 6.83
4 2 3 1345.03 60.06
4 2 3 1410.84 59.72
4 2 3 1387.58 58.63
4 2 3 1256.3 55.26
4 2 3 1266.73 55.39
4 2 3 1320.43 60.17
4 2 3 1289.26 64.57
4 2 3 1289.7 61.54
4 2 3 1241.98 58.11
4 2 4 117.05 13.22
4 2 4 113.41 13.2
4 2 4 144.4 16.2
4 2 4 112.94 15.2
4 2 4 112.94 14.59
4 2 4 102.65 13.13
4 2 4 101.04 14.55
4 2 4 113.76 12.91
4 2 4 112.01 13.41
4 2 4 110.92 13.17
4 2 5 1607.51 70.44
4 2 5 1593.27 69.18
4 2 5 1586.66 72.68
4 2 5 1604.97 67.71
4 2 5 1558.14 64.77
4 2 5 1595.18 68.62
4 2 5 1539.77 72.03
4 2 5 1558.05 69.13
4 2 6 33.54 9.02
4 2 6 31.09 7.92
4 2 6 36.13 7.95
4 2 6 20.32 6.46
4 2 6 49.29 9.85
4 2 6 23.69 7.64
4 2 6 25.26 7.5
4 2 7 1124.14 56.37
4 2 7 1099.63 59.42
4 2 7 1087.07 54.84
4 2 7 1079.46 58.73
4 2 7 992.36 56.18
4 2 7 1053.66 57.19
4 2 8 86.11 15.35
4 2 8 81.35 14.95
4 2 8 93.18 15.69
4 2 8 101.45 15.29
4 2 8 115.12 17.61
4 2 9 631.87 44.17
4 2 9 584.36 43.53
4 2 9 531.88 41.22
4 2 9 624.2 42.01
4 2 9 587.34 43.1
4 2 10 94.69 16.65
4 2 10 69.89 14.85
4 2 10 75.72 15.49
4 2 10 76.37 14.17
4 2 10 82 15.78
4 2 11 519.48 40.99
4 2 11 513.93 43.22
4 2 11 451.92 39.62
4 2 11 467.9 40.17
4 2 12 76.43 16.06
4 2 12 82.07 16.29
4 2 12 87.91 18.11
4 2 12 102.34 18.68
4 2 12 105.57 18.61
4 2 13 193.22 27.23
4 2 13 158.93 24.53
4 2 13 151.62 23.41
4 3 -9 594.77 48.71
4 3 -9 364.34 37.7
4 3 -8 54.78 14.47
4 3 -8 -7.9 14.5
4 3 -8 -2.2 0.04
4 3 -8 60.92 15.37
4 3 -7 541.74 43.9
4 3 -7 -14.68 26.95
4 3 -7 535.88 42.93
4 3 -6 207.67 26.64
4 3 -6 224.37 27.48
4 3 -6 132.2 24.21
4 3 -6 270.57 31.77
4 3 -6 -6.76 17.56
4 3 -6 -1.88 0.15
4 3 -6 178.1 24.68
4 3 -5 861.56 53.14
4 3 -5 930.53 53.55
4 3 -5 697.3 52.75
4 3 -5 1090.49 62.2
4 3 -5 -6.21 16.13
4 3 -5 788.84 49.45
4 3 -4 446.26 37.81
4 3 -4 594.3 41.21
4 3 -4 -5.68 14.75
4 3 -4 536.6 39.88
4 3 -4 468.3 41.61
4 3 -4 589.95 44.61
4 3 -3 366.57 31.15
4 3 -3 352.19 31.01
4 3 -3 353.07 34.52
4 3 -2 882.17 47.84
4 3 -2 995.49 41.4
4 3 -2 894.74 52.89
4 3 -1 538.14 37.4
4 3 -1 514.86 33.94
4 3 -1 479.7 32.04
4 3 -1 487.78 37.21
4 3 -1 431.9 38.17
4 3 -1 557.4 42.98
4 3 0 1303 62.1
4 3 0 1272.57 57.21
4 3 0 1180.44 57.87
4 3 0 1187.5 63.16
4 3 0 1408.63 71.29
4 3 0 1169.9 66.19
4 3 1 494.22 38.32
4 3 1 587.12 41.98
4 3 1 528.32 30.94
4 3 1 527.12 36.14
4 3 1 517.1 33.45
4 3 1 528.1 34.55
4 3 1 457.1 34.77
4 3 2 725.61 46.28
4 3 2 674.67 42.43
4 3 2 650.15 40.81
4 3 2 749.11 38.9
4 3 2 662.56 44.17
4 3 2 639.25 40.3
4 3 2 634.47 40.98
4 3 3 66.85 11.47
4 3 3 79.47 13.63
4 3 3 49.67 10.42
4 3 3 53.88 10.66
4 3 3 44.74 9.41
4 3 3 72.62 13.11
4 3 3 61.91 11.59
4 3 4 2165.44 93.22
4 3 4 2521.06 98.87
4 3 4 2321.54 94.21
4 3 4 2335.18 92.79
4 3 4 2233.21 90.98
4 3 4 2445.24 98.01
4 3 4 2024.06 94.92
4 3 5 4.68 3.4
4 3 5 5 3.63
4 3 5 3.55 2.66
4 3 5 10.26 4.68
4 3 5 7.91 4.4
4 3 5 2.21 2.49
4 3 5 1.92 2.17
4 3 5 6.88 3.61
4 3 5 11.23 5.47
4 3 6 1039.03 56.04
4 3 6 1031.73 57.5
4 3 6 1059.84 55.07
4 3 6 1039.93 55.06
4 3 6 1057.07 55.39
4 3 7 5.53 4.02
4 3 7 1.29 2.36
4 3 7 4.75 3.45
4 3 7 6.27 4.31
4 3 8 497.59 37.78
4 3 8 491.67 38.24
4 3 8 480.11 36.77
4 3 8 466.41 37.35
4 3 8 485.84 38.03
4 3 9 6.14 4.46
4 3 9 4.38 4.24
4 3 9 2.95 3.83
4 3 9 1.53 3.43
4 3 9 1.51 1.97
4 3 10 922.66 56.77
4 3 10 918.78 57.15
4 3 10 865.56 55.56
4 3 10 941.62 57.13
4 3 10 909.7 58.36
4 3 10 788.02 55.14
4 3 11 222.5 26.41
4 3 11 215.82 27.51
4 3 11 223.94 27.61
4 3 11 182.2 24.19
4 3 11 269.26 29.33
4 3 12 242.79 29.96
4 3 12 214.21 28.04
4 3 12 192.92 25.58
4 3 13 41.01 13.21
4 3 13 30.87 10.32
4 4 -8 412.14 41.74
4 4 -8 438 43.76
4 4 -8 319.46 36.99
4 4 -7 88.79 18.93
4 4 -7 63.41 15.9
4 4 -7 68.84 16.33
4 4 -6 368.29 37.06
4 4 -6 380.8 38.2
4 4 -6 414.53 39.53
4 4 -6 377.39 38.01
4 4 -5 175.27 24.53
4 4 -5 168.42 23.94
4 4 -5 159 23.88
4 4 -5 175.43 27.98
4 4 -4 1276.61 69.91
4 4 -4 1207.33 69.07
4 4 -4 1327.29 70.05
4 4 -4 1188.11 69.76
4 4 -4 1072.82 58.52
4 4 -4 783.59 65.99
4 4 -4 1623.63 86.82
4 4 -3 500.99 40.05
4 4 -3 550.64 41.74
4 4 -3 528.62 39.93
4 4 -3 461.41 39.87
4 4 -3 466.64 34.54
4 4 -3 429.04 43.23
4 4 -2 544.69 41.24
4 4 -2 633.44 43.27
4 4 -2 529.51 38.64
4 4 -2 556.65 43.06
4 4 -2 536.65 37.11
4 4 -2 691.04 52.28
4 4 -2 445.42 42.46
4 4 -1 700.14 46.16
4 4 -1 724.1 44.97
4 4 -1 705.3 42.72
4 4 -1 606.52 40.66
4 4 -1 613.85 45.48
4 4 -1 600.73 47.68
4 4 -1 606.25 43.23
4 4 0 165.53 18.97
4 4 0 161.33 20.42
4 4 0 179.62 18.77
4 4 0 167.58 23.14
4 4 0 204.34 26.04
4 4 0 184.04 21.56
4 4 0 160.76 19.2
4 4 0 142.37 20.25
4 4 1 1329.94 71.69
4 4 1 1317.49 67.79
4 4 1 1328.5 67.92
4 4 1 1436.45 64.03
4 4 1 1207.81 65.04
4 4 2 599.7 42.2
4 4 2 727.58 48.31
4 4 2 600.43 41.19
4 4 2 558.9 39.85
4 4 2 567.91 40.18
4 4 2 574.39 39.72
4 4 3 897.85 52.37
4 4 3 734.55 46.36
4 4 3 740.26 46.45
4 4 3 747.2 46.52
4 4 3 702.01 44.39
4 4 3 738.44 47.66
4 4 3 759.84 46.49
4 4 4 233.91 24.29
4 4 4 263.15 26.1
4 4 4 237.51 24.33
4 4 4 209.62 22.93
4 4 4 207.21 21.93
4 4 4 200.19 23.73
4 4 5 1233.34 64.33
4 4 5 1260.42 64.47
4 4 5 1199.54 63.52
4 4 5 1253.52 61.8
4 4 5 1150.09 66.67
4 4 5 1256.37 61.32
4 4 6 9.84 5.17
4 4 6 13.75 5.92
4 4 6 2.75 2.53
4 4 6 6.88 4.38
4 4 6 8.26 4.34
4 4 6 10.05 5.16
4 4 6 15.02 6.86
4 4 7 793.69 50.6
4 4 7 905.56 53.65
4 4 7 970.75 54.57
4 4 7 776.78 50.66
4 4 7 741.31 53.85
4 4 7 782.38 50.41
4 4 8 1.51 1.97
4 4 8 3.04 3.42
4 4 8 -1.53 0.03
4 4 8 1.54 2
4 4 8 4.53 3.4
4 4 9 453.12 38.64
4 4 9 512.93 40.4
4 4 9 478.45 40.56
4 4 9 497.35 40.39
4 4 10 -1.63 2.99
4 4 10 -1.7 0.01
4 4 10 5.24 4.53
4 4 10 1.76 3.95
4 4 10 1.62 3.65
4 4 11 535.77 44.88
4 4 11 630.16 46.72
4 4 11 632.88 48.76
4 4 11 564.19 47.41
4 4 11 614.19 46.34
4 4 12 53.05 14.05
4 4 12 40.86 12.47
4 4 12 74.24 15.77
4 5 -7 390.42 40.84
4 5 -7 474.97 45.37
4 5 -6 27.57 9.88
4 5 -6 29.03 10.81
4 5 -6 43.39 12.9
4 5 -5 816.66 54.66
4 5 -5 682.99 52.53
4 5 -5 640.3 51.87
4 5 -5 716.52 47.6
4 5 -4 305.57 30.74
4 5 -4 -1.84 0.19
4 5 -4 318.65 31.85
4 5 -4 239.44 28.94
4 5 -4 249.29 25.24
4 5 -4 83.08 19.94
4 5 -3 553.65 40.4
4 5 -3 -1.7 2.21
4 5 -3 620.3 42.17
4 5 -3 552.95 42.95
4 5 -3 520.52 36.24
4 5 -3 185.48 28.15
4 5 -3 301.28 37.45
4 5 -3 608.28 40.78
4 5 -2 370.47 32.68
4 5 -2 426.08 33.5
4 5 -2 363.38 34.46
4 5 -2 374.36 30.71
4 5 -2 365.04 39.17
4 5 -2 360.05 31
4 5 -1 536.73 38.77
4 5 -1 548.97 36.37
4 5 -1 391.07 37.8
4 5 -1 553.68 46.77
4 5 -1 520.57 37.06
4 5 -1 500.75 35.54
4 5 -1 520.72 40.52
4 5 0 284.94 31.8
4 5 0 339.6 36.89
4 5 0 289.9 29.02
4 5 0 310.55 30.57
4 5 0 302.12 29.17
4 5 1 443.91 38.92
4 5 1 569.36 46.67
4 5 1 487.7 38.41
4 5 1 514.65 38.79
4 5 1 449.14 37.25
4 5 1 489.78 38.46
4 5 2 1066.45 60.5
4 5 2 996.93 58.42
4 5 2 1037.2 59.45
4 5 2 958.35 59.12
4 5 2 1046.38 60.89
4 5 3 232.12 25.13
4 5 3 252.48 28.92
4 5 3 218.66 25.08
4 5 3 238.84 25.36
4 5 3 210.48 25.11
4 5 3 235.8 26.05
4 5 4 695.36 50.48
4 5 4 771.83 50.7
4 5 4 798.81 49.96
4 5 4 730.32 48.64
4 5 4 925.98 56.82
4 5 4 834.73 52.4
4 5 5 60.99 14.43
4 5 5 63.12 13.53
4 5 5 63.95 12.92
4 5 5 57.37 12.51
4 5 5 82.64 15.66
4 5 6 579.71 41.75
4 5 6 520.78 44.56
4 5 6 549.96 42.04
4 5 6 576.19 41.21
4 5 6 531.9 41.09
4 5 6 565.06 43.47
4 5 7 44.9 11.62
4 5 7 34.49 11.74
4 5 7 32.9 10.32
4 5 7 47.96 11.78
4 5 7 41.1 11.31
4 5 7 41.91 11.38
4 5 8 684.59 53.38
4 5 8 726.21 50.35
4 5 8 667.56 49.28
4 5 8 700.79 49.56
4 5 8 708.01 48.47
4 5 8 624.85 48.39
4 5 9 3.55 3.26
4 5 9 2.1 3.85
4 5 9 5.43 4.7
4 5 9 6.47 5.15
4 5 9 1.74 5.05
4 5 9 3.71 3.41
4 5 10 274.52 34.54
4 5 10 313.39 34.27
4 5 10 282.27 32.57
4 5 10 342.49 34.96
4 5 10 361.07 33.96
4 5 11 29.8 10.67
4 5 11 29.27 11.35
4 5 11 23.82 9.33
4 5 11 38.73 11.39
4 5 11 24.69 9.26
4 6 -6 404.73 41.88
4 6 -6 414.6 37.43
4 6 -5 99.05 18.79
4 6 -5 78.23 15.91
4 6 -5 69.92 16.72
4 6 -5 97.37 19.17
4 6 -4 404.11 38.09
4 6 -4 344.47 37.95
4 6 -4 353.93 34.22
4 6 -4 440.43 40.37
4 6 -3 142.9 22.18
4 6 -3 119.66 20.13
4 6 -3 114.49 21.6
4 6 -3 111.03 18.83
4 6 -2 807.72 54.56
4 6 -2 781.26 52.85
4 6 -2 767.91 51.6
4 6 -2 713.3 55.61
4 6 -2 684.69 49.74
4 6 -1 209.42 25.39
4 6 -1 170.66 24.06
4 6 -1 175.82 26
4 6 -1 174.12 23.37
4 6 0 574.97 43.71
4 6 0 582.37 43.12
4 6 0 598.57 45.23
4 6 0 476.8 41.02
4 6 1 564.21 43.39
4 6 1 516.44 40.8
4 6 1 555.99 43.9
4 6 1 582.62 44.56
4 6 2 127.58 19.26
4 6 2 143.74 21.11
4 6 2 111.64 18.7
4 6 2 115.19 19.55
4 6 2 128.03 20.55
4 6 3 261.13 27.78
4 6 3 273.98 30.09
4 6 3 298.62 30.54
4 6 3 229.47 28.15
4 6 3 247.65 28.71
4 6 4 360.8 36.54
4 6 4 390.58 36.28
4 6 4 344.51 33.62
4 6 4 393.23 34.9
4 6 4 415.78 37.52
4 6 5 631.68 49.88
4 6 5 655.08 48.68
4 6 5 636.12 47.02
4 6 5 638.72 46.33
4 6 5 625.96 48.24
4 6 6 136.88 22.71
4 6 6 146.02 21.95
4 6 6 103.35 18.04
4 6 6 108.45 18.54
4 6 6 113.34 20.32
4 6 7 503.48 45.13
4 6 7 538.97 44.29
4 6 7 498.21 41.04
4 6 7 520.14 42.54
4 6 7 460.07 39.44
4 6 7 458.2 42.29
4 6 8 1.84 2.39
4 6 8 -2.13 5.52
4 6 8 1.89 2.46
4 6 8 3.3 3.71
4 6 8 1.78 3.27
4 6 8 -2.03 0.02
4 6 9 288.01 32.94
4 6 9 293.44 35.51
4 6 9 241.44 30.37
4 6 9 268.39 31.17
4 6 9 326.01 32.24
4 6 10 18.34 8.79
4 6 10 14.23 7.48
4 6 10 15.73 8.27
4 7 -4 43.13 12.78
4 7 -4 38.15 12.36
4 7 -3 229.79 29.08
4 7 -3 175.15 27.73
4 7 -3 196.47 26.23
4 7 -3 213.63 28.53
4 7 -2 48.6 13.1
4 7 -2 25.62 10.51
4 7 -2 27.01 10.37
4 7 -1 597.96 46.44
4 7 -1 570.65 51.21
4 7 -1 485.72 43.44
4 7 -1 634.97 49.21
4 7 0 214.85 27.14
4 7 0 191.68 26.18
4 7 0 126.81 21.55
4 7 1 503.53 40.61
4 7 1 492.87 42.52
4 7 1 524.67 44.27
4 7 1 516.18 44.96
4 7 1 442.23 41.09
4 7 2 419.14 37.19
4 7 2 480.93 42.42
4 7 2 429.83 40.07
4 7 2 499.12 43.43
4 7 2 375.2 38.23
4 7 3 168.99 23.08
4 7 3 180.42 25.65
4 7 3 146.56 23.52
4 7 3 180.09 25.62
4 7 3 195.49 26.3
4 7 4 104.8 17.98
4 7 4 87.65 18.09
4 7 4 68.84 16.6
4 7 4 81.07 17.36
4 7 4 98.03 18.65
4 7 5 210.96 26.31
4 7 5 197.4 28.33
4 7 5 226.08 29.9
4 7 5 232.64 29.15
4 7 5 221.4 28.27
4 7 6 374.36 36.14
4 7 6 309.59 36.48
4 7 6 391.31 40.2
4 7 6 418.07 40.11
4 7 6 388.72 37.97
4 7 7 39.82 11.8
4 7 7 35.14 12.15
4 7 7 30.38 11.67
4 7 7 56.15 14.77
4 7 7 34.29 11.91
4 7 8 328.4 37.63
4 8 1 73.59 16.92
5 -5 0 152.24 26.2
5 -5 1 -2.58 3.35
5 -5 1 4.64 6.02
5 -5 2 185.72 29.02
5 -5 2 192.66 30.43
5 -5 3 26.63 13.23
5 -5 4 273.15 34.23
5 -5 5 105.75 20.81
5 -4 -3 280.58 37.51
5 -4 -2 20.56 10.03
5 -4 -2 17.6 8.05
5 -4 -2 25.64 9.09
5 -4 -1 427.83 47.21
5 -4 -1 501.74 43.79
5 -4 -1 532.26 41.95
5 -4 0 4.93 5.54
5 -4 0 1.91 4.31
5 -4 0 3.26 3.67
5 -4 1 250.72 32.23
5 -4 1 278.23 35.95
5 -4 1 326.81 34.78
5 -4 1 319.35 31.87
5 -4 2 2.32 4.26
5 -4 2 1.92 3.53
5 -4 2 1.67 2.17
5 -4 3 436.48 37.47
5 -4 3 348.16 39.62
5 -4 3 444.31 38.57
5 -4 3 446.65 41.63
5 -4 4 34.51 10.43
5 -4 4 40.28 11.41
5 -4 4 32.49 9.89
5 -4 5 269.72 29.26
5 -4 5 330.83 32.39
5 -4 5 287.61 31.85
5 -4 6 51.74 13.67
5 -4 6 63.52 14.37
5 -4 7 367.31 37.04
5 -4 7 339.97 34.78
5 -3 -5 172.4 28.72
5 -3 -5 166.5 26.58
5 -3 -5 180.86 27.39
5 -3 -5 210.94 28.31
5 -3 -4 321.49 39.94
5 -3 -4 384.66 38.09
5 -3 -3 68.16 17.42
5 -3 -3 71.33 16.65
5 -3 -2 270.52 35.52
5 -3 -2 325.15 33.79
5 -3 -1 -2.34 0.03
5 -3 -1 1.43 1.85
5 -3 0 482.49 47.34
5 -3 0 576.47 45.55
5 -3 0 583.44 41.88
5 -3 1 44.11 13.84
5 -3 1 60.74 14.36
5 -3 1 73.99 14.64
5 -3 1 67.45 13.71
5 -3 2 673.76 46.57
5 -3 2 637.66 53.08
5 -3 2 664.51 49.33
5 -3 2 716.11 47.48
5 -3 3 1.5 2.75
5 -3 3 1.54 2.83
5 -3 3 2.02 2.62
5 -3 4 467.62 35.96
5 -3 4 465.07 36.33
5 -3 4 459 33.55
5 -3 4 479.45 35.77
5 -3 5 58.82 13.14
5 -3 5 88.02 16.35
5 -3 5 69.29 14.97
5 -3 5 70.53 13.9
5 -3 6 412.15 37.46
5 -3 6 401.83 36.06
5 -3 6 372.86 33.86
5 -3 6 359.21 33
5 -3 7 44 11.86
5 -3 7 30.07 9.98
5 -3 7 30.4 10.42
5 -3 7 24.55 8.5
5 -3 8 378.47 35.86
5 -3 8 362.5 35.67
5 -3 8 344.57 35.32
5 -3 9 101.04 18.45
5 -3 9 90.62 18.36
5 -3 9 83.71 17.52
5 -3 10 199.94 26.35
5 -2 -7 136.63 24.74
5 -2 -6 117.15 21.3
5 -2 -6 82.79 18.45
5 -2 -6 115.36 21.9
5 -2 -6 95.71 20.76
5 -2 -5 194.37 28.67
5 -2 -5 244.24 31.57
5 -2 -5 298.29 32.83
5 -2 -5 202.07 30.12
5 -2 -4 92.73 17.85
5 -2 -4 95.03 19.33
5 -2 -4 105.22 19.76
5 -2 -4 71.22 17.83
5 -2 -3 513.56 48.39
5 -2 -3 492.65 43.16
5 -2 -3 611.23 46.24
5 -2 -2 246.26 32.72
5 -2 -2 283.63 30.12
5 -2 -1 310.97 36.16
5 -2 -1 319 31.7
5 -2 0 79.58 17.77
5 -2 0 76.82 15.13
5 -2 0 80.04 14.65
5 -2 0 81.14 13.75
5 -2 1 1080.2 59.25
5 -2 1 901.76 64.34
5 -2 1 1018.39 60.51
5 -2 1 1101.1 58.11
5 -2 2 1.93 7.1
5 -2 2 22.92 8.19
5 -2 2 21.03 7.52
5 -2 2 15.75 6.39
5 -2 2 26.45 8.25
5 -2 3 823.22 50.07
5 -2 3 624.45 50.29
5 -2 3 754.47 50.52
5 -2 3 733.53 47.14
5 -2 3 809.83 49.11
5 -2 4 5.74 4.17
5 -2 4 7.08 4.51
5 -2 4 9.69 4.72
5 -2 4 7.17 4.57
5 -2 4 1.25 4.88
5 -2 5 373.71 33.24
5 -2 5 408 35.15
5 -2 5 460.19 36.22
5 -2 5 402.82 32.52
5 -2 5 394.7 33.12
5 -2 6 4.47 4.74
5 -2 6 1.53 2.81
5 -2 6 2.86 3.21
5 -2 6 6.35 5.05
5 -2 6 5.91 3.84
5 -2 7 871.15 55.79
5 -2 7 952.87 58.28
5 -2 7 1054.16 60.06
5 -2 7 970.52 58.83
5 -2 7 946.93 59.7
5 -2 8 196.49 24.48
5 -2 8 208.69 25.54
5 -2 8 194.81 25.04
5 -2 8 221.65 26.81
5 -2 8 192.53 25.57
5 -2 9 195.52 25.24
5 -2 9 215.2 26.87
5 -2 9 189.29 25.63
5 -2 9 151.36 23.62
5 -2 10 76.59 16.44
5 -2 10 73.1 15.64
5 -2 10 80.55 17.43
5 -2 10 74.77 16.06
5 -2 11 241.8 30.83
5 -2 11 231.05 29.74
5 -2 11 238.88 30.77
5 -1 -7 376.47 39.32
5 -1 -7 364.14 39.22
5 -1 -7 505.26 43.53
5 -1 -7 486.15 41.56
5 -1 -6 201.52 28.89
5 -1 -6 258.12 33.43
5 -1 -6 256.79 32.22
5 -1 -6 275.39 31.78
5 -1 -5 331.26 36.12
5 -1 -5 299.19 35.86
5 -1 -5 357.89 37.18
5 -1 -5 319.91 33.57
5 -1 -4 203.9 26.86
5 -1 -4 196.81 28.86
5 -1 -4 244.89 30.88
5 -1 -4 305.39 31.17
5 -1 -3 116.35 21.76
5 -1 -3 92.23 17.42
5 -1 -3 167.09 23.04
5 -1 -3 162.68 24.41
5 -1 -3 131.51 20.09
5 -1 -2 567.27 49.01
5 -1 -2 701.31 46.64
5 -1 -2 530.46 42.84
5 -1 -2 705.85 49.23
5 -1 -1 235.25 24.12
5 -1 -1 259.45 26.9
5 -1 -1 171.84 26.14
5 -1 -1 273.18 29.73
5 -1 0 614.36 41.26
5 -1 0 522.21 46.14
5 -1 0 662.82 43.94
5 -1 0 634.87 38.85
5 -1 1 268.82 25.74
5 -1 1 214.54 27.94
5 -1 1 254.19 25.7
5 -1 1 232 22.33
5 -1 1 244.76 23.27
5 -1 2 968.31 55.24
5 -1 2 874.54 59.98
5 -1 2 1050.22 57.09
5 -1 2 1096.34 54.77
5 -1 2 975.79 53.42
5 -1 3 -1.34 2.47
5 -1 3 1.67 2.16
5 -1 3 -1.3 2.39
5 -1 3 4.84 3.51
5 -1 3 -1.07 0.01
5 -1 4 826.75 50.43
5 -1 4 818.85 49.08
5 -1 4 838.32 45.82
5 -1 4 862.85 48.26
5 -1 4 734.49 46.83
5 -1 4 730.83 50.82
5 -1 5 1.42 3.18
5 -1 5 1.2 2.2
5 -1 5 2.76 2.54
5 -1 5 2.75 2.52
5 -1 5 1.29 1.68
5 -1 6 574.99 41.42
5 -1 6 548.87 40.41
5 -1 6 512.75 38.04
5 -1 6 527.5 39.29
5 -1 6 550.15 40.77
5 -1 7 3.01 3.91
5 -1 7 8.42 4.82
5 -1 7 4.34 3.76
5 -1 7 1.53 2.8
5 -1 7 4.7 4.07
5 -1 7 9.05 5.87
5 -1 8 958.46 58.28
5 -1 8 938.59 58.22
5 -1 8 998.63 59.83
5 -1 8 1030.28 60.3
5 -1 8 962.78 59.31
5 -1 8 1055.52 62.4
5 -1 9 39.96 11.31
5 -1 9 38.73 11.36
5 -1 9 42.87 11.64
5 -1 9 68.02 14.82
5 -1 9 51.71 13.16
5 -1 9 47.68 12.38
5 -1 10 211.18 27.24
5 -1 10 229.22 27.28
5 -1 10 252.99 28.79
5 -1 10 205.13 27.14
5 -1 10 254.91 29.59
5 -1 10 279.61 31.48
5 -1 11 45.53 12.93
5 -1 11 57.76 13.89
5 -1 11 40.29 12.62
5 -1 11 59.39 14.72
5 -1 12 176.08 25.47
5 0 -7 112.31 21.43
5 0 -7 120.76 22.25
5 0 -7 169.53 25.7
5 0 -7 184.36 25.51
5 0 -6 343.6 37.34
5 0 -6 336.98 38.18
5 0 -6 437.69 41.59
5 0 -6 440.54 39.39
5 0 -5 211.15 28.56
5 0 -5 216.98 28.15
5 0 -5 235.99 26.81
5 0 -5 189.45 26.11
5 0 -4 365.84 36.06
5 0 -4 371.65 36.85
5 0 -4 303.11 32.25
5 0 -4 261.11 32.92
5 0 -4 349.95 36.34
5 0 -4 379.22 34.06
5 0 -3 228.01 30.06
5 0 -3 270.21 31.01
5 0 -3 281.86 28.09
5 0 -3 251.55 28.64
5 0 -3 325.18 33.14
5 0 -2 532.1 45.69
5 0 -2 586.2 46.49
5 0 -2 552.51 39.86
5 0 -2 540.12 36.8
5 0 -2 524.77 41.16
5 0 -2 654.71 47.89
5 0 -1 812.97 57.76
5 0 -1 905.66 51.57
5 0 -1 1018.68 62.2
5 0 -1 800.43 47.97
5 0 -1 954.75 59.95
5 0 -1 852.56 51.9
5 0 0 241.78 21.49
5 0 0 256.12 24.69
5 0 0 300.73 26.25
5 0 0 246.91 29.35
5 0 0 269.1 30.22
5 0 1 925.12 51.44
5 0 1 944.11 48.75
5 0 1 848.01 57.52
5 0 2 101.37 15.24
5 0 2 89.32 12.89
5 0 2 84.24 13.38
5 0 2 84.83 12.33
5 0 2 54.36 13.22
5 0 3 652.45 42.7
5 0 3 660.11 41.51
5 0 3 701.1 40.56
5 0 3 666.36 39.97
5 0 3 612.98 45.64
5 0 4 115.28 15.34
5 0 4 135.26 18.11
5 0 4 116.14 16.54
5 0 4 103.35 14.98
5 0 4 101.55 14.9
5 0 4 134.25 19.3
5 0 5 1073.89 60.92
5 0 5 1146.36 59
5 0 5 1180.33 61.87
5 0 5 1160.51 57.93
5 0 5 1197 61.45
5 0 5 1212.35 61.51
5 0 6 24.46 7.67
5 0 6 27.31 8.76
5 0 6 12.38 5.58
5 0 6 18.3 6.85
5 0 6 1.36 5.33
5 0 6 23.35 7.58
5 0 7 683.44 45.77
5 0 7 747.62 48.74
5 0 7 707.4 46.01
5 0 7 685.63 46.84
5 0 7 715.79 47.47
5 0 7 719.51 47.56
5 0 8 42.69 11.07
5 0 8 29.79 9.39
5 0 8 36.49 10.12
5 0 8 50.09 12.07
5 0 8 30.33 9.56
5 0 8 50.09 12.07
5 0 9 501.36 40.73
5 0 9 482.4 40.05
5 0 9 556.41 42.54
5 0 9 512.46 41.11
5 0 9 536.59 42.33
5 0 9 465.71 40.37
5 0 10 10.28 5.9
5 0 10 17.65 7.95
5 0 10 16.26 7.79
5 0 10 11.91 6.64
5 0 10 14.81 7.61
5 0 10 10.37 5.95
5 0 11 543.05 45.32
5 0 11 551.53 46.19
5 0 11 531.21 43.79
5 0 11 518.85 43.62
5 0 11 530.19 45.76
5 0 12 23.66 9.62
5 0 12 30.83 11.03
5 0 12 29.45 10.96
5 0 12 35.19 11.05
5 1 -8 38.05 11.96
5 1 -7 191.75 28.02
5 1 -7 256.49 31.93
5 1 -7 266.53 30.22
5 1 -7 215.42 29.08
5 1 -6 99.52 19.69
5 1 -6 104.7 18.33
5 1 -6 77.04 18.19
5 1 -6 84.32 18.17
5 1 -6 71.66 16.61
5 1 -5 770.56 57.7
5 1 -5 817.34 57.51
5 1 -5 684.27 53.17
5 1 -5 746.4 56.58
5 1 -4 201.8 27.64
5 1 -4 235.73 29.32
5 1 -4 236.27 29.28
5 1 -4 193.93 25.6
5 1 -4 209.69 28.51
5 1 -3 767.29 55.26
5 1 -3 837.2 57.44
5 1 -3 789.94 54.85
5 1 -3 670.71 49.01
5 1 -3 723.71 54.46
5 1 -2 713.23 53.75
5 1 -2 785.84 53.47
5 1 -2 806.94 56.64
5 1 -2 673.18 47.68
5 1 -2 750.04 53.93
5 1 -1 195.78 26.15
5 1 -1 262.71 28.68
5 1 -1 241.64 22.13
5 1 -1 191.95 22.64
5 1 -1 221.37 27.72
5 1 0 207.48 26.77
5 1 0 258.81 27.93
5 1 0 244.87 23.02
5 1 0 279.91 30.57
5 1 0 242.79 24.47
5 1 1 605.07 39.38
5 1 1 626.21 37.08
5 1 1 630.28 39.73
5 1 1 667.68 46.1
5 1 1 570.33 45
5 1 1 676.07 50.12
5 1 2 1132.83 57.64
5 1 2 1111.79 55.01
5 1 2 1106.37 53.68
5 1 2 1024.88 62.22
5 1 3 200.14 20.53
5 1 3 228.81 23.42
5 1 3 264.24 23.97
5 1 3 245.3 22.58
5 1 3 221.22 25.43
5 1 4 1335.06 65.31
5 1 4 1389.36 68.51
5 1 4 1476.23 65.94
5 1 4 1318.54 66.3
5 1 4 1406.41 67.22
5 1 4 1425.34 64.69
5 1 4 1369.1 70.5
5 1 5 16.06 6.43
5 1 5 14.89 6.11
5 1 5 23.52 7.6
5 1 5 16.22 6.04
5 1 5 15.5 6.07
5 1 5 20.08 6.46
5 1 6 469.34 36.81
5 1 6 505.37 36.97
5 1 6 471.94 36.63
5 1 6 513.99 37.91
5 1 6 450.73 34.65
5 1 6 501.05 35.2
5 1 7 59.97 12.51
5 1 7 31.07 9.51
5 1 7 57.58 12.44
5 1 7 50.28 11.91
5 1 7 49.95 11.3
5 1 8 854.6 53.2
5 1 8 700.72 49.41
5 1 8 828.2 52.67
5 1 8 791.83 51.52
5 1 8 760.04 49.83
5 1 9 1.63 3
5 1 9 1.64 3.02
5 1 9 1.67 2.17
5 1 9 -1.65 3.02
5 1 9 1.64 3.02
5 1 10 593.23 46.05
5 1 10 573.03 45.07
5 1 10 614.57 46.44
5 1 10 640.6 48.52
5 1 10 583.58 46.22
5 1 11 31.26 10.16
5 1 11 28.38 9.81
5 1 11 29.31 10.49
5 1 11 32.04 10.11
5 1 11 26.86 10.3
5 1 12 381.6 38.06
5 1 12 342.33 35.83
5 1 12 360.43 36.02
5 1 12 324.36 34.46
5 1 12 384.07 39.61
5 1 12 397.91 39.5
5 1 13 34.81 11.55
5 2 -7 18.35 9.65
5 2 -7 39.93 12.81
5 2 -7 54.06 14.87
5 2 -7 27.97 11.19
5 2 -6 371.62 37.68
5 2 -6 400.85 38.96
5 2 -6 332.27 38.71
5 2 -6 292.12 32.95
5 2 -5 37.79 13.42
5 2 -5 54.8 14.48
5 2 -5 34.36 11.14
5 2 -5 51.85 13.75
5 2 -5 29.41 10.97
5 2 -4 790.92 53.8
5 2 -4 876.17 54.91
5 2 -4 867.24 58.3
5 2 -4 968.96 59.16
5 2 -4 846.35 52.86
5 2 -3 167.78 25.16
5 2 -3 154.73 23.98
5 2 -3 158.13 23.04
5 2 -3 126.48 20.07
5 2 -3 171.62 25.23
5 2 -2 803.97 56.64
5 2 -2 728.71 51.33
5 2 -2 681.92 48.3
5 2 -2 673.92 52.44
5 2 -1 897.99 61.06
5 2 -1 1027.09 60.97
5 2 -1 1062.59 66.66
5 2 -1 959.15 57.12
5 2 -1 1079.13 66.48
5 2 0 403.48 37.48
5 2 0 425.93 35.09
5 2 0 397.73 37.74
5 2 0 376.09 27.93
5 2 0 381.9 36.67
5 2 0 345.37 30.86
5 2 1 294.29 27.04
5 2 1 293.74 23.93
5 2 1 357.03 27.51
5 2 1 367.58 35.78
5 2 1 372.54 31.95
5 2 1 288.76 31.11
5 2 1 353.34 34.38
5 2 2 747.95 46
5 2 2 826.91 45.97
5 2 2 843.88 46.55
5 2 2 979.16 60.99
5 2 2 921.57 49.33
5 2 2 909.35 51.82
5 2 2 867.68 55.57
5 2 2 906.27 58.61
5 2 3 618.4 39.68
5 2 3 601.98 39.04
5 2 3 594.74 39.12
5 2 3 649.37 40.97
5 2 3 653.01 41.25
5 2 3 714.66 42.68
5 2 3 633.03 45.36
5 2 3 685.99 49.69
5 2 4 79.48 13.45
5 2 4 59.7 11.85
5 2 4 57.16 11.5
5 2 4 64.63 12.4
5 2 4 68.98 12.57
5 2 4 68.48 12.37
5 2 4 68.2 11.65
5 2 4 57.32 12.56
5 2 4 63.64 12.19
5 2 5 1312.44 67.56
5 2 5 1330.94 68
5 2 5 1323.34 63.76
5 2 5 1391.91 64.15
5 2 5 1460.82 68.02
5 2 5 1403.71 66.91
5 2 5 1411.21 69.38
5 2 6 109.98 17
5 2 6 89.72 15.49
5 2 6 104.02 15.49
5 2 6 88.79 14.3
5 2 6 86.08 14.07
5 2 6 106.67 14.98
5 2 6 93.41 15.71
5 2 7 642.55 44.97
5 2 7 568.19 42.94
5 2 7 654.4 43.55
5 2 7 674.04 44.19
5 2 7 685.14 42.77
5 2 7 660.77 45.41
5 2 8 84.43 16.05
5 2 8 79.64 15.03
5 2 8 62.19 13.77
5 2 8 83.18 15.38
5 2 8 96.83 16.63
5 2 9 479.81 40.16
5 2 9 529.08 41.9
5 2 9 548.12 42.5
5 2 9 420.68 37.64
5 2 9 495.09 39.69
5 2 10 5.2 4.51
5 2 10 8.74 6.01
5 2 10 5.18 4.49
5 2 10 14.31 6.97
5 2 10 8.17 5.2
5 2 11 405.67 38.84
5 2 11 454.61 40.22
5 2 11 495.85 41.72
5 2 11 462.82 41.61
5 2 11 395.17 37.83
5 2 12 1.9 5.52
5 2 12 14.8 7.6
5 2 12 3.72 4.84
5 2 12 9.12 5.8
5 2 12 14.31 7.51
5 2 13 250.76 30.92
5 3 -7 558.26 47.37
5 3 -7 207.8 32.64
5 3 -7 -2.25 4.13
5 3 -7 459.55 42.28
5 3 -6 2.73 5.01
5 3 -6 2.07 3.8
5 3 -6 2.13 2.77
5 3 -5 720.35 52.62
5 3 -5 917.09 57.47
5 3 -5 691.46 56.15
5 3 -5 1034.28 64.23
5 3 -5 7.23 13.27
5 3 -5 1.93 2.52
5 3 -5 709.5 49.95
5 3 -4 180.28 26.55
5 3 -4 206.67 26.64
5 3 -4 169.48 27.22
5 3 -4 257.03 31.99
5 3 -4 -6.79 21.58
5 3 -4 -1.75 0.12
5 3 -4 203.21 26.2
5 3 -3 806.28 54.08
5 3 -3 891.36 53.36
5 3 -3 763.43 55.26
5 3 -3 991.68 60.44
5 3 -3 6.37 14.33
5 3 -3 808.68 50.51
5 3 -2 150.81 24.84
5 3 -2 187.22 26.74
5 3 -2 182.21 23.72
5 3 -2 121.24 19.6
5 3 -2 100.17 19.7
5 3 -1 560.54 47.41
5 3 -1 618.43 49.59
5 3 -1 632.52 44.68
5 3 -1 509.77 40.96
5 3 -1 531.84 45.45
5 3 0 209.19 27.4
5 3 0 266.28 30.78
5 3 0 228.73 25.03
5 3 0 232.07 25.55
5 3 0 240.05 28.95
5 3 1 635.52 49.29
5 3 1 806.69 47.8
5 3 1 872.66 57.12
5 3 1 657.09 45.42
5 3 1 706.67 51.93
5 3 2 1007.22 64.34
5 3 2 1270.81 64.29
5 3 2 1397.14 74.12
5 3 2 1132.25 57.11
5 3 2 1102.68 58.86
5 3 2 1142.51 61.27
5 3 2 1179.69 68.67
5 3 3 651.47 47.92
5 3 3 717.56 44.69
5 3 3 777.04 52.04
5 3 3 663.65 45.38
5 3 3 686.6 42.75
5 3 3 663.12 43.89
5 3 3 680.37 43.66
5 3 3 726.15 50.86
5 3 4 449.77 37.59
5 3 4 478.38 34.52
5 3 4 517.8 40.98
5 3 4 489.08 36.98
5 3 4 480.19 36.61
5 3 4 501.74 40.67
5 3 4 466.18 36.86
5 3 5 130.21 18.21
5 3 5 136.55 19.81
5 3 5 131.87 18.75
5 3 5 133.33 18.16
5 3 5 151.83 21.15
5 3 5 163.81 22.48
5 3 6 550.47 39.6
5 3 6 547.09 38.5
5 3 6 548.23 40.66
5 3 6 531.1 42.64
5 3 6 521.83 40.08
5 3 6 523.1 37.22
5 3 7 94.32 15.84
5 3 7 116.31 16.74
5 3 7 98.82 16.76
5 3 7 82.7 15.94
5 3 7 95.87 16.09
5 3 8 848.76 51.98
5 3 8 849.93 54.3
5 3 8 720.23 51.22
5 3 8 813.03 52.34
5 3 9 42.21 11.45
5 3 9 34.59 9.83
5 3 9 44.25 12.16
5 3 9 42.17 11.64
5 3 10 419.38 36.49
5 3 10 469.89 40.16
5 3 10 401.48 37.25
5 3 10 397.64 37.46
5 3 10 427.89 39.13
5 3 11 -1.83 3.35
5 3 11 1.8 3.31
5 3 11 3.61 4.06
5 3 11 1.95 2.53
5 3 12 326.64 35.16
5 3 12 323.27 35.05
5 3 12 358.79 36.13
5 3 12 354.28 37.93
5 4 -6 525.43 51.44
5 4 -6 368.21 39.25
5 4 -6 556.73 48.03
5 4 -6 487.47 44.44
5 4 -6 426.09 42.75
5 4 -5 22.38 10.9
5 4 -5 2.58 8.2
5 4 -5 2.08 2.71
5 4 -5 2.1 4.72
5 4 -5 9.86 5.73
5 4 -5 11.34 7.21
5 4 -4 617.62 52.62
5 4 -4 680.16 52.01
5 4 -4 551.94 54.04
5 4 -4 618.11 48.37
5 4 -4 650.07 51.38
5 4 -3 19.59 9.56
5 4 -3 37.37 12.88
5 4 -3 19.2 9.01
5 4 -3 23.79 8.92
5 4 -3 24.01 9.84
5 4 -2 967.35 69.94
5 4 -2 1257.14 77.72
5 4 -2 1010 65.34
5 4 -2 1224.91 68.31
5 4 -2 1126.52 67.81
5 4 -1 204.45 29.04
5 4 -1 302.79 34.59
5 4 -1 215.54 26.92
5 4 -1 245.27 28.37
5 4 -1 239.71 26.59
5 4 0 738.45 55.65
5 4 0 759.73 51.81
5 4 0 690.69 45.06
5 4 0 694.71 50.34
5 4 0 723.67 50.45
5 4 0 832.34 50.21
5 4 1 295.52 32.76
5 4 1 310.12 34.29
5 4 1 294.12 30.3
5 4 1 283.26 27.11
5 4 1 283.14 29.77
5 4 1 293.37 29.49
5 4 2 374.21 36.63
5 4 2 431.25 36.52
5 4 2 426 35.47
5 4 2 393.08 33.55
5 4 2 407.19 35.87
5 4 3 505.53 41.05
5 4 3 609.65 45.93
5 4 3 522.91 40.03
5 4 3 479.23 38.61
5 4 3 508.91 38.34
5 4 3 512.14 38.04
5 4 3 464.5 38.11
5 4 3 437.74 37.09
5 4 4 577.06 43.74
5 4 4 527.48 39.76
5 4 4 486.47 38.76
5 4 4 452.63 35.79
5 4 4 471.96 36.65
5 4 4 428.25 37.71
5 4 5 440.64 35.81
5 4 5 416.04 34.9
5 4 5 350 34.38
5 4 5 407.87 33.53
5 4 5 396.15 32.36
5 4 6 405.39 34.59
5 4 6 391.22 34.46
5 4 6 345.85 31.96
5 4 6 308.12 33.43
5 4 6 349.64 31.29
5 4 7 793.76 57.65
5 4 7 805.98 51.97
5 4 7 743.76 51.96
5 4 7 830.77 51.93
5 4 8 24.5 10.3
5 4 8 31.99 10.52
5 4 8 39.86 10.99
5 4 8 27.56 9.15
5 4 9 325.45 33.62
5 4 9 387.33 35.54
5 4 9 414.35 37.29
5 4 10 30.79 10.56
5 4 10 33.65 10.9
5 4 10 34.06 10.71
5 4 10 34.31 10.49
5 4 11 221.82 27.95
5 4 11 213.05 28.53
5 4 11 194.95 25.96
5 4 11 202.63 27.23
5 4 11 169.38 25.09
5 4 12 7.4 5.38
5 4 12 11.92 7.3
5 5 -6 2.41 5.42
5 5 -5 324.34 38.85
5 5 -5 417.73 40.67
5 5 -5 429.42 41.79
5 5 -5 384.79 38.94
5 5 -5 299.94 36.09
5 5 -4 10.11 6.43
5 5 -4 16.26 7.92
5 5 -4 2.15 7.9
5 5 -4 2.86 3.71
5 5 -4 11.27 8.18
5 5 -4 5.66 4.9
5 5 -3 602.24 48.26
5 5 -3 575.95 47.06
5 5 -3 550.5 47.78
5 5 -3 661.42 57.96
5 5 -3 647.95 49.21
5 5 -2 26.37 9.49
5 5 -2 31.48 10.17
5 5 -2 16.28 7.95
5 5 -2 25.08 10.82
5 5 -2 46.63 15.05
5 5 -2 12.66 6.67
5 5 -1 1027.27 73.39
5 5 -1 1129.67 68.03
5 5 -1 1106.96 63.34
5 5 -1 1002.49 67.51
5 5 -1 1266.73 71.69
5 5 0 89.69 19.36
5 5 0 153.8 26.25
5 5 0 126.46 20.53
5 5 0 110.91 17.87
5 5 0 134.74 21.77
5 5 0 129.17 20.56
5 5 1 484.94 44.47
5 5 1 602.46 45.51
5 5 1 563.42 43.97
5 5 1 548.01 42.21
5 5 1 544.31 45.24
5 5 2 282.27 33.34
5 5 2 205.09 25.79
5 5 2 212.96 25.99
5 5 2 222.98 26.15
5 5 2 210.1 25.58
5 5 2 213.45 25.66
5 5 2 249.83 29.42
5 5 3 447.6 38.61
5 5 3 463.39 39.13
5 5 3 443.75 37.51
5 5 3 433.63 37.5
5 5 3 465.7 39.65
5 5 4 399.68 35.67
5 5 4 470.65 41.4
5 5 4 364.67 34.55
5 5 4 335.54 34.62
5 5 4 409.54 35.6
5 5 4 387.29 34.34
5 5 5 427.59 37.04
5 5 5 436.45 37.6
5 5 5 343.05 35.78
5 5 5 348.77 33.55
5 5 5 370.86 33.16
5 5 6 302.08 31.54
5 5 6 396.28 35.74
5 5 6 346.45 36.1
5 5 6 312.77 31.67
5 5 6 359.93 32.1
5 5 7 288.46 30.78
5 5 7 295.46 31.23
5 5 7 314.78 32.14
5 5 7 241.88 31.53
5 5 7 268.93 29.39
5 5 8 412.52 37.39
5 5 8 418.94 37.92
5 5 8 438.21 38.88
5 5 8 313.85 37.08
5 5 8 392.51 36.82
5 5 9 39.48 11.71
5 5 9 43.01 12.15
5 5 9 37.48 11.41
5 5 9 43.03 13.84
5 5 10 271.52 31.29
5 5 10 325.51 33.95
5 5 10 265.98 35.57
5 5 10 309.17 33.43
5 6 -4 545.75 47.64
5 6 -3 3.01 5.53
5 6 -3 9.13 6.63
5 6 -3 20.38 8.78
5 6 -2 139.42 28
5 6 -2 248.37 37.8
5 6 -2 564.23 44.51
5 6 -2 489.84 45.23
5 6 -2 552.65 41.9
5 6 -2 592.63 47.1
5 6 -1 30.33 11.95
5 6 -1 47.99 16.06
5 6 -1 59.33 14.34
5 6 -1 76.84 15.45
5 6 -1 72.96 17.06
5 6 -1 81.62 17.19
5 6 0 509.15 52.37
5 6 0 648.74 49.45
5 6 0 585.02 45.69
5 6 0 675.3 53.99
5 6 0 609.1 48.6
5 6 1 73.62 15.76
5 6 1 50.96 15.64
5 6 1 75.13 15.91
5 6 1 72.06 15.86
5 6 1 62.72 14.67
5 6 1 92.53 19.26
5 6 2 433.98 45.23
5 6 2 504.05 42.51
5 6 2 515.19 42.35
5 6 2 519.18 42.8
5 6 2 473.72 41.9
5 6 2 401.51 38.85
5 6 3 111.8 19.05
5 6 3 70.95 17.55
5 6 3 87.68 17.49
5 6 3 101.21 18.51
5 6 3 125.18 20.61
5 6 3 106.62 19.35
5 6 4 574.79 45.23
5 6 4 583.77 46.59
5 6 4 495.24 44.79
5 6 4 568.5 45.9
5 6 4 602.41 46.04
5 6 5 172.19 23.92
5 6 5 195.3 26.41
5 6 5 149.51 24.17
5 6 5 191.81 25.61
5 6 5 181.75 24.4
5 6 6 232.65 28.09
5 6 6 241.29 29.36
5 6 6 187.35 27.94
5 6 6 206.03 27.12
5 6 6 237.52 27.7
5 6 7 290.98 32.01
5 6 7 297.49 32.64
5 6 7 322.17 34.88
5 6 7 289.89 35.27
5 6 7 284.54 31.97
5 6 8 104.57 19.3
5 6 8 77.03 16.58
5 6 8 117.49 21.07
5 6 8 118.91 22.98
5 6 8 101.22 19.1
5 6 9 234.58 29.34
5 6 9 225.06 30.23
5 6 9 250.29 34.04
5 6 9 286.14 32.75
5 7 -1 297.78 33.38
5 7 -1 342.91 35.94
5 7 -1 316.28 34.42
5 7 0 7.53 4.89
5 7 0 -1.95 2.54
5 7 0 2.05 3.76
5 7 0 3.91 4.39
5 7 0 2.43 3.16
5 7 1 621.32 48.61
5 7 1 672.73 51.89
5 7 1 652.53 51.73
5 7 1 622.41 51.73
5 7 1 549.61 47.63
5 7 1 585.19 53.14
5 7 2 12.85 6.75
5 7 2 15.9 8.17
5 7 2 12.49 7.65
5 7 2 7.95 5.78
5 7 2 24.46 9.91
5 7 3 442.14 39.82
5 7 3 388.64 39.21
5 7 3 360.33 37.45
5 7 3 411.43 40.5
5 7 3 337.99 37.59
5 7 4 270.35 30.97
5 7 4 285.24 33.72
5 7 4 289.65 34.48
5 7 4 299.66 33.79
5 7 4 257.72 31.24
5 7 5 179.58 25.17
5 7 5 188.91 27.44
5 7 5 180.97 27.67
5 7 5 167.58 25.4
5 7 5 189.93 26.3
5 7 6 55.82 14.44
6 -3 -1 265.92 36.79
6 -3 -1 292.74 33.56
6 -3 0 102.18 22.22
6 -3 0 140.14 22.58
6 -3 1 36.45 13.07
6 -3 1 49.82 13.68
6 -3 1 47.56 12.34
6 -3 2 351.23 34.6
6 -3 2 303.6 38.08
6 -3 2 426.69 36.73
6 -3 2 422.31 39.59
6 -3 3 13.55 7.3
6 -3 3 21.8 8.44
6 -3 3 7.67 5.58
6 -3 4 372.03 36.13
6 -3 4 372.9 37.82
6 -3 4 351.51 34.75
6 -3 5 76.78 16.11
6 -3 5 57.6 13.94
6 -3 5 91.19 17.8
6 -3 6 318.19 33.33
6 -3 6 292.24 32.64
6 -3 6 315.57 33.71
6 -3 7 1.73 3.88
6 -2 -3 46.65 12.93
6 -2 -3 44.57 14.01
6 -2 -3 42.54 14.94
6 -2 -2 245.87 29.62
6 -2 -2 195.38 30.44
6 -2 -1 404.66 37.87
6 -2 -1 281.07 37.04
6 -2 0 212.87 25.96
6 -2 0 234.81 28.41
6 -2 0 208.05 30.87
6 -2 1 308.11 31
6 -2 1 349.19 34.29
6 -2 1 232.75 32.61
6 -2 2 116.07 19.23
6 -2 2 124.29 18.69
6 -2 2 99.08 20.47
6 -2 3 223.4 25.91
6 -2 3 234 26.57
6 -2 3 281.17 29.61
6 -2 4 102.56 17.43
6 -2 4 82.26 15.83
6 -2 4 74.14 15.32
6 -2 5 480.25 40.22
6 -2 5 533.13 41.67
6 -2 5 468.8 39.97
6 -2 6 22.02 8.83
6 -2 6 39.73 11.24
6 -2 6 21.74 8.1
6 -2 6 30.53 10.12
6 -2 7 338.35 34.42
6 -2 7 323.75 33.45
6 -2 7 353.06 33.95
6 -2 7 292.17 32
6 -2 8 -1.81 3.32
6 -2 8 1.71 2.23
6 -2 8 -1.9 3.49
6 -2 8 1.77 3.25
6 -2 8 1.75 3.94
6 -2 9 393.3 37.99
6 -2 9 384.2 36.97
6 -1 -5 462.65 45.19
6 -1 -5 661.52 50.74
6 -1 -4 75.55 18.49
6 -1 -4 89.24 18.12
6 -1 -4 99.36 21.71
6 -1 -3 327.14 37.89
6 -1 -3 232.04 33.06
6 -1 -2 155.5 25.7
6 -1 -2 143.96 23.47
6 -1 -2 155.23 26.79
6 -1 -1 275.83 28.43
6 -1 -1 263.32 32.43
6 -1 -1 239.33 32.35
6 -1 0 168.74 22.62
6 -1 0 204.07 28.23
6 -1 0 225.52 30.9
6 -1 1 269.87 33.94
6 -1 1 332.4 31.18
6 -1 2 243.99 31.52
6 -1 2 257.79 26.12
6 -1 2 285.58 29.24
6 -1 3 309.72 34.43
6 -1 3 319.35 31.37
6 -1 3 327.78 30.24
6 -1 4 664.65 47.44
6 -1 4 688.5 46.01
6 -1 4 661.87 45.65
6 -1 5 16.34 7.37
6 -1 5 23.28 8.08
6 -1 5 19.73 7.66
6 -1 5 29.06 8.64
6 -1 6 340.55 33.58
6 -1 6 353.28 33.75
6 -1 6 353.65 32.75
6 -1 6 409.11 35.65
6 -1 7 48.34 12.55
6 -1 7 47.54 12.35
6 -1 7 47.88 12.82
6 -1 7 45.02 11.7
6 -1 8 226.57 27.54
6 -1 8 215.17 27.16
6 -1 8 206.12 25.82
6 -1 8 181.27 24.74
6 -1 8 213.18 27.39
6 -1 9 58.2 14.43
6 -1 9 42.33 12.19
6 -1 9 40.18 11.69
6 -1 9 47.93 13.24
6 -1 9 50.54 13.12
6 -1 10 621.53 48.87
6 -1 10 607.67 48.86
6 -1 10 576.88 47.66
6 -1 10 630.9 49.46
6 -1 10 556.78 48.2
6 0 -5 11.42 7.27
6 0 -5 -9 16.53
6 0 -5 21.36 10.22
6 0 -5 10.28 6.54
6 0 -4 698.33 56.09
6 0 -4 635.47 55.15
6 0 -4 594.29 50.03
6 0 -3 88.58 18.74
6 0 -3 88.07 19.13
6 0 -3 88.01 19.65
6 0 -2 481.95 36.5
6 0 -2 416.17 42.37
6 0 -2 394.47 41.94
6 0 -2 499.11 45.32
6 0 -1 118.87 17.79
6 0 -1 172.98 26.26
6 0 -1 121.56 22.73
6 0 -1 141.5 23.86
6 0 0 451.95 36.03
6 0 0 506.52 45.65
6 0 0 492.64 45.06
6 0 0 349.16 39.11
6 0 1 243.09 26.22
6 0 1 311.93 35.74
6 0 1 259.77 32.01
6 0 2 225.09 29.7
6 0 2 297.31 27.01
6 0 2 288.91 28.73
6 0 3 286.34 32.6
6 0 3 330.52 31.23
6 0 3 366.83 31.16
6 0 4 341.11 32.07
6 0 4 331.29 30.39
6 0 5 532.89 42.34
6 0 5 560.05 42.04
6 0 5 611.05 42.02
6 0 5 567.68 40.8
6 0 6 147.76 21.7
6 0 6 167.5 22.36
6 0 6 148.88 20.85
6 0 6 164.72 21.59
6 0 7 301.31 32.11
6 0 7 343.2 33.26
6 0 7 314.21 31.49
6 0 7 346.3 33.12
6 0 8 1.78 9.56
6 0 8 22.22 8.27
6 0 8 31.52 9.83
6 0 8 27.9 9.89
6 0 8 20.73 8.41
6 0 8 28.63 9.3
6 0 9 355.94 34.82
6 0 9 403.05 38
6 0 9 338.02 34.94
6 0 9 366.18 35.19
6 0 9 364.25 35.53
6 0 9 351.99 35.55
6 0 10 32.68 10.56
6 0 10 13.36 7.04
6 0 10 35.27 11.33
6 0 10 22.55 9.78
6 0 10 23.57 9.57
6 0 10 29.75 10.27
6 0 11 388.8 38.53
6 0 11 351.83 37.08
6 0 11 423.68 39.84
6 0 11 360.39 37.87
6 1 -5 500.16 48.42
6 1 -5 600.29 51.66
6 1 -5 466.49 44.36
6 1 -5 449.22 46.08
6 1 -4 48.51 14.42
6 1 -4 51.37 14.82
6 1 -4 33.15 11.37
6 1 -4 35.44 12.25
6 1 -4 27.85 11.32
6 1 -3 614.39 52.37
6 1 -3 611.46 52.58
6 1 -3 630.4 51.98
6 1 -3 564.95 50.52
6 1 -3 485.3 43.49
6 1 -2 59.02 15.6
6 1 -2 91.51 19.97
6 1 -2 32.68 10.56
6 1 -2 45.77 13.3
6 1 -2 49.13 14.27
6 1 -1 467.14 45.41
6 1 -1 465.53 42.66
6 1 -1 336.74 38.68
6 1 -1 430.82 42.52
6 1 0 155.18 19.74
6 1 0 191.42 26.47
6 1 0 117.86 21.98
6 1 0 186.18 27.01
6 1 1 842.06 51.03
6 1 1 887.98 59.22
6 1 1 718.76 56
6 1 1 957.03 64.69
6 1 2 248.82 26.08
6 1 2 275.95 31.1
6 1 2 315.72 35.92
6 1 2 247.84 30.6
6 1 3 470.35 41.54
6 1 3 491.42 38.18
6 1 3 480.01 35.76
6 1 4 272.42 28.23
6 1 4 254.74 26.39
6 1 4 284.58 27.05
6 1 5 74.24 14.71
6 1 5 78.43 14.57
6 1 5 87.22 15.01
6 1 6 525.03 41.16
6 1 6 530.83 40.98
6 1 6 582.69 44.03
6 1 6 572.27 41.3
6 1 7 317.66 31.99
6 1 7 320.93 31.86
6 1 7 310.36 30.47
6 1 7 321.88 32.64
6 1 7 307.56 30.1
6 1 8 382.96 36.15
6 1 8 355.29 34.76
6 1 8 404.46 36.01
6 1 8 328.74 34.23
6 1 8 377.32 34.89
6 1 9 86.13 17.11
6 1 9 87.47 17.31
6 1 9 67.73 15.13
6 1 9 86.64 16.78
6 1 9 68.92 15.14
6 1 9 48.71 13.26
6 1 10 337.57 34.73
6 1 10 330.38 34.74
6 1 10 295.79 32.68
6 1 10 283.29 32.63
6 1 10 316.47 33.46
6 1 10 279.27 32.86
6 1 11 -1.96 2.54
6 1 11 2.05 2.66
6 1 11 1.91 2.48
6 1 11 5.92 5.13
6 1 11 2.03 2.63
6 1 11 1.91 3.51
6 2 -5 2.28 2.96
6 2 -5 -2.09 2.71
6 2 -4 316.62 36.77
6 2 -4 382.68 38.93
6 2 -4 350.62 39.5
6 2 -4 416.82 41.98
6 2 -4 331.56 34.7
6 2 -3 -2.39 0.01
6 2 -3 2.31 3.01
6 2 -3 -1.89 0.01
6 2 -3 2.11 2.74
6 2 -3 -2.31 4.24
6 2 -2 979.41 68.91
6 2 -2 1038.58 70.6
6 2 -2 1120.64 68.93
6 2 -2 840.66 63.94
6 2 -2 889.05 59.81
6 2 -1 22.18 9.56
6 2 -1 11.43 7.29
6 2 -1 18.36 7.83
6 2 -1 21.19 8.68
6 2 -1 17.54 8.55
6 2 0 985.25 67.22
6 2 0 892.86 58.68
6 2 0 728.71 57.39
6 2 0 796.03 60.63
6 2 1 476.8 45.06
6 2 1 396.91 36.75
6 2 1 371.06 38.52
6 2 1 375.5 39.73
6 2 2 192.49 22.25
6 2 2 253.98 32.19
6 2 2 232.12 26.72
6 2 2 164.86 25
6 2 2 209.97 28.78
6 2 3 87.65 17.6
6 2 3 109.76 20.74
6 2 3 140.66 19.35
6 2 3 127.52 17.69
6 2 4 1167.79 61.58
6 2 4 1112.08 62.31
6 2 4 1068.7 60.18
6 2 4 1280.44 77
6 2 4 1069.41 60.19
6 2 4 1021.65 58.98
6 2 5 239.42 25.81
6 2 5 239.92 25.69
6 2 5 242.28 27.05
6 2 5 209.56 24.46
6 2 5 228.96 25.36
6 2 6 245.23 27.84
6 2 6 262.1 27.54
6 2 6 260.48 28.17
6 2 6 256.98 27.97
6 2 7 526.48 43.03
6 2 7 533.81 42.09
6 2 7 530.56 42.62
6 2 7 548.37 42.89
6 2 8 42.1 11.64
6 2 8 51.53 13.12
6 2 8 47.26 12.31
6 2 9 236.24 28.92
6 2 9 284.76 32.1
6 2 9 252.7 30.22
6 2 9 323.05 32.61
6 2 9 282.34 30.73
6 2 10 130.71 21.39
6 2 10 131.43 22.27
6 2 10 156.67 23.88
6 2 10 190.31 25.65
6 2 10 136.81 22.14
6 2 11 356.87 36.47
6 2 11 311.12 34.98
6 2 11 313.08 34.24
6 2 11 252.6 31.72
6 2 11 315.83 34.64
6 3 -5 532.78 53.95
6 3 -5 426.94 43.91
6 3 -5 510.62 49.22
6 3 -4 2.75 5.05
6 3 -4 -2.51 3.25
6 3 -4 2.07 4.66
6 3 -4 2.2 4.94
6 3 -4 -2.41 0.02
6 3 -3 544.58 52.8
6 3 -3 606.2 53.78
6 3 -3 606.72 49.99
6 3 -3 465.19 43.34
6 3 -3 492.39 48.18
6 3 -2 4.98 5.6
6 3 -2 2.38 3.09
6 3 -2 -1.88 2.45
6 3 -2 1.98 6.8
6 3 -2 2.32 5.21
6 3 -1 800.19 63.01
6 3 -1 967.55 67.99
6 3 -1 959.45 61.09
6 3 -1 746.76 59.55
6 3 -1 777.13 55.11
6 3 0 22.69 9.79
6 3 0 29.66 11.1
6 3 0 16.86 7.28
6 3 0 15.68 7.52
6 3 0 32.86 11.39
6 3 1 736.53 57.68
6 3 1 838.4 62.35
6 3 2 223.79 30.53
6 3 2 159.75 22.18
6 3 2 164.8 25.03
6 3 2 195.78 27.95
6 3 3 400.61 32.98
6 3 3 379.99 35.32
6 3 3 362.31 31.62
6 3 3 417.54 35.18
6 3 3 404.78 40.03
6 3 3 301.17 34.26
6 3 4 109.19 17.28
6 3 4 118.73 18.24
6 3 4 127.69 21.99
6 3 4 172.96 25.46
6 3 4 146.87 20.96
6 3 4 134.76 19.52
6 3 4 124.39 18.6
6 3 4 143.14 20.34
6 3 5 652.47 46.45
6 3 5 667.66 47.45
6 3 5 803.85 57.39
6 3 5 696 47.99
6 3 5 794.34 56.28
6 3 5 763.78 50
6 3 5 673.76 47.89
6 3 5 765.9 50.34
6 3 6 299.52 29.66
6 3 6 294.93 29.1
6 3 6 258.48 28.33
6 3 6 295.65 31.47
6 3 6 235.34 27.41
6 3 6 234.41 27.33
6 3 7 237.62 26.27
6 3 7 218.03 26.64
6 3 7 198.49 27.36
6 3 7 256.91 29.11
6 3 7 277.4 30.18
6 3 8 310.41 32.35
6 3 8 278.73 31.72
6 3 8 301.43 32.22
6 3 9 129.02 21
6 3 9 112.32 20.09
6 3 9 130.68 21.56
6 3 10 259.97 30.61
6 3 10 195.68 27.39
6 3 10 248.08 30.2
6 3 10 252.25 30.18
6 3 11 118.33 21.56
6 3 11 109.76 20.49
6 4 -4 250.21 37.69
6 4 -4 390.35 45.17
6 4 -4 347.25 38.24
6 4 -4 296.5 35.31
6 4 -4 279.95 36.62
6 4 -3 8.37 8.1
6 4 -3 2.66 9.14
6 4 -3 8.42 6.11
6 4 -3 2.08 4.69
6 4 -3 4.93 5.55
6 4 -2 824.2 66.63
6 4 -2 1041.12 72.98
6 4 -2 907.98 63.51
6 4 -2 925.23 61.66
6 4 -2 738.11 56.41
6 4 -2 721.91 60.74
6 4 -1 2.37 5.33
6 4 -1 8.03 6.39
6 4 -1 9.94 6.46
6 4 -1 17.56 9.21
6 4 -1 21.93 8.56
6 4 -1 5.83 4.37
6 4 0 807.55 62.74
6 4 0 867.92 58.85
6 4 0 704.08 58.33
6 4 0 781.9 55.91
6 4 1 4.56 4.19
6 4 1 2.32 4.26
6 4 1 1.89 3.48
6 4 1 5.42 4.69
6 4 1 11.14 7.09
6 4 1 7.13 4.63
6 4 2 415.33 42.06
6 4 2 515.79 41.9
6 4 2 440.45 43.29
6 4 2 578.52 50.06
6 4 2 502.09 43.47
6 4 3 28.92 10.78
6 4 3 43.05 12.81
6 4 3 31.32 10.16
6 4 3 50.77 14.31
6 4 3 38.83 11.28
6 4 3 38.84 10.97
6 4 4 690.51 50.31
6 4 4 743.74 51.66
6 4 4 664.95 47.38
6 4 5 230.83 27.14
6 4 5 231.72 27.43
6 4 5 258.92 28.62
6 4 5 200.48 26.67
6 4 6 449.72 38.33
6 4 6 370.93 35.88
6 4 6 438.63 37.61
6 4 6 403.85 39.37
6 4 6 358.06 35.09
6 4 7 195.41 25
6 4 7 173.37 24.25
6 4 7 193.35 24.52
6 4 7 171.79 25.99
6 4 7 192.97 25.98
6 4 8 299.19 30.95
6 4 8 275.55 31.12
6 4 8 217.26 30.82
6 4 8 228.06 28.71
6 4 9 135.83 21.42
6 4 9 175.47 24.91
6 4 9 147.75 25.79
6 4 9 182.76 25.87
6 4 10 103.78 18.71
6 4 10 154.5 23.76
6 4 10 100.38 21.75
6 4 10 120.6 21.12
6 4 10 114.99 20.49
6 5 -3 452.88 43.71
6 5 -3 362.35 40.32
6 5 -3 463.7 43.39
6 5 -3 298.6 39.43
6 5 -2 25.7 11.75
6 5 -2 53.61 16.81
6 5 -2 57.04 15.05
6 5 -2 34.51 11.91
6 5 -2 30.7 12.01
6 5 -2 15.33 8.09
6 5 -1 305.1 39.96
6 5 -1 389.86 39.41
6 5 -1 427.34 40.88
6 5 -1 346.5 40.91
6 5 -1 300.45 35.6
6 5 0 7.5 5.62
6 5 0 5.35 4.91
6 5 0 8.06 5.85
6 5 0 2.07 4.65
6 5 0 3.99 3.67
6 5 1 913.47 68.28
6 5 1 910.63 63.07
6 5 1 882.53 62.27
6 5 1 934.38 62.52
6 5 2 24.82 9.28
6 5 2 19.26 9.39
6 5 2 23.04 9
6 5 2 7.8 5.68
6 5 2 18.33 8.26
6 5 3 602.99 47.94
6 5 3 558.34 45.98
6 5 3 475.77 42.23
6 5 3 609.72 46.47
6 5 4 51.16 13.07
6 5 4 72.17 16.86
6 5 4 53.49 13.62
6 5 4 50.29 13.1
6 5 4 38.99 11.1
6 5 5 470.75 43.11
6 5 5 469.65 40.99
6 5 5 462.14 41.05
6 5 6 51.7 14.75
6 5 6 37.3 11.41
6 5 6 32.59 10.3
6 5 6 39.69 11.53
6 5 7 228.49 30.85
6 5 7 244.72 28.87
6 5 7 200.39 26.99
6 5 7 232.41 28.42
6 5 8 116.45 23
6 5 8 108.02 19.29
6 5 8 121 21.26
6 5 9 279.14 36.5
6 5 9 286.15 32.03
6 6 -1 44.36 13.91
6 6 -1 19.86 10.45
6 6 0 502.46 53.42
6 6 0 460.25 43.29
6 6 0 408.26 42.71
6 6 0 408.13 41.34
6 6 1 2.04 5.94
6 6 1 22.19 10.81
6 6 1 8.21 6.53
6 6 1 12.23 7.49
6 6 1 15.77 8.28
6 6 2 895.74 68.45
6 6 2 706.02 54.76
6 6 2 661.42 52.53
6 6 2 744.32 54.95
6 6 2 738.2 54.51
6 6 2 634.56 50.44
6 6 2 669.5 54.94
6 6 3 1.96 2.55
6 6 3 10.14 7.36
6 6 3 2.01 5.21
6 6 3 11.77 6.74
6 6 3 5.78 5.6
6 6 3 5.77 4.33
6 6 4 327.07 34.94
6 6 4 315.62 34.96
6 6 4 274.11 32.98
6 6 4 279.95 32.11
6 6 4 294.41 32.49
6 6 5 67.37 15.47
6 6 5 44.03 12.81
6 6 5 55.48 15.24
6 6 5 43.52 12.32
6 6 6 576.77 46.95
6 6 6 529.18 46.26
6 6 6 462.63 45.54
7 -1 0 14.96 6.83
7 -1 0 9.4 6.83
7 -1 0 14.82 8.49
7 -1 1 417.21 44.95
7 -1 1 372.58 41.9
7 -1 1 482.09 40.41
7 -1 2 74.3 18.49
7 -1 2 92.46 17.53
7 -1 3 195.17 25.88
7 -1 3 252.41 27.48
7 -1 4 146.04 22.62
7 -1 4 122.39 19.65
7 -1 5 209.48 27.41
7 -1 5 207.47 26.13
7 -1 6 124.95 21.17
7 -1 6 142.17 22.07
7 -1 7 173.08 24.82
7 0 -1 23.61 10.62
7 0 -1 9.61 6.98
7 0 -1 12.35 7.86
7 0 0 437.9 44.82
7 0 0 347.01 32.94
7 0 0 287.14 37.09
7 0 0 357.11 41.03
7 0 1 96.32 17.21
7 0 1 81.39 18.75
7 0 1 72.52 18.7
7 0 1 65.49 17.06
7 0 2 353.83 39.8
7 0 2 400.88 36.46
7 0 3 40.73 11.29
7 0 4 276.42 30.75
7 0 4 302.48 30.54
7 0 5 39.49 11.69
7 0 5 29.58 9.35
7 0 6 231.45 28.82
7 0 6 235.93 28.1
7 0 7 468.27 42.54
7 0 7 438.85 39.81
7 0 7 438.68 38.67
7 0 8 144.36 22.31
7 1 -2 12.39 7.88
7 1 -2 20.82 10.69
7 1 -2 -2.49 9.71
7 1 -1 632.85 55.77
7 1 -1 695.3 56.38
7 1 -1 642.9 58.44
7 1 -1 494.16 49.7
7 1 0 -2.44 0.01
7 1 0 -2.67 0.01
7 1 0 2.24 2.91
7 1 0 2.39 8.77
7 1 1 376.89 41.86
7 1 1 328.39 37.91
7 1 1 336.67 32.07
7 1 1 349.4 39.61
7 1 2 16.85 8.66
7 1 2 2.45 8.42
7 1 2 20.57 7.97
7 1 2 17.81 9.6
7 1 3 509.48 41.65
7 1 3 543.67 51.94
7 1 4 118.86 18.65
7 1 4 116.11 19.49
7 1 5 444.05 38.4
7 1 5 479.58 41.23
7 1 6 39.37 11.58
7 1 6 23.99 9.62
7 1 7 154.76 23.11
7 1 7 173.41 23.82
7 1 7 208.18 27.42
7 1 8 170.39 25.94
7 1 8 154.38 23.96
7 1 8 194.56 25.75
7 2 -2 572.17 51.2
7 2 -2 661.79 58.97
7 2 -2 470.83 49
7 2 -1 18.23 9.57
7 2 -1 15.8 9.05
7 2 -1 11.12 7.64
7 2 -1 4.94 9.07
7 2 0 496.6 50.01
7 2 0 378.49 43.24
7 2 0 630.13 56.41
7 2 0 512.6 46.5
7 2 1 -2.5 0.04
7 2 1 2.61 4.79
7 2 1 -2.34 8.6
7 2 2 488.42 48.27
7 2 2 522.27 51
7 2 2 351.62 39.93
7 2 3 9.78 7.77
7 2 3 2.54 4.67
7 2 3 9.56 5.48
7 2 4 553.56 43.71
7 2 4 616.25 55.05
7 2 4 534.79 51.31
7 2 5 40.52 11.22
7 2 5 53.98 15.99
7 2 5 56.04 13.52
7 2 6 492.06 41.19
7 2 6 452.77 39.03
7 2 6 440.48 40.06
7 2 7 94.77 18.19
7 2 7 82.85 16.53
7 2 7 82.27 17.39
7 2 8 221.95 28.57
7 2 8 233.61 28.53
7 2 8 241.78 30.66
7 2 8 183 25.48
7 2 9 111.76 19.73
7 3 -2 4.51 4.14
7 3 -1 363.87 43.92
7 3 -1 462.28 48.67
7 3 -1 363.56 39.17
7 3 -1 333.42 40.91
7 3 0 81.26 20.26
7 3 0 82.06 20.46
7 3 0 74.16 18.57
7 3 1 725.48 61.65
7 3 1 888.35 67.92
7 3 1 694.79 58.76
7 3 2 34.56 12.43
7 3 2 28.23 12.48
7 3 2 18.77 8.47
7 3 2 18.59 9.07
7 3 3 691.6 58.87
7 3 3 666.34 51.56
7 3 3 601.34 54.94
7 3 4 93.56 20.82
7 3 4 85.84 17.22
7 3 4 113.13 22.68
7 3 4 79.75 16.88
7 3 5 255.65 33.86
7 3 5 225.25 27.29
7 3 5 169.79 23.53
7 3 5 223.25 31.54
7 3 6 7.02 5.09
7 3 6 3.5 3.94
7 3 6 -1.73 0.01
7 3 6 -1.83 2.38
7 3 7 560.56 45.88
7 3 7 512.65 44.06
7 3 7 552.18 46.23
7 3 7 572.4 45.79
7 3 8 84.25 17.79
7 3 8 76.62 16.49
7 3 8 92.67 18.17
7 3 8 90.74 18.85
7 4 0 321.85 36.69
7 4 0 275.36 38.03
7 4 0 281.88 36.95
7 4 1 12.36 7.09
7 4 1 18.56 9.75
7 4 1 26.91 11.6
7 4 1 19.66 8.98
7 4 1 29.97 11.7
7 4 2 663.97 51.11
7 4 2 529.79 52.65
7 4 2 647.02 52.93
7 4 2 552.21 52.41
7 4 3 12.13 7.74
7 4 3 17.6 8.04
7 4 3 22.47 10.76
7 4 3 26.31 9.85
7 4 4 525.1 44.16
7 4 4 558.56 47.19
7 4 4 566.85 46.71
7 4 5 3.53 3.97
7 4 5 9.09 6.25
7 4 5 16.63 7.59
7 4 5 16.91 7.72
7 4 6 402.56 37.59
7 4 6 349.85 35.59
7 4 6 325.23 34.43
7 4 6 332.94 35.01
7 4 7 -1.91 3.51
7 4 7 -1.92 3.53
7 4 7 1.91 2.47
7 4 7 1.93 4.34
7 4 7 1.8 3.3
7 5 2 17.86 9.97
7 5 2 40.92 12.48
7 5 3 627.5 56.49
7 5 3 479.5 43.93
loop_
_exptl_crystal_face_index_h
_exptl_crystal_face_index_k
_exptl_crystal_face_index_l
_exptl_crystal_face_perp_dist
-1 -1 0 0.1866
-2 -1 -2 0.1620
-1 0 -2 0.1255
1 0 2 0.1368
2 1 2 0.1500
1 1 0 0.1628
1 1 0 0.1529
-2 -1 -1 0.1605
2 1 1 0.1537
0 0 1 0.0720
0 0 -1 0.0926
-1 0 0 0.1451
1 0 0 0.1312
0 1 1 0.0897
0 -1 -1 0.0966
2 0 1 0.1314
-2 0 -1 0.1359
0 -2 0 0.1436
0 2 0 0.1160
-1 1 -1 0.1330
loop_
_geom_angle_atom_site_label_1
_geom_angle_atom_site_label_2
_geom_angle_atom_site_label_3
_geom_angle
_geom_angle_site_symmetry_1
_geom_angle_site_symmetry_3
_geom_angle_publ_flag
C4 N1 C5 117.4(2) . . ?
C2 C3 F2 118.7(2) . . ?
C1 C3 F2 120.1(2) 2_765 . ?
C1 C3 C2 121.3(2) 2_765 . ?
C3 C2 F1 118.5(2) . . ?
C1 C2 F1 119.9(2) . . ?
C1 C2 C3 121.6(2) . . ?
C3 C1 I1 121.50(16) 2_765 . ?
C2 C1 I1 121.32(17) . . ?
C2 C1 C3 117.2(2) . 2_765 ?
C4 C5 N1 122.7(2) 2_556 . ?
H5 C5 N1 118.64(14) . . ?
H5 C5 C4 118.64(14) . 2_556 ?
C5 C4 N1 119.8(2) 2_556 . ?
C6 C4 N1 118.4(2) . . ?
C6 C4 C5 121.8(2) . 2_556 ?
H6a C6 C4 109.5 . . ?
H6b C6 C4 109.5 . . ?
H6b C6 H6a 109.5 . . ?
H6c C6 C4 109.5 . . ?
H6c C6 H6a 109.5 . . ?
H6c C6 H6b 109.5 . . ?
loop_
_geom_bond_atom_site_label_1
_geom_bond_atom_site_label_2
_geom_bond_distance
_geom_bond_site_symmetry_2
_geom_bond_publ_flag
I1 C1 2.097(2) . ?
F2 C3 1.345(2) . ?
F1 C2 1.347(3) . ?
N1 C5 1.338(3) . ?
N1 C4 1.340(3) . ?
C3 C2 1.379(3) . ?
C3 C1 1.384(3) 2_765 ?
C2 C1 1.388(3) . ?
C5 C4 1.392(3) 2_556 ?
C5 H5 0.9300 . ?
C4 C6 1.493(3) . ?
C6 H6a 0.9600 . ?
C6 H6b 0.9600 . ?
C6 H6c 0.9600 . ?
loop_
_exptl_oxdiff_crystal_face_indexfrac_h
_exptl_oxdiff_crystal_face_indexfrac_k
_exptl_oxdiff_crystal_face_indexfrac_l
_exptl_oxdiff_crystal_face_x
_exptl_oxdiff_crystal_face_y
_exptl_oxdiff_crystal_face_z
-0.9997 -0.9997 -0.0004 0.0174 0.0785 0.1338
-1.9998 -0.9999 -1.5007 0.0055 0.0034 0.2571
-1.0001 -0.0002 -1.5003 -0.0119 -0.0751 0.1233
1.0001 0.0002 1.5003 0.0119 0.0751 -0.1233
1.9998 0.9999 1.5007 -0.0055 -0.0034 -0.2571
0.9997 0.9997 0.0004 -0.0174 -0.0785 -0.1338
0.9998 0.9998 -0.4996 0.0026 -0.1064 -0.1292
-1.9999 -0.9999 -1.0007 -0.0145 0.0312 0.2525
1.9999 0.9999 1.0007 0.0145 -0.0312 -0.2525
-0.0001 -0.0000 0.5000 -0.0201 0.0278 -0.0047
0.0001 0.0000 -0.5000 0.0201 -0.0278 0.0047
-1.0007 -0.0003 0.4998 -0.0922 0.0361 0.1046
1.0007 0.0003 -0.4998 0.0922 -0.0361 -0.1046
-0.0011 0.9994 1.0002 -0.1297 -0.0146 -0.0340
0.0011 -0.9994 -1.0002 0.1297 0.0146 0.0340
2.0009 0.0005 0.5005 0.1241 0.0112 -0.2232
-2.0009 -0.0005 -0.5005 -0.1241 -0.0112 0.2232
0.0016 -1.9990 0.4997 0.1590 0.1683 0.0445
-0.0016 1.9990 -0.4997 -0.1590 -0.1683 -0.0445
-1.0011 0.9993 -1.0001 -0.1215 -0.1176 0.0940
