#------------------------------------------------------------------------------
#$Date: 2021-11-24 03:55:27 +0200 (Wed, 24 Nov 2021) $
#$Revision: 270847 $
#$URL: file:///home/coder/svn-repositories/cod/cif/7/24/39/7243961.cif $
#------------------------------------------------------------------------------
#
# This file is available in the Crystallography Open Database (COD),
# http://www.crystallography.net/
#
# All data on this site have been placed in the public domain by the
# contributors.
#
data_7243961
loop_
_publ_author_name
'Anderson, Trent E.'
'Culver, Evan W.'
'Bad\'ia-Dom\'inguez, Irene'
'Wilcox, Wyatt D.'
'Buysse, Claire E.'
'Ruiz Delgado, M. Carmen'
'Rasmussen, Seth C.'
_publ_section_title
;
 Probing the nature of donor-acceptor effects in conjugated materials: a
 joint experimental and computational study of model conjugated oligomers.
;
_journal_name_full               'Physical chemistry chemical physics : PCCP'
_journal_paper_doi               10.1039/d1cp04603a
_journal_year                    2021
_chemical_formula_moiety         'C6 H3 Br N2 S'
_chemical_formula_sum            'C6 H3 Br N2 S'
_chemical_formula_weight         215.07
_chemical_melting_point          351
_chemical_name_common            4-Bromobenzo[c][1,2,5]thiadiazole
_chemical_name_systematic        4-Bromobenzo[c][1,2,5]thiadiazole
_space_group_crystal_system      triclinic
_space_group_IT_number           2
_space_group_name_Hall           '-P 1'
_space_group_name_H-M_alt        'P -1'
_atom_sites_solution_hydrogens   geom
_audit_creation_date             2017-05-16
_audit_creation_method
;
Olex2 1.2
(compiled 2017.03.28 svn.r3405 for OlexSys, GUI svn.r5335)
;
_audit_update_record
;
2021-06-05 deposited with the CCDC.	2021-11-15 downloaded from the CCDC.
;
_cell_angle_alpha                68.754(7)
_cell_angle_beta                 76.414(7)
_cell_angle_gamma                69.876(8)
_cell_formula_units_Z            2
_cell_length_a                   7.1075(10)
_cell_length_b                   7.1970(12)
_cell_length_c                   7.6350(10)
_cell_measurement_reflns_used    5167
_cell_measurement_temperature    293(2)
_cell_measurement_theta_max      66.784
_cell_measurement_theta_min      6.275
_cell_volume                     339.06(9)
_computing_cell_refinement       'SAINT v8.37A (Bruker, 2015)'
_computing_data_reduction        'SAINT v8.37A (Bruker, 2015)'
_computing_molecular_graphics    'Olex2 (Dolomanov et al., 2009)'
_computing_publication_material  'Olex2 (Dolomanov et al., 2009)'
_computing_structure_refinement  'ShelXL (Sheldrick, 2015)'
_computing_structure_solution    'SHELXT 2014/5 (Sheldrick, 2014)'
_diffrn_ambient_temperature      293.15
_diffrn_measured_fraction_theta_full 0.993
_diffrn_measured_fraction_theta_max 0.993
_diffrn_measurement_device_type  'Bruker APEX-II CCD'
_diffrn_measurement_method       '\f and \w scans'
_diffrn_radiation_type           CuK\a
_diffrn_radiation_wavelength     1.54184
_diffrn_reflns_av_R_equivalents  0.0414
_diffrn_reflns_av_unetI/netI     0.0273
_diffrn_reflns_Laue_measured_fraction_full 0.993
_diffrn_reflns_Laue_measured_fraction_max 0.993
_diffrn_reflns_limit_h_max       8
_diffrn_reflns_limit_h_min       -8
_diffrn_reflns_limit_k_max       8
_diffrn_reflns_limit_k_min       -8
_diffrn_reflns_limit_l_max       9
_diffrn_reflns_limit_l_min       -9
_diffrn_reflns_number            6734
_diffrn_reflns_point_group_measured_fraction_full 0.993
_diffrn_reflns_point_group_measured_fraction_max 0.993
_diffrn_reflns_theta_full        66.672
_diffrn_reflns_theta_max         66.672
_diffrn_reflns_theta_min         6.269
_diffrn_standards_number         0
_exptl_absorpt_coefficient_mu    10.415
_exptl_absorpt_correction_T_max  0.7528
_exptl_absorpt_correction_T_min  0.4964
_exptl_absorpt_correction_type   multi-scan
_exptl_absorpt_process_details
;
SADABS-2016/2 (Bruker,2016/2) was used for absorption correction. wR2(int) 
was 0.1009 before and 0.0594 after correction. The Ratio of minimum to 
maximum transmission is 0.6594. The \l/2 correction factor is Not present.
;
_exptl_crystal_colour            colourless
_exptl_crystal_density_diffrn    2.107
_exptl_crystal_description       plate
_exptl_crystal_F_000             208
_exptl_crystal_size_max          0.191
_exptl_crystal_size_mid          0.11
_exptl_crystal_size_min          0.064
_refine_diff_density_max         0.565
_refine_diff_density_min         -0.928
_refine_diff_density_rms         0.113
_refine_ls_extinction_method     none
_refine_ls_goodness_of_fit_ref   1.133
_refine_ls_hydrogen_treatment    constr
_refine_ls_matrix_type           full
_refine_ls_number_parameters     91
_refine_ls_number_reflns         1192
_refine_ls_number_restraints     0
_refine_ls_restrained_S_all      1.133
_refine_ls_R_factor_all          0.0277
_refine_ls_R_factor_gt           0.0265
_refine_ls_shift/su_max          0.000
_refine_ls_shift/su_mean         0.000
_refine_ls_structure_factor_coef Fsqd
_refine_ls_weighting_details
'w=1/[\s^2^(Fo^2^)+(0.0415P)^2^+0.5533P] where P=(Fo^2^+2Fc^2^)/3'
_refine_ls_weighting_scheme      calc
_refine_ls_wR_factor_gt          0.0694
_refine_ls_wR_factor_ref         0.0769
_reflns_Friedel_coverage         0.000
_reflns_number_gt                1150
_reflns_number_total             1192
_reflns_threshold_expression     'I > 2\s(I)'
_iucr_refine_instructions_details
;
TITL cu_txa02_0m_a.res in P-1
 cu_txa02_0m.res created by SHELXL-2016/4 at 13:59:00 on 16-May-2017
CELL 1.54184 7.1075 7.197 7.635 68.754 76.414 69.876
ZERR 2 0.001 0.0012 0.001 0.007 0.007 0.008
LATT 1
SFAC C H Br N S
UNIT 12 6 2 4 2

L.S. 4
PLAN  -1 0 0
SIZE 0.064 0.11 0.191
TEMP 20
HTAB
BOND $H
CONF
fmap 2
acta
REM <olex2.extras>
REM <HklSrc "%.\\cu_txa02_0m.hkl">
REM </olex2.extras>

WGHT    0.041500    0.553300
FVAR       1.04292
BR1   3    0.175730    0.141244    0.884137    11.00000    0.03075    0.01769 =
         0.01498   -0.00119   -0.00409   -0.00911
S1    5    0.379723    0.306691    0.214223    11.00000    0.02453    0.02138 =
         0.01693   -0.00932   -0.00181   -0.00735
N1    4    0.305780    0.224383    0.438945    11.00000    0.01809    0.01836 =
         0.02077   -0.00985   -0.00502   -0.00313
N2    4    0.359252    0.546518    0.185612    11.00000    0.02180    0.02018 =
         0.01696   -0.00735   -0.00176   -0.00619
C1    1    0.264005    0.387925    0.502203    11.00000    0.01337    0.01595 =
         0.02091   -0.00908   -0.00601   -0.00135
C2    1    0.199861    0.390642    0.693219    11.00000    0.01677    0.01436 =
         0.01690   -0.00280   -0.00625   -0.00223
C3    1    0.166814    0.569480    0.732872    11.00000    0.01872    0.02022 =
         0.01504   -0.00777   -0.00338   -0.00319
AFIX  43
H3    2    0.125832    0.571396    0.857347    11.00000   -1.20000
AFIX   0
C4    1    0.193229    0.753551    0.589174    11.00000    0.01924    0.01516 =
         0.02486   -0.00976   -0.00716   -0.00200
AFIX  43
H4    2    0.167146    0.873792    0.621226    11.00000   -1.20000
AFIX   0
C5    1    0.292633    0.572499    0.359465    11.00000    0.01595    0.01733 =
         0.01320   -0.00427   -0.00257   -0.00391
C6    1    0.256235    0.757700    0.404606    11.00000    0.02085    0.01465 =
         0.02200   -0.00368   -0.00775   -0.00310
AFIX  43
H6    2    0.274718    0.878354    0.311316    11.00000   -1.20000
AFIX   0
HKLF 4




REM  cu_txa02_0m_a.res in P-1
REM R1 =  0.0265 for    1150 Fo > 4sig(Fo)  and  0.0277 for all    1192 data
REM     91 parameters refined using      0 restraints

END  
     
WGHT      0.0415      0.5533 

REM No hydrogen bonds found for HTAB generation

REM Highest difference peak  0.565,  deepest hole -0.928,  1-sigma level  0.113
Q1    1   0.1595  0.0689  1.0384  11.00000  0.05    0.56

  REM The information below was added by Olex2.
  REM
  REM R1 = 0.0265 for 1150 Fo > 4sig(Fo) and 0.0277 for all 6734 data
  REM n/a parameters refined using n/a restraints
  REM Highest difference peak 0.56, deepest hole -0.93
  REM Mean Shift 0, Max Shift 0.000.

  REM +++ Tabular Listing of Refinement Information +++
  REM R1_all = 0.0277
  REM R1_gt = 0.0265
  REM wR_ref = 0.0769
  REM GOOF = 1.133
  REM Shift_max = 0.000
  REM Shift_mean = 0
  REM Reflections_all = 6734
  REM Reflections_gt = 1150
  REM Parameters = n/a
  REM Hole = -0.93
  REM Peak = 0.56
  REM Flack = n/a
;
_cod_data_source_file            d1cp04603a2.cif
_cod_data_source_block           cu_txa02_0m
_cod_database_code               7243961
_shelx_space_group_comment
;
The symmetry employed for this shelxl refinement is uniquely defined
by the following loop, which should always be used as a source of
symmetry information in preference to the above space-group names.
They are only intended as comments.
;
_shelx_estimated_absorpt_t_max   0.555
_shelx_estimated_absorpt_t_min   0.241
_olex2_refinement_description
;
1. Fixed Uiso
 At 1.2 times of:
  All C(H) groups
2.a Aromatic/amide H refined with riding coordinates:
 C3(H3), C4(H4), C6(H6)
;
loop_
_space_group_symop_operation_xyz
'x, y, z'
'-x, -y, -z'
loop_
_atom_site_label
_atom_site_type_symbol
_atom_site_fract_x
_atom_site_fract_y
_atom_site_fract_z
_atom_site_U_iso_or_equiv
_atom_site_adp_type
_atom_site_occupancy
_atom_site_site_symmetry_order
_atom_site_calc_flag
_atom_site_refinement_flags_posn
_atom_site_refinement_flags_adp
_atom_site_refinement_flags_occupancy
_atom_site_disorder_assembly
_atom_site_disorder_group
Br1 Br 0.17573(5) 0.14124(5) 0.88414(4) 0.02145(16) Uani 1 1 d . . . . .
S1 S 0.37972(12) 0.30669(13) 0.21422(11) 0.0199(2) Uani 1 1 d . . . . .
N1 N 0.3058(4) 0.2244(4) 0.4389(4) 0.0181(6) Uani 1 1 d . . . . .
N2 N 0.3593(4) 0.5465(4) 0.1856(4) 0.0192(6) Uani 1 1 d . . . . .
C1 C 0.2640(5) 0.3879(5) 0.5022(5) 0.0158(6) Uani 1 1 d . . . . .
C2 C 0.1999(5) 0.3906(5) 0.6932(5) 0.0165(6) Uani 1 1 d . . . . .
C3 C 0.1668(5) 0.5695(5) 0.7329(5) 0.0177(7) Uani 1 1 d . . . . .
H3 H 0.125832 0.571396 0.857347 0.021 Uiso 1 1 calc R . . . .
C4 C 0.1932(5) 0.7536(5) 0.5892(5) 0.0187(7) Uani 1 1 d . . . . .
H4 H 0.167146 0.873792 0.621226 0.022 Uiso 1 1 calc R . . . .
C5 C 0.2926(5) 0.5725(5) 0.3595(4) 0.0157(6) Uani 1 1 d . . . . .
C6 C 0.2562(5) 0.7577(5) 0.4046(5) 0.0194(7) Uani 1 1 d . . . . .
H6 H 0.274718 0.878354 0.311316 0.023 Uiso 1 1 calc R . . . .
loop_
_atom_site_aniso_label
_atom_site_aniso_U_11
_atom_site_aniso_U_22
_atom_site_aniso_U_33
_atom_site_aniso_U_23
_atom_site_aniso_U_13
_atom_site_aniso_U_12
Br1 0.0307(2) 0.0177(2) 0.0150(2) -0.00119(15) -0.00409(14) -0.00911(15)
S1 0.0245(4) 0.0214(4) 0.0169(4) -0.0093(3) -0.0018(3) -0.0074(3)
N1 0.0181(14) 0.0184(14) 0.0208(14) -0.0099(11) -0.0050(11) -0.0031(11)
N2 0.0218(14) 0.0202(14) 0.0170(14) -0.0073(12) -0.0018(11) -0.0062(11)
C1 0.0134(14) 0.0159(15) 0.0209(16) -0.0091(13) -0.0060(12) -0.0014(12)
C2 0.0168(15) 0.0144(15) 0.0169(15) -0.0028(13) -0.0062(12) -0.0022(12)
C3 0.0187(15) 0.0202(17) 0.0150(15) -0.0078(13) -0.0034(12) -0.0032(13)
C4 0.0192(16) 0.0152(16) 0.0249(17) -0.0098(14) -0.0072(13) -0.0020(12)
C5 0.0159(15) 0.0173(16) 0.0132(15) -0.0043(13) -0.0026(12) -0.0039(12)
C6 0.0209(16) 0.0146(16) 0.0220(17) -0.0037(13) -0.0078(13) -0.0031(12)
loop_
_atom_type_symbol
_atom_type_description
_atom_type_scat_dispersion_real
_atom_type_scat_dispersion_imag
_atom_type_scat_source
C C 0.0181 0.0091 'International Tables Vol C Tables 4.2.6.8 and 6.1.1.4'
H H 0.0000 0.0000 'International Tables Vol C Tables 4.2.6.8 and 6.1.1.4'
Br Br -0.6763 1.2805 'International Tables Vol C Tables 4.2.6.8 and 6.1.1.4'
N N 0.0311 0.0180 'International Tables Vol C Tables 4.2.6.8 and 6.1.1.4'
S S 0.3331 0.5567 'International Tables Vol C Tables 4.2.6.8 and 6.1.1.4'
loop_
_geom_angle_atom_site_label_1
_geom_angle_atom_site_label_2
_geom_angle_atom_site_label_3
_geom_angle
_geom_angle_site_symmetry_1
_geom_angle_site_symmetry_3
_geom_angle_publ_flag
N2 S1 N1 101.33(14) . . ?
C1 N1 S1 105.5(2) . . ?
C5 N2 S1 106.0(2) . . ?
N1 C1 C2 126.7(3) . . ?
N1 C1 C5 114.4(3) . . ?
C5 C1 C2 118.9(3) . . ?
C1 C2 Br1 118.7(2) . . ?
C3 C2 Br1 122.2(3) . . ?
C3 C2 C1 119.0(3) . . ?
C2 C3 H3 119.2 . . ?
C2 C3 C4 121.7(3) . . ?
C4 C3 H3 119.2 . . ?
C3 C4 H4 119.3 . . ?
C6 C4 C3 121.4(3) . . ?
C6 C4 H4 119.3 . . ?
N2 C5 C1 112.8(3) . . ?
N2 C5 C6 126.3(3) . . ?
C6 C5 C1 121.0(3) . . ?
C4 C6 C5 118.1(3) . . ?
C4 C6 H6 121.0 . . ?
C5 C6 H6 121.0 . . ?
loop_
_geom_bond_atom_site_label_1
_geom_bond_atom_site_label_2
_geom_bond_distance
_geom_bond_site_symmetry_2
_geom_bond_publ_flag
Br1 C2 1.891(3) . ?
S1 N1 1.620(3) . ?
S1 N2 1.618(3) . ?
N1 C1 1.346(4) . ?
N2 C5 1.358(4) . ?
C1 C2 1.427(5) . ?
C1 C5 1.423(5) . ?
C2 C3 1.358(5) . ?
C3 H3 0.9300 . ?
C3 C4 1.419(5) . ?
C4 H4 0.9300 . ?
C4 C6 1.367(5) . ?
C5 C6 1.420(5) . ?
C6 H6 0.9300 . ?
loop_
_geom_torsion_atom_site_label_1
_geom_torsion_atom_site_label_2
_geom_torsion_atom_site_label_3
_geom_torsion_atom_site_label_4
_geom_torsion
_geom_torsion_site_symmetry_1
_geom_torsion_site_symmetry_2
_geom_torsion_site_symmetry_3
_geom_torsion_site_symmetry_4
_geom_torsion_publ_flag
Br1 C2 C3 C4 177.5(2) . . . . ?
S1 N1 C1 C2 -177.7(3) . . . . ?
S1 N1 C1 C5 1.0(3) . . . . ?
S1 N2 C5 C1 -0.1(3) . . . . ?
S1 N2 C5 C6 178.7(3) . . . . ?
N1 S1 N2 C5 0.7(2) . . . . ?
N1 C1 C2 Br1 1.9(4) . . . . ?
N1 C1 C2 C3 179.1(3) . . . . ?
N1 C1 C5 N2 -0.6(4) . . . . ?
N1 C1 C5 C6 -179.5(3) . . . . ?
N2 S1 N1 C1 -1.0(2) . . . . ?
N2 C5 C6 C4 -178.6(3) . . . . ?
C1 C2 C3 C4 0.4(5) . . . . ?
C1 C5 C6 C4 0.1(5) . . . . ?
C2 C1 C5 N2 178.2(3) . . . . ?
C2 C1 C5 C6 -0.7(5) . . . . ?
C2 C3 C4 C6 -1.0(5) . . . . ?
C3 C4 C6 C5 0.7(5) . . . . ?
C5 C1 C2 Br1 -176.7(2) . . . . ?
C5 C1 C2 C3 0.4(5) . . . . ?
loop_
_refln_index_h
_refln_index_k
_refln_index_l
_refln_F_squared_meas
_refln_F_squared_sigma
-1 0 0 24.5 2.6
1 0 0 21 3.1
1 0 0 31.4 3.3
-2 0 0 8129.79 389.06
-2 0 0 7859.01 391.36
-2 0 0 8513.95 396.56
2 0 0 8231.38 396.06
2 0 0 7510.95 388.66
2 0 0 7685.93 395.36
2 0 0 7682.43 392.76
-3 0 0 997 51.29
-3 0 0 936.81 49.3
-3 0 0 990.1 50.09
3 0 0 963.5 51.69
3 0 0 951.7 51.79
3 0 0 967.9 51.99
3 0 0 990.3 50.09
-4 0 0 436.26 24.5
-4 0 0 439.16 24.9
-4 0 0 466.65 26.1
-4 0 0 429.16 26.9
4 0 0 431.46 27.8
4 0 0 437.76 28
4 0 0 458.45 28.5
-5 0 0 1027 54.19
-5 0 0 1080.39 58.19
-5 0 0 1085.39 57.69
5 0 0 1065.59 59.79
5 0 0 1037.9 61.29
5 0 0 1102.69 62.39
5 0 0 1108.69 61.29
5 0 0 1103.79 57.79
5 0 0 1063.99 57.29
-6 0 0 572.54 36.2
-6 0 0 644.54 36.7
-6 0 0 608.64 42.5
6 0 0 648.34 36.3
6 0 0 652.33 41.6
6 0 0 540.05 40.6
6 0 0 619.14 36.5
-7 0 0 4.4 7
-7 0 0 2.4 5
7 0 0 0.7 4.6
7 0 0 -0.1 3.6
7 0 0 2.2 7.2
7 -1 0 90.79 9
7 -1 0 83.19 8
7 -1 0 75.09 10.8
-7 1 0 90.09 13.8
-7 1 0 94.39 9.4
6 -1 0 614.64 33.9
6 -1 0 551.44 33.6
6 -1 0 613.44 34.1
6 -1 0 492.05 36.8
-6 1 0 569.44 39.5
-6 1 0 608.34 34.5
-6 1 0 501.95 29.7
5 -1 0 188.78 19.2
5 -1 0 169.48 17.8
5 -1 0 188.38 13.9
5 -1 0 184.58 15.2
5 -1 0 178.28 14.8
5 -1 0 177.78 19.1
-5 1 0 185.28 15.4
-5 1 0 174.28 14.7
-5 1 0 176.28 12.1
-5 1 0 186.28 15.6
4 -1 0 454.85 29.6
4 -1 0 466.25 31.1
4 -1 0 448.26 30.3
-4 1 0 473.05 27.6
-4 1 0 475.35 27.2
-4 1 0 478.05 26.6
3 -1 0 659.63 38.7
3 -1 0 650.93 38.9
3 -1 0 660.03 38.2
-3 1 0 695.73 38.7
-3 1 0 697.53 35.9
-3 1 0 718.93 36.4
2 -1 0 9.5 2.5
2 -1 0 7.5 3.6
2 -1 0 7.4 2.4
2 -1 0 6.7 0.5
2 -1 0 7.4 3
-2 1 0 6 2.4
-2 1 0 4.4 2.6
1 -1 0 6343.17 298.37
1 -1 0 5983.1 297.67
1 -1 0 5797.42 290.27
1 -1 0 5221.48 292.57
-1 1 0 6643.84 302.17
-1 1 0 5857.61 292.37
0 -1 0 227.78 13
0 -1 0 242.38 11.6
0 -1 0 248.88 19.8
0 -1 0 240.88 12.4
0 1 0 236.38 12.7
0 1 0 228.08 14.3
-1 -1 0 766.32 35.8
-1 -1 0 690.63 36.2
-1 -1 0 763.22 37.2
1 1 0 720.83 37.2
-2 -1 0 17.7 1
-2 -1 0 16.7 2.8
-2 -1 0 16.6 2.2
-2 -1 0 17.1 2.5
2 1 0 21.9 2.2
-3 -1 0 2115.89 103.19
-3 -1 0 2082.39 102.99
-3 -1 0 2042.8 102.89
3 1 0 1960 102.19
3 1 0 2111.99 104.39
3 1 0 2087.89 104.79
-4 -1 0 655.73 40.7
4 1 0 879.11 43.8
-5 -1 0 1048.3 63.79
-5 -1 0 1142.19 60.69
-5 -1 0 1113.79 59.79
5 1 0 1181.58 63.49
5 1 0 1156.98 64.29
5 1 0 1138.99 60.19
5 1 0 1126.69 59.79
5 1 0 1107.99 63.09
-6 -1 0 4.5 6.9
-6 -1 0 -0.8 5.4
-6 -1 0 8 9.4
6 1 0 3.3 3.2
6 1 0 -3.3 6.2
6 1 0 3.9 4.8
6 1 0 5.2 5.9
-7 -1 0 24 8
-7 -1 0 38.4 9.7
7 1 0 32 9
7 1 0 27.1 7.3
-8 -1 0 260.37 16.7
8 1 0 278.17 17.3
7 -2 0 484.65 27.3
-7 2 0 468.85 26.8
6 -2 0 14.3 4.9
6 -2 0 10.9 5.5
6 -2 0 8.8 4.3
6 -2 0 11.3 4.3
-6 2 0 8.7 4.1
-6 2 0 9.7 5.3
5 -2 0 841.72 51.59
5 -2 0 924.21 48.5
5 -2 0 849.72 48.1
5 -2 0 752.82 51.19
5 -2 0 868.21 46.3
-5 2 0 892.31 47.8
-5 2 0 894.71 44.3
-5 2 0 752.82 46.3
-5 2 0 862.51 47.8
4 -2 0 406.36 29.4
4 -2 0 341.97 26.7
4 -2 0 380.36 22.6
4 -2 0 354.76 23.9
4 -2 0 348.47 20.8
4 -2 0 388.86 24.1
4 -2 0 359.36 26.9
-4 2 0 407.26 23.3
-4 2 0 375.06 20.7
-4 2 0 341.07 22.8
-4 2 0 394.86 24.1
-4 2 0 381.36 26.3
-4 2 0 369.96 22.9
3 -2 0 48.8 9
3 -2 0 47.1 6.9
-3 2 0 49.1 6
-3 2 0 44.2 8.1
-3 2 0 45.4 6.1
-3 2 0 54.19 6.9
2 -2 0 2598.94 151.28
2 -2 0 3095.79 150.88
2 -2 0 2958 145.79
-2 2 0 2902.11 148.19
-2 2 0 3273.07 151.58
-2 2 0 3146.69 147.99
1 -2 0 1759.52 91.99
1 -2 0 1920.11 90.99
1 -2 0 1888.41 94.59
-1 2 0 1833.32 92.09
-1 2 0 1943.21 94.59
0 -2 0 1247.08 61.69
0 -2 0 1234.48 62.99
0 -2 0 1156.98 65.69
0 -2 0 1268.67 60.09
0 2 0 1229.88 65.69
0 2 0 1266.37 62.49
-1 -2 0 1223.38 56.89
-1 -2 0 1240.28 64.59
-1 -2 0 1206.98 59.09
1 2 0 1109.19 58.29
1 2 0 1061.79 61.69
-2 -2 0 1182.48 56.29
-2 -2 0 1288.07 59.39
-2 -2 0 1139.89 57.69
2 2 0 1200.48 59.69
2 2 0 1086.29 59.69
2 2 0 1038.2 60.79
-3 -2 0 133.39 9.3
-3 -2 0 99.59 5.5
-3 -2 0 120.69 8.5
3 2 0 102.99 7.4
3 2 0 107.99 10.4
3 2 0 110.89 10.7
-4 -2 0 1164.78 63.29
-4 -2 0 1196.08 62.79
4 2 0 1228.98 65.29
4 2 0 1268.87 66.19
-5 -2 0 175.38 18.3
-5 -2 0 184.78 13.3
-5 -2 0 192.48 14.1
-5 -2 0 172.38 14.6
5 2 0 156.08 16.3
5 2 0 187.28 16.8
5 2 0 202.48 17.2
5 2 0 179.88 13.8
5 2 0 166.38 13.5
5 2 0 170.78 16.6
-6 -2 0 2.2 4
-6 -2 0 -3.9 5.3
-6 -2 0 5.8 8.3
-6 -2 0 0.5 7.1
6 2 0 -6.8 6
6 2 0 -0.7 5.5
6 2 0 -1 4.3
6 2 0 4.5 6.9
-7 -2 0 684.03 43.7
-7 -2 0 669.73 39
-7 -2 0 632.74 38.9
7 2 0 723.13 40.6
7 2 0 727.23 43.8
-8 -2 0 87.99 9.3
-8 -2 0 95.59 8.2
8 2 0 75.49 9.6
8 2 0 91.89 8.7
6 -3 0 191.68 14.3
6 -3 0 178.88 13.7
-6 3 0 182.68 12.9
-6 3 0 159.98 10.6
-6 3 0 167.18 16.8
5 -3 0 0.7 3.5
5 -3 0 2.5 5.2
5 -3 0 -5.1 9.5
5 -3 0 0.2 4.4
-5 3 0 4.9 4.3
-5 3 0 0.6 4.3
-5 3 0 7.1 6
-5 3 0 -1.3 6
4 -3 0 404.76 26.5
4 -3 0 400.66 25.4
4 -3 0 391.66 22.8
4 -3 0 390.86 29.6
4 -3 0 397.66 23.3
-4 3 0 395.26 24.7
-4 3 0 388.46 25.1
-4 3 0 389.26 22.4
-4 3 0 397.96 26.2
-4 3 0 415.96 38.2
-4 3 0 396.36 29.3
3 -3 0 295.87 17.2
3 -3 0 284.77 17.6
3 -3 0 291.77 20
3 -3 0 278.67 19.5
3 -3 0 269.87 21
-3 3 0 272.57 19.3
-3 3 0 304.67 19.4
-3 3 0 325.67 29.6
2 -3 0 3149.49 153.38
-2 3 0 2728.73 149.29
-2 3 0 3111.89 153.68
-2 3 0 2706.53 148.89
-2 3 0 3324.17 162.18
1 -3 0 230.08 16.3
1 -3 0 229.18 11.6
-1 3 0 227.48 13.5
-1 3 0 244.78 21.4
-1 3 0 235.08 16.3
0 -3 0 1198.38 57.19
0 -3 0 1134.09 59.69
0 3 0 1210.88 61.09
0 3 0 1113.59 57.99
0 3 0 1206.38 66.49
-1 -3 0 1750.72 82.79
-1 -3 0 1741.93 86.09
1 3 0 1565.44 90.59
1 3 0 1771.62 83.89
1 3 0 1663.53 85.49
-2 -3 0 159.58 8.1
-2 -3 0 166.18 18.4
-2 -3 0 167.98 11.9
2 3 0 156.28 19.2
2 3 0 152.88 12.9
2 3 0 154.48 13.1
2 3 0 166.08 9.7
-3 -3 0 4298.97 215.58
-3 -3 0 3761.22 192.08
-3 -3 0 4073.59 197.08
3 3 0 4035.1 194.28
3 3 0 3958.1 198.48
3 3 0 3957.4 194.48
3 3 0 3554.44 197.38
-4 -3 0 992.7 72.19
-4 -3 0 894.41 50.69
4 3 0 917.21 52.29
4 3 0 925.31 48.5
4 3 0 923.21 53.29
4 3 0 919.31 48.4
-5 -3 0 211.98 15
-5 -3 0 179.38 18.1
-5 -3 0 157.38 15.3
5 3 0 204.98 18.6
5 3 0 196.08 18.4
5 3 0 195.68 15.6
5 3 0 202.38 17.2
-6 -3 0 1144.59 58.29
-6 -3 0 996.3 61.39
6 3 0 1055.79 58.89
6 3 0 996.8 59.29
6 3 0 1122.99 60.89
6 3 0 1056.59 62.69
6 3 0 1069.19 58.19
-7 -3 0 227.78 19.2
-7 -3 0 250.77 17.3
7 3 0 220.88 17.9
7 3 0 217.78 19.2
7 3 0 223.38 17.3
-8 -3 0 234.18 15.1
-8 -3 0 275.97 17.1
8 3 0 181.98 15
5 -4 0 232.08 16.6
5 -4 0 214.58 15.3
5 -4 0 199.38 14.3
5 -4 0 194.98 12.4
-5 4 0 219.38 12.2
-5 4 0 155.58 15.3
4 -4 0 141.39 13.2
4 -4 0 135.79 12.7
4 -4 0 144.19 17.4
4 -4 0 119.89 9.7
-4 4 0 131.49 10
-4 4 0 114.19 11
-4 4 0 129.49 14.4
-4 4 0 135.09 13.6
3 -4 0 1798.32 94.59
3 -4 0 1759.62 95.89
3 -4 0 1894.71 90.99
-3 4 0 1811.42 93.29
-3 4 0 1867.91 110.79
-3 4 0 1735.23 92.99
-3 4 0 1697.13 89.49
2 -4 0 67.59 9.2
2 -4 0 73.59 10
2 -4 0 68.89 9.9
2 -4 0 67.69 6.4
-2 4 0 69.59 9.3
-2 4 0 78.09 8.7
-2 4 0 57.99 15.6
1 -4 0 320.97 21.7
1 -4 0 250.37 13.3
1 -4 0 270.77 18.7
-1 4 0 282.77 27.3
-1 4 0 268.47 16.3
-1 4 0 244.98 15.7
-1 4 0 253.17 19.9
0 -4 0 973.1 45.6
0 4 0 997.5 59.59
0 4 0 961.8 47.5
0 4 0 790.12 49.2
-1 -4 0 690.03 38.5
-1 -4 0 701.53 34
1 4 0 629.24 44.9
1 4 0 686.03 35.7
1 4 0 752.32 35.9
-2 -4 0 2870.71 138.09
-2 -4 0 2694.63 132.39
2 4 0 2949.21 134.59
2 4 0 2687.43 134.49
2 4 0 2367.86 139.19
-3 -4 0 604.34 35.6
-3 -4 0 572.04 29.6
3 4 0 605.64 32.5
3 4 0 586.64 38.1
3 4 0 554.24 36.7
3 4 0 667.23 32.5
-4 -4 0 36.5 6.9
-4 -4 0 35.2 6
-4 -4 0 40 7.7
-4 -4 0 44.9 8.9
4 4 0 35.8 10.1
4 4 0 39.4 7.4
4 4 0 42.1 6.1
4 4 0 34.3 9.2
4 4 0 36.2 4.9
4 4 0 38.6 5.6
4 4 0 41.9 10.3
-5 -4 0 236.98 18
-5 -4 0 228.48 20.5
-5 -4 0 243.48 17.7
5 4 0 250.87 18
5 4 0 258.97 14.7
5 4 0 238.48 23.6
5 4 0 249.08 20.3
-6 -4 0 768.92 47.7
-6 -4 0 806.92 45.2
6 4 0 802.02 48.1
6 4 0 816.32 45.6
-7 -4 0 104.29 11.3
-7 -4 0 102.59 9.8
7 4 0 67.79 10.3
7 4 0 116.59 10.6
-8 -4 0 119.19 9.1
4 -5 0 1066.89 58.79
4 -5 0 1197.78 56.29
4 -5 0 1056.79 58.79
-4 5 0 1000.5 57.39
-4 5 0 1036.6 58.89
-4 5 0 1218.68 55.39
3 -5 0 38.1 5.5
3 -5 0 36.2 7.1
3 -5 0 64.19 9.6
-3 5 0 50.39 5
-3 5 0 41.4 7.2
-3 5 0 46.1 7.9
2 -5 0 744.43 43.6
2 -5 0 765.62 39.7
2 -5 0 698.83 42.4
-2 5 0 755.82 41.3
-2 5 0 754.32 38.4
-2 5 0 690.33 55.89
-2 5 0 750.92 41.5
1 -5 0 1350.06 68.39
1 -5 0 1313.77 72.19
1 -5 0 1374.16 72.69
-1 5 0 1344.07 69.69
-1 5 0 1309.47 69.19
0 -5 0 71.59 9.9
0 -5 0 55.99 9.2
0 -5 0 58.19 9.4
0 -5 0 72.19 9.4
0 -5 0 74.09 7.1
0 5 0 78.89 7.5
0 5 0 72.89 15.5
0 5 0 81.19 7.9
-1 -5 0 2695.63 142.59
-1 -5 0 2712.03 141.99
-1 -5 0 2737.33 142.49
-1 -5 0 2780.62 144.59
1 5 0 2839.52 146.49
1 5 0 2961.5 139.99
1 5 0 2915.41 139.79
-2 -5 0 361.56 24.8
-2 -5 0 371.56 24.8
-2 -5 0 347.77 25.5
-2 -5 0 386.06 24.7
2 5 0 398.36 22.6
2 5 0 398.16 28.2
2 5 0 421.06 22.6
2 5 0 410.96 29.9
-3 -5 0 54.19 8.2
-3 -5 0 74.09 10.7
-3 -5 0 61.39 9.1
-3 -5 0 75.09 10.9
-3 -5 0 64.79 9.1
-3 -5 0 50.19 7.3
3 5 0 66.29 6.4
3 5 0 64.99 12.4
3 5 0 69.09 12.6
3 5 0 76.49 10.4
3 5 0 80.69 10
3 5 0 73.89 8.4
3 5 0 68.49 6.7
-4 -5 0 186.18 15.2
-4 -5 0 184.78 17.6
-4 -5 0 187.38 15.4
-4 -5 0 179.58 16.3
4 5 0 189.68 12.2
4 5 0 176.48 15.8
4 5 0 188.08 13.5
4 5 0 163.88 18.7
4 5 0 192.68 19.3
4 5 0 196.58 14.5
-5 -5 0 1247.88 69.89
-5 -5 0 1288.47 72.09
-5 -5 0 1083.49 67.69
5 5 0 1397.96 65.09
5 5 0 1334.47 71.29
5 5 0 1339.47 69.59
5 5 0 1370.26 76.59
-6 -5 0 77.69 8.9
-6 -5 0 91.29 12.5
6 5 0 99.89 12.2
6 5 0 98.09 12.3
-7 -5 0 513.35 29.1
-7 -5 0 397.36 26.4
-7 -5 0 512.15 28.2
7 5 0 465.65 27.4
7 5 0 437.76 28
3 -6 0 154.28 9.4
3 -6 0 124.59 11.9
-3 6 0 150.18 8.7
-3 6 0 110.59 11.2
2 -6 0 37.7 5.2
2 -6 0 40.8 7.1
-2 6 0 44.9 4.8
-2 6 0 43.3 6.8
1 -6 0 172.08 11.6
1 -6 0 182.18 15.6
-1 6 0 147.29 9.9
-1 6 0 159.28 12.4
-1 6 0 170.98 12.6
0 -6 0 30.5 7.2
0 -6 0 46.4 7.7
0 -6 0 37 5.4
0 6 0 54.49 7.4
-1 -6 0 435.46 29.8
-1 -6 0 443.36 27.6
-1 -6 0 400.36 28.4
-1 -6 0 418.96 27.5
1 6 0 419.06 25.4
1 6 0 414.66 25.2
-2 -6 0 286.47 20.7
-2 -6 0 276.27 20.1
-2 -6 0 259.37 22.3
-2 -6 0 270.07 21.3
2 6 0 289.87 23.9
2 6 0 265.87 17.9
2 6 0 281.27 18.5
2 6 0 254.97 15.8
-3 -6 0 34.6 6.9
-3 -6 0 26.8 10
-3 -6 0 23 6.9
-3 -6 0 30.6 7.1
3 6 0 35.6 6.7
3 6 0 19.7 9
3 6 0 20.4 4.6
3 6 0 27.1 10.4
3 6 0 28.6 5.7
-4 -6 0 1589.04 83.79
-4 -6 0 1568.64 81.99
-4 -6 0 1667.23 82.09
-4 -6 0 1538.65 78.69
4 6 0 1549.14 76.99
4 6 0 1564.04 79.59
4 6 0 1450.45 81.49
4 6 0 1363.96 80.59
-5 -6 0 3.9 2.8
-5 -6 0 9 5.8
-5 -6 0 9.8 5
-5 -6 0 4.1 4
5 6 0 -0.4 6.3
5 6 0 1.1 7.2
5 6 0 3.1 3.6
-6 -6 0 492.25 29.1
-6 -6 0 510.55 27.7
-6 -6 0 431.16 25.4
6 6 0 435.06 28.5
6 6 0 398.86 27
1 -7 0 30.4 5.3
1 -7 0 47.8 4.9
-1 7 0 52.79 4.5
-1 7 0 50.79 7.2
0 -7 0 905.21 49.1
0 7 0 885.61 45.6
0 7 0 919.31 48
-1 -7 0 50.79 7.7
-1 -7 0 39.6 6.9
-1 -7 0 52.49 7.9
1 7 0 45.5 4.9
1 7 0 35.3 5.7
1 7 0 48.7 7.2
-2 -7 0 64.19 8
-2 -7 0 47.6 9.7
-2 -7 0 74.59 11.3
-2 -7 0 79.69 9
2 7 0 77.19 8.1
2 7 0 81.19 7
-3 -7 0 844.22 43.7
-3 -7 0 722.23 44.7
-3 -7 0 767.72 44
3 7 0 767.92 39.6
3 7 0 772.62 42.3
-4 -7 0 214.98 15.3
-4 -7 0 210.18 17.2
-4 -7 0 225.78 16.9
4 7 0 203.58 12.6
4 7 0 193.88 14
4 7 0 207.08 15.4
-5 -7 0 500.95 27.6
-5 -7 0 454.05 26.2
5 7 0 438.66 25.6
5 7 0 386.36 22.6
4 7 -1 20.4 2.7
4 7 -1 19.6 4.3
4 7 -1 13.7 3.7
-4 -7 1 10 3.4
-4 -7 1 24.1 4.1
3 7 -1 83.49 8
3 7 -1 92.99 6.6
-3 -7 1 91.09 9.7
-3 -7 1 90.39 8.6
-3 -7 1 77.69 8.3
2 7 -1 1005.8 53.99
2 7 -1 1143.89 51.99
2 7 -1 925.71 53.89
-2 -7 1 1014.7 56.79
-2 -7 1 1030.4 54.49
-2 -7 1 1074.09 55.99
1 7 -1 44.3 4.2
1 7 -1 44 6.1
1 7 -1 46.1 6
-1 -7 1 34.6 5.8
-1 -7 1 46.2 6
0 7 -1 802.92 44.8
0 7 -1 841.62 40
0 -7 1 732.93 42
-1 7 -1 129.59 7.8
6 6 -1 563.84 30.2
6 6 -1 526.85 30
-6 -6 1 624.44 31.5
-6 -6 1 446.46 27.9
-6 -6 1 489.05 29
5 6 -1 0.4 4.3
5 6 -1 1.5 3.6
-5 -6 1 1.2 2.4
-5 -6 1 -0.3 3.9
-5 -6 1 5.1 3.8
4 6 -1 64.89 9.5
4 6 -1 78.09 10
4 6 -1 90.49 7.1
-4 -6 1 75.99 9.8
-4 -6 1 78.89 8.1
-4 -6 1 86.59 9.1
-4 -6 1 72.49 8.9
-4 -6 1 85.69 10.4
3 6 -1 515.55 31.2
3 6 -1 560.04 33.1
3 6 -1 527.35 28.5
-3 -6 1 516.85 31.8
-3 -6 1 521.15 29.7
-3 -6 1 576.14 33.8
-3 -6 1 536.05 34.1
-3 -6 1 538.55 33.9
2 6 -1 475.85 29.8
2 6 -1 497.05 26.3
2 6 -1 448.86 28.8
2 6 -1 492.15 29.3
-2 -6 1 502.25 31.1
-2 -6 1 486.65 29.5
-2 -6 1 477.45 30.8
-2 -6 1 529.05 33
1 6 -1 926.01 50.79
1 6 -1 925.51 47.8
-1 -6 1 984 53.59
-1 -6 1 913.61 52.59
-1 -6 1 983.9 54.59
-1 -6 1 890.71 51.09
0 6 -1 784.32 44.5
0 6 -1 861.91 45.1
0 6 -1 816.32 44.9
0 6 -1 844.42 41.9
0 -6 1 856.31 45.8
0 -6 1 863.91 47.6
0 -6 1 683.53 44.6
-1 6 -1 1.4 3.2
-1 6 -1 1.7 3
1 -6 1 0.5 3.6
1 -6 1 4.1 3.7
1 -6 1 6.3 3
-2 6 -1 497.55 24.2
-2 6 -1 425.76 26
-2 6 -1 432.56 28.3
2 -6 1 479.05 25.4
-3 6 -1 236.08 12.6
-3 6 -1 271.37 16.5
3 -6 1 201.58 13.2
7 5 -1 372.96 24.7
7 5 -1 398.16 25.5
-7 -5 1 451.35 24.6
-7 -5 1 471.85 25.2
-7 -5 1 495.25 26.5
6 5 -1 43.8 8.4
6 5 -1 51.59 8.3
-6 -5 1 39.9 6.8
-6 -5 1 60.69 8.5
-6 -5 1 56.39 7.2
5 5 -1 12.4 5.9
5 5 -1 7.2 5.4
-5 -5 1 9.5 4.3
-5 -5 1 7.1 5.1
-5 -5 1 3.9 4.6
4 5 -1 315.57 21
4 5 -1 334.37 23.8
4 5 -1 333.07 18.6
4 5 -1 299.97 23
4 5 -1 353.46 25.7
-4 -5 1 360.36 25.2
-4 -5 1 290.87 20.8
-4 -5 1 331.87 22.4
-4 -5 1 330.47 23.1
-4 -5 1 334.87 23.7
3 5 -1 1171.98 67.59
3 5 -1 1235.08 65.79
3 5 -1 1336.07 71.49
3 5 -1 1269.07 65.89
3 5 -1 1172.78 67.89
3 5 -1 1204.28 63.09
-3 -5 1 1319.17 67.69
-3 -5 1 1269.17 67.79
-3 -5 1 1279.97 69.69
-3 -5 1 1299.87 68.59
-3 -5 1 1259.97 66.29
2 5 -1 637.64 36.9
2 5 -1 667.63 40.9
2 5 -1 737.63 39.8
2 5 -1 712.43 39.4
2 5 -1 748.23 44.9
-2 -5 1 721.33 41.1
-2 -5 1 731.43 39.4
-2 -5 1 730.13 42.5
-2 -5 1 725.83 43.3
-2 -5 1 761.42 42.5
1 5 -1 797.42 45.5
1 5 -1 709.13 55.89
1 5 -1 780.02 41.9
1 5 -1 876.81 44.9
1 5 -1 862.41 44.8
-1 -5 1 862.71 47.4
-1 -5 1 787.22 43.7
-1 -5 1 868.21 48.7
-1 -5 1 831.02 45.7
-1 -5 1 824.32 46.5
0 5 -1 1.5 3.9
0 5 -1 3.1 4.8
0 5 -1 2.8 11.4
0 5 -1 -1.6 3
0 -5 1 2.7 5.4
0 -5 1 2.1 4.4
0 -5 1 0.4 6.6
0 -5 1 4.1 4.3
0 -5 1 -0.2 3
-1 5 -1 22 12.3
-1 5 -1 20.1 5.7
-1 5 -1 20.8 5.4
-1 5 -1 14.8 3.8
1 -5 1 19.8 4.8
1 -5 1 25.2 5.7
1 -5 1 15.6 6.4
-2 5 -1 471.75 32.9
-2 5 -1 534.25 30.6
-2 5 -1 508.35 27.3
-2 5 -1 536.95 30.7
2 -5 1 513.45 28.7
2 -5 1 516.05 31.3
-3 5 -1 238.38 13.8
-3 5 -1 259.27 17.5
3 -5 1 232.08 17.4
3 -5 1 232.08 17.9
3 -5 1 237.18 15.2
-4 5 -1 20.9 5.9
-4 5 -1 30.4 3.7
4 -5 1 14 4.1
4 -5 1 26.3 3.8
7 4 -1 78.49 9.1
7 4 -1 82.19 9.8
-7 -4 1 89.29 9.5
-7 -4 1 74.39 7.9
6 4 -1 48.2 9.2
6 4 -1 53.29 8.8
-6 -4 1 42.9 8.3
-6 -4 1 49.99 8
5 4 -1 288.17 20.6
5 4 -1 271.77 21
5 4 -1 221.38 23.9
-5 -4 1 241.48 18.6
-5 -4 1 275.57 21.8
-5 -4 1 237.78 19.3
4 4 -1 1492.55 77.69
4 4 -1 1503.55 71.99
4 4 -1 1557.24 80.19
4 4 -1 1467.15 76.09
4 4 -1 1469.15 79.39
-4 -4 1 1426.16 75.79
-4 -4 1 1430.06 78.59
-4 -4 1 1376.36 76.29
-4 -4 1 1248.88 75.19
3 4 -1 481.95 31.2
3 4 -1 542.25 33.7
3 4 -1 482.95 28.1
3 4 -1 506.65 28.4
3 4 -1 527.85 32.7
3 4 -1 496.35 30.1
3 4 -1 533.45 26.4
-3 -4 1 489.95 31.7
-3 -4 1 464.05 30.3
-3 -4 1 469.85 30.3
2 4 -1 1943.01 97.69
2 4 -1 1898.51 96.89
2 4 -1 1860.81 92.39
2 4 -1 1786.42 104.39
2 4 -1 1826.12 92.39
-2 -4 1 1738.23 89.19
-2 -4 1 1747.53 95.69
1 4 -1 142.79 10.6
1 4 -1 150.78 13.4
1 4 -1 144.39 10.3
1 4 -1 132.99 19.8
-1 -4 1 132.59 11.5
-1 -4 1 128.79 7.2
0 4 -1 2.6 3.4
0 4 -1 2 6.2
0 4 -1 2.7 3
0 -4 1 -1 5.8
0 -4 1 3.5 3.7
0 -4 1 1.4 0.7
-1 4 -1 2790.82 145.49
-1 4 -1 2875.41 160.78
-1 4 -1 3360.06 146.29
-1 4 -1 2917.81 145.99
1 -4 1 2738.73 149.69
1 -4 1 2970.8 148.59
1 -4 1 2930.41 144.69
1 -4 1 2834.22 145.29
1 -4 1 2872.61 147.49
-2 4 -1 298.57 19.1
-2 4 -1 320.47 23.4
-2 4 -1 291.27 19.2
-2 4 -1 270.07 15.9
-2 4 -1 269.67 31.7
2 -4 1 268.37 20
2 -4 1 287.17 19.9
2 -4 1 267.37 17.2
2 -4 1 258.77 17.1
2 -4 1 259.47 20.6
-3 4 -1 1107.09 57.29
-3 4 -1 1010 59.59
-3 4 -1 1063.39 57.19
-3 4 -1 994.2 72.59
-3 4 -1 986.8 56.79
-3 4 -1 1059.79 53.19
3 -4 1 1042.9 58.49
3 -4 1 1073.69 54.59
3 -4 1 1071.19 58.39
-4 4 -1 215.28 19.4
-4 4 -1 166.88 14.9
-4 4 -1 210.58 16
-4 4 -1 232.18 17
-4 4 -1 226.58 13.5
4 -4 1 223.68 13.9
4 -4 1 220.88 18
4 -4 1 208.08 16.8
-5 4 -1 92.39 8.7
-5 4 -1 74.09 10.9
-5 4 -1 89.79 6.4
5 -4 1 100.99 10.5
5 -4 1 89.09 6.9
7 3 -1 10.6 5.2
7 3 -1 10.7 4.6
7 3 -1 4.9 6.1
-7 -3 1 9 5
-7 -3 1 9.8 4.8
6 3 -1 50.99 9.1
6 3 -1 37.1 8.3
6 3 -1 40.8 7.7
-6 -3 1 41.4 6.9
-6 -3 1 38.1 9.1
5 3 -1 1025.3 58.99
5 3 -1 1048.7 61.59
5 3 -1 1155.88 58.89
5 3 -1 1086.89 60.59
-5 -3 1 1127.29 58.59
-5 -3 1 1058.49 61.49
-5 -3 1 1013.3 58.89
4 3 -1 43.6 7.4
4 3 -1 54.79 9.5
4 3 -1 33 7.9
4 3 -1 42.9 4.7
4 3 -1 39.6 7.9
-4 -3 1 50.39 8.5
-4 -3 1 47.1 8
-4 -3 1 45.4 6.7
3 3 -1 1397.46 72.09
3 3 -1 1466.25 72.99
3 3 -1 1268.87 68.39
3 3 -1 1312.77 68.59
-3 -3 1 1309.67 71.49
2 3 -1 1250.37 74.99
2 3 -1 1279.07 68.69
2 3 -1 1364.36 65.79
2 3 -1 1285.27 69.19
2 3 -1 1318.87 65.69
-2 -3 1 1296.17 63.29
-2 -3 1 1279.37 68.29
1 3 -1 171.08 19.3
1 3 -1 186.28 11.5
1 3 -1 171.78 13.3
-1 -3 1 218.28 35.1
-1 -3 1 190.78 13.1
-1 -3 1 189.58 9.4
0 3 -1 3497.65 176.28
0 3 -1 3555.44 186.48
0 3 -1 3740.73 179.78
0 -3 1 3685.53 174.28
0 -3 1 3423.46 177.38
-1 3 -1 1014.8 56.69
-1 3 -1 963.1 52.69
-1 3 -1 1143.29 64.59
-1 3 -1 990.2 53.09
1 -3 1 1054.19 50.49
-2 3 -1 660.03 36.3
-2 3 -1 633.14 40.2
-2 3 -1 694.13 47.7
-2 3 -1 696.63 36.9
2 -3 1 629.64 32.5
-3 3 -1 373.46 23.1
-3 3 -1 313.17 22.4
-3 3 -1 316.97 25.8
-3 3 -1 340.57 19.4
-3 3 -1 336.67 22.6
-3 3 -1 395.46 35
3 -3 1 353.26 21.2
3 -3 1 341.27 23.3
3 -3 1 337.97 23.5
3 -3 1 323.57 22.2
3 -3 1 351.56 19.8
-4 3 -1 641.14 37.2
-4 3 -1 599.94 41.6
-4 3 -1 524.75 36.4
-4 3 -1 597.14 37.5
-4 3 -1 629.24 49.7
-4 3 -1 634.94 33.7
4 -3 1 621.74 36.7
4 -3 1 673.83 34.3
4 -3 1 649.14 35.4
4 -3 1 670.43 38.2
4 -3 1 657.63 38.7
-5 3 -1 169.38 11.3
-5 3 -1 181.48 15.7
-5 3 -1 147.09 14.6
-5 3 -1 164.78 18.2
5 -3 1 195.38 15.3
5 -3 1 174.18 12.6
5 -3 1 175.18 12.1
5 -3 1 170.28 14.1
5 -3 1 169.78 17.1
-6 3 -1 673.73 35.8
-6 3 -1 555.74 38.1
-6 3 -1 652.13 36.3
6 -3 1 686.03 36.7
6 -3 1 647.14 36
7 2 -1 31.6 7.7
7 2 -1 25.8 6.8
-7 -2 1 31.8 5.7
-7 -2 1 33.8 8.1
-7 -2 1 33.5 6.8
6 2 -1 585.54 40.7
6 2 -1 736.13 41.2
6 2 -1 687.03 39.6
6 2 -1 760.62 44.3
-6 -2 1 661.23 43.2
-6 -2 1 700.73 40.5
-6 -2 1 754.52 40.6
5 2 -1 180.08 14.5
5 2 -1 177.78 15.6
5 2 -1 206.48 18
5 2 -1 192.28 16.1
5 2 -1 174.08 16.5
5 2 -1 170.78 14.8
-5 -2 1 174.78 16.9
-5 -2 1 177.18 15.5
-5 -2 1 150.68 16.4
-5 -2 1 196.18 15.7
-5 -2 1 197.28 14.1
4 2 -1 2748.43 139.29
4 2 -1 2900.61 140.29
-4 -2 1 2669.63 137.09
-4 -2 1 2616.54 138.49
3 2 -1 1301.07 70.19
3 2 -1 1437.86 75.49
3 2 -1 1353.66 70.69
3 2 -1 1357.56 70.99
-3 -2 1 1281.77 68.49
-3 -2 1 1388.66 70.79
2 2 -1 375.16 19.9
2 2 -1 350.06 21.3
2 2 -1 354.56 26.1
2 2 -1 346.27 21.8
-2 -2 1 363.36 18
-2 -2 1 424.66 44.9
-2 -2 1 347.17 21.6
1 2 -1 3245.78 177.58
1 2 -1 3240.48 172.68
1 2 -1 3487.25 172.78
-1 -2 1 3448.56 172.68
-1 -2 1 3778.92 204.08
-1 -2 1 3461.45 169.58
-1 -2 1 3737.23 176.38
0 2 -1 1119.39 53.09
0 2 -1 1005 58.69
0 2 -1 1066.19 54.59
0 -2 1 968.9 50.79
0 -2 1 1039.6 53.09
0 -2 1 1053.09 77.29
-1 2 -1 875.91 47.2
-1 2 -1 975 54.59
-1 2 -1 973.2 49.9
1 -2 1 912.21 48.7
1 -2 1 910.41 68.59
1 -2 1 925.61 45.3
-2 2 -1 588.74 34.4
-2 2 -1 556.54 31.8
-2 2 -1 611.84 39.4
2 -2 1 580.14 28.7
2 -2 1 589.54 33.1
-3 2 -1 667.33 37.2
-3 2 -1 680.43 40.8
-3 2 -1 618.44 36.9
-3 2 -1 727.63 47
3 -2 1 642.14 40.5
3 -2 1 674.33 38.7
-4 2 -1 6.8 8.2
-4 2 -1 3.3 6.1
-4 2 -1 3.2 5.4
-4 2 -1 10 4
-4 2 -1 7.3 5.9
-4 2 -1 9.7 5.1
4 -2 1 2 4
4 -2 1 15.1 7.4
4 -2 1 5.8 3.3
4 -2 1 5.2 5
4 -2 1 1.3 3.8
-5 2 -1 1053.89 55.49
-5 2 -1 1006.4 58.59
-5 2 -1 885.71 50.89
5 -2 1 948.61 55.89
5 -2 1 973.5 55.29
5 -2 1 1010.9 54.89
5 -2 1 1054.19 54.19
-6 2 -1 11.3 7
-6 2 -1 2.7 5.7
6 -2 1 15.5 4.3
6 -2 1 19.5 5.4
6 -2 1 16.4 5.2
-7 2 -1 1.8 3.5
7 -2 1 -0.2 3.4
7 1 -1 158.68 13.8
7 1 -1 141.19 15.1
-7 -1 1 140.59 12.3
-7 -1 1 145.89 15.1
6 1 -1 354.06 23.5
6 1 -1 340.87 26.9
-6 -1 1 311.67 25.6
-6 -1 1 340.07 23.2
-6 -1 1 296.07 23.2
5 1 -1 1015.7 52.79
5 1 -1 981.4 55.69
5 1 -1 905.21 54.39
5 1 -1 1027.2 55.99
-5 -1 1 849.91 53.49
-5 -1 1 910.11 55.79
-5 -1 1 993.7 53.69
-5 -1 1 989.7 52.39
4 1 -1 597.54 39.1
4 1 -1 652.03 37.9
4 1 -1 667.93 37.5
-4 -1 1 649.14 36
3 1 -1 29.4 5
3 1 -1 22 3.8
3 1 -1 25.5 5.5
-3 -1 1 26.4 4.1
2 1 -1 508.75 31.2
2 1 -1 515.15 28.4
2 1 -1 496.75 28
2 1 -1 515.25 27.9
-2 -1 1 573.24 45.8
-2 -1 1 517.05 27.2
-2 -1 1 500.15 25.2
1 1 -1 4508.95 233.08
1 1 -1 4516.35 236.98
1 1 -1 4952.5 236.38
-1 -1 1 4852.11 254.07
-1 -1 1 4963.5 231.48
0 1 -1 556.54 29
0 1 -1 495.65 31.2
0 -1 1 575.24 44.5
-1 1 -1 2543.75 120.99
-1 1 -1 2478.35 123.59
1 -1 1 2409.46 119.79
1 -1 1 2260.97 120.69
1 -1 1 2414.66 137.49
-2 1 -1 294.77 17.8
-2 1 -1 309.97 17.3
-2 1 -1 322.67 22.4
-2 1 -1 331.57 19.9
2 -1 1 317.77 19.9
2 -1 1 319.97 19.3
2 -1 1 320.27 18.5
-3 1 -1 100.39 7.9
-3 1 -1 106.99 12.8
-3 1 -1 69.39 8.5
-3 1 -1 78.79 7.6
3 -1 1 77.49 9.3
3 -1 1 85.09 8.1
3 -1 1 84.59 10.2
-4 1 -1 1657.23 92.19
-4 1 -1 1649.73 88.39
-4 1 -1 1894.11 98.99
-4 1 -1 1612.74 88.69
-4 1 -1 1807.72 88.59
4 -1 1 1774.32 93.29
4 -1 1 1714.73 92.99
-5 1 -1 252.67 17.4
-5 1 -1 282.07 20.2
-5 1 -1 301.27 20.5
-5 1 -1 314.47 23.7
5 -1 1 326.27 21
5 -1 1 333.17 20.8
5 -1 1 289.17 23.4
5 -1 1 295.37 24.5
5 -1 1 303.27 21
5 -1 1 289.87 25.2
-6 1 -1 138.19 19.6
-6 1 -1 175.08 16.9
-6 1 -1 186.18 16.6
6 -1 1 232.88 16.6
6 -1 1 197.48 15.7
6 -1 1 178.18 15.2
6 -1 1 187.08 19.7
-7 1 -1 99.39 11.7
7 -1 1 82.19 10.9
7 -1 1 92.09 9.7
7 -1 1 104.09 9.2
7 0 -1 690.03 37.2
7 0 -1 650.13 41.3
7 0 -1 617.84 35.7
-7 0 1 618.24 39.6
-7 0 1 654.03 36.9
6 0 -1 373.26 23.4
6 0 -1 365.26 23.2
6 0 -1 340.07 27.8
-6 0 1 286.07 27.5
-6 0 1 354.66 23.9
5 0 -1 940.21 52.19
5 0 -1 922.01 55.69
5 0 -1 989.8 56.59
5 0 -1 960.5 51.99
5 0 -1 933.51 55.49
-5 0 1 953.9 53.39
-5 0 1 1002.5 52.59
-5 0 1 963.5 57.09
-5 0 1 982 48.8
4 0 -1 257.47 19
4 0 -1 249.68 19.5
4 0 -1 263.37 18.2
-4 0 1 253.67 17.4
-4 0 1 218.38 14.8
-4 0 1 247.58 15.7
-4 0 1 233.48 16.7
3 0 -1 194.68 15.2
3 0 -1 209.28 14.4
3 0 -1 174.48 12.5
3 0 -1 211.18 14.2
-3 0 1 187.98 11.6
-3 0 1 182.68 13.1
-3 0 1 189.68 13.3
2 0 -1 4906.71 256.07
2 0 -1 5272.87 257.77
2 0 -1 5590.24 260.97
2 0 -1 5053.09 256.37
-2 0 1 5328.17 299.67
-2 0 1 5170.98 255.77
0 0 -1 43.6 3.8
0 0 -1 44.2 6.7
0 0 1 41.1 9.7
-1 0 -1 1160.58 54.09
-1 0 -1 963.2 49.7
-1 0 -1 1064.79 50.79
1 0 1 1006.8 49.5
1 0 1 936.61 49.4
1 0 1 858.41 60.79
1 0 1 1028 50.19
-2 0 -1 9659.53 464.75
-2 0 -1 9999 473.55
2 0 1 8076.79 518.25
2 0 1 9620.24 467.85
2 0 1 9601.54 467.85
2 0 1 9714.93 470.15
-3 0 -1 2534.05 143.89
-3 0 -1 3104.09 143.79
-3 0 -1 2987 145.49
3 0 1 2922.71 145.69
3 0 1 2962.4 145.39
3 0 1 2882.31 144.49
-4 0 -1 5345.07 245.68
-4 0 -1 4447.16 244.38
4 0 1 4742.03 246.78
4 0 1 5110.29 248.18
4 0 1 5195.88 248.88
-5 0 -1 245.98 16.3
-5 0 -1 172.18 12.7
-5 0 -1 253.97 18.4
-5 0 -1 227.68 16.8
5 0 1 222.28 16.5
5 0 1 226.58 20.4
5 0 1 224.18 18.6
5 0 1 180.98 16.8
5 0 1 226.98 20.1
5 0 1 219.58 15.6
-6 0 -1 399.66 24.7
-6 0 -1 300.77 29.8
-6 0 -1 361.36 24.9
-6 0 -1 348.07 24.4
6 0 1 384.46 28.2
6 0 1 345.07 28.4
6 0 1 392.86 25
6 0 1 396.26 24.4
-7 0 -1 423.36 27
7 0 1 437.46 31.6
7 0 1 453.95 27.7
7 0 1 422.66 26.5
7 -1 -1 145.69 14.3
7 -1 -1 146.19 10.5
7 -1 -1 170.58 12.8
-7 1 1 162.38 15.1
-7 1 1 136.89 12.5
6 -1 -1 451.05 26.9
6 -1 -1 427.96 26.9
6 -1 -1 415.46 31.9
-6 1 1 403.06 23.2
-6 1 1 441.56 31.6
-6 1 1 450.05 27.7
5 -1 -1 70.59 12
5 -1 -1 60.79 8.3
5 -1 -1 40.3 7.1
5 -1 -1 54.09 10.8
5 -1 -1 59.39 9.6
5 -1 -1 49.2 7.5
-5 1 1 68.59 9.6
-5 1 1 57.49 9.6
-5 1 1 57.89 5.4
-5 1 1 48.6 6.2
-5 1 1 51.39 7.8
4 -1 -1 60.49 11.6
4 -1 -1 61.69 8.4
4 -1 -1 91.79 11.7
4 -1 -1 59.39 9.3
4 -1 -1 54.19 9.2
4 -1 -1 84.19 9.6
4 -1 -1 45.3 6.8
-4 1 1 64.09 6.7
-4 1 1 66.59 7.5
-4 1 1 60.99 7.6
-4 1 1 59.59 8.5
3 -1 -1 3196.48 164.18
3 -1 -1 3257.57 164.38
3 -1 -1 3308.87 162.98
3 -1 -1 3213.38 163.68
-3 1 1 3386.26 161.78
-3 1 1 3223.98 163.68
-3 1 1 3261.57 160.38
-3 1 1 3164.88 160.58
2 -1 -1 36.2 4.7
2 -1 -1 32 5.3
2 -1 -1 34.1 4.5
-2 1 1 34.4 4.6
-2 1 1 33.4 3.4
-2 1 1 36.8 4.7
1 -1 -1 2472.25 114.99
1 -1 -1 2631.54 117.49
1 -1 -1 2587.64 117.79
1 -1 -1 2066.69 116.99
-1 1 1 2064.49 123.59
0 -1 -1 2395.56 114.79
0 -1 -1 2232.08 111.19
0 -1 -1 2206.38 109.89
0 -1 -1 2199.58 110.79
-1 -1 -1 1489.85 77.29
-1 -1 -1 1591.74 76.49
-1 -1 -1 1686.03 82.79
-1 -1 -1 1495.05 77.49
1 1 1 1467.65 76.79
1 1 1 1565.94 76.59
-2 -1 -1 8623.04 437.76
-2 -1 -1 8957.1 438.06
-2 -1 -1 8543.84 434.06
2 1 1 9581.84 441.16
2 1 1 8576.64 437.46
-3 -1 -1 2494.35 123.29
-3 -1 -1 2566.54 124.09
-3 -1 -1 2426.56 124.19
3 1 1 2579.84 125.39
3 1 1 2444.16 125.59
3 1 1 2477.15 125.09
-4 -1 -1 2151.68 106.99
4 1 1 2062.09 108.79
4 1 1 2048.1 108.49
4 1 1 2218.68 109.69
-5 -1 -1 106.19 15.7
-5 -1 -1 114.99 11
-5 -1 -1 104.09 10.2
-5 -1 -1 147.89 12.3
-5 -1 -1 109.09 11.5
5 1 1 119.79 11.1
5 1 1 116.79 13.5
5 1 1 126.99 11.4
5 1 1 135.19 15
5 1 1 155.88 15.4
5 1 1 120.89 11.6
-6 -1 -1 228.48 18.8
-6 -1 -1 244.18 17.3
-6 -1 -1 263.57 18.7
-6 -1 -1 257.97 19.3
-6 -1 -1 209.28 23.1
6 1 1 262.87 23.2
6 1 1 237.58 22.6
6 1 1 239.08 17.3
6 1 1 263.87 18.9
6 1 1 251.07 18.5
-7 -1 -1 12.2 7.9
-7 -1 -1 -1.1 8.3
7 1 1 11.6 4.6
7 1 1 5.2 8.3
7 1 1 16.2 4.7
-8 -1 -1 260.17 18.9
8 1 1 300.77 19.3
8 1 1 349.67 22.7
6 -2 -1 92.69 13
6 -2 -1 118.49 11
6 -2 -1 107.99 8.6
-6 2 1 109.19 8.6
-6 2 1 114.39 16.5
-6 2 1 120.89 10.7
5 -2 -1 26.3 6.6
5 -2 -1 27 8.5
5 -2 -1 22.1 5.3
5 -2 -1 15.4 6
5 -2 -1 20.8 7.8
-5 2 1 22.2 5.8
-5 2 1 31.8 6.2
-5 2 1 19 5.7
-5 2 1 23.8 4.6
-5 2 1 26.9 5.5
4 -2 -1 1361.46 70.39
4 -2 -1 1262.37 66.79
4 -2 -1 1317.37 68.59
4 -2 -1 1280.37 68.59
4 -2 -1 1179.58 72.79
4 -2 -1 1273.67 72.69
4 -2 -1 1231.28 65.39
-4 2 1 1282.07 64.69
-4 2 1 1366.26 67.69
-4 2 1 1375.46 67.09
-4 2 1 1285.67 68.19
-4 2 1 1276.67 67.69
3 -2 -1 989.6 61.59
3 -2 -1 1097.69 61.59
-3 2 1 1197.58 57.19
-3 2 1 1162.18 58.29
-3 2 1 1110.89 61.39
-3 2 1 1108.29 57.19
2 -2 -1 708.73 38.8
2 -2 -1 698.83 39.6
-2 2 1 679.13 36.9
-2 2 1 699.53 35.9
-2 2 1 723.73 39.6
1 -2 -1 1784.52 87.49
1 -2 -1 1753.52 91.39
1 -2 -1 1825.32 90.89
-1 2 1 1737.83 89.29
-1 2 1 1890.61 91.29
0 -2 -1 2747.93 136.69
0 -2 -1 2841.82 134.39
0 -2 -1 2699.53 137.29
0 -2 -1 2726.73 136.19
0 2 1 2802.32 136.69
-1 -2 -1 996.9 57.09
-1 -2 -1 977.9 46.5
-1 -2 -1 950.6 48.3
1 2 1 916.01 48.6
1 2 1 926.61 47.4
-2 -2 -1 5955.6 279.07
-2 -2 -1 5357.36 275.87
-2 -2 -1 5865.71 300.97
-2 -2 -1 5825.32 274.67
2 2 1 5141.69 279.77
2 2 1 5753.82 277.17
2 2 1 5609.44 277.37
-3 -2 -1 6.9 2.8
-3 -2 -1 7.2 6.1
-3 -2 -1 0.7 1.3
3 2 1 -3.1 3.7
3 2 1 0.4 1.8
3 2 1 -0.6 4
-4 -2 -1 406.06 23.9
-4 -2 -1 399.16 23.6
-4 -2 -1 424.86 39.9
4 2 1 423.56 26.3
4 2 1 409.96 26
-5 -2 -1 880.81 48.5
-5 -2 -1 950.1 49.6
-5 -2 -1 744.93 50.09
-5 -2 -1 865.71 49.6
5 2 1 1018.3 53.89
5 2 1 922.21 49.3
5 2 1 913.41 52.19
5 2 1 945.61 51.69
-6 -2 -1 99.69 10.5
-6 -2 -1 107.09 12.5
-6 -2 -1 80.79 12.8
-6 -2 -1 110.99 11.1
-6 -2 -1 95.89 11.4
6 2 1 108.39 14
6 2 1 111.69 15.7
6 2 1 88.69 10.9
6 2 1 113.89 12.3
-7 -2 -1 397.96 32
-7 -2 -1 461.45 29.7
-7 -2 -1 524.05 29.5
7 2 1 535.35 34.8
7 2 1 502.15 30.2
7 2 1 482.75 29.7
-8 -2 -1 33.7 5.9
8 2 1 43.8 8.2
8 2 1 39.8 6.6
6 -3 -1 15.3 5.5
-6 3 1 5.1 5.5
-6 3 1 2.5 3.4
-6 3 1 7.3 3.2
5 -3 -1 512.65 31.5
5 -3 -1 484.75 30.5
5 -3 -1 512.75 33.4
5 -3 -1 510.05 27.6
-5 3 1 497.05 29.8
-5 3 1 514.45 29.9
-5 3 1 541.05 27.3
-5 3 1 444.26 28.5
4 -3 -1 617.04 41
4 -3 -1 664.73 38.7
4 -3 -1 652.23 38.3
4 -3 -1 648.44 35.1
-4 3 1 692.73 37.6
-4 3 1 636.54 36.3
-4 3 1 643.54 34
3 -3 -1 1064.89 57.59
3 -3 -1 1046.4 57.89
3 -3 -1 1032.3 55.09
3 -3 -1 1060.49 59.39
-3 3 1 1076.89 56.29
-3 3 1 1161.78 56.29
2 -3 -1 405.66 26.8
-2 3 1 402.56 26.3
-2 3 1 402.46 22.3
1 -3 -1 114.69 5.6
-1 3 1 102.89 9.9
0 -3 -1 85.69 4.3
0 -3 -1 85.99 6.8
0 -3 -1 81.99 8.4
0 3 1 77.89 7.2
-1 -3 -1 3251.37 197.88
-1 -3 -1 4119.89 184.38
-1 -3 -1 3941.91 187.38
1 3 1 3854.21 186.38
1 3 1 3781.62 190.38
-2 -3 -1 390.26 19.7
-2 -3 -1 413.06 23.1
-2 -3 -1 406.46 33.1
2 3 1 389.96 24.4
2 3 1 400.96 24.1
2 3 1 405.46 20.9
-3 -3 -1 581.04 31.9
-3 -3 -1 613.04 33.5
-3 -3 -1 558.64 29.3
-3 -3 -1 618.04 47.9
3 3 1 625.94 34.9
3 3 1 600.14 31.3
3 3 1 599.84 34.6
-4 -3 -1 572.14 33.4
-4 -3 -1 583.84 32.6
-4 -3 -1 626.44 52.59
4 3 1 550.44 31.7
4 3 1 576.04 35.3
4 3 1 588.14 31.5
4 3 1 617.74 36
-5 -3 -1 819.22 43.8
-5 -3 -1 800.72 44.3
-5 -3 -1 774.42 44.9
5 3 1 762.42 47.4
5 3 1 777.22 40.8
5 3 1 804.92 48.3
5 3 1 869.71 44.8
5 3 1 795.62 46.3
-6 -3 -1 233.08 18.8
-6 -3 -1 263.77 18.8
-6 -3 -1 207.28 19.9
-6 -3 -1 270.47 18.6
6 3 1 277.77 19
6 3 1 278.87 22.2
6 3 1 255.17 22.2
6 3 1 258.67 24
-7 -3 -1 526.15 37
-7 -3 -1 506.15 35.4
-7 -3 -1 685.83 35.3
7 3 1 633.04 38.7
7 3 1 598.24 35.6
7 3 1 626.74 35.3
-8 -3 -1 58.19 6.7
8 3 1 59.59 7.6
8 3 1 58.49 8.6
5 -4 -1 539.65 32.5
5 -4 -1 581.14 34.6
5 -4 -1 571.04 30.3
5 -4 -1 598.24 33.9
-5 4 1 558.54 31.9
-5 4 1 548.85 29.4
4 -4 -1 82.89 8.1
4 -4 -1 88.39 12.2
4 -4 -1 78.59 9.5
4 -4 -1 61.19 9.2
-4 4 1 73.99 8.9
-4 4 1 76.99 7.5
-4 4 1 66.19 7.5
3 -4 -1 189.18 18.9
3 -4 -1 183.68 13.2
3 -4 -1 190.78 16.1
3 -4 -1 170.78 15.5
-3 4 1 204.68 15.7
-3 4 1 210.48 27.1
-3 4 1 192.78 14.2
2 -4 -1 546.05 29.4
2 -4 -1 520.15 32.2
2 -4 -1 539.15 33.6
-2 4 1 584.54 43.8
-2 4 1 498.45 30
-2 4 1 582.64 30.7
1 -4 -1 554.74 35.2
1 -4 -1 531.35 27.5
-1 4 1 545.75 29.4
-1 4 1 624.14 42.4
-1 4 1 554.14 34
0 -4 -1 3869.31 200.98
0 -4 -1 4106.49 197.18
0 4 1 4297.77 210.08
0 4 1 3935.51 202.08
-1 -4 -1 847.22 45.7
-1 -4 -1 852.21 41.6
1 4 1 848.32 42.2
1 4 1 849.41 50.89
-2 -4 -1 705.83 57.89
-2 -4 -1 898.81 46.1
-2 -4 -1 866.31 41.2
2 4 1 918.91 42.7
2 4 1 803.12 47.8
-3 -4 -1 351.66 18
-3 -4 -1 353.66 23
-3 -4 -1 368.26 37.3
3 4 1 368.86 20.5
3 4 1 369.96 20.2
3 4 1 356.26 25.7
3 4 1 370.66 24.9
-4 -4 -1 1082.99 60.09
-4 -4 -1 1183.48 84.79
-4 -4 -1 1075.39 60.09
-4 -4 -1 1102.09 57.79
-4 -4 -1 1095.59 59.59
4 4 1 1125.19 63.19
4 4 1 1076.19 62.49
4 4 1 1052.79 63.89
4 4 1 988.4 55.69
4 4 1 1173.88 57.49
4 4 1 1162.08 57.19
-5 -4 -1 339.67 26.3
-5 -4 -1 367.36 22.3
-5 -4 -1 382.56 24
-5 -4 -1 306.07 24.7
5 4 1 313.57 26.7
5 4 1 336.07 22.9
5 4 1 366.46 21.8
5 4 1 372.66 19.6
5 4 1 322.07 26.7
-6 -4 -1 1089.29 55.79
-6 -4 -1 916.41 57.89
-6 -4 -1 1077.79 56.99
6 4 1 1081.29 56.69
6 4 1 904.81 61.09
6 4 1 1024.7 58.69
-7 -4 -1 5.4 5.5
-7 -4 -1 5.8 3.6
-7 -4 -1 1.4 3.1
7 4 1 2.2 5.2
7 4 1 3.3 5.9
-8 -4 -1 28.6 5.2
8 4 1 11.4 4.8
4 -5 -1 195.38 15.3
4 -5 -1 208.08 13
4 -5 -1 193.38 16.6
-4 5 1 215.78 15
-4 5 1 214.78 12.1
3 -5 -1 182.08 12.9
3 -5 -1 191.08 17.2
3 -5 -1 179.28 15.8
-3 5 1 188.98 11.7
-3 5 1 177.48 13.6
-3 5 1 174.68 14.4
2 -5 -1 456.75 24.6
2 -5 -1 462.45 29.8
2 -5 -1 395.26 27
-2 5 1 430.96 25.3
-2 5 1 406.76 25.3
-2 5 1 399.36 38.3
1 -5 -1 1393.76 69.69
1 -5 -1 1322.47 73.39
1 -5 -1 1321.47 72.99
-1 5 1 1410.76 86.79
-1 5 1 1378.06 70.19
0 -5 -1 1456.95 75.99
0 -5 -1 1533.75 79.39
0 -5 -1 1462.55 79.49
0 -5 -1 1494.95 81.19
0 5 1 1549.45 75.79
0 5 1 1554.94 90.79
-1 -5 -1 58.49 7.8
-1 -5 -1 61.79 8.2
-1 -5 -1 60.99 9.4
-1 -5 -1 71.59 8.5
1 5 1 58.69 5.2
1 5 1 63.89 10.5
-2 -5 -1 827.62 48.8
-2 -5 -1 869.31 47.3
-2 -5 -1 809.82 48.8
-2 -5 -1 868.31 48.2
2 5 1 961.1 44.8
2 5 1 797.12 51.39
2 5 1 907.51 44.8
-3 -5 -1 2340.47 121.69
-3 -5 -1 2306.07 121.79
-3 -5 -1 2459.25 119.79
-3 -5 -1 2317.57 120.49
-3 -5 -1 2236.88 119.99
3 5 1 2604.14 117.99
3 5 1 2040.7 124.59
3 5 1 2623.64 117.69
3 5 1 2177.58 124.19
-4 -5 -1 334.47 24.8
-4 -5 -1 329.47 23
-4 -5 -1 321.87 21.3
-4 -5 -1 312.47 23.5
-4 -5 -1 263.87 19.2
-4 -5 -1 312.77 21.8
4 5 1 329.97 17.9
4 5 1 309.67 29.3
4 5 1 341.67 19.4
4 5 1 350.36 20.4
4 5 1 306.87 26.4
4 5 1 318.27 21.4
-5 -5 -1 1698.23 93.59
-5 -5 -1 1858.71 96.49
-5 -5 -1 1728.03 97.19
5 5 1 1971 90.99
5 5 1 1857.11 95.09
5 5 1 1587.24 100.29
5 5 1 2102.49 98.69
5 5 1 1724.73 92.89
5 5 1 1894.61 93.49
-6 -5 -1 7.2 4.9
-6 -5 -1 8.1 4.5
-6 -5 -1 7.3 4.8
6 5 1 7.9 5.2
6 5 1 6.9 3.8
6 5 1 4.5 9.4
-7 -5 -1 -0.9 3
-7 -5 -1 2.2 3.2
7 5 1 3.2 5.2
7 5 1 4 4.5
3 -6 -1 150.38 12.9
3 -6 -1 134.49 9.5
-3 6 1 141.39 9
2 -6 -1 486.65 30
2 -6 -1 456.65 26
-2 6 1 459.95 27.2
1 -6 -1 919.41 48.6
1 -6 -1 979 53.19
-1 6 1 912.21 49.4
-1 6 1 902.01 49.2
0 -6 -1 301.47 21.7
0 -6 -1 305.67 17.8
0 -6 -1 314.97 21.5
0 6 1 291.87 18.5
0 6 1 286.77 18.4
-1 -6 -1 570.74 34
-1 -6 -1 570.14 36
-1 -6 -1 585.94 34.8
-1 -6 -1 579.34 33.9
1 6 1 545.75 30.9
1 6 1 559.74 31.1
-2 -6 -1 214.38 16.9
-2 -6 -1 236.68 19.3
-2 -6 -1 208.28 18.1
-2 -6 -1 215.68 17.1
2 6 1 241.08 14.8
2 6 1 232.98 14.9
2 6 1 202.98 20.9
-3 -6 -1 142.69 14.5
-3 -6 -1 122.79 14.1
-3 -6 -1 136.79 13.5
3 6 1 89.99 16
3 6 1 124.29 10.9
3 6 1 127.29 10.2
-4 -6 -1 356.26 26
-4 -6 -1 367.46 25.2
-4 -6 -1 361.86 26.3
-4 -6 -1 332.07 24.8
4 6 1 364.76 27.2
4 6 1 373.46 20.3
4 6 1 405.16 22.9
4 6 1 356.56 21.7
4 6 1 309.87 28.7
-5 -6 -1 5.1 6.3
-5 -6 -1 10.7 5.9
-5 -6 -1 10.6 6
-5 -6 -1 4.5 3.7
-5 -6 -1 4.4 5.5
5 6 1 2.4 6.1
5 6 1 0.9 6.2
5 6 1 6.7 5.1
5 6 1 6.6 4.1
5 6 1 7.7 4
-6 -6 -1 75.89 9.2
-6 -6 -1 77.59 8.9
-6 -6 -1 64.09 7.4
-6 -6 -1 81.29 10.5
6 6 1 95.59 12.4
6 6 1 73.79 9.3
6 6 1 72.29 6.6
-7 -6 -1 246.58 15
-7 -6 -1 189.48 12.7
7 6 1 208.68 14.6
7 6 1 208.68 15.6
2 -7 -1 728.13 34.9
2 -7 -1 695.13 36.9
-2 7 1 597.34 34.1
1 -7 -1 -0.7 1.9
1 -7 -1 5.4 4.2
-1 7 1 2.3 3.6
-1 7 1 -1.1 2.3
0 -7 -1 175.98 14.7
0 7 1 191.98 13.4
-1 -7 -1 454.35 28.6
-1 -7 -1 492.55 29.3
-1 -7 -1 436.76 29
1 7 1 471.95 26.8
1 7 1 448.86 26.6
-2 -7 -1 262.77 18.8
-2 -7 -1 268.37 21.1
-2 -7 -1 262.67 21.3
2 7 1 263.77 17.3
2 7 1 242.78 16.5
-3 -7 -1 719.63 40.2
-3 -7 -1 677.33 40.1
-3 -7 -1 709.43 41.8
3 7 1 690.63 38
3 7 1 657.03 37.6
3 7 1 684.63 35.7
-4 -7 -1 540.15 32.7
-4 -7 -1 532.55 33.6
-4 -7 -1 538.65 32.4
4 7 1 526.55 30.7
4 7 1 554.34 28.3
-5 -7 -1 8.8 4.9
-5 -7 -1 15.2 4.6
-5 -7 -1 18 5.9
5 7 1 15.5 4.8
5 7 1 20.4 5.7
5 7 1 12.5 5
5 7 1 13.1 3.8
-6 -7 -1 286.27 16.8
-6 -7 -1 261.27 16.7
6 7 1 224.58 16
6 7 1 236.58 16.8
-1 -8 -1 254.07 16.8
1 8 1 282.07 14.5
-2 -8 -1 315.27 19.1
-2 -8 -1 279.47 18.5
2 8 1 313.17 16.3
-3 -8 -1 341.67 20.9
-3 -8 -1 312.07 21.6
3 8 1 369.26 18.4
-4 -8 -1 22.2 4
-4 -8 -1 30.3 5.1
-4 -8 -1 24.1 5.4
4 8 1 20.6 2.8
3 7 -2 9.6 2.7
3 7 -2 6.2 3.5
-3 -7 2 4.3 3
-3 -7 2 8.9 3.1
2 7 -2 513.75 32.9
2 7 -2 679.63 33.4
-2 -7 2 596.24 32.8
1 7 -2 127.59 8.6
1 7 -2 121.99 10.4
-1 -7 2 110.59 9.3
5 6 -2 435.86 25.5
5 6 -2 400.66 24.9
-5 -6 2 441.56 24.4
-5 -6 2 518.15 26.9
-5 -6 2 403.66 23.8
4 6 -2 122.89 9.8
4 6 -2 137.89 12.8
-4 -6 2 139.29 10
-4 -6 2 131.89 11.8
-4 -6 2 123.49 11.5
-4 -6 2 124.29 9.9
3 6 -2 1067.59 56.39
3 6 -2 1225.48 61.29
3 6 -2 1014.8 59.19
-3 -6 2 1146.89 58.59
-3 -6 2 1210.58 62.49
-3 -6 2 1136.19 61.39
2 6 -2 458.55 27.8
2 6 -2 489.25 28.5
2 6 -2 544.75 31.4
2 6 -2 454.35 25
-2 -6 2 477.25 30.6
-2 -6 2 458.85 29.5
-2 -6 2 462.35 26.4
1 6 -2 31.3 6.2
1 6 -2 32.5 6.1
1 6 -2 40.2 4.6
1 6 -2 29.1 6.8
-1 -6 2 45.5 7.7
-1 -6 2 30.5 6.7
0 6 -2 289.87 15
0 6 -2 242.58 17.1
0 6 -2 256.67 16.6
0 6 -2 255.77 17.3
0 -6 2 256.17 18.7
-1 6 -2 681.83 39.4
-1 6 -2 665.33 37.2
-1 6 -2 651.43 36.6
-1 6 -2 723.53 34.5
1 -6 2 647.34 35.4
1 -6 2 681.23 38.7
-2 6 -2 22.8 2.9
-2 6 -2 18.5 4.5
-2 6 -2 23.6 5.6
2 -6 2 14.7 3.5
6 5 -2 94.59 9.4
6 5 -2 87.69 9.1
-6 -5 2 100.59 8.4
-6 -5 2 105.19 9.7
-6 -5 2 111.49 8.7
5 5 -2 233.28 17.8
5 5 -2 212.78 17.5
-5 -5 2 246.08 18.9
-5 -5 2 262.87 17.4
-5 -5 2 267.17 17.7
-5 -5 2 239.98 16.9
4 5 -2 480.05 33.7
4 5 -2 553.84 34.7
-4 -5 2 580.54 33.1
-4 -5 2 586.84 34
-4 -5 2 556.44 32.6
-4 -5 2 586.94 35.5
3 5 -2 592.74 32.7
3 5 -2 634.34 37.7
-3 -5 2 634.54 38.8
-3 -5 2 624.84 36.6
-3 -5 2 671.73 36.7
-3 -5 2 639.94 38.4
2 5 -2 11.3 5.6
2 5 -2 17.3 7.6
2 5 -2 10.7 4
-2 -5 2 14 5.9
-2 -5 2 16 4.4
-2 -5 2 19.1 4.8
-2 -5 2 16.3 5.6
1 5 -2 49 8.9
1 5 -2 50.69 5.6
1 5 -2 34.7 14.3
1 5 -2 65.19 8.7
1 5 -2 46 7.6
-1 -5 2 50.49 8.8
-1 -5 2 42.7 8.5
-1 -5 2 41.5 6.6
0 5 -2 1304.67 63.89
0 5 -2 1207.98 66.79
0 5 -2 1266.17 66.99
0 5 -2 1127.99 81.49
0 5 -2 1293.87 67.99
0 5 -2 1312.27 66.79
0 -5 2 1253.97 64.99
0 -5 2 1243.98 66.09
0 -5 2 1286.17 69.39
0 -5 2 1380.26 70.89
-1 5 -2 18.5 6.8
-1 5 -2 8.2 3.5
-1 5 -2 9 4.6
-1 5 -2 12.8 4.5
-1 5 -2 7.6 4.6
1 -5 2 8.4 3.6
1 -5 2 10.2 3.7
1 -5 2 7.8 5.8
-2 5 -2 1114.59 63.09
-2 5 -2 1162.38 56.69
-2 5 -2 1113.29 59.39
-2 5 -2 1088.49 60.49
2 -5 2 1111.59 61.89
2 -5 2 1157.08 58.49
-3 5 -2 14.9 4.9
-3 5 -2 17 6.1
-3 5 -2 13 6
-3 5 -2 19.9 3.3
-3 5 -2 7.8 5.7
3 -5 2 14.2 3.5
3 -5 2 13 4.1
-4 5 -2 34.3 5.9
4 -5 2 31 3.7
7 4 -2 85.59 7.6
-7 -4 2 78.39 7.6
-7 -4 2 69.19 6.6
-7 -4 2 66.69 6.3
6 4 -2 644.14 38.3
6 4 -2 613.84 36.3
-6 -4 2 665.23 37
-6 -4 2 701.23 38.9
-6 -4 2 568.64 35.8
5 4 -2 299.87 21.3
5 4 -2 264.87 21.5
-5 -4 2 340.77 22.1
-5 -4 2 323.17 22.7
-5 -4 2 278.07 20.4
4 4 -2 1255.97 74.69
4 4 -2 1334.17 74.39
-4 -4 2 1529.95 76.69
-4 -4 2 1273.87 73.29
-4 -4 2 1528.35 75.29
3 4 -2 7.4 5.9
3 4 -2 3.1 6.2
3 4 -2 4.1 3.2
-3 -4 2 3.2 3.9
-3 -4 2 1.5 4
-3 -4 2 1.8 4.8
-3 -4 2 1.4 6
-3 -4 2 1.7 4.6
2 4 -2 31.4 4.6
2 4 -2 33.5 7.9
2 4 -2 41.1 6.6
2 4 -2 42 6.8
2 4 -2 26 6.6
2 4 -2 47.2 13.1
-2 -4 2 40.2 5
-2 -4 2 35 6.5
-2 -4 2 34.3 7.4
-2 -4 2 43.6 7.7
-2 -4 2 41.3 6.2
-2 -4 2 31.2 6.7
1 4 -2 2002.9 120.39
1 4 -2 2164.48 106.79
1 4 -2 2159.88 109.19
1 4 -2 1996.2 107.49
1 4 -2 2057.69 103.89
1 4 -2 2246.98 106.79
-1 -4 2 2208.58 106.19
-1 -4 2 2105.09 106.89
-1 -4 2 1937.71 108.69
-1 -4 2 2000.2 108.29
-1 -4 2 2205.98 108.89
0 4 -2 343.27 21.9
0 4 -2 355.66 23.2
0 4 -2 325.17 33.2
0 4 -2 334.97 19.1
0 4 -2 383.76 22.4
0 -4 2 364.16 24.2
0 -4 2 345.47 23.9
0 -4 2 366.76 24.8
0 -4 2 376.26 22.4
-1 4 -2 1475.95 75.69
-1 4 -2 1470.45 75.39
-1 4 -2 1351.66 74.99
-1 4 -2 1545.45 77.29
-1 4 -2 1445.06 72.69
-1 4 -2 1282.47 89.89
1 -4 2 1557.44 78.59
1 -4 2 1512.05 75.89
-2 4 -2 301.07 22
-2 4 -2 292.87 17.1
-2 4 -2 230.28 33.3
-2 4 -2 304.37 24.7
-2 4 -2 320.07 20.2
-2 4 -2 319.47 20.4
2 -4 2 324.37 19.2
2 -4 2 309.57 21.6
2 -4 2 313.67 20
2 -4 2 313.17 22.9
-3 4 -2 176.48 16.9
-3 4 -2 197.18 18.4
-3 4 -2 198.98 14.8
-3 4 -2 198.78 12.3
3 -4 2 180.38 13.8
3 -4 2 202.68 16.4
3 -4 2 206.18 13.9
-4 4 -2 186.78 15.8
-4 4 -2 191.78 11.5
-4 4 -2 189.68 17
4 -4 2 190.98 12.4
4 -4 2 169.78 15
-5 4 -2 555.04 33
-5 4 -2 650.73 34.9
7 3 -2 451.65 25.2
-7 -3 2 448.76 26.2
-7 -3 2 344.87 24
6 3 -2 6 6.1
6 3 -2 8.6 5.5
6 3 -2 12.6 5.5
-6 -3 2 12.5 5.3
-6 -3 2 9 6.2
-6 -3 2 17.2 5
-6 -3 2 16.7 6.2
5 3 -2 1149.08 62.09
5 3 -2 986.7 60.79
5 3 -2 1099.69 60.39
-5 -3 2 1205.18 61.69
-5 -3 2 1056.49 59.99
-5 -3 2 1148.29 63.29
-5 -3 2 1092.39 58.99
4 3 -2 11.2 6.6
4 3 -2 9.2 6.3
4 3 -2 16 5.9
-4 -3 2 13.9 5.4
-4 -3 2 16.3 5.2
-4 -3 2 18 6.5
-4 -3 2 12.3 6.1
3 3 -2 17.4 5.4
3 3 -2 17.3 6.1
3 3 -2 20.9 9.7
-3 -3 2 20.2 6.1
-3 -3 2 11.1 4.3
-3 -3 2 19.8 6
-3 -3 2 22.3 5.5
2 3 -2 1288.37 75.09
2 3 -2 1172.28 64.19
2 3 -2 1109.79 61.69
2 3 -2 1253.57 63.99
-2 -3 2 1152.48 65.09
-2 -3 2 1314.77 115.89
-2 -3 2 1117.39 58.69
1 3 -2 701.43 38.1
1 3 -2 714.33 39.8
1 3 -2 707.03 38.1
1 3 -2 681.53 48.8
-1 -3 2 707.03 34.9
-1 -3 2 771.92 81.09
-1 -3 2 694.93 40.4
0 3 -2 844.42 58.49
0 3 -2 897.71 47.2
0 3 -2 892.71 47.1
0 3 -2 830.62 50.49
0 -3 2 875.81 44.1
0 -3 2 1057.09 94.69
-1 3 -2 442.46 24.9
-1 3 -2 390.26 28.8
-1 3 -2 392.46 35.6
-1 3 -2 451.15 25.1
1 -3 2 439.96 21.5
1 -3 2 469.35 58.09
-2 3 -2 365.26 33.9
-2 3 -2 414.06 23.8
-2 3 -2 387.56 23.3
-2 3 -2 371.96 25.2
-2 3 -2 371.06 20.5
2 -3 2 377.86 24.3
2 -3 2 367.06 23.5
2 -3 2 390.86 25.3
-3 3 -2 230.18 19.8
-3 3 -2 242.28 17.5
-3 3 -2 216.78 18.8
-3 3 -2 238.18 14
-3 3 -2 212.38 29
-3 3 -2 231.68 17.5
3 -3 2 240.38 16.9
3 -3 2 242.88 18.6
3 -3 2 216.28 17.7
3 -3 2 214.68 14.8
-4 3 -2 1196.28 60.99
-4 3 -2 1139.19 67.39
-4 3 -2 1253.47 66.49
-4 3 -2 1240.98 69.59
-4 3 -2 1124.09 64.39
4 -3 2 1260.57 64.39
4 -3 2 1230.48 62.19
4 -3 2 1224.78 66.59
4 -3 2 1172.78 64.49
-5 3 -2 41.6 8.7
-5 3 -2 66.59 9.6
-5 3 -2 40 4.7
5 -3 2 30.2 7.2
5 -3 2 46.5 5.8
5 -3 2 33.3 6.7
5 -3 2 42.1 5.7
-6 3 -2 49.8 6.6
-6 3 -2 33.3 6.4
6 -3 2 51.79 6.6
7 2 -2 -0.5 3.2
-7 -2 2 4.1 3.9
-7 -2 2 0.5 4.3
6 2 -2 1337.97 71.19
6 2 -2 1203.08 70.39
-6 -2 2 1412.56 73.59
-6 -2 2 1380.16 71.59
-6 -2 2 1248.88 69.79
5 2 -2 100.99 13.3
5 2 -2 121.79 11.8
5 2 -2 103.89 12.5
-5 -2 2 119.69 13.7
-5 -2 2 103.19 11.5
-5 -2 2 118.59 12.8
-5 -2 2 116.29 11.7
4 2 -2 54.29 8.6
4 2 -2 61.19 8
4 2 -2 54.79 8.4
-4 -2 2 54.59 7.1
-4 -2 2 44.5 8.8
-4 -2 2 82.19 9.6
-4 -2 2 60.39 9.8
3 2 -2 779.72 45.3
3 2 -2 794.22 51.79
2 2 -2 3046.8 154.68
2 2 -2 3144.99 164.48
2 2 -2 2888.31 155.08
-2 -2 2 3268.87 203.68
-2 -2 2 3168.38 151.08
1 2 -2 579.34 31.9
1 2 -2 540.65 37.8
1 2 -2 489.35 28.7
1 2 -2 547.35 29.9
-1 -2 2 532.45 26.5
-1 -2 2 551.14 60.49
0 2 -2 4106.29 212.88
0 2 -2 4346.06 216.18
0 2 -2 4127.09 222.08
0 -2 2 4461.65 258.07
0 -2 2 4610.84 210.68
-1 2 -2 941.71 52.79
-1 2 -2 943.41 49.5
-1 2 -2 942.91 58.29
1 -2 2 959.8 82.99
1 -2 2 998.8 46.9
-2 2 -2 916.41 50.69
-2 2 -2 962.3 54.79
-2 2 -2 1031.3 61.59
-2 2 -2 1001.3 51.29
2 -2 2 950.6 47.6
-3 2 -2 2601.14 135.69
-3 2 -2 2514.55 132.99
-3 2 -2 2589.24 129.09
-3 2 -2 2755.92 144.99
-3 2 -2 2702.33 132.19
-3 2 -2 2568.84 132.49
3 -2 2 2640.74 133.19
3 -2 2 2561.84 132.09
-4 2 -2 5 5.6
-4 2 -2 7.1 10.1
-4 2 -2 3 6
-4 2 -2 9.1 9.3
-4 2 -2 3 6.6
-4 2 -2 9.8 3.8
4 -2 2 10.8 4.4
4 -2 2 8.4 5.4
4 -2 2 10 5
4 -2 2 16.1 4.3
-5 2 -2 320.57 19.4
-5 2 -2 349.96 29.1
-5 2 -2 367.16 25.6
5 -2 2 344.97 24.6
5 -2 2 327.17 23.9
5 -2 2 361.36 23.5
-6 2 -2 147.69 14.8
-6 2 -2 156.78 14
6 -2 2 150.18 12.7
6 -2 2 149.49 12.6
6 -2 2 152.68 13.3
7 1 -2 459.55 28.5
7 1 -2 456.15 31.1
-7 -1 2 518.55 30.5
6 1 -2 199.68 18.6
6 1 -2 205.98 16.8
-6 -1 2 184.98 17
-6 -1 2 209.78 18.4
-6 -1 2 187.88 15.5
5 1 -2 83.39 9.4
5 1 -2 81.09 11.2
5 1 -2 65.99 10.1
-5 -1 2 76.09 10.9
-5 -1 2 89.59 13.7
-5 -1 2 70.49 12.2
-5 -1 2 76.09 10.9
4 1 -2 207.28 15.5
4 1 -2 216.98 18.7
-4 -1 2 221.48 15.8
-4 -1 2 195.18 15.4
-4 -1 2 189.78 16.3
-4 -1 2 200.78 18.3
3 1 -2 2361.56 121.99
3 1 -2 2149.88 114.69
-3 -1 2 2211.58 112.89
2 1 -2 266.27 17.8
2 1 -2 265.87 16.6
2 1 -2 263.47 22.3
-2 -1 2 286.97 38.3
-2 -1 2 250.87 15.8
1 1 -2 3949.41 191.58
1 1 -2 3685.93 183.38
-1 -1 2 3437.56 183.18
-1 -1 2 3797.72 220.28
-1 -1 2 3797.22 181.58
0 1 -2 89.69 12.2
0 1 -2 92.19 8.9
0 -1 2 95.69 22
-1 1 -2 59.79 8.1
-1 1 -2 50.09 10
1 -1 2 59.59 17.9
-2 1 -2 2404.36 116.29
-2 1 -2 2291.27 119.99
-2 1 -2 2188.98 112.89
-2 1 -2 2248.08 111.99
2 -1 2 2229.08 143.39
2 -1 2 2163.88 114.79
2 -1 2 2317.27 112.99
-3 1 -2 391.46 23.9
-3 1 -2 394.46 24
-3 1 -2 422.66 27.4
-3 1 -2 431.86 31.1
-3 1 -2 432.46 23.3
3 -1 2 422.26 26.7
-4 1 -2 533.75 33.9
-4 1 -2 557.54 32.1
-4 1 -2 500.65 30.9
-4 1 -2 520.45 28
-4 1 -2 541.85 34.9
-4 1 -2 495.85 42.1
-4 1 -2 566.94 30.4
4 -1 2 546.05 31.7
4 -1 2 517.65 31.5
4 -1 2 547.15 31.3
4 -1 2 532.25 35
-5 1 -2 308.37 21.9
-5 1 -2 285.87 17.6
-5 1 -2 314.57 26.1
5 -1 2 293.37 21.4
5 -1 2 324.57 22.3
5 -1 2 344.27 21.6
5 -1 2 291.67 25.4
-6 1 -2 285.97 21.8
-6 1 -2 265.47 22.1
6 -1 2 295.97 19.9
6 -1 2 254.87 19.9
6 -1 2 270.87 20.6
6 -1 2 240.08 21.4
-7 1 -2 118.49 11.6
-7 1 -2 126.29 11.8
7 -1 2 121.99 11.9
7 -1 2 112.39 11
7 0 -2 64.69 7.2
7 0 -2 73.29 10.6
-7 0 2 89.29 10
-7 0 2 78.19 8.3
-7 0 2 77.19 9.2
6 0 -2 21.5 9.3
6 0 -2 30.9 5.8
6 0 -2 26.7 6.7
-6 0 2 20.5 10
-6 0 2 38.2 7.8
-6 0 2 33.3 8.6
5 0 -2 19 8.2
5 0 -2 24.7 6
5 0 -2 18.6 5
-5 0 2 15.8 9.3
-5 0 2 22.7 7.5
-5 0 2 16.1 3.7
-5 0 2 18.6 7.1
4 0 -2 1543.05 85.69
4 0 -2 1664.43 82.59
-4 0 2 1545.45 80.79
-4 0 2 1585.54 78.99
-4 0 2 1623.84 85.79
-4 0 2 1604.84 82.19
-4 0 2 1537.75 80.99
-4 0 2 1646.74 84.19
3 0 -2 177.88 13.6
3 0 -2 191.88 15.5
-3 0 2 193.48 14.2
-3 0 2 177.08 11.8
2 0 -2 2458.55 125.99
2 0 -2 2456.65 129.89
2 0 -2 2461.65 125.19
-2 0 2 2454.85 123.99
-2 0 2 2542.15 150.38
-2 0 2 2514.85 122.59
1 0 -2 953 48.4
1 0 -2 934.21 45.8
1 0 -2 860.61 51.39
-1 0 2 903.51 71.19
0 0 -2 398.46 21.4
0 0 -2 363.96 23.7
0 0 2 310.27 36.4
-1 0 -2 3394.56 182.58
-1 0 -2 3729.33 180.68
-1 0 -2 3918.11 185.18
-1 0 -2 3636.34 178.38
1 0 2 3822.32 178.58
1 0 2 3332.47 203.08
-2 0 -2 955.4 47.8
-2 0 -2 1017.2 55.79
-2 0 -2 984.9 50.29
-2 0 -2 867.71 51.59
2 0 2 924.61 47.1
2 0 2 792.82 68.39
2 0 2 1011.8 48.9
2 0 2 979.6 49.1
-3 0 -2 1090.69 66.09
-3 0 -2 1070.79 54.59
-3 0 -2 1034.6 57.29
3 0 2 1056.29 56.29
3 0 2 1064.69 56.69
-4 0 -2 17.8 9.4
-4 0 -2 20.6 4.8
4 0 2 32.5 7.4
4 0 2 26.3 6.5
-5 0 -2 582.14 38.8
-5 0 -2 656.63 35.9
-5 0 -2 636.14 36.4
5 0 2 569.14 35.6
5 0 2 637.04 36.2
5 0 2 636.84 40.4
5 0 2 642.44 36.4
5 0 2 598.64 38.7
5 0 2 608.04 39.7
5 0 2 637.44 36.6
-6 0 -2 127.89 13
-6 0 -2 131.79 14.4
-6 0 -2 113.89 12.2
6 0 2 121.19 15.1
6 0 2 116.59 13
6 0 2 114.29 12.1
6 0 2 85.89 14.5
-7 0 -2 754.62 44.3
-7 0 -2 801.72 45.4
7 0 2 789.42 44
7 0 2 691.93 46.8
7 0 2 817.32 44.2
7 -1 -2 7.8 4.9
7 -1 -2 1.7 2.6
-7 1 2 6.1 4
-7 1 2 5.4 4.3
6 -1 -2 14.4 8
6 -1 -2 22.8 6.4
6 -1 -2 17.4 5.2
-6 1 2 8.2 6.6
-6 1 2 25.4 6.3
-6 1 2 13.4 3.5
5 -1 -2 1542.85 79.49
5 -1 -2 1548.35 78.89
5 -1 -2 1482.45 84.49
-5 1 2 1441.16 77.59
-5 1 2 1586.04 79.39
-5 1 2 1502.75 75.29
-5 1 2 1457.95 80.89
-5 1 2 1434.66 77.39
-5 1 2 1558.04 83.89
4 -1 -2 110.59 10.1
4 -1 -2 112.79 10
4 -1 -2 136.19 13.6
4 -1 -2 93.69 9.4
4 -1 -2 107.19 12.5
-4 1 2 109.99 11
-4 1 2 97.99 7.6
-4 1 2 117.29 13.6
-4 1 2 110.59 9.6
-4 1 2 113.99 8.7
3 -1 -2 2546.25 127.49
3 -1 -2 2485.65 129.09
3 -1 -2 2327.67 126.79
3 -1 -2 2364.96 126.29
-3 1 2 2395.86 127.69
-3 1 2 2598.34 126.39
-3 1 2 2641.74 123.89
-3 1 2 2596.04 123.99
2 -1 -2 1058.29 54.49
2 -1 -2 944.11 52.69
2 -1 -2 1040.1 55.19
-2 1 2 1037.2 51.39
-2 1 2 1039.5 53.69
1 -1 -2 300.77 17.4
1 -1 -2 306.77 17.5
-1 1 2 249.78 30.2
0 -1 -2 4254.47 208.38
0 -1 -2 4023.7 215.18
0 -1 -2 4533.05 205.98
0 -1 -2 4116.99 205.78
0 1 2 4109.89 202.38
0 1 2 3763.92 221.88
-1 -1 -2 4646.14 230.28
-1 -1 -2 4561.24 226.38
-1 -1 -2 4494.55 221.88
-1 -1 -2 4018.8 220.58
1 1 2 4643.04 220.68
1 1 2 4659.33 244.68
-2 -1 -2 516.95 30.7
-2 -1 -2 574.54 29.7
-2 -1 -2 582.64 29.5
-2 -1 -2 606.64 38.8
2 1 2 565.34 30
2 1 2 603.64 51.29
2 1 2 559.44 28.6
2 1 2 533.85 30.1
-3 -1 -2 946.51 47.1
-3 -1 -2 830.32 48.9
-3 -1 -2 994.2 48.1
-3 -1 -2 997.3 61.39
3 1 2 968.2 49.5
3 1 2 922.31 73.09
3 1 2 830.72 47.4
3 1 2 895.01 47.4
3 1 2 975.2 49.1
-4 -1 -2 3849.01 189.38
-4 -1 -2 3823.22 209.28
4 1 2 3775.42 191.08
4 1 2 3799.52 191.68
-5 -1 -2 7.7 3.9
-5 -1 -2 8.9 5
-5 -1 -2 15.6 6.4
-5 -1 -2 13 6
5 1 2 13.2 4.5
5 1 2 7.2 5.3
5 1 2 21.5 6.3
5 1 2 8.8 4.8
5 1 2 4.1 6.8
5 1 2 20.4 7.6
-6 -1 -2 3727.93 193.58
-6 -1 -2 3714.93 192.98
-6 -1 -2 3761.42 193.48
-6 -1 -2 4010.9 196.18
6 1 2 3976.8 193.68
6 1 2 3871.71 198.78
6 1 2 3871.21 193.98
6 1 2 3606.74 192.98
6 1 2 4116.39 198.98
-7 -1 -2 4.4 7.9
-7 -1 -2 4.1 4.3
-7 -1 -2 11.5 6.3
7 1 2 1.1 8.2
7 1 2 6.9 4.5
7 1 2 3 5.5
-8 -1 -2 219.88 15.8
8 1 2 223.78 15
8 1 2 269.27 16.8
6 -2 -2 265.57 18.9
6 -2 -2 237.98 21.9
-6 2 2 274.87 17.6
-6 2 2 276.47 15
-6 2 2 265.07 21.3
5 -2 -2 261.47 19.5
5 -2 -2 261.67 20.3
5 -2 -2 242.18 23.3
5 -2 -2 245.68 16.6
-5 2 2 254.47 17.3
-5 2 2 252.67 15
-5 2 2 270.47 18.9
-5 2 2 245.08 16.4
4 -2 -2 502.25 30
4 -2 -2 448.76 26.5
4 -2 -2 482.25 31
4 -2 -2 498.75 29.8
4 -2 -2 456.85 27.7
4 -2 -2 476.55 34.1
-4 2 2 529.35 28.3
-4 2 2 488.75 25.7
-4 2 2 492.85 30.6
-4 2 2 480.85 28.7
-4 2 2 491.15 27.5
3 -2 -2 635.44 39.4
3 -2 -2 596.24 37.4
-3 2 2 607.14 38
-3 2 2 684.03 33.7
-3 2 2 629.24 33.7
-3 2 2 653.03 36.3
2 -2 -2 464.25 29
2 -2 -2 465.55 28.1
-2 2 2 475.85 26.9
-2 2 2 477.05 24.3
-2 2 2 455.65 28.5
1 -2 -2 814.12 42.1
1 -2 -2 825.92 41.6
-1 2 2 666.53 53.59
0 -2 -2 3649.14 173.58
0 -2 -2 3233.68 188.28
0 -2 -2 3597.94 173.18
0 2 2 3509.75 194.38
-1 -2 -2 76.99 5.9
-1 -2 -2 71.59 5.4
-1 -2 -2 69.49 12.1
1 2 2 77.99 5.8
1 2 2 75.49 5.5
-2 -2 -2 503.45 36.9
-2 -2 -2 488.55 26.1
-2 -2 -2 453.55 25.7
2 2 2 472.85 26.2
2 2 2 493.95 26.5
-3 -2 -2 1494.55 90.59
-3 -2 -2 1498.55 75.59
-3 -2 -2 1468.65 75.59
3 2 2 1469.55 74.99
3 2 2 1488.35 76.99
3 2 2 1546.85 76.69
-4 -2 -2 195.38 12.9
-4 -2 -2 185.38 25.7
4 2 2 173.58 12.3
4 2 2 186.58 15.4
4 2 2 182.08 32.5
4 2 2 172.48 11.9
4 2 2 189.58 14.1
-5 -2 -2 1848.62 92.29
-5 -2 -2 1735.13 93.19
-5 -2 -2 1719.63 91.19
5 2 2 1748.13 91.89
5 2 2 1786.92 94.79
5 2 2 1705.93 94.29
5 2 2 1940.81 95.79
-6 -2 -2 117.89 11.8
-6 -2 -2 118.29 10.9
-6 -2 -2 115.79 12.8
-6 -2 -2 124.79 14
6 2 2 122.39 15
6 2 2 118.59 16.3
6 2 2 122.59 12
6 2 2 132.39 12.7
-7 -2 -2 25.4 6.8
-7 -2 -2 21.7 5.2
-7 -2 -2 33.2 7.4
7 2 2 23.9 6.1
7 2 2 25.7 7.4
7 2 2 24.8 8.5
-8 -2 -2 33.2 5.6
-8 -2 -2 30.2 5.1
8 2 2 32.1 7.5
8 2 2 25.8 5.3
-6 3 2 124.39 12.9
-6 3 2 141.89 8.5
5 -3 -2 251.47 19.1
5 -3 -2 238.18 17.1
5 -3 -2 186.78 18.8
5 -3 -2 216.68 15.1
-5 3 2 243.68 13.6
-5 3 2 221.98 15.6
-5 3 2 201.98 14.8
4 -3 -2 595.94 34.4
4 -3 -2 588.94 35.6
4 -3 -2 581.14 31.3
4 -3 -2 470.45 36.9
4 -3 -2 585.44 35
-4 3 2 561.74 31.8
-4 3 2 528.75 33.4
-4 3 2 607.14 32.7
-4 3 2 590.84 29.9
3 -3 -2 261.57 18.5
3 -3 -2 241.88 18.4
3 -3 -2 203.08 19.7
3 -3 -2 272.67 15.7
3 -3 -2 251.77 17.8
-3 3 2 262.37 18.2
-3 3 2 265.97 15.7
-3 3 2 267.77 16
2 -3 -2 236.38 17.6
2 -3 -2 230.88 18.9
-2 3 2 258.07 13.7
-2 3 2 229.08 15.4
-2 3 2 232.28 18.2
1 -3 -2 4805.52 251.07
1 -3 -2 5273.17 256.57
1 -3 -2 5215.98 257.67
-1 3 2 5419.46 257.07
-1 3 2 5101.99 254.07
0 -3 -2 3 1.9
0 -3 -2 0.9 2.1
0 -3 -2 1 2
0 -3 -2 1.4 7.5
0 3 2 1.6 1.6
-1 -3 -2 3271.67 164.78
-1 -3 -2 3493.25 165.48
-1 -3 -2 3582.24 162.08
-1 -3 -2 2872.71 179.88
1 3 2 3416.26 164.58
1 3 2 3340.07 165.28
-2 -3 -2 704.83 51.09
-2 -3 -2 722.93 37.7
-2 -3 -2 715.63 34.1
2 3 2 643.74 34.8
2 3 2 707.13 37.7
2 3 2 694.93 37.8
-3 -3 -2 218.68 14.8
-3 -3 -2 250.97 28.4
-3 -3 -2 236.18 15.5
3 3 2 250.37 14
3 3 2 232.88 16.8
3 3 2 234.28 16.4
-4 -3 -2 1562.74 82.79
-4 -3 -2 1673.03 105.89
-4 -3 -2 1619.14 82.29
4 3 2 1578.54 80.99
4 3 2 1660.73 84.69
4 3 2 1538.15 81.29
4 3 2 1586.64 83.99
-5 -3 -2 895.31 48.9
-5 -3 -2 885.41 51.99
-5 -3 -2 886.01 49.9
-5 -3 -2 986.3 50.49
-5 -3 -2 905.91 51.19
5 3 2 908.71 48.7
5 3 2 900.61 52.19
5 3 2 904.61 49.6
5 3 2 918.21 53.49
5 3 2 927.41 46.5
5 3 2 929.11 52.59
-6 -3 -2 131.19 14
-6 -3 -2 107.29 12.3
-6 -3 -2 125.09 11
6 3 2 97.89 15.4
6 3 2 126.59 16.5
6 3 2 121.69 13.4
-7 -3 -2 100.49 9.9
-7 -3 -2 86.09 10.4
7 3 2 115.39 15.9
7 3 2 99.29 11
-8 -3 -2 188.98 13
-8 -3 -2 180.18 13
8 3 2 154.38 13.3
8 3 2 146.09 12.4
8 3 2 183.28 15.6
5 -4 -2 218.58 13.5
5 -4 -2 197.18 15.6
5 -4 -2 253.77 17.9
-5 4 2 245.58 13.3
-5 4 2 222.18 14.9
4 -4 -2 78.09 11.1
4 -4 -2 66.69 6.6
4 -4 -2 65.09 9.3
4 -4 -2 67.99 8.9
-4 4 2 53.99 7.1
-4 4 2 65.29 8.6
-4 4 2 69.49 6.6
3 -4 -2 13.7 4.9
3 -4 -2 8.5 4.8
3 -4 -2 8.1 7.3
3 -4 -2 2.6 3.7
-3 4 2 9.9 3.8
-3 4 2 13.5 5.2
2 -4 -2 1628.44 85.69
2 -4 -2 1498.15 84.79
2 -4 -2 1631.84 82.79
2 -4 -2 1648.83 86.19
-2 4 2 1778.92 82.69
1 -4 -2 84.59 11.6
-1 4 2 117.59 10.6
0 -4 -2 692.93 39
0 -4 -2 596.24 35
0 -4 -2 632.64 31.1
0 4 2 620.64 36
-1 -4 -2 37.8 5.6
-1 -4 -2 23.2 11
-1 -4 -2 26.7 1.8
1 4 2 31.8 6
-2 -4 -2 2128.99 98.69
-2 -4 -2 2030.2 103.39
-2 -4 -2 1774.92 120.69
2 4 2 2010.2 99.49
2 4 2 2102.29 104.29
2 4 2 2094.69 104.69
-3 -4 -2 345.27 37.8
-3 -4 -2 345.87 22.6
3 4 2 335.37 19.6
3 4 2 385.26 24.6
3 4 2 371.06 19.8
3 4 2 363.56 23.7
-4 -4 -2 2870.51 149.09
-4 -4 -2 3011 152.38
-4 -4 -2 3034.2 179.18
-4 -4 -2 2912.21 150.78
-4 -4 -2 2935.81 150.68
-4 -4 -2 2712.53 150.98
4 4 2 3069.49 152.88
4 4 2 2982.5 152.08
4 4 2 3068.09 147.79
4 4 2 3082.19 148.09
-5 -4 -2 39.4 7.1
-5 -4 -2 46.2 11.6
-5 -4 -2 63.59 9.6
-5 -4 -2 49.99 6.9
-5 -4 -2 31.8 6.2
5 4 2 37.3 5.7
5 4 2 49.3 7
5 4 2 41.1 9.9
5 4 2 44 9.9
5 4 2 35.9 7.3
5 4 2 43.5 5.4
-6 -4 -2 171.88 15.5
-6 -4 -2 189.48 14.7
6 4 2 169.98 20.3
6 4 2 169.78 11.8
6 4 2 187.78 15.1
6 4 2 173.68 18
-7 -4 -2 512.15 31.2
-7 -4 -2 534.75 30.3
7 4 2 424.46 31.1
7 4 2 503.05 32.8
7 4 2 500.35 30.8
-8 -4 -2 47.2 6
-8 -4 -2 49.6 6.1
8 4 2 24.7 6.3
8 4 2 45.1 7
4 -5 -2 104.49 8.2
4 -5 -2 114.09 14
-4 5 2 110.09 9.7
-4 5 2 110.49 7.3
3 -5 -2 1076.59 59.79
3 -5 -2 1051.39 60.49
3 -5 -2 1092.49 56.39
-3 5 2 1088.09 56.79
-3 5 2 1118.49 57.39
2 -5 -2 561.64 34.9
2 -5 -2 555.14 30.2
2 -5 -2 492.65 32.8
-2 5 2 530.75 44.9
-2 5 2 571.84 30.1
1 -5 -2 554.54 33.6
1 -5 -2 533.55 29.7
-1 5 2 552.74 44
-1 5 2 536.35 29.1
0 -5 -2 209.18 16.4
0 -5 -2 229.38 13.8
0 -5 -2 214.88 15.9
0 5 2 226.48 23.8
-1 -5 -2 1172.18 62.29
-1 -5 -2 1218.58 61.09
-1 -5 -2 955.7 65.39
-1 -5 -2 1121.19 61.29
1 5 2 1281.87 64.59
-2 -5 -2 90.39 9.8
-2 -5 -2 86.89 9.3
-2 -5 -2 98.69 10.3
-2 -5 -2 85.69 11.4
2 5 2 135.79 14.4
2 5 2 101.69 6.8
2 5 2 125.29 13
-3 -5 -2 2287.37 124.49
-3 -5 -2 2507.35 125.89
-3 -5 -2 2453.45 124.09
-3 -5 -2 2242.38 124.19
-3 -5 -2 2363.06 125.89
3 5 2 2486.25 121.89
3 5 2 2714.73 121.99
3 5 2 2538.85 129.19
3 5 2 2422.06 127.89
-4 -5 -2 20.2 6
-4 -5 -2 15.6 8.3
-4 -5 -2 15.4 4.8
-4 -5 -2 27.9 5.1
-4 -5 -2 22.5 5.2
-4 -5 -2 15.8 3.8
4 5 2 17.9 4.8
4 5 2 23 4.3
4 5 2 16.5 7.9
4 5 2 23.5 4.2
4 5 2 13 7.4
-5 -5 -2 8 7.4
-5 -5 -2 14.6 4.5
-5 -5 -2 16.5 5.6
-5 -5 -2 7 4
-5 -5 -2 11.2 10.6
-5 -5 -2 10.7 4.7
5 5 2 16.5 4.4
5 5 2 10.3 5.2
5 5 2 5.7 9.6
5 5 2 15.1 5.9
5 5 2 8.2 3.8
-6 -5 -2 733.73 42.5
-6 -5 -2 819.52 46.1
6 5 2 758.72 44
6 5 2 771.62 43.2
6 5 2 771.22 39.8
-7 -5 -2 321.57 21
-7 -5 -2 376.46 23
-7 -5 -2 284.17 20.8
7 5 2 351.06 22.9
7 5 2 338.57 23.9
-8 -5 -2 347.17 20.7
8 5 2 381.86 21.7
3 -6 -2 241.68 17.7
3 -6 -2 244.28 14.7
-3 6 2 252.37 13.7
2 -6 -2 281.57 20.2
2 -6 -2 283.67 16.8
-2 6 2 244.28 16.6
1 -6 -2 190.08 13.1
1 -6 -2 190.48 17.2
-1 6 2 186.58 12.8
0 -6 -2 610.84 33.3
0 -6 -2 643.14 37.4
0 6 2 605.34 32.8
-1 -6 -2 3.9 4.7
-1 -6 -2 3.8 4.2
1 6 2 0.4 2
-2 -6 -2 2680.13 143.59
-2 -6 -2 2884.01 142.49
-2 -6 -2 2777.82 142.89
2 6 2 2835.02 138.69
2 6 2 2828.02 147.89
-3 -6 -2 203.08 16.3
-3 -6 -2 194.98 15.8
-3 -6 -2 191.68 16.9
-3 -6 -2 246.28 21.4
-3 -6 -2 202.08 18.5
3 6 2 201.18 14
3 6 2 201.58 21.7
3 6 2 207.48 13.2
-4 -6 -2 588.94 35.7
-4 -6 -2 597.84 36.9
-4 -6 -2 633.04 37
-4 -6 -2 599.04 38
4 6 2 581.54 42.3
4 6 2 592.84 31.5
4 6 2 599.74 33.2
4 6 2 615.04 33.8
-5 -6 -2 984.6 55.49
-5 -6 -2 952.9 53.49
-5 -6 -2 956.8 55.59
-5 -6 -2 973.9 54.49
5 6 2 1020.5 49.99
5 6 2 1005.3 52.29
5 6 2 937.51 53.29
5 6 2 985.5 51.89
-6 -6 -2 27.1 6.4
-6 -6 -2 26.5 5.8
-6 -6 -2 44.7 7.8
6 6 2 33.5 5.6
6 6 2 32.4 4.2
6 6 2 38.8 10.8
6 6 2 36.6 6.8
-7 -6 -2 661.53 37.7
7 6 2 690.13 36.8
7 6 2 618.84 37.8
2 -7 -2 74.19 5.9
1 -7 -2 198.48 14.9
1 -7 -2 182.98 11.7
-1 7 2 172.38 12.1
0 -7 -2 157.08 13.8
0 7 2 175.68 15.2
-1 -7 -2 916.81 49.7
-1 -7 -2 869.01 48.3
1 7 2 850.61 45.9
-2 -7 -2 272.17 20.4
-2 -7 -2 301.47 22.1
2 7 2 305.77 18
2 7 2 306.17 18.2
-3 -7 -2 86.29 11.5
-3 -7 -2 88.09 11
-3 -7 -2 95.39 11.2
3 7 2 90.99 8.1
3 7 2 92.19 8.9
-4 -7 -2 105.89 11.2
-4 -7 -2 113.69 12.1
-4 -7 -2 117.89 12.3
4 7 2 122.09 10.6
4 7 2 116.89 12.6
4 7 2 108.99 8.5
4 7 2 110.09 9.4
-5 -7 -2 351.56 23.4
-5 -7 -2 358.36 23.1
5 7 2 379.16 19.9
5 7 2 339.47 25.1
5 7 2 355.36 21.4
-6 -7 -2 4.3 3
6 7 2 8.2 3.7
6 7 2 9.3 2.6
6 7 2 7.5 5.2
0 -8 -2 544.05 30.5
-1 -8 -2 267.27 17.5
-2 -8 -2 133.09 11.7
-2 -8 -2 145.19 11.6
-3 -8 -2 93.99 10.4
-3 -8 -2 105.49 9.3
3 8 2 86.69 6.9
3 8 2 83.89 10.9
-4 -8 -2 389.76 22.1
-4 -8 -2 366.46 22.3
4 8 2 299.47 18.3
-5 -8 -2 7.4 4.1
-5 -8 -2 10.5 3.2
5 8 2 10.9 2.3
4 6 -3 266.17 15.3
-4 -6 3 266.27 15.5
-4 -6 3 205.88 13.9
3 6 -3 46.8 6.2
3 6 -3 24.2 4.4
-3 -6 3 25.5 4.7
-3 -6 3 35.8 5.7
-3 -6 3 33.6 3.9
2 6 -3 375.76 20.1
2 6 -3 348.17 20.5
-2 -6 3 317.17 18.6
-2 -6 3 313.37 20.9
-2 -6 3 316.07 20.7
1 6 -3 682.23 38.4
1 6 -3 689.23 40
1 6 -3 759.22 38.5
-1 -6 3 705.03 39.5
0 6 -3 113.49 9
0 6 -3 111.49 9.4
0 6 -3 119.49 11.1
0 -6 3 118.69 10.6
-1 6 -3 652.13 34.6
-1 6 -3 501.55 34.8
-1 6 -3 663.13 33
5 5 -3 604.74 33.8
5 5 -3 546.15 33.2
-5 -5 3 592.74 33.7
-5 -5 3 603.74 34.1
-5 -5 3 671.53 33.4
4 5 -3 64.89 8.1
4 5 -3 87.29 10.9
-4 -5 3 82.19 9.9
-4 -5 3 92.49 9.2
-4 -5 3 91.79 9.4
3 5 -3 351.26 23.5
3 5 -3 410.46 26.2
-3 -5 3 437.36 25.1
-3 -5 3 401.96 25.7
-3 -5 3 383.26 26.1
2 5 -3 748.43 43.4
2 5 -3 799.22 45.4
-2 -5 3 791.22 45.8
-2 -5 3 870.21 44.4
-2 -5 3 764.52 45.5
1 5 -3 76.59 10.3
1 5 -3 70.99 6.2
1 5 -3 76.79 9
-1 -5 3 71.99 8.7
-1 -5 3 65.79 10
-1 -5 3 64.69 8.9
0 5 -3 1312.37 68.59
0 5 -3 1296.17 71.39
0 5 -3 1285.27 64.29
0 5 -3 1294.27 67.59
0 -5 3 1218.58 65.49
0 -5 3 1285.67 67.19
0 -5 3 1317.37 69.79
-1 5 -3 18.5 6.5
-1 5 -3 9.6 6
-1 5 -3 9.8 3.4
-1 5 -3 14.9 3.2
1 -5 3 17.5 4.6
1 -5 3 10.9 3.4
1 -5 3 15.5 5.1
-2 5 -3 10.1 6.1
-2 5 -3 7.4 4.4
2 -5 3 1.6 2.7
-3 5 -3 236.78 15.1
-3 5 -3 203.38 14.5
-3 5 -3 184.18 13.5
3 -5 3 194.28 12.1
-6 -4 3 420.66 25.5
-6 -4 3 448.96 25
-6 -4 3 427.76 25
5 4 -3 20.6 5.4
5 4 -3 21.5 5.5
-5 -4 3 20.6 5.3
-5 -4 3 15.5 4.6
-5 -4 3 11.8 5.2
4 4 -3 39.2 7.7
4 4 -3 46.6 8.4
-4 -4 3 23.6 6.9
-4 -4 3 42.7 7.2
-4 -4 3 37 6.7
3 4 -3 966.3 52.99
3 4 -3 878.91 54.69
3 4 -3 1011.8 55.29
-3 -4 3 1020.3 54.69
-3 -4 3 1062.79 55.89
-3 -4 3 1018.1 56.29
2 4 -3 197.38 15.9
2 4 -3 194.48 12.6
2 4 -3 196.68 24.5
2 4 -3 218.78 18.3
-2 -4 3 220.88 17.6
-2 -4 3 223.48 16.5
-2 -4 3 214.48 17.5
-2 -4 3 218.98 15.1
1 4 -3 1806.22 94.19
1 4 -3 1736.43 109.69
1 4 -3 1841.12 90.59
1 4 -3 1851.91 95.19
-1 -4 3 1943.91 94.79
-1 -4 3 1852.01 93.19
-1 -4 3 1824.92 96.09
-1 -4 3 1744.53 95.69
0 4 -3 271.77 15.3
0 4 -3 245.08 18.6
0 4 -3 258.17 30.3
0 4 -3 275.17 18.4
0 4 -3 288.07 20.1
0 -4 3 251.17 19.7
0 -4 3 292.97 20.7
0 -4 3 284.77 19.1
-1 4 -3 17.7 4.5
-1 4 -3 16.1 11.4
-1 4 -3 12.7 5.2
-1 4 -3 18.2 7.1
-1 4 -3 13.6 3.5
-1 4 -3 18.6 7.3
1 -4 3 13.9 4.9
1 -4 3 22.6 6.8
-2 4 -3 341.87 23.7
-2 4 -3 285.47 18.9
-2 4 -3 295.97 16.6
-2 4 -3 306.07 22.2
2 -4 3 325.57 22.3
2 -4 3 307.07 19.1
2 -4 3 288.97 21
2 -4 3 284.97 19.7
-3 4 -3 993 55.29
-3 4 -3 1012.1 53.79
-3 4 -3 959.4 49
-3 4 -3 964.6 54.79
3 -4 3 937.21 51.79
3 -4 3 995.5 50.89
3 -4 3 966.5 54.09
-4 4 -3 137.69 12.6
-4 4 -3 141.79 12.4
-4 4 -3 138.29 11.6
4 -4 3 130.59 9
4 -4 3 120.19 9
4 -4 3 115.19 10.8
6 3 -3 31.9 6
6 3 -3 31 7
-6 -3 3 21.3 5.4
-6 -3 3 26.8 5.3
-6 -3 3 12.4 4.8
5 3 -3 12.1 5
5 3 -3 21.9 5.8
5 3 -3 16.7 5.8
-5 -3 3 13.2 6.6
-5 -3 3 19.2 6.6
-5 -3 3 18.1 6.4
-5 -3 3 17.1 5.1
4 3 -3 592.54 36.5
4 3 -3 584.84 37.5
4 3 -3 504.15 36.3
-4 -3 3 630.34 37.8
-4 -3 3 636.44 35.1
-4 -3 3 564.94 35.6
-4 -3 3 724.23 37.7
3 3 -3 438.06 37.7
3 3 -3 384.66 26.2
3 3 -3 371.46 26.2
3 3 -3 328.27 25
-3 -3 3 380.36 24
-3 -3 3 393.16 26.3
-3 -3 3 348.67 24.3
-3 -3 3 418.86 23.2
-3 -3 3 421.46 26.4
2 3 -3 1853.81 96.59
2 3 -3 1806.42 94.69
2 3 -3 2043.7 111.89
2 3 -3 1662.73 96.29
-2 -3 3 1925.91 96.99
-2 -3 3 1849.31 95.99
-2 -3 3 1953 94.49
-2 -3 3 1774.62 96.79
1 3 -3 567.54 33
1 3 -3 566.34 34.2
1 3 -3 602.64 46.3
-1 -3 3 635.34 35.6
-1 -3 3 576.54 32.5
-1 -3 3 567.54 34.5
-1 -3 3 566.24 33.4
-1 -3 3 619.14 80.49
0 3 -3 0 3.6
0 3 -3 5 3.8
0 3 -3 -1.1 9.2
0 3 -3 3.8 3.1
0 3 -3 4.4 2.7
0 -3 3 3.4 3.1
0 -3 3 2.3 3.5
0 -3 3 1.7 4
0 -3 3 8.9 12.7
-1 3 -3 398.76 25.6
-1 3 -3 408.36 21.3
-1 3 -3 420.56 24
-1 3 -3 378.66 36.1
-1 3 -3 377.56 23.9
1 -3 3 370.16 25
1 -3 3 413.86 25.2
1 -3 3 391.06 25
1 -3 3 412.46 60.39
-2 3 -3 1551.74 81.69
-2 3 -3 1470.15 74.19
-2 3 -3 1348.47 92.89
-2 3 -3 1560.14 79.69
-2 3 -3 1518.75 76.99
-2 3 -3 1486.55 76.99
2 -3 3 1477.15 79.19
2 -3 3 1516.65 78.69
2 -3 3 1476.25 79.39
-3 3 -3 136.99 26.5
-3 3 -3 170.18 17
-3 3 -3 158.78 10.3
-3 3 -3 135.19 16.4
3 -3 3 162.18 12.2
3 -3 3 174.08 14.6
3 -3 3 159.58 15.5
-4 3 -3 427.76 30.5
-4 3 -3 456.55 30.2
-4 3 -3 420.66 23.4
-4 3 -3 456.25 29.2
4 -3 3 456.55 27.9
4 -3 3 452.55 25.4
4 -3 3 449.16 29.7
-5 3 -3 65.69 10
-5 3 -3 93.09 12.5
5 -3 3 78.99 7.5
5 -3 3 82.09 6.8
5 -3 3 88.19 9.6
7 2 -3 194.78 14.4
7 2 -3 226.38 15.3
-7 -2 3 222.08 14.9
-7 -2 3 284.77 17.8
6 2 -3 3.2 3.7
6 2 -3 11.5 4.4
-6 -2 3 11.7 4.7
-6 -2 3 10.9 5.8
-6 -2 3 8.8 5.7
5 2 -3 696.33 44.8
5 2 -3 819.72 46.4
-5 -2 3 873.31 46.3
-5 -2 3 664.63 43.9
-5 -2 3 803.32 44
-5 -2 3 866.01 47.7
4 2 -3 1093.19 67.19
4 2 -3 1290.47 68.79
4 2 -3 1211.58 66.99
-4 -2 3 1480.05 69.69
-4 -2 3 1309.57 69.19
-4 -2 3 1298.27 66.69
-4 -2 3 1088.99 66.39
3 2 -3 1082.29 61.89
3 2 -3 1097.69 60.79
-3 -2 3 1196.68 61.59
-3 -2 3 1073.39 61.69
-3 -2 3 1115.49 59.99
-3 -2 3 1206.18 58.79
2 2 -3 2148.58 115.99
2 2 -3 1882.21 105.79
-2 -2 3 1989.9 160.48
1 2 -3 24.5 9
-1 -2 3 21.5 1.5
-1 -2 3 19.2 17.2
0 2 -3 86.29 14.4
0 2 -3 91.79 10.1
0 -2 3 88.89 4.9
0 -2 3 95.79 28.5
-1 2 -3 2215.98 109.79
-1 2 -3 2226.78 123.19
-1 2 -3 2039.3 114.59
1 -2 3 2263.07 163.78
1 -2 3 2206.08 106.79
-2 2 -3 252.77 22.2
-2 2 -3 274.37 28.9
-2 2 -3 274.17 21.9
-2 2 -3 306.67 21.8
-2 2 -3 318.67 18.4
2 -2 3 304.27 19.3
2 -2 3 269.07 14
2 -2 3 224.88 20.7
-3 2 -3 651.33 39.9
-3 2 -3 555.24 47.2
-3 2 -3 620.44 39
-3 2 -3 675.93 33.4
3 -2 3 686.93 38.5
3 -2 3 702.83 38.6
3 -2 3 638.34 37.1
-4 2 -3 785.22 48.5
-4 2 -3 824.42 49.2
-4 2 -3 825.02 50.19
-4 2 -3 785.62 41.8
4 -2 3 822.62 46.3
4 -2 3 870.01 47.3
4 -2 3 850.11 48.2
4 -2 3 818.72 43.6
-5 2 -3 146.69 17.5
-5 2 -3 130.59 13.7
-5 2 -3 124.69 16.1
5 -2 3 128.09 12.4
5 -2 3 128.39 14.3
5 -2 3 140.19 12.7
-6 2 -3 608.64 35
6 -2 3 612.14 34.8
6 -2 3 578.64 33.3
6 -2 3 561.64 33.2
7 1 -3 121.29 9.5
-7 -1 3 121.19 9.1
-7 -1 3 127.59 10.8
-7 -1 3 135.29 10.4
6 1 -3 128.19 12.2
6 1 -3 143.59 15.6
-6 -1 3 155.68 14.8
-6 -1 3 160.28 14.4
5 1 -3 435.86 31.5
5 1 -3 500.35 30.5
5 1 -3 490.35 30.7
-5 -1 3 498.65 30.6
-5 -1 3 485.45 32.5
-5 -1 3 451.35 31.1
-5 -1 3 490.75 32.5
4 1 -3 350.96 25
4 1 -3 362.46 26.3
4 1 -3 370.36 24.7
-4 -1 3 359.46 26.4
-4 -1 3 377.86 23.9
-4 -1 3 388.06 26.7
-4 -1 3 366.76 25.2
3 1 -3 2052.69 104.69
3 1 -3 1825.22 103.39
3 1 -3 2074.39 113.59
-3 -1 3 1887.01 100.09
2 1 -3 5.7 6.3
2 1 -3 10.1 4.3
-2 -1 3 4.9 3.1
-2 -1 3 4.8 11.6
1 1 -3 100.89 13.8
-1 -1 3 90.29 4.9
-1 -1 3 96.69 29.6
0 1 -3 2507.25 138.59
0 1 -3 2639.14 133.19
0 -1 3 2663.13 176.98
-1 1 -3 817.22 46.4
-1 1 -3 748.13 50.69
1 -1 3 880.11 80.99
-2 1 -3 2253.47 119.89
-2 1 -3 2134.39 124.49
2 -1 3 2529.65 163.58
-3 1 -3 770.32 53.19
-3 1 -3 803.82 48.7
3 -1 3 836.82 46.5
-4 1 -3 -0.5 6.4
-4 1 -3 5.4 6.3
-4 1 -3 5.5 7
4 -1 3 0.9 4
4 -1 3 19 5.9
4 -1 3 9.4 6.4
4 -1 3 10.1 4.9
-5 1 -3 496.05 34.2
-5 1 -3 490.25 34
-5 1 -3 522.25 34.8
5 -1 3 525.35 32.5
5 -1 3 508.95 32.4
5 -1 3 526.35 32.8
-6 1 -3 366.16 26.9
-6 1 -3 406.86 29.7
6 -1 3 406.06 26.4
6 -1 3 399.06 26.8
6 -1 3 424.76 26.5
-7 1 -3 40.1 7.4
-7 1 -3 40.9 7.2
7 -1 3 39.6 5.8
7 -1 3 39.5 6
7 0 -3 11.3 4.7
-7 0 3 7.7 3
-7 0 3 7.9 3.1
6 0 -3 609.54 38.8
6 0 -3 617.54 36.5
6 0 -3 541.45 34.6
-6 0 3 604.74 36.8
-6 0 3 640.04 35.1
-6 0 3 624.84 37.3
5 0 -3 52.19 11.6
5 0 -3 45.6 7.3
-5 0 3 54.49 12
-5 0 3 36.2 9.7
-5 0 3 52.89 5.3
-5 0 3 66.29 9.7
-5 0 3 35.3 10.2
4 0 -3 1932.81 102.79
4 0 -3 2029.7 106.29
4 0 -3 2022.9 102.29
-4 0 3 2028.3 97.89
-4 0 3 1909.91 103.99
-4 0 3 1974 101.79
-4 0 3 1940.11 104.59
3 0 -3 37.8 7.8
3 0 -3 38.3 6.8
-3 0 3 33.3 7.6
-3 0 3 52.99 6.3
-3 0 3 38 5.3
2 0 -3 17.6 4.8
2 0 -3 20.1 7.3
2 0 -3 15.1 5
-2 0 3 17.3 3.9
-2 0 3 15 4.9
1 0 -3 791.42 49.99
1 0 -3 805.12 43.5
1 0 -3 827.42 45.1
-1 0 3 758.52 41.3
-1 0 3 843.92 76.99
0 0 -3 2010.7 105.09
0 0 3 1885.41 96.89
0 0 3 1954 135.89
-1 0 -3 1459.95 69.69
-1 0 -3 1212.08 73.99
-1 0 -3 1356.86 73.09
1 0 3 1191.58 98.29
-2 0 -3 900.61 44.6
-2 0 -3 900.11 54.19
-2 0 -3 859.51 48
-2 0 -3 809.62 50.59
2 0 3 905.81 45.5
2 0 3 768.42 75.39
-3 0 -3 349.47 25
-3 0 -3 402.66 21.7
3 0 3 408.36 23.2
3 0 3 404.56 23.9
3 0 3 305.27 45.6
-4 0 -3 247.28 18
-4 0 -3 230.98 18.8
-4 0 -3 186.08 18.8
-4 0 -3 232.08 18.1
-4 0 -3 238.58 15.9
4 0 3 230.98 17.6
4 0 3 228.48 17.7
4 0 3 267.77 18.9
-5 0 -3 1559.04 85.29
-5 0 -3 1713.53 86.79
-5 0 -3 1622.84 88.79
-5 0 -3 1605.34 87.79
-5 0 -3 1650.23 84.99
5 0 3 1632.04 85.99
5 0 3 1656.53 89.59
5 0 3 1602.14 85.79
5 0 3 1681.03 86.29
5 0 3 1555.64 85.19
5 0 3 1615.04 88.79
-6 0 -3 120.69 14.7
-6 0 -3 123.69 13.8
-6 0 -3 114.49 12.9
6 0 3 118.49 13.9
6 0 3 100.19 11
6 0 3 93.39 14.2
6 0 3 117.09 13.7
-7 0 -3 111.29 14.1
-7 0 -3 101.39 11.7
7 0 3 116.69 11.2
7 0 3 89.39 13.3
7 0 3 119.69 11.5
6 -1 -3 27.5 6.2
6 -1 -3 25.1 8.7
6 -1 -3 34.3 5.6
-6 1 3 34.9 9.3
-6 1 3 38.7 8.1
-6 1 3 42.5 8.1
5 -1 -3 710.33 46.7
5 -1 -3 725.33 43.7
5 -1 -3 750.02 41.3
5 -1 -3 676.33 40.4
-5 1 3 691.53 44.5
-5 1 3 755.92 41.7
-5 1 3 699.43 39.4
-5 1 3 776.52 37.4
4 -1 -3 135.19 12.6
4 -1 -3 130.29 11.8
4 -1 -3 142.19 16.7
-4 1 3 142.19 12.1
-4 1 3 151.38 11.6
-4 1 3 154.08 17.2
-4 1 3 127.59 14.7
-4 1 3 140.79 9.4
-4 1 3 118.09 10.1
3 -1 -3 241.48 21.4
3 -1 -3 240.78 18.4
3 -1 -3 239.08 19.8
-3 1 3 246.38 15.1
-3 1 3 236.18 19.2
2 -1 -3 1086.69 57.89
2 -1 -3 1032 57.39
-2 1 3 956.1 56.39
-2 1 3 1156.18 53.49
-2 1 3 1012.7 53.29
1 -1 -3 5187.28 256.07
1 -1 -3 5257.47 257.27
1 -1 -3 5399.06 262.77
-1 1 3 5603.34 253.47
-1 1 3 4446.56 287.07
0 -1 -3 820.12 44.6
0 -1 -3 992.4 61.89
0 -1 -3 855.91 50.49
0 -1 -3 944.31 47.2
0 1 3 864.71 43.7
0 1 3 761.92 70.19
-1 -1 -3 2473.05 141.29
-1 -1 -3 2754.42 130.49
-1 -1 -3 2576.74 133.59
1 1 3 2562.94 162.78
1 1 3 2624.14 128.19
-2 -1 -3 1312.87 68.99
-2 -1 -3 1336.97 70.99
-2 -1 -3 1364.06 68.69
-2 -1 -3 1405.46 81.49
2 1 3 1383.46 68.59
2 1 3 1255.97 99.79
2 1 3 1366.86 68.49
2 1 3 1402.86 68.29
-3 -1 -3 70.09 13.9
-3 -1 -3 69.19 6.3
-3 -1 -3 53.19 7.2
3 1 3 63.59 7.1
3 1 3 59.69 19.4
3 1 3 60.39 7.3
3 1 3 59.99 6
-4 -1 -3 3088.69 176.48
-4 -1 -3 3138.19 156.88
4 1 3 3038.5 158.28
4 1 3 3273.87 159.28
-5 -1 -3 44.8 9.5
-5 -1 -3 36.5 7.9
-5 -1 -3 35.8 7
-5 -1 -3 45.4 7.4
-5 -1 -3 39.3 7
5 1 3 28.8 7.2
5 1 3 32.6 10.7
5 1 3 44.2 7.9
5 1 3 31.1 7.1
5 1 3 50.19 9.2
5 1 3 56.59 9.2
-6 -1 -3 9.9 5.4
-6 -1 -3 10 6.2
-6 -1 -3 14.4 4.9
-6 -1 -3 14.7 8.2
6 1 3 11.2 7.3
6 1 3 8.6 7.1
6 1 3 11.8 6.8
6 1 3 12 6.1
6 1 3 10.9 7.4
-7 -1 -3 183.68 16.5
-7 -1 -3 225.18 20.1
-7 -1 -3 219.18 17.1
7 1 3 223.58 21.6
7 1 3 227.38 18
7 1 3 233.68 17.7
-8 -1 -3 725.03 38.8
8 1 3 640.14 39.5
6 -2 -3 223.38 18.5
6 -2 -3 255.07 16.4
-6 2 3 274.07 13.2
-6 2 3 185.28 16.3
-6 2 3 245.28 15.5
5 -2 -3 194.18 15.8
5 -2 -3 176.58 18.5
-5 2 3 218.48 18.7
-5 2 3 199.18 14.3
-5 2 3 189.08 13.8
-5 2 3 216.48 16.1
-5 2 3 217.48 12.6
4 -2 -3 11.8 6.8
4 -2 -3 1.6 3.2
4 -2 -3 -2.2 4.5
4 -2 -3 6.1 3.6
4 -2 -3 0.4 4.9
4 -2 -3 -2.9 6.2
-4 2 3 -1.1 3.3
-4 2 3 11.1 4.8
-4 2 3 3 5.4
-4 2 3 2.1 3
-4 2 3 -0.6 5
3 -2 -3 380.66 22.5
3 -2 -3 347.27 26
3 -2 -3 425.96 25.8
3 -2 -3 357.56 27.7
3 -2 -3 387.56 24.6
-3 2 3 441.96 23.2
-3 2 3 447.96 27.7
-3 2 3 440.96 23
2 -2 -3 1693.23 90.79
2 -2 -3 1741.13 90.39
-2 2 3 1607.64 84.99
-2 2 3 1762.92 85.19
-2 2 3 1755.22 88.99
1 -2 -3 248.28 16.9
1 -2 -3 253.07 17
-1 2 3 198.48 31.5
-1 2 3 265.17 12.9
0 -2 -3 1292.17 69.49
0 -2 -3 1483.05 90.29
0 -2 -3 1442.36 70.29
0 2 3 1206.78 93.99
-1 -2 -3 935.41 47.6
-1 -2 -3 834.92 61.09
1 2 3 961.3 76.59
-3 -2 -3 3250.47 168.68
-3 -2 -3 3382.66 168.98
-3 -2 -3 3454.95 187.28
3 2 3 3371.66 168.48
3 2 3 3271.87 169.48
3 2 3 3625.84 215.68
3 2 3 3459.75 169.28
-4 -2 -3 142.09 10.9
-4 -2 -3 140.19 22.1
4 2 3 147.79 32.1
4 2 3 134.29 12.2
4 2 3 124.49 10.5
4 2 3 145.89 13.2
4 2 3 138.49 11.2
-5 -2 -3 372.56 23.2
-5 -2 -3 344.17 21.8
-5 -2 -3 329.07 22.7
-5 -2 -3 332.97 23.9
5 2 3 334.07 24.1
5 2 3 332.17 22.5
5 2 3 364.16 27.6
5 2 3 327.37 19.3
5 2 3 348.67 22.6
5 2 3 362.86 25.5
-6 -2 -3 293.47 21.1
-6 -2 -3 310.57 20.9
-6 -2 -3 302.87 22.8
-6 -2 -3 281.97 20.7
6 2 3 298.27 24.9
6 2 3 298.27 21.1
6 2 3 278.57 21.7
6 2 3 278.57 23.3
-7 -2 -3 333.67 25.3
-7 -2 -3 348.77 23
7 2 3 323.67 22.4
7 2 3 332.87 23.7
7 2 3 321.57 22.9
7 2 3 354.36 28.6
-8 -2 -3 321.67 20.5
-8 -2 -3 341.67 21.9
8 2 3 332.57 21.5
8 2 3 304.67 24.5
5 -3 -3 13.6 6.9
5 -3 -3 4.2 5.4
-5 3 3 8.7 4.7
-5 3 3 6.3 2.5
-5 3 3 2.2 7.9
4 -3 -3 250.27 15.2
4 -3 -3 190.98 21.7
4 -3 -3 223.88 19.1
4 -3 -3 222.08 17.2
-4 3 3 228.88 13.5
-4 3 3 224.68 15
-4 3 3 225.38 15.5
3 -3 -3 1126.09 73.59
3 -3 -3 1373.86 70.79
3 -3 -3 1265.27 69.69
3 -3 -3 1348.86 67.19
-3 3 3 1334.47 67.39
-3 3 3 1389.66 67.29
-3 3 3 1336.97 70.69
2 -3 -3 16.8 11.1
2 -3 -3 16.2 4.4
2 -3 -3 16.8 6
2 -3 -3 25.1 5.8
2 -3 -3 23.5 4.1
2 -3 -3 24.7 7
-2 3 3 27.8 3.7
-2 3 3 43.5 7.4
-2 3 3 26.3 6.6
1 -3 -3 1437.36 77.59
1 -3 -3 1492.05 78.69
0 -3 -3 1155.98 60.69
0 -3 -3 1117.99 61.39
0 3 3 1156.98 89.29
-1 -3 -3 342.17 37.4
-1 -3 -3 414.86 23.3
-1 -3 -3 371.06 22.5
1 3 3 385.76 21.7
1 3 3 408.26 22.2
1 3 3 432.96 49.9
-2 -3 -3 3075.79 150.08
-2 -3 -3 2896.51 169.08
2 3 3 3201.88 149.29
2 3 3 2833.12 147.29
2 3 3 2993.3 149.29
-3 -3 -3 2336.67 121.69
-3 -3 -3 2503.75 143.49
-3 -3 -3 2448.06 122.19
3 3 3 2444.06 122.39
3 3 3 2311.37 120.29
3 3 3 2476.55 120.49
3 3 3 2422.86 121.99
-4 -3 -3 394.56 24.8
-4 -3 -3 431.86 43.6
-4 -3 -3 417.36 25.3
4 3 3 418.66 24.5
4 3 3 455.95 60.89
4 3 3 422.06 26.2
4 3 3 418.46 26.8
4 3 3 387.86 24
-5 -3 -3 674.53 37
-5 -3 -3 703.23 38.6
-5 -3 -3 660.73 38.6
-5 -3 -3 665.53 39.6
-5 -3 -3 616.54 40.2
5 3 3 653.53 37.7
5 3 3 666.13 37.2
5 3 3 701.93 41.3
5 3 3 639.04 39.6
5 3 3 547.95 38.3
5 3 3 666.13 34.5
5 3 3 715.53 41.2
-6 -3 -3 644.84 39.7
-6 -3 -3 714.83 41.9
-6 -3 -3 660.43 40.1
-6 -3 -3 674.93 38.8
6 3 3 714.63 45
6 3 3 675.93 39.9
6 3 3 686.23 43.4
-7 -3 -3 52.79 8.3
-7 -3 -3 61.39 9.9
7 3 3 73.39 12.6
7 3 3 71.59 9.7
-8 -3 -3 612.14 34
8 3 3 583.04 37.1
5 -4 -3 2.7 2.8
-5 4 3 7.4 5
-5 4 3 7.7 2.1
4 -4 -3 281.37 19.9
4 -4 -3 256.37 18.8
4 -4 -3 261.57 16.2
-4 4 3 274.17 17.2
-4 4 3 251.97 16.4
-4 4 3 258.47 15
3 -4 -3 178.78 12.6
3 -4 -3 166.08 15.1
3 -4 -3 152.48 18.5
3 -4 -3 167.98 15.7
-3 4 3 171.08 11.7
-3 4 3 171.38 12.3
2 -4 -3 804.22 42.1
2 -4 -3 780.42 45.3
2 -4 -3 749.73 44.4
2 -4 -3 769.12 44.9
-2 4 3 858.11 41.2
1 -4 -3 387.06 21.8
1 -4 -3 356.56 23.6
-1 4 3 392.16 26.7
-1 4 3 413.26 23.7
0 -4 -3 200.58 17.4
0 -4 -3 217.28 16
-1 -4 -3 1549.64 77.79
-1 -4 -3 1399.76 100.89
1 4 3 1517.05 76.89
-2 -4 -3 1830.92 91.99
-2 -4 -3 1564.14 112.59
2 4 3 1790.92 91.49
2 4 3 1922.21 91.49
-3 -4 -3 1074.69 57.39
-3 -4 -3 980.4 77.89
3 4 3 1128.89 55.59
3 4 3 1019.5 56.69
3 4 3 1056.99 57.29
3 4 3 1077.09 53.99
-4 -4 -3 117.09 11.1
-4 -4 -3 115.29 10.8
-4 -4 -3 116.89 12
-4 -4 -3 104.19 8.3
-4 -4 -3 106.79 12.8
-4 -4 -3 125.89 11.4
4 4 3 124.79 9.6
4 4 3 120.19 13.3
4 4 3 108.69 10
4 4 3 124.49 11.6
-5 -4 -3 239.38 18.6
-5 -4 -3 248.58 19.6
-5 -4 -3 239.58 20.4
-5 -4 -3 247.08 18.1
-5 -4 -3 244.38 16.7
5 4 3 260.87 15.2
5 4 3 254.07 16.8
5 4 3 263.57 17.8
5 4 3 242.58 19.3
5 4 3 249.18 17.6
5 4 3 233.98 21.4
5 4 3 262.77 21.8
-6 -4 -3 133.29 12.9
-6 -4 -3 141.49 14
-6 -4 -3 112.89 16.2
-6 -4 -3 140.79 13.7
-6 -4 -3 137.09 12.2
6 4 3 132.09 17.1
6 4 3 142.79 18
6 4 3 146.39 10.7
6 4 3 134.99 14.3
-7 -4 -3 855.41 48.2
-7 -4 -3 841.12 45.6
7 4 3 798.82 48.8
7 4 3 790.82 46.2
-8 -4 -3 71.09 8.2
-8 -4 -3 67.09 7.2
8 4 3 63.79 9.5
4 -5 -3 171.18 10.7
4 -5 -3 152.98 13.4
-4 5 3 152.58 14.2
-4 5 3 172.68 9.9
3 -5 -3 322.57 23.5
3 -5 -3 335.67 19.4
-3 5 3 326.87 19.4
-3 5 3 296.87 18.5
2 -5 -3 162.18 12
2 -5 -3 147.19 15.6
-2 5 3 161.98 10.8
1 -5 -3 588.84 32
1 -5 -3 594.64 35
0 -5 -3 197.78 12.9
0 -5 -3 202.38 15.1
-1 -5 -3 2592.84 128.29
-1 -5 -3 2555.14 128.29
-1 -5 -3 2409.06 128.69
1 5 3 2592.84 129.99
-2 -5 -3 59.29 7.1
-2 -5 -3 68.09 8.8
-2 -5 -3 71.39 10.1
-2 -5 -3 77.39 9.4
-2 -5 -3 74.99 7.6
-2 -5 -3 67.69 18.4
2 5 3 76.09 9.3
2 5 3 80.19 9.5
-3 -5 -3 176.68 14.2
-3 -5 -3 199.38 16.7
-3 -5 -3 192.28 14.2
-3 -5 -3 212.68 16.1
-3 -5 -3 190.88 15.4
3 5 3 224.38 18.2
3 5 3 208.48 16.7
3 5 3 203.68 12.7
-4 -5 -3 619.94 38.8
-4 -5 -3 642.74 38.4
-4 -5 -3 611.34 36.5
-4 -5 -3 610.64 39
4 5 3 703.73 36
4 5 3 681.23 35.3
4 5 3 672.53 40.8
4 5 3 616.24 39.1
-5 -5 -3 362.96 24
-5 -5 -3 384.56 23.6
-5 -5 -3 412.26 26.8
-5 -5 -3 409.66 30.5
-5 -5 -3 423.26 27.6
5 5 3 422.86 25.1
5 5 3 409.66 24.2
5 5 3 399.76 22.3
5 5 3 424.06 25.8
5 5 3 390.16 30
-6 -5 -3 1206.18 63.29
-6 -5 -3 1240.28 66.99
-6 -5 -3 1170.48 65.59
-6 -5 -3 1184.88 68.59
6 5 3 1106.99 62.99
6 5 3 1274.57 64.99
6 5 3 1227.68 60.89
-7 -5 -3 152.38 14.6
-7 -5 -3 145.99 11.7
7 5 3 151.48 12.8
7 5 3 110.09 14.3
-8 -5 -3 29.1 5.5
-8 -5 -3 14.5 3.5
8 5 3 16 4.5
3 -6 -3 263.97 16.5
3 -6 -3 301.57 19.1
2 -6 -3 438.26 24.8
2 -6 -3 451.65 28.9
1 -6 -3 129.89 9.8
1 -6 -3 127.59 14
-1 6 3 128.89 8.8
0 -6 -3 2209.38 112.29
0 -6 -3 2129.39 108.59
-1 -6 -3 5.7 3.4
-1 -6 -3 1.9 3.9
-2 -6 -3 327.67 21.6
-2 -6 -3 292.07 20.9
2 6 3 318.27 17.4
2 6 3 325.87 24.6
-3 -6 -3 398.56 26.1
-3 -6 -3 430.26 29.5
-3 -6 -3 417.06 26.5
-3 -6 -3 395.76 28
3 6 3 443.96 30.7
3 6 3 427.46 23.4
-4 -6 -3 747.43 42.8
-4 -6 -3 721.13 44.8
-4 -6 -3 776.32 45.6
-4 -6 -3 707.13 42.5
4 6 3 787.82 41
4 6 3 727.63 46.6
4 6 3 779.02 40.5
-5 -6 -3 692.73 42.5
-5 -6 -3 676.33 40.3
-5 -6 -3 704.63 42.9
-5 -6 -3 675.43 39.4
5 6 3 706.13 38.4
5 6 3 748.43 36.7
5 6 3 704.53 39.1
-6 -6 -3 946.31 53.29
-6 -6 -3 996.9 53.69
6 6 3 875.51 49.1
6 6 3 863.41 49.9
6 6 3 935.61 47.1
-7 -6 -3 9 4.3
7 6 3 5.5 4.1
7 6 3 9.8 6.6
2 -7 -3 1.1 2
2 -7 -3 0.6 3.2
1 -7 -3 518.65 29.3
1 -7 -3 583.74 32.5
0 -7 -3 62.59 8.7
-1 -7 -3 193.68 15.8
-1 -7 -3 188.38 14.5
1 7 3 185.18 11.9
-2 -7 -3 142.29 13.3
-2 -7 -3 126.29 11.5
2 7 3 115.19 8.4
-3 -7 -3 433.66 27.1
-3 -7 -3 427.86 27.1
3 7 3 438.76 24
3 7 3 418.26 24.3
-4 -7 -3 290.57 20
-4 -7 -3 316.27 20.6
-4 -7 -3 299.67 22.3
4 7 3 294.07 18.3
4 7 3 262.67 17.2
-5 -7 -3 689.13 42
-5 -7 -3 734.23 43
-5 -7 -3 695.73 40.7
-5 -7 -3 714.13 41.1
5 7 3 752.92 37.4
5 7 3 749.82 39.6
-6 -7 -3 41.6 5.3
-6 -7 -3 39.4 8.1
6 7 3 36.5 5.9
6 7 3 40.1 4.9
6 7 3 30.3 7
0 -8 -3 159.68 11.6
-1 -8 -3 127.29 10.7
-2 -8 -3 418.36 24.6
-2 -8 -3 395.86 24.4
-3 -8 -3 26.8 4.7
-3 -8 -3 14 5.3
3 8 3 23.4 5.4
-4 -8 -3 1163.68 60.49
-4 -8 -3 1117.89 59.69
4 8 3 1137.09 56.89
-5 -8 -3 4.9 4.9
-5 -8 -3 4.4 3.4
5 8 3 10 2.5
4 5 -4 247.98 15
-4 -5 4 236.38 15.7
3 5 -4 3.1 3.3
3 5 -4 0.5 1.9
-3 -5 4 5.9 3
-3 -5 4 5.8 3.1
2 5 -4 1101.79 61.09
2 5 -4 1256.47 62.79
-2 -5 4 1181.28 63.19
-2 -5 4 1215.68 62.09
1 5 -4 157.28 12.3
1 5 -4 127.49 11.7
1 5 -4 158.48 11.3
-1 -5 4 153.28 11.1
-1 -5 4 145.99 12.7
0 5 -4 132.09 9.8
0 5 -4 106.39 10.7
0 5 -4 127.49 11.5
0 -5 4 117.09 10.4
0 -5 4 122.79 9.8
0 -5 4 109.49 8.3
-1 5 -4 674.33 35.4
-1 5 -4 720.93 37.6
-1 5 -4 677.13 34.1
1 -5 4 623.14 33.8
1 -5 4 594.54 33.1
1 -5 4 545.55 34.5
-2 5 -4 187.88 12.7
-2 5 -4 145.79 12.5
2 -5 4 191.68 10.6
5 4 -4 175.28 14.4
5 4 -4 225.88 14.8
-5 -4 4 234.38 14.7
-5 -4 4 238.18 14.4
-5 -4 4 213.18 14.2
4 4 -4 0.9 3
4 4 -4 -1 3.4
-4 -4 4 1.6 3.1
-4 -4 4 0.9 2.7
-4 -4 4 5 3.6
3 4 -4 1253.07 72.19
3 4 -4 1432.96 73.19
3 4 -4 1353.66 70.49
-3 -4 4 1323.27 74.49
-3 -4 4 1356.86 70.39
-3 -4 4 1416.56 73.49
-3 -4 4 1501.65 73.09
2 4 -4 78.59 10.1
2 4 -4 80.89 8.2
-2 -4 4 82.39 9
-2 -4 4 50.59 6.5
-2 -4 4 80.39 9.6
1 4 -4 87.99 11.4
1 4 -4 91.29 10.5
-1 -4 4 95.69 9.7
-1 -4 4 96.39 11.4
0 4 -4 289.87 22.6
0 4 -4 288.17 19.1
0 4 -4 278.47 20.5
0 -4 4 296.27 19.5
0 -4 4 287.67 20.7
-1 4 -4 750.02 44.1
-1 4 -4 708.13 40.2
-1 4 -4 748.23 41.7
1 -4 4 747.43 41.3
1 -4 4 726.63 42.1
-2 4 -4 298.07 18.3
-2 4 -4 323.47 22.9
-2 4 -4 325.77 20.5
-2 4 -4 291.67 21.3
2 -4 4 312.27 19.6
2 -4 4 247.98 21.3
2 -4 4 322.87 18.5
-3 4 -4 307.77 20.5
-3 4 -4 301.97 19.8
-3 4 -4 312.97 20.3
3 -4 4 297.07 18.5
3 -4 4 290.67 19.7
3 -4 4 305.57 17.5
6 3 -4 208.68 15
6 3 -4 220.18 15
-6 -3 4 277.37 15.1
5 3 -4 40.3 6.9
5 3 -4 35.1 6.3
-5 -3 4 32 5.5
-5 -3 4 25.8 4.9
-5 -3 4 34.2 6.2
4 3 -4 1310.57 69.29
4 3 -4 1310.67 67.69
4 3 -4 1252.57 69.19
-4 -3 4 1171.48 68.09
-4 -3 4 1358.46 69.49
-4 -3 4 1290.87 67.09
-4 -3 4 1245.98 68.09
3 3 -4 265.67 20.2
3 3 -4 285.57 20.1
3 3 -4 259.17 21
-3 -3 4 318.77 23.9
-3 -3 4 278.97 18.7
-3 -3 4 275.97 20.2
-3 -3 4 257.77 17.4
-3 -3 4 291.07 21.2
2 3 -4 53.99 16
2 3 -4 48 9
2 3 -4 38.4 8.7
2 3 -4 42.1 6.8
2 3 -4 46.8 8.5
-2 -3 4 39 7.5
-2 -3 4 50.19 6.7
-2 -3 4 29.5 6.7
-2 -3 4 51.89 8
1 3 -4 396.76 24.3
1 3 -4 390.36 25.9
1 3 -4 400.76 38.3
-1 -3 4 397.66 25.1
-1 -3 4 411.56 23.9
-1 -3 4 393.36 26.1
0 3 -4 1839.42 97.29
0 3 -4 1850.01 113.89
0 3 -4 1976.2 97.09
0 3 -4 1870.21 99.89
0 -3 4 1909.01 96.09
0 -3 4 1838.82 97.89
0 -3 4 1892.71 97.39
-1 3 -4 324.37 24.6
-1 3 -4 318.37 19.9
-1 3 -4 323.27 21.9
-1 3 -4 290.67 32.2
1 -3 4 290.87 21.2
1 -3 4 292.27 21.5
1 -3 4 316.57 20.9
-2 3 -4 1259.07 66.39
-2 3 -4 1127.69 82.79
-2 3 -4 1257.37 70.79
-2 3 -4 1381.76 69.19
2 -3 4 1250.67 68.89
2 -3 4 1355.86 68.89
-3 3 -4 46.6 9.2
-3 3 -4 45.1 9.7
-3 3 -4 82.99 10.6
3 -3 4 48.4 8
3 -3 4 44.8 8.1
-4 3 -4 3.7 4.8
-4 3 -4 3.4 4.5
-4 3 -4 0.5 3.4
4 -3 4 0.2 2.6
4 -3 4 5.2 4
4 -3 4 1.2 3.2
-5 3 -4 542.55 30.6
-5 3 -4 560.54 30.8
5 -3 4 511.15 29
5 -3 4 550.24 30.9
6 2 -4 17 4.8
6 2 -4 22.1 4.7
6 2 -4 29 4.9
-6 -2 4 21.9 4.3
-6 -2 4 18.4 4.2
-6 -2 4 23.2 4.6
5 2 -4 61.39 9.5
5 2 -4 87.49 9.7
-5 -2 4 77.99 10.2
-5 -2 4 90.39 9.9
-5 -2 4 82.99 8.9
4 2 -4 173.08 15.8
4 2 -4 205.98 17.7
-4 -2 4 196.68 16.9
-4 -2 4 203.18 14.4
-4 -2 4 205.78 16.4
-4 -2 4 166.88 15.3
-4 -2 4 209.48 16.3
3 2 -4 125.59 14.2
3 2 -4 132.99 12.6
3 2 -4 113.69 12.6
3 2 -4 153.18 23.1
-3 -2 4 141.19 14.3
-3 -2 4 129.29 13
-3 -2 4 141.09 12.3
-3 -2 4 137.89 12
2 2 -4 16.8 5.2
2 2 -4 31.3 12.5
2 2 -4 11.8 5.6
2 2 -4 16.1 6.4
-2 -2 4 19.8 6.2
-2 -2 4 23.6 6.6
-2 -2 4 16.6 4.8
-2 -2 4 23.4 4.5
1 2 -4 2401.26 128.69
1 2 -4 2337.67 129.09
1 2 -4 2633.44 127.49
1 2 -4 2524.65 128.49
1 2 -4 2699.43 144.39
-1 -2 4 2677.83 200.18
-1 -2 4 2416.86 128.69
-1 -2 4 2598.14 127.99
-1 -2 4 2467.15 128.29
-1 -2 4 2564.54 126.99
0 2 -4 18 6.5
0 2 -4 27.5 5.8
0 2 -4 35.3 5.9
0 2 -4 28.2 12.1
0 2 -4 25.1 6.5
0 -2 4 23.5 5.6
0 -2 4 22.3 5.5
0 -2 4 22.3 6
0 -2 4 26.9 6.1
0 -2 4 28 4.7
0 -2 4 20 17.7
-1 2 -4 1861.91 95.89
-1 2 -4 1873.41 97.89
-1 2 -4 1948.51 94.89
-1 2 -4 1860.71 110.09
1 -2 4 1903.11 94.29
1 -2 4 1773.22 95.09
1 -2 4 1743.23 95.89
1 -2 4 1985.3 96.49
1 -2 4 1755.72 152.48
-2 2 -4 152.68 22.3
-2 2 -4 180.18 13.1
-2 2 -4 168.88 15.4
-2 2 -4 167.68 15.3
2 -2 4 194.38 15.6
2 -2 4 153.78 14.2
-3 2 -4 5.6 2.9
-3 2 -4 5.1 5.4
-3 2 -4 4.1 4.6
-3 2 -4 6.3 8.6
-3 2 -4 9.8 5.9
3 -2 4 3.2 4.1
3 -2 4 2.6 3.9
-4 2 -4 456.05 29.1
-4 2 -4 397.36 27.2
-4 2 -4 397.46 28.4
4 -2 4 407.06 23.4
4 -2 4 398.76 26.6
4 -2 4 394.36 27.5
4 -2 4 375.26 25.5
-5 2 -4 287.97 21.2
-5 2 -4 285.57 20.4
-5 2 -4 277.37 20.4
5 -2 4 279.67 19.6
5 -2 4 279.57 21
5 -2 4 266.57 18.5
-6 2 -4 36.8 6
-6 2 -4 36.3 6
6 -2 4 34.8 5
6 1 -4 67.99 7.7
6 1 -4 62.89 8.4
-6 -1 4 70.09 7.7
-6 -1 4 79.99 8.2
-6 -1 4 72.19 7.4
5 1 -4 1200.68 75.79
5 1 -4 1585.14 77.29
-5 -1 4 1508.65 73.99
-5 -1 4 1407.76 77.19
-5 -1 4 1557.44 77.89
-5 -1 4 1414.36 75.69
4 1 -4 10.9 5.9
4 1 -4 19.2 5.6
-4 -1 4 23.3 8.6
-4 -1 4 14.9 5
-4 -1 4 12.2 6.5
-4 -1 4 16.1 5.7
3 1 -4 594.14 35
3 1 -4 633.74 48
3 1 -4 446.76 32.6
-3 -1 4 535.95 32.8
-3 -1 4 567.14 34.8
-3 -1 4 552.64 31.9
-3 -1 4 567.64 28.7
2 1 -4 1838.72 111.19
2 1 -4 2332.27 126.49
2 1 -4 2228.28 112.59
-2 -1 4 2107.99 111.79
-2 -1 4 2068.39 110.49
-2 -1 4 2469.35 180.78
-2 -1 4 2184.38 107.09
-2 -1 4 2193.78 109.69
1 1 -4 100.39 11.3
1 1 -4 94.89 16.7
-1 -1 4 111.89 34.6
0 1 -4 3651.83 197.38
0 -1 4 3803.22 248.78
-1 1 -4 522.65 39.6
-1 1 -4 496.85 33.9
1 -1 4 576.24 71.39
-2 1 -4 7.4 5.1
-2 1 -4 0 3
-2 1 -4 3.7 7.8
-2 1 -4 2.4 4.4
2 -1 4 -1.3 12.2
2 -1 4 4.8 4.7
-3 1 -4 501.65 31.2
-3 1 -4 514.15 28.9
-3 1 -4 469.25 39
-3 1 -4 481.45 31.8
-3 1 -4 517.25 31.2
-3 1 -4 502.15 32
3 -1 4 475.85 29.9
3 -1 4 478.35 30.2
3 -1 4 496.45 31.5
3 -1 4 502.35 31.2
-4 1 -4 1568.94 84.59
-4 1 -4 1494.15 82.19
-4 1 -4 1395.36 82.29
-4 1 -4 1521.95 83.09
4 -1 4 1531.55 82.19
4 -1 4 1758.62 86.29
4 -1 4 1538.65 82.59
4 -1 4 1468.05 80.59
-5 1 -4 92.59 12.7
-5 1 -4 62.29 10.9
-5 1 -4 96.79 13.3
5 -1 4 66.69 10.4
5 -1 4 77.69 11.1
5 -1 4 65.19 10.1
-6 1 -4 620.94 36.4
-6 1 -4 550.74 35.3
-6 1 -4 553.34 35.6
6 -1 4 643.34 36.3
6 -1 4 573.04 34.3
6 -1 4 639.74 35.9
6 0 -4 543.95 32.2
6 0 -4 574.04 35.2
6 0 -4 650.93 34.6
-6 0 4 561.94 33.6
-6 0 4 587.24 32.6
-6 0 4 624.54 33.9
5 0 -4 6.5 3.9
5 0 -4 -1.3 6.6
5 0 -4 3.1 4.3
-5 0 4 4 6
-5 0 4 -2.5 5.6
4 0 -4 17.1 5.1
4 0 -4 4.7 4.9
4 0 -4 16.8 8.2
-4 0 4 12.6 6.4
-4 0 4 19.3 7.9
-4 0 4 17.1 3.9
-4 0 4 41.1 10.8
3 0 -4 651.53 42.2
3 0 -4 701.53 45.5
3 0 -4 803.72 43.9
-3 0 4 744.53 38.7
-3 0 4 799.12 41.7
-3 0 4 860.41 44.8
-3 0 4 726.73 43.8
-3 0 4 787.82 41.5
2 0 -4 1349.66 81.39
2 0 -4 1218.98 71.99
-2 0 4 1266.77 67.09
-2 0 4 1354.46 69.29
-2 0 4 1201.08 66.99
-2 0 4 1444.46 122.19
1 0 -4 3004.8 156.78
1 0 -4 3205.28 165.28
-1 0 4 3299.07 211.18
-1 0 4 2856.31 151.68
-1 0 4 2926.71 151.88
0 0 -4 1224.08 67.19
0 0 -4 1303.57 74.19
0 0 4 1213.98 62.99
0 0 4 1208.38 108.49
0 0 4 1207.68 62.79
-1 0 -4 60.79 12
-1 0 -4 61.09 9
1 0 4 52.89 24
1 0 4 74.59 7.6
1 0 4 49.4 6.1
-2 0 -4 205.98 19.9
-2 0 -4 198.58 17
2 0 4 190.98 42.1
-3 0 -4 1905.91 95.79
-3 0 -4 1759.72 96.99
3 0 4 1752.02 141.09
-4 0 -4 48.7 8.8
-4 0 -4 52.79 9
-4 0 -4 41.6 8.9
-4 0 -4 42.5 9
4 0 4 53.19 8.8
4 0 4 47.4 8.1
4 0 4 40.1 8.3
4 0 4 47.9 9
-5 0 -4 535.85 36.2
-5 0 -4 645.04 38.9
-5 0 -4 558.54 36.4
-5 0 -4 604.74 37.8
5 0 4 580.44 36.7
5 0 4 637.64 37
5 0 4 571.14 36.3
5 0 4 604.44 36.4
-6 0 -4 111.79 11.6
-6 0 -4 88.99 13.4
-6 0 -4 93.89 12.4
-6 0 -4 102.09 13.2
6 0 4 99.99 13.5
6 0 4 98.69 12.2
6 0 4 106.79 11.6
-7 0 -4 23.6 6.1
-7 0 -4 18.5 4.7
-7 0 -4 23.4 7.3
7 0 4 20.8 5.4
7 0 4 23.4 5.4
6 -1 -4 7.3 4.9
6 -1 -4 1.2 2.6
-6 1 4 4.1 3.3
-6 1 4 5.5 4.3
-6 1 4 1.5 2.8
5 -1 -4 10.4 6.2
5 -1 -4 7.6 5.4
5 -1 -4 9.4 4.3
-5 1 4 13 9.3
-5 1 4 13.4 7.1
-5 1 4 11.2 3.5
4 -1 -4 285.87 23.8
4 -1 -4 228.48 18.5
4 -1 -4 299.27 22.5
-4 1 4 257.77 23.4
-4 1 4 293.57 16
-4 1 4 296.97 18.6
-4 1 4 291.47 20.6
-4 1 4 270.87 22.4
3 -1 -4 1019.4 53.49
3 -1 -4 933.21 49.4
3 -1 -4 875.11 55.59
-3 1 4 985.4 50.19
-3 1 4 948.11 48.1
-3 1 4 921.31 51.79
-3 1 4 890.31 54.29
-3 1 4 1018.1 50.69
2 -1 -4 1179.28 66.79
2 -1 -4 1225.98 66.29
-2 1 4 1263.87 61.59
-2 1 4 1158.78 61.09
-2 1 4 1137.89 64.69
1 -1 -4 539.45 38.8
1 -1 -4 510.55 32.5
-1 1 4 518.25 28
-1 1 4 504.65 61.09
0 -1 -4 28.3 5.9
0 -1 -4 32.6 8.7
0 1 4 20.3 3.5
0 1 4 34.2 18.3
0 1 4 34.7 4.6
-1 -1 -4 217.98 19.6
-1 -1 -4 217.28 15.5
-1 -1 -4 197.88 24.2
1 1 4 177.98 38.1
1 1 4 228.98 13.3
-2 -1 -4 2980.7 148.19
-2 -1 -4 2718.53 161.68
-2 -1 -4 3170.68 150.78
2 1 4 2721.83 193.68
2 1 4 2996.5 146.39
2 1 4 3020.9 145.99
-3 -1 -4 359.16 20.8
-3 -1 -4 333.97 23.5
3 1 4 335.67 20.5
3 1 4 313.67 50.19
3 1 4 323.37 20.6
-4 -1 -4 800.22 42.4
-4 -1 -4 725.23 39.8
-4 -1 -4 752.12 41.1
-4 -1 -4 732.63 43.5
-4 -1 -4 725.33 42.5
4 1 4 746.33 42.5
4 1 4 708.43 41.9
4 1 4 689.73 37.6
4 1 4 737.93 41.9
4 1 4 734.13 45.3
-5 -1 -4 375.06 26.8
-5 -1 -4 400.86 26
-5 -1 -4 406.76 28.2
-5 -1 -4 388.06 27.2
-5 -1 -4 403.56 26.3
5 1 4 403.06 29.6
5 1 4 391.56 27.2
5 1 4 421.46 26.9
5 1 4 401.46 27.9
5 1 4 447.86 28.2
-6 -1 -4 177.78 16.4
-6 -1 -4 200.18 16.6
-6 -1 -4 212.88 19.9
-6 -1 -4 199.58 17.5
6 1 4 221.48 17.6
6 1 4 200.28 17.2
6 1 4 193.48 21.5
6 1 4 200.28 18.4
-7 -1 -4 415.56 27
-7 -1 -4 414.86 27.9
7 1 4 435.66 27.3
7 1 4 413.56 27.8
7 1 4 394.16 29.1
5 -2 -4 116.89 15.3
5 -2 -4 108.49 10.9
-5 2 4 108.69 10
-5 2 4 120.39 7.5
-5 2 4 102.19 9.8
-5 2 4 102.49 12.8
4 -2 -4 881.11 44.3
4 -2 -4 811.32 47.5
4 -2 -4 859.81 49.4
4 -2 -4 760.12 51.89
-4 2 4 857.21 42.9
-4 2 4 826.22 49.4
-4 2 4 859.71 45.4
-4 2 4 782.72 45.8
-4 2 4 885.51 45.2
3 -2 -4 211.68 14.5
3 -2 -4 250.57 18.6
3 -2 -4 200.68 19.8
3 -2 -4 216.28 18.6
-3 2 4 243.68 15.3
-3 2 4 236.48 15.1
-3 2 4 212.18 20.2
-3 2 4 225.08 13.2
2 -2 -4 1301.47 79.09
2 -2 -4 1492.25 79.49
2 -2 -4 1476.05 73.59
2 -2 -4 1427.06 76.39
2 -2 -4 1402.16 77.49
-2 2 4 1565.74 73.59
-2 2 4 1496.15 78.39
1 -2 -4 239.78 19.4
-1 2 4 292.87 16
-1 2 4 305.97 15.9
0 -2 -4 78.89 8.6
0 2 4 65.39 23.4
0 2 4 80.79 5.6
-1 -2 -4 3636.14 177.18
-1 -2 -4 3532.65 197.28
-1 -2 -4 3620.74 181.58
1 2 4 3424.76 221.18
1 2 4 3450.55 173.78
-2 -2 -4 251.77 30.2
2 2 4 299.47 17
2 2 4 279.07 16.4
2 2 4 277.27 44.5
-3 -2 -4 1335.47 89.49
-3 -2 -4 1278.67 69.69
3 2 4 1384.66 117.69
3 2 4 1311.77 69.19
3 2 4 1402.06 69.89
-4 -2 -4 653.23 38
-4 -2 -4 651.93 34.9
-4 -2 -4 657.23 36.5
-4 -2 -4 630.64 55.59
-4 -2 -4 641.74 36
4 2 4 617.24 75.89
4 2 4 651.53 36.4
4 2 4 631.64 33.2
4 2 4 627.74 37.6
4 2 4 624.74 36.3
4 2 4 641.44 36.8
-5 -2 -4 322.87 21.5
-5 -2 -4 319.27 21.6
-5 -2 -4 325.97 23.5
-5 -2 -4 319.27 23.4
5 2 4 317.47 23
5 2 4 289.87 27.7
5 2 4 300.87 22.5
5 2 4 301.27 18.5
5 2 4 331.37 23.2
-6 -2 -4 623.54 39.7
-6 -2 -4 663.43 40.2
-6 -2 -4 631.24 38.1
6 2 4 634.84 40.9
6 2 4 634.44 38.8
6 2 4 648.24 39.6
6 2 4 639.14 42.9
-7 -2 -4 590.64 36.1
-7 -2 -4 629.74 36.6
-7 -2 -4 639.24 38.8
7 2 4 590.64 39.5
7 2 4 577.14 35.4
-8 -2 -4 23.5 5.7
-8 -2 -4 17.7 4.4
8 2 4 19.1 7.5
5 -3 -4 462.95 29.2
-5 3 4 433.36 22.4
-5 3 4 402.76 26.9
4 -3 -4 189.18 16.1
4 -3 -4 184.68 12.8
4 -3 -4 149.39 14
4 -3 -4 169.48 19.4
-4 3 4 170.08 12.6
-4 3 4 168.78 16.1
-4 3 4 181.18 11
-4 3 4 173.98 12.9
3 -3 -4 1236.58 64.99
3 -3 -4 1142.29 70.19
3 -3 -4 1192.88 65.79
3 -3 -4 1156.58 66.59
3 -3 -4 1228.58 62.39
-3 3 4 1258.07 62.49
-3 3 4 1162.48 66.89
-3 3 4 1275.77 62.69
2 -3 -4 515.75 32
2 -3 -4 505.45 28.6
2 -3 -4 493.75 32.5
2 -3 -4 495.65 34.6
-2 3 4 536.05 28.1
-2 3 4 502.05 33
-2 3 4 564.44 28.1
1 -3 -4 12 4.2
1 -3 -4 2.2 2.9
-1 3 4 0.5 1.3
0 -3 -4 1591.24 82.09
0 3 4 1668.93 76.39
0 3 4 1382.96 115.59
-1 -3 -4 1255.77 66.79
-1 -3 -4 1280.57 90.49
1 3 4 1226.98 62.69
1 3 4 1320.37 108.29
-2 -3 -4 432.26 45
2 3 4 501.05 63.09
2 3 4 518.35 26.6
-3 -3 -4 780.92 63.89
3 3 4 803.32 42.9
3 3 4 765.12 42.4
3 3 4 845.42 88.29
-4 -3 -4 695.83 38.1
-4 -3 -4 692.63 37.5
-4 -3 -4 671.03 39.8
-4 -3 -4 669.63 40.7
-4 -3 -4 690.13 40.9
-4 -3 -4 799.42 44.9
4 3 4 667.23 36.2
4 3 4 715.43 39.5
4 3 4 711.93 84.69
4 3 4 694.23 39.3
4 3 4 743.63 42.1
-5 -3 -4 65.99 9.7
-5 -3 -4 85.79 8.6
-5 -3 -4 70.39 7.2
-5 -3 -4 70.79 10.9
-5 -3 -4 79.99 9.8
5 3 4 90.19 8.5
5 3 4 66.49 9.6
5 3 4 104.39 16.7
5 3 4 82.99 12.3
5 3 4 101.19 11.6
5 3 4 95.89 11.7
-6 -3 -4 1295.37 65.59
-6 -3 -4 1198.78 67.09
-6 -3 -4 1169.78 67.69
-6 -3 -4 1096.29 65.69
6 3 4 1214.48 66.49
6 3 4 1183.18 64.69
6 3 4 1295.57 71.49
-7 -3 -4 8.2 6.7
-7 -3 -4 9.3 4.5
-7 -3 -4 4.9 4.4
7 3 4 -8.9 9.3
7 3 4 9.8 5.4
-8 -3 -4 33.8 5.6
-8 -3 -4 29.3 6.2
8 3 4 36.5 8.2
4 -4 -4 1596.94 85.99
4 -4 -4 1682.93 83.89
4 -4 -4 1695.23 90.39
-4 4 4 1596.44 87.49
-4 4 4 1704.83 84.39
-4 4 4 1714.03 82.59
3 -4 -4 42.1 5.6
3 -4 -4 25.1 7.7
3 -4 -4 26.1 8.8
-3 4 4 35.9 5.4
-3 4 4 31.9 4.8
2 -4 -4 185.58 18.2
2 -4 -4 178.48 14.4
2 -4 -4 201.68 13.3
2 -4 -4 170.78 15.7
-2 4 4 169.58 16.3
-2 4 4 189.38 11.8
1 -4 -4 360.36 27.4
1 -4 -4 346.87 20.4
1 -4 -4 325.07 23.8
-1 4 4 355.66 24.1
-1 4 4 370.36 18.7
0 -4 -4 1098.69 61.39
0 -4 -4 1086.39 62.09
0 -4 -4 1194.78 58.19
0 4 4 1136.39 62.49
-1 -4 -4 397.76 46.1
1 4 4 361.76 53.39
-2 -4 -4 843.52 74.39
2 4 4 994.3 49
2 4 4 1047 101.59
-3 -4 -4 599.04 59.39
-3 -4 -4 629.44 37.3
-3 -4 -4 670.23 38.6
-3 -4 -4 581.44 40
-3 -4 -4 686.53 35.9
-3 -4 -4 658.13 39
3 4 4 736.53 36.4
3 4 4 656.73 35.7
3 4 4 768.82 88.69
-4 -4 -4 43.4 7.6
-4 -4 -4 43.2 6.6
-4 -4 -4 42.6 7.7
-4 -4 -4 30.1 4.5
-4 -4 -4 36.1 4.9
-4 -4 -4 48.8 9.9
4 4 4 45.4 7
4 4 4 18.7 9
4 4 4 43.6 6.4
4 4 4 23.5 6.2
-5 -4 -4 2509.35 129.69
-5 -4 -4 2532.25 134.19
-5 -4 -4 2688.73 134.59
-5 -4 -4 2607.74 130.69
-5 -4 -4 2582.94 135.29
5 4 4 2565.64 131.49
5 4 4 2581.64 131.89
5 4 4 2620.74 132.19
5 4 4 2642.64 128.59
5 4 4 2466.65 133.89
5 4 4 2709.13 136.79
-6 -4 -4 3.5 4.4
-6 -4 -4 -2.3 3.9
-6 -4 -4 -0.7 8.2
-6 -4 -4 0.5 2.9
6 4 4 -0.4 3.3
6 4 4 12.8 11.6
6 4 4 7 6.6
-7 -4 -4 377.06 26.3
-7 -4 -4 356.36 24.5
-7 -4 -4 396.56 24.3
7 4 4 389.56 28.6
7 4 4 388.06 25.3
-8 -4 -4 38.3 6.6
8 4 4 22.5 5.2
8 4 4 28 8.5
4 -5 -4 19.5 3.9
4 -5 -4 21.5 4.7
-4 5 4 28.5 2.8
3 -5 -4 63.49 6.3
3 -5 -4 49.1 7.6
-3 5 4 62.59 6.6
2 -5 -4 32.9 5.2
2 -5 -4 26.5 7.6
-2 5 4 36 4.6
1 -5 -4 1485.65 79.09
1 -5 -4 1536.45 77.19
0 -5 -4 65.49 6.6
0 -5 -4 77.29 10.4
-1 -5 -4 460.35 27.4
-1 -5 -4 449.95 28.7
-2 -5 -4 375.06 25.5
-2 -5 -4 373.66 23.9
-2 -5 -4 375.16 25.3
2 5 4 439.66 65.49
-3 -5 -4 188.18 14.9
-3 -5 -4 212.48 13.5
-3 -5 -4 189.38 16.1
-3 -5 -4 194.68 17.3
-3 -5 -4 172.88 16.2
3 5 4 204.68 13
3 5 4 242.08 49.99
-4 -5 -4 1716.83 86.59
-4 -5 -4 1715.53 90.69
-4 -5 -4 1633.34 88.09
-4 -5 -4 1692.13 90.69
-4 -5 -4 1662.03 90.69
4 5 4 1659.43 86.99
4 5 4 1793.32 86.99
-5 -5 -4 151.98 13.4
-5 -5 -4 179.68 18.6
-5 -5 -4 172.38 16.8
-5 -5 -4 169.28 15.9
5 5 4 162.98 11.6
5 5 4 162.48 19.3
5 5 4 174.28 13.4
5 5 4 157.98 15.7
5 5 4 159.18 14.2
5 5 4 194.18 15.2
-6 -5 -4 111.59 12.8
-6 -5 -4 134.49 19.4
-6 -5 -4 118.59 12.7
-6 -5 -4 102.39 9.8
6 5 4 131.19 10.3
6 5 4 114.89 14.2
6 5 4 111.79 13
-7 -5 -4 33.9 7.1
-7 -5 -4 12.2 4.3
-7 -5 -4 15.3 4.5
7 5 4 15.8 8.5
7 5 4 15.5 5.5
-8 -5 -4 377.06 23.4
8 5 4 381.36 22.8
3 -6 -4 4.6 3.6
3 -6 -4 2.6 3.3
2 -6 -4 570.04 31.3
2 -6 -4 594.34 34.2
1 -6 -4 32.1 5
1 -6 -4 28.3 7
0 -6 -4 204.98 15.7
0 -6 -4 186.38 12.8
-1 -6 -4 580.94 35.5
-1 -6 -4 574.74 34
-2 -6 -4 461.15 29.8
-2 -6 -4 483.85 29.2
-3 -6 -4 1661.53 89.79
-3 -6 -4 1689.53 88.29
-3 -6 -4 1624.34 90.59
3 6 4 1754.42 85.09
-4 -6 -4 712.03 41.2
-4 -6 -4 657.63 43.3
-4 -6 -4 706.43 43
-4 -6 -4 705.93 43.3
4 6 4 742.03 38.9
4 6 4 749.92 39.5
-5 -6 -4 201.08 17.4
-5 -6 -4 178.08 19.1
-5 -6 -4 191.38 16.2
-5 -6 -4 187.28 14.5
5 6 4 180.08 13.2
5 6 4 202.38 15.1
5 6 4 185.18 11.8
-6 -6 -4 54.99 15
-6 -6 -4 40.1 8.9
-6 -6 -4 42.7 7.8
6 6 4 50.59 5.9
6 6 4 41.6 7.1
6 6 4 49.99 7.2
-7 -6 -4 453.15 27.2
7 6 4 456.85 29.1
7 6 4 357.86 21.4
7 6 4 393.96 24.7
1 -7 -4 327.67 20.3
1 -7 -4 330.47 18.5
0 -7 -4 283.07 18.7
-1 -7 -4 87.09 9.9
-2 -7 -4 646.14 36.5
-2 -7 -4 617.64 35.8
-3 -7 -4 700.73 37.9
-3 -7 -4 657.03 38.6
3 7 4 593.44 33.8
-4 -7 -4 164.58 19.3
-4 -7 -4 147.29 12.7
4 7 4 137.99 10.2
4 7 4 137.39 11
-5 -7 -4 98.69 9.8
-5 -7 -4 96.49 11.7
-5 -7 -4 99.69 16.2
5 7 4 94.79 8
5 7 4 93.99 8.6
-6 -7 -4 366.36 25.3
-6 -7 -4 401.06 23.5
-6 -7 -4 353.86 24.1
6 7 4 362.46 19.7
6 7 4 321.17 20.9
-1 -8 -4 21.1 3.9
-2 -8 -4 888.11 45.8
-2 -8 -4 820.52 45.7
-3 -8 -4 3.1 5.5
-4 -8 -4 69.29 8.6
-5 -8 -4 208.28 14.5
5 8 4 200.48 11.5
-4 -4 5 6.8 4.2
3 4 -5 271.07 17.5
-3 -4 5 293.17 18.7
-3 -4 5 319.87 18.5
2 4 -5 460.05 27
2 4 -5 473.35 28
-2 -4 5 534.15 28.7
-2 -4 5 491.45 28.8
1 4 -5 444.46 26.2
1 4 -5 429.66 25
-1 -4 5 449.46 26.2
-1 -4 5 435.56 26.7
0 4 -5 642.14 35.4
0 4 -5 635.24 34.1
0 -4 5 637.14 35.2
0 -4 5 577.04 34.6
-1 4 -5 804.62 44.1
-1 4 -5 844.82 43.4
-1 4 -5 765.82 45.2
1 -4 5 839.22 43.9
-2 4 -5 30.5 3.9
-2 4 -5 36 5.7
-2 4 -5 31.3 5.6
2 -4 5 26.1 3.6
2 -4 5 18.1 4
4 3 -5 147.29 12.2
4 3 -5 147.39 12
-4 -3 5 150.08 11.7
-4 -3 5 130.19 11
3 3 -5 284.17 19.4
3 3 -5 310.57 21
3 3 -5 293.07 19.9
-3 -3 5 323.37 20.3
-3 -3 5 286.77 18.8
-3 -3 5 299.27 18.6
-3 -3 5 324.97 21.2
2 3 -5 749.82 44.1
2 3 -5 773.42 43.2
2 3 -5 711.93 40.9
-2 -3 5 812.42 43.5
-2 -3 5 811.62 44.2
-2 -3 5 746.53 41.2
1 3 -5 343.67 21.3
1 3 -5 329.87 22.8
1 3 -5 354.76 24.1
-1 -3 5 339.67 21.3
-1 -3 5 323.87 22.7
-1 -3 5 360.76 22.6
0 3 -5 1319.57 65.29
0 3 -5 1179.68 65.49
0 -3 5 1158.58 65.59
0 -3 5 1274.67 64.59
0 -3 5 1240.08 65.99
-1 3 -5 13.3 6.4
-1 3 -5 14.6 5.6
-1 3 -5 11.9 3.8
1 -3 5 6.5 4.9
1 -3 5 4 4.8
-2 3 -5 4.9 5.9
-2 3 -5 1.5 5.6
-2 3 -5 2.9 3.4
2 -3 5 4.8 4.8
2 -3 5 4.3 3.4
-3 3 -5 800.72 44.7
-3 3 -5 740.43 42.8
-3 3 -5 734.43 41.1
3 -3 5 833.02 43.4
3 -3 5 775.82 43.7
3 -3 5 827.92 41.1
-4 3 -5 167.08 11.6
-4 3 -5 150.08 10.6
-4 3 -5 117.79 10
4 -3 5 143.69 8.7
4 -3 5 133.39 10
4 -3 5 103.39 10.2
5 2 -5 96.39 9.8
5 2 -5 94.69 9.1
5 2 -5 95.19 8.9
-5 -2 5 117.49 8.7
-5 -2 5 113.49 9.4
4 2 -5 479.85 28.9
4 2 -5 410.36 27.1
4 2 -5 470.85 28.7
-4 -2 5 458.05 28.2
-4 -2 5 443.46 25.3
-4 -2 5 453.85 26.7
3 2 -5 243.18 18.9
3 2 -5 252.77 19.6
-3 -2 5 242.58 18.4
-3 -2 5 245.68 18.4
-3 -2 5 260.77 17.1
-3 -2 5 253.37 17.6
2 2 -5 270.67 20.3
2 2 -5 285.07 21
2 2 -5 277.07 31.6
2 2 -5 297.27 20.3
-2 -2 5 291.87 20.5
-2 -2 5 291.77 20.6
-2 -2 5 295.57 19.3
-2 -2 5 307.67 20.6
1 2 -5 750.82 43.4
1 2 -5 724.93 41.8
1 2 -5 752.22 40.7
1 2 -5 717.73 42
1 2 -5 753.62 56.79
-1 -2 5 729.53 41.7
-1 -2 5 753.32 40.8
-1 -2 5 738.33 42.2
-1 -2 5 728.13 42.2
0 2 -5 5 7
0 2 -5 5.3 4.3
0 2 -5 3.4 3.8
0 2 -5 1.6 3.5
0 -2 5 0.7 3.6
0 -2 5 -0.5 2.7
0 -2 5 2.6 3.5
0 -2 5 2.9 5.1
-1 2 -5 15.4 5.3
-1 2 -5 10 6
-1 2 -5 15 11.3
-1 2 -5 15.2 5
-1 2 -5 21.7 6.2
1 -2 5 14 4.9
1 -2 5 14.1 3.6
1 -2 5 18.2 6.2
1 -2 5 18.6 6.3
-2 2 -5 598.94 36.5
-2 2 -5 528.65 47.5
-2 2 -5 620.14 38.1
-2 2 -5 620.14 37.3
-2 2 -5 641.34 35.2
2 -2 5 672.83 37.4
2 -2 5 652.53 37.8
-3 2 -5 598.94 34.1
-3 2 -5 515.25 30.5
-3 2 -5 522.95 34.1
3 -2 5 548.35 34
3 -2 5 544.15 33.2
-4 2 -5 484.65 31
-4 2 -5 504.05 30.5
-4 2 -5 460.25 30
4 -2 5 540.95 31.1
4 -2 5 502.85 27.3
4 -2 5 488.95 30.6
-5 2 -5 164.88 12.6
-5 2 -5 179.18 14
5 -2 5 182.88 12.9
5 -2 5 168.58 13.3
5 1 -5 87.69 9.5
5 1 -5 95.49 10.7
5 1 -5 104.69 9.9
-5 -1 5 95.69 9.4
-5 -1 5 79.59 7
-5 -1 5 100.19 8.7
4 1 -5 330.87 23.8
4 1 -5 354.26 23.5
4 1 -5 370.36 23.9
-4 -1 5 344.27 21
-4 -1 5 364.96 23.9
-4 -1 5 362.46 22.6
3 1 -5 377.66 25.9
3 1 -5 379.06 25.7
3 1 -5 372.96 25.7
-3 -1 5 368.66 24.5
-3 -1 5 377.26 22.8
-3 -1 5 356.36 24.8
2 1 -5 1184.18 63.09
2 1 -5 1115.59 62.49
2 1 -5 1175.88 77.39
-2 -1 5 1148.29 61.09
-2 -1 5 1162.08 59.89
-2 -1 5 1057.39 61.89
1 1 -5 1409.46 86.99
1 1 -5 1363.16 72.69
1 1 -5 1327.07 72.19
1 1 -5 1333.77 69.59
-1 -1 5 1243.78 71.29
-1 -1 5 1461.75 70.39
-1 -1 5 1310.27 71.99
-1 -1 5 1366.96 131.49
-1 -1 5 1358.96 71.19
0 1 -5 32.8 5.6
0 1 -5 32.1 12.3
0 1 -5 37.2 7
0 1 -5 18.9 5.3
0 -1 5 38.8 6.5
0 -1 5 31.2 22
0 -1 5 27.8 4.6
0 -1 5 36.6 7.2
-1 1 -5 1492.35 80.79
-1 1 -5 1544.55 92.99
-1 1 -5 1627.04 78.89
-1 1 -5 1457.05 80.59
-1 1 -5 1450.65 78.89
1 -1 5 1549.05 80.79
1 -1 5 1515.15 141.09
1 -1 5 1506.95 79.89
1 -1 5 1518.95 77.99
1 -1 5 1556.04 79.69
-2 1 -5 2024.3 107.09
-2 1 -5 2052.29 108.99
-2 1 -5 2138.39 109.29
-2 1 -5 2028.4 120.59
-2 1 -5 2121.79 106.09
2 -1 5 2154.98 108.79
2 -1 5 2153.38 108.49
2 -1 5 2148.49 107.69
2 -1 5 1940.01 104.99
-3 1 -5 615.04 33.9
-3 1 -5 588.34 35.5
-3 1 -5 612.14 37.8
-3 1 -5 600.94 37.1
3 -1 5 569.04 35.7
3 -1 5 611.04 36.6
3 -1 5 557.64 34.3
3 -1 5 613.34 36.6
-4 1 -5 961.1 54.19
-4 1 -5 955.9 52.59
-4 1 -5 852.91 52.19
-4 1 -5 998.5 54.69
-4 1 -5 951.2 50.39
4 -1 5 902.71 51.79
4 -1 5 967.5 53.79
4 -1 5 826.82 52.69
4 -1 5 1027.3 54.19
-5 1 -5 46.1 7.8
-5 1 -5 33.9 7.9
-5 1 -5 29.4 8.2
-5 1 -5 33.8 7.5
5 -1 5 34.6 6.3
5 -1 5 32.9 6.8
5 -1 5 43.3 7.6
-6 1 -5 3.9 3.7
-6 1 -5 5.5 3.2
-6 1 -5 -0.5 2.6
6 -1 5 0.5 2.9
6 -1 5 -1.6 3.3
6 -1 5 0.1 2.7
5 0 -5 170.78 13.3
5 0 -5 202.28 13.6
5 0 -5 187.08 15.4
5 0 -5 208.38 15.2
-5 0 5 200.68 13.7
-5 0 5 184.58 13.1
-5 0 5 176.78 15.2
4 0 -5 239.38 18
4 0 -5 241.38 18.5
4 0 -5 213.28 16.5
4 0 -5 237.88 20.1
-4 0 5 221.58 16.9
-4 0 5 220.88 17.9
-4 0 5 213.98 17.1
-4 0 5 227.08 12.8
3 0 -5 1398.26 79.39
3 0 -5 1557.54 83.79
3 0 -5 1583.04 76.89
3 0 -5 1460.55 80.99
3 0 -5 1605.94 81.19
-3 0 5 1437.66 80.49
-3 0 5 1480.65 74.69
-3 0 5 1505.55 79.09
-3 0 5 1503.25 77.99
2 0 -5 552.64 30.1
2 0 -5 514.45 31.9
2 0 -5 529.65 32.2
2 0 -5 554.54 45.2
2 0 -5 499.85 32.3
-2 0 5 483.35 32.2
-2 0 5 535.25 31.2
-2 0 5 525.25 27.2
-2 0 5 487.95 30.5
-2 0 5 517.05 30.1
1 0 -5 160.08 13.8
1 0 -5 176.18 13.2
1 0 -5 172.68 21.5
1 0 -5 152.08 13.4
1 0 -5 145.39 12.7
-1 0 5 140.79 40.1
-1 0 5 172.08 12.4
-1 0 5 147.49 9.6
-1 0 5 141.09 12.8
-1 0 5 151.18 12.3
0 0 -5 218.08 16.6
0 0 -5 241.88 16.2
0 0 -5 242.48 25.8
0 0 -5 228.08 17
0 0 -5 224.08 14.8
0 0 5 231.08 15.4
0 0 5 230.28 15.6
0 0 5 226.68 16.3
0 0 5 237.18 13.1
0 0 5 242.78 51.39
-1 0 -5 2190.88 108.99
-1 0 -5 2176.78 122.19
-1 0 -5 1945.01 113.19
-1 0 -5 2220.38 111.39
1 0 5 2149.08 110.09
1 0 5 2186.78 111.09
1 0 5 2268.97 109.19
1 0 5 2167.58 172.18
1 0 5 2129.09 106.29
-2 0 -5 142.39 12.9
-2 0 -5 141.19 11.4
-2 0 -5 156.28 19.7
-2 0 -5 157.58 14.8
2 0 5 151.38 13.6
2 0 5 147.49 9.2
2 0 5 151.18 14.5
2 0 5 147.39 44.1
-3 0 -5 1683.03 88.59
-3 0 -5 1582.14 86.39
-3 0 -5 1758.72 85.59
-3 0 -5 1681.73 88.89
3 0 5 1666.23 87.49
3 0 5 1666.73 87.79
3 0 5 1690.23 86.79
3 0 5 1571.54 143.89
3 0 5 1603.24 90.39
-4 0 -5 41.8 10
-4 0 -5 54.89 9.2
-4 0 -5 41 6.5
-4 0 -5 57.69 9.6
-4 0 -5 39.3 8.8
4 0 5 31.3 8.6
4 0 5 36.6 8.9
4 0 5 46.5 9.2
4 0 5 38.6 9
-5 0 -5 -1.1 5.8
-5 0 -5 -2.3 5.1
-5 0 -5 6.8 6.5
-5 0 -5 2 5.2
5 0 5 -0.3 6.5
5 0 5 3.3 6.3
5 0 5 0.5 4.3
5 0 5 0.5 7.2
-6 0 -5 568.24 34
-6 0 -5 468.95 30.7
-6 0 -5 541.05 32.6
-6 0 -5 523.25 32.4
6 0 5 551.84 33.2
6 0 5 556.54 31.9
5 -1 -5 340.77 21.4
5 -1 -5 367.46 23.6
-5 1 5 319.97 21.1
-5 1 5 315.37 19.6
-5 1 5 278.47 17.3
-5 1 5 317.47 19.4
4 -1 -5 882.61 46.8
4 -1 -5 793.32 45
4 -1 -5 916.21 49.1
4 -1 -5 856.41 50.69
-4 1 5 839.82 42.5
-4 1 5 766.32 44.7
-4 1 5 793.72 47.5
-4 1 5 834.72 45.8
3 -1 -5 685.83 37.8
3 -1 -5 664.83 34.6
3 -1 -5 623.04 38.9
3 -1 -5 587.34 35.8
3 -1 -5 649.14 40.9
-3 1 5 603.74 35.3
-3 1 5 687.73 38.9
-3 1 5 638.84 35.4
-3 1 5 608.84 36.2
-3 1 5 550.14 38.2
-3 1 5 579.54 32.3
2 -1 -5 24.8 6.3
2 -1 -5 13.7 4.3
2 -1 -5 16.8 6.1
2 -1 -5 24.7 7.9
2 -1 -5 15.5 5
-2 1 5 24.4 3.9
-2 1 5 14.4 4.7
-2 1 5 19.3 8.4
-2 1 5 24.7 5.7
-2 1 5 31 7.5
-2 1 5 13.8 5.6
1 -1 -5 69.29 9.6
1 -1 -5 107.99 12.9
1 -1 -5 80.49 8.9
1 -1 -5 81.49 9.1
1 -1 -5 89.39 8.5
1 -1 -5 110.39 18.1
-1 1 5 73.89 8.1
-1 1 5 85.09 7.9
-1 1 5 89.49 9.2
-1 1 5 85.69 28.7
-1 1 5 84.19 6.8
0 -1 -5 2991.7 157.18
0 1 5 2916.21 143.19
0 1 5 2590.54 197.88
0 1 5 2966.3 143.39
-1 -1 -5 56.69 8.5
1 1 5 63.39 7.1
1 1 5 46.8 25
1 1 5 55.49 6.9
-2 -1 -5 2437.26 127.49
-2 -1 -5 2402.96 124.79
2 1 5 2644.84 122.79
2 1 5 2489.15 125.49
2 1 5 2504.65 127.89
2 1 5 2427.16 124.79
-3 -1 -5 6.5 5.4
-3 -1 -5 12.2 4.6
-3 -1 -5 4.9 4.5
-3 -1 -5 3.8 2.5
3 1 5 4.1 4.3
3 1 5 -0.6 5.1
3 1 5 0.5 5.7
3 1 5 2.4 7.7
3 1 5 5.2 3
3 1 5 0.7 11.8
-4 -1 -5 60.69 10
-4 -1 -5 34.2 7.5
-4 -1 -5 31.1 7.7
-4 -1 -5 48.4 6.6
4 1 5 46.1 8.9
4 1 5 52.79 8.8
4 1 5 27.3 10.8
4 1 5 42.4 9.6
-5 -1 -5 263.27 21.1
-5 -1 -5 257.57 21.1
-5 -1 -5 281.87 21
5 1 5 274.17 21.5
5 1 5 267.07 24.3
5 1 5 287.47 21.6
5 1 5 267.87 22.1
-6 -1 -5 474.15 30
-6 -1 -5 477.35 30.3
-6 -1 -5 484.05 31.1
6 1 5 439.46 31.4
6 1 5 433.66 30
6 1 5 421.46 29.7
6 1 5 457.95 29.2
-7 -1 -5 77.09 8.8
-7 -1 -5 70.89 8.5
-7 -1 -5 72.59 9.5
7 1 5 82.49 9.5
7 1 5 78.99 9
7 1 5 108.59 15.7
5 -2 -5 158.08 13.8
5 -2 -5 150.08 12.1
-5 2 5 128.19 10.5
4 -2 -5 344.97 20.4
4 -2 -5 389.86 25.1
4 -2 -5 333.67 25.6
-4 2 5 316.77 24.5
-4 2 5 307.07 20.9
-4 2 5 345.37 21.4
-4 2 5 354.76 18.8
3 -2 -5 4.8 4.9
3 -2 -5 4.8 4.8
3 -2 -5 1.1 4
3 -2 -5 6 6.2
-3 2 5 7.1 7.4
-3 2 5 3.7 3.2
-3 2 5 4.5 3.9
2 -2 -5 6.2 5.2
2 -2 -5 4 5.3
2 -2 -5 6.7 4.7
2 -2 -5 1.6 3.1
-2 2 5 1.4 3.2
-2 2 5 11.1 5.7
-2 2 5 4.3 2.9
1 -2 -5 1905.31 94.89
1 -2 -5 1836.02 97.59
1 -2 -5 1733.23 91.19
1 -2 -5 1685.63 94.59
-1 2 5 1887.91 91.79
0 -2 -5 368.36 25.6
0 -2 -5 358.66 23.7
0 2 5 365.56 20.9
0 2 5 358.16 20.9
-1 -2 -5 1662.63 104.49
-1 -2 -5 1440.16 80.29
-1 -2 -5 1554.64 86.99
1 2 5 1276.17 123.99
1 2 5 1602.84 76.59
1 2 5 1482.85 76.09
-2 -2 -5 533.65 51.69
2 2 5 520.35 73.69
2 2 5 644.64 32.9
2 2 5 673.03 33.7
-3 -2 -5 408.56 26.1
-3 -2 -5 384.06 22.9
-3 -2 -5 395.76 24.5
-3 -2 -5 386.66 24.6
3 2 5 403.36 26.5
3 2 5 385.46 24.1
3 2 5 389.76 25.7
3 2 5 327.27 60.39
3 2 5 409.26 24.2
3 2 5 386.56 20.9
-4 -2 -5 692.63 40.3
-4 -2 -5 725.53 38.6
-4 -2 -5 745.93 42.6
4 2 5 697.63 36.3
4 2 5 711.13 42.1
4 2 5 739.63 42
4 2 5 660.53 39.7
4 2 5 607.64 83.89
-5 -2 -5 1691.03 90.89
-5 -2 -5 1639.74 89.09
-5 -2 -5 1713.23 86.39
-5 -2 -5 1807.02 89.19
5 2 5 1715.73 90.19
5 2 5 1504.15 83.49
5 2 5 1705.63 89.59
5 2 5 1619.84 93.39
-6 -2 -5 90.69 11.6
-6 -2 -5 89.09 12.5
-6 -2 -5 101.09 12.2
6 2 5 71.19 12.5
6 2 5 103.69 17
6 2 5 101.39 12.5
-7 -2 -5 233.98 17.5
-7 -2 -5 233.38 17.9
-7 -2 -5 242.28 18.3
7 2 5 237.28 18.2
7 2 5 201.78 17.1
7 2 5 220.98 20.7
4 -3 -5 10.4 5.8
4 -3 -5 2.5 3.2
4 -3 -5 8.6 4.4
-4 3 5 5.4 3
3 -3 -5 6.4 6.2
3 -3 -5 10.7 4.9
3 -3 -5 7.4 6
-3 3 5 12.5 4.8
-3 3 5 4.9 3.2
-3 3 5 7 2.9
2 -3 -5 254.47 20.5
2 -3 -5 311.47 25.5
2 -3 -5 263.97 17.4
-2 3 5 290.07 22.7
-2 3 5 274.67 17.1
-2 3 5 265.07 16.9
1 -3 -5 719.23 40.9
1 -3 -5 790.92 44.1
1 -3 -5 803.92 48.4
1 -3 -5 739.73 44.8
-1 3 5 751.42 40.3
-1 3 5 825.82 40.8
0 -3 -5 557.84 34.5
0 -3 -5 559.34 33.6
0 -3 -5 595.64 30.8
0 -3 -5 585.44 32.9
0 3 5 611.44 30.2
0 3 5 462.35 64.99
-1 -3 -5 935.61 51.29
-1 -3 -5 935.21 74.39
-1 -3 -5 858.41 47.2
-1 -3 -5 770.52 47.5
1 3 5 834.92 43.6
1 3 5 741.73 86.59
-2 -3 -5 163.08 12.8
-2 -3 -5 160.38 13.9
-2 -3 -5 124.59 25.4
-2 -3 -5 168.78 12.1
2 3 5 162.18 11.4
2 3 5 135.39 38.4
2 3 5 141.79 10.7
-3 -3 -5 257.47 17.9
-3 -3 -5 217.58 18.9
-3 -3 -5 253.07 16.1
-3 -3 -5 246.28 18.8
3 3 5 231.78 48.8
3 3 5 287.67 17.9
3 3 5 261.57 14.6
3 3 5 257.87 18
-4 -3 -5 1397.96 74.69
-4 -3 -5 1365.16 72.29
-4 -3 -5 1466.95 71.19
-4 -3 -5 1434.56 71.69
4 3 5 1233.18 72.69
4 3 5 1298.07 131.49
4 3 5 1357.86 68.99
4 3 5 1358.66 72.89
4 3 5 1405.56 73.19
4 3 5 1356.46 74.29
-5 -3 -5 15.5 6.7
-5 -3 -5 7.2 3.7
-5 -3 -5 21.2 6
-5 -3 -5 10.5 4.7
5 3 5 8.2 5.7
5 3 5 16.9 6.7
5 3 5 9.5 10.3
5 3 5 11.1 4.9
5 3 5 8.7 8.2
-6 -3 -5 282.27 19.6
-6 -3 -5 240.18 20.1
-6 -3 -5 239.18 20.4
6 3 5 259.37 20.6
6 3 5 254.07 27.7
6 3 5 253.77 19.6
-7 -3 -5 148.99 14
-7 -3 -5 155.28 14.1
-7 -3 -5 172.68 13.4
7 3 5 160.58 14.8
7 3 5 141.89 13.8
7 3 5 145.59 19.6
4 -4 -5 30.2 4.2
-4 4 5 30.2 3.5
3 -4 -5 296.57 20.2
3 -4 -5 299.97 17.1
-3 4 5 259.67 16.1
-3 4 5 305.57 17.3
-3 4 5 230.88 17.1
2 -4 -5 2712.23 132.99
2 -4 -5 2427.66 124.09
2 -4 -5 2433.36 128.59
-2 4 5 2418.26 123.49
-2 4 5 2423.86 123.69
1 -4 -5 816.72 47.5
1 -4 -5 847.42 43.4
-1 4 5 798.82 42
-1 4 5 773.42 47.2
0 -4 -5 2648.64 143.89
0 -4 -5 2663.33 142.19
0 -4 -5 2707.33 139.39
0 -4 -5 3057.89 141.99
0 4 5 2905.81 138.19
-1 -4 -5 12.5 4.3
-1 -4 -5 9.9 4.4
-1 -4 -5 14.1 6.3
-1 -4 -5 15.2 4.9
1 4 5 12.5 2.7
-2 -4 -5 276.77 21.8
-2 -4 -5 289.77 17.9
-2 -4 -5 288.97 20
2 4 5 302.57 54.49
2 4 5 320.27 18.3
-3 -4 -5 1801.52 96.49
-3 -4 -5 2097.09 95.79
-3 -4 -5 1782.12 98.09
-3 -4 -5 1792.42 93.19
3 4 5 1829.22 161.78
3 4 5 1785.32 93.59
3 4 5 1758.42 94.09
-4 -4 -5 33.5 8
-4 -4 -5 67.79 10.1
-4 -4 -5 59.49 6.9
-4 -4 -5 62.29 8.5
-4 -4 -5 64.79 12.7
4 4 5 44 7.8
4 4 5 47.3 11.9
4 4 5 53.99 6
4 4 5 55.79 9.1
-5 -4 -5 508.25 32.5
-5 -4 -5 483.45 28.5
-5 -4 -5 486.75 35.3
-5 -4 -5 494.55 32.2
-5 -4 -5 508.65 28.4
5 4 5 543.65 31.5
5 4 5 484.65 27.3
5 4 5 464.25 31.3
5 4 5 442.06 30.2
-6 -4 -5 341.67 20.9
-6 -4 -5 357.56 25.5
-6 -4 -5 355.16 21.8
-6 -4 -5 343.37 24.3
6 4 5 302.67 20
6 4 5 349.27 29.2
6 4 5 333.87 23.8
-7 -4 -5 253.57 19.5
-7 -4 -5 240.48 17
-7 -4 -5 249.38 18.8
7 4 5 254.67 24.5
7 4 5 244.48 18.6
3 -5 -5 470.95 25.9
-3 5 5 467.25 28.5
2 -5 -5 293.87 17.8
-2 5 5 297.17 17.1
-2 5 5 292.07 17.1
1 -5 -5 461.25 30.9
1 -5 -5 484.15 27.2
0 -5 -5 15.5 6.8
0 -5 -5 12.8 4.7
-1 -5 -5 81.69 12.2
-1 -5 -5 70.49 8.9
-2 -5 -5 1002.4 54.19
-2 -5 -5 1036.3 56.49
-2 -5 -5 1091.09 59.99
2 5 5 1026.4 53.39
-3 -5 -5 327.07 23.5
-3 -5 -5 330.07 20.3
-3 -5 -5 316.77 21.6
-3 -5 -5 339.27 24.7
3 5 5 305.47 20.1
3 5 5 351.86 20.8
-4 -5 -5 475.65 29.8
-4 -5 -5 504.55 28.2
-4 -5 -5 495.65 34.6
-4 -5 -5 447.46 31
-4 -5 -5 452.05 30.8
4 5 5 502.05 30.1
4 5 5 487.25 29
-5 -5 -5 178.68 13
-5 -5 -5 167.28 15.4
-5 -5 -5 160.88 22.2
-5 -5 -5 164.18 14.1
-5 -5 -5 169.28 15.5
5 5 5 167.68 14.8
5 5 5 166.28 19.7
5 5 5 168.38 12.1
5 5 5 158.88 13.9
-6 -5 -5 296.67 21.8
-6 -5 -5 305.97 22.5
-6 -5 -5 306.67 26
6 5 5 256.07 20.4
6 5 5 288.47 21.1
6 5 5 303.87 26.9
6 5 5 282.47 17.9
-7 -5 -5 221.18 17.2
-7 -5 -5 233.58 17.4
7 5 5 222.48 19.8
7 5 5 264.07 18.5
2 -6 -5 399.56 22.4
1 -6 -5 70.59 6.9
0 -6 -5 19 4.8
0 -6 -5 31.2 6.9
-1 -6 -5 735.83 44.2
-1 -6 -5 745.23 42
-2 -6 -5 377.26 26.6
-2 -6 -5 400.26 25.1
-3 -6 -5 156.58 13.7
-3 -6 -5 174.48 18.3
3 6 5 167.38 11.6
-4 -6 -5 101.39 11.4
-4 -6 -5 98.29 14.1
-4 -6 -5 97.59 13.2
-4 -6 -5 102.69 11.6
4 6 5 108.39 11.4
4 6 5 98.59 9.2
-5 -6 -5 764.52 43.3
-5 -6 -5 792.12 45.8
-5 -6 -5 758.52 45.6
-5 -6 -5 836.82 48.3
5 6 5 783.82 40.2
5 6 5 676.83 41.8
5 6 5 805.32 43.5
-6 -6 -5 32.2 6.7
-6 -6 -5 24.5 10.6
-6 -6 -5 24.1 6.4
6 6 5 12.8 5.6
6 6 5 24 5.2
-7 -6 -5 700.03 38.2
7 6 5 715.73 37.1
7 6 5 602.64 34
1 -7 -5 37.6 4.8
-2 -7 -5 39.9 7.4
-2 -7 -5 45.8 8.3
-3 -7 -5 457.05 28.6
-3 -7 -5 462.25 31.4
-4 -7 -5 623.84 36.8
-4 -7 -5 665.23 38.9
4 7 5 599.04 34.3
-5 -7 -5 35.7 7.6
-5 -7 -5 38.5 6.6
-5 -7 -5 39.3 11.3
5 7 5 28.9 4.4
5 7 5 29.5 5.1
-6 -7 -5 951.5 54.19
-6 -7 -5 976.7 55.19
-6 -7 -5 1061.19 57.49
6 7 5 1097.89 51.69
-2 -8 -5 186.78 12.9
-3 -8 -5 120.49 10.2
-4 -8 -5 48.3 8.7
-4 -8 -5 58.69 7.5
-5 -8 -5 361.56 21.4
5 8 5 332.77 18.2
3 3 -6 178.78 13.7
3 3 -6 197.28 14
-3 -3 6 205.78 12.3
-3 -3 6 212.08 13.2
-3 -3 6 217.08 13.5
2 3 -6 1368.36 66.19
-2 -3 6 1178.48 63.59
-2 -3 6 1136.79 64.59
-2 -3 6 1332.47 65.39
1 3 -6 16 5.5
1 3 -6 18.3 3.5
1 3 -6 16.5 4
-1 -3 6 27.1 5.2
-1 -3 6 29.1 5.3
-1 -3 6 21.4 3.7
0 3 -6 228.48 15.6
0 3 -6 237.88 15
0 3 -6 226.68 16.4
0 -3 6 250.97 16.2
-1 3 -6 535.55 30
-1 3 -6 545.85 29.7
1 -3 6 518.15 30.4
-2 3 -6 43.6 5.7
-2 3 -6 23.8 4.4
-2 3 -6 30.2 3.9
2 -3 6 25 4.3
2 -3 6 19.9 4
-3 3 -6 602.14 33.2
3 -3 6 595.84 32.4
3 -3 6 612.34 31.3
4 2 -6 10.7 3.4
4 2 -6 17.3 3.8
-4 -2 6 9.2 3.6
-4 -2 6 14.3 3.3
-4 -2 6 13.3 2.4
3 2 -6 1033.8 53.49
3 2 -6 1035 52.89
-3 -2 6 984.9 50.79
-3 -2 6 900.91 52.09
-3 -2 6 950.4 51.69
2 2 -6 81.49 9.6
2 2 -6 92.39 10.2
-2 -2 6 89.09 9
-2 -2 6 75.09 8.6
-2 -2 6 81.49 8.7
-2 -2 6 78.39 8.8
1 2 -6 330.07 21.2
1 2 -6 407.86 25.3
-1 -2 6 394.66 22.7
-1 -2 6 349.17 22.8
-1 -2 6 362.16 23.7
0 2 -6 1114.49 60.19
0 2 -6 1171.68 60.19
0 2 -6 1148.99 61.99
0 -2 6 1109.39 60.99
0 -2 6 1170.18 59.69
0 -2 6 1115.09 60.59
-1 2 -6 72.19 8.1
-1 2 -6 40.2 7.2
-1 2 -6 68.29 9.4
1 -2 6 56.69 7.6
1 -2 6 61.39 8.2
1 -2 6 62.69 8.7
-2 2 -6 1166.18 63.39
-2 2 -6 1146.69 64.69
-2 2 -6 1250.07 62.99
-2 2 -6 1211.08 65.69
2 -2 6 1227.78 64.49
2 -2 6 1234.48 64.79
-3 2 -6 121.39 11.4
-3 2 -6 122.69 12.1
-3 2 -6 133.59 11.6
-3 2 -6 130.29 9.5
3 -2 6 121.69 10.8
3 -2 6 144.09 12.7
-4 2 -6 4.4 3.7
-4 2 -6 6.9 3.2
4 -2 6 1.5 2.7
4 -2 6 5.5 3.1
4 -2 6 4.9 2.6
4 1 -6 683.03 37.5
4 1 -6 703.53 38
4 1 -6 639.94 37.4
-4 -1 6 709.73 37
-4 -1 6 657.63 37.4
-4 -1 6 689.73 36
3 1 -6 203.08 15.4
3 1 -6 249.38 19.4
3 1 -6 216.58 16.6
-3 -1 6 195.88 13.6
-3 -1 6 161.78 14.2
-3 -1 6 212.08 15
2 1 -6 271.07 19.2
2 1 -6 262.87 19.9
-2 -1 6 262.77 19
-2 -1 6 236.08 18.4
-2 -1 6 261.37 17.8
1 1 -6 161.98 13.7
1 1 -6 181.48 15.5
-1 -1 6 158.48 14.1
-1 -1 6 162.98 13.5
-1 -1 6 174.58 15.1
0 1 -6 388.26 25.1
0 1 -6 346.57 34.8
0 1 -6 355.86 22.2
0 -1 6 358.26 23.3
0 -1 6 361.36 24.9
0 -1 6 358.66 22.3
-1 1 -6 44.4 6.3
-1 1 -6 50.99 8.6
1 -1 6 41.9 7.2
1 -1 6 43.9 7.8
1 -1 6 45.9 8.7
1 -1 6 36.1 5.4
-2 1 -6 394.76 25.4
-2 1 -6 308.97 23.6
-2 1 -6 380.56 25.4
-2 1 -6 393.86 23.2
2 -1 6 405.86 26.4
2 -1 6 386.96 24.7
2 -1 6 388.56 25.1
-3 1 -6 304.17 20.7
-3 1 -6 294.77 22.1
-3 1 -6 330.07 22.7
-3 1 -6 307.57 19.6
3 -1 6 284.87 21.3
3 -1 6 328.77 22.9
3 -1 6 300.17 20.5
-4 1 -6 3.2 3
-4 1 -6 7.7 4.2
-4 1 -6 3 4.7
4 -1 6 4.5 4.9
4 -1 6 3.9 3.8
4 -1 6 0.7 4.8
-5 1 -6 887.21 48
-5 1 -6 901.81 47.7
5 -1 6 918.91 47.8
5 -1 6 934.11 48.1
5 -1 6 771.72 45.8
4 0 -6 323.47 21
4 0 -6 333.77 20.4
4 0 -6 330.47 19.4
-4 0 6 331.77 18.8
-4 0 6 299.37 19.8
-4 0 6 284.27 20.3
3 0 -6 218.48 16.8
3 0 -6 211.98 15.3
3 0 -6 194.98 15.9
-3 0 6 201.98 15.1
-3 0 6 213.08 16.1
-3 0 6 164.48 15.4
2 0 -6 326.97 21.9
2 0 -6 264.97 21.1
2 0 -6 320.87 21.6
-2 0 6 293.27 16.5
-2 0 6 312.17 21.2
-2 0 6 323.87 19.7
-2 0 6 284.67 20.9
1 0 -6 1323.67 71.29
1 0 -6 1378.46 71.29
1 0 -6 1295.57 85.19
-1 0 6 1298.97 70.09
-1 0 6 1327.17 68.89
-1 0 6 1305.57 65.89
0 0 -6 214.38 16.1
0 0 -6 204.98 14.4
0 0 -6 209.48 16.3
0 0 -6 190.08 25.1
0 0 6 193.38 15.3
0 0 6 209.08 14.3
0 0 6 225.98 17.9
0 0 6 205.58 12.1
-1 0 -6 2586.44 125.29
-1 0 -6 2530.75 127.49
-1 0 -6 2395.96 139.59
1 0 6 2614.84 127.89
1 0 6 2499.05 126.39
1 0 6 2330.97 124.09
1 0 6 2401.76 121.89
-2 0 -6 31.5 5.7
-2 0 -6 38.8 7.8
-2 0 -6 36.1 7.8
2 0 6 24.2 7.3
2 0 6 42 9.2
2 0 6 30.5 8.2
-3 0 -6 151.68 12.1
-3 0 -6 132.29 12.7
-3 0 -6 143.89 15.2
-3 0 -6 151.48 14.8
3 0 6 144.59 15.1
3 0 6 144.29 14.9
3 0 6 145.69 13.9
-4 0 -6 1111.29 58.89
-4 0 -6 1010.4 58.39
-4 0 -6 1038 55.19
4 0 6 1057.69 57.89
4 0 6 1026.4 57.99
4 0 6 1027.5 56.29
4 0 6 988 57.09
-5 0 -6 128.59 12.5
-5 0 -6 153.08 13.3
5 0 6 137.29 12.2
5 0 6 134.79 13.5
5 0 6 144.09 13.6
5 0 6 135.09 11.9
-6 0 -6 442.16 25.8
-6 0 -6 468.65 26.6
-6 0 -6 507.55 26.9
6 0 6 385.66 25.5
6 0 6 384.96 24.8
4 -1 -6 4.6 3.6
4 -1 -6 -0.9 3.3
-4 1 6 5.7 5.4
-4 1 6 5.5 4.6
-4 1 6 4.8 3.5
-4 1 6 7.8 2.4
3 -1 -6 65.49 7.7
3 -1 -6 77.39 7.8
3 -1 -6 66.19 9.9
3 -1 -6 59.59 8.5
-3 1 6 63.09 8.1
-3 1 6 67.29 6.2
-3 1 6 51.29 7.9
-3 1 6 64.59 7.8
-3 1 6 59.79 8.5
2 -1 -6 1371.06 71.69
2 -1 -6 1351.66 70.19
2 -1 -6 1465.05 74.29
2 -1 -6 1382.16 74.29
-2 1 6 1313.57 70.59
-2 1 6 1388.26 71.19
-2 1 6 1282.27 71.19
-2 1 6 1373.86 71.89
-2 1 6 1325.17 67.99
1 -1 -6 16.5 7.4
1 -1 -6 12.6 4.7
1 -1 -6 8.7 4.6
1 -1 -6 7.3 4.7
-1 1 6 9.7 6.3
-1 1 6 8.8 4.1
-1 1 6 10 5.3
-1 1 6 4.4 4.3
-1 1 6 10.2 4.5
-1 1 6 11.3 3.6
0 -1 -6 1983.4 107.69
0 -1 -6 2169.28 105.59
0 -1 -6 2105.59 107.09
0 -1 -6 2062.09 121.29
0 1 6 2203.38 106.19
0 1 6 2009.8 105.19
0 1 6 1958.2 106.29
0 1 6 2189.18 103.19
0 1 6 2078.39 106.39
-1 -1 -6 46.1 6.1
-1 -1 -6 38 7
-1 -1 -6 51.49 7.6
-1 -1 -6 36.5 11.7
1 1 6 49 7.4
1 1 6 59.09 7.8
1 1 6 42.2 4.7
1 1 6 46.4 7.1
-2 -1 -6 7 6.3
-2 -1 -6 12.4 4.8
-2 -1 -6 11.5 3.9
2 1 6 27.3 7.2
2 1 6 13.7 3.4
2 1 6 15.1 6.1
2 1 6 30.9 6.2
-3 -1 -6 1071.09 58.19
-3 -1 -6 1030.3 54.89
-3 -1 -6 1010.7 57.69
-3 -1 -6 1013.4 56.59
3 1 6 1080.09 57.69
3 1 6 1013.4 51.89
3 1 6 1006.2 56.89
3 1 6 1014 57.69
-4 -1 -6 940.81 52.09
-4 -1 -6 1055.79 56.29
-4 -1 -6 934.51 54.89
4 1 6 954.9 54.89
4 1 6 930.21 53.99
4 1 6 973.6 54.99
-5 -1 -6 949.21 52.79
-5 -1 -6 897.31 52.89
-5 -1 -6 924.31 49.99
5 1 6 884.11 52.39
5 1 6 971.2 51.99
5 1 6 943.11 52.79
-6 -1 -6 198.58 15.5
-6 -1 -6 169.98 14
-6 -1 -6 203.58 15.6
6 1 6 226.08 16.3
4 -2 -6 213.58 15.2
-4 2 6 189.38 13.4
-4 2 6 206.18 13.5
-4 2 6 177.98 14.9
-4 2 6 217.48 11.5
3 -2 -6 734.83 40.3
3 -2 -6 696.73 36.4
3 -2 -6 696.23 38.5
-3 2 6 636.24 36.7
-3 2 6 651.43 34.3
-3 2 6 668.63 37
-3 2 6 588.04 38.5
2 -2 -6 4.5 3.6
2 -2 -6 4.2 5.7
2 -2 -6 -1.5 6.1
-2 2 6 6.5 5.1
-2 2 6 2.3 3.6
-2 2 6 -0.1 3.8
-2 2 6 5 3.9
1 -2 -6 1476.15 77.79
1 -2 -6 1508.25 75.79
1 -2 -6 1469.15 79.29
1 -2 -6 1529.85 78.99
-1 2 6 1459.65 76.49
-1 2 6 1507.55 78.69
-1 2 6 1303.57 73.29
-1 2 6 1509.75 78.59
-1 2 6 1493.25 76.59
0 -2 -6 71.59 10.2
0 -2 -6 73.09 9.9
0 -2 -6 59.29 8.8
0 -2 -6 63.59 7.4
0 -2 -6 72.39 9
0 2 6 61.69 7.9
0 2 6 64.89 8.2
0 2 6 60.29 5.8
0 2 6 63.59 8.2
0 2 6 59.49 33.9
0 2 6 66.49 8.7
-1 -2 -6 19.1 6.4
-1 -2 -6 22.2 4.5
-1 -2 -6 25.5 6.7
-1 -2 -6 18 4.9
-1 -2 -6 17.9 5.5
-1 -2 -6 24.2 6.9
1 2 6 22 5.4
1 2 6 31.8 24
1 2 6 23.3 3.6
1 2 6 25.2 5.5
1 2 6 18 5.9
-2 -2 -6 482.95 28
-2 -2 -6 491.15 30.5
-2 -2 -6 478.05 28.9
-2 -2 -6 495.85 30.4
2 2 6 487.65 28.6
2 2 6 471.15 28.1
2 2 6 470.15 31.1
2 2 6 482.15 29.8
2 2 6 458.55 25.2
-3 -2 -6 1326.17 68.49
-3 -2 -6 1351.46 70.89
-3 -2 -6 1298.77 71.29
-3 -2 -6 1316.27 69.99
3 2 6 1244.98 69.39
3 2 6 1317.97 68.99
3 2 6 1305.27 65.59
3 2 6 1276.87 70.59
3 2 6 1325.17 71.19
-4 -2 -6 319.87 23.6
-4 -2 -6 333.37 21.6
4 2 6 361.46 24.3
4 2 6 335.47 25.5
4 2 6 332.17 19
4 2 6 336.97 24.8
-5 -2 -6 222.88 18
-5 -2 -6 224.38 18.2
-5 -2 -6 221.68 15.8
5 2 6 197.98 18.6
5 2 6 203.08 20.1
5 2 6 233.18 20.1
-6 -2 -6 90.09 9.7
-6 -2 -6 111.09 11.6
-6 -2 -6 112.29 11.2
6 2 6 108.09 13.5
6 2 6 115.39 12.1
6 2 6 95.39 12.2
-7 -2 -6 37.6 6.2
-7 -2 -6 55.39 6.4
7 2 6 51.39 7.5
7 2 6 47.7 7.1
7 2 6 37.4 5.9
4 -3 -6 153.18 11.1
4 -3 -6 136.79 9.2
-4 3 6 117.69 10.3
3 -3 -6 194.08 15.3
3 -3 -6 171.48 12.1
-3 3 6 156.78 13.8
-3 3 6 172.48 12.4
-3 3 6 176.88 10.8
2 -3 -6 780.22 44
2 -3 -6 750.22 40.8
2 -3 -6 788.22 45.2
-2 3 6 723.73 41.5
-2 3 6 801.22 41.8
-2 3 6 732.23 38.9
1 -3 -6 409.06 28.7
1 -3 -6 413.66 27.7
1 -3 -6 433.26 24.8
-1 3 6 435.66 28.8
-1 3 6 429.26 25.2
-1 3 6 421.76 25.2
0 -3 -6 18.1 5.6
0 -3 -6 11.9 6.3
0 -3 -6 3.5 3.4
0 -3 -6 6.8 5.6
0 3 6 4.8 4.1
0 3 6 5.3 3.5
-1 -3 -6 270.67 19.1
-1 -3 -6 256.87 20.7
-1 -3 -6 267.27 17.8
-1 -3 -6 264.97 19.8
1 3 6 267.47 17
1 3 6 224.68 62.79
1 3 6 266.97 17
-2 -3 -6 1449.55 75.59
-2 -3 -6 1368.46 76.59
-2 -3 -6 1490.75 73.09
-2 -3 -6 1479.15 76.79
-2 -3 -6 1258.17 71.49
2 3 6 1324.77 69.99
2 3 6 1468.45 73.39
2 3 6 1414.26 72.59
-3 -3 -6 68.59 8
-3 -3 -6 64.89 9.7
-3 -3 -6 61.09 9
-3 -3 -6 67.49 11
3 3 6 73.39 9.5
3 3 6 69.99 9.8
3 3 6 63.39 6.1
3 3 6 107.39 19.3
3 3 6 69.39 10.4
-4 -3 -6 810.52 46.2
-4 -3 -6 833.02 47.5
-4 -3 -6 818.82 44.2
-4 -3 -6 777.72 44.2
4 3 6 838.82 48
4 3 6 697.63 45.6
4 3 6 842.02 46
4 3 6 760.42 46.8
4 3 6 850.51 41.8
-5 -3 -6 160.08 12.7
-5 -3 -6 181.68 16
-5 -3 -6 174.68 14.5
5 3 6 159.18 12
5 3 6 169.88 18.9
5 3 6 183.38 16.6
5 3 6 172.48 20.7
-6 -3 -6 2.2 4.8
-6 -3 -6 1.6 2.4
-6 -3 -6 1.3 4.4
-6 -3 -6 2.8 3.5
6 3 6 0 5.4
6 3 6 3.8 8
6 3 6 -0.7 5.3
-7 -3 -6 501.25 29.6
-7 -3 -6 535.05 29.5
-7 -3 -6 475.25 30.7
7 3 6 514.45 30
7 3 6 555.54 33.1
3 -4 -6 273.47 18.6
-3 4 6 233.68 15.6
-3 4 6 270.17 14.2
2 -4 -6 299.67 22.3
2 -4 -6 294.27 18.1
-2 4 6 302.87 18.4
-2 4 6 278.77 18.1
1 -4 -6 17.8 7.3
1 -4 -6 12 4.4
1 -4 -6 10.2 5.4
-1 4 6 7.4 3.4
0 -4 -6 131.79 13.7
0 -4 -6 119.99 11.9
0 -4 -6 133.79 13.4
0 -4 -6 118.19 11.8
0 4 6 121.89 10.1
0 4 6 136.19 10.6
-1 -4 -6 2010 103.99
-1 -4 -6 1988.2 101.69
-1 -4 -6 1819.02 98.09
-1 -4 -6 2100.59 103.19
1 4 6 1806.62 97.89
1 4 6 1983.4 98.29
-2 -4 -6 712.63 43.3
-2 -4 -6 775.22 46.4
-2 -4 -6 713.63 40.7
2 4 6 758.52 40.4
2 4 6 783.82 41.2
-3 -4 -6 1476.75 81.29
-3 -4 -6 1538.65 79.19
-3 -4 -6 1537.75 84.49
-3 -4 -6 1507.75 82.39
3 4 6 1525.05 80.49
3 4 6 1603.34 80.09
-4 -4 -6 685.83 42.7
-4 -4 -6 754.92 42.5
-4 -4 -6 691.33 40.4
-4 -4 -6 691.63 38.4
4 4 6 713.13 40.8
4 4 6 694.53 42.6
4 4 6 692.73 36.3
4 4 6 582.94 39.9
-5 -4 -6 38 5.2
-5 -4 -6 42.9 6.2
-5 -4 -6 47.4 8.6
5 4 6 25.3 9.6
5 4 6 24.4 8.5
5 4 6 23.7 7.3
5 4 6 37.1 8.8
5 4 6 41.7 6.6
-6 -4 -6 568.04 34.1
-6 -4 -6 487.65 29.8
-6 -4 -6 525.15 32.1
-6 -4 -6 550.44 30.3
6 4 6 498.95 31.9
6 4 6 519.95 28.6
6 4 6 570.44 34.3
6 4 6 569.74 40.5
-7 -4 -6 308.77 18.8
-7 -4 -6 354.16 22.4
-7 -4 -6 327.67 20.7
7 4 6 325.27 24.9
7 4 6 332.97 22
2 -5 -6 3.2 3.8
2 -5 -6 3.2 3.5
-2 5 6 7.5 3
1 -5 -6 10.1 3.9
1 -5 -6 9.2 5.2
-1 5 6 12.2 3.1
0 -5 -6 1672.63 80.09
0 -5 -6 1624.04 85.09
0 5 6 1421.66 78.69
-1 -5 -6 89.09 11.7
-1 -5 -6 93.19 10.3
-1 -5 -6 60.69 7.8
1 5 6 82.69 7.3
-2 -5 -6 2354.26 121.09
-2 -5 -6 2279.67 117.99
-2 -5 -6 2193.58 114.89
2 5 6 2308.07 114.99
-3 -5 -6 66.89 7.8
-3 -5 -6 60.49 9
-3 -5 -6 57.09 9.1
-3 -5 -6 66.69 12.8
3 5 6 49.9 7.4
3 5 6 57.39 8.2
-4 -5 -6 2.6 7
-4 -5 -6 5.1 5.3
-4 -5 -6 5.4 3.8
-4 -5 -6 3.8 4.9
4 5 6 6.1 3.9
4 5 6 7.4 5.9
4 5 6 3.8 3.7
-5 -5 -6 155.78 13.7
-5 -5 -6 151.78 14.3
-5 -5 -6 183.18 12.2
-5 -5 -6 149.39 17.8
5 5 6 147.09 10.8
5 5 6 120.79 13.1
5 5 6 140.09 15.2
-6 -5 -6 459.25 29.8
-6 -5 -6 522.65 33.3
-6 -5 -6 555.94 32.3
6 5 6 509.25 36.8
6 5 6 460.15 27.5
6 5 6 516.95 30.3
-7 -5 -6 51.09 6.5
-7 -5 -6 57.59 7.1
7 5 6 41.8 10.7
7 5 6 40.7 6.9
1 -6 -6 411.16 22.8
0 -6 -6 403.86 22.8
0 -6 -6 406.36 26.4
-1 -6 -6 460.55 28.1
-1 -6 -6 459.95 30
-2 -6 -6 218.68 18.8
-2 -6 -6 235.18 17.4
2 6 6 206.38 13.7
-3 -6 -6 210.78 16.6
-3 -6 -6 192.28 20.2
3 6 6 192.88 13.6
3 6 6 193.58 13.9
-4 -6 -6 68.99 8.8
-4 -6 -6 103.39 14.5
-4 -6 -6 90.69 11.2
4 6 6 72.49 9.7
4 6 6 75.49 8.5
-5 -6 -6 926.41 53.19
-5 -6 -6 955.7 55.69
-5 -6 -6 953.1 51.79
5 6 6 897.11 51.49
5 6 6 971.4 48.4
5 6 6 937.21 55.49
-6 -6 -6 17.9 4.7
-6 -6 -6 20.8 13.3
6 6 6 16.4 4.7
6 6 6 16.1 7.1
6 6 6 18.2 4.8
-1 -7 -6 197.38 15
-2 -7 -6 91.59 9.1
-2 -7 -6 97.69 11.3
-3 -7 -6 5.1 3.7
-3 -7 -6 8.6 6.5
-4 -7 -6 654.13 39.6
-4 -7 -6 710.73 37.6
4 7 6 601.34 35.4
-5 -7 -6 77.89 9.4
-5 -7 -6 97.39 13.8
5 7 6 88.89 7.3
-6 -7 -6 30.4 8.5
6 7 6 28.8 4.3
-3 -8 -6 459.45 26
2 2 -7 177.58 13.2
-2 -2 7 225.08 14.6
-2 -2 7 236.18 12.8
1 2 -7 70.29 7.6
-1 -2 7 73.89 6.4
-1 -2 7 69.49 7.4
0 2 -7 713.93 37.7
0 2 -7 666.73 35.6
0 -2 7 655.63 37
0 -2 7 661.73 36.2
-1 2 -7 437.96 24.6
-1 2 -7 428.56 23.4
1 -2 7 383.86 23.4
1 -2 7 394.16 23.9
-2 2 -7 11.9 3.5
-2 2 -7 2.5 1.9
2 -2 7 7 2.9
2 -2 7 4.8 2.6
3 1 -7 62.59 5.8
3 1 -7 53.39 6
-3 -1 7 47.8 5
2 1 -7 222.88 15.6
2 1 -7 239.88 15.8
-2 -1 7 237.68 15.6
-2 -1 7 228.88 14.4
1 1 -7 258.87 18.1
1 1 -7 306.27 19.8
-1 -1 7 282.87 17.2
-1 -1 7 271.47 18.7
0 1 -7 1016.5 53.09
0 1 -7 905.61 50.49
0 -1 7 979.3 52.09
0 -1 7 953.3 52.59
0 -1 7 986 50.69
-1 1 -7 59.09 6.4
-1 1 -7 53.89 7.5
1 -1 7 63.99 8.4
1 -1 7 50.89 7.7
1 -1 7 56.29 6
-2 1 -7 347.17 22
-2 1 -7 317.87 19.6
2 -1 7 309.97 20.7
2 -1 7 345.77 20.9
2 -1 7 335.17 21.6
-3 1 -7 152.48 10.8
-3 1 -7 162.68 12.4
3 -1 7 160.58 12.1
3 -1 7 172.28 13
3 -1 7 162.58 12.2
-4 1 -7 34.3 3.5
-4 1 -7 38.6 5.2
-4 1 -7 25 4
4 -1 7 38.4 5
4 -1 7 23.8 4
3 0 -7 368.06 20.8
3 0 -7 294.57 19.2
3 0 -7 355.76 21.5
-3 0 7 350.16 20.4
-3 0 7 350.76 19.4
2 0 -7 91.59 10.2
2 0 -7 83.69 8.3
-2 0 7 99.59 10.6
-2 0 7 82.69 8.9
-2 0 7 71.59 10
1 0 -7 1608.44 85.19
1 0 -7 1702.13 84.89
-1 0 7 1552.54 82.69
-1 0 7 1719.93 84.89
-1 0 7 1541.75 84.59
0 0 -7 6.6 3.3
0 0 -7 7.8 3.8
0 0 -7 4.7 4
0 0 7 7.6 3.9
0 0 7 12.1 5.4
0 0 7 8.3 4.4
-1 0 -7 99.39 11.2
-1 0 -7 110.19 9.5
1 0 7 91.09 8.3
1 0 7 111.39 11.9
1 0 7 122.39 12.2
-2 0 -7 768.02 43.8
-2 0 -7 780.92 42.3
2 0 7 802.02 43.9
2 0 7 782.22 44.5
2 0 7 746.03 43.5
-3 0 -7 414.96 25.8
-3 0 -7 428.26 27.3
-3 0 -7 443.56 27
-3 0 -7 436.06 25
3 0 7 434.56 26.2
3 0 7 409.66 26.2
3 0 7 453.15 28
-4 0 -7 628.74 35.2
-4 0 -7 581.94 32.5
4 0 7 584.54 34.1
4 0 7 598.84 34.7
4 0 7 612.64 33.5
-5 0 -7 328.67 22.6
-5 0 -7 400.76 22.4
5 0 7 420.76 22.8
5 0 7 411.86 22
5 0 7 351.06 25
3 -1 -7 11.9 4.2
3 -1 -7 9.5 4
-3 1 7 1.5 2.6
-3 1 7 7.3 3.3
2 -1 -7 951 51.39
2 -1 -7 1048.8 54.09
2 -1 -7 960.8 53.69
-2 1 7 1037.9 52.89
-2 1 7 957.2 51.39
-2 1 7 948.31 49.1
1 -1 -7 7.1 3.5
1 -1 -7 2.9 3
1 -1 -7 5.7 3.8
1 -1 -7 7.4 5
-1 1 7 19.8 5.5
-1 1 7 7.7 4.6
-1 1 7 3.9 2.3
0 -1 -7 67.49 9.3
0 -1 -7 29 6.2
0 -1 -7 47.5 7.2
0 1 7 39.5 10.6
0 1 7 35.1 5.2
0 1 7 38.4 4.6
0 1 7 34.9 7.3
-1 -1 -7 553.94 34.5
-1 -1 -7 555.74 34.7
-1 -1 -7 613.04 34.3
-1 -1 -7 577.54 32.4
1 1 7 594.64 30.1
1 1 7 576.04 35.5
1 1 7 585.64 33.9
-2 -1 -7 641.44 34.1
-2 -1 -7 635.04 35.5
-2 -1 -7 599.54 36
2 1 7 599.74 36.3
2 1 7 576.74 35.6
2 1 7 562.54 30.9
-3 -1 -7 1057.69 55.19
-3 -1 -7 971.7 54.49
-3 -1 -7 997.1 53.19
-3 -1 -7 953.8 54.89
3 1 7 986 54.59
3 1 7 981.4 55.29
3 1 7 1039.8 55.29
-4 -1 -7 256.47 18.7
-4 -1 -7 247.98 16.4
4 1 7 271.77 18.4
4 1 7 264.07 18.9
4 1 7 271.17 20
-5 -1 -7 2.5 2.8
-5 -1 -7 1.3 3.1
-5 -1 -7 1.2 2.7
5 1 7 1.3 2.9
5 1 7 2.1 3.9
5 1 7 -3.2 5.3
3 -2 -7 671.03 36.7
3 -2 -7 631.54 33.8
-3 2 7 658.13 34.7
-3 2 7 616.34 34.4
-3 2 7 658.93 32.6
2 -2 -7 280.27 19.3
2 -2 -7 309.07 20.3
2 -2 -7 304.77 21.1
-2 2 7 310.17 19.6
-2 2 7 313.47 16.7
-2 2 7 283.17 18.6
-2 2 7 316.37 19.6
1 -2 -7 9 6.9
1 -2 -7 24 6.1
1 -2 -7 31.2 5.4
1 -2 -7 27.1 6.7
-1 2 7 26.4 6.3
-1 2 7 17.6 5.3
-1 2 7 23.6 6
-1 2 7 25 4
-1 2 7 26 6
0 -2 -7 931.51 53.69
0 -2 -7 991.3 51.39
0 -2 -7 902.01 53.19
0 -2 -7 987.7 53.89
0 2 7 1000.4 51.79
0 2 7 889.21 50.19
0 2 7 1026.6 48.7
0 2 7 968.7 52.09
0 2 7 937.01 51.89
-1 -2 -7 930.31 50.99
-1 -2 -7 1030.3 54.59
-1 -2 -7 925.21 51.29
-1 -2 -7 964.1 54.19
1 2 7 981.8 51.69
1 2 7 959.7 52.39
1 2 7 927.31 52.09
1 2 7 1005 48.9
-2 -2 -7 985.9 54.99
-2 -2 -7 1039.1 57.29
-2 -2 -7 1020.9 54.49
-2 -2 -7 1058.99 57.39
2 2 7 957 56.59
2 2 7 1065.39 51.99
2 2 7 1030.9 54.99
2 2 7 1068.19 56.49
-3 -2 -7 578.94 33.6
-3 -2 -7 614.44 34.8
-3 -2 -7 604.64 35.7
3 2 7 581.14 36.4
3 2 7 572.64 31.1
3 2 7 641.44 36.7
3 2 7 600.64 36.4
-4 -2 -7 0.2 2.9
-4 -2 -7 2.3 4.1
-4 -2 -7 6.2 5
-4 -2 -7 6.6 3.1
4 2 7 1.6 4.2
4 2 7 6.5 7.4
4 2 7 6.8 5.4
-5 -2 -7 11.9 3.3
-5 -2 -7 9.5 4.8
-5 -2 -7 10.6 4.1
5 2 7 11.9 8.2
5 2 7 22.7 6.5
5 2 7 8 5
-6 -2 -7 635.34 37.3
-6 -2 -7 687.13 36.3
6 2 7 621.74 36.3
6 2 7 714.93 37.6
3 -3 -7 177.78 13.1
3 -3 -7 184.08 11.4
-3 3 7 154.48 11.8
-3 3 7 181.48 9.8
2 -3 -7 74.49 8.9
2 -3 -7 58.29 8.2
2 -3 -7 66.59 9
-2 3 7 85.29 6.3
-2 3 7 81.19 8.7
-2 3 7 72.89 7.6
1 -3 -7 222.68 15.5
1 -3 -7 235.38 18
1 -3 -7 226.68 17.7
-1 3 7 208.88 16
-1 3 7 214.68 15.6
-1 3 7 236.08 16.1
-1 3 7 205.78 12.6
0 -3 -7 628.04 39.5
0 -3 -7 671.53 38.9
0 -3 -7 665.43 36.8
0 -3 -7 662.43 39.4
0 3 7 666.03 37.4
0 3 7 706.83 37.8
0 3 7 674.93 34.5
-1 -3 -7 155.48 14.5
-1 -3 -7 162.58 15
-1 -3 -7 163.68 15
-1 -3 -7 164.38 15.5
1 3 7 158.98 13.1
1 3 7 155.48 10.1
1 3 7 155.18 12.8
-2 -3 -7 868.11 47.5
-2 -3 -7 825.22 47.5
-2 -3 -7 833.42 44.5
-2 -3 -7 768.52 47.1
2 3 7 796.72 47.5
2 3 7 830.32 41.9
2 3 7 820.52 45.4
2 3 7 836.82 45
2 3 7 817.22 45.9
-3 -3 -7 76.99 10.2
-3 -3 -7 76.59 7.6
-3 -3 -7 60.49 7.4
3 3 7 73.69 6.9
3 3 7 94.99 11.4
3 3 7 58.59 8.1
3 3 7 65.99 10.1
3 3 7 71.19 9.7
-4 -3 -7 2.5 4
-4 -3 -7 0.7 3.1
-4 -3 -7 3.6 2.9
-4 -3 -7 -0.4 3.4
4 3 7 26.7 6.9
4 3 7 5.1 3.6
4 3 7 -0.6 7.7
4 3 7 3.5 5.1
-5 -3 -7 779.42 44.9
-5 -3 -7 788.72 42.2
-5 -3 -7 740.53 42
5 3 7 755.42 39.5
5 3 7 803.52 47.8
5 3 7 774.32 44.8
5 3 7 812.82 44.8
-6 -3 -7 145.89 10.5
-6 -3 -7 160.58 13.5
-6 -3 -7 158.38 11
6 3 7 158.18 12.8
6 3 7 157.88 16.2
6 3 7 166.78 13.8
2 -4 -7 46.1 6
2 -4 -7 45.3 7.2
-2 4 7 42.1 5.2
-2 4 7 27.4 5.5
1 -4 -7 746.93 43.7
1 -4 -7 737.33 39.7
1 -4 -7 756.92 42
-1 4 7 730.83 40.4
0 -4 -7 0.3 3.6
0 -4 -7 4.6 6.8
0 -4 -7 3.5 6
0 -4 -7 1.3 4.5
0 4 7 3.6 4.2
0 4 7 -0.3 3.2
-1 -4 -7 1074.29 60.59
-1 -4 -7 1096.19 60.29
-1 -4 -7 1069.79 56.09
-1 -4 -7 1127.29 59.59
1 4 7 1010.9 56.59
1 4 7 1101.09 56.79
-2 -4 -7 5.9 5.1
-2 -4 -7 3.8 3.9
-2 -4 -7 1.9 3
2 4 7 1.3 2.7
2 4 7 2.7 4.1
2 4 7 -2.7 4.1
-3 -4 -7 30.2 9
-3 -4 -7 39.5 7.6
-3 -4 -7 42.3 6.1
3 4 7 36.9 4.2
3 4 7 34.6 7.1
3 4 7 29.5 6.8
-4 -4 -7 87.69 9.9
-4 -4 -7 90.89 8.3
-4 -4 -7 68.29 8.8
4 4 7 104.69 12.1
4 4 7 83.79 11
4 4 7 82.79 10.6
4 4 7 71.79 10.2
4 4 7 82.19 7
-5 -4 -7 765.42 40.5
-5 -4 -7 709.13 42.7
5 4 7 754.32 38.2
5 4 7 715.33 41.9
5 4 7 775.02 46.6
5 4 7 789.42 43.2
5 4 7 679.43 41.1
-6 -4 -7 38 5
-6 -4 -7 32.8 6
6 4 7 44.9 7.8
6 4 7 27.8 9.2
6 4 7 39.8 6.9
2 -5 -7 426.06 22.9
1 -5 -7 82.29 9.7
1 -5 -7 87.49 8.3
-1 5 7 80.09 8.5
0 -5 -7 1038.5 54.89
0 -5 -7 1089.89 59.19
0 5 7 1034.2 54.59
-1 -5 -7 173.98 13.8
-1 -5 -7 180.08 15.9
-1 -5 -7 160.38 13.5
1 5 7 168.18 12
1 5 7 184.38 12.7
-2 -5 -7 120.09 12.5
-2 -5 -7 127.79 13.7
2 5 7 127.49 10.6
2 5 7 133.29 10.7
-3 -5 -7 471.45 26.4
-3 -5 -7 448.06 28.3
-3 -5 -7 467.05 31.4
3 5 7 412.66 23.5
3 5 7 454.45 26.9
3 5 7 438.66 27
-4 -5 -7 2249.57 113.69
-4 -5 -7 2290.77 111.49
-4 -5 -7 2196.28 114.89
-4 -5 -7 2144.59 113.69
4 5 7 2299.27 112.79
4 5 7 1914.71 112.09
4 5 7 2220.68 108.99
4 5 7 2269.37 113.09
-5 -5 -7 410.26 26.8
-5 -5 -7 407.16 25.7
-5 -5 -7 416.16 27.9
-5 -5 -7 437.66 24.5
5 5 7 376.06 26
5 5 7 462.15 31.2
5 5 7 435.86 23.3
-6 -5 -7 846.62 46.2
6 5 7 903.71 49.2
6 5 7 770.82 44.5
6 5 7 816.62 42.2
0 -6 -7 61.29 6.2
0 -6 -7 62.29 8.4
-1 -6 -7 10.1 3.8
-1 -6 -7 26.9 6.4
-2 -6 -7 39.8 8.1
-2 -6 -7 44.5 7.2
2 6 7 42.8 5.4
-3 -6 -7 921.61 49.99
-3 -6 -7 933.51 52.19
3 6 7 868.61 47.9
-4 -6 -7 104.19 14.3
-4 -6 -7 68.89 9.4
4 6 7 87.19 9.6
4 6 7 88.39 7.1
-5 -6 -7 173.28 13.3
-5 -6 -7 185.18 17.1
5 6 7 189.98 11.3
5 6 7 188.38 16.7
-6 -6 -7 26.3 4.7
6 6 7 14.5 3
6 6 7 17.1 6.3
-1 -7 -7 30.6 7.1
-2 -7 -7 602.34 33.5
-2 -7 -7 613.24 35.1
-3 -7 -7 3.1 2.9
-3 -7 -7 5 7.7
-4 -7 -7 305.37 20.3
-4 -7 -7 349.57 22.7
-5 -7 -7 51.29 6
-5 -7 -7 82.29 10.9
5 7 7 48.3 4.4
0 1 -8 171.28 11.4
-1 1 -8 180.38 11.9
-1 1 -8 174.78 11.8
1 0 -8 131.29 9.6
1 0 -8 123.39 8.8
1 0 -8 114.49 9.4
-1 0 8 133.69 9
-1 0 8 125.59 9.4
0 0 -8 277.37 17.7
0 0 8 303.87 18
0 0 8 281.97 17.9
0 0 8 270.37 16.1
-1 0 -8 164.48 10.8
-1 0 -8 179.48 12.3
-1 0 -8 167.38 12.5
1 0 8 177.28 13
1 0 8 161.18 12.2
-2 0 -8 709.23 38.8
-2 0 -8 748.43 38
-2 0 -8 694.93 38.8
2 0 8 709.43 39
2 0 8 731.23 39.8
-3 0 -8 196.98 12
3 0 8 196.38 13.3
3 0 8 189.98 12.8
2 -1 -8 220.28 14.2
-2 1 8 222.38 13.8
1 -1 -8 168.08 12.1
-1 1 8 171.88 11.5
-1 1 8 203.28 13.1
-1 1 8 185.88 13.5
0 -1 -8 195.78 14.4
0 -1 -8 207.58 14.8
0 -1 -8 205.38 13.5
0 1 8 216.48 15.5
0 1 8 220.58 15.9
0 1 8 201.78 13.3
-1 -1 -8 873.31 47.2
-1 -1 -8 821.12 44.5
-1 -1 -8 811.62 46.1
-1 -1 -8 851.11 45.6
1 1 8 927.31 46.6
1 1 8 846.52 45.7
1 1 8 859.71 47.3
-2 -1 -8 348.07 21.6
-2 -1 -8 355.76 21.1
-2 -1 -8 369.46 23
2 1 8 390.86 24.1
2 1 8 348.07 22.4
2 1 8 375.16 23
-3 -1 -8 42.9 6
-3 -1 -8 34.7 4.6
-3 -1 -8 47.4 5.9
3 1 8 38.9 6
3 1 8 41.3 6.1
3 1 8 45.8 6.5
-4 -1 -8 73.99 6.1
-4 -1 -8 82.59 6.9
4 1 8 72.99 7.3
4 1 8 71.49 7.3
4 1 8 88.19 7.9
2 -2 -8 103.39 8.7
-2 2 8 118.19 7.9
1 -2 -8 329.57 21.4
1 -2 -8 369.16 22
-1 2 8 326.27 19.8
-1 2 8 363.76 22.2
-1 2 8 328.87 20.8
-1 2 8 366.16 18.3
0 -2 -8 229.08 16.5
0 -2 -8 227.08 16
0 2 8 246.58 13.3
0 2 8 227.98 17.5
0 2 8 242.58 16.4
-1 -2 -8 624.14 36.3
-1 -2 -8 613.14 36.2
1 2 8 653.73 37.1
1 2 8 651.13 32.4
1 2 8 612.84 35.3
-2 -2 -8 52.29 6.1
-2 -2 -8 58.79 7.4
-2 -2 -8 47.3 6.1
2 2 8 61.29 5.4
2 2 8 49.3 8
2 2 8 44.8 8.4
-3 -2 -8 31 5.2
-3 -2 -8 35.6 4.7
3 2 8 43 7.1
3 2 8 29.8 6.9
3 2 8 43.8 6.8
-4 -2 -8 1037.2 54.99
-4 -2 -8 1160.78 55.39
4 2 8 969 55.79
4 2 8 1156.78 56.89
4 2 8 1011.5 56.19
-5 -2 -8 1.1 1.6
-5 -2 -8 2.6 1.9
-5 -2 -8 0 4.2
5 2 8 4.7 3.4
5 2 8 1.6 3.2
1 -3 -8 104.29 9.7
1 -3 -8 87.19 8.1
1 -3 -8 92.29 8.9
-1 3 8 102.79 6.4
0 -3 -8 899.21 50.69
0 -3 -8 979.9 52.09
0 -3 -8 891.71 51.69
0 3 8 978 50.39
0 3 8 994.9 47.7
-1 -3 -8 12.9 4.3
-1 -3 -8 15.2 4.7
-1 -3 -8 11.3 3.9
1 3 8 15.9 6.2
1 3 8 16.1 3.5
1 3 8 13.4 5.1
-2 -3 -8 158.18 11.1
-2 -3 -8 162.68 13.3
2 3 8 157.68 13.1
2 3 8 166.98 10.2
2 3 8 154.68 12.8
2 3 8 173.78 13.9
-3 -3 -8 710.23 38.3
-3 -3 -8 717.93 40.3
3 3 8 762.92 40.4
3 3 8 676.03 39.8
3 3 8 691.73 39
3 3 8 695.53 39.7
3 3 8 756.12 36.6
-4 -3 -8 29.1 4.2
-4 -3 -8 13.8 4.2
4 3 8 17.7 2.6
4 3 8 17.3 6.1
4 3 8 16.7 5.6
-5 -3 -8 432.56 25.4
-5 -3 -8 446.66 23.8
5 3 8 453.05 25.1
5 3 8 386.66 25.8
1 -4 -8 461.75 27.1
1 -4 -8 470.95 25
-1 4 8 454.35 23.6
0 -4 -8 38.6 7.5
0 -4 -8 40.3 6
0 4 8 38.9 3.7
0 4 8 34 5.7
-1 -4 -8 6.6 4.5
-1 -4 -8 7.7 4.2
-1 -4 -8 11.7 4.4
1 4 8 7.1 3.5
1 4 8 11.7 2.4
-2 -4 -8 398.96 26.1
2 4 8 406.96 21.5
2 4 8 378.36 25.4
2 4 8 433.26 24.1
-3 -4 -8 375.46 23.9
-3 -4 -8 393.56 22.4
3 4 8 394.26 23.4
3 4 8 375.76 20.4
-4 -4 -8 544.15 32
-4 -4 -8 577.04 30.5
4 4 8 556.84 31.6
4 4 8 512.35 31.1
4 4 8 617.04 28.9
4 4 8 522.55 31.5
-5 -4 -8 141.99 9.9
5 4 8 170.38 11.6
5 4 8 156.08 11.2
5 4 8 143.59 9.2
5 4 8 123.39 12.7
0 -5 -8 1.8 4.8
0 -5 -8 3 3.6
0 5 8 3.9 2
-1 -5 -8 239.08 16.4
-1 -5 -8 213.08 14.4
1 5 8 194.48 14.7
1 5 8 216.38 11.8
-2 -5 -8 779.12 42.3
-2 -5 -8 812.32 41.7
2 5 8 711.53 39.5
2 5 8 684.63 37.4
-3 -5 -8 238.38 16.8
-3 -5 -8 204.28 14
-3 -5 -8 244.68 17.2
3 5 8 253.67 13.4
3 5 8 235.78 15.8
-4 -5 -8 218.88 15.7
-4 -5 -8 213.78 15.9
-4 -5 -8 225.18 14.1
4 5 8 214.28 15
4 5 8 238.48 13.1
4 5 8 241.68 17.9
-5 -5 -8 72.59 7.3
-5 -5 -8 48.7 5
5 5 8 52.09 4.7
5 5 8 62.29 9.5
-2 -6 -8 138.99 10.5
-2 -6 -8 148.59 12.2
-3 -6 -8 346.87 22.4
-3 -6 -8 401.26 21.7
3 6 8 310.97 18.1
-4 -6 -8 -1.3 1.9
-4 -6 -8 6.7 5
4 6 8 -0.4 2.5
2 2 9 187.38 12.8
-1 -3 -9 304.47 17.7
1 3 9 297.27 18.8
2 3 9 75.59 8.7
2 3 9 70.09 6.9
2 4 9 353.56 16.4
2 4 9 257.47 18.5
