#------------------------------------------------------------------------------
#$Date: 2021-09-06 13:21:13 +0300 (Mon, 06 Sep 2021) $
#$Revision: 268637 $
#$URL: file:///home/coder/svn-repositories/cod/cif/7/24/30/7243086.cif $
#------------------------------------------------------------------------------
#
# This file is available in the Crystallography Open Database (COD),
# http://www.crystallography.net/
#
# All data on this site have been placed in the public domain by the
# contributors.
#
data_7243086
loop_
_publ_author_name
'Hazarika, Pragyan J.'
'Gupta, Poonam'
'Gunnam, Anilkumar'
'Allu, Suryanarayana'
'Nangia, Ashwini K.'
'Nath, Naba K.'
_publ_section_title
;
 Photomechanical response of sulfonylhydrazone molecular crystals
;
_journal_issue                   28
_journal_name_full               CrystEngComm
_journal_page_first              4910
_journal_page_last               4916
_journal_paper_doi               10.1039/D1CE00478F
_journal_volume                  23
_journal_year                    2021
_chemical_formula_moiety         'C14 H13 N3 O4 S'
_chemical_formula_sum            'C14 H13 N3 O4 S'
_chemical_formula_weight         319.34
_space_group_crystal_system      triclinic
_space_group_IT_number           2
_space_group_name_Hall           '-P 1'
_space_group_name_H-M_alt        'P -1'
_symmetry_Int_Tables_number      2
_atom_sites_solution_primary     iterative
_audit_creation_date             2019-09-19
_audit_creation_method
;
Olex2 1.2
(compiled 2018.05.29 svn.r3508 for OlexSys, GUI svn.r5506)
;
_audit_update_record
;
2021-04-08 deposited with the CCDC.	2021-06-21 downloaded from the CCDC.
;
_cell_angle_alpha                93.860(2)
_cell_angle_beta                 94.947(2)
_cell_angle_gamma                98.214(2)
_cell_formula_units_Z            2
_cell_length_a                   5.6676(3)
_cell_length_b                   10.5227(5)
_cell_length_c                   12.1824(6)
_cell_measurement_reflns_used    9958
_cell_measurement_temperature    296.15
_cell_measurement_theta_max      25.04
_cell_measurement_theta_min      2.69
_cell_volume                     714.07(6)
_computing_cell_refinement       'SAINT v8.37A (Bruker, 2015)'
_computing_data_reduction        'SAINT v8.37A (Bruker, 2015)'
_computing_molecular_graphics    'Olex2 (Dolomanov et al., 2009)'
_computing_publication_material  'Olex2 (Dolomanov et al., 2009)'
_computing_structure_refinement  'olex2.refine (Bourhis et al., 2015)'
_computing_structure_solution    'olex2.solve (Bourhis et al., 2015)'
_diffrn_ambient_temperature      296.15
_diffrn_measured_fraction_theta_full 0.9921
_diffrn_measured_fraction_theta_max 0.9921
_diffrn_measurement_device_type  'Bruker APEX-II CCD'
_diffrn_measurement_method       '\f and \w scans'
_diffrn_radiation_type           'Mo K\a'
_diffrn_radiation_wavelength     0.71073
_diffrn_reflns_av_R_equivalents  0.0189
_diffrn_reflns_av_unetI/netI     0.0118
_diffrn_reflns_limit_h_max       6
_diffrn_reflns_limit_h_min       -6
_diffrn_reflns_limit_k_max       12
_diffrn_reflns_limit_k_min       -12
_diffrn_reflns_limit_l_max       14
_diffrn_reflns_limit_l_min       -14
_diffrn_reflns_number            15815
_diffrn_reflns_theta_full        25.0349
_diffrn_reflns_theta_max         25.03
_diffrn_reflns_theta_min         3.65
_diffrn_standards_number         0
_exptl_absorpt_coefficient_mu    0.249
_exptl_absorpt_correction_T_max  0.7452
_exptl_absorpt_correction_T_min  0.7128
_exptl_absorpt_correction_type   multi-scan
_exptl_absorpt_process_details
;
SADABS-2014/5 (Bruker,2014/5) was used for absorption correction.
wR2(int) was 0.0498 before and 0.0347 after correction.
The Ratio of minimum to maximum transmission is 0.9565.
The \l/2 correction factor is Not present.
;
_exptl_crystal_colour            'clear colourless'
_exptl_crystal_colour_lustre     clear
_exptl_crystal_colour_primary    colourless
_exptl_crystal_density_diffrn    1.4851
_exptl_crystal_description       plate
_exptl_crystal_F_000             332.4164
_exptl_crystal_size_max          0.28
_exptl_crystal_size_mid          0.19
_exptl_crystal_size_min          0.12
_refine_diff_density_max         0.2802
_refine_diff_density_min         -0.3250
_refine_diff_density_rms         0.0443
_refine_ls_d_res_high            0.8398
_refine_ls_d_res_low             5.5830
_refine_ls_goodness_of_fit_ref   0.9873
_refine_ls_hydrogen_treatment    mixed
_refine_ls_matrix_type           full
_refine_ls_number_constraints    22
_refine_ls_number_parameters     204
_refine_ls_number_reflns         2511
_refine_ls_number_restraints     0
_refine_ls_restrained_S_all      0.9873
_refine_ls_R_factor_all          0.0358
_refine_ls_R_factor_gt           0.0329
_refine_ls_shift/su_max          0.0010
_refine_ls_shift/su_mean         0.0000
_refine_ls_structure_factor_coef Fsqd
_refine_ls_weighting_details
'w=1/[\s^2^(Fo^2^)+(0.0820P)^2^+0.1966P] where P=(Fo^2^+2Fc^2^)/3'
_refine_ls_weighting_scheme      calc
_refine_ls_wR_factor_gt          0.1056
_refine_ls_wR_factor_ref         0.1106
_reflns_Friedel_coverage         0.0
_reflns_limit_h_max              6
_reflns_limit_h_min              -6
_reflns_limit_k_max              12
_reflns_limit_k_min              -12
_reflns_limit_l_max              14
_reflns_limit_l_min              0
_reflns_number_gt                2322
_reflns_number_total             2511
_reflns_threshold_expression     I>=2u(I)
_iucr_refine_instructions_details
;
TITL ANIL104_0m_a.res in P-1
REM Old TITL ANIL104_0m in P-1
REM SHELXT solution in P-1
REM R1 0.117, Rweak 0.006, Alpha 0.060, Orientation as input
REM Formula found by SHELXT: C15 N O5 S
CELL 0.71073 5.6676 10.5227 12.1824 93.86 94.947 98.214
ZERR 2 0.0003 0.0005 0.0006 0.002 0.002 0.002
LATT 1
SFAC C H N O S
UNIT 14 13 3 4 1

L.S. 50
PLAN  20
SIZE 0.28 0.19 0.12
TEMP 23
ACTA 
BOND $H
LIST 6
FMAP 2
OMIT 0 1 2
WGHT 0.082012 0.196613
FVAR 0.597141
REM <olex2.extras>
REM <HklSrc "%.\\ANIL104_0m.hkl">
REM </olex2.extras>

S1    5     0.70815  0.42315  0.72387  11.00000  0.03360  0.02983  0.03413 =
 0.00011 -0.00033  0.00280 
O1    4     0.78210  0.55678  0.75720  11.00000  0.05009  0.03389  0.04916 =
 -0.00297  0.00220 -0.00537 
N1    3     0.51138  0.42406  0.61701  11.00000  0.04130  0.02616  0.03658 =
 0.00045 -0.00274  0.00902 
C1    1     0.16933  0.17482  1.08001  11.00000  0.07552  0.06178  0.04866 =
 0.00288  0.01287 -0.01502 
AFIX 137
H1a   2     0.00488  0.18784  1.06994  11.00000 -1.50000 
H1b   2     0.17766  0.08415  1.07534  11.00000 -1.50000 
H1c   2     0.23956  0.21305  1.15127  11.00000 -1.50000 
AFIX 0
O2    4     0.87830  0.34363  0.69228  11.00000  0.03785  0.04819  0.04695 =
 0.00235  0.00324  0.01321 
N2    3     0.41386  0.30575  0.56377  11.00000  0.03592  0.02686  0.03274 =
 0.00172  0.00117  0.00467 
C2    1     0.30399  0.23658  0.99138  11.00000  0.04998  0.04454  0.03505 =
 -0.00178  0.00015 -0.00955 
N3    3    -0.20642  0.28011  0.33223  11.00000  0.03043  0.03929  0.04807 =
 0.00696 -0.00020  0.00754 
O3    4    -0.20118  0.36576  0.40558  11.00000  0.05152  0.04977  0.05819 =
 -0.00113  0.00574  0.02460 
C3    1     0.24962  0.35045  0.95211  11.00000  0.04653  0.05267  0.04921 =
 -0.00305  0.01060  0.00700 
AFIX 43
H3    2     0.12807  0.38881  0.98114  11.00000 -1.20000 
AFIX 0
C4    1     0.37119  0.40837  0.87103  11.00000  0.04723  0.03971  0.04782 =
 0.00481  0.00560  0.01148 
AFIX 43
H4    2     0.33258  0.48493  0.84564  11.00000 -1.20000 
AFIX 0
O4    4    -0.31789  0.27962  0.24183  11.00000  0.07269  0.06287  0.07060 =
 0.00433 -0.03260  0.02343 
C5    1     0.55206  0.35058  0.82795  11.00000  0.03491  0.03261  0.03042 =
 -0.00022 -0.00281  0.00212 
C6    1     0.61142  0.23760  0.86573  11.00000  0.05321  0.04123  0.05222 =
 0.00913  0.01007  0.01512 
AFIX 43
H6    2     0.73273  0.19920  0.83652  11.00000 -1.20000 
AFIX 0
C7    1     0.48785  0.18232  0.94768  11.00000  0.06949  0.04229  0.05495 =
 0.01584  0.00789  0.00893 
AFIX 43
H7    2     0.52907  0.10681  0.97419  11.00000 -1.20000 
AFIX 0
C8    1     0.23938  0.30826  0.49120  11.00000  0.03544  0.02834  0.03372 =
 0.00495  0.00377  0.00756 
AFIX 43
H8    2     0.17890  0.38455  0.48023  11.00000 -1.20000 
AFIX 0
C9    1     0.13538  0.18825  0.42508  11.00000  0.03068  0.02962  0.03042 =
 0.00512  0.00412  0.00625 
C10   1    -0.07296  0.17278  0.35149  11.00000  0.03021  0.03320  0.03388 =
 0.00632  0.00530  0.00641 
C11   1    -0.16313  0.05689  0.29196  11.00000  0.03531  0.04194  0.03973 =
 0.00074 -0.00128  0.00179 
AFIX 43
H11   2    -0.30157  0.05023  0.24374  11.00000 -1.20000 
AFIX 0
C12   1    -0.04738 -0.04883  0.30423  11.00000  0.04898  0.03351  0.04427 =
 -0.00505  0.00350  0.00243 
AFIX 43
H12   2    -0.10966 -0.12776  0.26625  11.00000 -1.20000 
AFIX 0
C13   1     0.16252 -0.03596  0.37374  11.00000  0.05002  0.03262  0.04968 =
 -0.00049  0.00141  0.01419 
AFIX 43
H13   2     0.24380 -0.10614  0.38120  11.00000 -1.20000 
AFIX 0
C14   1     0.25144  0.07979  0.43174  11.00000  0.03935  0.03636  0.04226 =
 0.00173 -0.00246  0.01280 
AFIX 43
H14   2     0.39398  0.08641  0.47713  11.00000 -1.20000 
AFIX 0
H1    2     0.42968  0.47649  0.61901  11.00000  0.04757 
HKLF 4

END
Q1 1 0.611111 0.375 0.775 11 0.05 0.28
Q2 1 -0.388889 0.25 0.3 11 0.05 0.28
Q3 1 0.055556 0.09375 1.05 11 0.05 0.23
Q4 1 0 0.1875 0.4 11 0.05 0.2
Q5 1 0.111111 0.25 1.125 11 0.05 0.18

  REM The information below was added by Olex2.
  REM
  REM R1 = 0.0329 for 2322 Fo > 4sig(Fo) and 0.0358 for all 2511 data
  REM 204 parameters refined using 0 restraints
  REM Highest difference peak 0.2802, deepest hole -0.3250
  REM Mean Shift 0.0000, Max Shift 0.0010.

  REM +++ Tabular Listing of Refinement Information +++
  REM R1_all = 0.0358
  REM R1_gt = 0.0329
  REM wR_ref = 0.1106
  REM GOOF = 0.9873
  REM Shift_max = 0.0010
  REM Shift_mean = 0.0000
  REM Reflections_all = 2511
  REM Reflections_gt = 2322
  REM Parameters = 204
  REM Hole = -0.3250
  REM Peak = 0.2802
  REM Flack = n/a

  
;
_cod_data_source_file            d1ce00478f7.cif
_cod_data_source_block           SH2
_cod_depositor_comments
'Adding full bibliography for 7243084--7243087.cif.'
_cod_database_code               7243086
_olex2_refinement_description
;
1. Fixed Uiso
 At 1.2 times of:
  All C(H) groups
 At 1.5 times of:
  All C(H,H,H) groups
2.a Aromatic/amide H refined with riding coordinates:
 C3(H3), C4(H4), C6(H6), C7(H7), C8(H8), C11(H11), C12(H12), C13(H13), C14(H14)
2.b Idealised Me refined as rotating group:
 C1(H1a,H1b,H1c)
;
_iucr_refine_fcf_details
;
data_ANIL104_0m
_computing_structure_refinement   'olex2.refine (Bourhis et al., 2015)'
_shelx_refln_list_code            4
loop_
  _space_group_symop_id
  _space_group_symop_operation_xyz
  1  x,y,z
  2  -x,-y,-z

_space_group_crystal_system       triclinic
_space_group_IT_number            2
_space_group_name_H-M_alt         'P -1'
_space_group_name_Hall            '-P 1'
_symmetry_space_group_name_H-M    'P -1'
_symmetry_space_group_name_Hall   '-P 1'
_symmetry_Int_Tables_number       2
_cell_length_a                    5.6676(3)
_cell_length_b                    10.5227(5)
_cell_length_c                    12.1824(6)
_cell_angle_alpha                 93.860(2)
_cell_angle_beta                  94.947(2)
_cell_angle_gamma                 98.214(2)
_cell_volume                      714.07(6)
loop_
  _refln_index_h
  _refln_index_k
  _refln_index_l
  _refln_F_squared_calc
  _refln_F_squared_meas
  _refln_F_squared_sigma
  _refln_F_squared_weight
  _refln_observed_status
-6 -4 1 67.901 75.790 4.022 1.871 o
-6 -4 2 41.800 45.071 1.687 5.025 o
-6 -3 1 27.448 21.279 1.072 11.343 o
-6 -3 2 13.349 12.229 1.075 24.563 o
-6 -3 3 11.386 13.358 0.905 28.553 o
-6 -3 4 13.821 12.391 0.736 27.238 o
-6 -3 5 42.343 47.268 1.219 5.135 o
-6 -2 1 31.863 40.705 1.172 7.261 o
-6 -2 2 45.589 48.871 1.332 4.641 o
-6 -2 3 0.012 -0.876 0.487 497.857 o
-6 -2 4 0.049 0.198 0.512 422.225 o
-6 -2 5 40.603 42.043 1.122 5.745 o
-6 -2 6 2.420 2.160 0.574 144.161 o
-6 -1 1 73.825 70.706 1.144 2.319 o
-6 -1 2 40.638 39.531 1.113 5.924 o
-6 -1 3 0.010 -0.430 0.491 490.561 o
-6 -1 4 0.003 -0.154 0.480 514.530 o
-6 -1 5 38.203 36.777 1.040 6.576 o
-6 -1 6 32.834 33.433 1.033 7.976 o
-6 -1 7 4.160 3.189 0.580 99.855 o
-6 0 1 100.027 96.016 1.564 1.360 o
-6 0 2 33.447 37.646 1.081 7.342 o
-6 0 3 30.487 30.603 0.950 9.024 o
-6 0 4 29.569 33.419 0.982 8.848 o
-6 0 5 2.090 2.178 0.514 167.167 o
-6 0 6 15.347 15.084 0.767 23.057 o
-6 0 7 0.093 -0.792 0.543 386.590 o
-6 1 1 57.018 60.095 1.238 3.338 o
-6 1 2 87.202 83.482 1.385 1.734 o
-6 1 3 19.078 16.378 0.811 18.413 o
-6 1 4 125.741 129.846 1.743 0.869 o
-6 1 5 73.638 73.504 1.287 2.261 o
-6 1 6 6.345 6.977 0.664 58.865 o
-6 1 7 0.852 1.631 0.745 152.060 o
-6 2 1 13.587 15.336 0.750 25.291 o
-6 2 2 8.507 7.282 0.546 50.971 o
-6 2 3 27.097 27.354 0.878 10.720 o
-6 2 4 77.048 74.315 1.268 2.139 o
-6 2 5 5.425 6.008 0.544 73.672 o
-6 2 6 70.543 69.330 1.373 2.437 o
-6 2 7 0.778 0.878 0.521 272.943 o
-6 3 1 6.780 6.250 1.026 44.946 o
-6 3 2 242.628 242.543 3.448 0.261 o
-6 3 3 136.093 135.318 1.765 0.772 o
-6 3 4 32.742 31.417 0.988 8.286 o
-6 3 5 6.723 6.420 0.570 61.829 o
-6 3 6 2.712 2.646 0.529 138.639 o
-6 3 7 0.595 0.997 0.500 299.078 o
-6 4 1 1.872 1.309 0.424 224.081 o
-6 4 2 60.286 57.439 1.302 3.208 o
-6 4 3 0.800 -0.041 0.439 396.697 o
-6 4 4 36.408 34.671 0.992 7.132 o
-6 4 5 15.168 16.015 0.816 22.388 o
-6 4 6 1.541 2.937 0.516 172.886 o
-6 5 1 149.519 141.136 1.961 0.670 o
-6 5 2 11.941 8.641 0.569 36.609 o
-6 5 3 26.959 27.748 0.896 10.669 o
-6 5 4 1.079 0.669 0.443 306.554 o
-6 5 5 0.007 0.554 0.453 489.577 o
-6 5 6 9.303 9.674 0.899 36.470 o
-6 6 1 22.432 25.599 0.878 13.060 o
-6 6 2 10.867 7.010 0.535 42.630 o
-6 6 3 11.933 10.710 0.599 33.780 o
-6 6 4 1.343 1.316 0.555 204.302 o
-6 7 1 0.821 0.737 0.448 329.273 o
-6 7 2 0.483 0.709 0.446 381.965 o
-5 -7 2 97.906 102.334 3.421 1.217 o
-5 -6 1 95.911 94.373 1.722 1.433 o
-5 -6 2 25.791 27.488 1.206 10.510 o
-5 -6 3 6.605 7.491 0.565 59.540 o
-5 -6 4 2.701 2.362 0.489 149.804 o
-5 -6 5 0.029 -0.099 0.444 591.739 o
-5 -6 6 9.405 9.302 0.621 42.166 o
-5 -5 1 129.891 134.997 1.428 0.823 o
-5 -5 2 8.456 6.623 0.482 54.293 o
-5 -5 3 165.964 173.118 1.657 0.525 o
-5 -5 4 5.604 7.535 0.448 70.261 o
-5 -5 5 5.012 6.881 0.451 77.948 o
-5 -5 6 2.462 3.716 0.438 146.043 o
-5 -5 7 32.616 33.652 1.013 8.022 o
-5 -4 1 21.794 25.358 0.733 13.807 o
-5 -4 2 39.662 42.089 0.800 6.059 o
-5 -4 3 7.042 7.129 0.557 58.361 o
-5 -4 4 3.289 3.311 0.388 136.381 o
-5 -4 5 56.738 60.423 0.920 3.411 o
-5 -4 6 23.053 24.106 0.846 13.202 o
-5 -4 7 9.325 10.868 0.545 41.227 o
-5 -4 8 29.384 32.267 1.020 9.003 o
-5 -3 1 86.612 89.992 1.045 1.695 o
-5 -3 2 1.244 1.298 0.314 332.242 o
-5 -3 3 40.906 44.377 0.741 5.736 o
-5 -3 4 28.404 27.723 0.633 10.535 o
-5 -3 5 53.532 50.424 0.772 4.035 o
-5 -3 6 18.534 18.381 0.584 18.948 o
-5 -3 7 29.922 26.885 0.783 9.972 o
-5 -3 8 75.278 70.423 1.277 2.259 o
-5 -3 9 4.517 6.422 0.592 77.074 o
-5 -2 1 11.503 10.091 0.453 37.226 o
-5 -2 2 229.174 234.255 1.943 0.292 o
-5 -2 3 99.313 97.624 1.043 1.380 o
-5 -2 4 0.236 0.221 0.328 775.129 o
-5 -2 5 43.976 45.489 0.827 5.227 o
-5 -2 6 0.439 0.542 0.446 405.021 o
-5 -2 7 28.118 30.922 0.985 9.615 o
-5 -2 8 6.187 7.929 0.585 59.985 o
-5 -2 9 9.927 14.573 1.005 28.624 o
-5 -2 10 20.074 19.992 0.931 15.822 o
-5 -1 1 0.425 -0.089 0.286 862.601 o
-5 -1 2 201.990 203.040 4.764 0.352 o
-5 -1 3 6.108 7.694 0.466 65.370 o
-5 -1 4 57.882 64.175 1.166 3.182 o
-5 -1 5 5.999 5.213 0.400 78.730 o
-5 -1 6 3.694 4.037 0.397 118.359 o
-5 -1 7 76.486 77.192 1.249 2.113 o
-5 -1 8 16.776 17.865 0.798 19.868 o
-5 -1 9 89.036 94.358 1.449 1.576 o
-5 -1 10 0.376 0.903 0.524 309.042 o
-5 0 1 0.069 -0.363 0.332 995.780 o
-5 0 2 156.016 160.055 1.850 0.592 o
-5 0 3 307.876 303.834 3.047 0.169 o
-5 0 4 226.469 227.543 2.420 0.300 o
-5 0 5 17.191 16.780 0.692 20.535 o
-5 0 6 9.512 9.347 0.497 43.885 o
-5 0 7 51.572 50.191 1.073 4.131 o
-5 0 8 2.265 1.967 0.436 183.604 o
-5 0 9 76.778 78.093 1.278 2.088 o
-5 0 10 23.651 26.932 0.945 12.033 o
-5 1 1 205.886 208.235 2.236 0.357 o
-5 1 2 3.493 2.392 0.375 144.800 o
-5 1 3 138.700 134.939 1.636 0.758 o
-5 1 4 1.629 1.183 0.366 270.221 o
-5 1 5 100.563 98.197 1.333 1.345 o
-5 1 6 4.098 4.443 0.757 78.124 o
-5 1 7 36.838 32.556 0.834 7.386 o
-5 1 8 7.512 9.119 0.528 51.752 o
-5 1 9 73.738 69.998 1.200 2.329 o
-5 1 10 90.905 92.731 1.765 1.535 o
-5 2 1 514.262 522.105 4.825 0.062 o
-5 2 2 254.147 262.616 2.674 0.237 o
-5 2 3 15.092 14.344 0.601 24.963 o
-5 2 4 21.116 20.702 0.681 15.746 o
-5 2 5 86.019 86.433 1.770 1.698 o
-5 2 6 11.434 13.020 0.603 32.309 o
-5 2 7 6.059 6.205 0.456 71.617 o
-5 2 8 62.417 68.978 1.357 2.789 o
-5 2 9 0.248 -0.044 0.503 415.414 o
-5 2 10 0.411 -0.337 0.595 291.367 o
-5 3 1 477.948 478.946 3.758 0.072 o
-5 3 2 155.154 154.199 2.671 0.598 o
-5 3 3 225.790 229.446 3.153 0.296 o
-5 3 4 62.353 62.864 1.019 2.999 o
-5 3 5 16.394 17.074 0.724 21.034 o
-5 3 6 8.512 9.002 0.499 48.297 o
-5 3 7 63.972 66.322 1.086 2.822 o
-5 3 8 196.400 202.250 2.224 0.385 o
-5 3 9 2.192 1.798 0.781 113.844 o
-5 3 10 6.851 5.847 1.514 30.789 o
-5 4 1 33.890 33.614 0.654 8.054 o
-5 4 2 35.698 33.456 0.629 7.676 o
-5 4 3 1.915 1.688 0.288 254.356 o
-5 4 4 18.641 18.828 0.594 18.618 o
-5 4 5 7.986 6.738 0.356 59.399 o
-5 4 6 1.808 1.632 0.555 176.834 o
-5 4 7 0.019 0.146 0.355 861.591 o
-5 4 8 2.989 3.140 0.530 126.313 o
-5 4 9 0.567 0.864 0.755 168.905 o
-5 5 1 3.638 3.734 0.301 131.650 o
-5 5 2 25.041 24.883 0.555 12.616 o
-5 5 3 20.004 15.094 0.499 19.389 o
-5 5 4 62.900 59.380 0.860 3.087 o
-5 5 5 0.002 0.257 0.363 796.253 o
-5 5 6 0.242 0.111 0.350 735.605 o
-5 5 7 3.193 3.424 0.501 123.091 o
-5 5 8 1.952 1.604 0.533 178.048 o
-5 5 9 3.168 3.814 1.290 49.389 o
-5 6 1 50.490 49.391 0.658 4.372 o
-5 6 2 0.932 0.280 0.256 567.741 o
-5 6 3 8.458 7.147 0.307 56.482 o
-5 6 4 23.865 24.748 0.665 13.035 o
-5 6 5 66.632 64.528 0.863 2.767 o
-5 6 6 19.592 19.616 0.691 17.186 o
-5 6 7 27.814 31.223 1.104 9.472 o
-5 6 8 5.216 4.067 0.767 70.105 o
-5 7 1 23.918 20.728 0.487 14.418 o
-5 7 2 6.321 4.806 0.447 75.680 o
-5 7 3 0.008 -0.350 0.245 1950.380 o
-5 7 4 12.753 8.297 0.458 36.240 o
-5 7 5 0.414 1.265 0.318 492.499 o
-5 7 6 64.080 59.251 2.384 2.688 o
-5 7 7 35.714 37.080 1.405 6.646 o
-5 8 1 23.079 20.853 0.506 14.848 o
-5 8 2 21.407 23.834 0.514 14.947 o
-5 8 3 45.495 43.723 0.663 5.206 o
-5 8 4 31.846 29.688 0.811 8.940 o
-5 8 5 1.029 1.528 0.491 244.803 o
-5 8 6 5.051 6.225 0.760 64.340 o
-5 9 1 71.581 74.870 0.836 2.353 o
-5 9 2 5.887 4.329 0.311 88.286 o
-5 9 3 16.768 23.931 0.557 18.162 o
-4 -8 1 11.367 10.316 1.017 29.595 o
-4 -8 2 16.089 15.255 1.110 19.732 o
-4 -8 3 31.915 30.417 1.015 8.584 o
-4 -8 4 8.149 7.623 0.665 48.755 o
-4 -8 5 4.099 4.789 0.549 92.936 o
-4 -8 6 27.645 27.741 0.997 10.257 o
-4 -7 1 3.240 2.355 0.370 153.572 o
-4 -7 2 30.786 32.021 0.726 8.999 o
-4 -7 3 20.203 19.716 0.635 16.872 o
-4 -7 4 16.628 17.571 0.645 20.931 o
-4 -7 5 0.011 -0.604 0.357 923.641 o
-4 -7 6 29.683 35.387 0.814 8.750 o
-4 -7 7 1.133 1.410 0.476 248.636 o
-4 -7 8 38.869 42.165 1.372 5.802 o
-4 -6 1 0.173 -0.580 0.300 1056.150 o
-4 -6 2 133.107 132.265 1.319 0.811 o
-4 -6 3 4.780 4.369 0.494 91.318 o
-4 -6 4 125.587 133.218 1.343 0.865 o
-4 -6 5 45.508 43.582 0.726 5.193 o
-4 -6 6 132.176 140.689 1.312 0.788 o
-4 -6 7 140.107 132.032 1.267 0.764 o
-4 -6 8 0.566 0.513 0.352 509.224 o
-4 -6 9 11.734 10.923 0.865 30.578 o
-4 -5 1 3.531 4.207 0.319 127.071 o
-4 -5 2 15.890 15.142 0.522 23.804 o
-4 -5 3 12.342 12.295 0.437 32.685 o
-4 -5 4 61.792 58.848 0.758 3.177 o
-4 -5 5 49.310 49.215 0.702 4.482 o
-4 -5 6 62.719 57.568 0.771 3.159 o
-4 -5 7 2.302 2.923 0.317 186.746 o
-4 -5 8 14.268 15.075 0.640 25.349 o
-4 -5 9 27.911 27.416 1.152 9.937 o
-4 -5 10 7.953 6.666 0.700 50.586 o
-4 -4 1 31.854 33.924 0.601 8.560 o
-4 -4 2 7.820 6.671 0.319 61.384 o
-4 -4 3 0.040 0.237 0.246 1459.070 o
-4 -4 4 7.145 6.014 0.303 68.661 o
-4 -4 5 18.327 21.903 0.503 17.863 o
-4 -4 6 31.728 29.230 0.567 9.273 o
-4 -4 7 2.891 1.024 0.278 213.016 o
-4 -4 8 4.906 4.012 0.397 98.530 o
-4 -4 9 31.901 34.611 0.897 8.201 o
-4 -4 10 0.000 0.495 0.386 654.446 o
-4 -4 11 80.599 74.708 1.172 2.034 o
-4 -3 1 0.816 0.761 0.222 564.489 o
-4 -3 2 9.514 10.514 0.387 43.411 o
-4 -3 3 119.023 129.238 1.120 0.942 o
-4 -3 4 11.555 10.086 0.483 36.773 o
-4 -3 5 1.031 1.014 0.239 447.311 o
-4 -3 6 10.606 9.508 0.366 41.664 o
-4 -3 7 0.109 0.369 0.252 1163.050 o
-4 -3 8 1.850 2.163 0.319 232.234 o
-4 -3 9 13.900 16.935 0.590 24.885 o
-4 -3 10 62.338 61.459 0.978 3.044 o
-4 -3 11 14.327 9.413 0.518 30.903 o
-4 -2 1 4.267 4.493 0.241 114.419 o
-4 -2 2 83.365 86.630 0.835 1.821 o
-4 -2 3 114.609 112.289 0.993 1.075 o
-4 -2 4 182.027 184.152 1.559 0.452 o
-4 -2 5 231.439 224.124 1.699 0.297 o
-4 -2 6 5.492 4.435 0.302 92.910 o
-4 -2 7 36.776 35.004 0.574 7.314 o
-4 -2 8 20.703 20.635 0.579 16.329 o
-4 -2 9 73.783 67.772 0.969 2.391 o
-4 -2 10 156.959 151.063 1.593 0.611 o
-4 -2 11 1.052 2.673 0.441 226.656 o
-4 -2 12 105.682 109.354 1.625 1.182 o
-4 -1 1 48.361 53.531 0.742 4.358 o
-4 -1 2 127.339 137.098 1.123 0.839 o
-4 -1 3 67.448 71.143 0.793 2.592 o
-4 -1 4 70.680 68.742 0.788 2.508 o
-4 -1 5 251.752 242.021 1.928 0.254 o
-4 -1 6 66.454 60.777 0.770 2.876 o
-4 -1 7 12.902 10.307 0.408 33.884 o
-4 -1 8 194.606 196.200 1.940 0.398 o
-4 -1 9 74.176 79.066 0.923 2.184 o
-4 -1 10 14.347 16.644 0.610 24.360 o
-4 -1 11 0.001 0.072 0.408 692.111 o
-4 -1 12 48.518 52.437 1.698 4.046 o
-4 0 1 0.043 0.010 0.180 3064.930 o
-4 0 2 92.614 82.166 1.035 1.650 o
-4 0 3 0.132 -0.207 0.227 1723.380 o
-4 0 4 266.628 277.753 2.483 0.216 o
-4 0 5 125.812 120.662 2.184 0.895 o
-4 0 6 220.044 233.518 2.243 0.306 o
-4 0 7 53.239 51.232 0.839 4.011 o
-4 0 8 151.486 153.777 1.501 0.632 o
-4 0 9 214.392 217.226 2.148 0.331 o
-4 0 10 7.413 7.764 0.458 57.372 o
-4 0 11 7.954 9.454 0.798 42.747 o
-4 0 12 18.912 19.321 1.254 15.317 o
-4 1 1 20.361 17.134 0.510 18.134 o
-4 1 2 517.642 527.375 4.450 0.061 o
-4 1 3 6.476 6.607 0.337 70.685 o
-4 1 4 236.042 221.051 4.489 0.280 o
-4 1 5 74.720 71.155 1.004 2.293 o
-4 1 6 735.378 730.352 6.472 0.031 o
-4 1 7 41.587 42.641 0.797 5.738 o
-4 1 8 41.536 39.114 0.940 5.928 o
-4 1 9 88.897 89.550 1.234 1.640 o
-4 1 10 8.555 7.264 0.576 50.088 o
-4 1 11 72.040 74.046 1.379 2.296 o
-4 1 12 0.020 0.300 0.626 286.771 o
-4 2 1 0.507 1.810 0.299 424.222 o
-4 2 2 163.284 151.717 2.657 0.568 o
-4 2 3 1.573 2.155 0.255 274.086 o
-4 2 4 408.481 399.723 4.152 0.099 o
-4 2 5 48.526 44.848 0.765 4.767 o
-4 2 6 477.777 471.105 4.318 0.073 o
-4 2 7 316.152 318.119 3.064 0.159 o
-4 2 8 4.099 4.234 0.513 99.616 o
-4 2 9 6.429 6.609 0.975 47.373 o
-4 2 10 1.523 2.128 0.427 219.640 o
-4 2 11 29.228 30.963 1.052 9.183 o
-4 2 12 12.855 13.190 0.785 27.662 o
-4 3 1 1.643 0.512 0.191 401.327 o
-4 3 2 17.027 17.971 0.403 21.243 o
-4 3 3 51.177 52.244 0.793 4.152 o
-4 3 4 20.378 19.053 0.671 16.874 o
-4 3 5 84.495 85.948 1.090 1.788 o
-4 3 6 5.430 5.266 0.351 86.461 o
-4 3 7 63.509 69.704 1.457 2.705 o
-4 3 8 7.539 7.104 0.759 49.580 o
-4 3 9 0.060 -0.439 0.757 204.471 o
-4 3 10 0.444 0.738 0.382 466.316 o
-4 3 11 31.669 36.097 1.112 7.849 o
-4 4 1 274.983 268.812 2.003 0.213 o
-4 4 2 0.456 -0.048 0.224 1074.870 o
-4 4 3 56.842 54.859 0.668 3.632 o
-4 4 4 31.649 40.799 0.585 7.787 o
-4 4 5 585.041 575.632 4.665 0.049 o
-4 4 6 43.867 40.300 0.735 5.611 o
-4 4 7 58.625 56.054 1.140 3.386 o
-4 4 8 86.427 83.541 1.608 1.735 o
-4 4 9 0.584 0.582 0.351 494.852 o
-4 4 10 21.595 21.786 0.771 14.842 o
-4 4 11 3.906 3.386 0.637 96.326 o
-4 5 1 49.392 54.574 0.637 4.240 o
-4 5 2 26.709 23.824 0.399 12.277 o
-4 5 3 13.495 16.379 0.526 26.267 o
-4 5 4 24.028 17.338 0.403 15.547 o
-4 5 5 15.472 14.495 0.420 25.302 o
-4 5 6 19.682 18.721 0.473 18.140 o
-4 5 7 52.005 53.263 0.752 4.048 o
-4 5 8 49.536 51.781 1.034 4.250 o
-4 5 9 10.341 10.278 0.536 39.188 o
-4 5 10 54.800 51.366 1.133 3.810 o
-4 5 11 100.198 102.992 1.956 1.285 o
-4 6 1 0.104 0.192 0.169 2169.150 o
-4 6 2 37.116 32.591 0.456 7.552 o
-4 6 3 3.596 2.257 0.195 164.203 o
-4 6 4 31.847 30.815 0.511 9.052 o
-4 6 5 45.335 39.410 0.600 5.520 o
-4 6 6 27.367 23.659 0.537 11.863 o
-4 6 7 17.003 15.227 0.587 22.079 o
-4 6 8 0.032 -0.220 0.348 948.427 o
-4 6 9 23.240 23.440 0.839 13.295 o
-4 6 10 76.608 80.408 1.437 2.043 o
-4 7 1 4.388 3.396 0.196 125.537 o
-4 7 2 103.792 90.667 0.838 1.370 o
-4 7 3 35.630 29.111 0.594 8.219 o
-4 7 4 87.272 91.241 0.940 1.672 o
-4 7 5 84.448 75.667 0.798 1.937 o
-4 7 6 40.750 38.852 0.739 6.171 o
-4 7 7 42.163 38.903 1.082 5.771 o
-4 7 8 80.447 82.629 1.417 1.908 o
-4 7 9 77.589 79.211 1.349 2.041 o
-4 8 1 0.930 1.095 0.482 274.951 o
-4 8 2 6.806 5.178 0.245 76.416 o
-4 8 3 24.477 25.256 0.460 12.932 o
-4 8 4 69.279 67.961 0.807 2.580 o
-4 8 5 2.485 2.290 0.333 189.798 o
-4 8 6 20.366 23.577 0.573 15.569 o
-4 8 7 31.123 28.429 0.825 9.308 o
-4 8 8 49.410 46.836 1.051 4.484 o
-4 9 1 66.215 58.912 1.215 2.872 o
-4 9 2 0.158 0.327 0.451 484.318 o
-4 9 3 4.613 4.397 0.445 96.650 o
-4 9 4 5.011 5.749 0.286 91.349 o
-4 9 5 11.999 12.427 0.456 33.136 o
-4 9 6 51.501 55.482 1.044 3.929 o
-4 9 7 58.245 55.949 1.397 3.350 o
-4 10 1 29.140 35.111 1.071 8.621 o
-4 10 2 0.618 0.597 0.613 238.587 o
-4 10 3 5.062 5.029 0.272 95.974 o
-4 10 4 14.014 15.175 0.470 26.722 o
-4 10 5 1.335 1.079 0.351 313.253 o
-3 -10 1 4.654 4.475 0.731 75.250 o
-3 -10 2 26.559 26.574 1.245 10.317 o
-3 -10 3 0.005 -0.173 0.608 320.940 o
-3 -10 4 3.695 2.608 0.564 113.414 o
-3 -9 1 90.845 91.158 1.436 1.572 o
-3 -9 2 3.529 3.076 0.482 122.124 o
-3 -9 3 20.854 23.000 0.711 15.092 o
-3 -9 4 21.465 22.040 0.744 14.919 o
-3 -9 5 24.814 27.999 1.087 11.033 o
-3 -9 6 66.835 69.862 1.478 2.557 o
-3 -9 7 114.133 124.197 2.243 0.982 o
-3 -8 1 35.824 35.136 1.015 7.181 o
-3 -8 2 44.387 46.187 0.877 5.117 o
-3 -8 3 1.072 1.595 0.345 317.445 o
-3 -8 4 76.467 80.129 1.018 2.089 o
-3 -8 5 115.106 117.116 1.290 1.037 o
-3 -8 6 8.346 8.568 0.493 50.029 o
-3 -8 7 145.594 145.322 2.384 0.673 o
-3 -8 8 9.427 9.613 0.732 39.529 o
-3 -8 9 60.821 62.938 1.470 2.992 o
-3 -7 1 132.952 125.462 1.235 0.839 o
-3 -7 2 165.965 170.539 1.734 0.529 o
-3 -7 3 39.686 37.116 0.627 6.541 o
-3 -7 4 49.979 46.492 0.666 4.559 o
-3 -7 5 346.760 343.680 2.489 0.135 o
-3 -7 6 22.796 24.339 0.515 13.977 o
-3 -7 7 18.077 18.646 0.507 19.508 o
-3 -7 8 5.659 6.943 0.416 73.424 o
-3 -7 9 37.253 37.536 1.605 6.158 o
-3 -7 10 11.968 13.920 0.752 28.865 o
-3 -6 1 51.971 47.598 0.682 4.312 o
-3 -6 2 3.602 2.567 0.265 151.990 o
-3 -6 3 74.421 70.434 0.822 2.331 o
-3 -6 4 7.689 6.187 0.288 64.463 o
-3 -6 5 164.298 164.967 1.714 0.547 o
-3 -6 6 3.012 1.626 0.235 197.985 o
-3 -6 7 25.073 25.229 0.485 12.615 o
-3 -6 8 16.348 20.840 0.498 20.148 o
-3 -6 9 19.889 20.190 0.602 17.028 o
-3 -6 10 74.365 80.208 1.379 2.119 o
-3 -6 11 0.001 -0.581 0.523 435.085 o
-3 -5 1 284.949 302.395 2.313 0.188 o
-3 -5 2 23.854 25.584 0.496 13.111 o
-3 -5 3 466.823 477.844 3.450 0.075 o
-3 -5 4 421.794 438.138 3.005 0.090 o
-3 -5 5 6.570 6.341 0.284 72.428 o
-3 -5 6 114.274 112.540 0.963 1.078 o
-3 -5 7 5.615 4.256 0.263 94.096 o
-3 -5 8 1.888 0.281 0.230 359.183 o
-3 -5 9 4.094 2.190 0.281 141.578 o
-3 -5 10 19.131 16.724 0.544 19.296 o
-3 -5 11 5.514 4.868 0.734 67.172 o
-3 -5 12 7.547 7.221 0.641 52.913 o
-3 -4 1 318.956 313.887 2.357 0.160 o
-3 -4 2 117.227 134.122 1.172 0.935 o
-3 -4 3 180.252 173.988 2.064 0.470 o
-3 -4 4 50.646 43.559 0.677 4.637 o
-3 -4 5 13.246 11.934 0.359 31.687 o
-3 -4 6 148.116 147.887 1.397 0.666 o
-3 -4 7 3.566 3.067 0.249 147.062 o
-3 -4 8 0.084 -0.054 0.248 1635.290 o
-3 -4 9 26.018 29.142 0.595 11.213 o
-3 -4 10 35.958 32.715 0.618 7.707 o
-3 -4 11 12.562 11.341 0.483 32.860 o
-3 -4 12 59.792 51.619 1.223 3.433 o
-3 -3 1 7.789 7.392 0.279 60.093 o
-3 -3 2 49.898 56.896 0.634 4.095 o
-3 -3 3 41.073 40.305 0.523 6.093 o
-3 -3 4 18.838 20.752 0.400 18.170 o
-3 -3 5 48.675 45.851 0.544 4.753 o
-3 -3 6 40.727 40.465 0.566 6.120 o
-3 -3 7 18.215 20.962 0.443 18.515 o
-3 -3 8 279.311 254.370 1.894 0.216 o
-3 -3 9 154.853 166.000 1.454 0.587 o
-3 -3 10 43.607 38.188 0.632 5.834 o
-3 -3 11 45.647 43.681 0.717 5.173 o
-3 -3 12 5.345 4.514 0.528 82.103 o
-3 -3 13 30.343 33.932 0.988 8.570 o
-3 -2 1 642.790 658.552 4.554 0.040 o
-3 -2 2 7.140 7.110 0.323 64.295 o
-3 -2 3 122.267 118.745 1.031 0.962 o
-3 -2 4 193.254 195.347 1.538 0.405 o
-3 -2 5 59.834 62.907 0.689 3.182 o
-3 -2 6 9.935 7.672 0.281 48.497 o
-3 -2 7 78.079 86.966 0.821 1.955 o
-3 -2 8 117.862 105.302 0.960 1.079 o
-3 -2 9 67.511 56.686 0.734 2.930 o
-3 -2 10 38.008 34.364 0.606 7.114 o
-3 -2 11 22.042 25.138 0.601 14.017 o
-3 -2 12 8.515 9.047 0.429 49.487 o
-3 -2 13 94.423 99.179 1.379 1.436 o
-3 -1 1 0.192 0.001 0.131 2801.730 o
-3 -1 2 336.378 339.550 2.440 0.142 o
-3 -1 3 584.580 574.749 4.251 0.049 o
-3 -1 4 30.195 26.190 0.389 10.400 o
-3 -1 5 251.824 234.634 1.920 0.259 o
-3 -1 6 438.682 448.800 3.021 0.084 o
-3 -1 7 456.338 448.892 3.040 0.080 o
-3 -1 8 8.835 10.409 0.349 46.591 o
-3 -1 9 137.397 127.972 2.624 0.769 o
-3 -1 10 21.212 22.028 0.625 15.396 o
-3 -1 11 42.154 37.444 0.757 6.054 o
-3 -1 12 22.167 21.068 0.941 14.202 o
-3 -1 13 20.724 19.532 0.938 15.525 o
-3 0 1 43.751 54.531 0.823 4.742 o
-3 0 2 6.007 2.758 0.212 101.061 o
-3 0 3 0.154 0.283 0.173 1725.300 o
-3 0 4 364.345 369.357 3.360 0.121 o
-3 0 5 541.765 538.080 4.056 0.057 o
-3 0 6 226.373 243.233 1.833 0.289 o
-3 0 7 382.044 356.569 2.808 0.117 o
-3 0 8 103.127 100.023 0.958 1.305 o
-3 0 9 3.472 3.295 0.282 143.330 o
-3 0 10 9.609 12.672 0.435 39.107 o
-3 0 11 47.425 42.859 0.700 5.017 o
-3 0 12 98.643 101.724 1.501 1.340 o
-3 0 13 0.374 0.661 0.512 333.538 o
-3 1 1 89.356 96.409 0.963 1.574 o
-3 1 2 12.286 15.565 0.404 29.730 o
-3 1 3 36.747 34.181 0.680 7.344 o
-3 1 4 58.244 62.440 0.871 3.264 o
-3 1 5 657.641 674.572 5.893 0.038 o
-3 1 6 688.340 680.717 5.410 0.036 o
-3 1 7 139.512 129.812 2.180 0.760 o
-3 1 8 0.019 0.326 0.233 1516.640 o
-3 1 9 123.669 122.754 1.132 0.929 o
-3 1 10 0.019 0.125 0.295 1215.950 o
-3 1 11 12.928 15.200 0.677 26.956 o
-3 1 12 82.999 87.914 1.449 1.776 o
-3 1 13 2.848 1.494 0.513 153.665 o
-3 2 1 297.204 300.243 2.147 0.180 o
-3 2 2 2.290 0.122 0.158 339.950 o
-3 2 3 67.203 50.406 0.679 3.119 o
-3 2 4 2.611 2.444 0.413 165.803 o
-3 2 5 550.965 558.349 4.927 0.054 o
-3 2 6 288.256 282.894 2.236 0.194 o
-3 2 7 5.992 6.528 0.346 74.780 o
-3 2 8 635.370 655.019 7.513 0.040 o
-3 2 9 133.688 136.441 1.574 0.788 o
-3 2 10 2.830 1.765 0.343 184.103 o
-3 2 11 55.143 53.935 1.053 3.711 o
-3 2 12 0.113 -0.419 0.433 587.430 o
-3 2 13 4.443 4.911 0.578 86.083 o
-3 3 1 2166.550 2134.260 14.130 0.004 o
-3 3 2 7.022 12.177 0.253 51.759 o
-3 3 3 875.388 868.163 6.252 0.022 o
-3 3 4 720.635 743.549 7.021 0.032 o
-3 3 5 4.065 6.148 0.280 101.882 o
-3 3 6 126.371 121.630 1.397 0.906 o
-3 3 7 2.670 2.090 0.304 191.609 o
-3 3 8 261.106 253.459 2.508 0.235 o
-3 3 9 26.528 28.740 0.708 10.941 o
-3 3 10 18.672 17.935 0.751 18.368 o
-3 3 11 1.525 1.393 0.405 252.864 o
-3 3 12 1.829 1.768 0.467 199.493 o
-3 4 1 120.012 133.714 1.042 0.914 o
-3 4 2 1.231 2.046 0.142 359.365 o
-3 4 3 95.471 125.862 1.091 1.226 o
-3 4 4 6.620 8.106 0.259 65.782 o
-3 4 5 19.826 15.800 0.350 19.629 o
-3 4 6 8.216 6.248 0.341 59.809 o
-3 4 7 3.831 3.598 0.346 124.760 o
-3 4 8 32.499 33.630 0.809 8.260 o
-3 4 9 201.395 210.697 3.477 0.356 o
-3 4 10 5.727 6.440 0.444 73.856 o
-3 4 11 1.281 1.717 0.423 251.260 o
-3 4 12 4.636 4.543 0.567 86.788 o
-3 5 1 72.147 80.702 1.571 2.159 o
-3 5 2 400.481 456.914 3.172 0.093 o
-3 5 3 132.981 113.850 0.942 0.890 o
-3 5 4 64.652 63.539 0.631 2.911 o
-3 5 5 342.958 338.138 2.592 0.139 o
-3 5 6 14.128 11.300 0.425 30.144 o
-3 5 7 220.902 215.937 2.021 0.321 o
-3 5 8 0.634 1.517 0.376 360.481 o
-3 5 9 116.652 117.031 1.471 1.017 o
-3 5 10 26.796 25.706 0.901 11.098 o
-3 5 11 19.839 20.599 0.845 16.102 o
-3 5 12 8.493 8.818 0.657 45.348 o
-3 6 1 26.767 24.155 0.722 11.739 o
-3 6 2 14.793 15.806 0.457 25.159 o
-3 6 3 70.528 77.812 0.928 2.330 o
-3 6 4 23.944 27.864 0.425 12.598 o
-3 6 5 386.231 385.281 3.519 0.109 o
-3 6 6 79.266 73.161 0.825 2.123 o
-3 6 7 254.340 242.770 2.059 0.250 o
-3 6 8 347.177 351.300 3.100 0.133 o
-3 6 9 40.834 40.496 0.866 5.970 o
-3 6 10 11.588 11.991 0.604 33.070 o
-3 6 11 10.913 9.409 0.656 37.069 o
-3 7 1 260.838 256.736 2.549 0.233 o
-3 7 2 23.973 25.801 0.353 13.172 o
-3 7 3 3.789 3.440 0.210 138.682 o
-3 7 4 0.213 0.068 0.186 1771.550 o
-3 7 5 6.739 5.611 0.247 75.011 o
-3 7 6 43.658 46.513 0.666 5.259 o
-3 7 7 286.312 291.955 2.417 0.191 o
-3 7 8 252.397 253.074 2.599 0.245 o
-3 7 9 55.007 54.385 1.095 3.694 o
-3 7 10 33.894 33.366 0.972 7.808 o
-3 8 1 494.832 514.059 5.258 0.065 o
-3 8 2 9.509 7.802 0.469 47.244 o
-3 8 3 27.341 28.408 0.413 11.029 o
-3 8 4 78.654 79.181 0.889 2.046 o
-3 8 5 14.049 14.735 0.422 27.280 o
-3 8 6 236.608 231.135 1.971 0.282 o
-3 8 7 83.681 76.686 0.944 1.936 o
-3 8 8 6.715 7.082 0.485 62.765 o
-3 8 9 0.635 0.284 0.620 243.258 o
-3 9 1 117.731 116.021 1.639 1.007 o
-3 9 2 116.047 117.740 1.371 1.022 o
-3 9 3 136.938 142.330 1.188 0.751 o
-3 9 4 9.121 10.404 0.401 44.817 o
-3 9 5 23.394 26.036 0.657 12.964 o
-3 9 6 60.806 60.094 0.740 3.201 o
-3 9 7 1.811 1.587 0.397 229.011 o
-3 9 8 0.356 0.330 0.414 493.305 o
-3 10 1 8.618 7.215 0.552 50.485 o
-3 10 2 12.464 12.925 0.376 32.184 o
-3 10 3 133.777 134.080 1.302 0.800 o
-3 10 4 51.007 51.572 0.846 4.183 o
-3 10 5 3.401 4.496 0.310 127.524 o
-3 10 6 49.659 54.861 1.032 4.107 o
-3 11 1 0.574 -0.075 0.508 355.265 o
-3 11 2 0.032 0.374 0.221 1525.810 o
-3 11 3 15.203 17.685 0.468 23.309 o
-3 11 4 58.223 59.712 0.940 3.337 o
-2 -11 1 4.941 3.997 0.651 80.477 o
-2 -11 2 0.094 -0.014 0.586 333.991 o
-2 -11 3 4.557 3.210 0.849 72.365 o
-2 -11 4 2.287 1.994 0.693 125.960 o
-2 -10 1 177.818 175.349 2.085 0.476 o
-2 -10 2 46.357 50.323 1.079 4.602 o
-2 -10 3 1.234 0.316 0.364 370.328 o
-2 -10 4 0.302 0.180 0.345 694.070 o
-2 -10 5 173.202 178.382 2.599 0.481 o
-2 -10 6 186.254 187.375 2.550 0.428 o
-2 -10 7 0.009 -0.684 0.608 320.402 o
-2 -9 1 78.421 77.133 1.081 2.070 o
-2 -9 2 47.228 49.137 0.858 4.651 o
-2 -9 3 136.051 133.838 1.479 0.782 o
-2 -9 4 1.599 1.413 0.285 297.803 o
-2 -9 5 1.044 1.955 0.313 316.623 o
-2 -9 6 19.349 17.715 0.793 17.727 o
-2 -9 7 40.167 39.256 1.005 6.083 o
-2 -9 8 48.459 47.440 1.388 4.408 o
-2 -9 9 5.461 4.247 0.806 65.480 o
-2 -8 1 9.097 8.638 0.460 47.386 o
-2 -8 2 99.073 99.198 1.180 1.367 o
-2 -8 3 628.681 636.887 5.237 0.042 o
-2 -8 4 37.338 38.670 0.583 6.842 o
-2 -8 5 35.031 36.840 0.554 7.497 o
-2 -8 6 30.087 33.100 0.848 8.913 o
-2 -8 7 0.993 1.545 0.546 220.373 o
-2 -8 8 112.343 119.624 1.644 1.044 o
-2 -8 9 0.837 -0.215 0.483 344.693 o
-2 -8 10 130.255 135.987 2.370 0.797 o
-2 -7 1 144.897 153.523 1.555 0.666 o
-2 -7 2 300.239 296.441 2.622 0.178 o
-2 -7 3 161.169 167.755 1.506 0.556 o
-2 -7 4 661.343 664.419 4.969 0.038 o
-2 -7 5 4.541 4.824 0.255 106.043 o
-2 -7 6 38.526 40.968 0.733 6.362 o
-2 -7 7 28.139 28.210 1.013 9.989 o
-2 -7 8 28.416 29.670 0.979 9.726 o
-2 -7 9 25.956 26.376 1.305 10.411 o
-2 -7 10 3.886 5.187 0.531 94.561 o
-2 -7 11 7.176 9.867 0.647 48.626 o
-2 -6 1 152.171 152.088 1.496 0.633 o
-2 -6 2 892.885 894.587 9.612 0.021 o
-2 -6 3 116.028 117.597 1.113 1.029 o
-2 -6 4 486.817 466.911 3.553 0.072 o
-2 -6 5 13.878 14.233 0.352 28.344 o
-2 -6 6 91.941 82.563 1.137 1.655 o
-2 -6 7 66.846 64.405 1.142 2.725 o
-2 -6 8 18.002 13.077 0.524 22.460 o
-2 -6 9 23.126 24.229 0.656 13.564 o
-2 -6 10 1.726 1.247 0.423 236.032 o
-2 -6 11 44.093 41.296 1.106 5.344 o
-2 -6 12 3.856 4.578 0.583 94.421 o
-2 -5 1 72.253 87.264 0.782 2.124 o
-2 -5 2 1008.810 1035.780 6.618 0.016 o
-2 -5 3 21.037 24.363 0.372 15.254 o
-2 -5 4 145.143 146.954 1.200 0.687 o
-2 -5 5 30.087 28.337 0.400 10.058 o
-2 -5 6 101.711 90.462 0.754 1.409 o
-2 -5 7 255.266 274.514 1.845 0.231 o
-2 -5 8 10.199 16.514 0.523 32.024 o
-2 -5 9 1.900 1.720 0.305 249.031 o
-2 -5 10 14.138 16.651 0.610 24.632 o
-2 -5 11 5.079 5.510 0.425 85.466 o
-2 -5 12 22.020 26.641 0.962 12.791 o
-2 -5 13 16.973 17.204 0.919 19.316 o
-2 -4 1 1118.150 1105.420 8.083 0.014 o
-2 -4 2 41.222 47.291 0.495 5.573 o
-2 -4 3 394.945 396.960 2.650 0.104 o
-2 -4 4 47.757 51.187 0.546 4.572 o
-2 -4 5 13.149 13.056 0.302 31.050 o
-2 -4 6 49.503 46.770 0.485 4.630 o
-2 -4 7 34.993 39.600 0.459 7.261 o
-2 -4 8 181.808 178.706 1.298 0.462 o
-2 -4 9 5.154 4.697 0.229 98.710 o
-2 -4 10 0.781 1.999 0.224 405.645 o
-2 -4 11 0.323 -0.063 0.234 1217.720 o
-2 -4 12 49.145 46.026 0.714 4.655 o
-2 -4 13 0.488 0.834 0.519 304.553 o
-2 -3 1 263.322 243.245 3.024 0.236 o
-2 -3 2 259.941 297.410 2.135 0.213 o
-2 -3 3 1812.190 1724.250 16.335 0.005 o
-2 -3 4 18.064 14.494 0.272 22.397 o
-2 -3 5 2.613 4.601 0.204 156.808 o
-2 -3 6 276.572 271.905 1.890 0.210 o
-2 -3 7 192.155 210.094 1.529 0.389 o
-2 -3 8 2.769 2.777 0.190 187.820 o
-2 -3 9 202.008 194.776 1.418 0.384 o
-2 -3 10 13.030 12.029 0.377 31.928 o
-2 -3 11 0.012 0.266 0.387 704.484 o
-2 -3 12 24.454 24.971 0.663 12.696 o
-2 -3 13 2.561 2.457 0.387 172.404 o
-2 -2 1 3.376 1.995 0.129 183.659 o
-2 -2 2 14.834 13.127 0.245 28.073 o
-2 -2 3 517.583 509.850 4.619 0.062 o
-2 -2 4 307.979 315.712 2.119 0.166 o
-2 -2 5 1511.910 1461.860 9.199 0.008 o
-2 -2 6 1850.370 1781.450 11.188 0.005 o
-2 -2 7 516.070 532.645 3.338 0.061 o
-2 -2 8 29.064 28.560 0.477 10.312 o
-2 -2 9 94.882 103.728 0.952 1.406 o
-2 -2 10 59.029 53.859 0.670 3.516 o
-2 -2 11 4.215 2.076 0.278 140.128 o
-2 -2 12 29.173 30.702 0.630 9.775 o
-2 -2 13 90.852 91.770 1.047 1.587 o
-2 -2 14 0.139 -1.159 0.528 399.799 o
-2 -1 1 1352.470 1278.830 8.722 0.010 o
-2 -1 2 62.266 56.636 0.518 3.241 o
-2 -1 3 817.908 863.821 5.815 0.024 o
-2 -1 4 709.433 717.067 4.861 0.033 o
-2 -1 5 224.198 207.940 1.557 0.324 o
-2 -1 6 245.322 261.712 1.925 0.250 o
-2 -1 7 3.989 4.947 0.209 117.010 o
-2 -1 8 63.274 63.165 0.690 2.986 o
-2 -1 9 21.570 18.692 0.400 16.810 o
-2 -1 10 136.059 141.152 1.272 0.760 o
-2 -1 11 0.246 0.785 0.327 619.253 o
-2 -1 12 53.185 57.698 0.830 3.766 o
-2 -1 13 36.343 40.650 0.812 6.719 o
-2 -1 14 4.594 5.419 0.731 71.972 o
-2 0 1 91.463 117.307 0.890 1.353 o
-2 0 2 320.976 287.205 2.353 0.167 o
-2 0 3 110.928 116.702 1.076 1.090 o
-2 0 4 1853.850 1668.410 11.068 0.005 o
-2 0 5 598.674 607.462 3.918 0.046 o
-2 0 6 386.408 384.112 2.565 0.110 o
-2 0 7 152.056 149.567 1.723 0.637 o
-2 0 8 307.427 291.992 2.057 0.175 o
-2 0 9 4.915 4.494 0.232 103.718 o
-2 0 10 56.687 54.454 0.655 3.659 o
-2 0 11 24.457 22.878 0.513 13.476 o
-2 0 12 44.956 45.962 0.739 5.112 o
-2 0 13 38.807 35.296 0.860 6.727 o
-2 0 14 0.039 -0.759 0.490 483.841 o
-2 1 1 1610.580 1432.260 12.281 0.007 o
-2 1 2 1755.090 1578.980 12.094 0.006 o
-2 1 3 100.066 116.101 1.149 1.228 o
-2 1 4 266.759 236.756 1.822 0.239 o
-2 1 5 122.007 108.301 1.005 1.017 o
-2 1 6 51.285 54.217 0.623 4.093 o
-2 1 7 7.541 7.841 0.256 60.626 o
-2 1 8 83.558 75.185 0.778 1.969 o
-2 1 9 348.398 348.248 2.606 0.133 o
-2 1 10 59.483 58.134 0.800 3.330 o
-2 1 11 20.508 21.913 0.611 15.937 o
-2 1 12 0.036 -0.071 0.331 1036.760 o
-2 1 13 2.240 2.054 0.473 173.819 o
-2 1 14 1.694 2.612 0.711 128.394 o
-2 2 1 214.950 249.104 2.023 0.302 o
-2 2 2 2969.630 2728.490 29.458 0.002 o
-2 2 3 3.806 9.096 0.246 87.126 o
-2 2 4 0.976 2.890 0.128 338.427 o
-2 2 5 33.312 42.027 0.758 7.195 o
-2 2 6 29.200 30.771 0.603 9.782 o
-2 2 7 2.678 2.575 0.235 191.061 o
-2 2 8 27.656 31.596 0.640 10.114 o
-2 2 9 362.537 371.598 3.547 0.121 o
-2 2 10 62.521 56.565 0.804 3.195 o
-2 2 11 198.767 201.015 1.854 0.383 o
-2 2 12 39.089 40.091 0.941 6.225 o
-2 2 13 0.008 0.159 0.488 476.411 o
-2 3 1 65.071 92.590 0.676 2.280 o
-2 3 2 1289.460 1275.510 7.990 0.010 o
-2 3 3 92.387 76.984 1.003 1.713 o
-2 3 4 119.828 148.121 2.309 0.830 o
-2 3 5 89.268 84.254 1.077 1.698 o
-2 3 6 40.002 34.660 0.575 6.726 o
-2 3 7 130.163 124.220 1.379 0.864 o
-2 3 8 169.589 174.524 1.884 0.507 o
-2 3 9 24.851 25.659 0.632 12.402 o
-2 3 10 67.229 69.592 1.078 2.603 o
-2 3 11 229.434 237.319 2.512 0.287 o
-2 3 12 0.243 0.556 0.444 447.072 o
-2 3 13 1.982 1.314 0.493 194.823 o
-2 4 1 1196.640 1194.960 11.351 0.012 o
-2 4 2 203.700 250.714 1.873 0.321 o
-2 4 3 652.590 678.794 4.915 0.038 o
-2 4 4 152.159 206.296 1.626 0.515 o
-2 4 5 173.911 151.763 1.298 0.538 o
-2 4 6 139.804 142.335 1.511 0.729 o
-2 4 7 11.295 12.529 0.495 34.265 o
-2 4 8 154.860 152.349 1.858 0.615 o
-2 4 9 19.486 19.696 0.596 17.549 o
-2 4 10 80.315 80.542 1.171 1.960 o
-2 4 11 31.039 28.974 1.226 8.697 o
-2 4 12 81.509 80.474 1.313 1.917 o
-2 4 13 1.740 2.559 0.591 153.795 o
-2 5 1 169.945 182.483 2.004 0.491 o
-2 5 2 8.016 14.056 0.218 44.088 o
-2 5 3 79.431 89.301 0.803 1.888 o
-2 5 4 8.249 7.410 0.226 58.114 o
-2 5 5 131.523 144.090 1.305 0.781 o
-2 5 6 114.563 110.783 1.231 1.079 o
-2 5 7 29.725 25.954 0.645 10.367 o
-2 5 8 110.678 106.690 1.538 1.140 o
-2 5 9 19.503 19.969 0.627 17.331 o
-2 5 10 70.717 74.985 1.154 2.353 o
-2 5 11 111.927 115.611 1.558 1.073 o
-2 5 12 49.094 48.722 1.414 4.282 o
-2 6 1 107.601 100.865 1.488 1.218 o
-2 6 2 240.018 248.199 1.783 0.266 o
-2 6 3 3.105 3.132 0.171 168.169 o
-2 6 4 294.076 307.566 2.969 0.178 o
-2 6 5 0.118 1.056 0.166 1045.570 o
-2 6 6 334.508 320.170 2.741 0.148 o
-2 6 7 236.026 245.765 2.740 0.270 o
-2 6 8 19.882 21.564 1.102 14.774 o
-2 6 9 75.690 77.370 1.297 2.131 o
-2 6 10 106.291 109.424 1.472 1.179 o
-2 6 11 94.023 87.668 1.491 1.541 o
-2 6 12 20.817 22.850 1.050 14.088 o
-2 7 1 35.877 34.080 0.820 7.438 o
-2 7 2 1509.070 1431.710 17.495 0.008 o
-2 7 3 18.140 17.950 0.327 20.285 o
-2 7 4 393.732 382.835 2.915 0.107 o
-2 7 5 620.043 628.109 4.658 0.043 o
-2 7 6 67.062 63.236 0.738 2.791 o
-2 7 7 1.524 1.709 0.278 292.899 o
-2 7 8 7.605 7.142 0.454 58.138 o
-2 7 9 25.624 26.120 0.864 11.549 o
-2 7 10 20.466 19.744 0.835 16.007 o
-2 7 11 38.914 36.925 1.062 6.428 o
-2 8 1 34.240 32.094 0.566 8.213 o
-2 8 2 223.128 227.230 1.713 0.308 o
-2 8 3 81.962 79.159 0.800 1.957 o
-2 8 4 1416.620 1375.510 9.921 0.009 o
-2 8 5 270.927 279.234 2.697 0.210 o
-2 8 6 10.559 12.141 0.531 36.137 o
-2 8 7 139.247 134.637 1.716 0.754 o
-2 8 8 6.948 6.873 0.495 61.622 o
-2 8 9 17.949 16.714 0.883 18.877 o
-2 8 10 6.003 5.101 0.617 69.058 o
-2 9 1 79.971 81.804 0.795 1.976 o
-2 9 2 4.634 5.649 0.400 91.150 o
-2 9 3 682.706 688.029 6.073 0.036 o
-2 9 4 1.423 1.075 0.232 368.542 o
-2 9 5 0.169 0.409 0.320 782.365 o
-2 9 6 3.969 4.112 0.307 119.749 o
-2 9 7 0.359 0.380 0.312 698.998 o
-2 9 8 2.002 2.453 0.526 162.638 o
-2 9 9 3.053 2.821 0.560 124.093 o
-2 10 1 15.949 17.188 0.406 22.932 o
-2 10 2 0.727 1.706 0.223 449.523 o
-2 10 3 211.093 212.148 1.805 0.344 o
-2 10 4 52.886 55.481 0.752 3.888 o
-2 10 5 30.821 31.068 0.705 9.145 o
-2 10 6 10.443 8.328 0.452 43.106 o
-2 10 7 3.917 4.576 0.539 97.531 o
-2 11 1 47.791 45.131 0.660 4.860 o
-2 11 2 1.585 1.551 0.276 295.389 o
-2 11 3 54.920 57.529 0.791 3.654 o
-2 11 4 139.551 137.267 1.364 0.749 o
-2 11 5 19.408 18.011 0.929 16.977 o
-2 12 1 15.607 16.633 0.611 22.770 o
-2 12 2 31.854 33.243 0.720 8.552 o
-1 -11 1 30.271 33.049 0.975 8.719 o
-1 -11 2 68.971 67.045 1.773 2.477 o
-1 -11 3 10.291 10.072 1.011 31.838 o
-1 -11 4 117.899 121.499 3.493 0.907 o
-1 -11 5 133.008 130.730 3.414 0.765 o
-1 -11 6 20.946 21.035 1.057 14.494 o
-1 -10 1 0.427 0.190 0.318 698.324 o
-1 -10 2 15.582 14.827 0.591 24.036 o
-1 -10 3 13.054 12.701 0.740 28.186 o
-1 -10 4 0.581 0.392 0.252 710.706 o
-1 -10 5 9.566 9.027 0.558 43.229 o
-1 -10 6 61.734 64.960 1.473 2.895 o
-1 -10 7 13.617 13.911 1.130 22.685 o
-1 -10 8 23.108 22.306 1.097 12.913 o
-1 -9 1 3.309 2.106 0.368 155.583 o
-1 -9 2 276.230 296.987 2.681 0.197 o
-1 -9 3 770.807 793.477 7.800 0.028 o
-1 -9 4 26.871 27.662 0.527 11.250 o
-1 -9 5 0.884 1.374 0.399 319.235 o
-1 -9 6 46.119 45.579 1.023 4.896 o
-1 -9 7 12.817 12.983 0.752 28.227 o
-1 -9 8 7.960 7.345 0.542 53.473 o
-1 -9 9 64.467 63.774 1.607 2.766 o
-1 -9 10 0.004 0.005 0.600 329.085 o
-1 -8 1 185.081 178.771 1.724 0.450 o
-1 -8 2 15.095 14.608 0.415 25.792 o
-1 -8 3 242.964 237.327 1.963 0.269 o
-1 -8 4 217.504 219.082 1.988 0.324 o
-1 -8 5 61.414 58.892 0.956 3.169 o
-1 -8 6 83.510 83.271 1.191 1.839 o
-1 -8 7 32.173 29.092 1.113 8.558 o
-1 -8 8 16.299 18.301 0.722 20.517 o
-1 -8 9 30.477 29.309 0.871 9.311 o
-1 -8 10 0.498 0.867 0.465 349.077 o
-1 -8 11 33.026 25.730 1.204 8.638 o
-1 -7 1 413.763 401.585 7.681 0.094 o
-1 -7 2 1.207 1.315 0.207 399.330 o
-1 -7 3 41.758 43.210 0.560 5.763 o
-1 -7 4 1.118 1.190 0.236 411.090 o
-1 -7 5 713.568 716.030 7.130 0.033 o
-1 -7 6 342.154 325.967 3.167 0.142 o
-1 -7 7 92.702 86.281 1.198 1.597 o
-1 -7 8 96.447 99.010 1.356 1.404 o
-1 -7 9 27.914 27.371 0.908 10.380 o
-1 -7 10 173.370 179.638 2.126 0.483 o
-1 -7 11 3.772 3.658 0.500 110.263 o
-1 -7 12 29.823 36.929 1.191 8.075 o
-1 -6 1 730.401 756.972 5.551 0.031 o
-1 -6 2 179.756 172.550 1.438 0.478 o
-1 -6 3 73.032 71.577 0.765 2.365 o
-1 -6 4 134.320 139.256 1.176 0.780 o
-1 -6 5 129.063 133.198 1.674 0.832 o
-1 -6 6 16.813 19.144 0.862 18.918 o
-1 -6 7 41.606 36.224 0.736 6.245 o
-1 -6 8 28.224 27.672 0.709 10.514 o
-1 -6 9 34.200 37.147 0.823 7.465 o
-1 -6 10 83.090 86.582 1.303 1.800 o
-1 -6 11 0.091 -0.237 0.453 547.337 o
-1 -6 12 67.719 68.562 1.290 2.576 o
-1 -6 13 42.511 45.854 1.540 5.004 o
-1 -5 1 220.959 189.492 1.540 0.348 o
-1 -5 2 51.065 49.600 0.557 4.328 o
-1 -5 3 469.289 458.120 3.655 0.076 o
-1 -5 4 288.101 265.370 2.225 0.202 o
-1 -5 5 0.105 0.440 0.226 1261.600 o
-1 -5 6 490.599 477.310 4.848 0.070 o
-1 -5 7 104.221 100.472 1.236 1.277 o
-1 -5 8 10.590 8.108 0.500 42.286 o
-1 -5 9 5.828 5.371 0.329 82.479 o
-1 -5 10 53.184 48.892 0.787 4.125 o
-1 -5 11 49.566 50.936 0.875 4.333 o
-1 -5 12 6.886 5.867 0.527 64.126 o
-1 -5 13 82.025 81.149 1.435 1.885 o
-1 -4 1 685.829 678.291 4.924 0.036 o
-1 -4 2 1.612 0.871 0.107 406.510 o
-1 -4 3 317.045 304.671 2.461 0.164 o
-1 -4 4 1640.120 1558.080 13.123 0.007 o
-1 -4 5 34.551 37.961 0.676 7.409 o
-1 -4 6 19.037 17.688 0.417 19.318 o
-1 -4 7 107.739 106.997 1.047 1.189 o
-1 -4 8 1.582 0.869 0.217 367.188 o
-1 -4 9 41.448 47.062 0.500 5.557 o
-1 -4 10 19.063 14.573 0.449 20.739 o
-1 -4 11 30.793 32.015 0.538 9.162 o
-1 -4 12 2.731 4.200 0.375 140.869 o
-1 -4 13 80.577 83.689 1.402 1.892 o
-1 -3 1 379.626 385.951 2.840 0.112 o
-1 -3 2 10.208 6.217 0.166 51.607 o
-1 -3 3 510.161 487.449 3.143 0.066 o
-1 -3 4 222.252 252.772 1.693 0.289 o
-1 -3 5 1177.010 1121.310 8.823 0.013 o
-1 -3 6 45.733 52.016 0.511 4.744 o
-1 -3 7 154.319 158.533 1.256 0.609 o
-1 -3 8 1.038 0.411 0.172 602.472 o
-1 -3 9 250.456 250.492 1.822 0.250 o
-1 -3 10 31.281 30.765 0.497 9.232 o
-1 -3 11 241.008 251.267 1.900 0.262 o
-1 -3 12 80.200 79.238 0.971 1.995 o
-1 -3 13 2.885 1.841 0.355 177.927 o
-1 -3 14 13.953 12.903 0.819 25.891 o
-1 -2 1 2078.730 1888.400 19.059 0.004 o
-1 -2 2 18.845 34.079 0.501 13.499 o
-1 -2 3 1659.020 1423.180 11.479 0.007 o
-1 -2 4 1521.760 1547.530 9.663 0.007 o
-1 -2 5 731.451 752.630 5.422 0.031 o
-1 -2 6 788.969 826.654 6.751 0.026 o
-1 -2 7 150.544 145.842 1.098 0.661 o
-1 -2 8 2.822 2.391 0.165 197.448 o
-1 -2 9 164.454 153.887 1.153 0.574 o
-1 -2 10 21.007 20.326 0.444 16.537 o
-1 -2 11 229.262 220.128 1.801 0.303 o
-1 -2 12 1.037 1.323 0.279 384.065 o
-1 -2 13 11.421 9.559 0.533 37.229 o
-1 -2 14 14.951 13.974 0.686 24.841 o
-1 -1 1 871.061 818.480 6.485 0.023 o
-1 -1 5 476.872 476.458 3.282 0.073 o
-1 -1 6 600.315 626.368 4.036 0.045 o
-1 -1 7 151.312 139.929 1.468 0.669 o
-1 -1 8 6.759 8.211 0.274 64.172 o
-1 -1 9 122.284 109.961 0.955 1.006 o
-1 -1 10 141.554 149.269 1.318 0.700 o
-1 -1 11 6.467 7.964 0.327 65.918 o
-1 -1 12 34.615 36.228 0.632 7.607 o
-1 -1 13 4.202 3.380 0.376 116.814 o
-1 -1 14 1.563 0.768 0.404 276.660 o
-1 0 1 77.168 77.922 1.012 2.101 o
-1 0 2 267.156 253.318 2.000 0.229 o
-1 0 3 436.178 437.532 2.792 0.086 o
-1 0 4 12.198 19.105 0.238 27.498 o
-1 0 5 22.046 25.815 0.299 14.279 o
-1 0 6 221.786 238.685 1.648 0.301 o
-1 0 7 297.214 315.068 2.271 0.174 o
-1 0 8 13.531 15.794 0.340 27.657 o
-1 0 9 29.020 28.836 0.440 10.310 o
-1 0 10 74.487 77.732 0.788 2.205 o
-1 0 11 10.338 10.240 0.358 41.436 o
-1 0 12 56.152 57.624 0.896 3.546 o
-1 0 13 0.878 0.990 0.354 382.555 o
-1 0 14 0.031 0.146 0.434 588.461 o
-1 1 3 172.388 153.108 1.292 0.541 o
-1 1 4 385.974 350.411 2.816 0.116 o
-1 1 5 31.190 26.908 0.272 10.001 o
-1 1 6 143.100 143.893 1.066 0.709 o
-1 1 7 2.151 2.299 0.189 237.212 o
-1 1 8 117.818 118.434 1.026 1.008 o
-1 1 9 33.741 35.426 0.546 7.946 o
-1 1 10 159.726 154.791 1.264 0.592 o
-1 1 11 20.608 21.668 0.523 16.170 o
-1 1 12 56.172 54.541 0.931 3.644 o
-1 1 13 9.172 8.423 0.443 47.815 o
-1 1 14 55.617 58.521 1.317 3.455 o
-1 2 1 1254.470 1064.000 8.925 0.012 o
-1 2 3 21.348 20.458 0.433 16.265 o
-1 2 4 65.148 82.750 0.969 2.434 o
-1 2 5 101.842 99.797 0.975 1.325 o
-1 2 6 63.371 60.964 0.773 3.029 o
-1 2 7 104.407 114.611 1.145 1.180 o
-1 2 8 24.798 29.932 0.432 11.738 o
-1 2 9 37.184 37.028 0.523 7.054 o
-1 2 10 0.066 0.103 0.201 2125.490 o
-1 2 11 10.861 11.326 0.405 37.779 o
-1 2 12 83.193 86.238 1.114 1.815 o
-1 2 13 0.730 0.123 0.453 382.914 o
-1 2 14 6.857 9.835 0.700 48.544 o
-1 3 1 179.763 166.580 2.089 0.484 o
-1 3 2 59.046 75.601 0.640 2.889 o
-1 3 3 5.104 6.725 0.141 88.441 o
-1 3 4 0.664 0.855 0.121 736.781 o
-1 3 5 835.952 913.886 7.828 0.023 o
-1 3 6 1.833 1.585 0.202 293.245 o
-1 3 7 27.974 26.939 0.543 10.942 o
-1 3 8 109.603 120.548 1.390 1.076 o
-1 3 9 163.688 162.093 4.672 0.510 o
-1 3 10 6.569 8.064 0.547 58.696 o
-1 3 11 215.029 219.958 1.994 0.328 o
-1 3 12 11.221 11.498 0.594 34.567 o
-1 3 13 52.406 58.059 1.913 3.479 o
-1 4 1 49.697 55.817 0.575 4.169 o
-1 4 2 73.898 67.182 0.560 2.428 o
-1 4 3 309.300 272.275 1.826 0.181 o
-1 4 4 243.780 237.365 2.003 0.268 o
-1 4 5 260.985 265.786 5.808 0.216 o
-1 4 6 259.766 281.881 2.672 0.220 o
-1 4 7 31.408 41.934 0.783 7.580 o
-1 4 8 2.496 2.320 0.305 194.160 o
-1 4 9 95.351 84.544 1.295 1.557 o
-1 4 10 0.665 0.852 0.368 421.255 o
-1 4 11 154.941 157.938 1.870 0.601 o
-1 4 12 112.682 111.985 1.568 1.084 o
-1 4 13 137.403 149.275 2.165 0.712 o
-1 5 1 37.280 20.537 0.233 9.111 o
-1 5 2 80.587 65.883 0.813 2.198 o
-1 5 3 323.267 321.256 3.226 0.154 o
-1 5 4 0.007 0.273 0.137 3148.710 o
-1 5 5 975.374 979.196 7.673 0.018 o
-1 5 6 0.007 0.197 0.172 2745.000 o
-1 5 7 0.288 0.652 0.254 813.355 o
-1 5 8 11.765 9.782 0.518 36.224 o
-1 5 9 176.793 182.126 2.245 0.467 o
-1 5 10 34.234 33.811 0.936 7.719 o
-1 5 11 108.712 109.515 1.497 1.148 o
-1 5 12 223.191 225.591 2.792 0.305 o
-1 6 1 5.724 9.554 0.204 68.008 o
-1 6 2 125.403 124.458 0.988 0.909 o
-1 6 3 334.088 347.536 2.476 0.141 o
-1 6 4 0.416 0.195 0.154 1292.700 o
-1 6 5 371.011 375.391 2.714 0.117 o
-1 6 6 4.323 4.729 0.341 105.491 o
-1 6 7 123.646 130.520 1.461 0.890 o
-1 6 8 46.424 47.591 0.956 4.781 o
-1 6 9 2.654 2.826 0.477 146.779 o
-1 6 10 25.925 26.745 0.918 11.202 o
-1 6 11 33.176 33.679 1.220 7.657 o
-1 6 12 61.569 67.719 1.523 2.826 o
-1 7 1 236.987 264.075 1.926 0.259 o
-1 7 2 6.532 6.608 0.231 72.837 o
-1 7 3 925.675 874.633 6.377 0.021 o
-1 7 4 317.443 336.041 2.468 0.154 o
-1 7 5 24.682 23.616 0.454 13.249 o
-1 7 6 43.651 44.342 0.739 5.372 o
-1 7 7 215.903 220.693 2.260 0.325 o
-1 7 8 137.105 143.520 5.286 0.640 o
-1 7 9 6.446 5.406 0.502 69.847 o
-1 7 10 186.348 186.768 2.792 0.427 o
-1 7 11 65.572 59.119 1.537 2.837 o
-1 8 1 215.100 213.302 1.636 0.335 o
-1 8 2 542.217 567.123 3.970 0.055 o
-1 8 3 94.378 98.743 0.969 1.457 o
-1 8 4 170.649 179.845 1.561 0.496 o
-1 8 5 92.704 91.260 0.971 1.558 o
-1 8 6 6.019 5.565 0.383 77.598 o
-1 8 7 34.646 33.158 0.733 7.873 o
-1 8 8 44.468 46.874 0.890 5.062 o
-1 8 9 0.930 0.583 0.476 304.003 o
-1 8 10 23.805 20.927 1.107 12.881 o
-1 9 1 1272.630 1263.680 8.548 0.011 o
-1 9 2 563.621 580.951 4.370 0.051 o
-1 9 3 0.004 0.620 0.281 986.607 o
-1 9 4 505.033 507.603 3.895 0.065 o
-1 9 5 5.458 6.042 0.328 82.901 o
-1 9 6 92.968 95.610 1.279 1.498 o
-1 9 7 4.232 4.261 0.397 106.826 o
-1 9 8 22.870 21.476 1.588 11.535 o
-1 9 9 8.267 8.270 0.790 43.856 o
-1 10 1 0.313 0.630 0.243 835.497 o
-1 10 2 6.768 5.893 0.312 71.913 o
-1 10 3 4.506 5.511 0.356 96.156 o
-1 10 4 0.779 1.080 0.323 420.699 o
-1 10 5 113.295 119.976 1.518 1.035 o
-1 10 6 96.254 91.200 1.363 1.474 o
-1 10 7 5.986 8.206 1.004 45.114 o
-1 11 1 32.507 36.210 0.907 7.863 o
-1 11 2 0.061 0.248 0.334 875.008 o
-1 11 3 1.498 2.572 0.374 225.191 o
-1 11 4 9.120 11.019 0.597 40.787 o
-1 11 5 41.358 38.939 1.022 5.919 o
-1 11 6 1.313 1.580 0.723 146.507 o
-1 12 1 75.954 81.472 1.365 2.054 o
-1 12 2 0.208 0.701 0.428 462.054 o
-1 12 3 37.858 40.549 1.461 5.985 o
0 -12 1 4.426 5.073 0.577 85.495 o
0 -12 2 12.463 14.568 0.762 27.417 o
0 -12 3 28.134 28.711 0.991 9.946 o
0 -12 4 16.588 14.921 0.898 20.898 o
0 -11 1 67.513 69.976 1.024 2.590 o
0 -11 2 5.301 5.564 0.399 84.053 o
0 -11 3 19.471 21.686 0.677 16.556 o
0 -11 4 3.992 4.734 0.343 110.887 o
0 -11 5 43.332 44.511 1.153 5.216 o
0 -11 6 40.768 37.501 2.055 5.256 o
0 -11 7 34.344 38.596 1.347 6.812 o
0 -10 1 633.038 653.626 4.632 0.041 o
0 -10 2 488.150 497.325 3.604 0.069 o
0 -10 3 58.602 57.022 0.673 3.439 o
0 -10 4 11.581 10.917 0.350 36.864 o
0 -10 5 1.463 0.925 0.348 308.909 o
0 -10 6 7.767 9.485 0.517 50.056 o
0 -10 7 24.715 23.206 0.789 12.745 o
0 -10 8 35.608 34.548 1.136 7.167 o
0 -10 9 5.295 6.851 0.685 64.613 o
0 -9 1 71.637 77.408 0.815 2.307 o
0 -9 2 30.376 25.837 0.474 10.332 o
0 -9 3 102.414 107.125 0.969 1.263 o
0 -9 4 101.989 104.517 0.993 1.287 o
0 -9 5 70.232 67.970 0.866 2.535 o
0 -9 6 20.605 21.518 0.573 16.105 o
0 -9 7 7.751 5.886 0.518 59.056 o
0 -9 8 121.623 125.844 1.654 0.923 o
0 -9 9 7.661 6.307 0.672 53.569 o
0 -9 10 11.400 13.069 0.892 28.925 o
0 -8 1 153.520 152.087 1.843 0.622 o
0 -8 2 235.401 244.750 1.837 0.275 o
0 -8 3 75.368 75.348 0.718 2.220 o
0 -8 4 18.539 19.044 0.355 19.301 o
0 -8 5 5.638 5.578 0.298 84.547 o
0 -8 6 247.744 240.431 2.466 0.259 o
0 -8 7 61.525 64.471 1.405 2.931 o
0 -8 8 22.711 23.115 0.730 13.925 o
0 -8 9 32.974 34.190 0.872 8.021 o
0 -8 10 32.267 33.892 0.944 8.151 o
0 -8 11 41.793 44.117 1.321 5.329 o
0 -7 1 12.562 13.423 0.284 31.970 o
0 -7 2 105.861 108.717 0.908 1.206 o
0 -7 3 0.030 0.167 0.134 3609.120 o
0 -7 4 144.713 140.104 1.361 0.708 o
0 -7 5 90.385 96.261 1.209 1.544 o
0 -7 6 188.458 168.717 1.825 0.454 o
0 -7 7 128.256 138.150 1.617 0.820 o
0 -7 8 162.214 158.947 1.831 0.567 o
0 -7 9 6.537 6.053 0.448 68.805 o
0 -7 10 20.404 18.563 0.754 16.755 o
0 -7 11 39.783 40.489 1.023 6.037 o
0 -7 12 2.360 2.218 0.562 147.435 o
0 -6 1 154.362 191.885 1.357 0.535 o
0 -6 2 96.650 75.399 0.705 1.649 o
0 -6 3 105.603 99.340 0.769 1.278 o
0 -6 4 599.737 625.426 5.487 0.045 o
0 -6 5 125.841 134.587 1.633 0.852 o
0 -6 6 3.379 3.191 0.336 141.677 o
0 -6 7 578.440 593.554 5.352 0.049 o
0 -6 8 92.472 87.910 1.199 1.585 o
0 -6 9 44.218 46.855 0.997 5.049 o
0 -6 10 12.773 15.455 0.677 26.998 o
0 -6 11 40.492 39.294 1.071 5.990 o
0 -6 12 133.061 139.739 1.866 0.776 o
0 -6 13 9.024 8.437 0.677 43.714 o
0 -5 1 281.490 318.747 3.232 0.183 o
0 -5 2 81.008 81.221 1.029 1.941 o
0 -5 3 53.765 60.546 0.524 3.668 o
0 -5 4 101.604 119.098 1.410 1.180 o
0 -5 5 169.242 186.238 2.076 0.486 o
0 -5 6 48.224 55.295 0.890 4.253 o
0 -5 7 471.657 463.598 4.239 0.075 o
0 -5 8 2.218 1.894 0.291 224.419 o
0 -5 9 227.871 228.791 2.385 0.297 o
0 -5 10 61.322 62.982 1.049 3.046 o
0 -5 11 1.595 1.329 0.389 256.820 o
0 -5 12 92.628 91.393 1.420 1.537 o
0 -5 13 1.441 0.805 0.507 233.359 o
0 -4 1 300.397 250.986 1.655 0.198 o
0 -4 2 10.738 7.062 0.140 47.566 o
0 -4 3 254.552 233.993 2.403 0.254 o
0 -4 4 249.091 241.444 14.224 0.180 o
0 -4 5 57.024 53.631 0.915 3.619 o
0 -4 6 4.729 5.002 0.538 85.269 o
0 -4 7 172.582 168.412 1.776 0.508 o
0 -4 8 504.602 506.631 4.151 0.065 o
0 -4 9 387.335 377.278 3.127 0.110 o
0 -4 10 138.102 130.513 1.074 0.785 o
0 -4 11 60.357 64.236 0.685 3.115 o
0 -4 12 9.686 9.031 0.393 45.388 o
0 -4 13 0.347 0.227 0.405 528.303 o
0 -4 14 44.741 41.216 1.444 5.075 o
0 -3 2 67.253 62.991 0.531 2.805 o
0 -3 3 406.873 407.459 3.968 0.098 o
0 -3 4 512.068 514.516 5.002 0.063 o
0 -3 5 33.148 34.349 0.667 8.134 o
0 -3 6 230.722 246.242 2.032 0.280 o
0 -3 7 164.108 162.418 1.376 0.555 o
0 -3 8 170.742 153.359 1.184 0.548 o
0 -3 9 40.498 43.081 0.545 5.962 o
0 -3 10 439.238 434.414 2.835 0.086 o
0 -3 11 106.992 109.781 0.971 1.183 o
0 -3 12 15.862 12.889 0.442 25.800 o
0 -3 13 14.165 14.950 0.588 25.936 o
0 -3 14 0.764 0.874 0.518 276.372 o
0 -2 1 667.039 627.680 11.638 0.038 o
0 -2 3 559.029 547.973 6.039 0.054 o
0 -2 4 261.040 258.038 1.921 0.233 o
0 -2 5 6.880 9.126 0.180 61.775 o
0 -2 6 1377.750 1261.230 13.037 0.010 o
0 -2 7 201.244 197.957 1.419 0.382 o
0 -2 8 479.244 488.530 3.244 0.071 o
0 -2 9 458.656 463.523 2.970 0.078 o
0 -2 10 9.036 6.789 0.359 53.526 o
0 -2 11 42.318 43.514 0.666 5.628 o
0 -2 12 1.286 1.342 0.301 331.256 o
0 -2 13 42.080 45.550 0.786 5.479 o
0 -2 14 2.501 3.765 0.571 123.987 o
0 -1 2 17.312 19.441 0.250 20.525 o
0 -1 3 63.586 73.253 0.716 2.722 o
0 -1 4 897.345 837.523 7.531 0.022 o
0 -1 5 28.944 28.193 0.325 10.532 o
0 -1 6 458.302 430.779 2.830 0.082 o
0 -1 7 551.597 545.307 3.569 0.055 o
0 -1 8 1298.960 1273.630 8.091 0.010 o
0 -1 9 92.735 91.220 0.838 1.563 o
0 -1 10 32.770 32.099 0.513 8.620 o
0 -1 11 98.365 97.435 0.965 1.400 o
0 -1 12 5.728 5.471 0.358 81.865 o
0 -1 13 106.002 103.253 1.296 1.230 o
0 -1 14 0.202 0.474 0.457 445.911 o
0 0 3 2269.500 1873.620 34.943 0.004 o
0 0 4 48.569 44.500 0.412 4.862 o
0 0 5 113.106 106.053 0.850 1.132 o
0 0 6 346.082 349.738 2.341 0.134 o
0 0 7 604.148 636.040 4.137 0.044 o
0 0 8 5.084 5.630 0.339 88.922 o
0 0 9 167.918 167.419 1.397 0.530 o
0 0 10 1.556 2.057 0.225 290.348 o
0 0 11 1.018 0.872 0.248 460.406 o
0 0 12 0.417 0.525 0.295 669.178 o
0 0 13 19.964 19.196 0.773 16.776 o
0 0 14 50.318 54.741 1.263 3.986 o
0 1 3 179.836 198.719 1.702 0.436 o
0 1 4 4.300 4.464 0.138 118.503 o
0 1 5 26.476 33.443 0.380 10.439 o
0 1 6 0.269 0.111 0.113 2141.010 o
0 1 7 9.694 12.461 0.299 40.493 o
0 1 8 68.396 62.831 0.677 2.743 o
0 1 9 197.738 200.057 1.622 0.387 o
0 1 10 14.222 14.393 0.413 27.324 o
0 1 11 39.169 40.572 0.659 6.324 o
0 1 12 6.713 7.106 0.385 65.696 o
0 1 13 6.942 7.460 0.439 61.528 o
0 1 14 15.992 15.691 0.700 22.369 o
0 2 0 764.170 705.253 5.886 0.030 o
0 2 2 1352.130 1195.530 10.031 0.010 o
0 2 3 0.999 2.212 0.119 391.736 o
0 2 4 97.511 97.524 0.849 1.417 o
0 2 5 81.340 70.960 0.875 2.090 o
0 2 6 59.139 57.623 0.593 3.395 o
0 2 7 0.026 1.484 0.278 662.067 o
0 2 8 31.235 33.362 0.487 8.881 o
0 2 9 57.703 60.386 0.716 3.383 o
0 2 10 152.410 141.353 1.281 0.662 o
0 2 11 65.498 70.054 0.887 2.691 o
0 2 12 403.160 411.386 3.140 0.099 o
0 2 13 77.407 73.945 1.019 2.155 o
0 2 14 0.074 0.210 0.611 299.230 o
0 3 0 994.445 903.486 6.781 0.018 o
0 3 1 41.613 29.267 0.594 6.917 o
0 3 2 639.519 616.610 5.257 0.042 o
0 3 3 279.680 291.295 2.208 0.198 o
0 3 4 971.506 944.594 6.808 0.018 o
0 3 5 194.848 252.484 2.293 0.334 o
0 3 6 51.722 61.760 0.636 3.758 o
0 3 7 8.427 9.381 0.309 51.025 o
0 3 8 0.427 1.603 0.202 576.058 o
0 3 9 0.759 0.946 0.235 536.786 o
0 3 10 56.429 55.846 1.360 3.477 o
0 3 11 0.008 0.083 0.287 1337.160 o
0 3 12 1.382 0.744 0.501 242.376 o
0 3 13 0.119 0.085 0.491 453.044 o
0 4 0 265.026 290.143 2.089 0.212 o
0 4 1 9.910 3.850 0.191 59.230 o
0 4 2 39.110 50.085 0.590 5.643 o
0 4 3 129.450 147.686 1.326 0.782 o
0 4 4 2.306 2.897 0.172 210.844 o
0 4 5 11.749 15.472 0.357 31.139 o
0 4 6 324.319 346.937 2.930 0.146 o
0 4 7 17.733 20.776 0.470 18.951 o
0 4 8 23.013 21.037 0.499 14.846 o
0 4 9 23.117 24.198 0.558 13.765 o
0 4 10 60.285 62.746 0.875 3.136 o
0 4 11 87.433 90.269 1.063 1.673 o
0 4 12 0.628 0.183 0.379 496.753 o
0 4 13 33.339 35.568 1.700 6.828 o
0 5 0 404.241 430.343 2.964 0.096 o
0 5 1 238.191 220.197 1.523 0.289 o
0 5 2 417.367 463.334 3.458 0.088 o
0 5 3 939.703 1030.620 8.040 0.018 o
0 5 4 89.091 104.733 1.152 1.491 o
0 5 5 96.057 102.930 1.077 1.389 o
0 5 6 114.528 102.742 1.108 1.129 o
0 5 7 37.429 37.831 0.705 6.841 o
0 5 8 200.639 202.301 2.109 0.376 o
0 5 9 75.089 69.866 1.047 2.299 o
0 5 10 34.475 40.141 0.858 7.082 o
0 5 11 159.324 160.484 2.271 0.571 o
0 5 12 0.098 0.584 1.092 95.556 o
0 6 0 187.697 197.930 1.404 0.417 o
0 6 1 129.800 144.604 1.274 0.791 o
0 6 2 1121.890 1108.890 11.307 0.014 o
0 6 3 319.642 322.042 2.752 0.156 o
0 6 4 0.466 0.171 0.169 1168.670 o
0 6 5 0.358 0.094 0.229 1118.470 o
0 6 6 187.464 182.717 1.905 0.436 o
0 6 7 114.284 118.235 1.408 1.037 o
0 6 8 428.791 422.073 3.977 0.090 o
0 6 9 111.193 105.213 2.210 1.115 o
0 6 10 0.459 -0.213 0.378 582.621 o
0 6 11 25.344 26.377 1.049 11.223 o
0 6 12 0.292 1.056 0.827 149.700 o
0 7 0 84.641 79.845 0.761 1.878 o
0 7 1 122.195 142.390 1.174 0.858 o
0 7 2 655.577 648.379 5.216 0.039 o
0 7 3 38.464 46.491 0.640 5.978 o
0 7 4 99.433 103.509 1.144 1.329 o
0 7 5 70.965 73.446 1.002 2.387 o
0 7 6 27.192 28.827 0.662 10.740 o
0 7 7 12.945 16.758 0.606 26.285 o
0 7 8 185.807 173.051 1.962 0.455 o
0 7 9 67.725 69.427 1.161 2.576 o
0 7 10 10.045 8.993 0.605 40.926 o
0 7 11 31.122 30.982 1.552 7.916 o
0 8 0 791.788 754.307 5.208 0.028 o
0 8 1 243.909 265.894 2.030 0.249 o
0 8 2 0.193 -0.222 0.185 1986.580 o
0 8 3 17.013 19.209 0.465 20.409 o
0 8 4 168.998 160.200 1.934 0.536 o
0 8 5 223.255 222.765 2.308 0.310 o
0 8 6 22.388 19.610 0.640 15.380 o
0 8 7 191.727 182.806 2.052 0.423 o
0 8 8 62.883 55.952 1.051 3.153 o
0 8 9 28.070 32.266 1.003 9.401 o
0 8 10 6.882 8.701 1.122 38.243 o
0 9 0 3.182 3.816 0.258 146.487 o
0 9 1 0.072 0.258 0.270 1198.240 o
0 9 2 3.171 3.892 0.294 142.248 o
0 9 3 2.211 1.378 0.288 243.471 o
0 9 4 15.032 13.641 0.577 25.699 o
0 9 5 11.321 10.602 0.620 35.073 o
0 9 6 13.570 20.730 0.724 22.113 o
0 9 7 124.341 119.900 1.600 0.927 o
0 9 8 3.907 4.361 0.596 94.051 o
0 9 9 13.421 10.607 0.779 28.918 o
0 10 0 21.602 17.658 0.983 15.386 o
0 10 1 216.819 212.344 1.891 0.332 o
0 10 2 16.761 19.463 0.743 19.413 o
0 10 3 27.000 27.419 0.725 10.989 o
0 10 4 7.501 9.207 0.510 52.015 o
0 10 5 2.976 1.997 0.413 160.827 o
0 10 6 67.723 72.141 1.347 2.496 o
0 10 7 24.060 21.738 1.587 11.060 o
0 11 0 3.022 4.431 0.620 103.108 o
0 11 1 36.832 35.927 1.063 6.875 o
0 11 2 8.173 11.199 0.605 43.405 o
0 11 3 12.260 8.943 0.555 35.611 o
0 11 4 50.987 58.573 1.219 3.801 o
0 11 5 31.906 40.164 1.215 7.260 o
0 12 0 40.393 42.560 1.275 5.638 o
0 12 1 7.317 5.564 0.946 47.084 o
0 12 2 2.862 2.351 0.695 112.036 o
1 -12 0 121.372 116.592 1.669 0.968 o
1 -12 1 1.289 2.049 0.386 253.884 o
1 -12 2 25.448 23.493 0.697 12.514 o
1 -12 3 3.581 3.904 0.448 116.852 o
1 -12 4 3.593 4.843 0.535 100.475 o
1 -12 5 5.277 7.528 0.628 65.175 o
1 -11 0 82.102 82.209 0.970 1.903 o
1 -11 1 43.475 38.504 0.631 5.831 o
1 -11 2 59.694 57.606 0.702 3.347 o
1 -11 3 5.656 5.276 0.305 85.742 o
1 -11 4 11.929 13.185 0.461 32.420 o
1 -11 5 19.789 20.944 1.304 14.143 o
1 -11 6 7.962 8.245 0.597 50.000 o
1 -11 7 90.364 88.861 1.971 1.566 o
1 -10 0 102.162 108.641 1.027 1.254 o
1 -10 1 67.804 61.467 0.719 2.799 o
1 -10 2 94.268 92.340 0.916 1.520 o
1 -10 3 140.329 134.170 1.238 0.755 o
1 -10 4 51.950 51.009 0.602 4.178 o
1 -10 5 21.640 23.032 0.642 14.773 o
1 -10 6 31.542 31.887 0.643 8.883 o
1 -10 7 216.467 213.959 2.427 0.329 o
1 -10 8 10.315 8.923 0.655 39.374 o
1 -10 9 85.804 91.255 2.340 1.599 o
1 -9 0 133.696 125.208 1.088 0.836 o
1 -9 1 116.115 115.744 1.016 1.040 o
1 -9 2 3.790 3.415 0.374 124.980 o
1 -9 3 176.820 169.152 1.233 0.495 o
1 -9 4 62.872 55.013 0.561 3.249 o
1 -9 5 124.336 118.605 1.067 0.943 o
1 -9 6 7.227 7.168 0.338 63.192 o
1 -9 7 18.521 16.915 0.546 19.775 o
1 -9 8 1.058 1.424 0.380 308.150 o
1 -9 9 32.231 32.465 1.068 8.189 o
1 -9 10 2.876 2.713 0.551 130.280 o
1 -8 0 188.109 198.246 1.521 0.415 o
1 -8 1 247.736 256.939 1.900 0.250 o
1 -8 2 1.340 2.482 0.169 307.232 o
1 -8 3 94.374 99.953 0.820 1.451 o
1 -8 4 7.596 7.509 0.246 61.464 o
1 -8 5 222.550 204.843 1.743 0.329 o
1 -8 6 20.581 19.338 0.478 17.154 o
1 -8 7 55.286 57.977 0.790 3.612 o
1 -8 8 1.830 1.719 0.291 259.095 o
1 -8 9 1.993 1.945 0.396 207.934 o
1 -8 10 0.056 0.357 0.445 518.481 o
1 -8 11 14.824 12.034 1.356 20.253 o
1 -7 0 19.357 14.423 0.277 20.963 o
1 -7 1 0.810 1.240 0.148 551.408 o
1 -7 2 23.884 17.773 0.272 15.679 o
1 -7 3 0.599 0.537 0.161 837.002 o
1 -7 4 52.746 50.953 0.494 4.128 o
1 -7 5 22.991 20.785 0.355 15.172 o
1 -7 6 39.427 35.585 0.554 6.755 o
1 -7 7 14.728 13.120 0.432 27.437 o
1 -7 8 213.644 224.052 2.567 0.324 o
1 -7 9 11.921 11.414 0.780 30.890 o
1 -7 10 44.703 47.517 1.068 4.926 o
1 -7 11 213.671 210.536 2.894 0.335 o
1 -7 12 55.229 53.043 1.440 3.627 o
1 -6 0 156.668 162.368 1.205 0.589 o
1 -6 1 202.546 198.672 1.363 0.379 o
1 -6 2 0.469 0.026 0.087 1663.690 o
1 -6 3 147.737 203.183 1.603 0.538 o
1 -6 4 67.934 87.639 0.797 2.259 o
1 -6 5 53.441 56.038 0.537 3.858 o
1 -6 6 3.627 4.941 0.278 120.349 o
1 -6 7 19.983 18.568 0.652 17.423 o
1 -6 8 289.780 280.283 3.110 0.192 o
1 -6 9 86.996 88.897 1.393 1.678 o
1 -6 10 49.672 48.292 0.962 4.420 o
1 -6 11 3.852 3.665 0.505 108.379 o
1 -6 12 28.429 25.876 0.990 10.319 o
1 -5 0 80.998 80.138 0.999 1.959 o
1 -5 1 1486.480 1520.030 12.805 0.008 o
1 -5 2 311.863 340.260 3.350 0.155 o
1 -5 3 3.811 3.773 0.144 137.446 o
1 -5 4 35.201 31.894 0.347 8.115 o
1 -5 5 127.520 145.811 1.056 0.806 o
1 -5 6 6.174 7.206 0.313 71.383 o
1 -5 7 1.113 1.101 0.148 478.977 o
1 -5 8 59.255 56.119 0.749 3.416 o
1 -5 9 348.146 354.861 2.822 0.132 o
1 -5 10 34.722 36.456 0.573 7.594 o
1 -5 11 40.583 41.356 0.654 6.040 o
1 -5 12 8.856 9.629 0.665 42.563 o
1 -5 13 11.301 10.635 0.718 33.770 o
1 -4 0 188.378 210.470 1.939 0.396 o
1 -4 1 807.375 790.654 6.776 0.026 o
1 -4 2 261.933 284.672 1.853 0.218 o
1 -4 3 1533.070 1562.130 10.341 0.007 o
1 -4 4 0.118 2.477 0.119 601.579 o
1 -4 5 0.414 -0.013 0.103 1816.980 o
1 -4 6 84.241 81.014 0.766 1.873 o
1 -4 7 367.789 357.582 4.073 0.121 o
1 -4 8 40.618 35.430 0.513 6.573 o
1 -4 9 490.150 481.755 3.456 0.070 o
1 -4 10 0.688 1.354 0.232 498.478 o
1 -4 11 28.106 25.857 0.643 10.978 o
1 -4 12 2.488 2.916 0.365 170.448 o
1 -4 13 22.329 24.426 0.862 13.449 o
1 -3 0 29.715 26.354 0.376 10.552 o
1 -3 1 2266.310 2025.310 37.832 0.003 o
1 -3 2 34.523 43.063 0.462 7.010 o
1 -3 3 1.866 2.516 0.097 265.192 o
1 -3 4 174.813 170.593 1.342 0.499 o
1 -3 5 226.306 219.521 1.714 0.309 o
1 -3 6 134.455 123.834 1.073 0.836 o
1 -3 7 1180.430 1112.750 8.028 0.013 o
1 -3 8 85.102 93.305 0.876 1.700 o
1 -3 9 141.084 134.964 1.357 0.746 o
1 -3 10 46.735 47.242 0.679 4.855 o
1 -3 11 416.778 419.640 2.966 0.094 o
1 -3 12 2.312 3.667 0.379 160.940 o
1 -3 13 44.129 42.098 0.918 5.381 o
1 -2 0 1566.560 1420.590 11.872 0.007 o
1 -2 1 2255.910 1981.230 26.087 0.004 o
1 -2 2 192.725 181.258 1.268 0.426 o
1 -2 3 686.063 664.474 4.774 0.037 o
1 -2 4 906.632 930.182 6.658 0.020 o
1 -2 5 216.014 202.405 1.873 0.344 o
1 -2 6 546.935 580.369 4.610 0.053 o
1 -2 7 1568.720 1553.780 11.123 0.007 o
1 -2 8 338.751 349.889 2.381 0.138 o
1 -2 9 198.444 207.091 1.577 0.378 o
1 -2 10 83.345 80.612 0.935 1.893 o
1 -2 11 47.189 45.791 0.670 4.887 o
1 -2 12 31.962 34.861 0.666 8.364 o
1 -2 13 3.040 2.471 0.490 139.060 o
1 -2 14 1.372 1.098 0.549 210.527 o
1 -1 0 1287.000 1062.870 37.139 0.010 o
1 -1 3 1754.790 1493.810 11.422 0.006 o
1 -1 4 118.194 106.476 0.904 1.069 o
1 -1 5 412.546 438.982 2.875 0.092 o
1 -1 6 333.306 324.467 2.201 0.148 o
1 -1 7 2.897 5.445 0.212 135.677 o
1 -1 8 146.075 137.314 1.180 0.710 o
1 -1 9 9.250 10.285 0.347 45.261 o
1 -1 10 83.609 82.502 0.850 1.866 o
1 -1 11 8.011 7.071 0.353 58.354 o
1 -1 12 62.973 65.633 0.905 2.913 o
1 -1 13 7.775 7.489 0.499 55.125 o
1 -1 14 0.935 0.067 0.519 297.418 o
1 0 0 134.709 131.401 1.286 0.803 o
1 0 2 291.538 290.379 2.146 0.188 o
1 0 3 2134.590 1950.930 29.075 0.004 o
1 0 4 26.645 39.501 0.440 9.351 o
1 0 5 899.507 896.981 5.711 0.021 o
1 0 6 611.057 613.609 3.996 0.045 o
1 0 7 5.314 7.166 0.277 80.309 o
1 0 8 248.700 257.341 1.980 0.248 o
1 0 9 54.201 51.650 0.621 3.959 o
1 0 10 440.658 422.277 2.954 0.087 o
1 0 11 10.716 8.660 0.474 41.355 o
1 0 12 10.032 9.448 0.437 42.814 o
1 0 13 14.059 12.823 0.545 28.077 o
1 0 14 9.761 10.691 0.939 33.532 o
1 1 0 2542.340 2228.380 41.450 0.003 o
1 1 1 1371.700 1197.100 9.658 0.010 o
1 1 4 65.167 73.740 0.969 2.616 o
1 1 5 27.677 35.566 0.407 9.661 o
1 1 6 423.507 426.171 3.026 0.091 o
1 1 7 33.590 33.198 0.839 8.024 o
1 1 8 53.141 58.439 0.685 3.768 o
1 1 9 99.332 102.103 1.017 1.345 o
1 1 10 89.268 90.205 0.974 1.639 o
1 1 11 230.384 234.858 1.964 0.289 o
1 1 12 44.229 48.083 0.823 5.045 o
1 1 13 1.548 2.211 0.433 213.552 o
1 2 0 211.505 193.391 1.506 0.364 o
1 2 1 147.206 155.580 1.081 0.653 o
1 2 2 1225.170 1118.090 7.030 0.012 o
1 2 3 8.448 6.525 0.205 59.817 o
1 2 4 203.064 173.759 1.632 0.407 o
1 2 5 331.902 369.317 2.821 0.136 o
1 2 6 3.939 5.574 0.230 111.102 o
1 2 7 116.430 117.222 1.136 1.026 o
1 2 8 138.197 133.310 1.201 0.773 o
1 2 9 0.568 0.713 0.315 533.184 o
1 2 10 118.093 113.827 1.149 1.026 o
1 2 11 2.803 1.493 0.320 196.436 o
1 2 12 69.478 69.873 0.981 2.516 o
1 2 13 22.345 22.336 0.826 14.094 o
1 3 0 55.132 51.697 0.585 3.889 o
1 3 1 15.391 14.679 0.298 25.763 o
1 3 2 0.869 2.773 0.126 363.691 o
1 3 3 2730.140 2649.620 31.313 0.002 o
1 3 4 216.155 207.822 1.581 0.339 o
1 3 5 12.828 16.424 0.334 28.348 o
1 3 6 0.273 -0.024 0.167 1859.260 o
1 3 7 313.137 301.496 2.287 0.168 o
1 3 8 3.804 4.782 0.310 116.195 o
1 3 9 716.158 719.550 5.444 0.033 o
1 3 10 711.432 707.114 5.406 0.033 o
1 3 11 0.013 -0.663 0.342 1002.750 o
1 3 12 69.573 69.341 1.002 2.521 o
1 3 13 1.498 0.849 0.582 197.631 o
1 4 0 37.880 47.220 0.549 6.044 o
1 4 1 2280.650 2190.410 15.512 0.003 o
1 4 2 857.200 964.932 13.276 0.021 o
1 4 3 157.547 153.744 1.424 0.603 o
1 4 4 150.600 154.243 1.256 0.637 o
1 4 5 228.303 209.114 1.762 0.314 o
1 4 6 8.787 8.222 0.299 52.188 o
1 4 7 110.971 109.231 1.117 1.133 o
1 4 8 3.546 2.992 0.296 144.185 o
1 4 9 35.890 32.660 0.848 7.562 o
1 4 10 12.353 12.381 0.539 31.703 o
1 4 11 4.940 5.702 0.430 85.663 o
1 4 12 19.038 17.931 0.924 17.302 o
1 5 0 59.305 61.595 0.652 3.256 o
1 5 1 874.681 885.828 6.434 0.022 o
1 5 2 39.939 44.000 0.654 5.938 o
1 5 3 432.302 426.062 3.528 0.089 o
1 5 4 71.266 90.622 1.009 2.088 o
1 5 5 298.788 330.346 2.865 0.167 o
1 5 6 12.444 13.168 0.478 31.234 o
1 5 7 73.759 71.774 1.063 2.310 o
1 5 8 123.904 122.828 1.293 0.924 o
1 5 9 28.098 29.900 0.704 10.177 o
1 5 10 0.014 -0.190 0.370 856.070 o
1 5 11 8.967 8.678 0.683 43.383 o
1 5 12 24.761 22.983 1.683 10.324 o
1 6 0 349.169 399.477 3.061 0.121 o
1 6 1 18.141 27.629 0.497 15.872 o
1 6 2 370.022 423.016 3.526 0.108 o
1 6 3 51.629 46.103 0.738 4.401 o
1 6 4 34.796 30.407 0.627 8.242 o
1 6 5 134.404 134.725 1.556 0.789 o
1 6 6 84.408 88.105 1.184 1.759 o
1 6 7 36.128 34.613 0.778 7.362 o
1 6 8 290.284 284.220 2.913 0.190 o
1 6 9 0.966 0.576 0.400 361.431 o
1 6 10 2.486 2.701 0.484 152.157 o
1 6 11 0.660 0.925 1.586 44.550 o
1 7 0 349.678 358.477 3.756 0.129 o
1 7 1 31.668 36.795 0.763 8.119 o
1 7 2 30.354 35.779 0.793 8.544 o
1 7 3 23.304 19.588 0.606 14.892 o
1 7 4 120.408 113.280 1.382 1.000 o
1 7 5 132.636 128.600 1.543 0.825 o
1 7 6 168.397 157.261 1.818 0.545 o
1 7 7 0.011 0.599 0.355 712.615 o
1 7 8 42.589 46.790 1.003 5.243 o
1 7 9 6.046 6.618 0.569 65.594 o
1 7 10 49.844 50.890 1.615 4.039 o
1 8 0 132.832 139.372 1.442 0.786 o
1 8 1 14.419 14.251 0.484 26.730 o
1 8 2 6.556 6.994 0.552 61.761 o
1 8 3 20.745 22.302 0.641 15.571 o
1 8 4 21.166 27.823 0.715 13.524 o
1 8 5 173.493 152.524 1.878 0.534 o
1 8 6 55.446 50.937 0.991 3.814 o
1 8 7 7.344 6.708 0.503 59.498 o
1 8 8 77.105 73.668 1.606 2.110 o
1 8 9 10.850 10.177 1.044 30.183 o
1 9 0 21.600 21.845 0.605 15.256 o
1 9 1 132.122 126.220 1.554 0.837 o
1 9 2 72.536 70.357 1.305 2.353 o
1 9 3 2.621 1.374 0.353 201.048 o
1 9 4 62.659 57.275 1.036 3.131 o
1 9 5 65.735 59.256 1.087 2.908 o
1 9 6 2.285 1.947 0.443 181.312 o
1 9 7 23.136 25.730 1.131 12.038 o
1 9 8 2.286 2.852 0.815 99.713 o
1 10 0 0.188 -0.477 0.341 844.354 o
1 10 1 11.679 10.424 0.540 35.389 o
1 10 2 2.078 1.955 0.390 204.735 o
1 10 3 7.094 4.558 0.582 64.951 o
1 10 4 1.701 0.725 0.420 258.508 o
1 10 5 20.940 20.479 0.937 15.100 o
1 10 6 3.366 1.226 0.597 128.423 o
1 11 0 1.379 0.729 0.453 268.346 o
1 11 1 48.001 52.689 1.191 4.293 o
1 11 2 14.444 13.326 0.761 25.410 o
1 11 3 13.226 15.942 0.868 24.380 o
1 11 4 1.246 0.358 0.623 204.429 o
2 -12 0 7.704 8.785 0.413 54.175 o
2 -12 1 0.651 0.944 0.295 499.068 o
2 -12 2 1.615 1.919 0.328 255.848 o
2 -12 3 20.544 17.408 0.639 17.481 o
2 -12 4 5.261 4.956 0.418 86.841 o
2 -11 0 17.915 17.648 0.448 20.342 o
2 -11 1 1.049 1.318 0.242 408.123 o
2 -11 2 0.187 0.244 0.250 1150.160 o
2 -11 3 117.903 116.281 1.034 1.018 o
2 -11 4 3.946 4.373 0.295 118.473 o
2 -11 5 185.598 170.574 1.803 0.460 o
2 -11 6 162.150 159.540 2.726 0.555 o
2 -11 7 3.172 2.699 0.867 84.521 o
2 -10 0 9.944 9.460 0.393 43.670 o
2 -10 1 47.501 50.490 0.568 4.629 o
2 -10 2 51.608 47.511 0.578 4.371 o
2 -10 3 4.805 6.415 0.271 90.349 o
2 -10 4 115.326 106.684 0.994 1.099 o
2 -10 5 51.732 50.767 0.587 4.210 o
2 -10 6 19.852 25.081 0.485 15.601 o
2 -10 7 0.481 0.236 0.443 430.587 o
2 -10 8 20.459 19.537 1.106 15.011 o
2 -9 0 52.438 49.953 0.587 4.184 o
2 -9 1 18.069 16.931 0.531 20.266 o
2 -9 2 95.986 102.815 0.937 1.396 o
2 -9 3 22.327 22.617 0.374 14.985 o
2 -9 4 412.862 371.490 3.347 0.102 o
2 -9 5 33.920 29.933 0.442 8.645 o
2 -9 6 168.580 166.453 1.237 0.530 o
2 -9 7 17.801 18.407 0.599 19.554 o
2 -9 8 26.730 28.241 0.871 10.706 o
2 -9 9 100.858 103.430 1.829 1.279 o
2 -9 10 0.015 0.368 0.503 425.761 o
2 -8 0 20.973 23.195 0.679 15.042 o
2 -8 1 0.130 -0.561 0.323 978.776 o
2 -8 2 218.956 215.873 2.372 0.323 o
2 -8 3 61.244 57.000 0.599 3.283 o
2 -8 4 73.524 77.862 0.746 2.238 o
2 -8 5 104.258 98.654 0.812 1.302 o
2 -8 6 131.391 119.877 1.036 0.877 o
2 -8 7 7.455 8.020 0.295 59.930 o
2 -8 8 33.761 32.657 0.690 8.173 o
2 -8 9 68.789 66.611 1.876 2.473 o
2 -8 10 32.684 33.423 1.105 7.929 o
2 -8 11 2.401 1.683 1.066 74.645 o
2 -7 0 175.418 186.271 2.135 0.465 o
2 -7 1 9.253 6.872 0.402 51.538 o
2 -7 2 253.489 245.531 3.091 0.247 o
2 -7 3 26.914 26.032 0.376 11.719 o
2 -7 4 47.652 53.987 0.509 4.451 o
2 -7 5 65.258 62.677 0.581 2.906 o
2 -7 6 1.992 2.030 0.180 262.038 o
2 -7 7 0.020 -0.422 0.206 2638.970 o
2 -7 8 37.966 39.208 0.509 6.710 o
2 -7 9 25.915 25.669 0.542 12.052 o
2 -7 10 9.441 9.523 0.509 43.635 o
2 -7 11 23.901 21.684 1.032 12.880 o
2 -6 0 143.528 131.343 2.231 0.728 o
2 -6 1 64.833 84.902 1.178 2.384 o
2 -6 2 1.843 1.608 0.213 287.626 o
2 -6 3 5.911 10.495 0.215 63.185 o
2 -6 4 0.189 0.331 0.114 1984.590 o
2 -6 5 96.271 98.526 0.810 1.431 o
2 -6 6 231.052 219.543 1.514 0.301 o
2 -6 7 127.219 122.658 0.969 0.901 o
2 -6 8 690.763 691.346 4.867 0.035 o
2 -6 9 307.444 317.549 2.426 0.166 o
2 -6 10 2.660 2.959 0.300 173.807 o
2 -6 11 5.505 6.138 0.406 78.778 o
2 -6 12 4.036 3.203 0.624 97.174 o
2 -5 0 267.518 320.566 2.952 0.194 o
2 -5 1 80.975 107.297 1.171 1.624 o
2 -5 2 62.137 60.058 0.779 3.121 o
2 -5 3 7.282 11.104 0.215 53.518 o
2 -5 4 37.671 53.727 0.503 5.616 o
2 -5 5 5.368 2.880 0.158 112.563 o
2 -5 6 19.254 17.305 0.317 19.528 o
2 -5 7 130.114 124.324 1.097 0.868 o
2 -5 8 165.985 167.239 1.412 0.538 o
2 -5 9 7.366 6.683 0.512 59.164 o
2 -5 10 201.718 199.357 1.826 0.378 o
2 -5 11 70.425 69.121 0.965 2.495 o
2 -5 12 46.364 44.909 0.909 4.951 o
2 -4 0 753.471 780.230 7.495 0.029 o
2 -4 1 114.156 116.909 1.219 1.050 o
2 -4 2 1213.990 1196.630 14.494 0.012 o
2 -4 3 41.116 43.801 0.562 5.813 o
2 -4 4 15.075 19.065 0.292 23.209 o
2 -4 5 135.255 129.547 0.996 0.809 o
2 -4 6 123.056 123.790 1.065 0.931 o
2 -4 7 26.073 20.578 0.474 13.290 o
2 -4 8 29.422 28.834 0.608 10.020 o
2 -4 9 0.070 0.093 0.346 879.501 o
2 -4 10 32.223 32.881 0.667 8.549 o
2 -4 11 1.224 2.090 0.344 275.570 o
2 -4 12 170.946 174.410 1.880 0.502 o
2 -4 13 4.988 3.292 0.543 91.681 o
2 -3 0 447.175 460.937 3.129 0.081 o
2 -3 1 25.648 18.413 0.244 14.388 o
2 -3 2 0.470 1.667 0.127 618.728 o
2 -3 3 60.142 56.941 0.569 3.356 o
2 -3 4 778.296 794.989 5.080 0.028 o
2 -3 5 54.999 94.728 0.900 2.609 o
2 -3 6 32.758 28.605 0.449 9.149 o
2 -3 7 165.642 168.646 1.498 0.536 o
2 -3 8 3.718 4.929 0.287 118.015 o
2 -3 9 0.752 0.320 0.232 675.966 o
2 -3 10 28.142 29.005 0.633 10.401 o
2 -3 11 105.103 105.567 1.298 1.227 o
2 -3 12 49.746 50.990 1.072 4.255 o
2 -3 13 1.282 1.058 0.506 236.260 o
2 -2 0 58.729 52.586 0.433 3.608 o
2 -2 1 37.105 55.355 0.460 5.593 o
2 -2 2 0.042 0.234 0.078 4405.250 o
2 -2 3 1.529 3.093 0.156 260.765 o
2 -2 4 1550.740 1356.380 10.740 0.008 o
2 -2 5 43.146 44.509 0.546 5.488 o
2 -2 6 207.830 198.807 1.802 0.365 o
2 -2 7 37.154 30.002 0.503 7.808 o
2 -2 8 87.466 83.536 1.035 1.749 o
2 -2 9 90.455 84.416 0.973 1.675 o
2 -2 10 121.923 119.663 1.195 0.958 o
2 -2 11 207.610 209.161 2.015 0.353 o
2 -2 12 4.284 4.213 0.538 95.174 o
2 -2 13 139.100 146.246 1.933 0.715 o
2 -1 0 405.543 410.715 3.256 0.099 o
2 -1 1 47.652 61.035 0.697 4.098 o
2 -1 2 263.150 270.324 2.068 0.224 o
2 -1 3 1064.120 1090.000 7.820 0.015 o
2 -1 4 2876.730 2775.940 23.240 0.002 o
2 -1 5 541.678 577.257 6.502 0.054 o
2 -1 6 931.813 956.250 7.537 0.019 o
2 -1 7 85.652 84.902 0.902 1.783 o
2 -1 8 71.465 68.541 0.775 2.482 o
2 -1 9 83.356 85.600 0.898 1.831 o
2 -1 10 0.242 0.773 0.271 758.354 o
2 -1 11 30.787 32.026 0.688 9.035 o
2 -1 12 10.728 11.197 0.550 36.688 o
2 -1 13 98.835 95.015 2.647 1.317 o
2 0 0 2996.050 2522.070 25.101 0.002 o
2 0 1 106.867 99.349 0.926 1.256 o
2 0 2 107.025 97.223 0.930 1.269 o
2 0 3 435.258 442.490 3.108 0.086 o
2 0 4 438.561 459.828 4.251 0.082 o
2 0 5 27.256 39.831 0.494 9.087 o
2 0 6 137.283 155.862 1.294 0.706 o
2 0 7 27.856 29.541 0.484 10.562 o
2 0 8 0.967 2.936 0.243 300.157 o
2 0 9 12.595 12.121 0.448 32.238 o
2 0 10 104.018 95.324 1.114 1.322 o
2 0 11 4.701 3.839 0.360 105.349 o
2 0 12 1.022 0.199 0.382 400.461 o
2 0 13 21.626 22.401 0.948 14.111 o
2 1 0 601.011 577.634 6.781 0.047 o
2 1 1 323.301 354.899 2.433 0.145 o
2 1 2 269.869 261.821 1.900 0.222 o
2 1 3 1032.680 1005.680 14.770 0.016 o
2 1 4 92.363 108.577 0.940 1.408 o
2 1 5 241.527 260.453 1.965 0.255 o
2 1 6 1.245 1.997 0.191 343.849 o
2 1 7 120.665 119.385 1.104 0.973 o
2 1 8 96.990 88.718 1.006 1.499 o
2 1 9 7.660 7.318 0.409 58.423 o
2 1 10 136.249 132.094 1.308 0.789 o
2 1 11 13.634 11.127 0.492 30.792 o
2 1 12 121.024 118.878 1.415 0.966 o
2 1 13 0.939 1.525 0.564 216.189 o
2 2 0 65.730 73.521 0.621 2.628 o
2 2 1 67.949 80.524 0.676 2.394 o
2 2 2 3.863 5.960 0.226 109.208 o
2 2 3 98.258 87.562 0.855 1.492 o
2 2 4 1230.920 1191.510 8.644 0.012 o
2 2 5 1710.700 1618.860 10.866 0.006 o
2 2 6 49.303 54.774 0.667 4.233 o
2 2 7 49.475 53.951 0.751 4.236 o
2 2 8 675.734 683.685 5.194 0.037 o
2 2 9 213.486 222.177 2.010 0.329 o
2 2 10 0.651 1.042 0.355 418.790 o
2 2 11 14.083 10.404 0.469 30.789 o
2 2 12 78.191 78.909 1.208 2.040 o
2 3 0 136.646 129.326 1.194 0.798 o
2 3 1 0.344 0.889 0.126 981.537 o
2 3 2 24.108 29.925 0.446 12.025 o
2 3 3 2.986 3.288 0.189 168.212 o
2 3 4 810.877 813.718 5.989 0.026 o
2 3 5 1.046 2.849 0.220 304.527 o
2 3 6 86.859 85.470 0.900 1.748 o
2 3 7 32.154 29.072 0.609 9.137 o
2 3 8 0.232 -0.020 0.273 1129.750 o
2 3 9 10.814 11.936 0.612 34.786 o
2 3 10 39.836 40.098 0.837 6.167 o
2 3 11 1.853 1.304 0.392 237.213 o
2 3 12 29.337 29.144 0.988 9.511 o
2 4 0 507.487 544.477 7.050 0.060 o
2 4 1 15.465 25.930 0.439 18.761 o
2 4 2 42.997 46.599 0.630 5.348 o
2 4 3 12.730 12.926 0.342 31.829 o
2 4 4 184.512 173.928 1.572 0.460 o
2 4 5 167.572 172.820 1.471 0.521 o
2 4 6 2205.380 2128.330 19.494 0.004 o
2 4 7 548.437 554.031 4.306 0.055 o
2 4 8 27.252 24.495 0.641 11.593 o
2 4 9 168.377 174.067 1.746 0.513 o
2 4 10 10.765 8.866 0.493 40.622 o
2 4 11 8.289 10.555 0.648 43.246 o
2 5 0 51.383 45.365 0.562 4.498 o
2 5 1 103.095 105.657 0.970 1.264 o
2 5 2 92.331 71.042 0.758 1.795 o
2 5 3 178.233 184.526 1.526 0.463 o
2 5 4 74.978 74.314 0.836 2.243 o
2 5 5 155.445 159.855 1.511 0.598 o
2 5 6 159.638 161.910 1.564 0.574 o
2 5 7 211.870 203.624 3.404 0.343 o
2 5 8 28.185 26.825 0.712 10.676 o
2 5 9 37.295 39.973 0.862 6.581 o
2 5 10 17.189 19.354 1.182 16.797 o
2 5 11 25.850 26.248 1.389 10.265 o
2 6 0 419.573 423.265 3.560 0.092 o
2 6 1 86.336 90.413 1.057 1.696 o
2 6 2 163.475 160.130 1.499 0.562 o
2 6 3 154.400 162.946 1.523 0.596 o
2 6 4 116.850 109.989 1.832 1.041 o
2 6 5 143.472 134.557 1.377 0.732 o
2 6 6 2.131 2.755 0.392 182.695 o
2 6 7 101.753 107.909 1.271 1.258 o
2 6 8 55.453 57.571 1.069 3.558 o
2 6 9 21.604 17.306 1.135 14.871 o
2 6 10 3.095 3.989 1.019 66.625 o
2 7 0 33.677 30.960 0.629 8.451 o
2 7 1 1.174 0.166 0.256 505.163 o
2 7 2 126.079 127.131 1.537 0.882 o
2 7 3 17.520 18.732 0.636 19.516 o
2 7 4 7.971 4.303 0.546 61.550 o
2 7 5 292.239 283.688 2.926 0.189 o
2 7 6 18.120 17.360 0.740 19.145 o
2 7 7 0.458 0.661 0.414 429.439 o
2 7 8 3.461 4.898 0.831 75.749 o
2 7 9 2.404 2.387 0.721 115.341 o
2 8 0 17.306 18.300 0.577 20.167 o
2 8 1 46.141 41.404 0.854 5.202 o
2 8 2 12.977 11.097 0.563 31.515 o
2 8 3 20.292 18.245 0.692 17.172 o
2 8 4 18.579 15.950 0.721 19.456 o
2 8 5 13.795 15.149 0.744 25.181 o
2 8 6 30.923 32.524 0.947 8.652 o
2 8 7 3.034 2.926 0.663 109.140 o
2 8 8 6.872 7.319 1.481 30.441 o
2 9 0 0.421 0.101 0.357 625.320 o
2 9 1 1.345 1.350 0.382 280.832 o
2 9 2 33.839 25.937 0.813 8.905 o
2 9 3 19.502 14.166 0.703 19.508 o
2 9 4 9.505 8.048 0.847 39.126 o
2 9 5 6.148 5.879 0.598 66.169 o
2 9 6 50.126 43.072 1.458 4.423 o
2 10 0 3.755 4.493 0.496 104.234 o
2 10 1 24.975 22.091 0.855 12.737 o
2 10 2 56.846 53.935 1.271 3.537 o
2 10 3 0.171 0.353 0.528 365.967 o
2 10 4 1.760 1.413 0.583 174.542 o
2 11 0 13.479 14.544 1.767 16.667 o
2 11 1 1.690 -0.320 0.744 151.585 o
3 -11 0 4.999 5.868 0.679 70.355 o
3 -11 1 13.159 14.806 0.844 25.438 o
3 -11 2 31.124 34.354 1.063 8.233 o
3 -11 3 24.359 25.550 0.619 12.680 o
3 -11 4 7.208 7.326 0.334 62.883 o
3 -11 5 60.578 58.481 0.807 3.253 o
3 -10 0 34.580 37.887 1.145 7.036 o
3 -10 1 1.540 1.947 0.477 206.342 o
3 -10 2 197.979 183.590 2.799 0.400 o
3 -10 3 254.045 246.031 2.870 0.246 o
3 -10 4 17.073 16.023 0.490 21.971 o
3 -10 5 82.255 73.497 0.882 2.024 o
3 -10 6 2.071 2.535 0.313 208.988 o
3 -10 7 56.930 55.628 1.397 3.442 o
3 -9 0 38.500 43.137 1.121 5.967 o
3 -9 1 0.240 0.615 0.441 444.531 o
3 -9 2 57.270 61.439 1.048 3.322 o
3 -9 3 72.138 82.410 1.085 2.183 o
3 -9 4 5.519 4.328 0.293 93.621 o
3 -9 5 60.293 60.843 0.705 3.213 o
3 -9 6 16.530 16.686 0.481 22.252 o
3 -9 7 91.064 84.156 0.916 1.667 o
3 -9 8 3.146 3.944 0.571 110.534 o
3 -8 0 354.729 332.546 5.067 0.131 o
3 -8 1 160.291 139.222 1.816 0.621 o
3 -8 2 2.341 0.955 0.329 237.010 o
3 -8 3 56.995 59.019 0.577 3.491 o
3 -8 4 36.215 34.612 0.461 7.526 o
3 -8 5 30.534 37.920 0.516 8.443 o
3 -8 6 211.316 203.953 1.576 0.353 o
3 -8 7 1.354 2.123 0.256 297.556 o
3 -8 8 73.382 70.651 0.960 2.354 o
3 -8 9 10.558 10.312 0.823 34.195 o
3 -7 0 43.036 44.252 0.992 5.349 o
3 -7 1 254.270 253.216 2.526 0.243 o
3 -7 2 5.871 6.500 0.496 70.328 o
3 -7 3 4.401 3.789 0.186 121.483 o
3 -7 4 109.520 109.069 0.912 1.156 o
3 -7 5 0.220 -0.070 0.181 1929.410 o
3 -7 6 220.995 217.690 1.644 0.320 o
3 -7 7 220.157 218.007 1.677 0.321 o
3 -7 8 6.411 6.179 0.366 72.057 o
3 -7 9 11.638 10.915 0.536 34.933 o
3 -7 10 29.846 30.090 0.902 9.342 o
3 -6 0 485.040 484.645 4.911 0.070 o
3 -6 1 426.011 414.162 3.820 0.092 o
3 -6 2 88.872 87.483 0.889 1.680 o
3 -6 3 1.578 0.898 0.141 399.005 o
3 -6 4 5.796 6.588 0.250 79.187 o
3 -6 5 44.646 46.388 0.658 5.149 o
3 -6 6 155.370 166.731 1.393 0.584 o
3 -6 7 38.261 36.670 0.553 6.870 o
3 -6 8 68.513 71.048 0.795 2.549 o
3 -6 9 66.604 65.994 0.946 2.725 o
3 -6 10 11.462 11.684 0.593 33.816 o
3 -6 11 32.639 32.410 1.001 8.176 o
3 -5 0 59.804 52.353 0.606 3.523 o
3 -5 1 2.046 1.021 0.119 322.284 o
3 -5 2 430.675 432.998 2.869 0.088 o
3 -5 3 132.296 138.985 1.619 0.788 o
3 -5 4 109.694 112.522 0.929 1.132 o
3 -5 5 950.366 898.237 5.805 0.020 o
3 -5 6 831.544 819.428 5.346 0.025 o
3 -5 7 24.482 26.766 0.493 12.520 o
3 -5 8 73.645 68.311 0.887 2.393 o
3 -5 9 0.332 0.052 0.288 914.393 o
3 -5 10 2.553 2.518 0.364 175.933 o
3 -5 11 37.111 37.388 1.461 6.335 o
3 -4 0 19.020 15.148 0.282 20.925 o
3 -4 1 138.189 128.543 1.018 0.792 o
3 -4 2 19.609 19.482 0.319 18.216 o
3 -4 3 27.936 28.044 0.375 10.900 o
3 -4 4 128.575 122.501 1.139 0.888 o
3 -4 5 705.674 727.864 4.751 0.033 o
3 -4 6 14.133 13.087 0.452 28.348 o
3 -4 7 104.876 99.144 1.065 1.282 o
3 -4 8 54.798 54.428 0.786 3.776 o
3 -4 9 78.110 75.313 0.981 2.115 o
3 -4 10 27.763 27.857 0.761 10.574 o
3 -4 11 36.133 35.309 1.226 6.909 o
3 -4 12 27.537 29.108 1.534 9.026 o
3 -3 0 1.934 2.347 0.257 236.545 o
3 -3 1 225.020 214.871 1.595 0.316 o
3 -3 2 11.659 7.919 0.369 40.803 o
3 -3 3 506.545 504.501 3.526 0.065 o
3 -3 4 61.029 54.678 0.583 3.370 o
3 -3 5 438.550 440.559 9.157 0.081 o
3 -3 6 6.253 7.187 0.320 70.611 o
3 -3 7 81.725 84.545 0.959 1.882 o
3 -3 8 0.114 -0.129 0.273 1327.610 o
3 -3 9 58.646 64.836 1.141 3.125 o
3 -3 10 45.766 44.231 0.964 5.035 o
3 -3 11 7.950 8.247 0.557 51.035 o
3 -3 12 16.832 18.329 0.926 18.908 o
3 -2 0 26.297 17.017 0.300 14.365 o
3 -2 1 994.753 991.950 9.981 0.017 o
3 -2 2 2.688 8.482 0.464 93.802 o
3 -2 3 226.719 230.063 2.040 0.299 o
3 -2 4 152.437 163.796 1.550 0.602 o
3 -2 5 26.400 28.902 0.498 11.221 o
3 -2 6 4.939 5.045 0.282 97.085 o
3 -2 7 143.252 168.905 1.568 0.635 o
3 -2 8 19.907 20.436 0.592 16.950 o
3 -2 9 0.117 -0.257 0.304 1102.460 o
3 -2 10 9.916 6.929 0.556 45.749 o
3 -2 11 40.485 38.071 0.931 6.171 o
3 -2 12 34.009 34.506 1.065 7.566 o
3 -1 0 79.091 97.191 1.045 1.785 o
3 -1 1 618.910 568.334 4.973 0.046 o
3 -1 2 1.129 0.947 0.168 483.513 o
3 -1 3 43.259 36.665 0.553 6.027 o
3 -1 4 48.237 45.136 0.648 4.814 o
3 -1 5 8.527 7.000 0.330 56.121 o
3 -1 6 82.165 79.951 0.907 1.935 o
3 -1 7 93.896 90.809 1.042 1.536 o
3 -1 8 112.411 104.503 1.254 1.140 o
3 -1 9 19.638 14.400 0.571 19.819 o
3 -1 10 7.116 8.656 0.474 56.150 o
3 -1 11 28.015 26.416 0.902 10.520 o
3 -1 12 13.614 14.017 0.759 26.119 o
3 0 0 322.369 339.010 2.813 0.149 o
3 0 1 673.908 742.066 7.109 0.034 o
3 0 2 428.924 473.527 3.865 0.083 o
3 0 3 322.730 325.390 3.396 0.152 o
3 0 4 320.473 347.742 2.972 0.148 o
3 0 5 24.872 27.192 0.483 12.254 o
3 0 6 162.457 177.158 1.916 0.528 o
3 0 7 14.285 13.297 0.455 27.896 o
3 0 8 91.644 99.471 1.054 1.497 o
3 0 9 32.054 32.215 0.707 8.646 o
3 0 10 53.154 53.801 0.855 3.912 o
3 0 11 12.421 13.166 0.717 29.100 o
3 0 12 26.883 25.326 1.037 10.869 o
3 1 0 4.766 2.066 0.194 132.321 o
3 1 1 25.583 32.737 0.446 10.845 o
3 1 2 1.014 0.297 0.236 559.618 o
3 1 3 196.446 210.156 1.653 0.378 o
3 1 4 16.599 15.902 0.481 22.634 o
3 1 5 0.765 0.518 0.201 668.336 o
3 1 6 220.473 223.653 1.951 0.315 o
3 1 7 34.401 32.497 0.612 8.095 o
3 1 8 12.779 10.780 0.421 33.522 o
3 1 9 25.031 24.684 0.699 12.429 o
3 1 10 45.540 45.074 0.826 5.066 o
3 1 11 42.803 46.283 1.123 5.189 o
3 1 12 18.179 16.975 1.921 12.764 o
3 2 0 27.529 27.527 0.425 11.118 o
3 2 1 36.728 37.708 0.500 7.086 o
3 2 2 0.870 0.714 0.168 614.685 o
3 2 3 4.445 3.688 0.222 119.791 o
3 2 4 0.017 0.081 0.185 2838.750 o
3 2 5 147.930 150.716 1.432 0.659 o
3 2 6 109.262 110.516 1.188 1.144 o
3 2 7 213.428 208.601 1.912 0.342 o
3 2 8 15.081 14.802 0.521 25.129 o
3 2 9 33.482 37.767 0.748 7.608 o
3 2 10 1.354 0.607 0.383 319.288 o
3 2 11 28.617 29.688 1.174 9.341 o
3 3 0 70.408 66.192 0.708 2.578 o
3 3 1 7.740 5.897 0.252 65.803 o
3 3 2 154.008 150.169 1.296 0.630 o
3 3 3 418.187 439.935 3.215 0.091 o
3 3 4 4.581 6.442 0.331 90.439 o
3 3 5 790.983 801.989 6.022 0.027 o
3 3 6 866.342 862.852 6.479 0.023 o
3 3 7 253.959 235.819 2.135 0.255 o
3 3 8 2.959 2.079 0.369 167.880 o
3 3 9 58.996 66.631 0.955 3.088 o
3 3 10 67.342 68.509 1.130 2.615 o
3 3 11 13.487 12.434 0.669 28.357 o
3 4 0 146.907 139.682 1.224 0.698 o
3 4 1 68.366 73.409 0.800 2.507 o
3 4 2 0.106 -0.078 0.205 2124.070 o
3 4 3 39.106 33.307 0.653 6.979 o
3 4 4 45.496 42.520 0.747 5.252 o
3 4 5 74.219 79.242 1.005 2.174 o
3 4 6 68.186 59.800 0.900 2.801 o
3 4 7 289.134 284.424 2.513 0.192 o
3 4 8 8.979 8.263 0.476 48.344 o
3 4 9 186.262 175.433 1.864 0.451 o
3 4 10 33.941 37.891 1.399 6.889 o
3 5 0 54.904 55.591 0.889 3.705 o
3 5 1 435.311 423.342 3.130 0.088 o
3 5 2 28.665 26.179 0.855 10.412 o
3 5 3 853.643 863.165 6.463 0.023 o
3 5 4 594.601 605.406 4.688 0.047 o
3 5 5 0.060 -0.077 0.298 1225.390 o
3 5 6 132.676 136.532 1.482 0.796 o
3 5 7 94.256 85.956 2.202 1.502 o
3 5 8 126.371 119.009 1.466 0.916 o
3 5 9 48.194 43.783 1.441 4.581 o
3 6 0 125.821 128.214 1.224 0.885 o
3 6 1 182.233 185.067 1.726 0.449 o
3 6 2 3.280 3.642 0.455 124.658 o
3 6 3 111.055 109.535 1.304 1.125 o
3 6 4 138.004 131.432 1.427 0.778 o
3 6 5 0.526 0.610 0.496 332.931 o
3 6 6 59.285 65.447 1.035 3.092 o
3 6 7 20.913 20.050 0.799 15.731 o
3 6 8 65.912 60.548 1.721 2.749 o
3 6 9 12.841 11.751 1.739 18.218 o
3 7 0 98.995 101.286 1.173 1.352 o
3 7 1 59.867 57.488 0.953 3.302 o
3 7 2 134.191 128.169 1.394 0.817 o
3 7 3 19.552 19.851 0.672 17.193 o
3 7 4 43.749 45.566 0.869 5.234 o
3 7 5 0.029 0.305 0.429 572.159 o
3 7 6 50.050 47.002 1.165 4.374 o
3 7 7 0.175 -0.629 1.046 106.354 o
3 8 0 72.582 74.533 1.235 2.286 o
3 8 1 29.073 24.731 0.832 10.558 o
3 8 2 190.268 189.811 2.231 0.416 o
3 8 3 13.041 11.171 0.665 30.312 o
3 8 4 2.234 2.495 0.509 158.198 o
3 8 5 3.893 5.976 0.827 68.814 o
3 8 6 6.111 7.613 1.186 39.595 o
3 9 0 101.729 102.112 1.610 1.286 o
3 9 1 1.676 1.142 0.473 222.733 o
3 9 2 3.821 3.617 0.564 103.229 o
3 9 3 22.954 23.572 1.438 11.619 o
3 9 4 0.002 0.900 0.862 148.093 o
3 10 0 0.217 0.227 0.631 269.050 o
3 10 1 17.486 15.187 1.002 19.257 o
4 -11 0 15.230 19.415 1.014 19.309 o
4 -11 1 45.492 50.134 2.176 4.117 o
4 -10 0 10.030 13.179 0.756 33.239 o
4 -10 1 15.314 14.012 0.829 23.298 o
4 -10 2 55.881 63.270 1.853 3.144 o
4 -10 3 4.490 5.199 0.729 73.804 o
4 -10 4 7.111 6.699 0.333 65.681 o
4 -10 5 0.236 0.018 0.288 1029.270 o
4 -9 0 280.393 266.674 3.594 0.205 o
4 -9 1 0.505 1.190 0.552 262.931 o
4 -9 2 39.969 40.099 1.071 6.008 o
4 -9 3 2.878 2.528 0.268 178.376 o
4 -9 4 31.627 30.127 0.956 8.770 o
4 -9 5 1.669 1.400 0.265 298.930 o
4 -9 6 15.351 17.335 0.567 22.879 o
4 -9 7 17.685 15.233 1.178 17.959 o
4 -8 0 144.312 157.183 2.053 0.653 o
4 -8 1 22.319 18.123 0.796 15.456 o
4 -8 2 178.581 173.350 1.519 0.480 o
4 -8 3 1.658 1.183 0.199 340.091 o
4 -8 4 72.337 71.752 0.785 2.386 o
4 -8 5 25.086 24.796 0.539 12.638 o
4 -8 6 0.057 -0.115 0.260 1579.900 o
4 -8 7 0.154 0.398 0.385 610.119 o
4 -8 8 18.193 18.355 0.800 18.376 o
4 -7 0 10.020 10.353 0.337 42.504 o
4 -7 1 101.244 101.984 0.908 1.320 o
4 -7 2 368.309 375.107 2.727 0.118 o
4 -7 3 18.458 19.475 0.451 18.937 o
4 -7 4 2.183 2.068 0.313 215.773 o
4 -7 5 59.973 58.600 0.732 3.296 o
4 -7 6 85.636 85.581 0.992 1.771 o
4 -7 7 12.189 11.901 0.559 32.348 o
4 -7 8 6.376 4.211 0.442 78.061 o
4 -7 9 32.653 31.726 1.271 7.917 o
4 -6 0 28.047 31.798 0.485 10.099 o
4 -6 1 245.820 245.114 1.856 0.260 o
4 -6 2 0.694 0.920 0.193 618.164 o
4 -6 3 275.144 279.426 2.120 0.207 o
4 -6 4 96.865 94.218 1.314 1.439 o
4 -6 5 27.862 25.651 0.512 11.271 o
4 -6 6 21.407 21.708 0.566 15.515 o
4 -6 7 9.836 10.274 0.521 40.923 o
4 -6 8 95.584 97.512 1.655 1.416 o
4 -6 9 5.597 6.223 0.542 71.516 o
4 -5 0 3.619 4.058 0.208 135.204 o
4 -5 1 14.999 14.515 0.421 25.974 o
4 -5 2 31.699 32.938 0.492 8.809 o
4 -5 3 1109.910 1127.180 7.670 0.014 o
4 -5 4 104.721 101.548 0.984 1.269 o
4 -5 5 96.465 95.794 1.055 1.443 o
4 -5 6 166.102 165.802 1.464 0.540 o
4 -5 7 8.822 9.227 0.441 47.627 o
4 -5 8 120.232 124.177 1.493 0.947 o
4 -5 9 6.269 5.745 0.506 69.751 o
4 -5 10 90.204 97.385 1.638 1.513 o
4 -4 0 203.973 216.361 1.669 0.355 o
4 -4 1 137.724 133.448 1.097 0.777 o
4 -4 2 1354.530 1294.370 8.283 0.010 o
4 -4 3 347.119 356.557 2.635 0.132 o
4 -4 4 3.232 2.827 0.242 162.353 o
4 -4 5 1.359 0.726 0.234 410.739 o
4 -4 6 7.722 7.415 0.395 58.116 o
4 -4 7 14.606 16.724 0.895 22.058 o
4 -4 8 24.713 28.258 0.746 11.700 o
4 -4 9 23.124 22.657 0.771 13.726 o
4 -4 10 0.158 0.704 0.498 377.018 o
4 -3 0 11.218 12.052 0.334 36.447 o
4 -3 1 202.029 198.344 1.490 0.380 o
4 -3 2 679.600 701.945 4.899 0.036 o
4 -3 3 207.621 214.613 1.714 0.349 o
4 -3 4 306.839 310.264 2.746 0.168 o
4 -3 5 118.111 114.648 1.293 1.019 o
4 -3 6 9.388 9.937 0.476 43.629 o
4 -3 7 56.167 56.843 0.931 3.564 o
4 -3 8 12.503 13.338 0.612 29.815 o
4 -3 9 5.873 6.705 0.519 68.580 o
4 -3 10 7.350 6.302 0.618 56.931 o
4 -2 0 166.736 158.299 1.685 0.551 o
4 -2 1 200.474 190.334 1.668 0.392 o
4 -2 2 463.105 481.540 3.714 0.075 o
4 -2 3 104.890 101.737 1.140 1.261 o
4 -2 4 142.561 139.791 1.456 0.721 o
4 -2 5 136.421 134.744 1.456 0.777 o
4 -2 6 51.551 55.441 0.880 3.968 o
4 -2 7 236.823 232.912 2.289 0.280 o
4 -2 8 0.737 1.096 0.357 395.473 o
4 -2 9 2.293 4.575 0.554 122.454 o
4 -2 10 4.244 3.243 0.579 98.457 o
4 -1 0 204.913 196.729 1.685 0.374 o
4 -1 1 377.577 395.648 3.099 0.111 o
4 -1 2 4.690 6.608 0.600 74.353 o
4 -1 3 4.093 3.224 0.279 128.783 o
4 -1 4 71.546 82.468 1.031 2.206 o
4 -1 5 1.185 1.108 0.288 371.513 o
4 -1 6 9.455 9.616 0.667 40.670 o
4 -1 7 6.218 3.833 0.395 83.689 o
4 -1 8 45.933 43.404 0.985 5.055 o
4 -1 9 53.823 55.834 1.051 3.738 o
4 -1 10 21.671 16.834 0.930 15.814 o
4 0 0 64.070 59.559 0.725 3.035 o
4 0 1 6.656 5.921 0.308 72.844 o
4 0 2 138.005 146.283 1.610 0.727 o
4 0 3 41.395 39.204 0.868 5.981 o
4 0 4 16.918 15.132 0.521 22.539 o
4 0 5 16.768 13.431 0.534 23.712 o
4 0 6 85.810 76.954 1.063 1.869 o
4 0 7 17.462 15.794 0.592 21.235 o
4 0 8 31.166 31.250 0.820 8.902 o
4 0 9 4.248 5.477 0.522 89.075 o
4 0 10 4.311 6.489 0.688 72.745 o
4 1 0 30.019 30.227 0.522 9.680 o
4 1 1 52.046 51.750 0.674 4.124 o
4 1 2 50.025 54.282 0.690 4.186 o
4 1 3 36.215 41.130 0.623 6.804 o
4 1 4 162.616 159.807 1.461 0.567 o
4 1 5 4.786 5.091 0.321 97.053 o
4 1 6 27.706 28.770 0.631 10.600 o
4 1 7 12.081 14.099 0.527 30.638 o
4 1 8 20.524 22.318 0.770 15.342 o
4 1 9 27.945 29.262 0.910 10.048 o
4 1 10 136.777 144.127 3.280 0.705 o
4 2 0 2.724 2.335 0.251 192.152 o
4 2 1 11.094 11.563 0.441 36.479 o
4 2 2 0.216 0.969 0.247 770.884 o
4 2 3 19.867 16.240 0.657 18.449 o
4 2 4 257.891 260.655 2.111 0.235 o
4 2 5 12.484 12.453 0.473 31.922 o
4 2 6 3.139 2.780 0.335 154.891 o
4 2 7 13.263 12.773 0.528 29.651 o
4 2 8 132.566 131.322 1.406 0.817 o
4 2 9 0.004 -0.355 0.607 322.050 o
4 2 10 43.651 45.909 3.365 3.567 o
4 3 0 24.817 24.382 0.654 12.681 o
4 3 1 33.859 30.576 0.610 8.468 o
4 3 2 6.642 6.714 0.355 68.478 o
4 3 3 83.783 86.592 1.057 1.799 o
4 3 4 157.603 156.718 1.575 0.595 o
4 3 5 35.597 37.173 0.776 7.211 o
4 3 6 2.597 3.180 0.368 161.393 o
4 3 7 13.288 10.336 0.475 32.444 o
4 3 8 89.873 88.930 1.256 1.625 o
4 3 9 1.190 0.562 1.002 98.762 o
4 4 0 399.592 411.834 3.303 0.100 o
4 4 1 3.689 3.721 0.327 128.274 o
4 4 2 462.582 469.908 3.749 0.076 o
4 4 3 272.708 285.224 2.489 0.206 o
4 4 4 0.124 -0.167 0.393 697.154 o
4 4 5 45.021 45.032 0.881 5.109 o
4 4 6 28.350 33.243 0.842 9.396 o
4 4 7 76.559 81.563 1.210 2.049 o
4 4 8 1.051 -0.202 0.553 265.715 o
4 5 0 0.102 0.310 0.288 1014.890 o
4 5 1 2.965 3.965 0.456 127.881 o
4 5 2 430.616 417.971 3.426 0.090 o
4 5 3 1.111 1.207 0.369 321.758 o
4 5 4 114.771 116.749 1.388 1.040 o
4 5 5 16.441 14.939 0.632 22.669 o
4 5 6 98.311 93.061 1.457 1.418 o
4 5 7 48.635 51.241 2.093 3.884 o
4 6 0 288.190 296.848 2.594 0.188 o
4 6 1 368.133 374.516 3.186 0.118 o
4 6 2 36.618 36.824 1.365 6.556 o
4 6 3 111.391 109.530 1.704 1.109 o
4 6 4 0.289 0.177 0.570 317.482 o
4 6 5 4.051 5.276 0.569 89.075 o
4 6 6 4.899 5.954 1.122 47.996 o
4 7 0 79.896 82.734 1.155 1.942 o
4 7 1 61.478 60.460 1.020 3.111 o
4 7 2 3.187 2.887 0.494 129.872 o
4 7 3 102.302 102.753 1.815 1.264 o
4 7 4 0.018 0.825 0.740 196.356 o
4 7 5 6.059 4.552 1.097 47.460 o
4 8 0 1.906 2.230 0.618 147.594 o
4 8 1 56.166 53.676 3.186 2.855 o
4 8 2 1.678 2.392 0.662 141.455 o
4 8 3 41.550 42.118 2.099 4.884 o
5 -9 0 0.159 1.019 0.287 694.879 o
5 -9 1 4.926 5.631 0.605 76.172 o
5 -9 2 0.067 -0.397 0.257 1591.280 o
5 -9 3 23.578 23.227 0.568 13.760 o
5 -8 0 16.565 18.044 0.700 20.487 o
5 -8 1 0.241 -0.041 0.266 1157.840 o
5 -8 2 14.979 12.446 0.433 27.574 o
5 -8 3 8.940 9.559 0.437 46.575 o
5 -8 4 6.911 8.571 0.391 59.569 o
5 -8 5 9.891 11.877 0.585 37.536 o
5 -7 0 3.060 3.960 0.297 144.115 o
5 -7 1 7.845 6.522 0.312 61.848 o
5 -7 2 137.578 138.660 1.336 0.758 o
5 -7 3 0.003 0.063 0.274 1494.890 o
5 -7 4 5.022 4.747 0.333 95.540 o
5 -7 5 38.969 39.394 0.905 6.323 o
5 -7 6 53.454 58.966 1.104 3.640 o
5 -6 0 19.660 21.349 0.530 16.960 o
5 -6 1 10.268 7.773 0.340 46.247 o
5 -6 2 121.110 120.557 1.153 0.963 o
5 -6 3 207.559 207.899 1.760 0.356 o
5 -6 4 14.777 11.920 0.558 27.544 o
5 -6 5 43.441 43.767 0.872 5.383 o
5 -6 6 31.247 34.652 1.042 8.194 o
5 -6 7 5.932 6.113 0.512 70.669 o
5 -5 0 19.663 19.481 0.485 17.809 o
5 -5 1 52.245 52.956 0.702 4.051 o
5 -5 2 71.041 69.038 0.828 2.485 o
5 -5 3 94.694 99.001 1.040 1.447 o
5 -5 4 19.698 20.832 0.675 16.707 o
5 -5 5 91.903 94.227 1.249 1.532 o
5 -5 6 0.000 -0.262 0.392 773.120 o
5 -5 7 4.380 3.961 0.497 98.921 o
5 -5 8 3.063 2.902 0.519 128.867 o
5 -4 0 445.828 446.148 3.685 0.083 o
5 -4 1 257.422 255.058 2.180 0.239 o
5 -4 2 14.614 14.691 0.496 26.029 o
5 -4 3 238.985 235.880 1.938 0.276 o
5 -4 4 19.246 19.389 0.572 17.941 o
5 -4 5 535.311 555.440 4.749 0.056 o
5 -4 6 0.191 1.171 0.392 462.436 o
5 -4 7 107.709 116.931 1.634 1.111 o
5 -4 8 37.625 44.269 1.098 6.029 o
5 -3 0 78.900 84.902 0.925 1.955 o
5 -3 1 12.613 10.447 0.465 33.911 o
5 -3 2 3.184 2.263 0.340 161.332 o
5 -3 3 2.014 1.010 0.314 265.281 o
5 -3 4 0.200 0.234 0.329 792.649 o
5 -3 5 171.850 179.165 1.905 0.491 o
5 -3 6 33.366 31.562 0.849 8.263 o
5 -3 7 32.222 36.997 0.979 7.770 o
5 -3 8 3.096 3.970 0.543 114.488 o
5 -2 0 8.498 7.935 0.468 51.280 o
5 -2 1 129.419 124.485 1.377 0.869 o
5 -2 2 109.403 111.458 1.302 1.133 o
5 -2 3 0.467 0.165 0.359 589.448 o
5 -2 4 24.686 25.191 0.708 12.454 o
5 -2 5 2.726 3.680 0.416 142.517 o
5 -2 6 36.962 43.193 0.925 6.328 o
5 -2 7 24.548 26.701 1.145 11.241 o
5 -2 8 30.464 28.280 0.998 9.292 o
5 -1 0 45.284 46.078 0.764 5.059 o
5 -1 1 71.751 68.056 0.949 2.465 o
5 -1 2 119.001 119.582 1.363 0.983 o
5 -1 3 1.947 1.691 0.350 232.050 o
5 -1 4 340.725 333.463 3.437 0.140 o
5 -1 5 123.974 115.073 1.429 0.956 o
5 -1 6 4.552 6.724 0.486 81.359 o
5 -1 7 8.089 8.046 0.698 47.290 o
5 -1 8 25.767 30.080 1.151 10.199 o
5 0 0 24.425 21.728 0.592 13.663 o
5 0 1 13.126 11.582 0.502 31.265 o
5 0 2 7.949 8.105 0.440 54.095 o
5 0 3 4.482 3.975 0.384 106.058 o
5 0 4 13.718 14.023 0.624 27.066 o
5 0 5 0.006 -0.328 0.409 708.154 o
5 0 6 37.425 34.788 0.892 7.006 o
5 0 7 2.322 3.728 0.588 125.545 o
5 0 8 32.435 30.497 1.272 8.104 o
5 1 0 15.418 13.905 0.552 25.108 o
5 1 1 0.067 0.168 0.351 829.678 o
5 1 2 24.333 23.691 0.655 13.084 o
5 1 3 66.501 67.751 0.968 2.688 o
5 1 4 87.819 83.691 1.192 1.731 o
5 1 5 39.762 38.779 0.906 6.244 o
5 1 6 0.538 -0.010 0.435 455.530 o
5 1 7 2.212 3.005 0.619 130.476 o
5 1 8 4.189 3.792 0.847 73.076 o
5 2 0 15.785 16.149 0.530 23.255 o
5 2 1 99.656 99.689 1.104 1.356 o
5 2 2 0.209 0.368 0.314 789.569 o
5 2 3 33.717 37.095 0.740 7.636 o
5 2 4 49.568 47.458 0.873 4.497 o
5 2 5 7.288 7.819 0.531 55.934 o
5 2 6 0.057 0.654 0.549 337.256 o
5 2 7 90.029 98.694 1.808 1.493 o
5 3 0 22.034 21.221 0.674 15.009 o
5 3 1 189.991 195.028 1.752 0.413 o
5 3 2 36.633 38.358 0.771 6.901 o
5 3 3 8.223 8.381 0.476 51.353 o
5 3 4 0.188 -0.560 0.372 728.646 o
5 3 5 22.101 23.375 1.071 13.223 o
5 3 6 32.591 34.861 1.223 7.651 o
5 4 0 79.715 86.315 1.215 1.895 o
5 4 1 148.064 153.472 1.798 0.647 o
5 4 2 43.993 42.796 0.834 5.390 o
5 4 3 28.774 25.383 0.762 10.653 o
5 4 4 8.532 7.716 0.576 49.214 o
5 4 5 28.412 31.351 1.203 9.117 o
5 4 6 0.340 0.200 1.206 78.579 o
5 5 0 172.355 173.732 1.682 0.500 o
5 5 1 0.317 -0.393 0.438 507.993 o
5 5 2 43.701 41.001 0.964 5.485 o
5 5 3 13.362 14.195 0.832 25.696 o
5 5 4 22.717 22.271 0.903 13.696 o
5 6 0 21.572 24.378 0.932 13.659 o
5 6 1 36.387 34.419 1.077 7.086 o
5 6 2 12.197 11.446 0.709 31.177 o
6 -7 0 5.776 5.714 0.519 73.175 o
6 -7 1 11.902 14.219 0.673 29.523 o
6 -6 0 31.054 34.367 0.973 8.355 o
6 -6 1 0.285 -0.163 0.413 571.367 o
6 -6 2 0.958 1.130 0.494 263.718 o
6 -6 3 6.081 7.499 0.594 61.583 o
6 -5 0 82.819 88.288 1.500 1.772 o
6 -5 1 7.295 6.970 0.506 58.933 o
6 -5 2 2.677 2.893 0.463 147.536 o
6 -5 3 22.856 22.587 0.936 13.446 o
6 -5 4 16.422 17.320 0.867 20.077 o
6 -4 0 0.040 -0.195 0.368 844.054 o
6 -4 1 2.782 1.476 0.399 180.784 o
6 -4 2 9.243 9.286 0.645 42.250 o
6 -4 3 2.463 3.981 0.538 127.537 o
6 -4 4 4.177 3.966 0.576 94.838 o
6 -4 5 9.310 7.786 0.747 42.304 o
6 -3 0 121.305 114.146 1.603 0.982 o
6 -3 1 0.808 0.308 0.436 372.513 o
6 -3 2 112.223 114.807 1.491 1.076 o
6 -3 3 17.954 17.383 0.826 18.871 o
6 -3 4 37.802 38.737 1.371 6.208 o
6 -3 5 68.299 74.493 1.508 2.405 o
6 -2 0 48.912 48.387 0.893 4.509 o
6 -2 1 6.510 7.267 0.557 61.017 o
6 -2 2 102.416 102.202 1.392 1.285 o
6 -2 3 29.006 28.176 1.007 9.730 o
6 -2 4 10.777 11.290 0.691 34.596 o
6 -2 5 13.700 14.587 0.786 25.361 o
6 -1 0 12.392 14.508 0.676 28.394 o
6 -1 1 8.489 8.530 0.553 48.247 o
6 -1 2 14.927 14.399 0.753 24.102 o
6 -1 3 0.871 0.246 0.517 297.025 o
6 -1 4 7.580 7.708 0.679 50.565 o
6 -1 5 16.383 14.052 0.785 22.330 o
6 0 0 2.245 1.124 0.407 213.415 o
6 0 1 199.950 210.983 2.978 0.363 o
6 0 2 112.218 106.925 2.229 1.093 o
6 0 3 4.170 3.364 0.903 70.566 o
6 0 4 10.758 11.297 0.747 33.823 o
6 0 5 0.017 0.698 0.712 213.972 o
6 1 0 0.009 -0.190 0.437 619.074 o
6 1 1 41.208 41.690 1.068 5.718 o
6 1 2 21.588 22.476 1.013 13.901 o
6 1 3 20.678 16.629 0.949 16.473 o
6 1 4 12.597 13.953 0.851 26.797 o
6 2 0 160.364 163.858 2.260 0.560 o
6 2 1 1.211 -0.373 0.567 245.200 o
6 2 2 19.601 19.846 1.094 15.492 o
6 2 3 0.579 0.565 0.613 242.327 o
6 3 0 204.071 204.357 2.751 0.362 o
6 3 1 11.487 10.023 0.753 33.543 o
6 3 2 1.614 1.582 0.757 131.251 o
;
_olex2_submission_special_instructions 'No special instructions were received'
loop_
_space_group_symop_id
_space_group_symop_operation_xyz
1 x,y,z
2 -x,-y,-z
loop_
_atom_site_label
_atom_site_type_symbol
_atom_site_fract_x
_atom_site_fract_y
_atom_site_fract_z
_atom_site_U_iso_or_equiv
_atom_site_adp_type
_atom_site_occupancy
_atom_site_refinement_flags_posn
S1 S 0.70815(6) 0.42315(3) 0.72387(3) 0.03304(17) Uani 1.000000 .
O1 O 0.7821(2) 0.55678(11) 0.75720(10) 0.0460(3) Uani 1.000000 .
N1 N 0.5114(3) 0.42406(13) 0.61701(11) 0.0348(3) Uani 1.000000 .
C1 C 0.1693(4) 0.1748(2) 1.08001(17) 0.0641(6) Uani 1.000000 .
H1a H 0.0049(8) 0.1878(15) 1.0699(9) 0.0962(9) Uiso 1.000000 GR
H1b H 0.178(3) 0.0842(4) 1.0753(9) 0.0962(9) Uiso 1.000000 GR
H1c H 0.240(2) 0.2131(12) 1.15127(18) 0.0962(9) Uiso 1.000000 GR
O2 O 0.8783(2) 0.34363(12) 0.69228(10) 0.0438(3) Uani 1.000000 .
N2 N 0.4139(2) 0.30575(11) 0.56377(10) 0.0320(3) Uani 1.000000 .
C2 C 0.3040(3) 0.23658(17) 0.99138(14) 0.0453(4) Uani 1.000000 .
N3 N -0.2064(2) 0.28011(13) 0.33223(12) 0.0391(3) Uani 1.000000 .
O3 O -0.2012(2) 0.36576(13) 0.40558(11) 0.0517(3) Uani 1.000000 .
C3 C 0.2496(3) 0.35045(19) 0.95211(16) 0.0495(4) Uani 1.000000 .
H3 H 0.1281(3) 0.38881(19) 0.98114(16) 0.0594(5) Uiso 1.000000 R
C4 C 0.3712(3) 0.40837(17) 0.87103(15) 0.0443(4) Uani 1.000000 .
H4 H 0.3326(3) 0.48493(17) 0.84564(15) 0.0532(5) Uiso 1.000000 R
O4 O -0.3179(3) 0.27962(15) 0.24183(13) 0.0698(5) Uani 1.000000 .
C5 C 0.5521(3) 0.35058(15) 0.82795(12) 0.0334(3) Uani 1.000000 .
C6 C 0.6114(3) 0.23760(17) 0.86573(16) 0.0476(4) Uani 1.000000 .
H6 H 0.7327(3) 0.19920(17) 0.83652(16) 0.0571(5) Uiso 1.000000 R
C7 C 0.4878(4) 0.18232(19) 0.94768(17) 0.0549(5) Uani 1.000000 .
H7 H 0.5291(4) 0.10681(19) 0.97419(17) 0.0658(6) Uiso 1.000000 R
C8 C 0.2394(3) 0.30826(14) 0.49120(12) 0.0321(3) Uani 1.000000 .
H8 H 0.1789(3) 0.38455(14) 0.48023(12) 0.0385(4) Uiso 1.000000 R
C9 C 0.1354(3) 0.18825(14) 0.42508(12) 0.0299(3) Uani 1.000000 .
C10 C -0.0730(3) 0.17278(15) 0.35149(13) 0.0320(3) Uani 1.000000 .
C11 C -0.1631(3) 0.05689(17) 0.29196(14) 0.0398(4) Uani 1.000000 .
H11 H -0.3016(3) 0.05023(17) 0.24374(14) 0.0477(5) Uiso 1.000000 R
C12 C -0.0474(3) -0.04883(16) 0.30423(15) 0.0431(4) Uani 1.000000 .
H12 H -0.1097(3) -0.12776(16) 0.26625(15) 0.0517(5) Uiso 1.000000 R
C13 C 0.1625(3) -0.03596(16) 0.37374(15) 0.0437(4) Uani 1.000000 .
H13 H 0.2438(3) -0.10614(16) 0.38120(15) 0.0524(5) Uiso 1.000000 R
C14 C 0.2514(3) 0.07979(16) 0.43174(14) 0.0391(4) Uani 1.000000 .
H14 H 0.3940(3) 0.08641(16) 0.47713(14) 0.0469(5) Uiso 1.000000 R
H1 H 0.430(4) 0.476(2) 0.6190(17) 0.048(6) Uiso 1.000000 .
loop_
_atom_site_aniso_label
_atom_site_aniso_U_11
_atom_site_aniso_U_22
_atom_site_aniso_U_33
_atom_site_aniso_U_12
_atom_site_aniso_U_13
_atom_site_aniso_U_23
S1 0.0336(3) 0.0298(3) 0.0341(3) 0.00280(16) -0.00033(16) 0.00011(16)
O1 0.0501(7) 0.0339(6) 0.0492(7) -0.0054(5) 0.0022(6) -0.0030(5)
N1 0.0413(8) 0.0262(7) 0.0366(7) 0.0090(6) -0.0027(6) 0.0004(5)
C1 0.0755(14) 0.0618(13) 0.0487(11) -0.0150(11) 0.0129(10) 0.0029(10)
O2 0.0378(6) 0.0482(7) 0.0470(7) 0.0132(5) 0.0032(5) 0.0023(5)
N2 0.0359(7) 0.0269(6) 0.0327(7) 0.0047(5) 0.0012(5) 0.0017(5)
C2 0.0500(10) 0.0445(10) 0.0351(9) -0.0096(8) 0.0001(7) -0.0018(7)
N3 0.0304(7) 0.0393(8) 0.0481(8) 0.0075(6) -0.0002(6) 0.0070(6)
O3 0.0515(8) 0.0498(8) 0.0582(8) 0.0246(6) 0.0057(6) -0.0011(6)
C3 0.0465(10) 0.0527(11) 0.0492(10) 0.0070(8) 0.0106(8) -0.0031(8)
C4 0.0472(10) 0.0397(9) 0.0478(10) 0.0115(7) 0.0056(8) 0.0048(7)
O4 0.0727(10) 0.0629(9) 0.0706(10) 0.0234(8) -0.0326(8) 0.0043(7)
C5 0.0349(8) 0.0326(8) 0.0304(7) 0.0021(6) -0.0028(6) -0.0002(6)
C6 0.0532(10) 0.0412(9) 0.0522(11) 0.0151(8) 0.0101(8) 0.0091(8)
C7 0.0695(13) 0.0423(10) 0.0549(11) 0.0089(9) 0.0079(10) 0.0158(8)
C8 0.0354(8) 0.0283(8) 0.0337(8) 0.0076(6) 0.0038(6) 0.0049(6)
C9 0.0307(7) 0.0296(7) 0.0304(7) 0.0063(6) 0.0041(6) 0.0051(6)
C10 0.0302(7) 0.0332(8) 0.0339(8) 0.0064(6) 0.0053(6) 0.0063(6)
C11 0.0353(8) 0.0419(9) 0.0397(9) 0.0018(7) -0.0013(7) 0.0007(7)
C12 0.0490(10) 0.0335(8) 0.0443(9) 0.0024(7) 0.0035(8) -0.0051(7)
C13 0.0500(10) 0.0326(8) 0.0497(10) 0.0142(7) 0.0014(8) -0.0005(7)
C14 0.0394(9) 0.0364(8) 0.0423(9) 0.0128(7) -0.0025(7) 0.0017(7)
loop_
_atom_type_symbol
_atom_type_scat_dispersion_real
_atom_type_scat_dispersion_imag
_atom_type_scat_Cromer_Mann_a1
_atom_type_scat_Cromer_Mann_a2
_atom_type_scat_Cromer_Mann_a3
_atom_type_scat_Cromer_Mann_a4
_atom_type_scat_Cromer_Mann_b1
_atom_type_scat_Cromer_Mann_b2
_atom_type_scat_Cromer_Mann_b3
_atom_type_scat_Cromer_Mann_b4
_atom_type_scat_Cromer_Mann_c
_atom_type_scat_source
_atom_type_scat_dispersion_source
H 0.00000 0.00000 0.49300 0.32291 0.14019 0.04081 10.51090 26.12570 3.14236
57.79970 0.0030380000826
'International Tables Volume C Table 6.1.1.4 (pp. 500-502)'
'Henke, Gullikson and Davis, At. Data and Nucl. Data Tables, 1993, 54, 2'
C 0.00347 0.00161 2.31000 1.02000 1.58860 0.86500 20.84390 10.20750 0.56870
51.65120 0.215599998832
'International Tables Volume C Table 6.1.1.4 (pp. 500-502)'
'Henke, Gullikson and Davis, At. Data and Nucl. Data Tables, 1993, 54, 2'
S 0.12424 0.12443 6.90530 5.20340 1.43790 1.58630 1.46790 22.21510 0.25360
56.17200 0.866900026798
'International Tables Volume C Table 6.1.1.4 (pp. 500-502)'
'Henke, Gullikson and Davis, At. Data and Nucl. Data Tables, 1993, 54, 2'
O 0.01158 0.00611 3.04850 2.28680 1.54630 0.86700 13.27710 5.70110 0.32390
32.90890 0.250800013542
'International Tables Volume C Table 6.1.1.4 (pp. 500-502)'
'Henke, Gullikson and Davis, At. Data and Nucl. Data Tables, 1993, 54, 2'
N 0.00653 0.00323 12.21260 3.13220 2.01250 1.16630 0.00570 9.89330 28.99750
0.58260 -11.5290002823
'International Tables Volume C Table 6.1.1.4 (pp. 500-502)'
'Henke, Gullikson and Davis, At. Data and Nucl. Data Tables, 1993, 54, 2'
loop_
_geom_angle_atom_site_label_1
_geom_angle_atom_site_label_2
_geom_angle_atom_site_label_3
_geom_angle
_geom_angle_site_symmetry_1
_geom_angle_site_symmetry_3
_geom_angle_publ_flag
N1 S1 O1 103.56(7) . . ?
O2 S1 O1 120.48(7) . . ?
O2 S1 N1 107.91(7) . . ?
C5 S1 O1 109.01(7) . . ?
C5 S1 N1 106.83(7) . . ?
C5 S1 O2 108.25(7) . . ?
N2 N1 S1 116.68(10) . . ?
H1 N1 S1 117.2(16) . . ?
H1 N1 N2 117.1(16) . . ?
H1b C1 H1a 109.5 . . ?
H1c C1 H1a 109.5 . . ?
H1c C1 H1b 109.5 . . ?
C2 C1 H1a 109.5 . . ?
C2 C1 H1b 109.5 . . ?
C2 C1 H1c 109.5 . . ?
C8 N2 N1 114.99(12) . . ?
C3 C2 C1 120.86(19) . . ?
C7 C2 C1 121.13(18) . . ?
C7 C2 C3 118.00(16) . . ?
O4 N3 O3 122.80(14) . . ?
C10 N3 O3 119.55(13) . . ?
C10 N3 O4 117.65(14) . . ?
H3 C3 C2 119.18(11) . . ?
C4 C3 C2 121.63(17) . . ?
C4 C3 H3 119.18(11) . . ?
H4 C4 C3 120.55(11) . . ?
C5 C4 C3 118.90(16) . . ?
C5 C4 H4 120.55(10) . . ?
C4 C5 S1 119.41(12) . . ?
C6 C5 S1 119.72(13) . . ?
C6 C5 C4 120.87(15) . . ?
H6 C6 C5 120.53(10) . . ?
C7 C6 C5 118.94(17) . . ?
C7 C6 H6 120.53(11) . . ?
C6 C7 C2 121.64(17) . . ?
H7 C7 C2 119.18(11) . . ?
H7 C7 C6 119.18(11) . . ?
H8 C8 N2 120.65(8) . . ?
C9 C8 N2 118.69(13) . . ?
C9 C8 H8 120.65(8) . . ?
C10 C9 C8 125.07(13) . . ?
C14 C9 C8 119.26(14) . . ?
C14 C9 C10 115.65(14) . . ?
C9 C10 N3 121.53(14) . . ?
C11 C10 N3 116.07(14) . . ?
C11 C10 C9 122.40(14) . . ?
H11 C11 C10 120.05(9) . . ?
C12 C11 C10 119.91(15) . . ?
C12 C11 H11 120.05(10) . . ?
H12 C12 C11 120.40(10) . . ?
C13 C12 C11 119.19(16) . . ?
C13 C12 H12 120.40(10) . . ?
H13 C13 C12 119.81(10) . . ?
C14 C13 C12 120.38(15) . . ?
C14 C13 H13 119.81(10) . . ?
C13 C14 C9 122.40(15) . . ?
H14 C14 C9 118.80(9) . . ?
H14 C14 C13 118.80(10) . . ?
loop_
_geom_bond_atom_site_label_1
_geom_bond_atom_site_label_2
_geom_bond_distance
_geom_bond_site_symmetry_2
_geom_bond_publ_flag
S1 O1 1.4294(12) . ?
S1 N1 1.6410(14) . ?
S1 O2 1.4246(12) . ?
S1 C5 1.7618(16) . ?
N1 N2 1.3816(18) . ?
N1 H1 0.77(2) . ?
C1 H1a 0.9600 . ?
C1 H1b 0.9600 . ?
C1 H1c 0.9600 . ?
C1 C2 1.505(3) . ?
N2 C8 1.273(2) . ?
C2 C3 1.384(3) . ?
C2 C7 1.386(3) . ?
N3 O3 1.2211(19) . ?
N3 O4 1.2208(19) . ?
N3 C10 1.467(2) . ?
C3 H3 0.9300 . ?
C3 C4 1.378(3) . ?
C4 H4 0.9300 . ?
C4 C5 1.387(2) . ?
C5 C6 1.378(2) . ?
C6 H6 0.9300 . ?
C6 C7 1.381(3) . ?
C7 H7 0.9300 . ?
C8 H8 0.9300 . ?
C8 C9 1.470(2) . ?
C9 C10 1.403(2) . ?
C9 C14 1.400(2) . ?
C10 C11 1.383(2) . ?
C11 H11 0.9300 . ?
C11 C12 1.380(2) . ?
C12 H12 0.9300 . ?
C12 C13 1.384(3) . ?
C13 H13 0.9300 . ?
C13 C14 1.373(2) . ?
C14 H14 0.9300 . ?
loop_
_refln_index_h
_refln_index_k
_refln_index_l
_refln_F_squared_meas
_refln_F_squared_sigma
-1 0 0 46.38 0.95
-1 0 0 46.95 0.95
-1 0 0 45.29 0.9
1 0 0 46.56 0.95
1 0 0 49.01 0.93
-2 0 0 883.71 16.8
-2 0 0 883.15 16.79
2 0 0 925.99 16.75
2 0 0 902.88 16.8
-3 0 0 121.11 2.51
-3 0 0 120.27 2.49
-3 0 0 122.03 2.47
3 0 0 124.14 2.49
3 0 0 116.23 2.35
3 0 0 121.73 2.44
-4 0 0 21.35 0.71
-4 0 0 21.02 0.72
-4 0 0 22.13 0.76
4 0 0 20.87 0.71
4 0 0 21.48 0.68
4 0 0 21.39 0.57
4 0 0 20.39 0.69
-5 0 0 6.99 0.58
-5 0 0 8.3 0.54
5 0 0 7.28 0.56
5 0 0 7.5 0.54
5 0 0 7.83 0.56
5 0 0 8.05 0.4
-6 0 0 0.31 0.39
-6 0 0 0.02 0.36
6 0 0 0.35 0.35
6 0 0 0.49 0.27
6 0 0 -0.03 0.43
6 0 0 1.25 0.41
6 -1 0 5.61 0.62
6 -1 0 5.4 0.66
6 -1 0 5.46 0.44
-6 1 0 4.35 0.51
-6 1 0 4.96 0.55
5 -1 0 16.53 0.73
5 -1 0 16.53 0.69
5 -1 0 15.86 0.7
5 -1 0 16.87 0.53
-5 1 0 15.87 0.71
-5 1 0 16.53 0.72
4 -1 0 69.94 1.63
4 -1 0 70.73 1.56
4 -1 0 68.75 1.62
4 -1 0 70.3 1.45
-4 1 0 70.01 1.64
-4 1 0 68.9 1.59
-4 1 0 72.38 1.67
3 -1 0 34.85 0.75
3 -1 0 35.62 0.82
-3 1 0 34.93 0.84
-3 1 0 33.51 0.89
-3 1 0 34 0.89
2 -1 0 144.65 2.89
2 -1 0 150.01 2.81
2 -1 0 144.82 2.78
-2 1 0 149.77 2.83
-2 1 0 145.17 2.88
-2 1 0 143.83 2.88
1 -1 0 349.37 7.06
-1 1 0 390.39 7.08
-1 1 0 394.16 7.09
1 1 0 794.59 14.78
-2 -1 0 212 3.98
-2 -1 0 200.61 3.97
-2 -1 0 210.33 3.96
-2 -1 0 205.27 3.99
2 1 0 216.4 3.98
2 1 0 197.54 3.99
2 1 0 197.82 3.98
2 1 0 214.81 3.96
2 1 0 196.72 3.91
-3 -1 0 0.81 0.18
-3 -1 0 0.65 0.17
-3 -1 0 0.6 0.17
-3 -1 0 0.49 0.15
3 1 0 0.43 0.15
3 1 0 0.91 0.19
3 1 0 0.69 0.12
3 1 0 1.13 0.19
-4 -1 0 11.22 0.52
-4 -1 0 11.67 0.57
-4 -1 0 10.15 0.52
-4 -1 0 10.32 0.55
4 1 0 11.69 0.55
4 1 0 10.2 0.51
4 1 0 10.21 0.51
4 1 0 10.6 0.53
4 1 0 10.86 0.41
-5 -1 0 4.38 0.47
-5 -1 0 5.06 0.57
5 1 0 5.24 0.39
5 1 0 5.44 0.54
5 1 0 4.41 0.5
5 1 0 5 0.49
-6 -1 0 0.49 0.41
-6 -1 0 0.1 0.44
6 1 0 -0.63 0.4
6 1 0 -0.19 0.29
6 1 0 0.28 0.38
6 1 0 -0.4 0.4
6 -2 0 17.18 0.9
6 -2 0 17.92 0.88
6 -2 0 16.32 0.56
6 -2 0 18.23 0.82
-6 2 0 17.39 0.84
-6 2 0 17.48 0.9
5 -2 0 3.25 0.32
5 -2 0 2.97 0.41
5 -2 0 2.26 0.32
5 -2 0 2.62 0.36
-5 2 0 2.38 0.34
-5 2 0 3.28 0.38
4 -2 0 57.32 1.37
4 -2 0 55.07 1.38
4 -2 0 56.73 1.19
-4 2 0 56.53 1.4
-4 2 0 56.42 1.42
3 -2 0 5.88 0.39
3 -2 0 5.75 0.24
3 -2 0 6.15 0.27
3 -2 0 6.02 0.29
-3 2 0 6.05 0.29
-3 2 0 6.49 0.35
-3 2 0 5.99 0.35
-3 2 0 6.36 0.32
2 -2 0 18.03 0.52
2 -2 0 18.11 0.44
2 -2 0 19.12 0.43
2 -2 0 18.2 0.49
2 -2 0 18.82 0.42
-2 2 0 18.99 0.44
-2 2 0 19.03 0.52
-2 2 0 18.88 0.51
-2 2 0 19.27 0.44
1 -2 0 505.6 9.47
1 -2 0 500.64 9.46
1 -2 0 515.71 9.45
-1 2 0 506.56 9.48
-1 2 0 503.97 9.47
0 -2 0 248.47 4.73
0 -2 0 250.71 4.72
0 2 0 249.61 4.74
0 2 0 244.93 4.72
0 2 0 248.99 4.73
0 2 0 264.96 4.69
-1 -2 0 67.43 1.39
-1 -2 0 67.17 1.38
-1 -2 0 70.32 1.39
-1 -2 0 72.23 1.4
1 2 0 69.23 1.4
1 2 0 66.99 1.39
1 2 0 67.27 1.38
1 2 0 69.45 1.43
1 2 0 70.26 1.38
-2 -2 0 25.63 0.67
-2 -2 0 26.01 0.67
-2 -2 0 26.45 0.66
-2 -2 0 25.9 0.66
2 2 0 26.42 0.68
2 2 0 26.41 0.66
2 2 0 26.83 0.68
2 2 0 26.86 0.63
2 2 0 25.28 0.67
-3 -2 0 9.53 0.42
-3 -2 0 9.42 0.46
-3 -2 0 9.4 0.43
-3 -2 0 10.03 0.43
3 2 0 9.97 0.44
3 2 0 10.02 0.37
3 2 0 10.08 0.44
3 2 0 9.94 0.46
-4 -2 0 0.68 0.25
-4 -2 0 0.9 0.27
-4 -2 0 1 0.24
4 2 0 0.67 0.23
4 2 0 0.62 0.25
4 2 0 0.79 0.24
4 2 0 0.97 0.2
-5 -2 0 5.7 0.63
-5 -2 0 5.78 0.52
-5 -2 0 5.6 0.6
5 2 0 5.82 0.44
5 2 0 6.66 0.54
5 2 0 5.16 0.64
5 2 0 4.47 0.46
5 2 0 6.49 0.56
-6 -2 0 58.74 1.72
6 2 0 57.04 1.43
6 2 0 60.4 1.7
6 2 0 58.02 1.65
6 -3 0 40.55 0.99
6 -3 0 41.63 1.31
6 -3 0 39.08 1.18
6 -3 0 42.37 1.35
-6 3 0 38.97 1.22
-6 3 0 42.27 1.36
5 -3 0 28.51 0.88
5 -3 0 31.38 0.93
5 -3 0 30.51 1.02
5 -3 0 30.57 0.99
5 -3 0 30.34 0.78
-5 3 0 29.17 0.98
-5 3 0 30.84 0.96
-5 3 0 30.92 1
4 -3 0 4.03 0.37
4 -3 0 3.99 0.4
4 -3 0 4.23 0.28
4 -3 0 4.29 0.3
4 -3 0 4.44 0.33
-4 3 0 3.57 0.38
-4 3 0 3.84 0.42
-4 3 0 5.09 0.35
-4 3 0 4.56 0.37
3 -3 0 0.97 0.14
3 -3 0 0.63 0.13
3 -3 0 0.84 0.14
-3 3 0 0.63 0.15
-3 3 0 0.41 0.14
-3 3 0 1.07 0.19
-3 3 0 1.2 0.22
2 -3 0 163.23 3.08
2 -3 0 163.86 3.21
2 -3 0 162.65 3.24
2 -3 0 166.96 3.08
2 -3 0 164.37 3.24
-2 3 0 165.32 3.09
-2 3 0 163.49 3.24
-2 3 0 164.64 3.09
1 -3 0 9.45 0.3
1 -3 0 9.27 0.29
1 -3 0 9.42 0.31
1 -3 0 9.67 0.3
-1 3 0 9.17 0.3
0 -3 0 326.96 6.01
0 -3 0 323.02 6.05
0 -3 0 309.34 6.02
0 -3 0 322.36 6.06
0 3 0 334.18 6.04
0 3 0 318.08 6.09
0 3 0 314.08 6.09
0 3 0 334.01 6.03
0 3 0 315.32 6.06
-1 -3 0 17.52 0.47
-1 -3 0 19.07 0.49
-1 -3 0 18.41 0.48
1 3 0 19.51 0.48
1 3 0 18.44 0.49
1 3 0 18.14 0.5
1 3 0 17.81 0.49
-2 -3 0 47.1 1.06
-2 -3 0 45.71 1.05
-2 -3 0 44.72 1.05
-2 -3 0 47.57 1.07
2 3 0 43.97 1.05
2 3 0 47.22 1.06
2 3 0 45.5 1.04
2 3 0 47.02 1.08
-3 -3 0 23.65 0.71
-3 -3 0 24.46 0.75
-3 -3 0 24.32 0.71
-3 -3 0 22.99 0.71
3 3 0 23.36 0.73
3 3 0 22.91 0.73
3 3 0 24.32 0.72
3 3 0 22.85 0.66
-4 -3 0 7.81 0.49
-4 -3 0 9.32 0.58
-4 -3 0 8.98 0.55
4 3 0 8.19 0.52
4 3 0 9.21 0.45
4 3 0 9.09 0.51
4 3 0 7.91 0.57
-5 -3 0 5.45 0.65
-5 -3 0 7.65 0.58
-5 -3 0 7.92 0.72
5 3 0 9.13 0.72
5 3 0 7.76 0.5
5 3 0 7.49 0.65
5 3 0 7.6 0.62
5 3 0 6.9 0.6
-6 -3 0 75.08 2.21
6 3 0 71.47 1.89
6 3 0 73.05 1.74
6 3 0 72.23 2.11
6 -4 0 -0.52 0.36
6 -4 0 -0.09 0.27
6 -4 0 -0.28 0.36
6 -4 0 0.02 0.28
-6 4 0 0.63 0.33
-6 4 0 -0.27 0.38
5 -4 0 161.55 3.44
5 -4 0 166.26 3.39
5 -4 0 159.49 3.32
5 -4 0 155.6 3.13
5 -4 0 162.89 3.23
-5 4 0 158.62 3.42
-5 4 0 152.19 3.32
-5 4 0 155.97 3.26
4 -4 0 76.58 1.62
4 -4 0 77.2 1.61
4 -4 0 76.81 1.62
4 -4 0 78.7 1.77
4 -4 0 76 1.8
-4 4 0 76.97 1.64
-4 4 0 78.21 1.65
-4 4 0 76.63 1.8
3 -4 0 5.49 0.34
3 -4 0 5.4 0.21
3 -4 0 4.91 0.29
3 -4 0 5.48 0.22
-3 4 0 5.63 0.24
-3 4 0 5.33 0.24
2 -4 0 275.91 5.34
2 -4 0 280.46 5.31
-2 4 0 274.45 5.36
-2 4 0 281.88 5.37
1 -4 0 76.04 1.54
1 -4 0 73.5 1.56
1 -4 0 74.79 1.54
-1 4 0 76.55 1.55
-1 4 0 74.26 1.54
0 -4 0 103.32 2
0 -4 0 105.97 2
0 -4 0 103.96 2.05
0 4 0 101.2 2.07
0 4 0 106.28 2.02
0 4 0 99.62 2.05
0 4 0 101.41 2.09
0 4 0 105.11 2.01
-1 -4 0 16.66 0.47
-1 -4 0 16.84 0.47
-1 -4 0 16.43 0.47
1 4 0 16.55 0.51
1 4 0 17.08 0.47
1 4 0 17.43 0.49
-2 -4 0 200.31 3.83
-2 -4 0 182.31 3.83
-2 -4 0 196.53 3.83
-2 -4 0 198.12 3.83
2 4 0 183.81 3.99
2 4 0 201.42 3.81
2 4 0 204.62 3.86
2 4 0 185.71 3.81
2 4 0 191.03 3.86
-3 -4 0 50.11 1.22
-3 -4 0 51.26 1.24
-3 -4 0 48.7 1.23
-3 -4 0 49.58 1.25
3 4 0 49.8 1.22
3 4 0 49.42 1.19
3 4 0 50.52 1.27
3 4 0 49.02 1.26
-4 -4 0 148.58 3.12
-4 -4 0 148.17 3.14
-4 -4 0 143.93 3.1
4 4 0 146.98 3.17
4 4 0 144.63 3.1
4 4 0 146.61 3.16
4 4 0 148.86 3.03
-5 -4 0 31.24 1.11
-5 -4 0 30.88 1.05
5 4 0 30.52 1.16
5 4 0 29.47 1.09
5 4 0 31.66 1.03
5 4 0 30.7 0.96
6 -5 0 31.25 1.13
6 -5 0 33.46 1.19
6 -5 0 30.45 0.97
-6 5 0 31.22 1.03
5 -5 0 6.81 0.54
5 -5 0 6.37 0.46
5 -5 0 7.52 0.46
5 -5 0 6.82 0.58
5 -5 0 6.53 0.41
-5 5 0 7.43 0.47
-5 5 0 6.71 0.49
-5 5 0 7.37 0.58
4 -5 0 1.41 0.26
4 -5 0 1.19 0.3
4 -5 0 1.58 0.22
4 -5 0 1.24 0.17
4 -5 0 1.44 0.17
-4 5 0 1.66 0.2
-4 5 0 1.12 0.28
-4 5 0 1.56 0.19
3 -5 0 18.12 0.57
3 -5 0 18.67 0.42
3 -5 0 19.05 0.61
-3 5 0 18.99 0.64
-3 5 0 18.39 0.65
-3 5 0 18.75 0.44
2 -5 0 114.47 2.33
2 -5 0 115.28 2.33
2 -5 0 113.26 2.39
-2 5 0 111.94 2.36
-2 5 0 116.42 2.36
1 -5 0 28.32 0.71
1 -5 0 28.81 0.7
-1 5 0 28.54 0.72
-1 5 0 28.62 0.72
0 -5 0 154.85 3.02
0 -5 0 156.93 2.96
0 -5 0 154 3.01
0 -5 0 151.64 2.95
0 5 0 150.68 3.01
0 5 0 146.85 3.03
0 5 0 154.22 2.97
0 5 0 157.61 2.97
-1 -5 0 22.64 0.6
-1 -5 0 21.87 0.59
-1 -5 0 22.25 0.61
1 5 0 21.77 0.65
1 5 0 21.72 0.6
1 5 0 21.18 0.64
1 5 0 22.16 0.62
-2 -5 0 16.5 0.57
-2 -5 0 15.76 0.58
-2 -5 0 16.13 0.54
-2 -5 0 16.62 0.54
2 5 0 15.57 0.57
2 5 0 16.36 0.57
2 5 0 15.85 0.59
2 5 0 16.48 0.58
-3 -5 0 20.77 0.69
-3 -5 0 19.51 0.72
-3 -5 0 20.6 0.7
-3 -5 0 18.41 0.73
3 5 0 18.34 0.74
3 5 0 20.88 0.68
3 5 0 19.3 0.72
3 5 0 20.02 0.71
-4 -5 0 0.43 0.35
-4 -5 0 0.13 0.24
-4 -5 0 0.14 0.29
4 5 0 0.09 0.3
4 5 0 -0.1 0.24
4 5 0 0.12 0.23
4 5 0 0.05 0.32
-5 -5 0 62.8 1.67
-5 -5 0 62.11 1.79
-5 -5 0 63.35 1.73
5 5 0 61.67 1.58
5 5 0 62.15 1.58
5 5 0 62.29 1.73
5 5 0 60.81 1.78
5 5 0 60.13 1.76
6 -6 0 12.47 0.8
6 -6 0 13.4 0.81
6 -6 0 11.76 0.6
-6 6 0 11.86 0.64
5 -6 0 8.04 0.57
5 -6 0 7.29 0.41
5 -6 0 7.19 0.45
5 -6 0 8.34 0.52
5 -6 0 8.44 0.62
-5 6 0 7.24 0.46
-5 6 0 7.97 0.63
-5 6 0 7.07 0.48
4 -6 0 11.45 0.37
4 -6 0 11.18 0.57
4 -6 0 11.62 0.37
4 -6 0 10.79 0.59
4 -6 0 11.54 0.52
-4 6 0 11.38 0.4
-4 6 0 10.63 0.58
3 -6 0 172.29 3.49
3 -6 0 173.59 3.46
-3 6 0 172.18 3.52
-3 6 0 173.17 3.54
2 -6 0 47.1 1.12
-2 6 0 46.56 1.13
1 -6 0 58.38 1.13
1 -6 0 57.87 1.14
1 -6 0 57.36 1.28
1 -6 0 57.5 1.29
-1 6 0 58.9 1.15
-1 6 0 58.12 1.15
-1 6 0 58.58 1.3
-1 6 0 55.72 1.35
0 -6 0 71.53 1.51
0 -6 0 71.87 1.52
0 -6 0 70.7 1.45
0 -6 0 72.11 1.46
0 6 0 67.72 1.58
0 6 0 70.25 1.47
0 6 0 71.37 1.48
0 6 0 69.92 1.51
0 6 0 69.06 1.55
-1 -6 0 141.36 2.87
-1 -6 0 142.21 2.86
-1 -6 0 141.49 2.88
1 6 0 146.32 2.89
1 6 0 140.73 2.92
1 6 0 141.11 2.86
1 6 0 143.79 2.94
-2 -6 0 150.93 3.1
-2 -6 0 152.84 3.09
-2 -6 0 149.26 3.07
2 6 0 152.29 3.13
2 6 0 151.21 3.13
2 6 0 148.95 3.14
-3 -6 0 45.12 1.2
-3 -6 0 46.84 1.24
-3 -6 0 45.31 1.24
-3 -6 0 46.96 1.23
3 6 0 45.08 1.21
3 6 0 43.71 1.26
3 6 0 46.29 1.28
3 6 0 46.26 1.22
-4 -6 0 106.6 2.41
-4 -6 0 106.82 2.47
-4 -6 0 106.57 2.45
4 6 0 107.24 2.53
4 6 0 106.58 2.5
4 6 0 103.49 2.41
4 6 0 103.83 2.37
-5 -6 0 9.45 0.96
-5 -6 0 8.41 0.73
-5 -6 0 8.05 1.08
5 6 0 10.14 0.91
5 6 0 8.61 0.71
5 6 0 7.73 0.7
6 -7 0 2.68 0.5
6 -7 0 2.19 0.48
6 -7 0 1.98 0.31
-6 7 0 1.61 0.31
5 -7 0 1.24 0.21
5 -7 0 1.54 0.39
5 -7 0 1.31 0.25
5 -7 0 1.71 0.37
-5 7 0 1.68 0.41
-5 7 0 1.34 0.25
-5 7 0 1.45 0.26
4 -7 0 3.85 0.23
4 -7 0 3.65 0.24
4 -7 0 4.34 0.49
4 -7 0 3.41 0.37
-4 7 0 3.44 0.26
-4 7 0 3.66 0.39
3 -7 0 16.23 0.62
3 -7 0 16.42 0.61
-3 7 0 14.7 0.66
-3 7 0 15.5 0.63
2 -7 0 66.81 1.51
-2 7 0 65.69 1.54
-2 7 0 66.96 1.53
-2 7 0 66.19 1.51
1 -7 0 5.46 0.33
1 -7 0 5.4 0.34
1 -7 0 4.92 0.21
1 -7 0 5.08 0.21
-1 7 0 5.11 0.23
-1 7 0 5.23 0.24
-1 7 0 5.6 0.36
-1 7 0 4.49 0.38
0 -7 0 27.97 0.71
0 -7 0 28.66 0.77
0 -7 0 29.09 0.71
0 7 0 28.84 0.86
0 7 0 26.99 0.81
0 7 0 28.51 0.74
0 7 0 28.33 0.73
0 7 0 29.35 0.86
-1 -7 0 126.68 2.63
-1 -7 0 126.69 2.64
1 7 0 128.32 2.71
1 7 0 129.73 2.74
-2 -7 0 11.68 0.53
-2 -7 0 11.6 0.51
-2 -7 0 10.43 0.54
2 7 0 10.93 0.58
2 7 0 10.57 0.56
2 7 0 10.7 0.59
-3 -7 0 37.04 1.12
-3 -7 0 36.17 1.11
-3 -7 0 35.89 1.05
3 7 0 36.39 1.16
3 7 0 34.82 1.08
3 7 0 36.13 1.14
3 7 0 36.43 1.1
-4 -7 0 29.53 1.02
-4 -7 0 27.24 1.12
-4 -7 0 30.24 1.12
4 7 0 28.62 1.07
4 7 0 30.73 1.12
4 7 0 30.19 1.03
4 7 0 29.63 1.17
5 -8 0 5.7 0.41
5 -8 0 5.83 0.6
5 -8 0 6.56 0.38
-5 8 0 6.3 0.41
-5 8 0 7.81 0.61
-5 8 0 6.81 0.71
4 -8 0 55.91 1.49
4 -8 0 55.23 1.45
-4 8 0 56.47 1.42
-4 8 0 56.57 1.5
3 -8 0 119 2.55
-3 8 0 118.15 2.56
2 -8 0 8.17 0.46
-2 8 0 8.39 0.48
-2 8 0 8.51 0.49
-2 8 0 7.98 0.51
1 -8 0 70.33 1.6
1 -8 0 71.15 1.59
1 -8 0 71.67 1.45
1 -8 0 70.69 1.44
-1 8 0 70.99 1.47
-1 8 0 71.95 1.47
-1 8 0 68.69 1.63
-1 8 0 69.2 1.68
0 -8 0 261.63 5.18
0 -8 0 266.4 5.18
0 -8 0 269.05 5.25
0 -8 0 272.18 5.27
0 8 0 267.28 5.22
0 8 0 264.29 5.37
0 8 0 278.14 5.23
0 8 0 272.2 5.33
-1 -8 0 49.5 1.22
-1 -8 0 49.04 1.21
-1 -8 0 50.1 1.24
1 8 0 50.21 1.3
1 8 0 49.97 1.26
1 8 0 49.39 1.34
-2 -8 0 7.32 0.46
-2 -8 0 6.13 0.48
-2 -8 0 6.53 0.52
2 8 0 5.99 0.54
2 8 0 6.15 0.53
2 8 0 6.61 0.51
-3 -8 0 26.38 0.99
-3 -8 0 26.6 0.91
3 8 0 26.75 0.97
3 8 0 26.59 1.05
3 8 0 26.55 1.02
-4 -8 0 0.81 0.34
-4 -8 0 1.07 0.52
4 8 0 1.02 0.87
4 8 0 0.48 0.38
5 -9 0 0.11 0.18
5 -9 0 1.22 0.41
5 -9 0 0.44 0.21
5 -9 0 0.38 0.42
-5 9 0 0.41 0.39
-5 9 0 0.03 0.44
-5 9 0 0.26 0.23
4 -9 0 94.93 2.22
-4 9 0 94.7 2.25
-4 9 0 95.61 2.19
3 -9 0 15.77 0.67
-3 9 0 14.99 0.72
-3 9 0 15.31 0.69
2 -9 0 16.77 0.67
2 -9 0 17.65 0.44
2 -9 0 18.57 0.44
-2 9 0 17.95 0.72
-2 9 0 17.85 0.47
-2 9 0 17.63 0.75
-2 9 0 17.21 0.7
1 -9 0 44.02 1
1 -9 0 43.49 1.16
1 -9 0 45.14 1.01
1 -9 0 45.7 1.15
-1 9 0 46.1 1.21
-1 9 0 44.33 1.27
-1 9 0 44.16 1.03
-1 9 0 44.4 1.04
0 -9 0 1.37 0.22
0 -9 0 1.17 0.24
0 -9 0 1.17 0.26
0 -9 0 1.56 0.27
0 9 0 1.62 0.3
0 9 0 1.41 0.26
0 9 0 1.4 0.29
0 9 0 1.12 0.27
-1 -9 0 8.04 0.51
-1 -9 0 7.52 0.5
-1 -9 0 7.69 0.49
1 9 0 7.3 0.54
1 9 0 8.57 0.6
1 9 0 7.68 0.55
-2 -9 0 0.22 0.26
-2 -9 0 0.04 0.28
2 9 0 -0.23 0.29
2 9 0 0.28 0.3
2 9 0 -0.15 0.3
-3 -9 0 36.33 1.21
-3 -9 0 35.24 1.14
3 9 0 38.47 1.26
3 9 0 37.23 1.28
3 9 0 34.8 1.27
4 -10 0 4.54 0.52
-4 10 0 4.46 0.5
-4 10 0 4.88 0.52
-4 10 0 5.01 0.65
3 -10 0 13.54 0.67
-3 10 0 13.69 0.7
-3 10 0 13.25 0.76
2 -10 0 2.99 0.27
2 -10 0 3.21 0.26
2 -10 0 3.19 0.37
-2 10 0 3.98 0.45
-2 10 0 3.9 0.47
-2 10 0 3.18 0.28
-2 10 0 3.72 0.3
1 -10 0 38.54 1.11
1 -10 0 37.41 0.95
1 -10 0 39.13 0.94
1 -10 0 38.79 1.08
-1 10 0 40.44 1.14
-1 10 0 38.14 0.98
-1 10 0 38.54 1.2
-1 10 0 39.19 0.98
0 -10 0 5.04 0.44
0 -10 0 6.99 0.5
0 -10 0 6.18 0.49
0 -10 0 7.44 0.53
0 10 0 5.61 0.55
0 10 0 5.77 0.62
0 10 0 4.87 0.49
0 10 0 7.87 0.59
-1 -10 0 -0.35 0.24
-1 -10 0 0.24 0.25
1 10 0 -0.49 0.29
1 10 0 -0.05 0.28
1 10 0 -0.24 0.32
-2 -10 0 1.67 0.35
-2 -10 0 2.13 0.4
2 10 0 0.76 0.37
2 10 0 1.7 0.44
2 10 0 1.37 0.4
-3 -10 0 -0.24 0.33
-3 -10 0 0.52 0.43
3 10 0 0.06 0.44
4 -11 0 6.25 0.68
-4 11 0 7.2 0.8
-4 11 0 6.77 0.65
-4 11 0 7.63 0.8
3 -11 0 2.11 0.39
-3 11 0 2.07 0.47
-3 11 0 2.09 0.41
2 -11 0 5.98 0.5
2 -11 0 6.48 0.39
2 -11 0 6.17 0.56
2 -11 0 6.59 0.35
-2 11 0 6.33 0.42
-2 11 0 5.62 0.38
-2 11 0 6.87 0.7
-2 11 0 6.45 0.61
1 -11 0 29.35 0.82
1 -11 0 28.71 0.95
1 -11 0 29.17 0.84
-1 11 0 29.65 1.11
-1 11 0 28.41 0.89
-1 11 0 29.76 0.86
-1 11 0 30.38 1.04
0 -11 0 1.93 0.34
0 -11 0 1.35 0.28
0 11 0 1.2 0.31
0 11 0 1.04 0.36
0 11 0 2.29 0.47
-1 -11 0 0.22 0.29
-1 -11 0 0.34 0.31
1 11 0 0.4 0.4
1 11 0 0.11 0.32
-2 -11 0 3.96 0.5
-2 -11 0 6.1 0.65
2 11 0 5.72 0.7
2 -12 0 2.59 0.38
2 -12 0 3.15 0.36
2 -12 0 2.54 0.43
-2 12 0 4.05 0.39
-2 12 0 2.85 0.34
-2 12 0 3.16 0.38
-2 12 0 3.08 0.51
1 -12 0 41.64 1.24
1 -12 0 41.67 1.09
-1 12 0 42.84 1.37
-1 12 0 40.52 1.12
0 -12 0 15.25 0.79
0 -12 0 14.09 0.69
0 12 0 14.99 0.74
0 12 0 16.98 0.93
0 12 -1 2.13 0.37
0 -12 1 1.88 0.39
0 -12 1 1.37 0.32
-1 12 -1 0.74 0.45
-1 12 -1 1.07 0.35
-1 12 -1 0.97 0.27
1 -12 1 0.51 0.24
1 -12 1 0.34 0.34
-2 12 -1 0.33 0.22
-2 12 -1 0.54 0.28
-2 12 -1 0.28 0.43
-2 12 -1 -0.21 0.34
2 -12 1 0.34 0.22
2 -12 1 0.65 0.26
2 -12 1 0.27 0.37
2 11 -1 0.93 0.43
-2 -11 1 1.59 0.38
-2 -11 1 1.59 0.4
1 11 -1 12.17 0.8
1 11 -1 11.67 0.7
-1 -11 1 11.88 0.66
-1 -11 1 11.52 0.65
0 11 -1 24.56 0.86
0 11 -1 25.11 1.04
0 11 -1 25.91 1
0 -11 1 25.14 0.85
0 -11 1 23.48 0.79
0 -11 1 25.99 0.9
-1 11 -1 13.92 0.58
-1 11 -1 14.17 0.73
-1 11 -1 14.24 0.63
-1 11 -1 12.21 0.82
1 -11 1 13.26 0.53
1 -11 1 13.89 0.71
1 -11 1 14.37 0.65
1 -11 1 13.37 0.58
-2 11 -1 0.42 0.2
-2 11 -1 0.34 0.33
-2 11 -1 0.58 0.23
-2 11 -1 0.67 0.4
2 -11 1 0.44 0.2
2 -11 1 0.68 0.18
2 -11 1 0.45 0.31
2 -11 1 -0.07 0.34
-3 11 -1 6.22 0.62
-3 11 -1 4.69 0.56
-3 11 -1 5.16 0.65
3 -11 1 4.93 0.59
-4 11 -1 17.43 0.98
4 -11 1 18.58 1.27
3 10 -1 1.51 0.49
-3 -10 1 1.99 0.4
-3 -10 1 0.97 0.43
2 10 -1 62.73 1.73
2 10 -1 63.3 1.68
2 10 -1 61.49 1.72
-2 -10 1 61.64 1.63
-2 -10 1 63.32 1.57
1 10 -1 -0.17 0.28
1 10 -1 0.28 0.32
1 10 -1 -0.04 0.34
-1 -10 1 -0.04 0.25
-1 -10 1 0.04 0.25
-1 -10 1 0.34 0.26
0 10 -1 234.06 4.79
0 10 -1 235.04 4.64
0 10 -1 234.63 4.84
0 10 -1 230.08 4.64
0 -10 1 227.78 4.6
0 -10 1 233.91 4.63
0 -10 1 235.32 4.65
0 -10 1 233.78 4.6
-1 10 -1 21.82 0.69
-1 10 -1 21.76 0.67
-1 10 -1 22.7 0.9
-1 10 -1 23.18 0.86
1 -10 1 21.95 0.64
1 -10 1 22.16 0.78
1 -10 1 21.17 0.65
1 -10 1 21.34 0.74
-2 10 -1 18.35 0.78
-2 10 -1 17.99 0.82
-2 10 -1 17.86 0.76
-2 10 -1 18.15 0.52
-2 10 -1 18.14 0.52
2 -10 1 18.51 0.52
2 -10 1 17.64 0.49
2 -10 1 17.7 0.68
2 -10 1 17.43 0.69
-3 10 -1 0.66 0.33
-3 10 -1 0.5 0.31
-3 10 -1 0.3 0.34
3 -10 1 1.25 0.35
-4 10 -1 5.23 0.65
-4 10 -1 4.7 0.52
-4 10 -1 5.1 0.63
4 -10 1 5.06 0.59
3 9 -1 33.9 1.21
3 9 -1 32.56 1.16
3 9 -1 31.01 1.19
-3 -9 1 32.56 1.15
-3 -9 1 32.43 1.04
2 9 -1 27.72 0.99
2 9 -1 26.06 0.98
2 9 -1 27.85 1.01
-2 -9 1 27.34 0.86
-2 -9 1 26.84 0.95
-2 -9 1 28.89 0.9
1 9 -1 0.64 0.28
1 9 -1 0.4 0.27
1 9 -1 1.1 0.32
-1 -9 1 1.13 0.24
-1 -9 1 0.79 0.24
-1 -9 1 0.22 0.24
0 9 -1 27.18 0.94
0 9 -1 27.15 0.9
0 9 -1 27.5 0.8
0 9 -1 27.47 0.82
0 -9 1 27.56 0.78
0 -9 1 27.95 0.81
0 -9 1 27.82 0.77
0 -9 1 27.94 0.8
-1 9 -1 41.07 0.97
-1 9 -1 41.32 1.2
-1 9 -1 40.99 0.96
-1 9 -1 41.16 1.15
1 -9 1 41.76 0.94
1 -9 1 40.92 1.07
1 -9 1 40.69 1.05
1 -9 1 42.01 0.95
-2 9 -1 5.37 0.51
-2 9 -1 6.27 0.49
-2 9 -1 6.1 0.27
-2 9 -1 6.58 0.51
2 -9 1 5.65 0.44
-3 9 -1 0.3 0.27
-3 9 -1 0.06 0.26
3 -9 1 0.31 0.29
-4 9 -1 0.11 0.32
4 -9 1 0.33 0.35
4 -9 1 0.85 0.34
-5 9 -1 1.55 0.48
5 -9 1 2.89 0.5
5 -9 1 2.15 0.25
5 -9 1 1.78 0.22
5 -9 1 1.56 0.44
4 8 -1 2.6 0.44
4 8 -1 3.18 0.67
4 8 -1 5.23 0.56
-4 -8 1 3.39 0.43
-4 -8 1 3.47 0.53
3 8 -1 13.22 0.75
3 8 -1 13.5 0.72
3 8 -1 11.15 0.77
-3 -8 1 12.29 0.62
-3 -8 1 12.19 0.72
2 8 -1 2.5 0.36
2 8 -1 3.89 0.48
2 8 -1 3.13 0.38
-2 -8 1 2.95 0.37
-2 -8 1 2.75 0.35
-2 -8 1 3.38 0.39
1 8 -1 64.13 1.57
1 8 -1 63.5 1.58
1 8 -1 64.02 1.51
-1 -8 1 63.03 1.47
-1 -8 1 64.23 1.47
-1 -8 1 63.58 1.45
0 8 -1 59.67 1.42
0 8 -1 55.13 1.37
0 8 -1 53.55 1.4
0 8 -1 53.6 1.25
0 8 -1 52.59 1.25
0 -8 1 51.59 1.21
0 -8 1 55.25 1.26
0 -8 1 53.27 1.22
-1 8 -1 92.09 1.85
-1 8 -1 93.06 1.85
-1 8 -1 91.17 2.08
-1 8 -1 92.29 2.04
1 -8 1 90.11 1.82
1 -8 1 91.64 1.83
1 -8 1 91.22 1.96
1 -8 1 91.31 1.95
-2 8 -1 -0.12 0.2
-2 8 -1 -0.24 0.21
2 -8 1 -0.24 0.19
-3 8 -1 49.58 1.31
-3 8 -1 50.06 1.28
3 -8 1 51.12 1.31
3 -8 1 47.76 1.28
-4 8 -1 6.7 0.57
4 -8 1 6.2 0.56
4 -8 1 6.45 0.56
4 -8 1 6.49 0.58
-5 8 -1 -0.24 0.36
-5 8 -1 -0.36 0.36
-5 8 -1 0.04 0.21
5 -8 1 0.12 0.19
5 -8 1 -0.06 0.38
5 -8 1 0.43 0.37
5 -8 1 0.23 0.35
5 -8 1 -0.26 0.21
4 7 -1 0.58 0.43
4 7 -1 0.98 0.39
4 7 -1 1.02 0.4
4 7 -1 0.84 0.33
4 7 -1 0.78 0.35
-4 -7 1 0.74 0.32
-4 -7 1 0.2 0.37
-4 -7 1 1.6 0.45
3 7 -1 45.46 1.29
3 7 -1 45.42 1.26
3 7 -1 44.98 1.32
3 7 -1 41.97 1.21
-3 -7 1 46 1.22
-3 -7 1 44.14 1.25
-3 -7 1 44.43 1.25
-3 -7 1 45.36 1.18
2 7 -1 55.51 1.4
2 7 -1 54.82 1.39
2 7 -1 52.2 1.4
-2 -7 1 55.97 1.32
-2 -7 1 54.16 1.3
-2 -7 1 55.5 1.35
1 7 -1 150.61 3.01
1 7 -1 146.12 2.99
1 7 -1 128.79 3.25
1 7 -1 145.17 2.86
-1 -7 1 130.49 3.16
-1 -7 1 144.11 2.87
-1 -7 1 149.82 2.88
0 7 -1 5.36 0.36
0 7 -1 4.48 0.38
0 7 -1 4.67 0.31
0 7 -1 4.54 0.29
0 7 -1 4.72 0.3
0 -7 1 4.52 0.27
0 -7 1 4.57 0.29
0 -7 1 4.82 0.3
0 -7 1 5.3 0.28
-1 7 -1 0.23 0.1
-1 7 -1 0.38 0.17
-1 7 -1 0.24 0.14
-1 7 -1 0.65 0.12
1 -7 1 0.47 0.16
1 -7 1 0.22 0.1
1 -7 1 0.5 0.15
1 -7 1 0.57 0.1
-2 7 -1 2.53 0.31
-2 7 -1 2.63 0.31
2 -7 1 2.48 0.29
2 -7 1 2.23 0.25
-3 7 -1 88.09 2
-3 7 -1 92.87 2.04
3 -7 1 90.33 2
3 -7 1 91.07 2.01
3 -7 1 89.03 2.02
-4 7 -1 35.16 0.82
-4 7 -1 37.49 1.1
-4 7 -1 36.79 0.83
4 -7 1 35.01 1.09
4 -7 1 36.82 1.03
4 -7 1 36.41 0.8
4 -7 1 36.87 0.8
4 -7 1 36.3 1.08
-5 7 -1 1.97 0.4
-5 7 -1 2.44 0.28
-5 7 -1 2.12 0.28
5 -7 1 2.38 0.25
5 -7 1 2.2 0.4
5 -7 1 1.58 0.41
5 -7 1 2.78 0.37
5 -7 1 2.44 0.27
-6 7 -1 4.98 0.54
6 -7 1 5.64 0.49
6 -7 1 5.36 0.49
6 -7 1 4.08 0.58
6 -7 1 4.61 0.58
5 6 -1 33.86 1.13
5 6 -1 34.84 1.28
5 6 -1 33.54 1.1
-5 -6 1 34.19 1.17
-5 -6 1 35.1 1.33
-5 -6 1 28.91 1.4
4 6 -1 -0.23 0.37
4 6 -1 -0.36 0.34
4 6 -1 0.42 0.33
4 6 -1 -0.69 0.24
4 6 -1 -0.14 0.29
-4 -6 1 -0.19 0.35
-4 -6 1 -0.54 0.36
-4 -6 1 0.1 0.24
3 6 -1 17.17 0.71
3 6 -1 16.22 0.68
3 6 -1 17.17 0.68
3 6 -1 16.93 0.75
-3 -6 1 17.09 0.64
-3 -6 1 17.75 0.66
-3 -6 1 17.3 0.71
-3 -6 1 15.95 0.69
2 6 -1 55.65 1.35
2 6 -1 54.34 1.33
2 6 -1 52.71 1.34
-2 -6 1 53.48 1.3
-2 -6 1 55.32 1.27
-2 -6 1 53.77 1.26
1 6 -1 272.89 5.31
1 6 -1 272.81 5.3
1 6 -1 268.89 5.19
1 6 -1 275.18 5.25
-1 -6 1 272.04 5.22
-1 -6 1 264.49 5.2
-1 -6 1 263.04 5.19
0 6 -1 67.98 1.53
0 6 -1 69.23 1.43
0 6 -1 66.63 1.43
0 6 -1 68.87 1.43
0 6 -1 66.92 1.54
0 -6 1 69.49 1.45
0 -6 1 69.5 1.42
0 -6 1 68.53 1.44
0 -6 1 68.28 1.41
-1 6 -1 70.91 1.39
-1 6 -1 70.54 1.56
-1 6 -1 69.42 1.38
-1 6 -1 70.14 1.51
1 -6 1 70.92 1.58
1 -6 1 70.55 1.51
1 -6 1 72.22 1.38
1 -6 1 71.13 1.5
1 -6 1 71.5 1.37
-2 6 -1 30.71 0.91
-2 6 -1 30.67 0.81
2 -6 1 29.66 0.82
2 -6 1 30.1 0.83
-3 6 -1 150.43 3.08
-3 6 -1 144.15 3.04
3 -6 1 147.48 3.05
3 -6 1 148.43 3.01
3 -6 1 147.83 3.05
-4 6 -1 87.41 1.78
-4 6 -1 86.93 2.02
-4 6 -1 89.05 1.79
4 -6 1 86.98 1.76
4 -6 1 85.74 2.01
4 -6 1 87.4 1.76
4 -6 1 87.75 2.02
4 -6 1 87.56 1.92
-5 6 -1 2.88 0.42
-5 6 -1 2.77 0.31
-5 6 -1 2.49 0.29
5 -6 1 3.02 0.34
5 -6 1 2.81 0.45
5 -6 1 2.93 0.41
5 -6 1 2.62 0.34
5 -6 1 2.78 0.29
-6 6 -1 0.04 0.3
6 -6 1 -0.57 0.38
6 -6 1 -0.05 0.26
6 -6 1 0.33 0.44
6 -6 1 -0.02 0.35
5 5 -1 46.42 1.35
5 5 -1 48.58 1.54
5 5 -1 50.09 1.51
5 5 -1 47.22 1.46
5 5 -1 47.76 1.31
-5 -5 1 48.19 1.46
-5 -5 1 49.16 1.41
-5 -5 1 47.94 1.54
4 5 -1 1.7 0.38
4 5 -1 1.44 0.3
4 5 -1 1.24 0.34
4 5 -1 1.55 0.28
4 5 -1 1.7 0.33
-4 -5 1 0.6 0.32
-4 -5 1 1.49 0.29
-4 -5 1 1.94 0.38
3 5 -1 103.86 2.3
3 5 -1 107.62 2.3
3 5 -1 106.46 2.38
3 5 -1 110.14 2.39
-3 -5 1 108.71 2.32
-3 -5 1 106.72 2.34
-3 -5 1 110.27 2.34
-3 -5 1 108.69 2.3
2 5 -1 31.56 0.83
2 5 -1 30.8 0.85
2 5 -1 33.09 0.88
2 5 -1 31.48 0.87
2 5 -1 29.81 0.8
-2 -5 1 30.51 0.84
-2 -5 1 30.18 0.82
-2 -5 1 31.29 0.84
-2 -5 1 31.43 0.81
1 5 -1 68.77 1.47
1 5 -1 67.56 1.42
1 5 -1 65.77 1.5
1 5 -1 65.97 1.5
-1 -5 1 68.67 1.43
-1 -5 1 68.64 1.42
-1 -5 1 67.2 1.44
0 5 -1 116.17 2.24
0 5 -1 107.42 2.24
0 5 -1 112.64 2.22
0 5 -1 110.59 2.31
0 -5 1 115.86 2.21
0 -5 1 115.69 2.25
0 -5 1 116.35 2.22
-1 5 -1 534.57 10.24
-1 5 -1 546.62 10.19
1 -5 1 541.91 10.25
1 -5 1 540.8 10.18
1 -5 1 545.89 10.19
-2 5 -1 38.96 0.93
-2 5 -1 37.73 0.93
-2 5 -1 37.82 0.92
2 -5 1 38.84 0.94
2 -5 1 37.92 0.95
-3 5 -1 0.32 0.11
-3 5 -1 0.08 0.18
-3 5 -1 0.5 0.19
-3 5 -1 0.41 0.1
3 -5 1 0.43 0.08
3 -5 1 0.4 0.17
3 -5 1 0.27 0.09
-4 5 -1 5.57 0.34
-4 5 -1 4.51 0.45
-4 5 -1 4.97 0.33
4 -5 1 5.59 0.3
4 -5 1 4.53 0.45
4 -5 1 4.49 0.43
4 -5 1 5.18 0.39
4 -5 1 5.34 0.29
-5 5 -1 19.1 0.67
-5 5 -1 18.36 0.68
-5 5 -1 19.03 0.82
5 -5 1 19.03 0.65
5 -5 1 18.79 0.67
5 -5 1 19.12 0.81
5 -5 1 19.53 0.83
5 -5 1 18.44 0.63
-6 5 -1 2.3 0.39
6 -5 1 2.22 0.34
6 -5 1 3.32 0.49
6 -5 1 2.19 0.37
6 -5 1 2.59 0.5
6 4 -1 23.66 1.32
6 4 -1 28.17 1.24
-6 -4 1 28.6 1.35
5 4 -1 8.83 0.57
5 4 -1 9.22 0.81
5 4 -1 10.23 0.69
5 4 -1 7.67 0.91
5 4 -1 8.49 0.66
-5 -4 1 8.98 0.63
-5 -4 1 9.19 0.72
4 4 -1 11.77 0.55
4 4 -1 12.22 0.61
4 4 -1 11.72 0.64
4 4 -1 11.86 0.53
4 4 -1 11.96 0.67
-4 -4 1 12.13 0.64
-4 -4 1 12.6 0.59
-4 -4 1 12.59 0.67
3 4 -1 112.89 2.33
3 4 -1 112.56 2.37
3 4 -1 111.86 2.42
3 4 -1 111.41 2.41
-3 -4 1 110.43 2.38
-3 -4 1 111.66 2.35
-3 -4 1 112.85 2.37
-3 -4 1 111.63 2.39
2 4 -1 386.37 7.51
2 4 -1 405.03 7.55
2 4 -1 404.71 7.5
2 4 -1 380.87 7.55
2 4 -1 381.23 7.49
-2 -4 1 399.85 7.52
-2 -4 1 397.55 7.52
-2 -4 1 399.5 7.5
-2 -4 1 390.63 7.48
1 4 -1 241.21 4.68
1 4 -1 248.71 4.66
1 4 -1 242.62 4.69
1 4 -1 236.87 4.61
-1 -4 1 245.54 4.64
-1 -4 1 237.8 4.61
-1 -4 1 240.04 4.63
0 4 -1 90.9 1.76
0 4 -1 90.58 1.76
0 4 -1 87.26 1.83
0 4 -1 89.26 1.75
0 -4 1 89.51 1.76
0 -4 1 91.73 1.75
0 -4 1 90.18 1.74
0 -4 1 88.35 1.75
0 -4 1 87.07 1.84
-1 4 -1 278.54 5.35
-1 4 -1 281.54 5.35
1 -4 1 284.42 5.4
1 -4 1 278.92 5.39
1 -4 1 286.35 5.53
-2 4 -1 41.15 0.97
-2 4 -1 42.44 0.98
-2 4 -1 40.99 0.96
2 -4 1 41.84 0.99
2 -4 1 42.01 0.96
-3 4 -1 45.14 1.13
-3 4 -1 45.98 0.97
-3 4 -1 45.44 1.12
-3 4 -1 45.58 0.97
3 -4 1 45.9 1.12
3 -4 1 45.72 0.96
3 -4 1 45.98 0.95
3 -4 1 46.8 1.06
-4 4 -1 46.72 1.11
-4 4 -1 47.1 1.25
-4 4 -1 48.07 1.11
-4 4 -1 50.71 1.46
4 -4 1 47.44 1.24
4 -4 1 47.33 1.08
4 -4 1 46.96 1.08
4 -4 1 46.94 1.26
4 -4 1 47.92 1.11
-5 4 -1 91.09 2.02
-5 4 -1 93.01 2.16
-5 4 -1 87.36 2
5 -4 1 92.1 1.97
5 -4 1 90.16 1.98
5 -4 1 89.74 2.15
5 -4 1 93.34 2.15
-6 4 -1 0.49 0.47
-6 4 -1 0.26 0.32
6 -4 1 0.38 0.36
6 -4 1 0.72 0.39
6 -4 1 0.7 0.32
6 -4 1 0.61 0.3
6 3 -1 8.57 0.94
6 3 -1 7.65 0.6
6 3 -1 7.37 0.76
-6 -3 1 6.57 0.91
5 3 -1 32.17 1.05
5 3 -1 32.29 1.08
5 3 -1 31.32 0.89
5 3 -1 32.94 1.09
5 3 -1 32.22 1.13
-5 -3 1 32.09 1.05
-5 -3 1 32.59 1.14
-5 -3 1 31.47 1.07
4 3 -1 0.43 0.2
4 3 -1 0.28 0.26
4 3 -1 0.49 0.23
4 3 -1 0.36 0.22
4 3 -1 0.23 0.26
-4 -3 1 0.01 0.23
-4 -3 1 0.01 0.25
-4 -3 1 0.56 0.37
-4 -3 1 0.14 0.21
3 3 -1 2.73 0.34
3 3 -1 2.4 0.25
3 3 -1 3.03 0.27
3 3 -1 2.55 0.31
-3 -3 1 2.54 0.29
-3 -3 1 2.5 0.27
-3 -3 1 2.83 0.27
-3 -3 1 2.4 0.28
2 3 -1 89.18 1.78
2 3 -1 87.61 1.82
2 3 -1 83.93 1.79
2 3 -1 89.58 1.8
2 3 -1 73.24 2.05
-2 -3 1 88.28 1.81
-2 -3 1 87.37 1.79
-2 -3 1 89.46 1.78
-2 -3 1 86.82 1.8
1 3 -1 136.27 2.66
1 3 -1 141.54 2.7
1 3 -1 137.18 2.7
1 3 -1 137.18 2.71
-1 -3 1 135.93 2.66
-1 -3 1 136.05 2.65
-1 -3 1 139.14 2.68
1 -3 1 722.18 13.49
-2 3 -1 7.33 0.2
-2 3 -1 6.65 0.2
-2 3 -1 6.37 0.29
-2 3 -1 6.5 0.3
2 -3 1 6.52 0.27
2 -3 1 6.34 0.18
2 -3 1 6.37 0.18
2 -3 1 6.27 0.29
2 -3 1 6.22 0.29
-3 3 -1 76.15 1.7
-3 3 -1 77.55 1.57
-3 3 -1 75.97 1.68
-3 3 -1 76.76 1.57
3 -3 1 77.74 1.69
3 -3 1 75.83 1.55
3 -3 1 76.35 1.59
3 -3 1 76.57 1.55
-4 3 -1 71.06 1.56
-4 3 -1 68.88 1.66
-4 3 -1 70.87 1.69
-4 3 -1 71.31 1.56
4 -3 1 68.51 1.66
4 -3 1 71.59 1.67
4 -3 1 70.19 1.51
4 -3 1 71.27 1.53
4 -3 1 72.31 1.54
-5 3 -1 3.68 0.56
-5 3 -1 3.81 0.46
-5 3 -1 3.44 0.41
5 -3 1 3.3 0.47
5 -3 1 3.92 0.49
5 -3 1 4.46 0.47
5 -3 1 3.59 0.39
5 -3 1 3.33 0.6
-6 3 -1 -0.19 0.34
-6 3 -1 0.23 0.39
6 -3 1 0.42 0.37
6 -3 1 0.29 0.36
6 -3 1 -0.12 0.3
6 2 -1 13.42 0.89
6 2 -1 15.95 0.95
6 2 -1 14.63 0.92
-6 -2 1 14.61 0.98
-6 -2 1 13.86 0.94
5 2 -1 4.11 0.45
5 2 -1 3.26 0.41
5 2 -1 3.5 0.44
5 2 -1 4 0.44
-5 -2 1 3.76 0.45
-5 -2 1 2.98 0.42
-5 -2 1 3.47 0.39
4 2 -1 1.76 0.27
4 2 -1 1.69 0.26
4 2 -1 1.44 0.26
4 2 -1 1.18 0.27
4 2 -1 1.69 0.2
-4 -2 1 1.47 0.27
-4 -2 1 1.58 0.26
-4 -2 1 1.74 0.3
-4 -2 1 1.65 0.27
3 2 -1 237.6 4.62
3 2 -1 228.26 4.62
3 2 -1 234.67 4.5
3 2 -1 237.02 4.59
-3 -2 1 237.69 4.62
-3 -2 1 229.78 4.59
-3 -2 1 235.63 4.62
-3 -2 1 237.54 4.59
2 2 -1 0.58 0.12
2 2 -1 0.69 0.13
2 2 -1 0.69 0.14
2 2 -1 0.85 0.14
-2 -2 1 0.88 0.13
-2 -2 1 0.5 0.13
-2 -2 1 0.77 0.14
-2 -2 1 0.62 0.12
1 2 -1 647.99 12.55
1 2 -1 686.48 12.55
1 2 -1 674.63 12.57
-1 -2 1 692.03 12.56
-1 -2 1 663.83 12.55
0 2 -1 220.54 4.23
0 2 -1 231.83 4.19
0 2 -1 212.18 4.17
0 -2 1 229.64 4.18
-1 2 -1 710.97 13.16
-1 2 -1 701.9 13.15
-2 2 -1 19.46 0.46
-2 2 -1 19.63 0.54
-2 2 -1 19.8 0.53
-2 2 -1 19.82 0.47
2 -2 1 19.06 0.54
2 -2 1 19.96 0.45
2 -2 1 19.93 0.45
2 -2 1 19.65 0.49
2 -2 1 20.2 0.54
-3 2 -1 352.99 6.72
-3 2 -1 362.52 6.81
-3 2 -1 361.42 6.82
-3 2 -1 364.58 6.74
3 -2 1 358.76 6.7
3 -2 1 325.1 6.71
3 -2 1 357.38 6.69
3 -2 1 343.83 6.79
-4 2 -1 67.15 1.6
-4 2 -1 69.54 1.64
-4 2 -1 65.03 1.6
4 -2 1 68.62 1.6
4 -2 1 67.47 1.6
4 -2 1 68.91 1.45
4 -2 1 68.01 1.55
-5 2 -1 43.18 1.26
-5 2 -1 44.85 1.22
5 -2 1 45.33 1.07
5 -2 1 43.94 1.17
5 -2 1 45.28 1.27
5 -2 1 43.31 1.27
-6 2 -1 2.89 0.47
-6 2 -1 2.05 0.41
6 -2 1 2.69 0.41
6 -2 1 2.66 0.49
6 -2 1 2.62 0.46
6 1 -1 25.11 1.04
6 1 -1 24.14 1.19
6 1 -1 25.28 1.03
6 1 -1 26.19 0.77
-6 -1 1 24.89 1.05
-6 -1 1 24.39 1.09
5 1 -1 -0.16 0.24
5 1 -1 0.01 0.27
5 1 -1 0.23 0.32
5 1 -1 0.11 0.19
-5 -1 1 -0.2 0.25
-5 -1 1 -0.18 0.29
4 1 -1 18.02 0.65
4 1 -1 20.08 0.69
4 1 -1 18.74 0.52
4 1 -1 18.36 0.67
4 1 -1 20.53 0.67
-4 -1 1 18.97 0.67
-4 -1 1 19.36 0.7
-4 -1 1 18.03 0.66
-4 -1 1 19.8 0.69
3 1 -1 -0.06 0.14
3 1 -1 0.02 0.14
3 1 -1 0.05 0.16
3 1 -1 0.05 0.1
-3 -1 1 -0.04 0.13
-3 -1 1 0.07 0.14
-3 -1 1 0.02 0.13
-3 -1 1 -0.12 0.14
2 1 -1 451.9 8.51
2 1 -1 481.76 8.6
2 1 -1 454.11 8.58
2 1 -1 456.75 8.6
2 1 -1 442.22 8.6
-2 -1 1 461.04 8.6
-2 -1 1 447.31 8.59
-2 -1 1 462.8 8.58
-2 -1 1 443.64 8.6
1 1 -1 291.54 5.45
1 1 -1 288.87 5.48
1 1 -1 288.85 5.49
1 1 -1 306.86 5.48
-1 -1 1 289.04 5.48
-1 -1 1 284.94 5.47
-2 1 -1 22.19 0.53
2 -1 1 21.59 0.57
2 -1 1 22.1 0.52
2 -1 1 22.09 0.51
2 -1 1 20.54 0.57
-3 1 -1 200.36 4.01
-3 1 -1 203.63 3.96
-3 1 -1 203.68 4.03
3 -1 1 202.86 3.9
3 -1 1 202.68 3.93
-4 1 -1 138.82 2.92
-4 1 -1 143.95 2.97
-4 1 -1 142.62 2.99
4 -1 1 140.65 2.97
4 -1 1 135.45 2.93
4 -1 1 142.6 2.9
4 -1 1 143.01 2.8
-5 1 -1 24.56 0.87
-5 1 -1 24.28 0.88
5 -1 1 23.23 0.81
5 -1 1 23.67 0.87
5 -1 1 25.29 0.71
5 -1 1 24.08 0.88
-6 1 -1 2.26 0.44
-6 1 -1 2.7 0.49
6 -1 1 2.82 0.44
6 -1 1 3.58 0.36
6 -1 1 3.65 0.85
6 -1 1 2.89 0.5
6 0 -1 34.45 1.61
6 0 -1 33.17 1.2
6 0 -1 34.33 1.14
-6 0 1 34.58 1.21
-6 0 1 34.71 1.21
5 0 -1 -0.54 0.25
5 0 -1 -0.03 0.24
5 0 -1 0.03 0.31
-5 0 1 -0.22 0.28
-5 0 1 0.14 0.26
4 0 -1 -0.06 0.11
4 0 -1 0.01 0.18
4 0 -1 -0.01 0.24
4 0 -1 0.26 0.19
-4 0 1 -0.08 0.2
-4 0 1 0.06 0.18
-4 0 1 -0.12 0.19
3 0 -1 19.38 0.45
3 0 -1 20.26 0.56
3 0 -1 17.86 0.65
-3 0 1 19.85 0.58
-3 0 1 19.38 0.6
2 0 -1 41.49 0.95
2 0 -1 42.53 0.9
2 0 -1 42.33 0.92
2 0 -1 41 0.82
-2 0 1 41.32 0.94
-2 0 1 40.92 0.82
-2 0 1 43.59 0.92
-2 0 1 41.67 0.95
1 0 -1 27.29 0.6
1 0 -1 27.29 0.59
1 0 -1 28.97 0.58
-1 0 1 27.46 0.59
-2 0 -1 35.93 0.81
-2 0 -1 35.67 0.84
-2 0 -1 34.12 0.82
2 0 1 35.28 0.77
2 0 1 36.31 0.79
2 0 1 35.1 0.83
-3 0 -1 264.22 5.16
-3 0 -1 266.8 5.18
-3 0 -1 274 5.14
3 0 1 254.59 5.15
3 0 1 269.6 5.11
3 0 1 257.58 5.05
-4 0 -1 1.99 0.28
-4 0 -1 1.71 0.25
-4 0 -1 2 0.29
4 0 1 2.45 0.31
4 0 1 2.45 0.23
4 0 1 2.21 0.27
4 0 1 1.64 0.27
-5 0 -1 3.6 0.41
-5 0 -1 4.57 0.46
5 0 1 4.27 0.48
5 0 1 4.11 0.4
5 0 1 4.02 0.41
5 0 1 4.27 0.5
-6 0 -1 80.52 2.29
-6 0 -1 71.76 1.96
6 0 1 76.77 2.01
6 0 1 71.73 2.14
6 0 1 75.25 1.71
6 0 1 75.66 1.92
6 -1 -1 22.85 1.42
6 -1 -1 20.9 0.95
6 -1 -1 21.13 0.89
-6 1 1 21.29 0.93
-6 1 1 21.74 0.95
5 -1 -1 73.58 1.73
5 -1 -1 76.48 1.8
5 -1 -1 71.04 1.8
-5 1 1 74.09 1.82
-5 1 1 75.82 1.77
4 -1 -1 5.89 0.24
4 -1 -1 6.33 0.39
4 -1 -1 5.3 0.38
4 -1 -1 5.88 0.41
-4 1 1 6.01 0.41
-4 1 1 7.09 0.45
-4 1 1 6.67 0.43
3 -1 -1 33.12 0.7
3 -1 -1 34.7 0.82
3 -1 -1 34.61 0.85
-3 1 1 36.13 0.84
-3 1 1 33.47 0.89
-3 1 1 34.51 0.89
2 -1 -1 523.06 9.55
2 -1 -1 512.88 9.63
2 -1 -1 500.22 9.64
-2 1 1 502.25 9.62
-2 1 1 499.45 9.61
-2 1 1 524.73 9.56
-1 -1 -1 438.34 7.98
-1 -1 -1 403.08 7.99
-1 -1 -1 424.81 8
1 1 1 428.67 7.99
1 1 1 445.7 7.99
1 1 1 424.08 8
1 1 1 417.62 8
1 1 1 429.77 7.98
-2 -1 -1 124.97 2.53
-2 -1 -1 123.21 2.52
-2 -1 -1 130.09 2.5
-2 -1 -1 127.89 2.52
2 1 1 123.9 2.54
2 1 1 127.75 2.5
2 1 1 124.58 2.48
2 1 1 131.21 2.52
2 1 1 124.74 2.53
-3 -1 -1 11.79 0.45
-3 -1 -1 11.8 0.45
-3 -1 -1 11.91 0.47
-3 -1 -1 11.53 0.46
3 1 1 11.55 0.44
3 1 1 11.81 0.47
3 1 1 11.49 0.4
3 1 1 11.56 0.47
-4 -1 -1 18.48 0.69
-4 -1 -1 18.66 0.67
-4 -1 -1 18.25 0.68
4 1 1 18.3 0.69
4 1 1 18.47 0.58
4 1 1 18.23 0.84
4 1 1 19.4 0.67
4 1 1 17.59 0.69
-5 -1 -1 0.11 0.25
-5 -1 -1 -0.25 0.29
5 1 1 0.36 0.22
5 1 1 -0.4 0.24
5 1 1 0.57 0.32
5 1 1 0.01 0.29
-6 -1 -1 15.14 0.93
6 1 1 15.34 0.86
6 1 1 14.74 0.7
6 1 1 13.88 0.85
6 1 1 15.41 1.02
6 -2 -1 6.46 0.71
6 -2 -1 4.84 0.46
6 -2 -1 5.2 0.63
-6 2 1 5.86 0.63
-6 2 1 5.42 0.67
5 -2 -1 185.42 3.9
5 -2 -1 187.47 3.86
5 -2 -1 188.83 3.78
-5 2 1 188.06 3.81
-5 2 1 180.57 3.89
4 -2 -1 0.16 0.23
4 -2 -1 0.91 0.21
4 -2 -1 0.66 0.12
-4 2 1 0.81 0.25
-4 2 1 0.51 0.21
3 -2 -1 108.09 2.14
3 -2 -1 103.45 2.05
3 -2 -1 106.41 2.13
3 -2 -1 106.05 2.19
-3 2 1 108.25 2.16
-3 2 1 107.99 2.27
-3 2 1 107.67 2.25
-3 2 1 108.86 2.16
2 -2 -1 86.74 1.83
2 -2 -1 90.28 1.72
2 -2 -1 91.02 1.72
2 -2 -1 86.1 1.71
-2 2 1 88.53 1.84
-2 2 1 85.87 1.82
-2 2 1 90.85 1.74
-2 2 1 90.36 1.74
1 -2 -1 373.36 7.08
1 -2 -1 378.13 7.13
1 -2 -1 382.83 7.14
-1 2 1 382.51 7.14
-1 2 1 380.09 7.09
-1 -2 -1 54.98 1.16
-1 -2 -1 55.37 1.16
-1 -2 -1 55.98 1.14
-1 -2 -1 56.75 1.16
1 2 1 54.4 1.17
1 2 1 53.55 1.16
1 2 1 55.01 1.16
1 2 1 56.37 1.16
1 2 1 56.63 1.14
-2 -2 -1 29.02 0.72
-2 -2 -1 29.25 0.74
-2 -2 -1 28.45 0.73
-2 -2 -1 29.11 0.71
2 2 1 28.72 0.73
2 2 1 28.7 0.71
2 2 1 28.42 0.7
2 2 1 27.88 0.73
2 2 1 28.83 0.74
-3 -2 -1 13.52 0.53
-3 -2 -1 13.09 0.5
-3 -2 -1 13.65 0.51
-3 -2 -1 13.19 0.49
3 2 1 13.42 0.52
3 2 1 13.98 0.51
3 2 1 13.14 0.46
3 2 1 13.65 0.53
-4 -2 -1 4.27 0.47
-4 -2 -1 3.99 0.4
-4 -2 -1 4.21 0.43
4 2 1 4.87 0.43
4 2 1 3.65 0.34
4 2 1 4.11 0.43
4 2 1 3.79 0.46
-5 -2 -1 36.88 1.18
-5 -2 -1 35.2 1.12
-5 -2 -1 34.26 1.12
5 2 1 34.56 1.09
5 2 1 35.04 1.13
5 2 1 36.84 1.17
5 2 1 35.46 1.16
5 2 1 36.07 0.98
-6 -2 -1 0 0.46
6 2 1 -0.37 0.42
6 2 1 -0.41 0.43
6 2 1 0.18 0.34
6 -3 -1 2.82 0.51
6 -3 -1 3.25 0.47
6 -3 -1 1.66 0.35
-6 3 1 1.61 0.44
-6 3 1 1.37 0.37
5 -3 -1 178.45 3.51
5 -3 -1 165.41 3.47
5 -3 -1 170.6 3.63
5 -3 -1 171.53 3.57
-5 3 1 170.14 3.51
-5 3 1 169.48 3.51
-5 3 1 169.36 3.63
4 -3 -1 0.21 0.15
4 -3 -1 0.12 0.19
4 -3 -1 0.06 0.23
4 -3 -1 0.39 0.17
4 -3 -1 0.17 0.12
-4 3 1 -0.08 0.24
-4 3 1 0.51 0.2
-4 3 1 0.43 0.17
-4 3 1 -0.28 0.19
3 -3 -1 765.54 14.2
3 -3 -1 750.65 14.28
3 -3 -1 772.61 14.2
3 -3 -1 762.67 14.18
-3 3 1 767.15 14.22
-3 3 1 757.05 14.37
-3 3 1 737.83 14.35
-3 3 1 772.77 14.21
2 -3 -1 32.63 0.8
2 -3 -1 33.11 0.66
2 -3 -1 32.78 0.72
2 -3 -1 33.82 0.66
2 -3 -1 33.14 0.75
-2 3 1 32.02 0.81
-2 3 1 33.65 0.68
-2 3 1 33.79 0.68
-2 3 1 30.97 0.81
1 -3 -1 58.12 1.24
1 -3 -1 59.91 1.25
-1 3 1 61.46 1.26
-1 3 1 58.09 1.22
0 -3 -1 10.74 0.32
0 -3 -1 9.64 0.34
0 -3 -1 10.75 0.26
0 3 1 11.11 0.32
0 3 1 9.88 0.3
0 3 1 10.24 0.27
-1 -3 -1 5.65 0.24
-1 -3 -1 5.27 0.24
-1 -3 -1 5.12 0.24
1 3 1 4.87 0.23
1 3 1 5.23 0.24
-2 -3 -1 0.16 0.13
-2 -3 -1 0.39 0.15
-2 -3 -1 0.33 0.13
-2 -3 -1 0.24 0.13
2 3 1 0.35 0.14
2 3 1 0.35 0.13
2 3 1 0.52 0.15
2 3 1 0.36 0.14
2 3 1 0.18 0.12
-3 -3 -1 2.15 0.25
-3 -3 -1 2.25 0.28
-3 -3 -1 1.79 0.23
-3 -3 -1 2.76 0.32
3 3 1 1.95 0.22
3 3 1 1.96 0.26
3 3 1 2.14 0.26
3 3 1 1.98 0.25
-4 -3 -1 10.48 0.59
-4 -3 -1 10.82 0.62
-4 -3 -1 10.77 0.56
4 3 1 11.14 0.59
4 3 1 11.4 0.51
4 3 1 11.19 0.58
4 3 1 10.22 0.6
-5 -3 -1 69.46 1.78
-5 -3 -1 68.81 1.83
-5 -3 -1 70.14 1.79
5 3 1 68.76 1.78
5 3 1 70.15 1.81
5 3 1 69.26 1.64
5 3 1 68.05 1.69
5 3 1 71.95 1.85
-6 -3 -1 2.79 0.59
6 3 1 3.91 0.56
6 3 1 3.64 0.45
6 3 1 3.66 0.59
6 -4 -1 0.44 0.28
6 -4 -1 0.05 0.4
6 -4 -1 0.25 0.34
-6 4 1 0.92 0.32
-6 4 1 0.61 0.4
5 -4 -1 12.74 0.63
5 -4 -1 11.93 0.68
5 -4 -1 11.69 0.58
5 -4 -1 12.1 0.56
-5 4 1 12.65 0.68
-5 4 1 11.07 0.6
-5 4 1 11.76 0.62
4 -4 -1 95.96 1.96
4 -4 -1 93 1.92
4 -4 -1 96.14 2.14
4 -4 -1 94.36 1.96
4 -4 -1 95.47 2.08
-4 4 1 99.22 1.99
-4 4 1 95.54 1.99
-4 4 1 97.36 2.16
3 -4 -1 47.31 1.1
3 -4 -1 47.9 0.98
3 -4 -1 47.07 1.03
3 -4 -1 48.32 0.99
-3 4 1 48.04 1.01
-3 4 1 47.29 1.18
-3 4 1 48.61 1.01
-3 4 1 46.22 1.17
2 -4 -1 426.43 8.04
2 -4 -1 416.18 8.1
-2 4 1 431.68 8.12
-2 4 1 429.79 8.12
1 -4 -1 20.36 0.55
1 -4 -1 19.48 0.53
-1 4 1 19.7 0.5
-1 4 1 20.12 0.41
-1 4 1 20.12 0.53
-1 4 1 19.5 0.54
0 -4 -1 1.63 0.17
0 -4 -1 1.41 0.17
0 -4 -1 1.19 0.12
0 -4 -1 1.38 0.12
0 4 1 1.27 0.16
0 4 1 1.26 0.13
0 4 1 1.87 0.17
0 4 1 0.89 0.13
0 4 1 1.43 0.13
-1 -4 -1 780.43 14.65
-1 -4 -1 769.94 14.63
-1 -4 -1 793.75 14.6
1 4 1 780.92 14.66
1 4 1 765.62 14.64
1 4 1 809.69 14.63
1 4 1 764.86 14.63
-2 -4 -1 9.05 0.4
-2 -4 -1 9.57 0.4
-2 -4 -1 9.27 0.41
-2 -4 -1 8.91 0.43
2 4 1 9.29 0.42
2 4 1 8.94 0.43
2 4 1 9.58 0.41
-3 -4 -1 26.03 0.83
-3 -4 -1 25.55 0.78
-3 -4 -1 27.53 0.81
-3 -4 -1 26.64 0.81
3 4 1 26.19 0.77
3 4 1 26.46 0.85
3 4 1 24.94 0.81
3 4 1 25.98 0.8
-4 -4 -1 1.1 0.34
-4 -4 -1 1.44 0.29
-4 -4 -1 1.32 0.31
4 4 1 1.36 0.27
4 4 1 0.89 0.32
4 4 1 1.31 0.34
4 4 1 1.57 0.31
-5 -4 -1 52.83 1.55
-5 -4 -1 51.02 1.69
-5 -4 -1 56.86 1.54
5 4 1 56.14 1.6
5 4 1 54.49 1.62
5 4 1 52.81 1.81
5 4 1 56.66 1.45
5 4 1 55.06 1.42
6 -5 -1 52.26 1.55
6 -5 -1 49.07 1.43
6 -5 -1 49.69 1.3
-6 5 1 50.57 1.35
5 -5 -1 1.36 0.3
5 -5 -1 1.36 0.39
5 -5 -1 1.19 0.25
5 -5 -1 1.38 0.24
-5 5 1 1.26 0.35
-5 5 1 1.41 0.28
-5 5 1 1.34 0.26
4 -5 -1 19.92 0.54
4 -5 -1 18.63 0.71
4 -5 -1 19.64 0.54
4 -5 -1 20.06 0.67
-4 5 1 19.07 0.56
-4 5 1 18.63 0.72
-4 5 1 19.68 0.56
3 -5 -1 23.83 0.83
3 -5 -1 29.87 0.61
3 -5 -1 28.95 0.61
-3 5 1 29.71 0.86
-3 5 1 28.64 0.63
-3 5 1 29.98 0.64
-3 5 1 27.66 0.82
2 -5 -1 64.54 1.45
2 -5 -1 65.92 1.4
-2 5 1 64.12 1.46
-2 5 1 65.56 1.41
1 -5 -1 7.33 0.19
1 -5 -1 7.13 0.32
1 -5 -1 7.03 0.32
1 -5 -1 7.53 0.2
-1 5 1 7.39 0.21
-1 5 1 7.3 0.22
-1 5 1 7.72 0.3
-1 5 1 7.13 0.33
-1 5 1 6.74 0.33
0 -5 -1 77.28 1.58
0 -5 -1 78.26 1.57
0 -5 -1 78.98 1.66
0 -5 -1 79.19 1.65
0 5 1 79.43 1.59
0 5 1 79.62 1.65
0 5 1 77.7 1.66
0 5 1 81.11 1.6
0 5 1 74.28 1.72
-1 -5 -1 309.51 6.06
-1 -5 -1 318.64 6.08
-1 -5 -1 321.91 6.04
1 5 1 313.34 6.07
1 5 1 313.84 6.08
1 5 1 325.08 6.06
1 5 1 307.82 6.1
-2 -5 -1 38.43 0.97
-2 -5 -1 36.31 0.96
-2 -5 -1 37.42 0.97
-2 -5 -1 37.81 0.98
2 5 1 38.31 0.96
2 5 1 38.33 0.99
2 5 1 38.06 1
2 5 1 36.61 1
-3 -5 -1 153.52 3.15
-3 -5 -1 148.73 3.15
-3 -5 -1 152.93 3.17
-3 -5 -1 150.9 3.15
3 5 1 150.73 3.12
3 5 1 149.87 3.13
3 5 1 153.09 3.2
3 5 1 147.68 3.19
-4 -5 -1 1.86 0.39
-4 -5 -1 1.95 0.36
-4 -5 -1 1.5 0.31
4 5 1 0.66 0.29
4 5 1 1.53 0.38
4 5 1 1.35 0.35
4 5 1 0.63 0.31
-5 -5 -1 -0.52 0.43
-5 -5 -1 -0.71 0.48
-5 -5 -1 0.35 0.34
5 5 1 -0.16 0.48
5 5 1 -0.45 0.31
5 5 1 0.63 0.39
5 5 1 -0.28 0.46
6 -6 -1 9.8 0.76
6 -6 -1 8.97 0.53
6 -6 -1 8.61 0.72
-6 6 1 9.21 0.58
5 -6 -1 17.54 0.75
5 -6 -1 17.3 0.8
5 -6 -1 17.29 0.58
5 -6 -1 17.44 0.61
-5 6 1 17.53 0.61
-5 6 1 18.02 0.64
-5 6 1 17.55 0.81
-5 6 1 18.11 0.63
4 -6 -1 0.12 0.22
4 -6 -1 0.3 0.28
4 -6 -1 0.14 0.13
4 -6 -1 0.1 0.12
-4 6 1 0.09 0.15
-4 6 1 -0.47 0.24
-4 6 1 0.17 0.16
-4 6 1 -0.04 0.27
3 -6 -1 8.54 0.42
-3 6 1 8.87 0.43
-3 6 1 8.35 0.5
2 -6 -1 36.41 0.94
-2 6 1 35.25 0.89
-2 6 1 36.29 0.93
1 -6 -1 3.36 0.15
1 -6 -1 3.6 0.17
1 -6 -1 3.17 0.28
1 -6 -1 3.29 0.34
-1 6 1 3.06 0.25
-1 6 1 3.23 0.19
-1 6 1 3.63 0.17
-1 6 1 3.42 0.31
0 -6 -1 47.16 1.25
0 -6 -1 52.03 1.2
0 -6 -1 53.11 1.11
0 -6 -1 52.07 1.11
0 6 1 50.91 1.19
0 6 1 50.2 1.18
0 6 1 52.03 1.12
0 6 1 52.72 1.14
0 6 1 52.56 1.24
-1 -6 -1 10.43 0.43
-1 -6 -1 9.35 0.41
-1 -6 -1 10.24 0.44
1 6 1 9.84 0.46
1 6 1 9.53 0.42
1 6 1 9.7 0.45
-2 -6 -1 32.7 0.9
-2 -6 -1 32.94 0.92
-2 -6 -1 32.11 0.91
2 6 1 32.08 0.94
2 6 1 31.69 0.94
2 6 1 31.82 0.93
-3 -6 -1 67.36 1.63
-3 -6 -1 65.69 1.6
-3 -6 -1 64.66 1.63
3 6 1 65.88 1.66
3 6 1 65.17 1.6
3 6 1 66.02 1.67
3 6 1 67.08 1.61
-4 -6 -1 134.9 3
-4 -6 -1 135.36 2.95
-4 -6 -1 131.47 2.97
4 6 1 132.77 2.94
4 6 1 131.88 2.91
4 6 1 136.48 3.03
4 6 1 131.62 3.28
-5 -6 -1 12.87 0.9
-5 -6 -1 10.56 1.06
5 6 1 12.59 0.76
5 6 1 13.13 0.8
5 6 1 11.23 1.05
5 6 1 11.65 1
6 -7 -1 0.27 0.42
6 -7 -1 0.3 0.26
6 -7 -1 0.07 0.41
-6 7 1 0.35 0.28
5 -7 -1 7.23 0.64
5 -7 -1 6.65 0.56
5 -7 -1 7.77 0.43
5 -7 -1 7.47 0.4
-5 7 1 7.02 0.46
-5 7 1 7.39 0.43
-5 7 1 7.65 0.54
-5 7 1 7.64 0.65
4 -7 -1 0.95 0.32
4 -7 -1 1.1 0.15
4 -7 -1 1.4 0.28
4 -7 -1 1.31 0.15
-4 7 1 0.95 0.3
-4 7 1 1.13 0.17
-4 7 1 1.09 0.27
-4 7 1 1.35 0.17
3 -7 -1 91.76 2.07
3 -7 -1 92.17 1.99
3 -7 -1 89.79 2.01
-3 7 1 92.76 2.1
-3 7 1 91.3 2
2 -7 -1 12.4 0.53
2 -7 -1 12.67 0.53
-2 7 1 12.34 0.49
-2 7 1 11.08 0.52
1 -7 -1 93.81 1.86
1 -7 -1 94.23 2.02
1 -7 -1 95.88 2.04
1 -7 -1 93.39 1.85
-1 7 1 93.3 2.06
-1 7 1 95.84 1.88
-1 7 1 92.83 2
-1 7 1 93.94 1.87
0 -7 -1 51.35 1.22
0 -7 -1 51.71 1.14
0 -7 -1 51.37 1.21
0 -7 -1 49.3 1.12
0 7 1 51.37 1.17
0 7 1 48.81 1.21
0 7 1 51.21 1.28
0 7 1 51.01 1.15
-1 -7 -1 12.55 0.52
-1 -7 -1 12.61 0.62
-1 -7 -1 14.07 0.54
1 7 1 12.15 0.63
1 7 1 13.5 0.56
1 7 1 13.39 0.58
-2 -7 -1 0.07 0.21
-2 -7 -1 -0.17 0.22
-2 -7 -1 0.06 0.21
2 7 1 0.08 0.24
2 7 1 0.14 0.23
2 7 1 0.19 0.24
-3 -7 -1 22.09 0.79
-3 -7 -1 20.59 0.84
-3 -7 -1 20.08 0.86
3 7 1 20.17 0.81
3 7 1 19.53 0.88
3 7 1 19.03 0.82
3 7 1 21.46 0.85
-4 -7 -1 22.37 0.99
-4 -7 -1 22 0.91
-4 -7 -1 21.25 0.97
4 7 1 21.64 0.97
4 7 1 21.76 0.98
4 7 1 21.12 0.9
4 7 1 20.6 1.04
5 -8 -1 7.7 0.63
5 -8 -1 7.48 0.41
5 -8 -1 7.1 0.39
5 -8 -1 8.14 0.79
-5 8 1 7.26 0.4
-5 8 1 7.74 0.62
-5 8 1 7.17 0.55
-5 8 1 7.94 0.73
4 -8 -1 0.8 0.29
4 -8 -1 -0.02 0.33
-4 8 1 0.56 0.31
-4 8 1 0.19 0.28
3 -8 -1 180.86 3.79
3 -8 -1 186.33 3.74
-3 8 1 184.45 3.75
-3 8 1 181.42 3.72
2 -8 -1 11.87 0.3
2 -8 -1 11.06 0.56
2 -8 -1 11.01 0.54
-2 8 1 10.73 0.58
-2 8 1 10.89 0.51
-2 8 1 11.64 0.34
1 -8 -1 76.5 1.75
1 -8 -1 74.29 1.55
1 -8 -1 76.06 1.56
1 -8 -1 78.75 1.73
-1 8 1 75.98 1.59
-1 8 1 74.96 1.78
-1 8 1 75.79 1.58
-1 8 1 76.42 1.72
0 -8 -1 96.35 2.1
0 -8 -1 94.98 2.07
0 -8 -1 93.06 1.98
0 -8 -1 94.59 1.98
0 8 1 95.03 2.16
0 8 1 94.6 2.09
0 8 1 93.08 2.01
0 8 1 96.88 2.01
-1 -8 -1 5.58 0.4
-1 -8 -1 4.77 0.4
-1 -8 -1 4.87 0.42
1 8 1 4.89 0.43
1 8 1 5.12 0.47
1 8 1 5.15 0.43
-2 -8 -1 14.52 0.67
-2 -8 -1 14.86 0.65
2 8 1 14.4 0.69
2 8 1 14.36 0.68
2 8 1 15.69 0.72
-3 -8 -1 8.39 0.68
-3 -8 -1 9.43 0.61
3 8 1 8.98 0.67
3 8 1 8.22 0.63
3 8 1 8.91 0.75
-4 -8 -1 20.49 0.91
4 8 1 16.64 1.73
4 8 1 18.17 0.95
5 -9 -1 26.41 0.68
5 -9 -1 27.45 1.07
5 -9 -1 26.64 1.01
5 -9 -1 26.61 0.71
-5 9 1 27.41 1
-5 9 1 26.81 0.71
-5 9 1 28.23 1.59
-5 9 1 25.91 0.73
4 -9 -1 20.33 0.88
-4 9 1 21.21 0.86
-4 9 1 21.28 0.83
-4 9 1 21.14 0.9
3 -9 -1 40.42 1.19
3 -9 -1 41.1 1.14
-3 9 1 42.1 1.15
-3 9 1 41.8 1.2
2 -9 -1 29.38 0.67
2 -9 -1 29.13 0.65
2 -9 -1 28.86 0.91
-2 9 1 28.62 0.95
-2 9 1 29.84 0.68
-2 9 1 28.81 0.69
-2 9 1 29.05 0.89
1 -9 -1 447.04 8.51
1 -9 -1 443.95 8.51
1 -9 -1 462.45 8.72
1 -9 -1 457.74 8.7
-1 9 1 454.08 8.69
-1 9 1 447.12 8.54
-1 9 1 452.76 8.78
-1 9 1 439.88 8.53
0 -9 -1 0.55 0.22
0 -9 -1 -0.58 0.22
0 -9 -1 0.01 0.17
0 9 1 0.13 0.19
0 9 1 0.07 0.24
0 9 1 0.11 0.25
0 9 1 0.45 0.28
-1 -9 -1 45.24 1.38
-1 -9 -1 45.44 1.21
-1 -9 -1 46.52 1.49
1 9 1 43.34 1.28
1 9 1 46.96 1.67
1 9 1 43.57 1.26
-2 -9 -1 0.35 0.27
-2 -9 -1 0.41 0.3
2 9 1 0.61 0.34
2 9 1 0.84 0.33
2 9 1 0.26 0.3
-3 -9 -1 0.14 0.38
-3 -9 -1 0.93 0.33
3 9 1 0.46 0.42
3 9 1 0.4 0.44
3 9 1 0.06 0.35
4 -10 -1 12.27 0.75
-4 10 1 12.86 0.74
-4 10 1 12.59 0.77
-4 10 1 12.31 0.8
3 -10 -1 2.8 0.39
3 -10 -1 2.61 0.4
-3 10 1 2.21 0.42
-3 10 1 2.56 0.37
2 -10 -1 5.94 0.3
2 -10 -1 6.35 0.53
2 -10 -1 5.63 0.32
-2 10 1 6.02 0.59
-2 10 1 6.13 0.33
-2 10 1 7.18 0.54
-2 10 1 6.35 0.36
1 -10 -1 0.17 0.22
1 -10 -1 0.03 0.18
1 -10 -1 0.25 0.26
-1 10 1 0.26 0.2
-1 10 1 0.19 0.23
-1 10 1 0.36 0.27
-1 10 1 0.45 0.32
0 -10 -1 75.05 1.7
0 -10 -1 78 1.81
0 -10 -1 74.47 1.72
0 10 1 76.67 1.76
0 10 1 76.78 1.85
0 10 1 73.61 1.76
0 10 1 75.57 1.92
-1 -10 -1 3.87 0.38
-1 -10 -1 4.21 0.5
1 10 1 3.07 0.44
1 10 1 3.55 0.41
1 10 1 3.79 0.45
-2 -10 -1 6.96 0.64
-2 -10 -1 8.14 0.61
2 10 1 7.85 0.72
2 10 1 8.14 0.75
2 10 1 8.28 0.72
-3 -10 -1 4.95 0.56
-3 -10 -1 6.06 0.7
3 10 1 5.37 0.62
3 -11 -1 0.12 0.37
3 -11 -1 0.16 0.36
-3 11 1 -0.31 0.33
-3 11 1 -0.05 0.4
2 -11 -1 16.46 0.55
2 -11 -1 15.25 0.51
2 -11 -1 15.58 0.78
-2 11 1 15.68 0.76
-2 11 1 16.17 0.58
-2 11 1 16.42 0.55
-2 11 1 17.58 0.9
1 -11 -1 12.96 0.58
1 -11 -1 12.33 0.53
1 -11 -1 13.43 0.68
-1 11 1 13.26 0.58
-1 11 1 11.29 0.62
-1 11 1 15.13 0.84
-1 11 1 12.7 0.73
0 -11 -1 11.69 0.59
0 -11 -1 12.94 0.69
0 11 1 13.91 0.86
0 11 1 13.85 0.75
0 11 1 12.41 0.64
-1 -11 -1 19.36 0.84
-1 -11 -1 17.99 0.79
1 11 1 18.94 0.95
1 11 1 18.94 0.84
-2 -11 -1 -0.62 0.34
-2 -11 -1 0.47 0.37
2 11 1 -0.15 0.4
2 -12 -1 5.4 0.63
2 -12 -1 7.03 0.69
2 -12 -1 5.82 0.4
-2 12 1 5.75 0.44
-2 12 1 5.86 0.57
-2 12 1 6.07 0.71
1 -12 -1 30.01 1.05
1 -12 -1 28.48 0.87
-1 12 1 29.54 1.13
-1 12 1 28.59 0.91
0 -12 -1 2.93 0.44
0 -12 -1 1.52 0.32
0 12 1 1.69 0.37
0 12 1 1.35 0.5
0 12 -2 5.13 0.56
0 -12 2 4.82 0.51
0 -12 2 5.44 0.54
0 -12 2 5.4 0.57
-1 12 -2 8.06 0.6
-1 12 -2 8.43 0.54
-1 12 -2 8.62 0.69
-1 12 -2 8.54 0.84
1 -12 2 8.4 0.5
1 -12 2 8.3 0.64
-2 12 -2 0.5 0.49
-2 12 -2 0.76 0.23
-2 12 -2 0.8 0.29
-2 12 -2 1.16 0.39
2 -12 2 0.29 0.22
2 -12 2 0.74 0.3
2 11 -2 -0.35 0.39
-2 -11 2 0.25 0.35
-2 -11 2 0.05 0.35
1 11 -2 22.06 0.92
1 11 -2 25.34 1.08
-1 -11 2 24.71 0.84
-1 -11 2 24.8 0.86
-1 -11 2 22.56 0.86
0 11 -2 1.78 0.33
0 11 -2 1.98 0.41
0 11 -2 1.56 0.45
0 -11 2 2.29 0.31
0 -11 2 2.11 0.33
0 -11 2 1.81 0.32
-1 11 -2 20.75 0.74
-1 11 -2 20.6 0.7
-1 11 -2 20.15 0.97
-1 11 -2 20.41 0.77
-1 11 -2 21.75 0.9
-1 11 -2 20.17 0.73
1 -11 2 20.83 0.75
1 -11 2 19.94 0.65
1 -11 2 20.58 0.69
-2 11 -2 -0.04 0.36
-2 11 -2 0.12 0.36
-2 11 -2 -0.04 0.21
-2 11 -2 0.09 0.37
-2 11 -2 -0.04 0.19
2 -11 2 0.44 0.19
2 -11 2 0.02 0.2
-3 11 -2 12.75 0.81
-3 11 -2 12.57 0.86
-3 11 -2 11.39 0.7
3 -11 2 12.44 0.7
3 10 -2 9.93 0.87
-3 -10 2 9.44 0.67
-3 -10 2 9.1 0.81
2 10 -2 19.42 0.94
2 10 -2 19.11 0.96
2 10 -2 17.3 0.87
-2 -10 2 17.04 0.75
-2 -10 2 17.14 0.83
-2 -10 2 18.11 0.74
1 10 -2 5.55 0.59
1 10 -2 5.52 0.54
1 10 -2 5.32 0.6
-1 -10 2 5.22 0.48
-1 -10 2 5.19 0.46
-1 -10 2 5.05 0.48
0 10 -2 175.92 3.61
0 10 -2 177.33 3.62
0 10 -2 181.46 3.79
0 10 -2 179.06 3.82
0 -10 2 178.56 3.57
0 -10 2 175.89 3.57
0 -10 2 175.42 3.55
0 -10 2 175.53 3.58
-1 10 -2 33.7 1.09
-1 10 -2 32.93 0.94
-1 10 -2 31.99 0.87
-1 10 -2 33.23 0.88
-1 10 -2 33.27 1.12
1 -10 2 33.22 0.92
1 -10 2 32.42 0.84
1 -10 2 33.08 0.85
-2 10 -2 16.44 0.51
-2 10 -2 15.71 0.77
-2 10 -2 17.34 0.81
-2 10 -2 17.18 0.51
-2 10 -2 17.28 0.71
2 -10 2 16.74 0.48
2 -10 2 17.46 0.68
2 -10 2 17.24 0.49
-3 10 -2 67.69 1.75
-3 10 -2 63.55 1.61
3 -10 2 65.37 1.64
-4 10 -2 22.02 0.92
4 -10 2 23.11 0.95
3 9 -2 0.73 0.42
3 9 -2 1.25 0.44
3 9 -2 0.93 0.38
-3 -9 2 0.93 0.38
-3 -9 2 1.42 0.33
2 9 -2 18.45 0.85
2 9 -2 17.24 0.83
2 9 -2 17.94 0.81
-2 -9 2 17.74 0.66
-2 -9 2 16.94 0.66
-2 -9 2 17.03 0.76
1 9 -2 106.65 2.4
1 9 -2 106.52 2.43
1 9 -2 108.45 2.45
-1 -9 2 106.03 2.34
-1 -9 2 102.94 2.22
-1 -9 2 105.33 2.24
0 9 -2 9.62 0.59
0 9 -2 9.45 0.47
0 9 -2 8.65 0.5
0 9 -2 9.45 0.43
0 9 -2 9.18 0.55
0 -9 2 8.97 0.45
0 -9 2 8.73 0.44
0 -9 2 9.64 0.46
-1 9 -2 0.53 0.27
-1 9 -2 1.5 0.3
-1 9 -2 1.52 0.2
-1 9 -2 0.98 0.2
1 -9 2 1.61 0.25
1 -9 2 1 0.18
1 -9 2 1.05 0.17
-2 9 -2 36.77 1.11
-2 9 -2 36.75 1.01
-2 9 -2 36.75 0.82
-2 9 -2 35.6 0.8
2 -9 2 37.35 1.02
2 -9 2 36.44 0.79
2 -9 2 37.28 0.8
-3 9 -2 22.65 0.87
-3 9 -2 22.14 0.86
-3 9 -2 21.59 0.78
3 -9 2 21.88 0.86
3 -9 2 21.37 0.82
-4 9 -2 13.19 0.73
4 -9 2 15.22 0.79
4 -9 2 14.24 0.78
4 -9 2 14.55 0.76
-5 9 -2 -0.21 0.22
-5 9 -2 -0.39 0.41
-5 9 -2 -0.18 0.22
5 -9 2 0.44 0.41
5 -9 2 -0.15 0.39
5 -9 2 -0.31 0.18
5 -9 2 0.17 0.21
5 -9 2 -0.49 0.41
4 8 -2 4.98 0.73
4 8 -2 6.43 0.64
4 8 -2 6.29 0.67
-4 -8 2 5.09 0.58
-4 -8 2 4.13 0.55
3 8 -2 16.45 0.77
3 8 -2 15.16 0.84
3 8 -2 16.49 0.82
-3 -8 2 15.79 0.67
-3 -8 2 17.65 0.73
-3 -8 2 16.97 0.81
2 8 -2 35.42 1.09
2 8 -2 36.44 1.1
2 8 -2 36.29 1.09
-2 -8 2 35.31 0.96
-2 -8 2 35.29 0.95
-2 -8 2 33.6 1.03
1 8 -2 5.19 0.43
1 8 -2 5.33 0.47
1 8 -2 5.69 0.47
1 8 -2 4.8 0.35
-1 -8 2 5.3 0.34
-1 -8 2 5.46 0.35
-1 -8 2 4.73 0.4
0 8 -2 87.3 1.99
0 8 -2 88.64 1.82
0 8 -2 86.09 1.86
0 8 -2 87.53 1.86
0 -8 2 86.5 1.83
0 -8 2 88.13 1.82
0 -8 2 88.42 1.83
0 -8 2 85.41 1.83
-1 8 -2 0.66 0.15
-1 8 -2 0.92 0.15
-1 8 -2 0.86 0.19
-1 8 -2 1.12 0.19
1 -8 2 0.88 0.13
1 -8 2 0.88 0.15
1 -8 2 0.84 0.19
-2 8 -2 77.83 1.71
-2 8 -2 75.98 1.79
2 -8 2 76.32 1.81
2 -8 2 77.45 1.51
-3 8 -2 0.14 0.26
-3 8 -2 0.36 0.25
3 -8 2 0.09 0.25
3 -8 2 0.55 0.3
3 -8 2 0.6 0.26
-4 8 -2 60.67 1.57
-4 8 -2 60.67 1.28
4 -8 2 61.36 1.6
4 -8 2 64.3 1.62
4 -8 2 61.41 1.27
4 -8 2 63.58 1.58
4 -8 2 61.56 1.29
-5 8 -2 4.42 0.41
-5 8 -2 4.96 0.43
-5 8 -2 4.29 0.5
5 -8 2 4.4 0.41
5 -8 2 3.42 0.5
5 -8 2 4.92 0.52
5 -8 2 4.56 0.48
5 -8 2 4.24 0.34
5 7 -2 36.49 1.22
4 7 -2 10.88 0.83
4 7 -2 10.32 0.74
4 7 -2 12.48 0.8
4 7 -2 11.64 0.68
4 7 -2 11.46 0.67
-4 -7 2 11.94 0.64
-4 -7 2 11.73 0.81
-4 -7 2 10.36 0.76
3 7 -2 58.95 1.53
3 7 -2 58.74 1.58
3 7 -2 59.29 1.49
3 7 -2 63.61 1.62
-3 -7 2 61.43 1.46
-3 -7 2 59.73 1.46
-3 -7 2 63.19 1.57
-3 -7 2 61.57 1.54
2 7 -2 105.23 2.33
2 7 -2 106.5 2.34
2 7 -2 103.67 2.35
-2 -7 2 105.89 2.21
-2 -7 2 104.16 2.29
-2 -7 2 108.39 2.23
1 7 -2 0.34 0.2
1 7 -2 0.41 0.15
1 7 -2 0.24 0.2
-1 -7 2 0.66 0.15
-1 -7 2 0.51 0.15
0 7 -2 37.72 0.92
0 7 -2 38.09 0.88
0 7 -2 38.99 1.03
0 7 -2 38.54 0.93
0 -7 2 39.03 0.9
0 -7 2 40 0.9
0 -7 2 38.63 0.9
0 -7 2 39.06 0.89
-1 7 -2 6.78 0.32
-1 7 -2 6.61 0.27
-1 7 -2 6.32 0.4
-1 7 -2 6.33 0.32
-1 7 -2 6.08 0.25
1 -7 2 5.87 0.41
1 -7 2 6.41 0.32
1 -7 2 6.18 0.23
1 -7 2 6.36 0.25
-2 7 -2 85.36 1.89
-2 7 -2 89.36 1.88
2 -7 2 87.84 1.96
-3 7 -2 2.14 0.3
-3 7 -2 2.68 0.31
3 -7 2 2.2 0.32
3 -7 2 2.67 0.31
3 -7 2 1.56 0.3
-4 7 -2 138.09 2.91
-4 7 -2 130.86 2.63
-4 7 -2 131.3 2.64
4 -7 2 133.75 2.61
4 -7 2 133.53 2.61
4 -7 2 135.11 2.85
4 -7 2 134.86 2.92
4 -7 2 133.42 2.92
-5 7 -2 49.02 1.43
-5 7 -2 49.35 1.2
-5 7 -2 48.15 1.18
5 -7 2 50.43 1.47
5 -7 2 50.43 1.34
5 -7 2 50.13 1.16
5 -7 2 48.94 1.16
5 6 -2 6.16 1.12
5 6 -2 9.23 0.69
5 6 -2 9.74 0.73
5 6 -2 10.18 0.88
-5 -6 2 9.09 0.93
-5 -6 2 10.75 0.99
-5 -6 2 10.86 0.72
4 6 -2 46.7 1.33
4 6 -2 47.63 1.43
4 6 -2 47.94 1.38
4 6 -2 47.61 1.26
4 6 -2 47.66 1.27
-4 -6 2 45.68 1.26
-4 -6 2 45.9 1.36
-4 -6 2 48.27 1.39
3 6 -2 0.72 0.3
3 6 -2 1.29 0.29
3 6 -2 0.78 0.25
3 6 -2 0.4 0.26
-3 -6 2 0.66 0.28
-3 -6 2 1.08 0.23
-3 -6 2 0.87 0.22
-3 -6 2 1.23 0.31
2 6 -2 330.1 6.25
2 6 -2 306.81 6.24
2 6 -2 315.89 6.22
2 6 -2 312.84 6.13
-2 -6 2 310.27 6.12
-2 -6 2 322.88 6.14
-2 -6 2 332.61 6.21
1 6 -2 61.57 1.39
1 6 -2 61.93 1.3
1 6 -2 60.11 1.43
1 6 -2 59.8 1.43
-1 -6 2 62.89 1.31
-1 -6 2 61.59 1.36
-1 -6 2 62.18 1.3
0 6 -2 26.93 0.67
0 6 -2 26.63 0.64
0 6 -2 26.37 0.76
0 6 -2 26.89 0.67
0 -6 2 26.94 0.65
0 -6 2 27.11 0.64
0 -6 2 27.18 0.65
-1 6 -2 -0.03 0.15
-1 6 -2 0.19 0.11
-1 6 -2 -0.03 0.08
-1 6 -2 0.06 0.12
-1 6 -2 -0.04 0.08
1 -6 2 -0.14 0.11
1 -6 2 0.03 0.07
1 -6 2 0.08 0.07
1 -6 2 -0.09 0.15
-2 6 -2 0.55 0.17
-2 6 -2 0.77 0.16
-2 6 -2 0.44 0.15
2 -6 2 0.5 0.19
2 -6 2 0.47 0.19
-3 6 -2 33.12 0.9
-3 6 -2 31.61 0.68
-3 6 -2 32.28 0.88
-3 6 -2 28.64 0.74
3 -6 2 30.18 0.87
3 -6 2 31.28 0.66
3 -6 2 30.88 0.9
3 -6 2 31.02 0.91
3 -6 2 31.69 0.68
-4 6 -2 0.02 0.16
-4 6 -2 0.42 0.17
-4 6 -2 0.38 0.28
4 -6 2 0.56 0.27
4 -6 2 0.26 0.16
4 -6 2 0.22 0.15
4 -6 2 0.29 0.24
4 -6 2 0.82 0.3
-5 6 -2 43.37 1.1
-5 6 -2 44.24 1.11
-5 6 -2 42.92 1.29
5 -6 2 43.34 1.07
5 -6 2 43.3 1.32
5 -6 2 41.8 1.29
5 -6 2 43.47 1.18
5 -6 2 41.3 1.05
-6 6 -2 0.44 0.31
6 -6 2 0.76 0.28
6 -6 2 0.65 0.39
6 -6 2 -0.65 0.48
6 -6 2 0.47 0.41
5 5 -2 2.18 0.45
5 5 -2 3.01 0.53
5 5 -2 1.73 0.46
5 5 -2 2.57 0.38
5 5 -2 1.61 0.42
-5 -5 2 2.66 0.4
-5 -5 2 2.7 0.53
-5 -5 2 1.78 0.46
4 5 -2 5.12 0.59
4 5 -2 5.41 0.56
4 5 -2 4.96 0.5
4 5 -2 5.51 0.46
4 5 -2 5.71 0.54
-4 -5 2 4.96 0.46
-4 -5 2 5.24 0.59
-4 -5 2 6.25 0.57
3 5 -2 9.54 0.53
3 5 -2 8.9 0.55
3 5 -2 8.61 0.51
3 5 -2 9.48 0.47
-3 -5 2 9.17 0.45
-3 -5 2 8.69 0.52
-3 -5 2 8.94 0.46
-3 -5 2 9.55 0.55
2 5 -2 362.1 7.1
2 5 -2 360.33 7.03
2 5 -2 377.68 7.06
2 5 -2 364.6 7.14
2 5 -2 374.84 7.14
-2 -5 2 366.27 7.04
-2 -5 2 364.55 7.03
-2 -5 2 379.6 7.08
-2 -5 2 373.13 7.1
1 5 -2 17.55 0.46
1 5 -2 17.62 0.54
1 5 -2 17.48 0.57
1 5 -2 17.16 0.57
-1 -5 2 17.2 0.52
-1 -5 2 18.55 0.6
-1 -5 2 18.18 0.47
0 5 -2 29.95 0.68
0 5 -2 29.27 0.67
0 5 -2 29.51 0.64
0 5 -2 25.4 0.84
0 -5 2 28.61 0.64
0 -5 2 27.03 0.79
0 -5 2 28.94 0.66
0 -5 2 29.62 0.64
0 -5 2 29.93 0.66
-1 5 -2 120.06 2.38
-1 5 -2 123.79 2.32
-1 5 -2 120.83 2.31
-1 5 -2 107.27 2.57
-1 5 -2 123.84 2.38
1 -5 2 127.74 2.56
1 -5 2 121.74 2.3
1 -5 2 120.28 2.54
1 -5 2 123.07 2.31
-2 5 -2 21.62 0.6
-2 5 -2 21.67 0.61
-2 5 -2 21.51 0.61
2 -5 2 21.25 0.64
2 -5 2 20.93 0.65
-3 5 -2 156.43 3.15
-3 5 -2 156.16 3.16
-3 5 -2 154.36 2.97
-3 5 -2 154.03 2.97
3 -5 2 154.97 2.96
3 -5 2 155.59 3.13
3 -5 2 153.09 3.19
3 -5 2 151.46 2.95
3 -5 2 153.68 3.19
-4 5 -2 10.81 0.58
-4 5 -2 11.33 0.45
-4 5 -2 11.69 0.46
4 -5 2 12.24 0.62
4 -5 2 11.67 0.42
4 -5 2 12.14 0.43
4 -5 2 12.23 0.59
4 -5 2 11.81 0.55
-5 5 -2 23.76 0.81
-5 5 -2 23.89 0.92
-5 5 -2 25.18 0.8
5 -5 2 25 0.94
5 -5 2 24.72 0.77
5 -5 2 24.47 0.75
5 -5 2 24.08 0.93
5 -5 2 25.58 0.83
-6 5 -2 1.41 0.34
6 -5 2 0.76 0.37
6 -5 2 0.54 0.43
6 -5 2 1.01 0.45
6 -5 2 1.13 0.31
6 4 -2 16.58 1
6 4 -2 16.59 1.05
-6 -4 2 14.79 1.08
5 4 -2 15.36 0.77
5 4 -2 15.1 0.99
5 4 -2 15.62 0.88
5 4 -2 14.33 0.76
5 4 -2 15.61 0.64
-5 -4 2 15.3 1.2
-5 -4 2 14.13 0.82
-5 -4 2 14.52 0.72
4 4 -2 3.02 0.36
4 4 -2 2.45 0.33
4 4 -2 2.52 0.35
4 4 -2 1.93 0.31
4 4 -2 2.36 0.36
-4 -4 2 2.46 0.36
-4 -4 2 2.52 0.3
-4 -4 2 1.71 0.3
-4 -4 2 2.02 0.5
3 4 -2 47.64 1.23
3 4 -2 47.82 1.22
3 4 -2 48.59 1.18
3 4 -2 47.19 1.13
-3 -4 2 46.81 1.14
-3 -4 2 46.79 1.16
-3 -4 2 49.35 1.2
-3 -4 2 48.52 1.21
2 4 -2 16.68 0.56
2 4 -2 17.04 0.53
2 4 -2 16.18 0.57
2 4 -2 16.78 0.53
2 4 -2 16.49 0.5
-2 -4 2 16.41 0.55
-2 -4 2 17.91 0.5
-2 -4 2 17.08 0.55
-2 -4 2 16.86 0.49
1 4 -2 0.33 0.08
1 4 -2 0.31 0.12
1 4 -2 0.25 0.12
-1 -4 2 0.43 0.08
-1 -4 2 0.29 0.08
-1 -4 2 0.07 0.11
0 4 -2 2.76 0.17
0 4 -2 2.57 0.21
0 4 -2 2.75 0.17
0 4 -2 2.52 0.12
0 -4 2 2.46 0.12
0 -4 2 2.39 0.21
0 -4 2 2.1 0.15
0 -4 2 2.58 0.13
0 -4 2 2.5 0.15
-1 4 -2 100.63 1.99
-1 4 -2 100.92 1.93
-1 4 -2 102.79 1.94
-1 4 -2 99.89 1.99
-1 4 -2 101.26 2
1 -4 2 100.48 2.08
1 -4 2 103 1.93
1 -4 2 102.69 2.08
1 -4 2 101.68 1.92
-2 4 -2 428.14 7.94
-2 4 -2 435.19 8.07
-2 4 -2 437.81 8.08
2 -4 2 436.05 7.93
2 -4 2 419.36 8.08
2 -4 2 386.36 8.24
2 -4 2 437.22 8.08
-3 4 -2 6.66 0.39
-3 4 -2 6.79 0.29
-3 4 -2 7.15 0.29
-3 4 -2 6.99 0.39
3 -4 2 6.82 0.26
3 -4 2 7.16 0.43
3 -4 2 6.54 0.4
3 -4 2 7.22 0.27
-4 4 -2 487.11 9.22
-4 4 -2 453.88 8.77
-4 4 -2 457.27 8.91
-4 4 -2 455.7 8.76
4 -4 2 452.98 8.74
4 -4 2 459.44 8.92
4 -4 2 468.62 8.8
4 -4 2 456.22 8.93
4 -4 2 462.94 8.73
-5 4 -2 5.35 0.53
-5 4 -2 4.29 0.47
-5 4 -2 5.53 0.55
5 -4 2 4.77 0.46
5 -4 2 5.87 0.54
5 -4 2 5.4 0.44
5 -4 2 5.76 0.57
5 -4 2 5 0.49
-6 4 -2 2.81 0.41
6 -4 2 3.24 0.53
6 -4 2 3.7 0.4
6 -4 2 3.76 0.42
6 -4 2 2.42 0.48
6 3 -2 4.94 0.78
6 3 -2 4.03 0.81
-6 -3 2 3.93 0.7
-6 -3 2 4.47 0.79
5 3 -2 0.36 0.34
5 3 -2 0.84 0.38
5 3 -2 0.66 0.3
5 3 -2 0.27 0.35
5 3 -2 0.35 0.25
-5 -3 2 0.89 0.37
-5 -3 2 0.24 0.27
-5 -3 2 0.22 0.36
4 3 -2 3.61 0.32
4 3 -2 3.65 0.36
4 3 -2 3.68 0.37
4 3 -2 3.18 0.35
4 3 -2 4.43 0.43
-4 -3 2 3.06 0.34
-4 -3 2 4.08 0.43
-4 -3 2 3.76 0.38
-4 -3 2 4.67 0.48
3 3 -2 19.72 0.65
3 3 -2 20.27 0.67
3 3 -2 20.72 0.65
3 3 -2 20.28 0.58
-3 -3 2 20.46 0.62
-3 -3 2 20.22 0.63
-3 -3 2 20.33 0.65
-3 -3 2 20.26 0.68
2 3 -2 106.61 2.14
2 3 -2 104.57 2.19
2 3 -2 105.04 2.15
2 3 -2 103.21 2.14
-2 -3 2 107.7 2.17
-2 -3 2 105.89 2.13
-2 -3 2 108.14 2.17
-2 -3 2 107.08 2.14
1 3 -2 2.14 0.19
1 3 -2 2.21 0.18
1 3 -2 2.26 0.14
-1 -3 2 1.96 0.19
-1 -3 2 2.47 0.18
-1 -3 2 2.07 0.13
-1 -3 2 2.31 0.13
0 3 -2 22.01 0.45
0 3 -2 23.16 0.46
0 3 -2 22.47 0.51
0 3 -2 21.88 0.56
0 -3 2 23.15 0.57
0 -3 2 22.95 0.51
0 -3 2 21.54 0.45
0 -3 2 22.63 0.46
-1 3 -2 15.93 0.34
-1 3 -2 14.51 0.38
-1 3 -2 14.8 0.38
-1 3 -2 15.52 0.35
1 -3 2 14.89 0.44
1 -3 2 15.72 0.33
1 -3 2 15.95 0.34
1 -3 2 15.05 0.43
1 -3 2 15.03 0.39
-2 3 -2 0.47 0.08
-2 3 -2 0.59 0.13
-2 3 -2 0.49 0.09
-2 3 -2 0.48 0.12
2 -3 2 0.63 0.09
2 -3 2 0.95 0.11
2 -3 2 0.44 0.14
2 -3 2 0.44 0.12
2 -3 2 0.49 0.13
-3 3 -2 2.75 0.29
-3 3 -2 2.24 0.24
-3 3 -2 2.66 0.3
-3 3 -2 2.57 0.22
3 -3 2 2.95 0.21
3 -3 2 2.97 0.27
3 -3 2 2.5 0.22
3 -3 2 3.94 0.31
-4 3 -2 259.05 5.06
-4 3 -2 250.81 5
-4 3 -2 250.74 4.89
-4 3 -2 250.11 4.88
4 -3 2 253.02 4.85
4 -3 2 252.47 5.02
4 -3 2 237.59 4.98
4 -3 2 247.85 4.86
-5 3 -2 0.73 0.33
-5 3 -2 0.87 0.3
5 -3 2 0.88 0.25
5 -3 2 0.91 0.31
5 -3 2 0.88 0.31
5 -3 2 0.54 0.3
-6 3 -2 40.57 1.27
-6 3 -2 41.59 1.66
6 -3 2 42.16 1.39
6 -3 2 39.56 1.21
6 -3 2 41.38 1.34
6 -3 2 40.93 1.12
6 2 -2 16.75 0.96
6 2 -2 18.49 0.93
-6 -2 2 17.09 0.94
-6 -2 2 17.21 0.97
5 2 -2 84.39 2.02
5 2 -2 83.35 2
5 2 -2 80.5 1.98
5 2 -2 84.87 1.99
5 2 -2 81.86 1.74
-5 -2 2 83.96 2
-5 -2 2 84.96 1.97
-5 -2 2 84.71 2.03
4 2 -2 30.07 0.92
4 2 -2 31.3 0.91
4 2 -2 30.75 0.91
4 2 -2 31.2 0.75
4 2 -2 30.79 0.92
-4 -2 2 31.48 0.94
-4 -2 2 30.2 0.9
-4 -2 2 30.64 0.9
-4 -2 2 31.44 0.94
3 2 -2 2.58 0.28
3 2 -2 2.39 0.24
3 2 -2 2.76 0.32
3 2 -2 2.11 0.21
-3 -2 2 2.22 0.23
-3 -2 2 2.5 0.27
-3 -2 2 3.66 0.33
-3 -2 2 2.41 0.26
2 2 -2 4.43 0.24
2 2 -2 4.39 0.25
2 2 -2 4.65 0.27
2 2 -2 4.84 0.26
2 2 -2 5.01 0.22
-2 -2 2 4.23 0.27
-2 -2 2 4.82 0.24
-2 -2 2 4.81 0.24
1 2 -2 11.5 0.3
1 2 -2 12.2 0.35
1 2 -2 12.31 0.34
1 2 -2 11.77 0.35
-1 -2 2 11.78 0.34
-1 -2 2 12.45 0.3
-1 -2 2 13.73 0.35
-1 -2 2 11.21 0.33
-1 -2 2 12.27 0.31
-1 2 -2 63.21 1.29
-1 2 -2 63.62 1.28
-1 2 -2 65.97 1.27
-1 2 -2 65.9 1.26
1 -2 2 63.43 1.29
1 -2 2 65.65 1.25
1 -2 2 64.25 1.26
1 -2 2 64.76 1.34
-2 2 -2 -0.05 0.09
-2 2 -2 0.1 0.09
-2 2 -2 0.11 0.07
-2 2 -2 0.07 0.1
2 -2 2 0.14 0.11
2 -2 2 0.13 0.1
2 -2 2 0.14 0.08
2 -2 2 -0.06 0.09
2 -2 2 0.14 0.06
-3 2 -2 2.54 0.25
-3 2 -2 2.81 0.29
-3 2 -2 3.42 0.3
3 -2 2 2.57 0.23
3 -2 2 3.21 0.3
3 -2 2 3.51 0.25
-4 2 -2 177.4 3.6
-4 2 -2 173.81 3.47
-4 2 -2 171.99 3.54
4 -2 2 171.99 3.56
4 -2 2 162.7 3.51
4 -2 2 169.34 3.43
4 -2 2 174.2 3.43
-5 2 -2 40.08 1.19
-5 2 -2 39.92 1.15
5 -2 2 38.95 1.18
5 -2 2 39.77 1.19
5 -2 2 39.99 1.03
5 -2 2 39.66 1.11
-6 2 -2 35.15 1.5
-6 2 -2 34.99 1.19
6 -2 2 35.74 1.15
6 -2 2 37.95 1.06
6 -2 2 36.89 1.28
6 -2 2 37.03 1.24
6 1 -2 14.69 1.29
6 1 -2 14.05 0.83
6 1 -2 12.64 0.81
-6 -1 2 14.6 0.87
-6 -1 2 14.75 0.83
5 1 -2 73.21 1.79
5 1 -2 74.52 1.76
5 1 -2 61.9 1.5
5 1 -2 75.58 1.79
-5 -1 2 76.68 1.81
-5 -1 2 74.3 1.79
4 1 -2 49.73 1.23
4 1 -2 50.25 1.22
4 1 -2 46.93 1.23
4 1 -2 48.84 1.23
4 1 -2 47.57 1.02
-4 -1 2 49.37 1.26
-4 -1 2 50.41 1.21
-4 -1 2 47.56 1.23
-4 -1 2 49.59 1.24
3 1 -2 120.67 2.33
3 1 -2 123.17 2.49
3 1 -2 118.07 2.49
3 1 -2 123.97 2.47
-3 -1 2 121.13 2.5
-3 -1 2 120.15 2.45
-3 -1 2 122.59 2.49
-3 -1 2 118.66 2.48
2 1 -2 20.56 0.53
2 1 -2 20.27 0.45
2 1 -2 19.79 0.54
2 1 -2 20.88 0.54
2 1 -2 20.51 0.55
-2 -1 2 20.12 0.53
-2 -1 2 19.42 0.53
-2 -1 2 19.94 0.53
0 1 -2 6.92 0.16
0 1 -2 6.98 0.16
0 -1 2 6.95 0.2
0 -1 2 6.85 0.21
-2 1 -2 96.98 1.96
-2 1 -2 96.8 1.93
-2 1 -2 97.89 1.98
2 -1 2 94.57 1.98
2 -1 2 97.45 1.91
2 -1 2 92.93 1.97
2 -1 2 97.75 1.93
-3 1 -2 0.42 0.16
-3 1 -2 0.44 0.16
-3 1 -2 0.23 0.15
3 -1 2 0.37 0.13
3 -1 2 0.36 0.13
3 -1 2 0.2 0.16
-4 1 -2 2.13 0.28
-4 1 -2 2.24 0.36
4 -1 2 1.82 0.3
4 -1 2 3.39 0.37
4 -1 2 2.13 0.27
-5 1 -2 43.34 1.23
-5 1 -2 42.93 1.22
5 -1 2 41.37 1.16
5 -1 2 43.08 1.08
5 -1 2 41.98 1.22
5 -1 2 43.12 1.26
-6 1 -2 4.39 0.51
6 -1 2 5.33 0.51
6 -1 2 6.14 0.73
6 -1 2 5.37 0.57
6 -1 2 4.63 0.58
6 0 -2 14.05 0.82
6 0 -2 15.04 1.16
6 0 -2 12.67 0.78
-6 0 2 12.59 0.81
-6 0 2 13.45 0.8
5 0 -2 57.91 1.44
5 0 -2 57.04 1.5
5 0 -2 55.84 1.46
-5 0 2 58.29 1.5
-5 0 2 56.22 1.48
4 0 -2 28.97 0.83
4 0 -2 27.58 0.86
4 0 -2 29.99 0.84
-4 0 2 29.33 0.85
-4 0 2 28.83 0.86
-4 0 2 31.01 0.9
3 0 -2 0.83 0.15
3 0 -2 1.14 0.17
-3 0 2 0.92 0.18
-3 0 2 0.87 0.17
-3 0 2 1.12 0.18
2 0 -2 100.9 2.03
2 0 -2 105.87 2.06
2 0 -2 100.69 2.07
-2 0 2 102.97 2.04
-2 0 2 101.35 2.06
-2 0 2 102.52 2.07
1 0 -2 94.33 1.75
1 0 -2 90.02 1.73
1 0 -2 90.37 1.76
-1 0 2 88.83 1.71
-1 0 2 89.69 1.75
-1 0 2 92.23 1.77
-1 0 2 86.49 1.76
-1 0 -2 104.43 2.02
-1 0 -2 103.29 2.02
-1 0 -2 103.09 2.03
1 0 2 106.73 2.01
1 0 2 102.22 2.03
1 0 2 104.65 2.03
1 0 2 100.06 2.03
-2 0 -2 33.63 0.82
-2 0 -2 34.13 0.83
-2 0 -2 34.76 0.81
2 0 2 35.06 0.79
2 0 2 35.4 0.79
2 0 2 34.87 0.84
-3 0 -2 166.73 3.41
-3 0 -2 169.23 3.38
-3 0 -2 166.8 3.39
3 0 2 168.25 3.41
3 0 2 171.2 3.35
3 0 2 170.61 3.32
-4 0 -2 52.93 1.31
4 0 2 53.18 1.35
4 0 2 51.45 1.27
4 0 2 52.34 1.22
4 0 2 50.97 1.28
-5 0 -2 2.52 0.36
-5 0 -2 2.51 0.39
5 0 2 3.26 0.4
5 0 2 3.03 0.37
5 0 2 2.89 0.39
5 0 2 3.04 0.4
-6 0 -2 36.39 1.32
6 0 2 36.24 1.81
6 0 2 38.32 1.26
6 0 2 37.71 1.1
6 0 2 41.84 1.54
6 -1 -2 31.13 1.2
6 -1 -2 28.76 1.08
6 -1 -2 29.54 1.04
-6 1 2 30.51 1.09
-6 1 2 29 1.13
5 -1 -2 0.9 0.35
5 -1 -2 0.44 0.29
5 -1 -2 0.92 0.28
-5 1 2 1.03 0.28
-5 1 2 0.93 0.31
4 -1 -2 187.9 3.74
4 -1 -2 187.1 3.77
4 -1 -2 182.55 3.82
-4 1 2 191.89 3.77
-4 1 2 194.62 3.87
-4 1 2 183.77 3.82
3 -1 -2 5.12 0.28
3 -1 -2 5.64 0.28
-3 1 2 6.03 0.31
-3 1 2 5.24 0.33
-3 1 2 5.68 0.34
2 -1 -2 576.5 10.53
2 -1 -2 556.24 10.52
2 -1 -2 559.69 10.6
-2 1 2 562.15 10.6
-2 1 2 553.51 10.59
-2 1 2 569.28 10.54
0 -1 -2 -0.02 0.03
-2 -1 -2 95.76 1.9
-2 -1 -2 92.57 1.92
-2 -1 -2 90.81 1.92
2 1 2 95.63 1.9
2 1 2 93.4 1.9
2 1 2 95.37 1.92
2 1 2 91.26 1.93
2 1 2 91.6 1.94
-3 -1 -2 0.31 0.16
-3 -1 -2 0.03 0.15
-3 -1 -2 -0.03 0.17
-3 -1 -2 -0.14 0.16
3 1 2 0.76 0.19
3 1 2 -0.11 0.18
3 1 2 -0.11 0.14
3 1 2 0.07 0.13
-4 -1 -2 19.04 0.73
-4 -1 -2 19.53 0.71
-4 -1 -2 19.37 0.71
4 1 2 20.65 0.7
4 1 2 19.49 0.7
4 1 2 18.89 0.62
4 1 2 18.75 0.7
4 1 2 19.09 0.72
-5 -1 -2 7.94 0.66
-5 -1 -2 9.85 0.62
5 1 2 7.69 0.57
5 1 2 8.36 0.84
5 1 2 8 0.51
5 1 2 8.88 0.63
5 1 2 8.28 0.62
-6 -1 -2 8 0.83
6 1 2 7.5 0.68
6 1 2 8.18 0.77
6 1 2 8.33 0.65
6 -2 -2 2.72 0.41
6 -2 -2 2.61 0.5
6 -2 -2 2.33 0.41
-6 2 2 2.23 0.41
-6 2 2 3.06 0.47
5 -2 -2 93.5 2.19
5 -2 -2 93.77 2.12
5 -2 -2 94.13 2.07
-5 2 2 92.42 2.19
-5 2 2 94.25 2.1
4 -2 -2 53.5 1.33
4 -2 -2 55.61 1.29
4 -2 -2 51.21 1.37
-4 2 2 50.68 1.46
-4 2 2 56.29 1.39
-4 2 2 56.2 1.36
3 -2 -2 0 0.11
3 -2 -2 0.16 0.13
-3 2 2 -0.11 0.13
-3 2 2 0.05 0.15
-3 2 2 0.12 0.12
2 -2 -2 955.35 18.18
-2 2 2 974.34 18.2
-2 2 2 988.53 18.2
0 -2 -2 420.24 8.01
0 -2 -2 418.98 8.02
0 2 2 424.8 8
0 2 2 424.51 8.01
0 2 2 441.91 7.95
-1 -2 -2 393.86 7.54
-1 -2 -2 397.15 7.53
-1 -2 -2 410.64 7.52
-1 -2 -2 403.66 7.5
1 2 2 388.18 7.51
1 2 2 404.91 7.52
1 2 2 402.31 7.5
1 2 2 394.01 7.52
1 2 2 392.31 7.54
-2 -2 -2 2.21 0.24
-2 -2 -2 1.91 0.22
-2 -2 -2 2.34 0.22
-2 -2 -2 2.11 0.25
2 2 2 2.59 0.24
2 2 2 2.4 0.24
2 2 2 1.89 0.21
2 2 2 1.63 0.18
2 2 2 2.07 0.24
-3 -2 -2 0.41 0.17
-3 -2 -2 0.13 0.17
-3 -2 -2 0.38 0.19
-3 -2 -2 0.25 0.16
3 2 2 0.04 0.17
3 2 2 0.21 0.14
3 2 2 0.35 0.18
3 2 2 0.3 0.19
-4 -2 -2 -0.21 0.25
-4 -2 -2 0.32 0.25
-4 -2 -2 0.26 0.21
4 2 2 0.57 0.25
4 2 2 0.43 0.19
4 2 2 0.39 0.26
4 2 2 0.65 0.25
-5 -2 -2 -0.16 0.34
-5 -2 -2 0.3 0.38
-5 -2 -2 0.07 0.27
5 2 2 0.22 0.31
5 2 2 -0.33 0.32
5 2 2 0.39 0.26
5 2 2 0.36 0.34
5 2 2 0.18 0.38
-6 -2 -2 7.42 0.92
6 2 2 7.4 0.69
6 2 2 7.35 0.84
6 2 2 6.13 0.73
6 -3 -2 87.35 2.1
6 -3 -2 83.39 2
6 -3 -2 88.88 2.21
-6 3 2 89.69 2.21
-6 3 2 83.75 2.04
5 -3 -2 57.11 1.41
5 -3 -2 51.79 1.47
5 -3 -2 61.56 1.74
5 -3 -2 53.44 1.37
-5 3 2 53.31 1.42
-5 3 2 53.94 1.49
-5 3 2 54.81 1.43
4 -3 -2 6.25 0.37
4 -3 -2 6.75 0.46
4 -3 -2 6.35 0.39
4 -3 -2 6.55 0.34
-4 3 2 6.11 0.41
-4 3 2 6.48 0.63
-4 3 2 6.56 0.37
-4 3 2 6.2 0.43
3 -3 -2 4.53 0.24
3 -3 -2 4.67 0.27
3 -3 -2 4.17 0.23
-3 3 2 4.09 0.25
-3 3 2 4.29 0.32
-3 3 2 4.6 0.34
-3 3 2 4.49 0.27
-3 3 2 4.12 0.2
2 -3 -2 449.9 8.53
2 -3 -2 460.25 8.49
2 -3 -2 449.17 8.63
2 -3 -2 459.13 8.49
-2 3 2 449.98 8.51
-2 3 2 459.61 8.5
-2 3 2 448.44 8.64
-2 3 2 464.43 8.5
-2 3 2 451.25 8.64
1 -3 -2 26.84 0.56
1 -3 -2 27.23 0.56
1 -3 -2 26.83 0.66
1 -3 -2 27.06 0.67
-1 3 2 27.07 0.57
-1 3 2 26.73 0.67
-1 3 2 26.86 0.58
0 -3 -2 222.2 4.16
0 -3 -2 223.33 4.23
0 3 2 221.57 4.17
0 3 2 213.78 4.23
0 3 2 218.11 4.17
-1 -3 -2 0.98 0.12
-1 -3 -2 1.18 0.16
-1 -3 -2 1.02 0.14
-1 -3 -2 1.02 0.14
1 3 2 0.84 0.13
1 3 2 1.02 0.14
1 3 2 0.75 0.12
1 3 2 0.83 0.13
1 3 2 1.25 0.15
-2 -3 -2 10.99 0.41
-2 -3 -2 10.61 0.42
-2 -3 -2 10.82 0.43
-2 -3 -2 10.98 0.44
2 3 2 10.77 0.42
2 3 2 10.26 0.42
2 3 2 10.25 0.41
-3 -3 -2 55.2 1.32
-3 -3 -2 54.57 1.29
-3 -3 -2 53.21 1.33
-3 -3 -2 54.17 1.33
3 3 2 52.37 1.26
3 3 2 52.52 1.28
3 3 2 53.6 1.33
3 3 2 52.73 1.32
-4 -3 -2 2.39 0.33
-4 -3 -2 1.67 0.32
-4 -3 -2 2.24 0.35
4 3 2 2.1 0.33
4 3 2 2.61 0.36
4 3 2 2.9 0.37
4 3 2 2.58 0.3
-5 -3 -2 13.58 0.81
-5 -3 -2 13.84 0.89
-5 -3 -2 13.35 0.74
5 3 2 13.62 0.79
5 3 2 13.43 0.86
5 3 2 13.75 0.68
5 3 2 13.39 0.7
5 3 2 14.56 0.83
-6 -3 -2 0.08 0.55
6 3 2 0.89 0.41
6 3 2 0.04 0.52
6 3 2 1.1 0.49
6 -4 -2 19.72 0.88
6 -4 -2 20.43 0.94
6 -4 -2 19.93 0.77
-6 4 2 23.47 1.53
-6 4 2 20.77 0.81
5 -4 -2 12.01 0.59
5 -4 -2 12.29 0.53
5 -4 -2 12.67 0.56
5 -4 -2 11.24 0.67
-5 4 2 11.41 0.61
-5 4 2 11.77 0.56
-5 4 2 11.56 0.68
4 -4 -2 0.2 0.26
4 -4 -2 0.12 0.14
4 -4 -2 0.29 0.18
4 -4 -2 -0.27 0.14
-4 4 2 -0.24 0.17
-4 4 2 0.22 0.16
-4 4 2 -0.11 0.13
-4 4 2 -0.24 0.19
3 -4 -2 0.76 0.16
3 -4 -2 0.61 0.11
3 -4 -2 0.69 0.11
-3 4 2 0.72 0.13
-3 4 2 0.74 0.13
-3 4 2 0.82 0.2
-3 4 2 0.87 0.15
2 -4 -2 91.64 1.72
2 -4 -2 87.46 1.79
2 -4 -2 86.53 1.9
2 -4 -2 89.84 1.72
-2 4 2 88.73 1.8
-2 4 2 90.57 1.73
-2 4 2 90.12 1.73
1 -4 -2 23.19 0.63
1 -4 -2 23.45 0.64
1 -4 -2 24.41 0.51
1 -4 -2 24.35 0.51
-1 4 2 24.6 0.53
-1 4 2 22.79 0.64
-1 4 2 24.47 0.53
-1 4 2 23.46 0.61
-1 4 2 23.81 0.56
0 -4 -2 17.53 0.51
0 -4 -2 18.52 0.52
0 -4 -2 18.15 0.44
0 4 2 17.11 0.52
0 4 2 17.19 0.51
0 4 2 17.63 0.47
0 4 2 18.54 0.46
-1 -4 -2 353.35 6.6
-1 -4 -2 349.03 6.58
-1 -4 -2 355.09 6.53
1 4 2 340.42 6.56
1 4 2 334.01 6.58
1 4 2 356.88 6.56
1 4 2 314.68 6.69
-2 -4 -2 16.04 0.55
-2 -4 -2 16.09 0.57
-2 -4 -2 16.67 0.56
-2 -4 -2 17.69 0.56
2 4 2 17.8 0.58
2 4 2 16.35 0.55
2 4 2 16.12 0.57
2 4 2 16.04 0.55
-3 -4 -2 0.23 0.21
-3 -4 -2 -0.19 0.23
-3 -4 -2 0.19 0.22
-3 -4 -2 0.16 0.2
3 4 2 -0.11 0.23
3 4 2 -0.21 0.19
3 4 2 -0.12 0.18
3 4 2 -0.16 0.21
-4 -4 -2 170.47 3.52
-4 -4 -2 167.01 3.57
-4 -4 -2 168.43 3.54
4 4 2 164.05 3.51
4 4 2 168.4 3.59
4 4 2 164.46 3.55
4 4 2 169.81 3.48
-5 -4 -2 15.48 0.89
-5 -4 -2 15.17 0.79
-5 -4 -2 14.54 0.96
5 4 2 14.64 0.73
5 4 2 15.19 0.87
5 4 2 16.16 0.9
5 4 2 13.88 0.95
5 4 2 16.3 0.74
6 -5 -2 3.37 0.44
6 -5 -2 3.39 0.5
6 -5 -2 2.85 0.35
-6 5 2 2.89 0.38
5 -5 -2 9.27 0.45
5 -5 -2 8.64 0.5
5 -5 -2 9.38 0.63
5 -5 -2 8.58 0.52
-5 5 2 8.68 0.64
-5 5 2 8.82 0.54
-5 5 2 8.69 0.47
4 -5 -2 8.6 0.35
4 -5 -2 8.86 0.35
4 -5 -2 8.39 0.45
4 -5 -2 8.08 0.52
-4 5 2 8.77 0.38
-4 5 2 8.45 0.53
-4 5 2 8.41 0.38
-4 5 2 8 0.38
3 -5 -2 162.81 3.35
3 -5 -2 163.06 3.11
3 -5 -2 161.93 3.11
3 -5 -2 159.97 3.22
-3 5 2 162.01 3.37
-3 5 2 163.24 3.2
-3 5 2 165.63 3.14
-3 5 2 164.37 3.13
2 -5 -2 5.06 0.32
2 -5 -2 4.88 0.32
2 -5 -2 5.21 0.17
2 -5 -2 4.89 0.16
-2 5 2 5.12 0.18
-2 5 2 4.97 0.18
-2 5 2 4.64 0.3
1 -5 -2 24.16 0.52
1 -5 -2 18.72 0.84
1 -5 -2 23.63 0.66
1 -5 -2 23.44 0.52
-1 5 2 23.64 0.59
-1 5 2 22.97 0.67
-1 5 2 23.42 0.65
-1 5 2 23.9 0.54
-1 5 2 24.09 0.53
0 -5 -2 168.83 3.31
0 -5 -2 163.9 3.19
0 -5 -2 164.88 3.29
0 5 2 167.54 3.31
0 5 2 162.44 3.29
0 5 2 164.09 3.24
0 5 2 164.85 3.21
-1 -5 -2 15.59 0.54
-1 -5 -2 15.39 0.53
-1 -5 -2 16.25 0.49
1 5 2 15.72 0.52
1 5 2 15.36 0.53
-2 -5 -2 25.65 0.77
-2 -5 -2 25.29 0.75
-2 -5 -2 25.74 0.76
-2 -5 -2 25.34 0.77
2 5 2 25.34 0.77
2 5 2 24.58 0.77
2 5 2 25.03 0.77
2 5 2 25.63 0.76
-3 -5 -2 9.26 0.55
-3 -5 -2 7.91 0.57
-3 -5 -2 10.63 0.54
3 5 2 10.05 0.54
3 5 2 9.1 0.57
3 5 2 9.47 0.52
3 5 2 7.99 0.57
-4 -5 -2 147.93 3.25
-4 -5 -2 150.43 3.22
-4 -5 -2 148.4 3.23
4 5 2 147.76 3.21
4 5 2 148.28 3.28
4 5 2 151.69 3.18
4 5 2 148.57 3.26
-5 -5 -2 14.42 0.89
-5 -5 -2 15.18 0.95
-5 -5 -2 14.81 1.23
5 5 2 13.17 1.02
5 5 2 14.18 0.78
5 5 2 15.24 0.75
5 5 2 14.89 0.98
6 -6 -2 2.3 0.31
6 -6 -2 2.6 0.44
6 -6 -2 2.81 0.52
-6 6 2 2.51 0.35
5 -6 -2 0.11 0.19
5 -6 -2 0.3 0.29
5 -6 -2 -0.29 0.23
5 -6 -2 0.82 0.37
-5 6 2 0.03 0.21
-5 6 2 -0.18 0.25
-5 6 2 0.05 0.22
-5 6 2 0.31 0.31
4 -6 -2 11.45 0.4
4 -6 -2 11.57 0.39
4 -6 -2 11.55 0.59
4 -6 -2 12.02 0.52
-4 6 2 11.39 0.41
-4 6 2 12.59 0.61
-4 6 2 11.76 0.43
-4 6 2 11.1 0.48
3 -6 -2 5.36 0.23
3 -6 -2 5.79 0.21
3 -6 -2 4.56 0.56
3 -6 -2 5.13 0.41
-3 6 2 5.37 0.44
-3 6 2 5.74 0.47
-3 6 2 6.05 0.24
2 -6 -2 89.1 1.7
2 -6 -2 89.48 1.95
2 -6 -2 86.81 1.93
2 -6 -2 88.53 1.7
-2 6 2 90.12 1.72
-2 6 2 87.5 1.84
-2 6 2 87.17 1.89
-2 6 2 88.71 1.72
1 -6 -2 44.78 0.94
1 -6 -2 43.69 1.09
1 -6 -2 43.68 1.08
1 -6 -2 44.41 0.92
-1 6 2 44.09 1.02
-1 6 2 44.94 0.94
-1 6 2 44.36 1.09
-1 6 2 44.66 0.95
0 -6 -2 392.09 7.57
0 -6 -2 387.28 7.46
0 -6 -2 401.61 7.47
0 -6 -2 396.48 7.59
0 6 2 416.36 7.51
0 6 2 406.21 7.61
0 6 2 361.24 7.7
0 6 2 396.1 7.49
-1 -6 -2 151.8 3.03
-1 -6 -2 149.97 3.09
-1 -6 -2 152.69 3.11
1 6 2 147.73 3.11
1 6 2 152.09 3.06
1 6 2 150.56 3.08
-2 -6 -2 57.24 1.38
-2 -6 -2 56.73 1.44
-2 -6 -2 58.59 1.41
-2 -6 -2 59.29 1.44
2 6 2 56.06 1.41
2 6 2 56 1.41
2 6 2 55.65 1.41
-3 -6 -2 1.49 0.27
-3 -6 -2 1.78 0.34
-3 -6 -2 1.52 0.35
3 6 2 0.65 0.3
3 6 2 1.52 0.34
3 6 2 0.5 0.28
3 6 2 1.08 0.35
-4 -6 -2 11.45 1.12
-4 -6 -2 12.1 0.86
-4 -6 -2 13.82 0.74
4 6 2 11.65 0.82
4 6 2 13.48 0.73
4 6 2 14.43 0.77
-5 -6 -2 3.27 0.65
-5 -6 -2 3.47 0.64
5 6 2 3.52 0.65
5 6 2 4.48 0.61
5 6 2 3.86 0.5
5 6 2 4.87 0.51
6 -7 -2 0.05 0.4
6 -7 -2 0.31 0.42
6 -7 -2 0.51 0.26
-6 7 2 0.08 0.28
5 -7 -2 2.44 0.36
5 -7 -2 1.84 0.23
5 -7 -2 1.7 0.42
5 -7 -2 1.81 0.26
-5 7 2 0.69 0.38
-5 7 2 1.16 0.3
-5 7 2 1.13 0.24
-5 7 2 1.96 0.28
4 -7 -2 33.89 1.03
4 -7 -2 31.26 0.92
4 -7 -2 32.71 0.75
4 -7 -2 31.88 0.75
-4 7 2 32.48 0.77
-4 7 2 31.59 0.77
-4 7 2 31.89 0.9
-4 7 2 33.69 1.05
3 -7 -2 8.99 0.27
3 -7 -2 8.66 0.52
3 -7 -2 9.01 0.27
-3 7 2 9.24 0.46
-3 7 2 9.74 0.49
-3 7 2 9.15 0.3
-3 7 2 9.62 0.29
2 -7 -2 514.58 9.78
2 -7 -2 494.96 9.51
2 -7 -2 520.71 9.51
2 -7 -2 529.71 9.81
-2 7 2 522.35 9.74
-2 7 2 518.08 9.67
-2 7 2 457.14 9.56
-2 7 2 520.77 9.53
1 -7 -2 2.4 0.18
1 -7 -2 2.27 0.26
1 -7 -2 2.32 0.22
1 -7 -2 2.04 0.25
-1 7 2 2.46 0.21
-1 7 2 1.92 0.27
-1 7 2 2.68 0.29
-1 7 2 2.52 0.24
0 -7 -2 233.76 4.61
0 -7 -2 236.21 4.48
0 -7 -2 228.56 4.58
0 7 2 233.29 4.51
0 7 2 225.18 4.61
0 7 2 229.51 4.55
-1 -7 -2 13.17 0.55
-1 -7 -2 13.24 0.51
-1 -7 -2 13.31 0.56
1 7 2 11.87 0.53
1 7 2 11.58 0.58
1 7 2 13.04 0.55
-2 -7 -2 46.52 1.22
-2 -7 -2 45.02 1.2
2 7 2 45.57 1.24
2 7 2 45.08 1.24
2 7 2 44.41 1.23
-3 -7 -2 46.52 1.32
-3 -7 -2 46.11 1.29
-3 -7 -2 43.43 1.31
3 7 2 46.43 1.33
3 7 2 45.43 1.3
3 7 2 46.26 1.36
3 7 2 45.65 1.3
-4 -7 -2 0.88 0.64
-4 -7 -2 0.81 0.46
-4 -7 -2 0.76 0.36
4 7 2 1.23 0.38
4 7 2 1.79 0.49
4 7 2 0.63 0.4
5 -8 -2 8.47 0.45
5 -8 -2 8.9 0.69
5 -8 -2 8.03 0.4
5 -8 -2 9.91 0.64
-5 8 2 8.71 0.43
-5 8 2 8.21 0.76
-5 8 2 8.23 0.6
-5 8 2 8 0.49
4 -8 -2 1.69 0.38
4 -8 -2 1.57 0.16
4 -8 -2 2.07 0.18
-4 8 2 2.19 0.38
-4 8 2 1.72 0.18
-4 8 2 1.82 0.19
-4 8 2 2.19 0.32
3 -8 -2 3 0.37
3 -8 -2 2.82 0.34
-3 8 2 2.57 0.34
-3 8 2 2.75 0.3
2 -8 -2 81.13 1.87
2 -8 -2 80.83 1.6
2 -8 -2 82.03 1.62
2 -8 -2 82.29 1.94
-2 8 2 82.05 1.64
-2 8 2 79.89 1.78
-2 8 2 79.41 1.86
-2 8 2 80.34 1.62
1 -8 -2 205.28 4.1
1 -8 -2 197.95 3.91
1 -8 -2 204.07 4.12
1 -8 -2 200.53 3.9
-1 8 2 203.46 3.94
-1 8 2 205.04 4.13
-1 8 2 198.95 3.92
-1 8 2 203.06 4.04
0 -8 -2 -0.02 0.18
0 -8 -2 0.04 0.2
0 -8 -2 0.34 0.16
0 -8 -2 -0.09 0.21
0 8 2 0 0.23
0 8 2 -0.29 0.2
0 8 2 -0.27 0.21
0 8 2 -0.36 0.15
-1 -8 -2 2.85 0.36
-1 -8 -2 3.13 0.33
-1 -8 -2 2.03 0.28
1 8 2 2.73 0.3
1 8 2 2.15 0.31
1 8 2 1.89 0.29
-2 -8 -2 4.56 0.5
-2 -8 -2 3.91 0.46
2 8 2 3.22 0.4
2 8 2 3.9 0.42
2 8 2 4.29 0.49
-3 -8 -2 67.32 1.74
-3 -8 -2 67.94 1.77
3 8 2 70.25 1.81
3 8 2 67.12 1.82
3 8 2 65.74 1.76
-4 -8 -2 0.29 0.49
-4 -8 -2 0.83 0.42
4 8 2 1.19 0.47
4 8 2 1.11 0.53
5 -9 -2 1.36 0.21
5 -9 -2 1.55 0.49
5 -9 -2 1.67 0.25
-5 9 2 1.44 0.26
-5 9 2 1.31 0.22
-5 9 2 2.38 0.43
4 -9 -2 -0.03 0.35
-4 9 2 -0.06 0.28
-4 9 2 0.47 0.33
-4 9 2 0.11 0.34
3 -9 -2 42.42 1.14
3 -9 -2 42.09 0.89
3 -9 -2 41.87 1.23
-3 9 2 41.29 1.12
-3 9 2 42.19 1.2
2 -9 -2 1.89 0.19
2 -9 -2 1.85 0.21
2 -9 -2 2.21 0.34
-2 9 2 2.33 0.25
-2 9 2 1.73 0.29
-2 9 2 1.06 0.34
-2 9 2 2.42 0.28
1 -9 -2 207.65 4.23
1 -9 -2 206.33 4.04
1 -9 -2 205.26 4.03
-1 9 2 206.57 4.06
-1 9 2 212.19 4.18
-1 9 2 208.61 4.28
-1 9 2 203.77 4.06
0 -9 -2 1.06 0.27
0 -9 -2 1.44 0.24
0 -9 -2 1.12 0.27
0 9 2 1.71 0.3
0 9 2 1.39 0.26
0 9 2 1.46 0.31
0 9 2 1.41 0.32
-1 -9 -2 24.74 0.89
-1 -9 -2 26.13 0.88
1 9 2 25.25 0.88
1 9 2 22.95 0.92
1 9 2 26.05 0.94
-2 -9 -2 9.53 0.64
-2 -9 -2 9 0.61
2 9 2 8.97 0.65
2 9 2 9.95 0.68
2 9 2 8.75 0.67
-3 -9 -2 1.67 0.4
-3 -9 -2 0.89 0.42
3 9 2 1.16 0.59
3 9 2 1.27 0.44
3 9 2 1.24 0.46
4 -10 -2 -0.25 0.38
-4 10 2 0.31 0.35
-4 10 2 0.58 0.39
3 -10 -2 4.44 0.27
3 -10 -2 4.87 0.25
3 -10 -2 4.92 0.56
3 -10 -2 4.51 0.5
-3 10 2 4.3 0.3
-3 10 2 4.62 0.53
-3 10 2 4.68 0.49
2 -10 -2 0.49 0.18
2 -10 -2 0.53 0.16
2 -10 -2 0.72 0.3
-2 10 2 0.52 0.2
-2 10 2 0.75 0.18
-2 10 2 0.64 0.29
-2 10 2 0.63 0.33
1 -10 -2 2.22 0.24
1 -10 -2 2.16 0.34
1 -10 -2 1.7 0.27
-1 10 2 1.6 0.39
-1 10 2 2.48 0.31
-1 10 2 2.28 0.35
-1 10 2 1.97 0.25
0 -10 -2 8.12 0.54
0 -10 -2 6.24 0.45
0 -10 -2 6.56 0.52
0 10 2 7.03 0.56
0 10 2 7.21 0.49
0 10 2 7.47 0.63
0 10 2 5.55 0.59
-1 -10 -2 0.35 0.27
-1 -10 -2 1.12 0.31
1 10 2 0.8 0.32
1 10 2 0.46 0.33
1 10 2 0.71 0.34
-2 -10 -2 19.59 0.87
-2 -10 -2 17.95 0.86
2 10 2 20.29 0.98
2 10 2 19.21 0.93
3 -11 -2 0.34 0.15
3 -11 -2 -0.6 0.36
3 -11 -2 0 0.36
3 -11 -2 0.15 0.18
-3 11 2 0.25 0.17
-3 11 2 0.04 0.2
-3 11 2 0.47 0.41
-3 11 2 0.1 0.34
2 -11 -2 0.75 0.33
2 -11 -2 0.41 0.19
2 -11 -2 0.29 0.24
-2 11 2 0.96 0.36
-2 11 2 0.52 0.22
-2 11 2 0.56 0.42
-2 11 2 0.62 0.26
1 -11 -2 0.18 0.31
1 -11 -2 -0.41 0.26
1 -11 -2 -0.2 0.2
-1 11 2 0.43 0.31
-1 11 2 0.57 0.34
-1 11 2 -0.04 0.38
-1 11 2 0.3 0.24
0 -11 -2 4.18 0.45
0 -11 -2 3.69 0.44
0 11 2 3.39 0.38
0 11 2 4.37 0.49
0 11 2 4.68 0.59
-1 -11 -2 4.82 0.55
-1 -11 -2 5.41 0.61
1 11 2 4.24 0.49
1 11 2 4.65 0.54
2 -12 -2 11.54 0.51
2 -12 -2 11.91 0.56
2 -12 -2 13.02 0.81
-2 12 2 11.39 0.55
-2 12 2 12.57 0.79
-2 12 2 11.42 0.77
1 -12 -2 0.3 0.37
1 -12 -2 0.26 0.25
-1 12 2 0.71 0.41
-1 12 2 -0.1 0.27
0 -12 -2 1.7 0.43
0 -12 -2 0.32 0.29
0 12 2 0.65 0.35
0 12 2 0.69 0.47
0 12 -3 9.68 0.64
0 12 -3 10.64 0.59
0 -12 3 10.27 0.61
-1 12 -3 1.41 0.38
-1 12 -3 1.69 0.31
1 -12 3 1.16 0.33
1 -12 3 1.2 0.28
-2 12 -3 6.71 0.51
-2 12 -3 5.83 0.43
-2 12 -3 5.81 0.6
-2 12 -3 5.58 0.64
2 -12 3 6.58 0.42
2 11 -3 0.86 0.42
-2 -11 3 1.62 0.35
-2 -11 3 0.62 0.37
1 11 -3 2.16 0.4
-1 -11 3 4.34 0.49
-1 -11 3 3.82 0.47
-1 -11 3 3.68 0.42
0 11 -3 7.33 0.69
0 11 -3 8.68 0.77
0 11 -3 8.25 0.52
0 11 -3 6.84 0.53
0 -11 3 8 0.51
0 -11 3 6.98 0.5
0 -11 3 8.09 0.51
-1 11 -3 1.96 0.42
-1 11 -3 2.2 0.34
-1 11 -3 1.85 0.29
-1 11 -3 1.46 0.35
-1 11 -3 2.39 0.33
-1 11 -3 1.6 0.42
1 -11 3 1.72 0.26
1 -11 3 1.66 0.3
1 -11 3 1.78 0.33
-2 11 -3 40.39 1.01
-2 11 -3 41.66 1.38
-2 11 -3 41.15 1.01
-2 11 -3 41.77 1.16
-2 11 -3 41.55 1.18
-2 11 -3 42.78 1.33
-2 11 -3 41.05 1.12
2 -11 3 42 0.99
2 -11 3 41.4 0.99
-3 11 -3 8.94 0.66
-3 11 -3 9.04 0.78
3 -11 3 9.7 0.37
3 -11 3 8.92 0.71
3 -11 3 8.57 0.37
3 10 -3 -0.07 0.44
-3 -10 3 -0.17 0.33
-3 -10 3 0.07 0.38
2 10 -3 -0.21 0.35
2 10 -3 0.25 0.37
2 10 -3 0.06 0.38
-2 -10 3 0.21 0.28
-2 -10 3 0.25 0.27
-2 -10 3 0.06 0.31
1 10 -3 3.71 0.47
1 10 -3 4.71 0.52
1 10 -3 5.48 0.53
-1 -10 3 3.85 0.44
-1 -10 3 4.11 0.47
-1 -10 3 5.02 0.43
0 10 -3 19.57 0.73
0 10 -3 20.94 0.86
0 10 -3 20.14 0.63
0 10 -3 21.54 0.92
0 10 -3 19.98 0.77
0 -10 3 20.78 0.65
0 -10 3 20.49 0.66
0 -10 3 19.98 0.69
0 -10 3 20.01 0.71
-1 10 -3 46.56 1.14
-1 10 -3 48.17 1.16
-1 10 -3 48.83 1.23
-1 10 -3 46.99 1.15
-1 10 -3 48.78 1.38
1 -10 3 49.59 1.13
1 -10 3 45.19 1.22
1 -10 3 48.4 1.13
-2 10 -3 2.14 0.33
-2 10 -3 2.77 0.34
-2 10 -3 2.57 0.41
-2 10 -3 2.47 0.3
-2 10 -3 2.25 0.22
2 -10 3 2.11 0.4
2 -10 3 2.08 0.2
2 -10 3 2.22 0.22
-3 10 -3 86.33 2
-3 10 -3 88.95 2.17
-3 10 -3 92.39 2.22
-3 10 -3 84.26 1.77
3 -10 3 89.61 2.18
3 -10 3 86.63 2.06
-4 10 -3 1.43 0.41
4 -10 3 2.15 0.47
4 -10 3 1.94 0.48
3 9 -3 9.11 0.72
3 9 -3 6.73 0.75
3 9 -3 8.23 0.61
3 9 -3 8.08 0.9
-3 -9 3 7.76 0.56
-3 -9 3 8.57 0.6
-3 -9 3 8.46 0.71
2 9 -3 47.68 1.37
2 9 -3 49.13 1.39
2 9 -3 48.85 1.41
-2 -9 3 47.46 1.18
-2 -9 3 46.63 1.3
-2 -9 3 47.05 1.17
1 9 -3 280.44 5.45
1 9 -3 277.9 5.71
1 9 -3 295.42 6.16
1 9 -3 281.73 5.73
-1 -9 3 274.15 5.46
-1 -9 3 295.81 6.01
-1 -9 3 278.13 5.45
0 9 -3 37.68 1.01
0 9 -3 38.32 1.02
0 9 -3 37.29 1.13
0 9 -3 38.54 0.91
0 -9 3 39.47 0.98
0 -9 3 38.07 0.92
0 -9 3 37.97 0.92
0 -9 3 37.92 0.98
-1 9 -3 57.36 1.32
-1 9 -3 60.62 1.35
-1 9 -3 60.24 1.55
-1 9 -3 65.03 1.55
-1 9 -3 59.09 1.34
-1 9 -3 59.94 1.35
1 -9 3 61.92 1.32
1 -9 3 59.24 1.3
1 -9 3 60.59 1.34
1 -9 3 59.73 1.56
-2 9 -3 7.52 0.32
-2 9 -3 8.24 0.49
-2 9 -3 8.54 0.57
-2 9 -3 7.84 0.35
-2 9 -3 8.16 0.46
2 -9 3 8.77 0.6
2 -9 3 8.06 0.31
2 -9 3 7.94 0.33
2 -9 3 8.79 0.51
-3 9 -3 30.27 0.68
-3 9 -3 29.67 0.95
-3 9 -3 30.91 0.91
3 -9 3 28.5 1.01
3 -9 3 27.99 0.65
3 -9 3 29.17 0.95
-4 9 -3 1.34 0.35
-4 9 -3 0.87 0.18
4 -9 3 0.64 0.36
4 -9 3 1.35 0.38
4 -9 3 0.67 0.16
4 -9 3 0.86 0.16
4 -9 3 1.09 0.38
-5 9 -3 8.55 0.76
-5 9 -3 8.32 0.49
-5 9 -3 8.13 0.47
5 -9 3 8.25 0.73
5 -9 3 7.88 0.42
5 -9 3 8.46 0.45
5 -9 3 9.12 0.82
4 8 -3 10.49 0.73
4 8 -3 10.82 1.25
4 8 -3 10.66 0.73
-4 -8 3 11.67 1.03
-4 -8 3 10.92 0.66
3 8 -3 0.74 0.34
3 8 -3 0.08 0.3
3 8 -3 1.25 0.31
3 8 -3 0.49 0.38
-3 -8 3 0.33 0.24
-3 -8 3 0.68 0.26
-3 -8 3 0.23 0.32
2 8 -3 232.93 4.64
2 8 -3 229.71 4.68
2 8 -3 224.69 4.64
-2 -8 3 230.8 4.59
-2 -8 3 223.63 4.45
-2 -8 3 221.1 4.46
1 8 -3 84.35 1.91
1 8 -3 84.7 1.98
1 8 -3 85.61 1.76
1 8 -3 83.91 1.98
-1 -8 3 85.12 1.75
-1 -8 3 86.43 1.77
-1 -8 3 81.63 1.86
0 8 -3 27.44 0.67
0 8 -3 27.53 0.87
0 8 -3 26.21 0.76
0 8 -3 26.92 0.76
0 -8 3 25.88 0.72
0 -8 3 26.62 0.73
0 -8 3 27.5 0.67
0 -8 3 26.72 0.67
-1 8 -3 34.91 0.86
-1 8 -3 35.51 0.83
-1 8 -3 35.83 0.85
-1 8 -3 35.8 1.02
-1 8 -3 36.25 0.87
1 -8 3 35.06 0.81
1 -8 3 35.65 0.86
1 -8 3 35.47 0.83
1 -8 3 36.74 1.05
-2 8 -3 20.1 0.76
-2 8 -3 20.23 0.66
-2 8 -3 20.3 0.65
-2 8 -3 20.17 0.52
2 -8 3 20.45 0.49
2 -8 3 19.97 0.69
2 -8 3 20.72 0.51
2 -8 3 20.26 0.77
-3 8 -3 20.8 0.52
-3 8 -3 21.64 0.73
-3 8 -3 21.23 0.53
-3 8 -3 21.41 0.76
3 -8 3 21.5 0.51
3 -8 3 20.6 0.49
3 -8 3 20.42 0.8
3 -8 3 21.21 0.81
3 -8 3 20.53 0.77
-4 8 -3 0.31 0.17
-4 8 -3 0.59 0.17
-4 8 -3 0.7 0.31
4 -8 3 0.6 0.31
4 -8 3 0.35 0.15
4 -8 3 0.34 0.15
4 -8 3 0.37 0.3
4 -8 3 0.17 0.33
-5 8 -3 3.17 0.33
-5 8 -3 3.33 0.31
-5 8 -3 2.57 0.46
5 -8 3 4.33 0.5
5 -8 3 3.04 0.52
5 -8 3 3.76 0.52
5 -8 3 3.74 0.41
5 -8 3 3.24 0.36
4 7 -3 6.66 0.59
4 7 -3 6.36 0.71
4 7 -3 7.51 0.67
4 7 -3 8.09 0.62
4 7 -3 6.98 0.76
-4 -7 3 6.15 0.57
-4 -7 3 7.21 0.76
-4 -7 3 7.04 0.55
3 7 -3 13.32 0.68
3 7 -3 15.34 0.91
3 7 -3 13.33 0.67
3 7 -3 12.83 0.73
3 7 -3 11.56 0.68
-3 -7 3 13.58 0.56
-3 -7 3 13.04 0.57
-3 -7 3 12.99 0.69
-3 -7 3 13.49 0.71
2 7 -3 58.17 1.51
2 7 -3 58.82 1.34
2 7 -3 60.01 1.5
2 7 -3 60.47 1.5
-2 -7 3 59.36 1.33
-2 -7 3 61.78 1.35
-2 -7 3 59.85 1.46
1 7 -3 15.79 0.63
1 7 -3 15.67 0.46
1 7 -3 14.53 0.61
1 7 -3 15.11 0.6
-1 -7 3 15.35 0.46
-1 -7 3 15.39 0.57
-1 -7 3 15.65 0.47
0 7 -3 0.09 0.16
0 7 -3 -0.17 0.21
0 7 -3 -0.03 0.11
0 7 -3 0.03 0.16
0 -7 3 -0.02 0.11
0 -7 3 0.26 0.2
0 -7 3 0.11 0.13
0 -7 3 0.11 0.17
0 -7 3 0.19 0.14
-1 7 -3 -0.05 0.12
-1 7 -3 0.04 0.12
-1 7 -3 0.01 0.17
-1 7 -3 0.17 0.11
-1 7 -3 0.19 0.13
1 -7 3 -0.02 0.19
1 -7 3 0.19 0.1
1 -7 3 0.6 0.12
-2 7 -3 8.18 0.42
-2 7 -3 9.64 0.3
-2 7 -3 9.35 0.41
-2 7 -3 9.06 0.41
-2 7 -3 9.49 0.42
2 -7 3 9.03 0.5
2 -7 3 9.36 0.27
2 -7 3 9.54 0.52
-3 7 -3 1.4 0.15
-3 7 -3 1.26 0.15
-3 7 -3 1.29 0.26
-3 7 -3 1.32 0.25
3 -7 3 1.09 0.29
3 -7 3 1.52 0.17
3 -7 3 1.47 0.17
3 -7 3 1.2 0.27
3 -7 3 0.9 0.28
-4 7 -3 6.89 0.45
-4 7 -3 7.16 0.54
-4 7 -3 6.77 0.36
4 -7 3 7.68 0.58
4 -7 3 6.82 0.34
4 -7 3 6.32 0.46
4 -7 3 7 0.56
4 -7 3 7.55 0.58
-5 7 -3 0.07 0.25
-5 7 -3 -0.34 0.33
-5 7 -3 -0.16 0.26
5 -7 3 0.3 0.34
5 -7 3 -0.19 0.23
5 -7 3 -0.14 0.38
5 -7 3 0.23 0.21
5 -7 3 0.44 0.36
5 6 -3 2.44 0.49
5 6 -3 2.67 0.52
5 6 -3 3.51 0.75
5 6 -3 2.39 0.4
-5 -6 3 2.58 0.57
-5 -6 3 2.8 0.42
4 6 -3 1.97 0.33
4 6 -3 1.25 0.34
4 6 -3 1.48 0.37
4 6 -3 0.58 0.42
-4 -6 3 1.96 0.33
-4 -6 3 1.74 0.42
-4 -6 3 0.9 0.37
3 6 -3 24.45 0.85
3 6 -3 26.12 0.91
3 6 -3 25.56 0.82
3 6 -3 25.56 0.83
-3 -6 3 24.29 0.86
-3 -6 3 25.21 0.77
-3 -6 3 24.33 0.86
-3 -6 3 25.26 0.76
2 6 -3 41.82 0.98
2 6 -3 42.22 1.11
2 6 -3 41.56 1.13
2 6 -3 41.52 1.12
-2 -6 3 42.21 0.98
-2 -6 3 43.12 0.99
-2 -6 3 40.68 1.08
1 6 -3 25.23 0.77
1 6 -3 25.86 0.61
1 6 -3 25.88 0.74
-1 -6 3 26.2 0.61
-1 -6 3 25.13 0.7
-1 -6 3 24.63 0.63
0 6 -3 35.1 0.75
0 6 -3 36.04 0.85
0 6 -3 35.49 0.84
0 6 -3 35.73 0.94
0 -6 3 35.73 0.76
0 -6 3 35.77 0.82
0 -6 3 35.39 0.83
0 -6 3 33.78 0.93
0 -6 3 35.45 0.75
-1 6 -3 72.4 1.48
-1 6 -3 71.36 1.63
-1 6 -3 73.31 1.48
-1 6 -3 70.88 1.45
-1 6 -3 72.89 1.48
1 -6 3 71.98 1.64
1 -6 3 73.98 1.46
-2 6 -3 3.79 0.2
-2 6 -3 3.81 0.29
-2 6 -3 3.55 0.29
-2 6 -3 3.76 0.19
-2 6 -3 3.76 0.29
2 -6 3 3.42 0.35
2 -6 3 3.6 0.18
2 -6 3 3.82 0.17
2 -6 3 4.11 0.35
-3 6 -3 -0.1 0.19
-3 6 -3 0.35 0.12
-3 6 -3 0.07 0.2
-3 6 -3 0.26 0.12
3 -6 3 0.42 0.11
3 -6 3 0.22 0.21
3 -6 3 0.5 0.11
3 -6 3 0.32 0.2
3 -6 3 0.46 0.25
-4 6 -3 98.52 2.04
-4 6 -3 98.92 2.06
-4 6 -3 98.25 2.22
4 -6 3 99.68 2.03
4 -6 3 100.72 2.31
4 -6 3 101.63 2.29
4 -6 3 99.32 2.02
4 -6 3 100.53 2.21
-5 6 -3 74.37 1.87
-5 6 -3 73.8 1.68
-5 6 -3 72.42 1.7
5 -6 3 74.38 1.65
5 -6 3 76.16 1.91
5 -6 3 73.38 1.79
5 -6 3 74.15 2.06
5 -6 3 74.66 1.66
-6 6 -3 2.29 0.38
6 -6 3 3.3 0.47
6 -6 3 2.56 0.37
6 -6 3 2.55 0.53
5 5 -3 60.65 1.51
5 5 -3 61.85 1.72
5 5 -3 62.54 1.69
5 5 -3 61.17 1.64
5 5 -3 61.69 1.77
-5 -5 3 62.25 1.71
-5 -5 3 62.48 1.77
-5 -5 3 61.56 1.61
4 5 -3 4.02 0.41
4 5 -3 4.7 0.47
4 5 -3 4.52 0.49
4 5 -3 4.62 0.47
4 5 -3 4.42 0.44
-4 -5 3 4.76 0.55
-4 -5 3 3.62 0.42
-4 -5 3 5.21 0.6
-4 -5 3 3.97 0.44
3 5 -3 174.55 3.55
3 5 -3 172.12 3.46
3 5 -3 171.06 3.46
3 5 -3 170.22 3.54
-3 -5 3 168.71 3.41
-3 -5 3 169.31 3.5
-3 -5 3 168.03 3.49
-3 -5 3 169.13 3.43
2 5 -3 8.39 0.43
2 5 -3 8.84 0.44
2 5 -3 9.25 0.46
2 5 -3 8.8 0.42
2 5 -3 8.51 0.35
-2 -5 3 8.33 0.42
-2 -5 3 8.18 0.34
-2 -5 3 9.29 0.44
-2 -5 3 8.86 0.35
1 5 -3 162.78 3.13
1 5 -3 165.45 3.26
-1 -5 3 166.58 3.24
-1 -5 3 164.75 3.29
-1 -5 3 159.27 3.12
-1 -5 3 161.62 3.13
0 5 -3 21.1 0.63
0 5 -3 21.76 0.57
0 5 -3 22.51 0.47
0 5 -3 21.99 0.56
0 -5 3 21.39 0.47
0 -5 3 21.84 0.55
0 -5 3 21.21 0.49
0 -5 3 20.52 0.55
-1 5 -3 1.34 0.14
-1 5 -3 1.27 0.16
-1 5 -3 1.36 0.16
-1 5 -3 1.13 0.12
-1 5 -3 1.23 0.16
1 -5 3 1.51 0.14
1 -5 3 1.16 0.18
1 -5 3 1.56 0.13
-2 5 -3 3.64 0.27
-2 5 -3 3.91 0.19
-2 5 -3 4.11 0.28
-2 5 -3 3.96 0.19
2 -5 3 3.93 0.17
2 -5 3 4.09 0.17
2 -5 3 3.74 0.32
2 -5 3 4.13 0.32
-3 5 -3 49.42 1.21
-3 5 -3 50.63 1.2
-3 5 -3 50.29 1.06
-3 5 -3 42.84 1.24
3 -5 3 51.54 1.27
3 -5 3 50.36 1.05
3 -5 3 49.5 1.2
3 -5 3 50.28 1.24
-4 5 -3 402.4 7.67
-4 5 -3 394.62 7.65
-4 5 -3 414.83 7.83
4 -5 3 411.18 7.87
4 -5 3 404.23 7.76
4 -5 3 398.09 7.62
4 -5 3 392.73 7.63
4 -5 3 397.27 7.87
-5 5 -3 35.88 1.13
-5 5 -3 35.35 1.02
-5 5 -3 34.77 1.01
5 -5 3 36.49 1.17
5 -5 3 34.67 1.03
5 -5 3 35.32 1.17
5 -5 3 34.66 0.96
5 -5 3 35.64 0.97
-6 5 -3 7.57 0.64
6 -5 3 8.22 0.73
6 -5 3 8.14 0.75
6 -5 3 8.27 0.59
5 4 -3 2.97 0.51
5 4 -3 3.28 0.46
5 4 -3 2.7 0.4
5 4 -3 2.57 0.33
5 4 -3 2.83 0.72
-5 -4 3 1.46 0.34
-5 -4 3 1.86 0.41
4 4 -3 0.25 0.21
4 4 -3 0.53 0.28
4 4 -3 0.39 0.29
4 4 -3 -0.48 0.25
4 4 -3 0.16 0.23
-4 -4 3 0.06 0.28
-4 -4 3 -0.09 0.23
-4 -4 3 0.28 0.28
-4 -4 3 -0.2 0.21
3 4 -3 52.77 1.61
3 4 -3 63.11 1.49
3 4 -3 62.53 1.44
3 4 -3 62.35 1.48
-3 -4 3 63.8 1.47
-3 -4 3 62.76 1.4
-3 -4 3 63.06 1.41
-3 -4 3 62.98 1.47
2 4 -3 137.6 2.88
2 4 -3 141.57 2.89
2 4 -3 143.56 2.84
2 4 -3 138.69 2.79
2 4 -3 142.59 2.84
-2 -4 3 141.94 2.85
-2 -4 3 142.7 2.79
-2 -4 3 141.94 2.78
-2 -4 3 143.06 2.86
1 4 -3 106.9 2.09
1 4 -3 110.77 2.22
-1 -4 3 109.16 2.1
-1 -4 3 109.94 2.19
-1 -4 3 107.17 2.09
-1 -4 3 108.09 2.22
0 4 -3 82.92 1.75
0 4 -3 84.33 1.69
0 -4 3 84.16 1.67
0 -4 3 82.16 1.75
-1 4 -3 555.46 10.4
-1 4 -3 560.53 10.4
-1 4 -3 557.4 10.4
-1 4 -3 557.3 10.4
-1 4 -3 561.46 10.41
1 -4 3 545.78 10.51
1 -4 3 563 10.39
1 -4 3 554.57 10.53
-2 4 -3 15.88 0.47
-2 4 -3 16.19 0.41
-2 4 -3 15.66 0.48
-2 4 -3 15.44 0.4
2 -4 3 13.87 0.59
2 -4 3 14.71 0.48
2 -4 3 16.46 0.39
2 -4 3 15.11 0.53
2 -4 3 15.66 0.38
-3 4 -3 10.13 0.37
-3 4 -3 9.81 0.44
-3 4 -3 9.88 0.46
-3 4 -3 10.3 0.36
3 -4 3 10.17 0.34
3 -4 3 10.1 0.48
3 -4 3 9.55 0.44
3 -4 3 9.92 0.34
3 -4 3 9.79 0.49
-4 4 -3 128.98 2.73
-4 4 -3 128.29 2.62
-4 4 -3 122.61 2.59
4 -4 3 129.12 2.77
4 -4 3 125.27 2.57
4 -4 3 129.62 2.66
4 -4 3 126.66 2.77
4 -4 3 126.83 2.58
-5 4 -3 85.47 1.94
-5 4 -3 81.82 1.91
-5 4 -3 83.46 2.03
5 -4 3 85.25 1.88
5 -4 3 84.17 2.05
5 -4 3 82.96 1.9
5 -4 3 86.12 2.08
5 -4 3 83.74 1.88
-6 4 -3 1.17 0.37
6 -4 3 1.22 0.38
6 -4 3 1.92 0.48
6 -4 3 1.39 0.34
6 3 -3 5.79 0.98
6 3 -3 3.94 0.69
6 3 -3 5.24 0.6
-6 -3 3 3.9 0.7
-6 -3 3 4.8 0.57
5 3 -3 15.06 0.58
5 3 -3 16.74 0.77
5 3 -3 16.92 0.8
5 3 -3 15.56 0.85
5 3 -3 16.02 0.76
-5 -3 3 15.18 0.79
-5 -3 3 15.4 0.73
-5 -3 3 16.13 0.81
4 3 -3 45.43 1.25
4 3 -3 44.96 1.22
4 3 -3 46.23 1.21
4 3 -3 46.34 1.07
4 3 -3 46.51 1.21
-4 -3 3 45.4 1.18
-4 -3 3 46.94 1.22
-4 -3 3 45.72 1.23
-4 -3 3 47.05 1.22
3 3 -3 14.27 0.46
3 3 -3 14.84 0.55
3 3 -3 14.32 0.57
3 3 -3 13.89 0.54
-3 -3 3 14.32 0.57
-3 -3 3 14.92 0.51
-3 -3 3 14.47 0.5
-3 -3 3 13.81 0.55
2 3 -3 536.86 11.67
2 3 -3 633.8 11.6
2 3 -3 620.14 11.52
2 3 -3 613.29 11.52
2 3 -3 618.46 11.54
-2 -3 3 626.26 11.56
-2 -3 3 621.31 11.51
-2 -3 3 636.74 11.57
-2 -3 3 613.8 11.5
1 3 -3 179.97 3.4
1 3 -3 169.93 3.42
1 3 -3 174.23 3.29
1 3 -3 172.08 3.39
-1 -3 3 172.8 3.28
-1 -3 3 172.9 3.38
-1 -3 3 178.49 3.38
-1 -3 3 171.77 3.44
-1 -3 3 171.7 3.29
0 3 -3 144.25 2.85
0 3 -3 147.65 2.82
0 -3 3 142.56 2.85
0 -3 3 146.5 2.8
-1 3 -3 0.82 0.09
-1 3 -3 0.92 0.12
-1 3 -3 0.95 0.1
-1 3 -3 1.1 0.12
1 -3 3 0.83 0.09
1 -3 3 0.86 0.13
1 -3 3 0.98 0.1
1 -3 3 0.83 0.09
1 -3 3 0.75 0.13
-2 3 -3 21.75 0.5
-2 3 -3 20.06 0.5
-2 3 -3 19.73 0.56
-2 3 -3 19.7 0.55
2 -3 3 19.75 0.57
2 -3 3 20.35 0.48
2 -3 3 20.95 0.49
2 -3 3 19.85 0.63
2 -3 3 19.71 0.58
-3 3 -3 181.9 3.51
-3 3 -3 179.73 3.6
-3 3 -3 182.9 3.62
-3 3 -3 180.53 3.52
3 -3 3 177.59 3.65
3 -3 3 179.37 3.5
3 -3 3 181.05 3.49
3 -3 3 175.73 3.57
-4 3 -3 78.42 1.79
-4 3 -3 77.28 1.71
-4 3 -3 77.32 1.7
4 -3 3 75.05 1.79
4 -3 3 76.41 1.68
4 -3 3 76.24 1.7
4 -3 3 77.03 1.82
4 -3 3 74.53 1.66
-5 3 -3 0.33 0.29
-5 3 -3 0.58 0.28
5 -3 3 0.09 0.27
5 -3 3 0.19 0.28
5 -3 3 0.45 0.3
5 -3 3 0.51 0.24
-6 3 -3 6.04 0.67
6 -3 3 5.97 0.65
6 -3 3 5.97 0.52
6 -3 3 5.86 0.92
6 -3 3 7.08 0.7
6 2 -3 -0.62 0.4
6 2 -3 -0.03 0.36
6 2 -3 -0.71 0.41
-6 -2 3 -0.07 0.37
-6 -2 3 -0.19 0.41
5 2 -3 33.63 1.09
5 2 -3 34.61 0.82
5 2 -3 34.24 1.1
5 2 -3 34.96 1.13
5 2 -3 34.71 1.09
-5 -2 3 35.97 1.14
-5 -2 3 35.87 1.1
-5 -2 3 34.65 1.08
4 2 -3 39.38 1.08
4 2 -3 40.25 1.1
4 2 -3 38.52 1.1
4 2 -3 39.79 1.08
4 2 -3 40.97 0.9
-4 -2 3 39.4 1.07
-4 -2 3 40.7 1.08
-4 -2 3 40.65 1.11
-4 -2 3 40.16 1.1
3 2 -3 41.78 1.01
3 2 -3 43.46 1.04
3 2 -3 41.39 1.04
3 2 -3 42.4 1.07
-3 -2 3 42.47 1.04
-3 -2 3 42.21 1.06
-3 -2 3 42.48 1.02
-3 -2 3 42.51 1.04
2 2 -3 186.07 3.55
2 2 -3 174.38 3.52
2 2 -3 181.55 3.56
2 2 -3 190.46 3.59
-2 -2 3 181.89 3.56
-2 -2 3 176.84 3.52
-2 -2 3 176.68 3.51
-2 -2 3 185.89 3.56
1 2 -3 522.42 9.5
1 2 -3 493.27 9.51
1 2 -3 501.68 9.45
1 2 -3 530.17 9.54
-1 -2 3 479.79 9.58
-1 -2 3 501.17 9.45
-1 -2 3 511.96 9.52
-1 -2 3 508.49 9.45
-1 -2 3 514.54 9.51
0 2 -3 198.54 3.73
0 -2 3 191.39 3.75
0 -2 3 196.07 3.71
-1 2 -3 238.25 4.48
-1 2 -3 238.1 4.49
-1 2 -3 239.17 4.49
1 -2 3 237.31 4.56
1 -2 3 233.45 4.49
1 -2 3 234 4.48
1 -2 3 238.19 4.54
-2 2 -3 0.95 0.14
-2 2 -3 1.29 0.16
-2 2 -3 1 0.14
2 -2 3 1.09 0.14
2 -2 3 0.96 0.11
2 -2 3 1.37 0.18
2 -2 3 1.19 0.16
-3 2 -3 81.69 1.79
-3 2 -3 81.57 1.73
-3 2 -3 83.56 1.81
3 -2 3 83.05 1.71
3 -2 3 82.12 1.82
3 -2 3 79.99 1.84
-4 2 -3 36.86 1.03
-4 2 -3 36.59 0.99
4 -2 3 36.2 0.95
4 -2 3 36.23 1.02
4 -2 3 35.56 0.95
4 -2 3 36.31 1.05
-5 2 -3 -0.3 0.27
5 -2 3 -0.05 0.23
5 -2 3 0.39 0.28
5 -2 3 0.31 0.32
5 -2 3 -0.01 0.41
-6 2 -3 9.31 0.76
6 -2 3 10.18 0.73
6 -2 3 10.24 0.71
6 -2 3 10.29 0.68
6 1 -3 0.01 0.4
6 1 -3 -1 0.36
6 1 -3 0 0.35
-6 -1 3 0.24 0.39
-6 -1 3 0.04 0.39
5 1 -3 2.69 0.54
5 1 -3 2.82 0.42
5 1 -3 2.74 0.37
5 1 -3 2.37 0.37
-5 -1 3 2.98 0.41
-5 -1 3 2.83 0.39
4 1 -3 25.2 0.81
4 1 -3 25.18 0.78
4 1 -3 24.31 0.78
4 1 -3 25.97 0.82
-4 -1 3 25.56 0.79
-4 -1 3 26.38 0.82
-4 -1 3 25.57 0.81
-4 -1 3 24.81 0.79
3 1 -3 205.11 4.04
3 1 -3 209.81 4.03
3 1 -3 201.7 3.87
-3 -1 3 204.87 4.04
-3 -1 3 199.41 4.03
-3 -1 3 211.57 4.02
-3 -1 3 201.75 4.05
2 1 -3 320.09 5.89
2 1 -3 304.43 5.85
2 1 -3 301.42 5.87
2 1 -3 315.9 5.86
-2 -1 3 305.48 5.86
-2 -1 3 299.43 5.86
-2 -1 3 308.78 5.87
-2 -1 3 307.62 5.86
0 1 -3 25.82 0.59
0 1 -3 25.64 0.54
0 -1 3 27.19 0.55
0 -1 3 26.22 0.6
0 -1 3 25.61 0.58
-1 1 -3 537.35 9.97
-1 1 -3 539.82 9.97
-1 1 -3 538.53 9.96
1 -1 3 535.86 9.97
1 -1 3 521.21 9.99
1 -1 3 522.39 10
-2 1 -3 398.81 7.39
-2 1 -3 390.1 7.38
-2 1 -3 391.95 7.36
2 -1 3 385.68 7.39
2 -1 3 381.66 7.37
2 -1 3 383.56 7.41
2 -1 3 388.39 7.34
-3 1 -3 12.55 0.47
-3 1 -3 13.51 0.51
-3 1 -3 13.05 0.49
3 -1 3 12.42 0.47
3 -1 3 13.48 0.52
3 -1 3 13.45 0.45
-4 1 -3 1.08 0.26
-4 1 -3 1.44 0.26
4 -1 3 1.25 0.25
4 -1 3 1.11 0.23
4 -1 3 0.89 0.25
4 -1 3 1.03 0.22
-5 1 -3 0.53 0.32
-5 1 -3 0.44 0.29
5 -1 3 0.98 0.3
5 -1 3 0.59 0.34
5 -1 3 0.05 0.25
5 -1 3 1.1 0.33
-6 1 -3 -0.3 0.39
6 -1 3 -0.03 0.35
6 -1 3 0.3 0.35
6 -1 3 0.37 0.39
6 0 -3 10.48 0.74
6 0 -3 11.22 0.73
6 0 -3 10.51 0.76
-6 0 3 11.31 0.77
-6 0 3 11 0.79
5 0 -3 107.4 2.38
5 0 -3 104.32 2.46
5 0 -3 110.9 2.42
-5 0 3 107.78 2.42
-5 0 3 111.03 2.47
4 0 -3 -0.02 0.24
4 0 -3 0.06 0.19
4 0 -3 -0.22 0.17
-4 0 3 0.21 0.2
-4 0 3 -0.26 0.2
-4 0 3 -0.19 0.21
3 0 -3 0.04 0.13
3 0 -3 0.16 0.14
-3 0 3 0.1 0.14
-3 0 3 0.09 0.14
-3 0 3 0.12 0.14
2 0 -3 42.23 0.92
2 0 -3 41.06 0.95
2 0 -3 40.09 0.95
-2 0 3 41.93 0.93
-2 0 3 42.33 0.95
-2 0 3 41.89 0.94
1 0 -3 151.01 2.94
1 0 -3 157.67 3.01
1 0 -3 158.83 2.99
1 0 -3 153.78 2.99
1 0 -3 153.59 3
-1 0 3 154.3 2.96
-1 0 3 159.81 3
-1 0 3 159.7 3
-1 0 3 155.19 2.99
0 0 3 668.09 12.46
-1 0 -3 680.85 12.98
-1 0 -3 676.96 12.99
-1 0 -3 720.18 12.96
1 0 3 675.65 12.99
1 0 3 721.3 12.98
-2 0 -3 159.12 3.11
-2 0 -3 161.41 3.14
-2 0 -3 157.94 3.12
2 0 3 154.71 3.14
2 0 3 161.53 3.09
2 0 3 159.07 3.11
2 0 3 156.42 3.24
2 0 3 151.3 3.13
-3 0 -3 117.5 2.45
-3 0 -3 114.56 2.43
-3 0 -3 115.86 2.42
3 0 3 116.17 2.39
-4 0 -3 14.02 0.93
-4 0 -3 14.25 0.61
4 0 3 10.96 0.83
4 0 3 14.08 0.62
4 0 3 14.63 0.56
4 0 3 14.05 0.58
-5 0 -3 1.47 0.35
-5 0 -3 1.43 0.34
5 0 3 1.16 0.34
5 0 3 1.5 0.34
5 0 3 1.55 0.37
5 0 3 1.37 0.29
-6 0 -3 0.31 0.44
6 0 3 1.8 0.38
6 0 3 0.77 0.41
6 0 3 1.51 0.54
6 -1 -3 5.78 0.66
6 -1 -3 5.69 0.62
6 -1 -3 6.1 0.62
-6 1 3 6.17 0.66
-6 1 3 5.34 0.68
5 -1 -3 48.04 1.36
5 -1 -3 47.01 1.25
5 -1 -3 49.06 1.29
-5 1 3 48.22 1.29
-5 1 3 48.28 1.34
4 -1 -3 1.94 0.26
4 -1 -3 2.05 0.3
4 -1 -3 2.47 0.3
-4 1 3 2.45 0.29
-4 1 3 2.69 0.3
-4 1 3 2.49 0.33
3 -1 -3 12.05 0.42
3 -1 -3 12.28 0.41
-3 1 3 12.23 0.43
2 -1 -3 41.26 0.87
2 -1 -3 41.26 0.95
2 -1 -3 41.63 0.9
-2 1 3 41.86 0.91
-2 1 3 40.92 0.96
1 -1 -3 54.76 1.17
1 -1 -3 54.84 1.16
1 -1 -3 55.02 1.1
-1 1 3 54.24 1.09
-1 1 3 53.92 1.15
-1 1 3 54.77 1.11
0 -1 -3 71.5 1.42
0 -1 -3 70.98 1.41
0 1 3 68.62 1.37
0 1 3 71.02 1.44
0 1 3 67.75 1.42
0 1 3 74.45 1.41
0 1 3 71.4 1.42
-2 -1 -3 370.17 6.86
-2 -1 -3 311.52 6.93
-2 -1 -3 370.96 6.8
-2 -1 -3 361.3 6.83
2 1 3 346.46 6.84
2 1 3 354 6.86
2 1 3 349.87 6.81
2 1 3 384.81 6.83
2 1 3 367.28 6.81
-3 -1 -3 73.84 1.68
-3 -1 -3 75.88 1.7
-3 -1 -3 76.08 1.64
-3 -1 -3 75.03 1.68
3 1 3 75.62 1.65
3 1 3 75.53 1.64
3 1 3 72.15 1.69
3 1 3 75.08 1.66
-4 -1 -3 14.44 0.64
-4 -1 -3 16.03 0.7
-4 -1 -3 14.92 0.65
4 1 3 13.87 0.56
4 1 3 14.52 0.58
4 1 3 14.45 0.63
4 1 3 15.16 0.66
4 1 3 14.28 0.64
-5 -1 -3 23.22 0.92
-5 -1 -3 24.36 0.97
5 1 3 24.05 0.83
5 1 3 25.1 0.92
5 1 3 23.11 0.88
5 1 3 25.8 0.97
5 1 3 23.52 0.93
-6 -1 -3 5.87 0.62
6 1 3 5.81 0.61
6 1 3 5.57 0.67
6 1 3 6.81 0.91
6 -2 -3 9.42 0.7
6 -2 -3 10.21 0.66
6 -2 -3 8.94 0.72
-6 2 3 10.22 0.69
-6 2 3 9.74 0.74
5 -2 -3 5.06 0.47
5 -2 -3 4.69 0.49
5 -2 -3 5.3 0.45
-5 2 3 5.57 0.49
-5 2 3 4.81 0.5
4 -2 -3 0.88 0.21
4 -2 -3 0.87 0.27
4 -2 -3 0.92 0.2
-4 2 3 0.51 0.23
-4 2 3 0.57 0.19
-4 2 3 0.73 0.28
3 -2 -3 17.39 0.51
3 -2 -3 17.91 0.51
-3 2 3 18.44 0.6
-3 2 3 17.95 0.59
-3 2 3 18.28 0.52
2 -2 -3 3.09 0.24
2 -2 -3 3.64 0.18
-2 2 3 2.88 0.24
-2 2 3 3.16 0.24
-2 2 3 3.25 0.14
-2 2 3 3.07 0.19
1 -2 -3 7.44 0.29
1 -2 -3 7.23 0.28
-1 2 3 7.24 0.24
0 -2 -3 0.85 0.09
0 2 3 0.66 0.09
0 2 3 0.78 0.11
0 2 3 0.9 0.12
0 2 3 0.77 0.08
-1 -2 -3 2.43 0.21
-1 -2 -3 2.33 0.18
-1 -2 -3 2.18 0.19
1 2 3 2.05 0.19
1 2 3 2.32 0.19
1 2 3 2.65 0.21
1 2 3 2.32 0.19
-2 -2 -3 32 0.83
-2 -2 -3 30.68 0.78
-2 -2 -3 30.85 0.81
-2 -2 -3 30.75 0.81
2 2 3 31.57 0.79
2 2 3 31.74 0.81
2 2 3 30.97 0.82
-3 -2 -3 1.46 0.25
-3 -2 -3 1.26 0.23
-3 -2 -3 1.2 0.21
-3 -2 -3 0.84 0.2
3 2 3 1.36 0.21
3 2 3 1.24 0.23
3 2 3 1.52 0.24
3 2 3 1.54 0.24
-4 -2 -3 6.93 0.53
-4 -2 -3 4.77 0.45
-4 -2 -3 6.01 0.51
4 2 3 4.67 0.48
4 2 3 5.74 0.53
4 2 3 6.2 0.44
4 2 3 5.85 0.48
-5 -2 -3 12.91 0.82
-5 -2 -3 13.26 0.71
-5 -2 -3 13.26 0.8
5 2 3 13.7 0.78
5 2 3 13.16 0.76
5 2 3 11.78 0.65
5 2 3 13.87 0.7
5 2 3 14.03 0.8
-6 -2 -3 -0.27 0.48
6 2 3 0.62 0.47
6 2 3 0.36 0.44
6 2 3 0.1 0.38
6 -3 -3 48.45 1.37
6 -3 -3 48.2 1.49
6 -3 -3 47.72 1.31
-6 3 3 50.79 1.56
-6 3 3 46.6 1.35
5 -3 -3 83.64 1.87
5 -3 -3 80.74 1.98
-5 3 3 80.75 2
4 -3 -3 17.96 0.6
4 -3 -3 19.99 0.6
4 -3 -3 18.83 0.57
4 -3 -3 17.68 0.69
-4 3 3 18.3 0.59
-4 3 3 19.33 0.7
-4 3 3 17.99 0.63
3 -3 -3 312 5.89
3 -3 -3 298.28 5.88
3 -3 -3 310.61 5.88
-3 3 3 308.96 5.9
-3 3 3 315.66 5.9
-3 3 3 302.97 5.79
-3 3 3 318.32 6.06
2 -3 -3 27.45 0.6
2 -3 -3 27.58 0.62
2 -3 -3 27.86 0.61
2 -3 -3 22.48 0.92
-2 3 3 27.87 0.62
-2 3 3 26.93 0.88
-2 3 3 27.85 0.64
-2 3 3 28.17 0.62
1 -3 -3 2.37 0.15
1 -3 -3 2.2 0.21
1 -3 -3 2.24 0.13
1 -3 -3 2.14 0.2
-1 3 3 2.43 0.11
-1 3 3 2.89 0.17
-1 3 3 2.23 0.2
-1 3 3 2.29 0.18
-1 3 3 2.42 0.14
-1 3 3 2.44 0.13
0 -3 -3 102.93 2.11
0 -3 -3 103.77 2.13
0 -3 -3 103.52 2.04
0 3 3 105.15 2.03
0 3 3 103.29 2.1
0 3 3 102.36 2.12
0 3 3 105.79 2.06
-1 -3 -3 977.61 17.65
-1 -3 -3 952.01 17.62
1 3 3 945.19 17.65
1 3 3 976.27 17.63
1 3 3 916.68 17.66
1 3 3 895.01 17.68
-2 -3 -3 1.11 0.18
-2 -3 -3 0.97 0.18
-2 -3 -3 0.98 0.2
-2 -3 -3 1.1 0.18
2 3 3 1.21 0.2
2 3 3 1.3 0.19
2 3 3 1.51 0.21
2 3 3 1.11 0.19
-3 -3 -3 161.01 3.28
-3 -3 -3 156.52 3.25
-3 -3 -3 153.14 3.25
-3 -3 -3 157.73 3.21
3 3 3 156.18 3.27
3 3 3 154.57 3.21
3 3 3 159.05 3.26
3 3 3 156.62 3.21
-4 -3 -3 30.22 0.98
-4 -3 -3 30.86 1.05
-4 -3 -3 29.92 0.98
4 3 3 32.05 0.99
4 3 3 31.42 1.02
4 3 3 30.98 1.03
4 3 3 30.68 0.94
-5 -3 -3 1.95 0.45
-5 -3 -3 3.42 0.44
-5 -3 -3 2.08 0.47
5 3 3 3.26 0.47
5 3 3 3.01 0.51
5 3 3 2.63 0.46
5 3 3 3.17 0.43
5 3 3 3.37 0.4
6 -4 -3 -0.09 0.32
6 -4 -3 0.08 0.43
6 -4 -3 -0.22 0.27
-6 4 3 0.21 0.29
5 -4 -3 0.62 0.26
5 -4 -3 0.03 0.25
5 -4 -3 0.66 0.34
5 -4 -3 1.01 0.24
-5 4 3 0.21 0.31
-5 4 3 0.53 0.31
-5 4 3 0.84 0.24
4 -4 -3 20.09 0.62
4 -4 -3 19.21 0.57
4 -4 -3 19.67 0.59
4 -4 -3 19.63 0.72
-4 4 3 19.49 0.6
-4 4 3 19.15 0.62
-4 4 3 19.81 0.75
3 -4 -3 44.47 1
3 -4 -3 44.92 0.97
3 -4 -3 45.59 1.15
3 -4 -3 44.91 0.98
-3 4 3 44.3 0.99
-3 4 3 45.43 1
-3 4 3 44.62 1.17
2 -4 -3 239.99 4.57
2 -4 -3 239.08 4.76
2 -4 -3 240.27 4.74
2 -4 -3 243.6 4.58
-2 4 3 239.14 4.58
-2 4 3 241.23 4.6
-2 4 3 250.47 4.64
1 -4 -3 98.17 1.9
1 -4 -3 97.73 1.9
1 -4 -3 96.84 2.04
1 -4 -3 96.31 2.03
-1 4 3 96.59 1.91
-1 4 3 98.1 1.98
-1 4 3 96.42 1.89
-1 4 3 99.89 1.92
-1 4 3 92.96 2.03
0 -4 -3 53.85 1.21
0 -4 -3 52.71 1.11
0 -4 -3 52.91 1.2
0 4 3 49.71 1.19
0 4 3 53.28 1.13
0 4 3 53.2 1.12
-1 -4 -3 53.8 1.26
-1 -4 -3 55.26 1.21
-1 -4 -3 57.26 1.29
1 4 3 54.91 1.23
1 4 3 53.98 1.26
1 4 3 53.7 1.22
-2 -4 -3 4.47 0.33
-2 -4 -3 4.53 0.37
-2 -4 -3 4.9 0.33
-2 -4 -3 4.82 0.34
2 4 3 4.31 0.34
2 4 3 4.3 0.33
2 4 3 4.5 0.37
2 4 3 4.96 0.36
-3 -4 -3 11.79 0.61
-3 -4 -3 11.52 0.55
-3 -4 -3 11.83 0.55
3 4 3 12.15 0.57
3 4 3 11.93 0.6
3 4 3 12.03 0.55
-4 -4 -3 100.94 2.35
-4 -4 -3 99.26 2.37
-4 -4 -3 104.24 2.34
4 4 3 101.64 2.29
4 4 3 101.93 2.33
4 4 3 101.25 2.39
4 4 3 102.47 2.37
-5 -4 -3 7.84 0.71
-5 -4 -3 8.94 0.85
-5 -4 -3 8.53 0.91
5 4 3 9.16 0.62
5 4 3 10.32 0.86
5 4 3 9.74 0.68
5 4 3 8.97 0.81
5 4 3 8.31 0.87
6 -5 -3 9.52 0.75
6 -5 -3 9.75 0.58
6 -5 -3 10.44 0.68
-6 5 3 9.83 0.59
5 -5 -3 4.9 0.39
5 -5 -3 5.57 0.48
5 -5 -3 5.19 0.56
5 -5 -3 6.43 0.46
-5 5 3 5.28 0.51
-5 5 3 4.95 0.42
-5 5 3 5.17 0.56
4 -5 -3 5.51 0.38
4 -5 -3 4.99 0.32
4 -5 -3 5.87 0.47
4 -5 -3 6.08 0.32
-4 5 3 5.58 0.31
-4 5 3 5.53 0.35
-4 5 3 6.6 0.38
-4 5 3 7.03 0.5
3 -5 -3 41.52 1.1
3 -5 -3 39.16 0.88
3 -5 -3 40.5 0.94
3 -5 -3 41.36 0.89
-3 5 3 41.51 0.91
-3 5 3 41.67 1.12
-3 5 3 39.56 0.92
-3 5 3 40 0.93
2 -5 -3 32.28 0.89
2 -5 -3 31.82 0.69
2 -5 -3 32.88 0.7
2 -5 -3 31.21 0.87
-2 5 3 31.57 0.73
-2 5 3 30.86 0.79
-2 5 3 31.92 0.71
1 -5 -3 113.62 2.23
1 -5 -3 114.12 2.39
1 -5 -3 116.22 2.38
1 -5 -3 117.61 2.24
-1 5 3 114.06 2.25
-1 5 3 115.87 2.25
-1 5 3 102.63 2.47
-1 5 3 119.08 2.26
0 -5 -3 373.18 7.09
0 -5 -3 361.04 6.95
0 -5 -3 368.77 7.07
0 5 3 366.18 6.98
0 5 3 363.95 6.98
0 5 3 371.93 7.07
-1 -5 -3 153.07 3.12
-1 -5 -3 151.28 3.03
-1 -5 -3 149.29 3.1
1 5 3 151.92 3.11
1 5 3 153.37 3.07
1 5 3 152.54 3.06
-2 -5 -3 66.05 1.54
-2 -5 -3 67.57 1.58
-2 -5 -3 65.08 1.55
-2 -5 -3 66.24 1.51
2 5 3 65.87 1.55
2 5 3 66.05 1.5
2 5 3 65.44 1.54
2 5 3 64 1.55
-3 -5 -3 310.38 6.08
-3 -5 -3 312.47 6.11
-3 -5 -3 298.87 6.09
3 5 3 305.49 6.12
3 5 3 307.09 6.06
3 5 3 311.92 6.13
3 5 3 307.91 6.09
-4 -5 -3 0.58 0.38
-4 -5 -3 -0.29 0.4
-4 -5 -3 0.47 0.31
4 5 3 0.7 0.31
4 5 3 0.27 0.39
4 5 3 0.78 0.38
4 5 3 0.4 0.31
-5 -5 -3 4.38 0.61
-5 -5 -3 4.34 0.85
5 5 3 5.03 0.68
5 5 3 5.2 0.61
5 5 3 5.82 0.64
6 -6 -3 3.32 0.35
6 -6 -3 4.5 0.57
6 -6 -3 3.73 0.47
-6 6 3 4.03 0.39
5 -6 -3 3.01 0.45
5 -6 -3 2.76 0.3
5 -6 -3 2.4 0.26
5 -6 -3 3 0.36
-5 6 3 2.35 0.24
-5 6 3 2.15 0.32
-5 6 3 2.44 0.42
-5 6 3 2.53 0.29
4 -6 -3 0.53 0.16
4 -6 -3 0.61 0.16
4 -6 -3 0.85 0.21
4 -6 -3 0.96 0.31
-4 6 3 0.85 0.17
-4 6 3 0.61 0.19
-4 6 3 1.23 0.22
-4 6 3 0.72 0.27
3 -6 -3 28.31 0.64
3 -6 -3 27.74 0.64
3 -6 -3 27.12 0.86
-3 6 3 28.29 0.67
-3 6 3 27.96 0.65
-3 6 3 25.26 0.99
2 -6 -3 1 0.11
2 -6 -3 1.08 0.21
2 -6 -3 0.76 0.22
2 -6 -3 1.58 0.16
-2 6 3 1.04 0.13
-2 6 3 0.97 0.2
-2 6 3 1.08 0.14
-2 6 3 1.06 0.17
1 -6 -3 125.65 2.43
1 -6 -3 124.07 2.61
1 -6 -3 122.34 2.42
1 -6 -3 122.07 2.59
-1 6 3 123.28 2.44
-1 6 3 126.35 2.46
-1 6 3 122.26 2.57
-1 6 3 124.95 2.48
0 -6 -3 116.36 2.31
0 -6 -3 118.04 2.45
0 -6 -3 113.96 2.42
0 6 3 115.67 2.33
0 6 3 108.74 2.46
0 6 3 115.46 2.43
-1 -6 -3 16.83 0.63
-1 -6 -3 16.63 0.6
-1 -6 -3 16.21 0.56
1 6 3 16.3 0.58
1 6 3 16.3 0.58
-2 -6 -3 58.12 1.42
-2 -6 -3 56.67 1.44
-2 -6 -3 59.11 1.44
2 6 3 58.21 1.46
2 6 3 58.57 1.44
2 6 3 57.57 1.44
2 6 3 58.4 1.42
-3 -6 -3 39.75 1.15
-3 -6 -3 38.29 1.18
-3 -6 -3 37.27 1.3
3 6 3 37.19 1.71
3 6 3 38.83 1.15
3 6 3 41.22 1.19
3 6 3 39.3 1.15
-4 -6 -3 40.35 1.26
-4 -6 -3 38.13 1.36
-4 -6 -3 36.55 1.32
4 6 3 37.2 1.26
4 6 3 40.83 1.29
4 6 3 38.71 1.34
4 6 3 40.77 1.23
5 -7 -3 -0.24 0.19
5 -7 -3 -0.05 0.29
5 -7 -3 -0.13 0.34
5 -7 -3 -0.14 0.23
-5 7 3 0.06 0.25
-5 7 3 -0.31 0.2
-5 7 3 0.08 0.37
-5 7 3 -0.11 0.25
4 -7 -3 10.19 0.39
4 -7 -3 11.07 0.62
4 -7 -3 9.9 0.51
-4 7 3 10.86 0.51
-4 7 3 10.22 0.43
3 -7 -3 1.26 0.14
3 -7 -3 1.22 0.28
3 -7 -3 1.13 0.14
-3 7 3 0.93 0.16
-3 7 3 1.74 0.25
-3 7 3 1.23 0.34
2 -7 -3 6.37 0.45
2 -7 -3 6.52 0.28
2 -7 -3 6.19 0.26
2 -7 -3 6.78 0.51
-2 7 3 6.77 0.3
-2 7 3 6.33 0.28
-2 7 3 6.34 0.44
-2 7 3 6 0.35
1 -7 -3 303.13 5.92
1 -7 -3 311.02 5.93
1 -7 -3 314.57 6.12
1 -7 -3 315.21 6.14
-1 7 3 307.65 5.95
-1 7 3 314.08 5.96
-1 7 3 317.73 6.11
0 -7 -3 15.88 0.61
0 -7 -3 16.66 0.52
0 -7 -3 17.21 0.81
0 -7 -3 16.74 0.63
0 7 3 16.56 0.55
0 7 3 16.46 0.63
0 7 3 16.72 0.58
-1 -7 -3 6.71 0.4
-1 -7 -3 7.03 0.45
-1 -7 -3 7.92 0.5
1 7 3 6.23 0.44
1 7 3 6.63 0.44
1 7 3 7.52 0.49
-2 -7 -3 7.1 0.51
-2 -7 -3 6.11 0.48
2 7 3 6.72 0.52
2 7 3 6.93 0.51
2 7 3 6.51 0.52
-3 -7 -3 6.84 0.57
-3 -7 -3 6.59 0.63
-3 -7 -3 7.02 0.7
3 7 3 7.38 0.59
3 7 3 7.37 0.6
3 7 3 7.38 0.69
3 7 3 6.86 0.7
-4 -7 -3 37.11 1.32
-4 -7 -3 36.2 1.25
4 7 3 36.67 1.37
4 7 3 36.62 1.25
5 -8 -3 15.55 0.54
5 -8 -3 15.72 0.59
5 -8 -3 16.24 0.84
5 -8 -3 14.85 0.74
-5 8 3 16.29 1.33
-5 8 3 14.78 0.61
-5 8 3 16.05 0.7
-5 8 3 15.84 0.57
4 -8 -3 8.7 0.38
4 -8 -3 8.85 0.35
4 -8 -3 8.77 0.63
-4 8 3 9.12 0.42
-4 8 3 9.4 0.38
-4 8 3 9.1 0.52
-4 8 3 9.01 0.55
3 -8 -3 9.43 0.34
3 -8 -3 10.55 0.53
3 -8 -3 10.25 0.6
3 -8 -3 10.09 0.33
-3 8 3 10.97 0.56
-3 8 3 10.15 0.38
-3 8 3 10.26 0.36
-3 8 3 10.14 0.5
2 -8 -3 27.79 0.69
2 -8 -3 29.16 0.68
2 -8 -3 29.25 0.92
-2 8 3 28.66 0.89
-2 8 3 26.97 0.8
-2 8 3 28.2 0.7
-2 8 3 27.68 0.71
1 -8 -3 35.1 0.86
1 -8 -3 35.64 0.84
1 -8 -3 34.44 1.03
-1 8 3 35.55 0.94
-1 8 3 34.63 0.89
-1 8 3 34.97 0.86
-1 8 3 36.15 1.04
0 -8 -3 6.9 0.43
0 -8 -3 6.61 0.48
0 -8 -3 6.72 0.37
0 8 3 7.43 0.51
0 8 3 6.82 0.44
0 8 3 7.22 0.41
0 8 3 6.09 0.48
-1 -8 -3 7.98 0.52
-1 -8 -3 8.29 0.48
1 8 3 7.71 0.54
1 8 3 7.66 0.51
1 8 3 8.02 0.51
-2 -8 -3 6.12 0.53
-2 -8 -3 5.77 0.52
2 8 3 6.72 0.55
2 8 3 6.97 0.58
2 8 3 6.99 0.59
-3 -8 -3 4.26 0.56
-3 -8 -3 4.06 0.47
3 8 3 4.4 0.91
3 8 3 3.5 0.47
3 8 3 4 0.48
-4 -8 -3 15.68 1.03
4 8 3 14.2 1.09
5 -9 -3 8.44 0.48
5 -9 -3 8.87 0.79
5 -9 -3 8.49 0.42
-5 9 3 8 0.51
-5 9 3 8.19 0.42
-5 9 3 9.01 0.69
-5 9 3 9.68 0.68
4 -9 -3 1.32 0.38
-4 9 3 1.72 0.34
-4 9 3 2.06 0.36
-4 9 3 1.36 0.19
3 -9 -3 51.35 1.08
3 -9 -3 51.88 1.3
3 -9 -3 49.82 1.09
3 -9 -3 51.99 1.43
-3 9 3 49.12 1.11
-3 9 3 50.58 1.27
-3 9 3 50.81 1.11
-3 9 3 51.27 1.35
2 -9 -3 246.04 4.99
2 -9 -3 244.36 4.71
-2 9 3 244.98 4.84
-2 9 3 246.83 4.96
-2 9 3 244.65 4.73
1 -9 -3 0.19 0.21
1 -9 -3 0.44 0.28
1 -9 -3 0.01 0.25
-1 9 3 0.28 0.24
-1 9 3 0.08 0.23
-1 9 3 0.39 0.29
0 -9 -3 0.51 0.26
0 -9 -3 0.5 0.26
0 -9 -3 0.55 0.26
0 9 3 0.3 0.27
0 9 3 0.55 0.27
0 9 3 0.15 0.28
0 9 3 0.92 0.31
-1 -9 -3 0.25 0.25
-1 -9 -3 0.5 0.27
1 9 3 0.97 0.3
1 9 3 0.63 0.3
1 9 3 0.11 0.3
-2 -9 -3 5.27 0.56
-2 -9 -3 5.59 0.59
2 9 3 5.47 0.58
2 9 3 3.91 0.48
2 9 3 5.07 0.63
-3 -9 -3 9.36 0.77
-3 -9 -3 7.69 0.77
3 9 3 7.9 0.83
4 -10 -3 1.67 0.46
4 -10 -3 1.61 0.22
4 -10 -3 1.89 0.19
-4 10 3 1.95 0.42
-4 10 3 1.73 0.2
-4 10 3 1.59 0.38
-4 10 3 1.96 0.25
3 -10 -3 47.71 1.05
3 -10 -3 47.42 1.41
3 -10 -3 50.44 1.26
3 -10 -3 46.37 1.06
-3 10 3 47.79 1.08
-3 10 3 50.48 1.38
-3 10 3 48.03 1.27
-3 10 3 45.45 1.11
2 -10 -3 74.67 1.59
2 -10 -3 77.09 1.89
2 -10 -3 75.03 1.61
-2 10 3 76.36 1.64
-2 10 3 75.47 1.76
-2 10 3 73.78 1.62
-2 10 3 78.06 1.9
1 -10 -3 1.48 0.27
1 -10 -3 2.42 0.39
1 -10 -3 1.7 0.24
-1 10 3 2.25 0.35
-1 10 3 2.3 0.28
-1 10 3 1.71 0.39
-1 10 3 1.87 0.32
0 -10 -3 9.63 0.64
0 -10 -3 10.15 0.53
0 10 3 9.55 0.56
0 10 3 9.12 0.95
0 10 3 9.88 0.68
0 10 3 9.83 0.63
-1 -10 -3 2.14 0.38
-1 -10 -3 1.07 0.3
1 10 3 2 0.4
1 10 3 1.35 0.35
1 10 3 1.27 0.41
-2 -10 -3 0.19 0.36
-2 -10 -3 -0.07 0.35
2 10 3 0.25 0.38
2 10 3 0.15 0.43
3 -11 -3 6.66 0.73
3 -11 -3 6.02 0.35
3 -11 -3 6 0.4
3 -11 -3 6.74 0.62
-3 11 3 6.06 0.37
-3 11 3 6.12 0.43
-3 11 3 6.59 0.75
-3 11 3 7.67 0.62
2 -11 -3 21.61 0.92
2 -11 -3 19.78 0.62
2 -11 -3 20.7 0.68
-2 11 3 20.53 0.72
-2 11 3 21.46 0.99
-2 11 3 20.27 0.83
-2 11 3 20.23 0.67
1 -11 -3 0.88 0.23
1 -11 -3 0.65 0.35
-1 11 3 1.71 0.38
-1 11 3 0.67 0.38
-1 11 3 0.76 0.43
-1 11 3 0.63 0.25
0 -11 -3 3.16 0.35
0 -11 -3 3.52 0.44
0 11 3 2.95 0.37
0 11 3 3.18 0.45
-1 -11 -3 5.88 0.67
-1 -11 -3 5.53 0.58
1 11 3 5.67 0.59
1 11 3 5.7 0.65
1 -12 -3 15.09 0.87
1 -12 -3 14.44 0.63
-1 12 3 15.96 0.87
-1 12 3 13 0.66
0 12 -4 5.74 0.56
0 12 -4 5.25 0.59
0 -12 4 4.96 0.52
-1 12 -4 1.69 0.3
-1 12 -4 1.57 0.41
1 -12 4 1.84 0.31
-2 12 -4 1.66 0.27
-2 12 -4 2.42 0.46
2 -12 4 1.61 0.28
2 -12 4 1.69 0.27
2 11 -4 1.08 0.42
2 11 -4 0.9 0.39
-2 -11 4 0.22 0.36
1 11 -4 45.69 1.19
1 11 -4 41.25 1.27
-1 -11 4 42.48 1.24
0 11 -4 1.83 0.47
0 11 -4 1.23 0.3
0 11 -4 1.79 0.3
0 11 -4 2.11 0.35
0 11 -4 1.54 0.45
0 -11 4 1.37 0.3
0 -11 4 1.75 0.25
-1 11 -4 4.74 0.45
-1 11 -4 4.02 0.43
-1 11 -4 5.11 0.53
-1 11 -4 4.47 0.53
-1 11 -4 5.39 0.52
-1 11 -4 4.8 0.43
1 -11 4 4.25 0.46
1 -11 4 4.81 0.42
-2 11 -4 1.84 0.33
-2 11 -4 1.24 0.25
-2 11 -4 2.13 0.4
-2 11 -4 1.57 0.47
-2 11 -4 1.5 0.27
-2 11 -4 1.73 0.34
2 -11 4 1.26 0.24
2 -11 4 1.52 0.26
-3 11 -4 2.69 0.26
-3 11 -4 2.43 0.26
-3 11 -4 2.62 0.41
-3 11 -4 2.38 0.52
3 -11 4 2.85 0.31
3 -11 4 2.41 0.25
3 -11 4 3.04 0.46
3 10 -4 1.04 0.45
3 10 -4 0.78 0.45
-3 -10 4 0.71 0.42
-3 -10 4 1.11 0.33
2 10 -4 -0.2 0.35
2 10 -4 0.06 0.36
2 10 -4 0.04 0.33
-2 -10 4 -0.43 0.3
-2 -10 4 0.32 0.25
-2 -10 4 0.46 0.27
1 10 -4 0.08 0.31
1 10 -4 0.36 0.34
1 10 -4 -0.1 0.26
1 10 -4 -0.08 0.3
1 10 -4 0.36 0.21
-1 -10 4 0.07 0.22
-1 -10 4 0.26 0.22
-1 -10 4 0.12 0.26
0 10 -4 3.75 0.34
0 10 -4 4.26 0.44
0 10 -4 3.66 0.4
0 10 -4 3.77 0.43
0 10 -4 3.69 0.34
0 10 -4 2.91 0.4
0 10 -4 3.66 0.47
0 -10 4 4.16 0.34
0 -10 4 4.11 0.46
0 -10 4 4.58 0.41
-1 10 -4 18.67 0.64
-1 10 -4 18.54 0.83
-1 10 -4 18.28 0.65
-1 10 -4 18.27 0.58
-1 10 -4 17.61 0.59
-1 10 -4 17.59 0.59
1 -10 4 18.08 0.61
1 -10 4 18.86 0.85
1 -10 4 18.34 0.61
-2 10 -4 36.48 0.92
-2 10 -4 39.39 1.25
-2 10 -4 38.82 1.01
-2 10 -4 37.6 0.94
-2 10 -4 37.68 1
2 -10 4 40.2 1.26
2 -10 4 37.72 0.91
2 -10 4 37.95 0.92
-3 10 -4 5.5 0.58
-3 10 -4 5.54 0.35
-3 10 -4 5.71 0.59
-3 10 -4 5.78 0.53
3 -10 4 5.64 0.33
3 -10 4 6.29 0.59
3 -10 4 5.9 0.57
-4 10 -4 2.34 0.44
-4 10 -4 2.47 0.26
-4 10 -4 2.19 0.24
4 -10 4 2.95 0.32
4 -10 4 1.86 0.44
4 -10 4 2.18 0.21
4 -10 4 2.8 0.51
3 9 -4 7.76 0.65
3 9 -4 7.77 0.79
3 9 -4 8.6 0.73
-3 -9 4 6.94 0.71
-3 -9 4 7.9 0.56
-3 -9 4 7.96 0.56
2 9 -4 -0.02 0.33
2 9 -4 0.09 0.34
2 9 -4 0.44 0.33
2 9 -4 0.47 0.25
2 9 -4 0.76 0.29
-2 -9 4 0.28 0.29
-2 -9 4 0.78 0.24
-2 -9 4 0.86 0.24
1 9 -4 9 0.65
1 9 -4 10.9 0.54
1 9 -4 9.28 0.4
1 9 -4 9.75 0.69
1 9 -4 9.26 0.63
-1 -9 4 10.44 0.41
-1 -9 4 9.68 0.59
-1 -9 4 9.85 0.41
0 9 -4 35.88 1.13
0 9 -4 37.45 0.84
0 9 -4 36.23 0.99
0 9 -4 36.76 1.02
0 9 -4 37.03 0.84
0 9 -4 38.49 1.3
0 -9 4 39.39 1.16
0 -9 4 37.48 0.98
-1 9 -4 19.92 0.66
-1 9 -4 19.28 0.61
-1 9 -4 19.57 0.8
-1 9 -4 19.17 0.56
-1 9 -4 19.35 0.7
-1 9 -4 19.82 0.57
-1 9 -4 19.5 0.57
1 -9 4 19.58 0.62
1 -9 4 19.94 0.8
1 -9 4 20.12 0.59
-2 9 -4 134.62 2.71
-2 9 -4 129.47 2.62
-2 9 -4 134.26 2.95
-2 9 -4 129.15 2.86
2 -9 4 128.93 2.6
2 -9 4 136.1 2.83
2 -9 4 135.5 2.95
-3 9 -4 1.34 0.19
-3 9 -4 1.43 0.2
-3 9 -4 0.82 0.29
-3 9 -4 1.08 0.33
3 -9 4 2.15 0.24
3 -9 4 1.48 0.36
3 -9 4 1.58 0.18
3 -9 4 1.54 0.36
-4 9 -4 12.05 0.67
-4 9 -4 10.17 0.44
4 -9 4 12.62 0.8
4 -9 4 9.33 1.1
4 -9 4 10.53 0.77
4 -9 4 10.31 0.42
4 -9 4 10.71 0.41
4 8 -4 3.01 0.45
4 8 -4 2.44 0.72
4 8 -4 2.8 0.48
-4 -8 4 2.47 0.39
3 8 -4 26.89 1.08
3 8 -4 29.33 1.02
3 8 -4 30.39 0.94
3 8 -4 28.69 1.04
-3 -8 4 28.29 1.03
-3 -8 4 27.93 0.86
-3 -8 4 28.16 0.84
2 8 -4 14.04 0.71
2 8 -4 14.31 0.52
2 8 -4 13.7 0.7
2 8 -4 13.46 0.57
2 8 -4 13.97 0.69
-2 -8 4 13.85 0.51
-2 -8 4 13.22 0.5
-2 -8 4 13.88 0.65
1 8 -4 77.71 1.58
1 8 -4 78.75 1.89
1 8 -4 77.88 1.8
1 8 -4 77.55 1.88
-1 -8 4 77.36 1.76
-1 -8 4 79.27 1.59
0 8 -4 7.36 0.49
0 8 -4 6.43 0.44
0 8 -4 7.46 0.41
0 8 -4 6.92 0.27
0 8 -4 6.86 0.27
0 -8 4 6.07 0.48
0 -8 4 6.63 0.37
0 -8 4 6.92 0.38
0 -8 4 6.38 0.28
-1 8 -4 1.84 0.31
-1 8 -4 2.82 0.3
-1 8 -4 2.64 0.26
-1 8 -4 2.83 0.26
-1 8 -4 2.81 0.26
-1 8 -4 2.35 0.28
-1 8 -4 2.78 0.28
1 -8 4 3.05 0.26
1 -8 4 2.24 0.32
1 -8 4 2.68 0.27
-2 8 -4 27.57 0.76
-2 8 -4 28.09 0.71
-2 8 -4 28.32 0.77
-2 8 -4 27.59 0.77
2 -8 4 27.2 0.67
2 -8 4 27.85 0.92
2 -8 4 27.81 0.66
2 -8 4 27.79 0.86
-3 8 -4 12.07 0.42
-3 8 -4 11.96 0.59
-3 8 -4 12.13 0.56
-3 8 -4 12.98 0.44
3 -8 4 12.38 0.62
3 -8 4 12.5 0.4
3 -8 4 11.81 0.65
3 -8 4 12.29 0.66
3 -8 4 12.34 0.39
-4 8 -4 25.19 0.7
-4 8 -4 25.68 0.9
-4 8 -4 26.16 0.71
4 -8 4 25.59 0.98
4 -8 4 25.66 0.68
4 -8 4 25.73 0.97
4 -8 4 24.51 0.67
4 -8 4 26.99 1
-5 8 -4 3.52 0.35
-5 8 -4 3.22 0.35
-5 8 -4 2.91 0.49
5 -8 4 2.89 0.48
5 -8 4 2.83 0.31
5 -8 4 2.75 0.29
5 -8 4 3.26 0.48
4 7 -4 6.1 0.65
4 7 -4 6.02 0.69
4 7 -4 6.91 0.61
4 7 -4 5.35 0.58
4 7 -4 5.98 0.63
-4 -7 4 6.58 0.68
-4 -7 4 5.07 0.55
-4 -7 4 7.37 0.54
3 7 -4 16.67 0.72
3 7 -4 17.48 0.75
3 7 -4 16.27 0.81
3 7 -4 17.22 0.69
3 7 -4 17.25 0.76
-3 -7 4 15.89 0.76
-3 -7 4 15.65 0.61
-3 -7 4 16.94 0.62
-3 -7 4 15.62 0.78
2 7 -4 236.12 4.81
2 7 -4 240.93 4.79
2 7 -4 236.73 4.58
2 7 -4 239.78 4.78
-2 -7 4 235.26 4.73
-2 -7 4 236.86 4.58
-2 -7 4 232.98 4.57
1 7 -4 0.03 0.21
1 7 -4 0.14 0.23
1 7 -4 0.54 0.12
-1 -7 4 0.28 0.18
-1 -7 4 0.58 0.12
-1 -7 4 0.46 0.12
0 7 -4 49.65 1.28
0 7 -4 50.09 1.15
0 7 -4 49.81 1.17
0 -7 4 49.46 1.28
0 -7 4 50.13 1.13
0 -7 4 50.43 1.15
-1 7 -4 16.96 0.5
-1 7 -4 18.36 0.53
-1 7 -4 17.38 0.67
-1 7 -4 18.11 0.51
-1 7 -4 18.41 0.49
-1 7 -4 18.48 0.48
1 -7 4 18.57 0.51
1 -7 4 19.22 0.69
1 -7 4 18.03 0.49
-2 7 -4 18.88 0.59
-2 7 -4 19.59 0.58
-2 7 -4 18.59 0.52
-2 7 -4 19.27 0.52
-2 7 -4 20.21 0.59
2 -7 4 19.75 0.71
2 -7 4 19.54 0.49
2 -7 4 18.15 0.66
2 -7 4 18.57 0.71
2 -7 4 19.47 0.51
-3 7 -4 38.93 1.02
-3 7 -4 38.83 0.9
-3 7 -4 38.79 0.88
-3 7 -4 38.1 1.03
3 -7 4 38.93 0.88
3 -7 4 38.72 1.11
3 -7 4 39.21 0.86
3 -7 4 39.49 1.11
3 -7 4 38.97 1.14
-4 7 -4 0.73 0.28
-4 7 -4 0.57 0.2
-4 7 -4 0.85 0.21
4 -7 4 1.33 0.33
4 -7 4 0.44 0.3
4 -7 4 1.01 0.19
4 -7 4 0.41 0.17
4 -7 4 0.15 0.31
-5 7 -4 2.09 0.3
-5 7 -4 1.78 0.42
-5 7 -4 1.18 0.31
5 -7 4 1.64 0.47
5 -7 4 1.47 0.39
5 -7 4 1.47 0.26
5 -7 4 1.68 0.28
5 -7 4 2.07 0.45
5 6 -4 0.15 0.53
5 6 -4 1.2 0.46
5 6 -4 0.74 0.44
5 6 -4 1.49 0.38
-5 -6 4 0.54 0.61
-5 -6 4 1.18 0.56
-5 -6 4 0.29 0.35
4 6 -4 47.07 1.35
4 6 -4 48.73 1.39
4 6 -4 48.15 1.32
4 6 -4 47.34 1.27
-4 -6 4 44.79 1.5
-4 -6 4 48.25 1.43
-4 -6 4 47.06 1.38
-4 -6 4 47.97 1.25
3 6 -4 2.19 0.32
3 6 -4 2.58 0.31
3 6 -4 1.97 0.33
3 6 -4 1.99 0.35
3 6 -4 2.21 0.32
-3 -6 4 2.45 0.27
-3 -6 4 1.99 0.25
-3 -6 4 1.62 0.32
-3 -6 4 2.5 0.35
2 6 -4 169.05 3.44
2 6 -4 166.29 3.26
2 6 -4 166.23 3.46
2 6 -4 167.48 3.42
-2 -6 4 166.28 3.4
-2 -6 4 164.87 3.25
-2 -6 4 165.48 3.26
1 6 -4 48.34 1.19
1 6 -4 50.16 1.24
1 6 -4 49.51 1.01
-1 -6 4 51.54 1.01
-1 -6 4 48.04 1.23
-1 -6 4 49.89 1.01
-1 -6 4 49.1 1.17
0 6 -4 223.83 4.34
0 6 -4 222.99 4.34
0 6 -4 219.51 4.44
0 -6 4 226.58 4.32
0 -6 4 221.79 4.44
-1 6 -4 31.11 0.7
-1 6 -4 30.75 0.75
-1 6 -4 31.12 0.88
-1 6 -4 30.55 0.69
-1 6 -4 31.51 0.7
1 -6 4 31.62 0.89
1 -6 4 32.16 0.73
-2 6 -4 0.03 0.13
-2 6 -4 0 0.14
-2 6 -4 0.18 0.14
-2 6 -4 0.17 0.11
-2 6 -4 0.3 0.15
2 -6 4 0.32 0.19
2 -6 4 -0.16 0.17
2 -6 4 0.15 0.1
2 -6 4 0.1 0.09
2 -6 4 0.09 0.18
-3 6 -4 2.25 0.29
-3 6 -4 2.46 0.25
-3 6 -4 2.08 0.28
-3 6 -4 2.71 0.26
3 -6 4 2.15 0.3
3 -6 4 2.47 0.31
3 -6 4 1.94 0.22
3 -6 4 2.55 0.23
3 -6 4 2.32 0.32
-4 6 -4 34.74 1.02
-4 6 -4 32.47 1.04
-4 6 -4 33.27 0.87
4 -6 4 30.29 1.07
4 -6 4 34.8 1.09
4 -6 4 34.71 1.07
4 -6 4 33.25 0.84
4 -6 4 34.95 1.03
-5 6 -4 4.25 0.51
-5 6 -4 3.88 0.47
-5 6 -4 3.85 0.47
5 -6 4 5.13 0.59
5 -6 4 4.87 0.6
5 -6 4 3.78 0.41
5 -6 4 5.32 0.61
5 -6 4 3.85 0.35
5 5 -4 2.95 0.5
5 5 -4 2.74 0.54
5 5 -4 2.15 0.35
5 5 -4 3.26 0.47
5 5 -4 3.2 0.46
-5 -5 4 2.41 0.39
-5 -5 4 2.46 0.54
-5 -5 4 2.27 0.48
4 5 -4 20.29 0.82
4 5 -4 21.37 0.83
4 5 -4 21.59 0.82
4 5 -4 20.48 0.9
4 5 -4 21.43 0.73
-4 -5 4 21.55 0.78
-4 -5 4 20.41 0.85
-4 -5 4 20.48 0.88
-4 -5 4 20.82 0.74
3 5 -4 157.99 3.19
3 5 -4 155 3.28
3 5 -4 155.92 3.29
3 5 -4 153.83 3.2
3 5 -4 154.75 3.21
-3 -5 4 157.97 3.14
-3 -5 4 154.5 3.22
-3 -5 4 154.91 3.15
-3 -5 4 160.96 3.26
2 5 -4 51.95 1.29
2 5 -4 53.14 1.23
2 5 -4 52.31 1.14
2 5 -4 52.95 1.29
-2 -5 4 52.17 1.13
-2 -5 4 51.91 1.24
-2 -5 4 52.14 1.14
-2 -5 4 52.72 1.26
1 5 -4 94.82 1.82
1 5 -4 93.99 2.04
1 5 -4 95.68 2.01
-1 -5 4 91.91 1.82
-1 -5 4 95.41 2.03
-1 -5 4 96.29 1.98
0 5 -4 43.28 0.98
0 5 -4 41.59 1.04
0 -5 4 42.27 1.05
0 -5 4 42.57 0.96
-1 5 -4 11.5 0.36
-1 5 -4 11.29 0.32
-1 5 -4 11.12 0.36
-1 5 -4 11.03 0.33
-1 5 -4 11.32 0.32
1 -5 4 11.47 0.35
1 -5 4 11.41 0.47
1 -5 4 11.85 0.34
-2 5 -4 18.97 0.51
-2 5 -4 19.41 0.55
-2 5 -4 19.61 0.55
-2 5 -4 18.98 0.5
2 -5 4 19.27 0.48
2 -5 4 18.11 0.63
2 -5 4 18.81 0.56
2 -5 4 19.49 0.49
2 -5 4 19.46 0.65
-3 5 -4 40.17 1.04
-3 5 -4 39.87 0.94
-3 5 -4 39.42 1.02
-3 5 -4 40.08 0.93
3 -5 4 41.13 1.07
3 -5 4 39.79 1.08
3 -5 4 39.89 0.9
3 -5 4 40.44 1.12
3 -5 4 40.43 0.92
-4 5 -4 35.87 0.95
-4 5 -4 35.38 0.93
-4 5 -4 37.31 1.05
4 -5 4 35.43 0.9
4 -5 4 36.94 0.92
4 -5 4 36.6 1.11
4 -5 4 35.75 1.12
4 -5 4 36.62 1.04
-5 5 -4 6.44 0.62
-5 5 -4 6.82 0.54
-5 5 -4 7.72 0.56
5 -5 4 8.37 0.68
5 -5 4 7.8 0.48
5 -5 4 6.17 0.6
5 -5 4 7.7 0.48
5 -5 4 7.79 0.66
-6 5 -4 6.31 0.65
6 -5 4 5.98 0.59
6 -5 4 5.97 0.56
6 -5 4 6.57 0.7
5 4 -4 1.13 0.36
5 4 -4 1.42 0.47
5 4 -4 1.41 0.29
5 4 -4 1.12 0.4
5 4 -4 0.64 0.69
-5 -4 4 0.85 0.4
-5 -4 4 0.91 0.31
-5 -4 4 1.72 0.56
4 4 -4 2.27 0.35
4 4 -4 2.13 0.34
4 4 -4 1.72 0.36
4 4 -4 2.02 0.26
4 4 -4 1.97 0.36
-4 -4 4 3.11 0.38
-4 -4 4 2.06 0.29
-4 -4 4 1.5 0.33
-4 -4 4 2.15 0.31
3 4 -4 15.42 0.59
3 4 -4 13.35 0.69
3 4 -4 15.81 0.59
3 4 -4 16.11 0.65
-3 -4 4 15.37 0.53
-3 -4 4 16.53 0.62
-3 -4 4 15.15 0.54
-3 -4 4 15.95 0.62
2 4 -4 17.7 0.5
2 4 -4 18.27 0.6
2 4 -4 18.03 0.57
2 4 -4 18 0.62
-2 -4 4 18.38 0.5
-2 -4 4 18.61 0.6
-2 -4 4 18.73 0.49
-2 -4 4 18.2 0.58
1 4 -4 543.28 10.51
1 4 -4 546.93 10.33
1 4 -4 564.18 10.5
-1 -4 4 570 10.48
-1 -4 4 552.76 10.5
0 4 -4 75.76 2
0 4 -4 93.21 1.75
0 -4 4 92.7 1.73
0 -4 4 75.01 1.92
-1 4 -4 1.02 0.11
-1 4 -4 0.64 0.11
-1 4 -4 0.84 0.1
-1 4 -4 0.79 0.12
1 -4 4 0.59 0.15
1 -4 4 1.05 0.12
1 -4 4 0.94 0.11
1 -4 4 0.93 0.17
1 -4 4 0.88 0.11
-2 4 -4 6.7 0.31
-2 4 -4 6.78 0.28
-2 4 -4 6.45 0.28
-2 4 -4 6.74 0.31
2 -4 4 7.58 0.33
2 -4 4 6.84 0.37
2 -4 4 6.67 0.26
2 -4 4 6.77 0.26
-3 4 -4 45.11 1.1
-3 4 -4 43.25 1.08
-3 4 -4 42.73 1.01
3 -4 4 42.97 0.98
3 -4 4 42.57 1.12
3 -4 4 44.66 1.16
3 -4 4 44.77 1.11
-4 4 -4 0.93 0.26
-4 4 -4 0.67 0.24
-4 4 -4 1.17 0.24
4 -4 4 1.11 0.21
4 -4 4 0.97 0.27
4 -4 4 0.79 0.28
4 -4 4 0.85 0.28
4 -4 4 1.16 0.21
-5 4 -4 7.64 0.61
-5 4 -4 6.33 0.57
-5 4 -4 6.91 0.56
5 -4 4 7.42 0.62
5 -4 4 6.77 0.63
5 -4 4 7.02 0.58
5 -4 4 6.46 0.5
5 -4 4 6.85 0.58
-6 4 -4 1.47 0.4
6 -4 4 1.55 0.49
6 -4 4 0.74 0.41
6 -4 4 1.7 0.37
6 3 -4 4.64 0.59
6 3 -4 4.46 0.59
6 3 -4 4.25 0.6
-6 -3 4 3.91 0.55
-6 -3 4 4.81 0.61
5 3 -4 10.24 0.64
5 3 -4 10.66 0.67
5 3 -4 9.8 0.69
5 3 -4 10.11 0.47
5 3 -4 9.78 0.76
-5 -3 4 9.43 0.62
-5 -3 4 9.04 0.7
-5 -3 4 9.49 0.72
4 3 -4 4 0.41
4 3 -4 3.22 0.32
4 3 -4 3.75 0.43
4 3 -4 3.92 0.44
4 3 -4 2.93 0.33
-4 -3 4 4.03 0.4
-4 -3 4 3.96 0.49
-4 -3 4 2.65 0.33
-4 -3 4 4.31 0.43
3 3 -4 8.07 0.41
3 3 -4 7.4 0.42
3 3 -4 6.91 0.35
3 3 -4 7.25 0.45
-3 -3 4 6.93 0.37
-3 -3 4 7.35 0.38
-3 -3 4 7.52 0.45
-3 -3 4 7.95 0.44
2 3 -4 4.8 0.26
2 3 -4 5.46 0.3
2 3 -4 4.95 0.34
2 3 -4 5.08 0.3
-2 -3 4 5.23 0.29
-2 -3 4 5.51 0.26
-2 -3 4 5.35 0.26
-2 -3 4 4.97 0.32
-2 -3 4 4.88 0.32
1 3 -4 90.3 1.87
1 3 -4 91.42 1.87
1 3 -4 91.91 1.82
-1 -3 4 88.28 1.74
-1 -3 4 89.62 1.74
-1 -3 4 87.5 1.73
-1 -3 4 90.52 1.84
-1 -3 4 91.44 1.86
-1 -3 4 90.66 1.85
0 3 -4 186.18 3.56
0 3 -4 182.68 3.58
0 -3 4 184.55 3.54
0 -3 4 180.27 3.59
-1 3 -4 62.01 1.27
-1 3 -4 60.42 1.22
-1 3 -4 61.08 1.23
1 -3 4 60.21 1.34
1 -3 4 59.99 1.34
1 -3 4 59.96 1.23
1 -3 4 61.95 1.25
-2 3 -4 278.86 5.41
-2 3 -4 285 5.44
-2 3 -4 294.26 5.4
-2 3 -4 284.95 5.43
2 -3 4 278.73 5.38
2 -3 4 281.73 5.45
2 -3 4 283.2 5.52
2 -3 4 277.66 5.39
2 -3 4 286.27 5.49
-3 3 -4 20.26 0.65
-3 3 -4 19.55 0.59
-3 3 -4 19.49 0.63
-3 3 -4 19.56 0.61
3 -3 4 20.32 0.69
3 -3 4 19.67 0.56
3 -3 4 19.52 0.64
3 -3 4 18.84 0.63
3 -3 4 18.18 0.64
-4 3 -4 110.73 2.36
-4 3 -4 112.75 2.42
4 -3 4 109.17 2.48
4 -3 4 110.99 2.38
4 -3 4 109.47 2.44
4 -3 4 110.52 2.32
-5 3 -4 0.23 0.3
-5 3 -4 0.28 0.28
5 -3 4 -0.08 0.25
5 -3 4 0.12 0.32
5 -3 4 -0.18 0.31
5 -3 4 0.14 0.28
-6 3 -4 13.33 0.82
6 -3 4 15.37 0.82
6 -3 4 13.55 0.77
6 -3 4 12.73 0.83
6 2 -4 -0.07 0.41
6 2 -4 -0.34 0.38
6 2 -4 0.32 0.43
-6 -2 4 0.4 0.39
-6 -2 4 0.07 0.44
5 2 -4 0.26 0.36
5 2 -4 0.05 0.28
5 2 -4 -0.25 0.33
5 2 -4 -0.11 0.29
-5 -2 4 0.17 0.33
-5 -2 4 0.71 0.34
-5 -2 4 -0.16 0.27
4 2 -4 66.02 1.56
4 2 -4 66.1 1.6
4 2 -4 65.16 1.59
4 2 -4 66.11 1.57
-4 -2 4 65.4 1.59
-4 -2 4 64.35 1.54
-4 -2 4 66.53 1.58
-4 -2 4 65.65 1.55
3 2 -4 70.45 1.59
3 2 -4 70.1 1.55
3 2 -4 69.26 1.55
3 2 -4 73.04 1.55
-3 -2 4 69.26 1.54
-3 -2 4 68.02 1.56
-3 -2 4 67.44 1.52
-3 -2 4 69.5 1.55
2 2 -4 111.43 2.27
2 2 -4 114.36 2.32
2 2 -4 114.53 2.28
2 2 -4 111.06 2.25
-2 -2 4 113.72 2.3
-2 -2 4 111.55 2.24
-2 -2 4 114.44 2.25
-2 -2 4 109.76 2.28
-2 -2 4 112.25 2.22
1 2 -4 552.24 10.36
1 2 -4 551.7 10.39
1 2 -4 564.66 10.35
-1 -2 4 552.9 10.36
-1 -2 4 552.6 10.35
-1 -2 4 553.11 10.29
-1 -2 4 546.97 10.36
-1 -2 4 542.61 10.29
-1 -2 4 549.14 10.28
0 2 -4 94.65 1.85
0 2 -4 89.91 1.76
0 -2 4 91.43 1.76
0 -2 4 89.38 1.76
0 -2 4 93.66 1.86
0 -2 4 92.19 1.87
0 -2 4 93.16 1.84
-1 2 -4 328.81 6.25
-1 2 -4 338.98 6.29
-1 2 -4 331.85 6.24
1 -2 4 332.16 6.33
1 -2 4 333.51 6.33
1 -2 4 330.51 6.27
1 -2 4 325.77 6.26
-2 2 -4 492.23 9.14
-2 2 -4 489.3 9.13
-2 2 -4 483.79 9.12
2 -2 4 497.04 9.1
2 -2 4 452.07 9.26
2 -2 4 486.94 9.15
2 -2 4 480.6 9.2
-3 2 -4 59.33 1.38
-3 2 -4 58.24 1.36
-3 2 -4 57.5 1.33
3 -2 4 58.41 1.3
3 -2 4 58.48 1.35
3 -2 4 58.52 1.41
-4 2 -4 49.52 1.28
-4 2 -4 50.51 1.26
4 -2 4 49.53 1.22
4 -2 4 49.56 1.33
4 -2 4 48.67 1.29
4 -2 4 51.14 1.26
-5 2 -4 9.28 0.63
-5 2 -4 9.12 0.63
5 -2 4 9.23 0.59
5 -2 4 8.47 0.64
5 -2 4 9.23 0.65
5 -2 4 8.53 0.58
-6 2 -4 3.64 0.5
6 -2 4 4.18 0.48
6 -2 4 4.15 0.54
6 -2 4 4.08 0.46
6 1 -4 -0.18 0.37
6 1 -4 -0.05 0.37
6 1 -4 0.27 0.41
-6 -1 4 -0.01 0.4
-6 -1 4 -0.27 0.37
5 1 -4 21.25 0.88
5 1 -4 23.68 0.91
5 1 -4 21.8 0.82
5 1 -4 24.22 0.86
-5 -1 4 23.47 0.88
-5 -1 4 22.74 0.86
4 1 -4 24.19 0.75
4 1 -4 25.44 0.82
4 1 -4 23.9 0.81
4 1 -4 24.63 0.78
-4 -1 4 24.67 0.79
-4 -1 4 23.69 0.78
-4 -1 4 24.86 0.82
-4 -1 4 24.76 0.82
3 1 -4 9.45 0.4
3 1 -4 9.15 0.28
3 1 -4 9.45 0.41
3 1 -4 9.17 0.45
-3 -1 4 9.43 0.42
-3 -1 4 9.32 0.42
-3 -1 4 9.6 0.44
-3 -1 4 9.34 0.42
2 1 -4 258.58 4.94
2 1 -4 256.93 4.89
2 1 -4 259.58 4.91
-2 -1 4 248.82 4.89
-2 -1 4 250.72 4.91
-2 -1 4 250.24 4.83
-2 -1 4 260.1 4.92
-2 -1 4 260.21 4.93
0 1 -4 297.67 5.66
0 1 -4 290.8 5.61
0 1 -4 303 5.64
0 1 -4 287.73 5.61
0 -1 4 284.73 5.61
0 -1 4 309.45 5.65
0 -1 4 303.75 5.67
0 -1 4 311.62 5.66
0 -1 4 297.17 5.65
-1 1 -4 38.31 0.86
-1 1 -4 38.91 0.84
-1 1 -4 38.38 0.84
1 -1 4 36.64 0.87
1 -1 4 38.25 0.84
1 -1 4 37.98 0.88
1 -1 4 37.13 0.84
-2 1 -4 1000 18.51
-2 1 -4 999.94 18.52
2 -1 4 981.67 18.53
2 -1 4 990.25 18.53
2 -1 4 976.8 18.56
-3 1 -4 15.58 0.58
-3 1 -4 15.94 0.56
-3 1 -4 15.85 0.56
3 -1 4 16.26 0.6
3 -1 4 15.71 0.56
3 -1 4 17.05 0.54
-4 1 -4 30.57 0.92
-4 1 -4 29.83 0.9
4 -1 4 27.88 0.93
4 -1 4 29.81 0.87
4 -1 4 28.96 0.92
4 -1 4 29.17 0.87
-5 1 -4 121.02 2.71
5 -1 4 115.8 3.06
5 -1 4 120.83 2.75
5 -1 4 119.42 2.58
5 -1 4 116.68 2.67
-6 1 -4 3.07 0.51
6 -1 4 2.69 0.45
6 -1 4 2.74 0.46
6 -1 4 2.41 0.53
6 0 -4 11.91 0.75
6 0 -4 11.55 0.78
6 0 -4 11.87 0.77
-6 0 4 12.26 0.79
-6 0 4 11.99 0.83
5 0 -4 82.22 1.9
5 0 -4 81.42 1.9
5 0 -4 81.53 1.98
-5 0 4 81.36 1.92
-5 0 4 79.01 1.95
4 0 -4 98.15 2.13
4 0 -4 99.53 2.12
4 0 -4 97.26 2.2
-4 0 4 100.34 2.16
-4 0 4 100.56 2.22
-4 0 4 98.32 2.19
3 0 -4 131.36 2.66
3 0 -4 130.51 2.63
-3 0 4 131.58 2.7
-3 0 4 133.74 2.73
-3 0 4 131.41 2.68
2 0 -4 600.11 11.17
2 0 -4 605.83 11.19
2 0 -4 578.6 11.12
-2 0 4 594.53 11.2
-2 0 4 598.25 11.17
-2 0 4 586.32 11.07
-2 0 4 589.04 11.2
-2 0 4 605.87 11.18
1 0 -4 6.72 0.38
1 0 -4 6.76 0.25
1 0 -4 6.52 0.2
1 0 -4 6.71 0.25
1 0 -4 7.16 0.27
-1 0 4 6.56 0.26
-1 0 4 7.23 0.26
-1 0 4 6.99 0.27
-1 0 4 6.79 0.24
0 0 -4 15.58 0.41
0 0 -4 16.04 0.43
0 0 -4 16.08 0.41
0 0 4 15.01 0.41
0 0 4 16.38 0.4
0 0 4 15.66 0.43
0 0 4 15.77 0.42
0 0 4 16.32 0.42
-1 0 -4 13.91 0.4
-1 0 -4 14.62 0.41
-1 0 -4 14.03 0.41
1 0 4 13.81 0.42
1 0 4 14.29 0.44
1 0 4 13.82 0.42
1 0 4 14.09 0.41
-2 0 -4 167.58 3.21
-2 0 -4 163.89 3.27
-2 0 -4 167.32 3.26
2 0 4 166.43 3.36
2 0 4 169.66 3.23
2 0 4 156.73 3.3
2 0 4 163.49 3.23
2 0 4 154.8 3.33
-3 0 -4 124.78 2.62
-3 0 -4 122.64 2.6
-3 0 -4 124.47 2.59
3 0 4 121.77 2.57
3 0 4 124.89 2.56
3 0 4 125.42 2.64
-4 0 -4 4.99 0.45
-4 0 -4 5.42 0.49
4 0 4 5.01 0.44
4 0 4 5.55 0.46
4 0 4 5.78 0.43
4 0 4 5.53 0.47
-5 0 -4 5.08 0.62
-5 0 -4 5.4 0.55
5 0 4 5.47 0.59
5 0 4 5.36 0.56
5 0 4 4.5 0.47
5 0 4 4.27 0.52
-6 0 -4 3.85 0.59
6 0 4 3.9 0.55
6 0 4 3.94 0.53
6 0 4 4.29 0.48
6 -1 -4 45.54 1.34
6 -1 -4 45.17 1.34
6 -1 -4 47.05 1.45
-6 1 4 46.53 1.45
-6 1 4 47.34 1.38
5 -1 -4 0.28 0.33
5 -1 -4 0.15 0.27
5 -1 -4 0.61 0.28
-5 1 4 0.58 0.3
-5 1 4 0.49 0.29
4 -1 -4 80.01 1.72
4 -1 -4 80.3 1.83
4 -1 -4 73.98 1.87
-4 1 4 81.58 1.84
-4 1 4 72 1.9
-4 1 4 83.21 1.87
3 -1 -4 22.72 0.59
3 -1 -4 23.2 0.62
-3 1 4 21.41 0.67
-3 1 4 22.1 0.69
-3 1 4 21.57 0.63
2 -1 -4 84.01 1.65
2 -1 -4 87.1 1.72
2 -1 -4 81.79 1.76
-2 1 4 85.63 1.73
-2 1 4 84.94 1.78
-2 1 4 83.94 1.78
-2 1 4 83.39 1.63
1 -1 -4 124.71 2.43
1 -1 -4 125.53 2.48
1 -1 -4 125.4 2.49
-1 1 4 125.16 2.48
-1 1 4 125.81 2.45
-1 1 4 123.11 2.43
0 -1 -4 1.59 0.15
0 -1 -4 1.59 0.15
0 -1 -4 1.6 0.16
0 -1 -4 1.67 0.14
0 1 4 1.47 0.16
0 1 4 1.47 0.15
0 1 4 1.51 0.16
0 1 4 1.72 0.13
0 1 4 1.59 0.14
-1 -1 -4 26.57 0.64
-1 -1 -4 27.25 0.67
1 1 4 27.03 0.65
1 1 4 25.45 0.64
1 1 4 24.4 0.67
1 1 4 27.15 0.66
1 1 4 25.93 0.67
-2 -1 -4 38.87 0.96
-2 -1 -4 39.15 0.92
-2 -1 -4 38.29 0.95
-2 -1 -4 38.44 0.97
2 1 4 39.21 0.94
2 1 4 38.59 0.94
2 1 4 38.54 0.96
2 1 4 38.57 0.95
-3 -1 -4 5.2 0.4
-3 -1 -4 6.41 0.4
-3 -1 -4 6.04 0.4
-3 -1 -4 6.28 0.42
3 1 4 5.27 0.37
3 1 4 5.34 0.4
3 1 4 5.53 0.38
3 1 4 5.1 0.4
-4 -1 -4 57.75 1.47
-4 -1 -4 58.24 1.42
-4 -1 -4 55.34 1.62
4 1 4 57.7 1.44
4 1 4 56.2 1.39
4 1 4 55.33 1.6
4 1 4 56.98 1.4
4 1 4 57.63 1.5
-5 -1 -4 29.49 1.1
-5 -1 -4 29.61 1.04
5 1 4 30.36 1.05
5 1 4 30.8 1.11
5 1 4 29.36 0.98
5 1 4 29.56 0.99
-6 -1 -4 5.34 0.66
6 1 4 4.63 0.57
6 1 4 5.05 0.72
6 1 4 4.96 0.53
6 -2 -4 25.6 0.96
6 -2 -4 26.17 1.07
6 -2 -4 26.51 0.96
-6 2 4 26.61 0.99
-6 2 4 27.77 1.1
5 -2 -4 7.02 0.5
5 -2 -4 7.91 0.52
5 -2 -4 7.44 0.59
-5 2 4 7.47 0.58
-5 2 4 7.03 0.54
4 -2 -4 143.79 3.02
4 -2 -4 142.21 2.89
-4 2 4 142.02 3.02
-4 2 4 142.15 2.92
3 -2 -4 0.55 0.14
3 -2 -4 1.02 0.16
-3 2 4 0.53 0.18
-3 2 4 1.08 0.16
2 -2 -4 1.05 0.2
2 -2 -4 0.95 0.12
2 -2 -4 1.2 0.11
-2 2 4 0.92 0.1
-2 2 4 1.01 0.13
-2 2 4 1.06 0.1
-2 2 4 0.94 0.15
1 -2 -4 30.22 0.67
-1 2 4 29.19 0.74
-1 2 4 28.84 0.68
-1 2 4 29.67 0.68
0 -2 -4 34.7 0.78
0 -2 -4 34.8 0.84
0 -2 -4 33.98 0.82
0 2 4 33.97 0.83
0 2 4 36.02 0.74
0 2 4 34.34 0.79
0 2 4 35.25 0.82
-1 -2 -4 63.95 1.35
-1 -2 -4 63.17 1.32
-1 -2 -4 62.61 1.37
1 2 4 60.36 1.32
1 2 4 62.74 1.33
1 2 4 62.11 1.33
1 2 4 58.37 1.36
-2 -2 -4 427.98 8.12
-2 -2 -4 430.78 8.08
-2 -2 -4 417.59 8.14
-2 -2 -4 412.67 8.13
2 2 4 414.8 8.12
2 2 4 444.12 8.1
2 2 4 420.78 8.12
2 2 4 428.2 8.11
-3 -2 -4 -0.09 0.21
-3 -2 -4 -0.14 0.17
-3 -2 -4 0.15 0.18
-3 -2 -4 -0.15 0.2
3 2 4 0 0.17
3 2 4 0.27 0.21
3 2 4 0.03 0.18
3 2 4 0.18 0.19
-4 -2 -4 92.07 2.17
-4 -2 -4 91.19 2.09
-4 -2 -4 93.88 2.16
4 2 4 93.27 2.06
4 2 4 92.96 2.15
4 2 4 92.76 2.18
4 2 4 92.27 2.12
4 2 4 95.04 2.11
-5 -2 -4 17.43 0.84
-5 -2 -4 17.31 1.28
-5 -2 -4 17.02 0.94
5 2 4 17.41 0.76
5 2 4 16.14 0.87
5 2 4 17.82 0.98
5 2 4 16.51 0.78
5 2 4 15.95 0.84
6 -3 -4 10.93 0.77
6 -3 -4 10.86 0.7
6 -3 -4 11.26 0.66
-6 3 4 11.67 0.7
5 -3 -4 22.69 0.76
5 -3 -4 22.64 0.76
5 -3 -4 22.53 0.89
-5 3 4 22.38 0.87
-5 3 4 21.76 0.81
4 -3 -4 6.15 0.44
4 -3 -4 6.34 0.37
4 -3 -4 6.97 0.38
-4 3 4 6.6 0.39
-4 3 4 8.13 0.61
-4 3 4 7.2 0.49
3 -3 -4 248.45 5.12
3 -3 -4 261.26 5.08
3 -3 -4 265.03 5.23
3 -3 -4 270.6 5.09
-3 3 4 269.2 5.25
-3 3 4 276.88 5.12
-3 3 4 269.6 5.1
-3 3 4 258.55 4.97
2 -3 -4 51.44 1.23
2 -3 -4 51.91 1.11
2 -3 -4 50.67 1.24
2 -3 -4 52.35 1.13
-2 3 4 51.66 1.12
-2 3 4 59.18 1.29
-2 3 4 55.5 1.18
-2 3 4 50.49 1.03
1 -3 -4 0.32 0.08
1 -3 -4 0.41 0.13
1 -3 -4 0.49 0.13
-1 3 4 0.19 0.08
-1 3 4 0.23 0.11
-1 3 4 0.22 0.11
0 -3 -4 337.73 6.46
0 -3 -4 340.89 6.48
0 -3 -4 335.06 6.38
0 3 4 333.46 6.47
0 3 4 341.97 6.4
0 3 4 333.97 6.34
0 3 4 334.54 6.43
-1 -3 -4 73.47 1.59
-1 -3 -4 75.08 1.64
-1 -3 -4 72.51 1.56
-1 -3 -4 72.81 1.62
1 3 4 73.42 1.57
1 3 4 74.09 1.57
1 3 4 77.26 1.59
1 3 4 74.07 1.62
-2 -3 -4 286.35 5.68
-2 -3 -4 296.51 5.66
-2 -3 -4 286.5 5.61
2 3 4 284.36 5.65
2 3 4 286.81 5.66
2 3 4 295.5 5.66
2 3 4 294.5 5.63
-3 -3 -4 2.4 0.3
-3 -3 -4 2.41 0.29
-3 -3 -4 1.84 0.29
3 3 4 1.92 0.28
3 3 4 2.9 0.31
3 3 4 2.01 0.29
3 3 4 2.38 0.32
-4 -3 -4 57.36 1.48
-4 -3 -4 53.58 1.5
-4 -3 -4 56.48 1.49
4 3 4 56.99 1.53
4 3 4 54.76 1.43
4 3 4 56.41 1.47
4 3 4 55.48 1.51
-5 -3 -4 -0.36 0.36
-5 -3 -4 -0.36 0.37
-5 -3 -4 -0.02 0.44
5 3 4 -0.65 0.36
5 3 4 0.38 0.33
5 3 4 -0.53 0.38
5 3 4 0.01 0.4
5 3 4 -0.08 0.39
6 -4 -4 12.4 0.74
6 -4 -4 12.2 0.8
6 -4 -4 12.44 0.64
-6 4 4 12.36 0.68
5 -4 -4 7.2 0.51
5 -4 -4 7.57 0.45
5 -4 -4 6.73 0.48
5 -4 -4 6.22 0.58
-5 4 4 6.11 0.58
-5 4 4 6.26 0.46
-5 4 4 5.99 0.59
4 -4 -4 14.02 0.5
4 -4 -4 15.05 0.53
4 -4 -4 14.29 0.65
4 -4 -4 14.13 0.5
-4 4 4 14.55 0.56
-4 4 4 14.64 0.53
-4 4 4 15.4 0.66
3 -4 -4 3.14 0.23
3 -4 -4 2.61 0.32
3 -4 -4 2.68 0.25
3 -4 -4 3.1 0.24
-3 4 4 2.64 0.31
-3 4 4 2.85 0.28
-3 4 4 2.59 0.25
-3 4 4 3.11 0.25
2 -4 -4 74.36 1.49
2 -4 -4 72.67 1.5
2 -4 -4 74.26 1.66
2 -4 -4 71.62 1.64
-2 4 4 72.37 1.43
-2 4 4 74.16 1.53
-2 4 4 75.36 1.53
1 -4 -4 84.36 1.84
1 -4 -4 85.55 1.83
1 -4 -4 84.28 1.7
-1 4 4 85.72 1.73
-1 4 4 83.99 1.77
-1 4 4 84.01 1.65
0 -4 -4 0.9 0.16
0 -4 -4 0.74 0.16
0 -4 -4 1.06 0.13
0 4 4 1.15 0.14
0 4 4 1.04 0.17
0 4 4 1.12 0.15
-1 -4 -4 55.71 1.23
-1 -4 -4 53.64 1.26
-1 -4 -4 54.59 1.3
-1 -4 -4 54.4 1.31
1 4 4 54.55 1.29
1 4 4 56.29 1.26
1 4 4 54.36 1.24
1 4 4 56.21 1.25
-2 -4 -4 61.1 1.46
-2 -4 -4 63.49 1.44
-2 -4 -4 60.98 1.49
2 4 4 60.18 1.45
2 4 4 65.15 1.48
2 4 4 62.11 1.47
2 4 4 60.9 1.43
-3 -4 -4 15.73 0.7
-3 -4 -4 15.97 0.66
-3 -4 -4 14.7 0.65
3 4 4 15.57 0.7
3 4 4 14.35 0.66
3 4 4 14.15 0.64
3 4 4 15.66 0.68
-4 -4 -4 0.62 0.29
-4 -4 -4 -0.78 0.35
-4 -4 -4 -0.42 0.31
4 4 4 0.13 0.36
4 4 4 0.22 0.32
4 4 4 -0.07 0.27
4 4 4 -0.22 0.33
-5 -4 -4 2.9 0.58
-5 -4 -4 2.73 0.5
5 4 4 2.56 0.45
5 4 4 2.84 0.54
5 4 4 3.26 0.56
5 4 4 2.36 0.44
6 -5 -4 0.5 0.38
6 -5 -4 0.21 0.42
6 -5 -4 0.19 0.27
-6 5 4 0.12 0.27
5 -5 -4 20.71 0.69
5 -5 -4 21.25 0.89
5 -5 -4 21.04 0.74
5 -5 -4 21.26 0.73
-5 5 4 21.81 0.72
-5 5 4 20.97 0.78
4 -5 -4 6.09 0.34
4 -5 -4 6.03 0.37
4 -5 -4 6.32 0.37
4 -5 -4 6.49 0.49
-4 5 4 6.27 0.41
-4 5 4 6.42 0.36
-4 5 4 5.75 0.37
3 -5 -4 22.81 0.59
3 -5 -4 23.34 0.59
3 -5 -4 21.92 0.58
3 -5 -4 23.26 0.78
-3 5 4 22.37 0.62
-3 5 4 22.87 0.87
-3 5 4 22.75 0.6
-3 5 4 22.21 0.61
2 -5 -4 2.75 0.2
2 -5 -4 2.54 0.19
2 -5 -4 2.8 0.31
2 -5 -4 2.52 0.33
-2 5 4 2.74 0.19
-2 5 4 2.6 0.27
-2 5 4 2.62 0.21
-2 5 4 2.49 0.24
1 -5 -4 0.2 0.16
1 -5 -4 0.16 0.14
1 -5 -4 0 0.09
-1 5 4 0.21 0.1
-1 5 4 -0.01 0.13
-1 5 4 0.05 0.15
0 -5 -4 36.68 0.97
0 -5 -4 36.51 0.87
0 -5 -4 37.42 0.99
0 5 4 38.29 0.9
0 5 4 37.73 0.88
-1 -5 -4 32.85 0.91
-1 -5 -4 33.06 0.93
-1 -5 -4 32.08 0.84
1 5 4 31.32 0.85
1 5 4 32.92 0.87
1 5 4 31.74 0.9
-2 -5 -4 26.78 0.84
-2 -5 -4 26.52 0.83
-2 -5 -4 26.15 0.81
-2 -5 -4 26.84 1
2 5 4 26.54 0.81
2 5 4 25.39 0.83
2 5 4 27.2 0.85
2 5 4 26.65 0.82
-3 -5 -4 215.57 4.44
-3 -5 -4 216.04 4.39
-3 -5 -4 213.46 4.43
3 5 4 211.71 4.37
3 5 4 219.75 4.46
3 5 4 215.32 4.42
3 5 4 219.23 4.45
-4 -5 -4 39.33 1.29
-4 -5 -4 43.18 1.3
-4 -5 -4 42.52 1.38
4 5 4 42.1 1.25
4 5 4 42.48 1.32
4 5 4 40.52 1.35
4 5 4 41.07 1.29
-5 -5 -4 9.24 0.9
-5 -5 -4 8.74 0.8
5 5 4 8.02 0.95
5 5 4 7.42 0.72
5 5 4 7.04 0.7
5 5 4 7.49 0.75
6 -6 -4 0.38 0.27
6 -6 -4 0.99 0.45
6 -6 -4 0.78 0.4
-6 6 4 0.02 0.28
5 -6 -4 8.53 0.46
5 -6 -4 9.21 0.53
5 -6 -4 10.07 0.69
5 -6 -4 9.19 0.54
-5 6 4 8.68 0.48
-5 6 4 8.27 0.56
-5 6 4 7.75 0.67
4 -6 -4 10.72 0.6
4 -6 -4 10.48 0.43
4 -6 -4 11.09 0.44
4 -6 -4 10.68 0.51
-4 6 4 11.05 0.49
-4 6 4 11.74 0.45
-4 6 4 10.92 0.51
3 -6 -4 9.81 0.37
3 -6 -4 10.39 0.54
3 -6 -4 9.84 0.36
-3 6 4 9.25 0.45
-3 6 4 9.66 0.38
-3 6 4 10.1 0.4
-3 6 4 10.48 0.38
2 -6 -4 100.15 2.24
2 -6 -4 113.6 2.42
2 -6 -4 110.35 2.39
2 -6 -4 110.3 2.18
-2 6 4 111.62 2.3
-2 6 4 110.11 2.17
-2 6 4 112.94 2.21
-2 6 4 107.68 2.29
1 -6 -4 0.22 0.18
1 -6 -4 -0.19 0.15
1 -6 -4 0.11 0.13
-1 6 4 0.09 0.12
-1 6 4 0.04 0.15
-1 6 4 0.03 0.14
-1 6 4 0.23 0.18
0 -6 -4 0.05 0.16
0 -6 -4 0.03 0.13
0 -6 -4 0.21 0.17
0 6 4 0.1 0.15
0 6 4 0.01 0.13
0 6 4 -0.01 0.16
-1 -6 -4 11.59 0.52
-1 -6 -4 11.03 0.55
-1 -6 -4 10.68 0.47
1 6 4 10.35 0.49
1 6 4 10.63 0.48
-2 -6 -4 35.18 1.42
-2 -6 -4 39.8 1.12
-2 -6 -4 39.94 1.11
2 6 4 40.22 1.1
2 6 4 35.82 1.52
2 6 4 39.47 1.13
2 6 4 40.43 1.1
-3 -6 -4 45.78 1.39
-3 -6 -4 46.2 1.36
-3 -6 -4 49.15 1.34
3 6 4 45.77 1.3
3 6 4 46.34 1.32
3 6 4 47.17 1.33
3 6 4 47.49 1.39
-4 -6 -4 -0.01 0.41
-4 -6 -4 0.67 0.36
-4 -6 -4 0.99 0.5
4 6 4 -0.23 0.32
4 6 4 -0.94 0.42
4 6 4 -0.26 0.45
4 6 4 0.32 0.39
5 -7 -4 2.27 0.31
5 -7 -4 2.4 0.28
5 -7 -4 3.01 0.49
5 -7 -4 3.6 0.39
-5 7 4 3.51 0.3
-5 7 4 2.39 0.34
-5 7 4 3.33 0.39
-5 7 4 2.93 0.51
4 -7 -4 32.32 1.09
4 -7 -4 32.03 0.8
4 -7 -4 33.37 1.03
4 -7 -4 32.95 0.83
-4 7 4 32.52 0.89
-4 7 4 32.23 0.86
-4 7 4 32.51 0.82
3 -7 -4 -0.12 0.21
3 -7 -4 -0.02 0.14
-3 7 4 0.04 0.18
-3 7 4 0.09 0.13
-3 7 4 -0.05 0.2
-3 7 4 0.15 0.16
2 -7 -4 134.48 2.68
2 -7 -4 135.5 2.68
2 -7 -4 138.04 2.93
-2 7 4 135.45 2.84
-2 7 4 138.9 2.72
-2 7 4 137.38 2.72
-2 7 4 135.93 2.71
1 -7 -4 121.47 2.64
1 -7 -4 121.29 2.6
1 -7 -4 120.26 2.41
1 -7 -4 121.69 2.42
-1 7 4 116.99 2.43
-1 7 4 117.37 2.43
-1 7 4 120.46 2.45
-1 7 4 119.24 2.57
0 -7 -4 36.29 1.05
0 -7 -4 36.79 0.92
0 -7 -4 38.05 1.12
0 7 4 37.02 1.05
0 7 4 36.98 0.95
0 7 4 36.52 0.95
-1 -7 -4 41.44 1.15
-1 -7 -4 39.97 1.05
1 7 4 39.6 1.15
1 7 4 41.45 1.09
1 7 4 39.49 1.08
-2 -7 -4 1.18 0.28
-2 -7 -4 1.82 0.31
2 7 4 1.87 0.33
2 7 4 1.68 0.32
2 7 4 0.71 0.3
-3 -7 -4 16.2 0.83
-3 -7 -4 17.12 0.8
-3 -7 -4 16.1 0.81
3 7 4 15.82 0.8
3 7 4 17.42 0.83
3 7 4 16.27 0.82
3 7 4 14.32 0.85
-4 -7 -4 0.48 0.45
4 7 4 0 0.5
4 7 4 0.37 0.43
5 -8 -4 11.19 0.96
5 -8 -4 10.08 0.47
5 -8 -4 11 0.55
-5 8 4 9.74 0.59
-5 8 4 11.53 0.51
-5 8 4 10.02 0.57
4 -8 -4 24.28 0.9
4 -8 -4 25.1 0.68
4 -8 -4 24.4 0.97
4 -8 -4 23.83 0.65
-4 8 4 23.85 0.71
-4 8 4 23.91 0.81
-4 8 4 24.23 0.76
3 -8 -4 27.95 0.85
3 -8 -4 28.16 0.71
3 -8 -4 28.69 0.98
-3 8 4 28.76 0.89
-3 8 4 27.99 0.86
-3 8 4 27.97 0.75
-3 8 4 28.38 0.93
2 -8 -4 496.28 9.25
2 -8 -4 493.4 9.52
2 -8 -4 479.46 9.24
-2 8 4 498.48 9.28
-2 8 4 503.44 9.45
-2 8 4 488.28 9.27
-2 8 4 472.73 9.41
1 -8 -4 64.14 1.61
1 -8 -4 62.62 1.4
1 -8 -4 64.4 1.42
-1 8 4 63.88 1.58
-1 8 4 65.63 1.46
-1 8 4 64.34 1.43
-1 8 4 63.89 1.45
0 -8 -4 56.81 1.47
0 -8 -4 55.39 1.32
0 8 4 57.01 1.37
0 8 4 59.24 1.37
-1 -8 -4 9.37 0.51
-1 -8 -4 9.39 0.58
1 8 4 10.22 0.62
1 8 4 10.32 0.58
1 8 4 10.39 0.58
-2 -8 -4 5.66 0.54
-2 -8 -4 5.98 0.56
2 8 4 5.87 0.64
2 8 4 6.05 0.59
2 8 4 4.77 0.56
-3 -8 -4 1.15 0.43
-3 -8 -4 0.22 0.35
3 8 4 1.29 0.43
3 8 4 1 0.44
3 8 4 0.94 0.4
4 -9 -4 2.05 0.25
4 -9 -4 2.65 0.46
4 -9 -4 2.05 0.21
4 -9 -4 2.02 0.44
-4 9 4 2.22 0.38
-4 9 4 1.75 0.28
-4 9 4 2.06 0.23
-4 9 4 1.84 0.33
3 -9 -4 4.69 0.55
3 -9 -4 2.99 0.38
3 -9 -4 3.63 0.29
3 -9 -4 3.6 0.32
-3 9 4 3.29 0.4
-3 9 4 4.11 0.32
-3 9 4 3.51 0.43
-3 9 4 3.83 0.37
2 -9 -4 0.34 0.17
2 -9 -4 0.47 0.3
2 -9 -4 0.2 0.2
-2 9 4 0.25 0.18
-2 9 4 0.9 0.31
-2 9 4 0.26 0.23
-2 9 4 0.51 0.26
1 -9 -4 184.36 3.83
1 -9 -4 175.95 3.58
1 -9 -4 183.07 3.61
-1 9 4 180.57 3.64
-1 9 4 178.88 3.62
-1 9 4 184.7 3.82
-1 9 4 179.96 3.65
0 -9 -4 5.11 0.51
0 -9 -4 5.12 0.41
0 9 4 5.61 0.47
0 9 4 4.2 0.45
0 9 4 4.65 0.55
0 9 4 4.23 0.43
-1 -9 -4 19.89 0.83
-1 -9 -4 20.41 0.77
1 9 4 19.54 0.81
1 9 4 22 0.92
1 9 4 20.46 0.82
-2 -9 -4 2.26 0.4
-2 -9 -4 2.23 0.38
2 9 4 2.55 0.44
2 9 4 3.89 0.49
2 9 4 3.3 0.48
-3 -9 -4 0.13 0.4
3 9 4 0.55 0.48
4 -10 -4 5.61 0.55
4 -10 -4 5.51 0.41
4 -10 -4 5.27 0.34
-4 10 4 5.21 0.46
-4 10 4 5.59 0.58
-4 10 4 5.37 0.36
-4 10 4 5.66 0.67
3 -10 -4 20.18 0.78
3 -10 -4 17.48 0.55
3 -10 -4 19.82 0.61
3 -10 -4 18.04 0.88
-3 10 4 17.75 0.58
-3 10 4 18.11 0.72
-3 10 4 18.09 0.63
-3 10 4 17.7 0.83
2 -10 -4 19.85 0.65
2 -10 -4 19.6 0.61
2 -10 -4 19.83 0.87
-2 10 4 19.21 0.69
-2 10 4 19.95 0.65
-2 10 4 19.43 0.75
-2 10 4 20.99 0.88
1 -10 -4 0.59 0.26
1 -10 -4 0.09 0.3
1 -10 -4 0.7 0.21
-1 10 4 0.05 0.29
-1 10 4 0.37 0.23
-1 10 4 0.75 0.32
-1 10 4 -0.06 0.32
0 -10 -4 4.1 0.43
0 -10 -4 3.27 0.42
0 10 4 2.78 0.44
0 10 4 3.01 0.36
0 10 4 3.07 0.39
-1 -10 -4 0.03 0.31
-1 -10 -4 0.56 0.3
1 10 4 0.18 0.35
1 10 4 0.45 0.58
1 10 4 0.15 0.29
-2 -10 -4 0.7 0.37
-2 -10 -4 0.43 0.42
2 10 4 0.05 0.47
2 10 4 0.76 0.42
3 -11 -4 21.79 0.79
3 -11 -4 21.84 0.63
-3 11 4 22.34 1.02
-3 11 4 20.07 0.66
-3 11 4 21.6 0.85
-3 11 4 20.42 0.88
2 -11 -4 47.95 1.18
2 -11 -4 49.03 1.49
2 -11 -4 48.72 1.17
-2 11 4 49.07 1.24
-2 11 4 47.41 1.21
-2 11 4 50.77 1.51
-2 11 4 50.57 1.34
1 -11 -4 3.45 0.48
1 -11 -4 3.59 0.42
-1 11 4 3.57 0.56
-1 11 4 4.27 0.48
-1 11 4 4.51 0.47
0 -11 -4 21.01 0.8
0 -11 -4 21.21 0.95
0 11 4 20.12 0.84
0 11 4 21.28 0.91
-1 -11 -4 0.19 0.31
-1 -11 -4 -0.2 0.39
1 11 4 -0.21 0.32
1 11 4 0.94 0.48
-1 12 -5 2.57 0.45
-1 12 -5 2.79 0.37
1 -12 5 2.65 0.36
1 11 -5 45.03 1.36
1 11 -5 49 1.29
-1 -11 5 45.42 1.31
0 11 -5 16.52 0.74
0 11 -5 15.68 0.72
0 -11 5 15.46 0.68
-1 11 -5 8.82 0.83
-1 11 -5 5.75 0.85
-1 11 -5 7.3 0.59
-1 11 -5 6.68 0.5
1 -11 5 8.09 0.49
-2 11 -5 61.74 1.43
-2 11 -5 59.21 1.4
-2 11 -5 61.61 1.61
2 -11 5 61.4 1.39
2 -11 5 60.31 1.39
-3 11 -5 20.14 0.66
-3 11 -5 21.58 0.79
-3 11 -5 20.75 0.67
3 -11 5 20.87 0.93
3 -11 5 21.06 0.65
3 -11 5 20.89 0.64
2 10 -5 61.43 1.72
2 10 -5 66.23 1.58
2 10 -5 63.88 1.81
-2 -10 5 62.26 1.68
1 10 -5 2.72 0.44
1 10 -5 2.97 0.41
1 10 -5 3.26 0.46
1 10 -5 4.13 0.48
-1 -10 5 2.93 0.39
0 10 -5 0.35 0.31
0 10 -5 0.55 0.29
0 10 -5 0.39 0.33
0 10 -5 0.36 0.25
0 -10 5 0.06 0.24
-1 10 -5 7.73 0.48
-1 10 -5 8.77 0.58
-1 10 -5 8.37 0.51
-1 10 -5 8.94 0.66
1 -10 5 8.45 0.47
1 -10 5 6.52 0.67
1 -10 5 8.14 0.46
-2 10 -5 18.24 0.63
-2 10 -5 19.28 0.63
-2 10 -5 19.27 0.9
-2 10 -5 18.45 0.79
-2 10 -5 17.64 0.62
-2 10 -5 17.92 0.61
-2 10 -5 16.65 0.61
2 -10 5 18.17 0.6
2 -10 5 17.8 0.59
2 -10 5 18.33 0.87
-3 10 -5 25.63 0.86
-3 10 -5 25.77 0.74
-3 10 -5 26.68 0.91
-3 10 -5 27.56 1.12
3 -10 5 24.83 0.71
3 -10 5 26.53 0.72
3 -10 5 26.19 0.96
3 -10 5 28.31 1.12
-4 10 -5 0.4 0.4
-4 10 -5 0.04 0.21
-4 10 -5 -0.01 0.25
4 -10 5 0.06 0.19
4 -10 5 -0.47 0.6
4 -10 5 -0.34 0.21
4 -10 5 0.45 0.41
3 9 -5 9.34 0.84
3 9 -5 10.97 0.78
3 9 -5 9.06 0.67
-3 -9 5 10.53 0.53
-3 -9 5 8.32 0.75
-3 -9 5 10.42 0.58
2 9 -5 0.55 0.23
2 9 -5 0.87 0.36
2 9 -5 0.21 0.36
2 9 -5 1.58 0.33
2 9 -5 0.74 0.34
-2 -9 5 0.63 0.34
-2 -9 5 0.3 0.21
-2 -9 5 0.53 0.21
1 9 -5 0.32 0.3
1 9 -5 0.48 0.28
1 9 -5 0.75 0.29
-1 -9 5 0.41 0.27
0 9 -5 23.21 0.81
0 9 -5 23.09 0.89
0 9 -5 25.25 0.81
0 9 -5 24.46 0.8
0 -9 5 25.05 0.76
0 -9 5 23.65 0.76
0 -9 5 24.62 0.93
-1 9 -5 42.25 1.25
-1 9 -5 40.9 1.04
-1 9 -5 41.32 1.06
-1 9 -5 42.27 1.16
-1 9 -5 43.66 0.91
1 -9 5 41.88 1.04
1 -9 5 42.97 1.27
1 -9 5 42.68 1.02
-2 9 -5 10.54 0.46
-2 9 -5 10.81 0.47
-2 9 -5 10.35 0.48
-2 9 -5 11.46 0.7
-2 9 -5 10.75 0.47
-2 9 -5 10.27 0.45
2 -9 5 11.2 0.45
2 -9 5 10.56 0.62
2 -9 5 10.42 0.43
2 -9 5 10.72 0.68
-3 9 -5 21.62 0.65
-3 9 -5 21.18 0.65
-3 9 -5 22.21 0.79
-3 9 -5 21.96 0.75
3 -9 5 21.53 0.62
3 -9 5 20.11 0.92
3 -9 5 22.43 0.87
3 -9 5 22.15 0.62
-4 9 -5 0.43 0.24
-4 9 -5 0.26 0.21
-4 9 -5 0.34 0.34
4 -9 5 0.38 0.19
4 -9 5 0.8 0.42
4 -9 5 0.33 0.36
4 -9 5 0.17 0.55
4 -9 5 0.97 0.23
4 8 -5 1.79 0.54
4 8 -5 1.88 0.48
4 8 -5 1.27 0.4
-4 -8 5 1.57 0.48
-4 -8 5 1.88 0.36
3 8 -5 41.64 1.2
3 8 -5 43.09 1.27
3 8 -5 42.62 1.34
3 8 -5 40.71 1.39
-3 -8 5 40.99 1.06
-3 -8 5 42.53 1.32
-3 -8 5 41.18 1.07
2 8 -5 12.92 0.46
2 8 -5 13.07 0.7
2 8 -5 12.97 0.71
2 8 -5 13.17 0.69
2 8 -5 13.39 0.61
-2 -8 5 13.04 0.67
-2 -8 5 13.42 0.45
-2 -8 5 13.03 0.45
1 8 -5 20.81 0.71
1 8 -5 20.54 0.8
1 8 -5 21.17 0.77
-1 -8 5 20.97 0.73
-1 -8 5 21.55 0.82
0 8 -5 1.88 0.29
0 8 -5 2.05 0.32
0 8 -5 2.02 0.29
0 8 -5 1.97 0.27
0 -8 5 2.1 0.25
0 -8 5 2.15 0.33
0 -8 5 1.78 0.25
-1 8 -5 72.41 1.6
-1 8 -5 71.6 1.57
-1 8 -5 73.02 1.69
-1 8 -5 74.56 1.79
1 -8 5 74.03 1.58
1 -8 5 73.84 1.79
1 -8 5 72.29 1.55
-2 8 -5 34.79 0.88
-2 8 -5 35.18 1.11
-2 8 -5 35.85 0.89
-2 8 -5 34.98 0.87
-2 8 -5 34.46 0.86
-2 8 -5 35.4 0.88
2 -8 5 34.57 1.09
2 -8 5 35.4 0.85
2 -8 5 35.1 0.84
2 -8 5 36.06 1.03
-3 8 -5 13.85 0.5
-3 8 -5 13.19 0.58
-3 8 -5 13.89 0.62
-3 8 -5 13.57 0.49
3 -8 5 13.23 0.46
3 -8 5 12.98 0.45
3 -8 5 13.26 0.69
3 -8 5 14.66 0.68
3 -8 5 13.63 0.72
-4 8 -5 9.34 0.61
-4 8 -5 8.7 0.45
-4 8 -5 8.66 0.47
4 -8 5 9.11 0.45
4 -8 5 8.7 0.73
4 -8 5 8.91 0.68
4 -8 5 8.64 0.41
-5 8 -5 4.16 0.38
-5 8 -5 4.1 0.51
5 -8 5 4.95 0.58
5 -8 5 3.84 0.53
5 -8 5 4.2 0.42
4 7 -5 -0.58 0.37
4 7 -5 -0.48 0.42
4 7 -5 -0.55 0.37
4 7 -5 -0.24 0.32
-4 -7 5 -0.01 0.27
-4 -7 5 -0.03 0.38
-4 -7 5 0.19 0.3
3 7 -5 124.07 2.65
3 7 -5 123.54 2.78
3 7 -5 121.47 2.64
3 7 -5 122.98 2.77
3 7 -5 124.22 2.7
-3 -7 5 125.11 2.69
-3 -7 5 122.4 2.72
-3 -7 5 120.18 2.52
-3 -7 5 119.53 2.53
2 7 -5 1.75 0.2
2 7 -5 1.38 0.33
2 7 -5 1.31 0.3
2 7 -5 1.78 0.29
2 7 -5 1.56 0.32
-2 -7 5 1.86 0.19
-2 -7 5 2.04 0.26
-2 -7 5 1.28 0.29
1 7 -5 258.52 5.07
1 7 -5 254.13 5.13
-1 -7 5 253.3 5.11
-1 -7 5 255.21 5.03
0 7 -5 34.34 1.01
0 7 -5 35.91 1.06
0 7 -5 33.8 0.91
0 -7 5 33.75 0.87
0 -7 5 34.2 1.01
-1 7 -5 7.01 0.42
-1 7 -5 7.73 0.36
-1 7 -5 7.72 0.26
-1 7 -5 7.66 0.48
-1 7 -5 7.09 0.35
1 -7 5 7.65 0.48
1 -7 5 7.1 0.34
1 -7 5 7.14 0.34
-2 7 -5 23.12 0.64
-2 7 -5 22.29 0.63
-2 7 -5 21.75 0.62
-2 7 -5 22.87 0.62
-2 7 -5 22.67 0.62
2 -7 5 21.05 0.8
2 -7 5 22.36 0.6
2 -7 5 22.36 0.76
2 -7 5 22.5 0.59
2 -7 5 21.65 0.79
-3 7 -5 -0.19 0.23
-3 7 -5 0.03 0.17
-3 7 -5 -0.18 0.17
-3 7 -5 -0.25 0.22
3 -7 5 -0.14 0.26
3 -7 5 0.04 0.15
3 -7 5 0.3 0.27
3 -7 5 0.14 0.26
3 -7 5 0.05 0.15
-4 7 -5 20.57 0.68
-4 7 -5 20.82 0.79
-4 7 -5 21.25 0.67
4 -7 5 21.19 0.89
4 -7 5 20.91 0.65
4 -7 5 21.57 0.88
4 -7 5 20.98 0.89
4 -7 5 20.32 0.63
-5 7 -5 14.9 0.83
-5 7 -5 14.23 0.65
5 -7 5 13.37 0.8
5 -7 5 14.61 0.86
5 -7 5 13.49 0.59
5 6 -5 -0.16 0.44
5 6 -5 -0.32 0.44
5 6 -5 -0.03 0.52
5 6 -5 0.4 0.35
-5 -6 5 -0.04 0.48
-5 -6 5 0.26 0.34
-5 -6 5 -0.58 0.46
4 6 -5 15.99 0.79
4 6 -5 15.63 0.74
4 6 -5 16.39 0.79
4 6 -5 14.86 0.71
4 6 -5 13.99 0.91
-4 -6 5 16.01 0.66
-4 -6 5 14.88 1.04
-4 -6 5 16.16 0.69
-4 -6 5 14.58 0.85
3 6 -5 51.45 2
3 6 -5 61.43 1.47
3 6 -5 58.57 1.45
3 6 -5 59.89 1.53
3 6 -5 58.52 1.45
-3 -6 5 59.7 1.48
-3 -6 5 58.96 1.34
-3 -6 5 56.67 1.63
-3 -6 5 59.61 1.33
2 6 -5 5.61 0.47
2 6 -5 5.14 0.37
2 6 -5 5.34 0.3
2 6 -5 5.16 0.45
-2 -6 5 4.77 0.59
-2 -6 5 4.77 0.43
-2 -6 5 4.78 0.27
-2 -6 5 5.04 0.27
1 6 -5 47.82 1.19
1 6 -5 47.4 1.22
-1 -6 5 46.96 1.15
-1 -6 5 47.84 1.22
0 6 -5 47.88 1.21
0 6 -5 47.69 1.13
0 -6 5 46.97 1.22
0 -6 5 49.17 1.11
-1 6 -5 20.03 0.47
-1 6 -5 20.33 0.47
-1 6 -5 20.38 0.69
-1 6 -5 19.96 0.46
-1 6 -5 19.53 0.6
1 -6 5 20.39 0.54
1 -6 5 19.55 0.69
1 -6 5 19.35 0.57
-2 6 -5 34.44 0.86
-2 6 -5 35.67 0.84
-2 6 -5 35.29 0.84
-2 6 -5 36.18 0.85
-2 6 -5 34.1 0.85
2 -6 5 34.71 0.81
2 -6 5 35.89 0.83
2 -6 5 35.19 0.97
2 -6 5 34.36 1.01
-3 6 -5 16.3 0.54
-3 6 -5 15.74 0.62
-3 6 -5 16.41 0.54
-3 6 -5 15.29 0.6
3 -6 5 17.55 0.72
3 -6 5 17.84 0.7
3 -6 5 17.11 0.69
3 -6 5 16.92 0.52
3 -6 5 16.25 0.5
-4 6 -5 9.4 0.48
-4 6 -5 9.28 0.49
-4 6 -5 9.16 0.56
4 -6 5 8.93 0.43
4 -6 5 9.77 0.61
4 -6 5 8.82 0.46
4 -6 5 9.61 0.62
4 -6 5 8.32 0.59
-5 6 -5 16.82 0.83
-5 6 -5 15.5 0.69
5 -6 5 15.1 0.77
5 -6 5 14.68 0.64
5 -6 5 15.54 0.91
5 -6 5 16.49 0.83
5 5 -5 2.72 0.49
5 5 -5 2.58 0.56
5 5 -5 1.67 0.45
5 5 -5 2.58 0.49
5 5 -5 2.52 0.36
-5 -5 5 2.13 0.38
-5 -5 5 3.26 0.54
-5 -5 5 1.88 0.49
4 5 -5 17.78 0.77
4 5 -5 17.46 0.86
4 5 -5 18.13 0.79
4 5 -5 17.3 0.75
4 5 -5 18.1 0.67
-4 -5 5 17.39 0.69
-4 -5 5 17.35 0.81
-4 -5 5 17.3 0.83
-4 -5 5 17.05 0.67
3 5 -5 1.98 0.33
3 5 -5 2.29 0.31
3 5 -5 2.5 0.33
3 5 -5 2.48 0.29
3 5 -5 2.41 0.31
-3 -5 5 2.44 0.31
-3 -5 5 2.07 0.31
-3 -5 5 2 0.3
-3 -5 5 2.07 0.26
2 5 -5 10.72 0.5
2 5 -5 9.92 0.51
2 5 -5 9.17 0.36
2 5 -5 10.12 0.47
-2 -5 5 10.08 0.49
-2 -5 5 10.53 0.49
-2 -5 5 9.94 0.48
-2 -5 5 10.08 0.35
-2 -5 5 10.54 0.35
1 5 -5 0.07 0.16
1 5 -5 0.25 0.16
-1 -5 5 0.24 0.15
-1 -5 5 0.05 0.18
0 5 -5 66.16 1.45
0 5 -5 66.3 1.52
0 -5 5 68.18 1.53
0 -5 5 65.13 1.43
-1 5 -5 51.91 1.05
-1 5 -5 50.89 1.15
-1 5 -5 51.96 1.14
-1 5 -5 52.89 1.06
-1 5 -5 51.86 1.05
1 -5 5 52.48 1.26
1 -5 5 49.64 1.26
1 -5 5 51.75 1.14
1 -5 5 53.83 1.12
-2 5 -5 1.04 0.17
-2 5 -5 1.12 0.17
-2 5 -5 1 0.16
-2 5 -5 0.89 0.16
2 -5 5 0.48 0.2
2 -5 5 1.5 0.24
2 -5 5 0.86 0.15
2 -5 5 1.09 0.18
2 -5 5 0.93 0.2
2 -5 5 1.1 0.14
-3 5 -5 318.13 6.13
-3 5 -5 323.43 6.22
-3 5 -5 321.2 6.2
-3 5 -5 317.08 6.16
3 -5 5 326.12 6.31
3 -5 5 319.39 6.35
3 -5 5 320.45 6.13
3 -5 5 318.13 6.29
3 -5 5 318.73 6.11
-4 5 -5 33.54 0.93
-4 5 -5 34.63 1.02
-4 5 -5 33.68 1.14
4 -5 5 34.84 1.11
4 -5 5 33.94 1.04
4 -5 5 36.87 1.06
4 -5 5 34.06 0.9
4 -5 5 31.47 1.05
-5 5 -5 34.21 1.12
-5 5 -5 33.9 1.04
5 -5 5 34.18 1.2
5 -5 5 31.7 0.98
5 -5 5 34.6 1.1
5 -5 5 33.37 1.15
5 4 -5 20.8 0.8
5 4 -5 22.06 0.94
5 4 -5 22.05 0.92
5 4 -5 19.77 0.96
5 4 -5 22.27 1.06
-5 -4 5 22.14 0.97
-5 -4 5 21.9 0.86
-5 -4 5 21.43 0.99
4 4 -5 6.86 0.54
4 4 -5 8.34 0.56
4 4 -5 8.22 0.63
4 4 -5 7.61 0.45
4 4 -5 6.94 0.55
-4 -4 5 8.34 0.48
-4 -4 5 7.82 0.51
-4 -4 5 8.22 0.59
-4 -4 5 7.72 0.61
3 4 -5 4.4 0.38
3 4 -5 4.69 0.46
3 4 -5 4.22 0.39
3 4 -5 4.42 0.37
3 4 -5 3.56 0.39
-3 -4 5 3.47 0.34
-3 -4 5 4.47 0.33
-3 -4 5 4.24 0.42
-3 -4 5 4.76 0.43
2 4 -5 4.79 0.38
2 4 -5 4.99 0.35
2 4 -5 4.51 0.26
-2 -4 5 4.73 0.25
-2 -4 5 4.5 0.34
-2 -4 5 4.49 0.36
-2 -4 5 4.58 0.25
-2 -4 5 4.74 0.35
1 4 -5 13.54 0.49
1 4 -5 13.49 0.48
-1 -4 5 13.81 0.47
-1 -4 5 13.27 0.49
0 4 -5 19.19 0.56
0 -4 5 18.9 0.6
0 -4 5 19.24 0.54
-1 4 -5 0 0.08
-1 4 -5 0.07 0.08
-1 4 -5 -0.09 0.1
1 -4 5 -0.13 0.14
1 -4 5 -0.09 0.14
1 -4 5 0.06 0.09
1 -4 5 0.06 0.1
-2 4 -5 45.64 1.04
-2 4 -5 47 1.06
-2 4 -5 46.45 1.04
-2 4 -5 46.27 1.05
2 -4 5 45.85 1.03
2 -4 5 47.15 1.02
2 -4 5 45.01 1.14
2 -4 5 44.77 1.06
2 -4 5 47.5 1.18
-3 4 -5 262.12 5.08
-3 4 -5 263.85 5.1
-3 4 -5 253.69 5.04
-3 4 -5 258.32 5.02
3 -4 5 264.42 5
3 -4 5 255.98 5.2
3 -4 5 263.19 5.15
3 -4 5 254.46 5.01
3 -4 5 259.37 5.15
-4 4 -5 0.54 0.27
-4 4 -5 0.36 0.22
-4 4 -5 0.07 0.25
4 -4 5 0.53 0.29
4 -4 5 -0.13 0.24
4 -4 5 0.32 0.23
4 -4 5 0.37 0.19
4 -4 5 0.04 0.24
-5 4 -5 201.11 4.17
-5 4 -5 194.71 4.09
5 -4 5 191.9 4.03
5 -4 5 196.91 4.23
5 -4 5 199.97 4.11
5 -4 5 203.99 4.27
-6 4 -5 2.52 0.46
6 -4 5 2.66 0.41
6 -4 5 3.22 0.54
6 3 -5 17.68 0.93
6 3 -5 16.28 0.96
6 3 -5 16.94 0.98
-6 -3 5 15.99 1.04
-6 -3 5 17.1 0.96
5 3 -5 18.32 0.57
5 3 -5 18.06 0.78
5 3 -5 18.43 0.9
5 3 -5 17.84 0.84
5 3 -5 17.02 0.8
-5 -3 5 17.88 0.77
-5 -3 5 17.76 0.86
-5 -3 5 18.23 0.9
4 3 -5 -0.21 0.24
4 3 -5 0.29 0.24
4 3 -5 0.86 0.31
4 3 -5 -0.07 0.28
4 3 -5 0.71 0.2
-4 -3 5 0.43 0.28
-4 -3 5 0.47 0.29
-4 -3 5 0.39 0.24
-4 -3 5 0.32 0.22
3 3 -5 16.79 0.6
3 3 -5 16.68 0.6
3 3 -5 16.28 0.64
3 3 -5 16.44 0.52
3 3 -5 15.67 0.59
-3 -3 5 16.19 0.62
-3 -3 5 16.45 0.55
-3 -3 5 16.29 0.54
-3 -3 5 16.27 0.61
2 3 -5 1.34 0.19
2 3 -5 1.56 0.22
2 3 -5 1.7 0.21
-2 -3 5 1.72 0.2
-2 -3 5 1.52 0.2
-2 -3 5 1.26 0.19
-2 -3 5 1.9 0.2
-2 -3 5 1.9 0.19
1 3 -5 393.92 7.6
1 3 -5 407.99 7.63
-1 -3 5 398.57 7.47
-1 -3 5 393.32 7.46
-1 -3 5 408.13 7.6
-1 -3 5 410.16 7.61
-1 -3 5 386.36 7.46
0 3 -5 12.49 0.41
0 -3 5 12.17 0.39
0 -3 5 12.06 0.44
-1 3 -5 78.29 1.57
-1 3 -5 80.22 1.64
-1 3 -5 78.6 1.56
1 -3 5 78.93 1.61
1 -3 5 78.04 1.7
1 -3 5 77.34 1.57
1 -3 5 76.29 1.69
-2 3 -5 34.33 0.83
-2 3 -5 34.56 0.84
-2 3 -5 33.65 0.82
2 -3 5 32.84 0.84
2 -3 5 33.88 0.92
2 -3 5 34.14 0.9
2 -3 5 33.08 0.81
-3 3 -5 160.6 3.18
-3 3 -5 165.78 3.21
-3 3 -5 144.79 3.31
3 -3 5 154.18 3.22
3 -3 5 163.12 3.29
3 -3 5 142.33 3.22
3 -3 5 164.88 3.24
-4 3 -5 40.58 1.1
-4 3 -5 41.13 1.13
4 -3 5 39.93 1.16
4 -3 5 40.59 1.06
4 -3 5 40.82 1.2
4 -3 5 42.19 1.14
-5 3 -5 64.7 1.69
-5 3 -5 62.45 1.63
5 -3 5 64 1.71
5 -3 5 64.91 1.6
5 -3 5 63.87 1.62
5 -3 5 63.27 1.75
-6 3 -5 26.92 1.1
6 -3 5 26.84 1.12
6 -3 5 26.43 1.02
6 -3 5 26.1 1.07
6 2 -5 14.46 0.86
6 2 -5 14.78 0.88
6 2 -5 14.6 0.87
-6 -2 5 15.06 0.93
-6 -2 5 16.13 0.94
5 2 -5 16.51 0.84
5 2 -5 15.67 0.79
5 2 -5 15.55 0.76
5 2 -5 16.8 0.74
-5 -2 5 16.38 0.8
-5 -2 5 15.66 0.73
-5 -2 5 17 0.82
4 2 -5 76.53 1.63
4 2 -5 81.82 1.83
4 2 -5 79.68 1.83
4 2 -5 80.88 1.88
4 2 -5 80.54 1.88
-4 -2 5 79.26 1.85
-4 -2 5 81.7 1.83
-4 -2 5 79.55 1.83
-4 -2 5 79.96 1.84
3 2 -5 22.52 0.74
3 2 -5 21.72 0.71
3 2 -5 22.7 0.69
3 2 -5 21.95 0.67
-3 -2 5 22.68 0.66
-3 -2 5 22.79 0.7
-3 -2 5 22.5 0.68
-3 -2 5 22.54 0.72
2 2 -5 518.18 9.84
2 2 -5 516.5 9.89
2 2 -5 523.92 9.85
-2 -2 5 519.77 9.81
-2 -2 5 520.45 9.82
-2 -2 5 536.4 9.87
-2 -2 5 518.97 9.82
-2 -2 5 515.77 9.8
-2 -2 5 520.96 9.87
1 2 -5 275 5.18
1 2 -5 263.33 5.06
1 2 -5 267.89 5.13
-1 -2 5 277.17 5.16
-1 -2 5 264.22 5.07
-1 -2 5 267.62 5.14
-1 -2 5 263.24 5.07
0 2 -5 2.97 0.22
0 2 -5 3.27 0.22
0 2 -5 3.56 0.16
0 2 -5 3.42 0.16
0 -2 5 3 0.2
0 -2 5 3.08 0.15
0 -2 5 3.19 0.24
0 -2 5 3.29 0.24
0 -2 5 3.19 0.23
-1 2 -5 72.65 1.48
-1 2 -5 72.33 1.47
-1 2 -5 73.82 1.53
1 -2 5 72 1.51
1 -2 5 70.06 1.48
-2 2 -5 15.73 0.51
-2 2 -5 15.63 0.49
-2 2 -5 17.06 0.51
2 -2 5 14.85 0.51
2 -2 5 15.79 0.56
2 -2 5 15.78 0.55
2 -2 5 16.07 0.49
-3 2 -5 10.73 0.46
-3 2 -5 10.06 0.46
-3 2 -5 10.27 0.48
3 -2 5 10.18 0.44
3 -2 5 10.03 0.48
3 -2 5 10.12 0.51
3 -2 5 10.67 0.47
-4 2 -5 47.15 1.27
-4 2 -5 48.63 1.26
4 -2 5 47.89 1.34
4 -2 5 48.38 1.29
4 -2 5 48.26 1.22
4 -2 5 47.91 1.26
-5 2 -5 1.41 0.35
-5 2 -5 1.46 0.38
5 -2 5 0.65 0.33
5 -2 5 1.59 0.33
5 -2 5 1.5 0.43
5 -2 5 1.03 0.39
-6 2 -5 6.1 0.62
6 -2 5 5.1 0.52
6 -2 5 5.27 0.62
6 -2 5 4.42 0.51
6 1 -5 13.27 0.82
6 1 -5 14.04 0.83
6 1 -5 12.72 0.8
-6 -1 5 12.55 0.85
-6 -1 5 12.87 0.85
5 1 -5 1.64 0.33
5 1 -5 1.99 0.35
5 1 -5 1.85 0.38
5 1 -5 2.14 0.42
-5 -1 5 1.64 0.6
-5 -1 5 2 0.36
-5 -1 5 1.63 0.34
4 1 -5 85.37 1.98
4 1 -5 86.52 1.93
4 1 -5 85.06 1.94
4 1 -5 86.74 1.91
-4 -1 5 88.49 1.96
-4 -1 5 87.28 1.98
-4 -1 5 85.71 1.92
-4 -1 5 85.15 1.94
3 1 -5 85.78 1.78
3 1 -5 82.78 1.8
3 1 -5 84.45 1.84
-3 -1 5 81.86 1.8
-3 -1 5 82.31 1.82
-3 -1 5 83.86 1.81
-3 -1 5 84.46 1.83
2 1 -5 74.51 1.57
2 1 -5 75.5 1.61
2 1 -5 73.5 1.53
-2 -1 5 75.13 1.59
-2 -1 5 72.69 1.56
-2 -1 5 72.78 1.56
-2 -1 5 75.34 1.59
-2 -1 5 73.8 1.56
1 1 -5 172.29 3.3
1 1 -5 169.77 3.28
1 1 -5 162.48 3.34
1 1 -5 172.16 3.34
-1 -1 5 170.15 3.32
-1 -1 5 171.37 3.3
-1 -1 5 166.4 3.27
-1 -1 5 173.99 3.33
0 1 -5 10 0.35
0 1 -5 9.75 0.3
0 1 -5 10.21 0.31
0 -1 5 9.88 0.33
0 -1 5 9.59 0.3
0 -1 5 10.57 0.35
0 -1 5 10.07 0.36
0 -1 5 10.49 0.34
-1 1 -5 155.29 3.05
-1 1 -5 160.49 3.07
-1 1 -5 156.33 3.09
-1 1 -5 157.49 3.06
1 -1 5 155.51 3.06
1 -1 5 157.45 3.07
1 -1 5 153.31 3.09
1 -1 5 154.37 3.12
1 -1 5 158.2 3.07
-2 1 -5 189.24 4.11
-2 1 -5 207.78 4.04
-2 1 -5 210.94 4.05
2 -1 5 209.66 4.01
2 -1 5 206.53 4.08
2 -1 5 208.78 4.07
-3 1 -5 2.47 0.33
-3 1 -5 2.52 0.27
-3 1 -5 2.61 0.28
3 -1 5 2.3 0.28
3 -1 5 2.52 0.28
3 -1 5 2.53 0.3
-4 1 -5 0.33 0.26
-4 1 -5 0.4 0.24
4 -1 5 0.62 0.24
4 -1 5 0.45 0.24
4 -1 5 0.26 0.25
4 -1 5 0.28 0.29
-5 1 -5 42.18 1.28
-5 1 -5 40.54 1.27
5 -1 5 41.03 1.23
5 -1 5 40.42 1.21
5 -1 5 40.81 1.31
5 -1 5 41.21 1.2
-6 1 -5 4.79 0.59
6 -1 5 5 0.53
6 -1 5 5.4 0.6
6 -1 5 4.86 0.53
6 0 -5 0.83 0.4
6 0 -5 0.75 0.46
6 0 -5 0.66 0.37
-6 0 5 1.25 0.45
-6 0 5 0.46 0.39
5 0 -5 5.8 0.59
5 0 -5 6.21 0.53
5 0 -5 5.77 0.51
-5 0 5 5.92 0.56
-5 0 5 6.2 0.58
4 0 -5 40.51 1.42
4 0 -5 41.46 1.16
4 0 -5 44.48 1.08
-4 0 5 45.19 1.21
-4 0 5 40.83 1.47
-4 0 5 43.58 1.16
3 0 -5 193.76 3.79
3 0 -5 190.99 3.73
3 0 -5 195.4 3.83
-3 0 5 182.75 3.96
-3 0 5 189.55 3.83
-3 0 5 193.29 3.81
-3 0 5 196.15 3.85
2 0 -5 220.66 4.2
2 0 -5 213.65 4.21
2 0 -5 211.32 4.12
2 0 -5 219.94 4.22
-2 0 5 214.02 4.23
-2 0 5 217.08 4.12
-2 0 5 216.68 4.23
-2 0 5 219.39 4.21
-2 0 5 216.54 4.19
1 0 -5 9.39 0.34
1 0 -5 9.37 0.33
1 0 -5 9.15 0.32
1 0 -5 8.79 0.33
1 0 -5 9.22 0.27
-1 0 5 8.96 0.33
-1 0 5 9.23 0.33
-1 0 5 9.13 0.32
-1 0 5 9.57 0.33
0 0 -5 37.72 0.88
0 0 -5 37.88 0.85
0 0 -5 37.49 0.86
0 0 -5 38.5 0.85
0 0 5 38.17 0.87
0 0 5 37.16 0.82
0 0 5 37.84 0.88
0 0 5 37.79 0.85
-1 0 -5 320.27 6.12
-1 0 -5 317.72 6.12
-1 0 -5 324.97 6.11
-1 0 -5 322.18 6.08
1 0 5 306.25 6.1
1 0 5 320.29 6.14
1 0 5 332.36 6.11
1 0 5 319.7 6.11
1 0 5 313.6 6.09
-2 0 -5 14.72 0.5
-2 0 -5 13.89 0.51
-2 0 -5 14.26 0.5
-2 0 -5 14.34 0.48
2 0 5 13.72 0.51
2 0 5 13.53 0.49
2 0 5 14.22 0.51
2 0 5 14.8 0.49
-3 0 -5 8.85 0.49
-3 0 -5 9.87 0.5
-3 0 -5 9.73 0.5
-3 0 -5 9.48 0.47
3 0 5 10.16 0.47
3 0 5 9.83 0.48
3 0 5 9.99 0.5
3 0 5 9.53 0.49
-4 0 -5 5.26 0.52
-4 0 -5 5.08 0.46
4 0 5 4.28 0.46
4 0 5 4.94 0.45
4 0 5 4.61 0.47
4 0 5 4.53 0.45
-5 0 -5 0.43 0.67
-5 0 -5 -0.31 0.28
5 0 5 -0.08 0.36
5 0 5 -0.06 0.29
5 0 5 -0.19 0.35
5 0 5 -0.22 0.48
-6 0 -5 0.2 0.44
6 0 5 0.13 0.45
6 0 5 0.41 0.43
6 -1 -5 27.29 1.1
6 -1 -5 25.85 0.97
6 -1 -5 25.89 0.97
-6 1 5 26.31 1.12
-6 1 5 25.91 1
5 -1 -5 34.7 1
5 -1 -5 34.53 1.03
5 -1 -5 34.03 1.1
-5 1 5 35.95 1.13
-5 1 5 35.91 1.07
4 -1 -5 25 0.77
4 -1 -5 24.42 0.82
4 -1 -5 25.75 0.79
-4 1 5 25.87 0.84
-4 1 5 25.77 0.79
3 -1 -5 236.04 4.6
3 -1 -5 237.51 4.67
-3 1 5 245.31 4.78
-3 1 5 241.13 4.75
-3 1 5 242.86 4.7
2 -1 -5 38.9 0.89
2 -1 -5 38.61 0.79
2 -1 -5 39.18 0.95
-2 1 5 36.26 0.93
-2 1 5 39.29 0.91
-2 1 5 39.13 0.83
1 -1 -5 9.28 0.35
1 -1 -5 9.63 0.23
1 -1 -5 9.63 0.32
1 -1 -5 9.77 0.36
1 -1 -5 9.88 0.36
1 -1 -5 9.48 0.23
-1 1 5 8.95 0.35
-1 1 5 9.63 0.33
-1 1 5 9.89 0.34
-1 1 5 9.8 0.33
0 -1 -5 12.07 0.39
0 -1 -5 11.42 0.4
0 -1 -5 11.86 0.37
0 -1 -5 12.22 0.4
0 1 5 11.98 0.38
0 1 5 12.05 0.34
0 1 5 12.29 0.4
0 1 5 11.39 0.4
-1 -1 -5 13.33 0.44
-1 -1 -5 12.65 0.41
-1 -1 -5 12.96 0.44
-1 -1 -5 12.98 0.44
1 1 5 11.53 0.53
1 1 5 12.71 0.42
1 1 5 11.91 0.42
1 1 5 12.78 0.42
1 1 5 12.82 0.43
-2 -1 -5 94.58 1.95
-2 -1 -5 92.22 1.99
-2 -1 -5 92.86 2
-2 -1 -5 92.42 1.99
2 1 5 92.44 1.99
2 1 5 92.19 2
2 1 5 93.04 1.96
2 1 5 93.09 1.98
-3 -1 -5 -0.19 0.2
-3 -1 -5 0.63 0.24
-3 -1 -5 0.12 0.18
-3 -1 -5 0.39 0.22
3 1 5 0.11 0.21
3 1 5 0.18 0.19
3 1 5 0.22 0.19
3 1 5 0.11 0.21
-4 -1 -5 1.97 0.34
-4 -1 -5 2.2 0.36
-4 -1 -5 1.45 0.29
4 1 5 1.99 0.32
4 1 5 1.94 0.33
4 1 5 1.8 0.36
4 1 5 1.59 0.3
4 1 5 1.55 0.31
-5 -1 -5 13.57 0.88
-5 -1 -5 14.35 0.77
5 1 5 14.2 0.74
5 1 5 13.65 0.74
5 1 5 12.85 0.79
5 1 5 14.18 0.86
6 -2 -5 2.41 0.4
6 -2 -5 1.97 0.37
6 -2 -5 2.21 0.51
-6 2 5 1.94 0.62
-6 2 5 2.06 0.39
5 -2 -5 33.01 1.07
5 -2 -5 29.94 1.12
5 -2 -5 30.99 0.9
-5 2 5 31.01 1.04
-5 2 5 27.94 1.22
4 -2 -5 15.3 0.57
4 -2 -5 16.52 0.54
4 -2 -5 15.28 0.64
-4 2 5 16.13 0.6
-4 2 5 16.65 0.69
3 -2 -5 199 3.9
3 -2 -5 206.67 3.83
3 -2 -5 193.4 3.99
-3 2 5 199.05 3.91
-3 2 5 196.15 4.02
2 -2 -5 15.62 0.52
2 -2 -5 15.04 0.44
2 -2 -5 15.28 0.53
-2 2 5 15.39 0.47
-2 2 5 13.67 0.46
1 -2 -5 35.83 0.89
1 -2 -5 36.08 0.88
1 -2 -5 35.16 0.81
-1 2 5 36.07 0.83
-1 2 5 35.81 0.84
-1 2 5 34.53 0.87
0 -2 -5 24.36 0.68
0 -2 -5 25.78 0.66
0 -2 -5 24.49 0.67
0 -2 -5 26.34 0.64
0 2 5 24.79 0.67
0 2 5 26.52 0.64
0 2 5 23.44 0.67
0 2 5 26.24 0.66
0 2 5 25.16 0.58
-1 -2 -5 131.93 2.69
-1 -2 -5 130.84 2.67
-1 -2 -5 132.27 2.63
-1 -2 -5 130.77 2.7
1 2 5 132.78 2.66
1 2 5 132.46 2.65
1 2 5 130.72 2.63
-2 -2 -5 586.65 10.97
-2 -2 -5 592.15 11
-2 -2 -5 574.02 10.97
-2 -2 -5 587.71 10.93
2 2 5 575.57 10.97
2 2 5 543.2 10.94
2 2 5 581.06 10.96
2 2 5 575.01 10.93
-3 -2 -5 53.84 1.37
-3 -2 -5 53.75 1.32
-3 -2 -5 54.22 1.37
3 2 5 54.01 1.35
3 2 5 52.64 1.37
3 2 5 54.8 1.35
3 2 5 52.88 1.33
-4 -2 -5 5.39 0.64
-4 -2 -5 4.31 0.43
-4 -2 -5 4.07 0.47
4 2 5 4.48 0.49
4 2 5 4.61 0.46
4 2 5 3.58 0.38
4 2 5 4.93 0.52
4 2 5 4.79 0.56
-5 -2 -5 3.22 0.52
-5 -2 -5 1.99 0.44
5 2 5 2.97 0.51
5 2 5 2.93 0.48
5 2 5 2.32 0.43
5 2 5 3.09 0.43
6 -3 -5 2.51 0.41
6 -3 -5 2.07 0.5
6 -3 -5 2.37 0.37
-6 3 5 2.09 0.38
5 -3 -5 6.67 0.59
5 -3 -5 6.38 0.46
5 -3 -5 5.81 0.45
-5 3 5 6.57 0.56
-5 3 5 5.14 0.47
4 -3 -5 31.65 0.84
4 -3 -5 30.15 0.96
4 -3 -5 30.28 0.78
-4 3 5 30.6 0.85
-4 3 5 30.39 0.96
3 -3 -5 1.88 0.26
3 -3 -5 2.33 0.19
3 -3 -5 1.92 0.2
-3 3 5 2.51 0.27
-3 3 5 2.12 0.19
-3 3 5 2.42 0.3
2 -3 -5 30.81 0.84
2 -3 -5 30.28 0.83
2 -3 -5 29.66 0.72
-2 3 5 29.67 0.71
1 -3 -5 320.8 6.29
1 -3 -5 326.97 6.19
1 -3 -5 323.75 6.3
-1 3 5 331.64 6.22
-1 3 5 325.82 6.21
0 -3 -5 90.03 1.92
0 -3 -5 92.91 1.85
0 -3 -5 88.99 1.93
0 3 5 92.44 1.87
0 3 5 87.02 1.9
0 3 5 88.4 1.8
-1 -3 -5 5.62 0.32
-1 -3 -5 6.03 0.35
-1 -3 -5 5.42 0.35
-1 -3 -5 6.13 0.34
1 3 5 6.15 0.34
1 3 5 5.42 0.31
1 3 5 6.2 0.36
1 3 5 5.89 0.33
-2 -3 -5 1.44 0.24
-2 -3 -5 0.67 0.22
-2 -3 -5 0.91 0.23
-2 -3 -5 0.71 0.2
2 3 5 1.03 0.23
2 3 5 0.85 0.21
2 3 5 1.21 0.22
2 3 5 0.99 0.23
-3 -3 -5 288.59 5.65
-3 -3 -5 293.38 5.71
-3 -3 -5 283.35 5.71
3 3 5 286.11 5.68
3 3 5 281.33 5.65
3 3 5 284.31 5.68
3 3 5 284.46 5.69
-4 -3 -5 12.39 0.78
-4 -3 -5 13.28 0.71
-4 -3 -5 12.79 0.75
4 3 5 13.48 0.73
4 3 5 14.37 0.8
4 3 5 13.51 0.68
4 3 5 12.85 0.7
-5 -3 -5 8.14 0.9
5 3 5 8.09 0.7
5 3 5 9.58 0.82
5 3 5 7.6 0.69
6 -4 -5 6.03 0.64
6 -4 -5 6.15 0.54
6 -4 -5 5.29 0.59
-6 4 5 5.24 0.57
5 -4 -5 1.85 0.29
5 -4 -5 2.49 0.3
5 -4 -5 2.71 0.32
5 -4 -5 2.29 0.44
-5 4 5 1.97 0.37
-5 4 5 2.57 0.32
-5 4 5 2.67 0.38
4 -4 -5 203.88 3.98
4 -4 -5 207.63 4.21
4 -4 -5 205.81 4.06
4 -4 -5 205.46 4.04
-4 4 5 208.78 4.07
-4 4 5 199.88 4.1
3 -4 -5 5.66 0.31
3 -4 -5 5.28 0.23
3 -4 -5 5.84 0.34
3 -4 -5 6.15 0.42
-3 4 5 5.51 0.32
-3 4 5 5.03 0.36
-3 4 5 5.89 0.28
-3 4 5 6.19 0.46
2 -4 -5 53.81 1.31
2 -4 -5 54.93 1.33
2 -4 -5 53.33 1.17
2 -4 -5 54.79 1.19
-2 4 5 54.05 1.19
-2 4 5 52.8 1.19
-2 4 5 55.2 1.22
1 -4 -5 98.88 1.92
1 -4 -5 96.51 2.04
-1 4 5 95.38 1.81
-1 4 5 96.61 1.94
-1 4 5 82.35 2.18
0 -4 -5 5.58 0.36
0 -4 -5 5.47 0.35
0 -4 -5 5.68 0.29
0 4 5 5.25 0.34
0 4 5 5.47 0.26
0 4 5 5.59 0.31
-1 -4 -5 75.67 1.62
-1 -4 -5 75.69 1.72
-1 -4 -5 73.17 1.69
-1 -4 -5 73.54 1.65
1 4 5 72.96 1.68
1 4 5 75.33 1.65
1 4 5 75.38 1.63
-2 -4 -5 61.6 1.5
-2 -4 -5 59.67 1.55
-2 -4 -5 60.53 1.48
-2 -4 -5 61.26 1.44
2 4 5 61.48 1.5
2 4 5 62.66 1.47
2 4 5 62.68 1.48
2 4 5 62.77 1.46
-3 -4 -5 27.89 0.98
-3 -4 -5 28.08 0.93
-3 -4 -5 29.95 0.96
3 4 5 28.78 0.96
3 4 5 26.38 0.93
3 4 5 27.61 0.95
3 4 5 28.91 0.93
-4 -4 -5 16.32 0.89
-4 -4 -5 15.17 0.84
-4 -4 -5 16.4 0.81
4 4 5 16.33 0.81
4 4 5 14.71 0.82
4 4 5 15.6 0.9
4 4 5 17.31 0.77
-5 -4 -5 12.57 1.04
5 4 5 10.65 0.83
5 4 5 10.71 0.92
5 4 5 11.08 0.73
6 -5 -5 -0.19 0.36
6 -5 -5 0.18 0.41
6 -5 -5 0.48 0.28
-6 5 5 0.23 0.29
5 -5 -5 0.15 0.35
5 -5 -5 -0.11 0.22
5 -5 -5 0.96 0.26
5 -5 -5 -0.35 0.25
-5 5 5 0.15 0.24
-5 5 5 0 0.29
-5 5 5 -0.41 0.33
4 -5 -5 5.33 0.36
4 -5 -5 5.66 0.51
4 -5 -5 5.08 0.4
4 -5 -5 4.83 0.33
-4 5 5 4.73 0.43
-4 5 5 4.92 0.37
-4 5 5 5.88 0.45
3 -5 -5 122.46 2.64
3 -5 -5 118.66 2.43
3 -5 -5 120.08 2.42
-3 5 5 122.22 2.43
-3 5 5 122.69 2.44
-3 5 5 120.2 2.33
-3 5 5 117.79 2.46
2 -5 -5 51.29 1.29
2 -5 -5 52.95 1.32
2 -5 -5 51.58 1.14
2 -5 -5 49.68 1.15
-2 5 5 52.22 1.17
-2 5 5 52.76 1.19
-2 5 5 49.18 1.22
1 -5 -5 344.43 6.79
1 -5 -5 349.62 6.64
1 -5 -5 355.75 6.82
-1 5 5 348.18 6.73
-1 5 5 346.74 6.67
-1 5 5 350.1 6.57
0 -5 -5 37.01 1
0 -5 -5 35.68 1.01
0 -5 -5 37.1 0.89
0 5 5 36.56 0.98
0 5 5 37.03 0.87
0 5 5 36.59 0.92
-1 -5 -5 118.24 2.54
-1 -5 -5 120.47 2.57
-1 -5 -5 116.67 2.45
1 5 5 118.34 2.49
1 5 5 116.52 2.44
1 5 5 116.66 2.53
-2 -5 -5 55.52 1.42
-2 -5 -5 56.35 1.39
-2 -5 -5 59.42 1.46
2 5 5 55.5 1.45
2 5 5 57.71 1.4
2 5 5 57.72 1.44
2 5 5 56.68 1.42
-3 -5 -5 0.02 0.29
-3 -5 -5 -0.08 0.33
-3 -5 -5 0.03 0.24
3 5 5 0.08 0.28
3 5 5 -0.09 0.31
3 5 5 0.16 0.26
3 5 5 -0.36 0.29
-4 -5 -5 5.44 0.62
-4 -5 -5 4.85 0.54
-4 -5 -5 5.62 0.61
4 5 5 5.2 0.65
4 5 5 4.9 0.53
4 5 5 5.9 0.63
4 5 5 5.5 0.63
5 -6 -5 22.45 0.76
5 -6 -5 23.09 0.75
5 -6 -5 22.61 0.73
5 -6 -5 24.59 1
-5 6 5 22.96 0.82
-5 6 5 22.09 0.76
-5 6 5 24.43 1.02
4 -6 -5 13.91 0.5
4 -6 -5 14.52 0.54
4 -6 -5 14.35 0.71
4 -6 -5 15.04 0.7
-4 6 5 13.37 0.52
-4 6 5 13.22 0.56
-4 6 5 14.31 0.5
3 -6 -5 136.45 2.74
3 -6 -5 140.23 2.99
-3 6 5 135.13 2.77
-3 6 5 138.61 2.79
-3 6 5 136.83 2.76
2 -6 -5 0.28 0.14
2 -6 -5 0.39 0.16
2 -6 -5 0.25 0.19
-2 6 5 0.22 0.14
-2 6 5 0.33 0.2
-2 6 5 0.43 0.18
-2 6 5 0.58 0.13
1 -6 -5 133.71 2.68
1 -6 -5 133.7 2.68
1 -6 -5 131.24 2.84
1 -6 -5 135.94 2.88
-1 6 5 137.85 2.72
-1 6 5 133.26 2.79
-1 6 5 133.33 2.71
-1 6 5 131.72 2.63
0 -6 -5 -0.11 0.17
0 -6 -5 -0.21 0.14
0 -6 -5 0.01 0.2
0 6 5 0.1 0.17
0 6 5 0.55 0.18
0 6 5 -0.07 0.17
-1 -6 -5 47.34 1.21
-1 -6 -5 48.68 1.27
1 6 5 48.55 1.19
1 6 5 47.62 1.27
1 6 5 47.98 1.27
-2 -6 -5 49.48 1.33
-2 -6 -5 47.43 1.27
-2 -6 -5 46.77 1.3
2 6 5 48.08 1.33
2 6 5 47.88 1.27
2 6 5 48.98 1.32
2 6 5 47.28 1.28
-3 -6 -5 1.08 0.41
-3 -6 -5 0.72 0.32
-3 -6 -5 -0.42 0.3
3 6 5 -0.08 0.3
3 6 5 0.31 0.34
3 6 5 -0.19 0.28
3 6 5 0.45 0.37
-4 -6 -5 1.99 0.54
-4 -6 -5 1.65 0.47
4 6 5 1.81 0.53
4 6 5 1.98 0.5
4 6 5 2.16 0.45
4 6 5 1.49 0.51
5 -7 -5 0.72 0.31
5 -7 -5 0.19 0.22
5 -7 -5 0.37 0.39
5 -7 -5 0.33 0.3
-5 7 5 0.65 0.29
-5 7 5 0.51 0.24
4 -7 -5 26.68 0.77
4 -7 -5 26.72 0.73
4 -7 -5 26.7 0.99
4 -7 -5 27.32 0.96
-4 7 5 27.24 0.76
-4 7 5 27.19 0.73
-4 7 5 26.93 0.79
-4 7 5 27.07 0.82
3 -7 -5 1.97 0.23
3 -7 -5 1.78 0.34
3 -7 -5 2.49 0.31
3 -7 -5 1.86 0.21
-3 7 5 1.83 0.23
-3 7 5 1.95 0.28
-3 7 5 2.02 0.25
-3 7 5 2.1 0.22
2 -7 -5 226.99 4.34
2 -7 -5 224.88 4.58
2 -7 -5 222.06 4.34
-2 7 5 224.34 4.38
-2 7 5 220.68 4.36
-2 7 5 223.53 4.3
-2 7 5 225.35 4.48
1 -7 -5 8 0.41
1 -7 -5 7.18 0.49
1 -7 -5 8.82 0.38
-1 7 5 8.49 0.5
-1 7 5 8.69 0.41
-1 7 5 8.73 0.39
-1 7 5 8.39 0.47
0 -7 -5 26.88 0.75
0 -7 -5 26.15 0.87
0 7 5 26.07 0.78
0 7 5 26.15 0.76
0 7 5 25.47 0.86
-1 -7 -5 45.52 1.19
-1 -7 -5 45.26 1.27
1 7 5 46.52 1.2
1 7 5 46.41 1.28
1 7 5 45.54 1.22
-2 -7 -5 101.49 2.29
-2 -7 -5 100.25 2.37
2 7 5 100.9 2.3
2 7 5 100.93 2.34
2 7 5 102.19 2.37
-3 -7 -5 0.53 0.35
-3 -7 -5 0.08 0.31
3 7 5 0.21 0.38
3 7 5 -0.2 0.34
3 7 5 -0.05 0.34
-4 -7 -5 1.56 0.51
4 7 5 1.7 0.61
5 -8 -5 0.71 0.23
-5 8 5 0.36 0.25
4 -8 -5 1.07 0.38
4 -8 -5 1.09 0.25
4 -8 -5 0.58 0.35
-4 8 5 0.24 0.26
-4 8 5 0.71 0.25
-4 8 5 1.08 0.21
-4 8 5 0.49 0.3
3 -8 -5 5.88 0.58
3 -8 -5 6.48 0.49
3 -8 -5 5.23 0.34
3 -8 -5 5 0.37
-3 8 5 4.95 0.35
-3 8 5 5.07 0.42
-3 8 5 4.94 0.38
-3 8 5 5 0.49
2 -8 -5 101.2 2.33
2 -8 -5 97.1 2.07
-2 8 5 98.47 2.05
-2 8 5 100.99 2.23
-2 8 5 100.56 2.11
1 -8 -5 32.93 0.87
1 -8 -5 32.23 0.85
1 -8 -5 32.1 1.04
-1 8 5 32.33 0.89
-1 8 5 33.54 0.93
-1 8 5 32.3 1.01
-1 8 5 32.25 0.87
0 -8 -5 79.28 1.77
0 -8 -5 78.74 1.93
0 8 5 80.18 1.78
0 8 5 80.03 1.82
0 8 5 78.74 1.92
-1 -8 -5 54.36 1.53
-1 -8 -5 55.17 1.49
1 8 5 54.34 1.4
1 8 5 53.72 1.49
1 8 5 54.32 1.6
-2 -8 -5 5.65 0.6
-2 -8 -5 5.27 0.55
2 8 5 4.58 0.55
2 8 5 5.81 0.63
2 8 5 5.77 0.66
-3 -8 -5 1.99 0.45
3 8 5 1.54 0.47
3 8 5 2.65 0.5
4 -9 -5 4.1 0.34
4 -9 -5 4.62 0.43
4 -9 -5 5.15 0.53
-4 9 5 4.25 0.39
-4 9 5 4.14 0.49
-4 9 5 4.44 0.45
-4 9 5 4.61 0.47
3 -9 -5 9.79 0.59
3 -9 -5 8.74 0.41
3 -9 -5 8.93 0.47
3 -9 -5 11.4 0.72
-3 9 5 8.92 0.61
-3 9 5 9.83 0.62
-3 9 5 8.81 0.44
-3 9 5 9.23 0.52
2 -9 -5 0.09 0.16
2 -9 -5 -0.05 0.27
2 -9 -5 0.31 0.21
-2 9 5 0.02 0.25
-2 9 5 -0.21 0.28
-2 9 5 -0.11 0.18
-2 9 5 0.95 0.27
1 -9 -5 2.27 0.37
1 -9 -5 1.71 0.3
1 -9 -5 1.85 0.25
-1 9 5 2.39 0.28
-1 9 5 2.23 0.34
-1 9 5 2.16 0.36
-1 9 5 2.44 0.32
0 -9 -5 3.7 0.44
0 -9 -5 4.35 0.42
0 9 5 2.59 0.4
0 9 5 4.03 0.46
0 9 5 3.9 0.48
-1 -9 -5 20.67 0.88
-1 -9 -5 20.97 0.81
1 9 5 21.23 0.94
1 9 5 21.73 0.87
1 9 5 21.05 0.85
-2 -9 -5 1.63 0.42
-2 -9 -5 2.21 0.41
2 9 5 1.74 0.43
2 9 5 2.58 0.45
4 -10 -5 0.31 0.2
4 -10 -5 0.26 0.44
4 -10 -5 0.73 0.26
-4 10 5 0.23 0.23
3 -10 -5 1.92 0.29
3 -10 -5 1.76 0.41
3 -10 -5 1.06 0.22
3 -10 -5 1.8 0.5
-3 10 5 1.69 0.26
-3 10 5 1.5 0.35
-3 10 5 1.69 0.32
-3 10 5 1.53 0.39
2 -10 -5 12.41 0.75
2 -10 -5 10.26 0.48
2 -10 -5 10.74 0.53
-2 10 5 11.32 0.75
-2 10 5 12.09 0.59
-2 10 5 10.8 0.52
-2 10 5 10.79 0.59
1 -10 -5 42.78 1.11
1 -10 -5 42.75 1.34
-1 10 5 43.04 1.17
-1 10 5 41.88 1.15
-1 10 5 43.65 1.34
0 -10 -5 0.51 0.27
0 -10 -5 0.88 0.36
0 10 5 1.07 0.42
0 10 5 0.89 0.32
0 10 5 0.34 0.33
-1 -10 -5 7.48 0.75
-1 -10 -5 7.31 0.6
1 10 5 7.79 0.7
1 10 5 6.65 0.65
2 -11 -5 6.36 0.43
-2 11 5 7.54 0.62
-2 11 5 5.57 0.61
-2 11 5 6.16 0.48
1 -11 -5 14.18 0.63
1 -11 -5 14.98 1
-1 11 5 13.52 0.75
-1 11 5 13.27 0.67
0 -11 -5 14.6 0.69
0 11 5 13.83 0.75
0 11 5 14.49 0.83
1 11 -6 7.48 0.64
1 11 -6 7.17 0.68
-1 -11 6 7.79 0.64
0 11 -6 13.88 0.71
0 11 -6 14.43 0.74
0 -11 6 11.83 0.66
-1 11 -6 2.48 0.44
-1 11 -6 3.18 0.36
1 -11 6 2.94 0.33
-2 11 -6 57.53 1.39
2 -11 6 56.26 1.36
2 10 -6 63.74 1.8
2 10 -6 68.31 1.69
2 10 -6 68.35 1.91
-2 -10 6 66.62 1.77
1 10 -6 22.2 0.85
1 10 -6 24.22 1.05
1 10 -6 24.11 0.93
-1 -10 6 22.49 0.87
0 10 -6 3.19 0.45
0 10 -6 3.26 0.41
0 10 -6 3.29 0.37
0 -10 6 3.07 0.36
0 -10 6 4.35 0.53
-1 10 -6 11.47 0.57
-1 10 -6 11.67 0.64
-1 10 -6 10.67 0.58
-1 10 -6 11.38 0.74
1 -10 6 10.9 0.53
1 -10 6 11.51 0.54
1 -10 6 12.45 0.77
-2 10 -6 9.05 0.43
-2 10 -6 8.35 0.52
-2 10 -6 9.12 0.42
-2 10 -6 8.94 0.67
-2 10 -6 8.15 0.73
-2 10 -6 8.94 0.5
2 -10 6 9.13 0.78
2 -10 6 9 0.46
2 -10 6 9.23 0.49
-3 10 -6 0.92 0.32
-3 10 -6 1.13 0.34
-3 10 -6 0.56 0.23
3 -10 6 1.22 0.42
3 -10 6 1.03 0.26
3 -10 6 0.79 0.21
3 9 -6 25.35 1.08
3 9 -6 25.34 1.13
3 9 -6 24.92 0.96
-3 -9 6 24.04 1.07
2 9 -6 5.92 0.66
2 9 -6 7.32 0.68
2 9 -6 5.81 0.57
2 9 -6 6.17 0.65
-2 -9 6 6.36 0.62
1 9 -6 16.22 0.79
1 9 -6 15.94 0.74
1 9 -6 16.08 0.7
-1 -9 6 16.71 0.7
0 9 -6 7.07 0.5
0 9 -6 8 0.6
0 9 -6 7.69 0.6
0 9 -6 8.17 0.55
0 -9 6 6.84 0.62
0 -9 6 7.27 0.47
0 -9 6 8.39 0.5
-1 9 -6 2.62 0.3
-1 9 -6 2.14 0.29
-1 9 -6 2.72 0.39
-1 9 -6 2.39 0.36
1 -9 6 2.55 0.27
1 -9 6 2.82 0.41
1 -9 6 2.7 0.29
-2 9 -6 59.18 1.38
-2 9 -6 60.88 1.55
-2 9 -6 58.9 1.28
-2 9 -6 60.54 1.64
-2 9 -6 57.02 1.35
-2 9 -6 60.7 1.31
-2 9 -6 58.72 1.29
2 -9 6 60.16 1.63
2 -9 6 58.76 1.35
2 -9 6 59.5 1.34
-3 9 -6 5.69 0.52
-3 9 -6 6.25 0.45
-3 9 -6 5.25 0.42
-3 9 -6 5.26 0.49
3 -9 6 6.56 0.6
3 -9 6 6.43 0.41
3 -9 6 6.43 0.67
3 -9 6 5.84 0.39
-4 9 -6 6.24 0.5
-4 9 -6 6.23 0.44
-4 9 -6 5.98 0.62
4 -9 6 5.93 0.42
4 -9 6 6.42 0.65
4 -9 6 5.6 0.42
4 -9 6 8.27 0.86
4 8 -6 10.02 0.97
4 8 -6 9.01 0.79
4 8 -6 10.99 0.81
-4 -8 6 10.09 0.63
-4 -8 6 8.75 0.91
3 8 -6 3.09 0.47
3 8 -6 2.2 0.61
3 8 -6 3.33 0.43
3 8 -6 2.94 0.42
-3 -8 6 2.62 0.3
-3 -8 6 3.7 0.41
2 8 -6 11.46 0.69
2 8 -6 11.98 0.72
2 8 -6 12.47 0.63
2 8 -6 11.48 0.69
-2 -8 6 11.46 0.66
1 8 -6 30.43 0.96
1 8 -6 29.81 0.99
1 8 -6 30.36 0.91
-1 -8 6 28.4 0.99
-1 -8 6 29.27 0.91
0 8 -6 86.97 1.95
0 8 -6 85.85 1.92
0 8 -6 86.28 2.05
0 -8 6 83.68 1.88
0 -8 6 86.04 2.05
-1 8 -6 7.43 0.49
-1 8 -6 6.75 0.53
-1 8 -6 6.84 0.43
-1 8 -6 6.89 0.42
1 -8 6 6.8 0.4
1 -8 6 6.65 0.56
1 -8 6 6.86 0.4
-2 8 -6 43.75 1.01
-2 8 -6 42.14 1.07
-2 8 -6 42.96 0.98
-2 8 -6 43.37 0.99
-2 8 -6 42.44 1.05
2 -8 6 42.36 1.25
2 -8 6 43.05 1.06
2 -8 6 41.58 1.01
-3 8 -6 73.21 1.66
-3 8 -6 71.69 1.62
-3 8 -6 71.98 1.64
-3 8 -6 72.02 1.61
3 -8 6 73.92 1.88
3 -8 6 71.36 1.59
3 -8 6 71.88 1.57
3 -8 6 74.62 1.87
3 -8 6 75.1 1.84
-4 8 -6 -0.2 0.26
-4 8 -6 -0.28 0.31
-4 8 -6 -0.07 0.22
4 -8 6 -0.15 0.32
4 -8 6 0.04 0.23
4 -8 6 0.28 0.44
4 -8 6 -0.53 0.34
4 -8 6 0.38 0.19
4 7 -6 11.71 0.94
4 7 -6 12.18 0.74
4 7 -6 13.36 0.9
4 7 -6 12.97 0.77
-4 -7 6 12.38 0.89
-4 -7 6 12.61 0.65
-4 -7 6 12.81 0.65
3 7 -6 9.04 0.57
3 7 -6 8.06 0.64
3 7 -6 7.43 0.48
3 7 -6 9.28 0.63
3 7 -6 9 0.7
3 7 -6 9.41 0.66
-3 -7 6 9.09 0.67
-3 -7 6 8.88 0.45
-3 -7 6 9.17 0.66
-3 -7 6 8.16 0.45
2 7 -6 14.91 0.69
2 7 -6 14.72 0.64
2 7 -6 14.12 0.71
-2 -7 6 14.4 0.41
-2 -7 6 15.16 0.68
1 7 -6 117.18 2.58
1 7 -6 116.4 2.49
1 7 -6 115.73 2.52
-1 -7 6 115.24 2.56
-1 -7 6 116.59 2.48
0 7 -6 60.07 1.52
0 7 -6 60.41 1.42
0 7 -6 60.08 1.45
0 -7 6 58.9 1.38
0 -7 6 61.52 1.52
-1 7 -6 12.95 0.5
-1 7 -6 11.76 0.49
-1 7 -6 12.41 0.56
-1 7 -6 12.45 0.6
1 -7 6 12.83 0.47
1 -7 6 13.16 0.48
1 -7 6 13.16 0.62
-2 7 -6 0.55 0.19
-2 7 -6 0.71 0.18
-2 7 -6 0.51 0.2
-2 7 -6 0.3 0.19
-2 7 -6 0.8 0.19
2 -7 6 0.43 0.28
2 -7 6 1.05 0.18
2 -7 6 0.93 0.29
2 -7 6 0.78 0.17
2 -7 6 0.73 0.27
-3 7 -6 76.58 1.74
-3 7 -6 77.5 1.71
-3 7 -6 76.64 1.69
-3 7 -6 76.79 1.71
3 -7 6 78.04 1.68
3 -7 6 78.6 1.91
3 -7 6 76.5 1.92
3 -7 6 77.74 1.65
3 -7 6 80.55 1.9
-4 7 -6 30.64 0.89
-4 7 -6 28.95 0.89
-4 7 -6 32.06 0.98
4 -7 6 30.16 1.07
4 -7 6 30.91 0.85
4 -7 6 31.06 1.13
4 -7 6 30.04 0.85
-5 7 -6 20.92 0.96
-5 7 -6 21.06 0.8
5 -7 6 21.18 1.03
5 -7 6 20.78 0.75
5 -7 6 21.34 0.96
5 6 -6 2.88 0.63
5 6 -6 3.2 0.45
5 6 -6 3.48 0.55
-5 -6 6 2.49 0.57
-5 -6 6 3.89 0.46
-5 -6 6 3.13 0.74
4 6 -6 50.2 1.44
4 6 -6 49.33 1.43
4 6 -6 50.82 1.45
4 6 -6 49.65 1.54
4 6 -6 50.75 1.34
-4 -6 6 49.17 1.27
-4 -6 6 51.05 1.47
-4 -6 6 50.87 1.47
-4 -6 6 49.86 1.29
3 6 -6 0.24 0.27
3 6 -6 0.99 0.35
3 6 -6 0.36 0.24
3 6 -6 0.56 0.29
3 6 -6 0.28 0.29
3 6 -6 0.49 0.28
-3 -6 6 0.43 0.19
-3 -6 6 0.8 0.31
-3 -6 6 0.59 0.32
-3 -6 6 0.98 0.23
2 6 -6 30.75 0.94
2 6 -6 29.34 0.88
2 6 -6 28.39 0.89
2 6 -6 26.94 1.15
-2 -6 6 29.95 0.67
-2 -6 6 30.27 0.92
-2 -6 6 30.01 0.9
-2 -6 6 26.5 1.04
-2 -6 6 29.95 0.67
1 6 -6 6.81 0.4
-1 -6 6 6.85 0.48
0 6 -6 1.18 0.25
0 6 -6 0.87 0.23
0 6 -6 1 0.21
0 -6 6 1.63 0.26
0 -6 6 0.88 0.21
-1 6 -6 1.58 0.21
-1 6 -6 1.93 0.28
1 -6 6 1.66 0.19
1 -6 6 2 0.2
1 -6 6 1.53 0.27
-2 6 -6 78.57 1.68
-2 6 -6 78.11 1.64
-2 6 -6 78.3 1.63
-2 6 -6 77.6 1.7
2 -6 6 80.06 1.85
2 -6 6 79.43 1.66
2 -6 6 78.18 1.86
2 -6 6 76.84 1.64
2 -6 6 78.05 1.67
2 -6 6 77.89 1.8
-3 6 -6 59.34 1.36
-3 6 -6 59.12 1.38
-3 6 -6 59.1 1.41
-3 6 -6 60.1 1.39
3 -6 6 60.01 1.32
3 -6 6 58.24 1.55
3 -6 6 60.46 1.54
3 -6 6 59.11 1.34
-4 6 -6 7.22 0.51
-4 6 -6 7.4 0.55
-4 6 -6 8.38 0.49
4 -6 6 8.32 0.64
4 -6 6 8.33 0.61
4 -6 6 6.89 0.55
4 -6 6 8.07 0.48
4 -6 6 7.32 0.43
-5 6 -6 10.42 0.77
-5 6 -6 13.01 0.67
5 -6 6 12.06 0.82
5 -6 6 12.59 0.63
5 -6 6 12.95 0.77
5 5 -6 1.54 0.47
5 5 -6 1.12 0.45
5 5 -6 1.75 0.55
5 5 -6 1.52 0.34
5 5 -6 1.08 0.53
-5 -5 6 1.74 0.63
-5 -5 6 1.04 0.48
-5 -5 6 0.89 0.33
4 5 -6 21 0.88
4 5 -6 20.96 0.75
4 5 -6 20.51 0.86
4 5 -6 19.26 0.93
4 5 -6 20.94 0.83
-4 -5 6 20.99 0.75
-4 -5 6 20.63 0.9
-4 -5 6 19.96 0.73
-4 -5 6 20.1 0.87
3 5 -6 41.36 1.12
3 5 -6 40.12 1.07
3 5 -6 41.29 1.11
3 5 -6 40.38 1.19
3 5 -6 38.8 0.99
3 5 -6 40.23 1.14
-3 -5 6 37.69 1.05
-3 -5 6 40.92 1.13
-3 -5 6 39.36 0.98
-3 -5 6 41.77 1.14
2 5 -6 32.65 0.94
2 5 -6 34.08 0.97
2 5 -6 31.61 0.9
2 5 -6 32.64 0.88
-2 -5 6 31.91 0.74
-2 -5 6 32.37 0.73
-2 -5 6 31.21 0.74
-2 -5 6 32.56 0.91
-2 -5 6 31.35 0.91
-2 -5 6 32.87 0.92
1 5 -6 171.08 3.46
1 5 -6 170.22 3.48
-1 -5 6 168.64 3.42
-1 -5 6 170.87 3.47
0 5 -6 19.58 0.62
0 5 -6 20.08 0.66
0 -5 6 19.28 0.59
0 -5 6 20.05 0.68
-1 5 -6 2.15 0.27
-1 5 -6 2.64 0.16
-1 5 -6 2.47 0.26
-1 5 -6 2.92 0.17
1 -5 6 2.41 0.18
1 -5 6 2.84 0.25
1 -5 6 2.35 0.28
1 -5 6 1.8 0.26
-2 5 -6 6.25 0.37
-2 5 -6 5.75 0.34
-2 5 -6 6.53 0.33
-2 5 -6 6.03 0.32
2 -5 6 6.37 0.33
2 -5 6 5.39 0.38
2 -5 6 6.41 0.33
2 -5 6 6.04 0.35
2 -5 6 6.85 0.45
2 -5 6 5.87 0.44
-3 5 -6 289.97 5.66
-3 5 -6 289.44 5.68
-3 5 -6 294.36 5.7
-3 5 -6 289.54 5.68
3 -5 6 292.91 5.81
3 -5 6 291.51 5.65
3 -5 6 291.33 5.62
3 -5 6 298.44 5.88
3 -5 6 292.51 5.81
-4 5 -6 59.87 1.48
-4 5 -6 59.13 1.45
-4 5 -6 55.46 1.42
4 -5 6 59.21 1.54
4 -5 6 59.13 1.38
4 -5 6 59.83 1.61
4 -5 6 59.86 1.57
4 -5 6 60.54 1.41
-5 5 -6 -0.29 0.33
-5 5 -6 -0.01 0.29
5 -5 6 -0.24 0.33
5 -5 6 0.21 0.28
5 -5 6 -0.21 0.35
5 4 -6 7.36 0.84
5 4 -6 9.49 0.71
5 4 -6 8.37 0.75
5 4 -6 8.72 0.78
-5 -4 6 8.89 0.81
-5 -4 6 7.37 0.61
-5 -4 6 9.77 0.8
4 4 -6 10.61 0.53
4 4 -6 11.48 0.65
4 4 -6 10.31 0.64
4 4 -6 10.87 0.62
4 4 -6 10.65 0.7
-4 -4 6 9.72 0.65
-4 -4 6 9.96 0.56
-4 -4 6 9.73 0.53
-4 -4 6 10.6 0.66
3 4 -6 51.71 1.33
3 4 -6 50.8 1.36
3 4 -6 54.49 1.34
3 4 -6 52.89 1.3
-3 -4 6 52.9 1.22
-3 -4 6 52.31 1.34
-3 -4 6 53.79 1.35
2 4 -6 16.05 0.63
2 4 -6 16.91 0.6
2 4 -6 17.1 0.57
2 4 -6 16.9 0.58
-2 -4 6 16.73 0.58
-2 -4 6 16.78 0.6
-2 -4 6 16.54 0.48
-2 -4 6 16.58 0.47
-2 -4 6 16.31 0.6
-2 -4 6 16.77 0.46
1 4 -6 6.77 0.36
1 4 -6 6.05 0.35
1 4 -6 5.77 0.37
-1 -4 6 6.59 0.39
-1 -4 6 6.28 0.37
-1 -4 6 6.31 0.35
0 4 -6 1.94 0.23
0 4 -6 1.66 0.2
0 -4 6 2.43 0.29
0 -4 6 1.38 0.17
-1 4 -6 28.97 0.65
-1 4 -6 28.76 0.76
-1 4 -6 29.28 0.66
1 -4 6 28.34 0.66
1 -4 6 29.14 0.83
1 -4 6 28.8 0.74
1 -4 6 28.98 0.83
-2 4 -6 44.15 1.02
-2 4 -6 45.26 1.03
-2 4 -6 44.47 1.07
2 -4 6 42.71 1.04
2 -4 6 43.82 1.04
2 -4 6 45.57 1.17
2 -4 6 45.07 1.15
2 -4 6 42.11 1.1
-3 4 -6 5.47 0.38
-3 4 -6 4.82 0.4
-3 4 -6 4.67 0.37
3 -4 6 4.76 0.33
3 -4 6 4.45 0.42
3 -4 6 3.95 0.45
3 -4 6 3.89 0.39
-4 4 -6 2.67 0.35
-4 4 -6 2.78 0.33
4 -4 6 2.99 0.37
4 -4 6 2.62 0.39
4 -4 6 2.77 0.31
4 -4 6 1.51 0.34
-5 4 -6 0.92 0.35
-5 4 -6 0.04 0.33
5 -4 6 0.02 0.33
5 -4 6 0.55 0.39
5 -4 6 0.67 0.4
5 -4 6 0.4 0.29
5 3 -6 5.56 0.62
5 3 -6 6.5 0.6
5 3 -6 6.45 0.38
5 3 -6 6.35 0.75
5 3 -6 6.47 0.66
-5 -3 6 7.11 0.69
-5 -3 6 6.89 0.72
-5 -3 6 7.12 0.61
4 3 -6 2.95 0.41
4 3 -6 3.34 0.36
4 3 -6 2.89 0.4
4 3 -6 3.28 0.37
4 3 -6 3.29 0.37
-4 -3 6 3.5 0.41
-4 -3 6 3.85 0.41
-4 -3 6 3.24 0.38
-4 -3 6 4.02 0.43
3 3 -6 13.93 0.59
3 3 -6 13.98 0.58
3 3 -6 14.45 0.64
3 3 -6 13.64 0.55
-3 -3 6 14.57 0.52
-3 -3 6 14.72 0.6
-3 -3 6 15.55 0.52
-3 -3 6 14.16 0.6
2 3 -6 99.53 2.11
2 3 -6 95.77 2.03
2 3 -6 96.26 2.05
-2 -3 6 97.27 1.96
-2 -3 6 97.85 2.06
-2 -3 6 96.89 2.02
-2 -3 6 94.09 2.06
-2 -3 6 97.59 1.96
-2 -3 6 97.2 1.96
1 3 -6 17.94 0.54
1 3 -6 18.75 0.6
-1 -3 6 18.97 0.58
-1 -3 6 18.03 0.44
-1 -3 6 19.21 0.44
-1 -3 6 18.83 0.44
-1 -3 6 17.55 0.66
-1 -3 6 18.52 0.56
0 3 -6 86.68 1.7
0 3 -6 87.17 1.7
0 3 -6 88.83 1.86
0 -3 6 87.86 1.7
0 -3 6 87.38 1.83
0 -3 6 89.24 1.89
-1 3 -6 44.07 0.96
-1 3 -6 44.24 0.95
-1 3 -6 44.28 1.04
1 -3 6 45.34 1.02
1 -3 6 42.97 1.08
1 -3 6 44.32 1.1
1 -3 6 43.75 0.97
-2 3 -6 10.44 0.42
-2 3 -6 10.31 0.4
-2 3 -6 10.18 0.4
2 -3 6 10.52 0.48
2 -3 6 9.85 0.4
2 -3 6 10.09 0.41
2 -3 6 10.05 0.48
-3 3 -6 2.12 0.26
-3 3 -6 2.9 0.34
-3 3 -6 2.3 0.28
3 -3 6 2.51 0.31
3 -3 6 2.7 0.3
3 -3 6 2.8 0.32
3 -3 6 2.72 0.33
-4 3 -6 3.47 0.44
-4 3 -6 3.56 0.44
4 -3 6 3.2 0.4
4 -3 6 3.71 0.42
4 -3 6 3.8 0.41
4 -3 6 3.48 0.39
-5 3 -6 10.61 0.72
-5 3 -6 12.07 0.74
5 -3 6 11.89 0.86
5 -3 6 11.51 0.67
5 -3 6 10.19 0.72
5 -3 6 11.22 0.78
6 2 -6 0.39 0.46
6 2 -6 0.79 0.45
6 2 -6 0.44 0.44
-6 -2 6 0.79 0.46
-6 -2 6 1.47 0.48
5 2 -6 0.58 0.38
5 2 -6 -0.52 0.31
5 2 -6 0.44 0.29
5 2 -6 0.86 0.39
-5 -2 6 0.19 0.37
-5 -2 6 -0.32 0.28
-5 -2 6 0.39 0.35
4 2 -6 1.45 0.28
4 2 -6 1.23 0.31
4 2 -6 1.44 0.35
4 2 -6 1.57 0.29
-4 -2 6 1.94 0.3
-4 -2 6 1.71 0.29
-4 -2 6 1.25 0.3
-4 -2 6 1.77 0.33
3 2 -6 2.65 0.33
3 2 -6 2.56 0.31
3 2 -6 2.47 0.3
3 2 -6 2.94 0.29
-3 -2 6 2.53 0.29
-3 -2 6 2.57 0.28
-3 -2 6 2.34 0.27
-3 -2 6 3.48 0.33
-3 -2 6 2.99 0.32
2 2 -6 623.86 11.96
2 2 -6 643.42 11.98
2 2 -6 638.72 12.04
-2 -2 6 631.88 11.94
-2 -2 6 630.4 11.94
-2 -2 6 631.1 11.93
-2 -2 6 635.37 12
-2 -2 6 624.36 11.92
-2 -2 6 656.96 12.01
1 2 -6 284.93 5.57
1 2 -6 300.43 5.65
1 2 -6 307.71 5.71
1 2 -6 288.52 5.64
-1 -2 6 288.11 5.57
-1 -2 6 291.71 5.66
-1 -2 6 295.38 5.67
-1 -2 6 300.7 5.67
0 2 -6 461.27 8.54
0 2 -6 445.04 8.42
0 2 -6 455.62 8.48
0 2 -6 443.42 8.43
0 -2 6 439.72 8.42
0 -2 6 462.22 8.51
0 -2 6 464.82 8.52
0 -2 6 408.47 8.63
0 -2 6 460.78 8.51
-1 2 -6 209.32 4.06
-1 2 -6 207.12 4
-1 2 -6 208.31 3.99
1 -2 6 204.17 4.03
1 -2 6 207.38 4.08
1 -2 6 205.33 4
-2 2 -6 70.22 1.55
-2 2 -6 70.35 1.55
-2 2 -6 70.44 1.57
2 -2 6 72.16 1.62
2 -2 6 70.44 1.62
2 -2 6 71.73 1.54
-3 2 -6 1.76 0.28
-3 2 -6 1.9 0.26
-3 2 -6 2.17 0.28
3 -2 6 1.86 0.29
3 -2 6 1.65 0.26
3 -2 6 1.43 0.23
3 -2 6 1.8 0.28
-4 2 -6 19.93 0.78
-4 2 -6 19.86 0.77
4 -2 6 19.34 0.81
4 -2 6 19.03 0.72
4 -2 6 20.27 0.77
4 -2 6 20.19 0.77
-5 2 -6 14.72 0.79
-5 2 -6 15.8 0.81
5 -2 6 15.89 0.78
5 -2 6 15.41 0.8
5 -2 6 15.31 0.79
5 -2 6 15.18 0.89
6 1 -6 11.22 0.81
6 1 -6 11.88 0.81
6 1 -6 11.75 0.78
-6 -1 6 12.05 0.84
-6 -1 6 12.78 0.89
5 1 -6 1.22 0.36
5 1 -6 1.42 0.32
5 1 -6 1.87 0.37
5 1 -6 1.52 0.39
-5 -1 6 1.44 0.38
-5 -1 6 0.56 0.51
-5 -1 6 1.51 0.36
4 1 -6 22.52 0.81
4 1 -6 21.27 0.81
4 1 -6 22.23 0.77
4 1 -6 21.4 0.7
-4 -1 6 21.94 0.77
-4 -1 6 21.82 0.81
-4 -1 6 21.62 0.79
-4 -1 6 20.57 0.77
3 1 -6 157.88 3.18
3 1 -6 161.01 3.27
3 1 -6 156.81 3.29
3 1 -6 161.15 3.25
-3 -1 6 160.87 3.24
-3 -1 6 157.74 3.1
-3 -1 6 163.22 3.27
-3 -1 6 159.05 3.24
-3 -1 6 162.61 3.26
2 1 -6 93.25 1.99
2 1 -6 94.24 1.9
2 1 -6 94.21 1.95
-2 -1 6 94.74 1.97
-2 -1 6 92.81 1.94
-2 -1 6 95.41 1.95
-2 -1 6 89.86 1.88
-2 -1 6 92.03 1.96
1 1 -6 220.45 4.28
1 1 -6 227.03 4.37
1 1 -6 218.59 4.28
1 1 -6 223.93 4.32
1 1 -6 223.23 4.3
-1 -1 6 226.62 4.34
-1 -1 6 222.97 4.33
-1 -1 6 228.07 4.35
-1 -1 6 219.2 4.29
0 1 -6 157.4 3
0 1 -6 152.76 3.06
0 1 -6 153.54 3.01
0 1 -6 156.75 3.01
0 -1 6 148.01 2.99
0 -1 6 157.91 3.05
0 -1 6 152.55 3.04
0 -1 6 149.41 3.07
0 -1 6 153.47 3.02
-1 1 -6 117.9 2.34
-1 1 -6 115.69 2.33
-1 1 -6 117.87 2.33
-1 1 -6 115.92 2.38
1 -1 6 113.98 2.37
1 -1 6 112.52 2.33
1 -1 6 115.33 2.35
1 -1 6 117.18 2.35
1 -1 6 114.58 2.41
-2 1 -6 340.65 6.58
-2 1 -6 344.25 6.56
-2 1 -6 341.46 6.58
2 -1 6 339.59 6.55
2 -1 6 340.71 6.61
2 -1 6 339.12 6.62
-3 1 -6 29.4 0.88
-3 1 -6 27.81 0.84
-3 1 -6 29.29 0.87
3 -1 6 28.61 0.87
3 -1 6 27.71 0.89
3 -1 6 28.43 0.83
3 -1 6 28.29 0.82
-4 1 -6 2.78 0.35
-4 1 -6 3.15 0.38
4 -1 6 2.8 0.34
4 -1 6 3.51 0.38
4 -1 6 3.55 0.41
4 -1 6 4.86 0.47
-5 1 -6 2.08 0.42
-5 1 -6 2.2 0.44
5 -1 6 2.59 0.41
5 -1 6 2.46 0.43
5 -1 6 1.96 0.38
5 -1 6 3.04 0.49
6 0 -6 5.57 0.65
6 0 -6 5.87 0.7
6 0 -6 4.94 0.51
-6 0 6 6.08 0.77
-6 0 6 4.95 0.54
5 0 -6 2.93 0.38
5 0 -6 2.86 0.42
5 0 -6 3.36 0.37
-5 0 6 4.02 0.42
-5 0 6 3.31 0.4
4 0 -6 82.31 1.96
4 0 -6 83.19 1.81
4 0 -6 81.71 1.87
-4 0 6 84.72 1.91
-4 0 6 82.87 1.93
-4 0 6 85.61 2.43
3 0 -6 86.81 1.79
3 0 -6 86.33 1.87
3 0 -6 87.11 1.89
-3 0 6 86.86 1.9
-3 0 6 87.42 1.92
-3 0 6 87.23 1.86
-3 0 6 86.6 1.89
-3 0 6 85.71 1.7
2 0 -6 138.28 2.67
2 0 -6 135.95 2.76
2 0 -6 137.41 2.78
2 0 -6 139.09 2.75
-2 0 6 137.32 2.75
-2 0 6 136.49 2.68
-2 0 6 131.89 2.76
-2 0 6 136.99 2.77
-2 0 6 138.95 2.78
1 0 -6 84.93 1.76
1 0 -6 85.79 1.78
1 0 -6 85.08 1.76
1 0 -6 83.5 1.68
1 0 -6 87.42 1.8
-1 0 6 85.48 1.76
-1 0 6 85.74 1.79
-1 0 6 84.07 1.77
-1 0 6 84.12 1.77
0 0 -6 126.72 2.49
0 0 -6 125.33 2.51
0 0 -6 127.44 2.53
0 0 -6 125.89 2.5
0 0 6 125.25 2.52
0 0 6 121.21 2.49
0 0 6 122.24 2.46
0 0 6 123.91 2.54
0 0 6 124.27 2.5
-1 0 -6 220.29 4.27
-1 0 -6 222.73 4.3
-1 0 -6 221.51 4.29
-1 0 -6 219.42 4.24
1 0 6 208.23 4.26
1 0 6 217.44 4.31
1 0 6 217.27 4.26
1 0 6 225.88 4.28
1 0 6 215.65 4.26
-2 0 -6 55.04 1.32
-2 0 -6 54.14 1.29
-2 0 -6 56.99 1.28
-2 0 -6 54.66 1.31
2 0 6 53.85 1.31
2 0 6 56.07 1.34
2 0 6 57.15 1.29
2 0 6 56.43 1.3
-3 0 -6 65.93 1.53
-3 0 -6 67.48 1.56
-3 0 -6 60.79 1.46
-3 0 -6 60.75 1.51
3 0 6 63.08 1.53
3 0 6 63.26 1.51
3 0 6 62.25 1.48
3 0 6 61.68 1.54
-4 0 -6 27.5 0.97
-4 0 -6 27.42 0.93
4 0 6 26.8 0.87
4 0 6 27.67 0.92
4 0 6 27.84 0.92
4 0 6 27.47 0.97
-5 0 -6 12.27 0.82
-5 0 -6 11.45 0.77
5 0 6 12.82 0.87
5 0 6 11.69 0.76
5 0 6 12.6 0.73
5 0 6 13.4 0.75
6 -1 -6 2.97 0.52
6 -1 -6 1.71 0.4
6 -1 -6 2.95 0.43
-6 1 6 2.31 0.44
-6 1 6 2.02 0.65
5 -1 -6 0.82 0.37
5 -1 -6 1.7 0.3
-5 1 6 1.85 0.35
4 -1 -6 265.13 5.25
4 -1 -6 261.17 5.13
4 -1 -6 254.91 5.05
-4 1 6 255.85 5.15
-4 1 6 265.24 5.23
3 -1 -6 243.79 4.74
3 -1 -6 242.02 4.82
3 -1 -6 238.72 4.63
-3 1 6 250.49 4.85
-3 1 6 242.13 4.76
-3 1 6 239.61 4.57
2 -1 -6 19.24 0.57
2 -1 -6 19.77 0.61
2 -1 -6 19 0.44
2 -1 -6 19.21 0.6
-2 1 6 19.29 0.59
-2 1 6 19.66 0.52
1 -1 -6 51.21 1.17
1 -1 -6 49.54 1.02
1 -1 -6 50.8 1.18
1 -1 -6 52.25 1.17
1 -1 -6 53.15 1.14
-1 1 6 50.11 1.17
-1 1 6 51.72 1.14
-1 1 6 51.85 1.14
-1 1 6 51.34 1.16
0 -1 -6 -0.02 0.1
0 -1 -6 0.06 0.1
0 -1 -6 -0.01 0.1
0 -1 -6 -0.07 0.12
0 1 6 0.1 0.11
0 1 6 0.32 0.12
0 1 6 -0.07 0.1
-1 -1 -6 152.52 3.02
-1 -1 -6 152.18 3.08
-1 -1 -6 152.29 3.07
-1 -1 -6 150.72 3.06
1 1 6 148.94 3.08
1 1 6 155.13 3.04
1 1 6 153 3.05
1 1 6 150.7 3.02
-2 -1 -6 0.83 0.19
-2 -1 -6 0.66 0.21
-2 -1 -6 0.8 0.19
-2 -1 -6 0.69 0.19
2 1 6 0.76 0.18
2 1 6 0.71 0.2
2 1 6 0.33 0.18
2 1 6 0.81 0.21
-3 -1 -6 77.81 1.79
-3 -1 -6 82.33 1.87
-3 -1 -6 79.23 1.85
3 1 6 80.47 1.84
3 1 6 81.12 1.86
3 1 6 78.69 1.86
3 1 6 78.62 1.82
-4 -1 -6 10.65 0.69
-4 -1 -6 10.47 0.61
-4 -1 -6 10.5 0.7
4 1 6 10.2 0.64
4 1 6 10.18 0.55
4 1 6 10.23 0.65
4 1 6 9.56 0.69
4 1 6 10.22 0.61
-5 -1 -6 -0.36 0.35
-5 -1 -6 0.64 0.47
5 1 6 0.17 0.41
5 1 6 -0.43 0.33
5 1 6 0.33 0.41
5 1 6 -0.11 0.36
6 -2 -6 24.62 0.96
6 -2 -6 25.03 0.94
6 -2 -6 25.03 1.06
-6 2 6 24.22 0.97
5 -2 -6 4.78 0.47
5 -2 -6 4.25 0.47
5 -2 -6 4.5 0.48
-5 2 6 5.36 0.52
-5 2 6 4.29 0.47
4 -2 -6 169.17 3.41
4 -2 -6 169.82 3.53
4 -2 -6 165.18 3.31
-4 2 6 167.7 3.44
-4 2 6 168.29 3.54
3 -2 -6 99.9 2.19
3 -2 -6 102.48 2.21
3 -2 -6 98.36 1.97
3 -2 -6 100.62 2.11
-3 2 6 100.2 1.97
-3 2 6 101.42 2.13
-3 2 6 103.83 2.24
2 -2 -6 11.17 0.47
2 -2 -6 11.23 0.47
-2 2 6 10.97 0.38
-2 2 6 10.59 0.42
1 -2 -6 20.72 0.64
1 -2 -6 21.48 0.65
1 -2 -6 22.11 0.59
-1 2 6 22.27 0.61
-1 2 6 21.89 0.6
0 -2 -6 20.76 0.63
0 -2 -6 20.73 0.58
0 -2 -6 20.64 0.61
0 -2 -6 20.6 0.63
0 2 6 20.57 0.62
0 2 6 20.86 0.6
0 2 6 21.51 0.59
0 2 6 18.86 0.54
-1 -2 -6 2.2 0.26
-1 -2 -6 1.86 0.23
-1 -2 -6 1.91 0.23
-1 -2 -6 2.3 0.22
1 2 6 1.49 0.21
1 2 6 2.04 0.24
1 2 6 1.92 0.22
1 2 6 2.09 0.26
-2 -2 -6 20.43 0.66
-2 -2 -6 19.64 0.69
-2 -2 -6 19.4 0.67
-2 -2 -6 18.69 0.68
2 2 6 19.72 0.66
2 2 6 19.28 0.68
2 2 6 18.99 0.66
2 2 6 19.96 0.68
-3 -2 -6 39.19 1.14
-3 -2 -6 39.08 1.09
-3 -2 -6 39.31 1.12
3 2 6 38.39 1.12
3 2 6 41.11 1.14
3 2 6 39.74 1.11
3 2 6 38.98 1.13
-4 -2 -6 1.23 0.37
-4 -2 -6 1.39 0.34
-4 -2 -6 0.88 0.35
4 2 6 1.24 0.31
4 2 6 0.63 0.3
4 2 6 1 0.39
4 2 6 0.3 0.33
4 2 6 1.06 0.34
-5 -2 -6 0.36 0.47
5 2 6 -0.19 0.36
5 2 6 0.32 0.35
5 2 6 0.51 0.42
6 -3 -6 0.91 0.37
6 -3 -6 1.15 0.45
6 -3 -6 0.75 0.35
-6 3 6 1.01 0.36
5 -3 -6 3.19 0.45
5 -3 -6 3.15 0.35
5 -3 -6 3.38 0.43
-5 3 6 3.62 0.45
-5 3 6 2.84 0.35
4 -3 -6 1.7 0.25
4 -3 -6 2.39 0.38
4 -3 -6 1.96 0.22
-4 3 6 1.98 0.31
-4 3 6 1.5 0.25
3 -3 -6 43.52 1.12
3 -3 -6 43.92 1.16
3 -3 -6 41.63 1.04
-3 3 6 44.47 1.2
-3 3 6 43.63 1.07
2 -3 -6 12.55 0.43
2 -3 -6 12.49 0.53
2 -3 -6 11.82 0.5
-2 3 6 12.38 0.42
-2 3 6 12.44 0.44
1 -3 -6 0.3 0.15
1 -3 -6 0.53 0.16
1 -3 -6 0.64 0.13
-1 3 6 0.66 0.14
0 -3 -6 21.11 0.67
0 -3 -6 22.36 0.62
0 -3 -6 21.83 0.69
0 -3 -6 20.98 0.65
0 3 6 23.45 0.58
0 3 6 22.05 0.64
0 3 6 22.01 0.64
0 3 6 21.69 0.66
-1 -3 -6 -0.04 0.14
-1 -3 -6 -0.37 0.14
-1 -3 -6 0.08 0.15
-1 -3 -6 -0.07 0.18
1 3 6 0.32 0.18
1 3 6 0.09 0.16
1 3 6 0.15 0.17
1 3 6 -0.14 0.16
-2 -3 -6 29.77 0.87
-2 -3 -6 30.63 0.92
-2 -3 -6 30.32 0.91
-2 -3 -6 30.62 0.99
2 3 6 31.34 0.92
2 3 6 30.4 0.89
2 3 6 31.08 0.91
2 3 6 29.76 0.87
-3 -3 -6 299.95 6.13
-3 -3 -6 309.82 6.07
-3 -3 -6 305.24 6.12
3 3 6 304.07 6.08
3 3 6 309.55 6.13
3 3 6 310.05 6.13
3 3 6 314.6 6.13
-4 -3 -6 1.47 0.4
-4 -3 -6 0.52 0.34
-4 -3 -6 1.6 0.44
4 3 6 1.46 0.4
4 3 6 1.09 0.38
4 3 6 1.2 0.32
4 3 6 0.94 0.33
4 3 6 0.7 0.41
-5 -3 -6 11.88 0.99
5 3 6 11.64 0.92
5 3 6 12.51 0.76
5 3 6 13.33 0.87
6 -4 -6 1.39 0.37
6 -4 -6 0.73 0.32
6 -4 -6 1.1 0.48
-6 4 6 0.95 0.35
5 -4 -6 0.99 0.28
5 -4 -6 0.8 0.39
-5 4 6 -0.13 0.33
-5 4 6 0.55 0.27
4 -4 -6 15.19 0.69
4 -4 -6 14.05 0.48
4 -4 -6 14.48 0.55
-4 4 6 14.26 0.57
-4 4 6 14.08 0.76
3 -4 -6 2.25 0.31
3 -4 -6 1.77 0.27
3 -4 -6 2.48 0.28
-3 4 6 2.28 0.25
-3 4 6 2.25 0.26
2 -4 -6 50.88 1.3
2 -4 -6 50.8 1.14
2 -4 -6 50.49 1.28
-2 4 6 50.62 1.17
-2 4 6 50.95 1.16
1 -4 -6 98.03 2.18
1 -4 -6 100.81 2.2
1 -4 -6 99.65 2.06
-1 4 6 101.19 2.12
-1 4 6 102.66 2.1
0 -4 -6 126.53 2.65
0 -4 -6 123.17 2.52
0 -4 -6 121.34 2.61
0 4 6 120.63 2.58
0 4 6 123.78 2.45
0 4 6 126.62 2.56
-1 -4 -6 2.89 0.27
-1 -4 -6 2.7 0.35
-1 -4 -6 2.91 0.32
-1 -4 -6 3.16 0.31
1 4 6 2.7 0.29
1 4 6 3.03 0.27
1 4 6 3.35 0.33
1 4 6 2.6 0.3
-2 -4 -6 780.72 14.37
-2 -4 -6 727.47 14.43
-2 -4 -6 770.34 14.41
2 4 6 783.5 14.42
2 4 6 747.93 14.36
2 4 6 756.41 14.37
2 4 6 742.48 14.43
-3 -4 -6 20.77 0.89
-3 -4 -6 20.62 0.82
-3 -4 -6 21.92 0.83
3 4 6 21.13 0.83
3 4 6 22.03 0.89
3 4 6 21.48 0.85
3 4 6 21.28 0.84
-4 -4 -6 11.65 0.9
-4 -4 -6 12.66 0.81
-4 -4 -6 11.96 0.73
4 4 6 11.07 0.79
4 4 6 11.36 0.86
4 4 6 12.39 0.77
4 4 6 11.63 0.74
-5 -4 -6 0.57 0.58
5 4 6 -0.29 0.42
6 -5 -6 4.27 0.58
6 -5 -6 2.93 0.39
-6 5 6 3.43 0.41
5 -5 -6 -0.23 0.23
5 -5 -6 -0.24 0.37
5 -5 -6 0.12 0.26
-5 5 6 0.09 0.37
-5 5 6 0.41 0.25
4 -5 -6 6.19 0.41
4 -5 -6 6.87 0.55
4 -5 -6 6.45 0.56
4 -5 -6 7.05 0.46
-4 5 6 6.43 0.42
-4 5 6 6.49 0.52
-4 5 6 6.99 0.34
3 -5 -6 4.16 0.35
3 -5 -6 3.95 0.45
3 -5 -6 4.16 0.41
-3 5 6 4.2 0.33
-3 5 6 3.25 0.39
-3 5 6 4.14 0.34
2 -5 -6 39.5 0.94
2 -5 -6 39.94 0.99
-2 5 6 38.45 0.99
-2 5 6 39.97 1.01
-2 5 6 39.63 0.98
1 -5 -6 0.18 0.15
1 -5 -6 0.01 0.18
1 -5 -6 -0.17 0.18
-1 5 6 0.08 0.16
-1 5 6 0.25 0.11
-1 5 6 -0.05 0.16
0 -5 -6 35.89 1.03
0 -5 -6 35.75 0.92
0 -5 -6 36.39 1.05
0 5 6 36.83 0.96
0 5 6 37.41 0.88
0 5 6 37.32 1
-1 -5 -6 5.06 0.48
-1 -5 -6 3.52 0.38
-1 -5 -6 5.23 0.39
1 5 6 4.81 0.38
1 5 6 4.37 0.43
1 5 6 4.72 0.4
1 5 6 5.08 0.6
-2 -5 -6 58.41 1.5
-2 -5 -6 57.89 1.45
-2 -5 -6 57.45 1.48
2 5 6 56.97 1.44
2 5 6 57.03 1.49
2 5 6 58.63 1.46
2 5 6 57.73 1.51
-3 -5 -6 47.42 1.37
-3 -5 -6 50.59 1.41
-3 -5 -6 48.59 1.43
3 5 6 51.04 1.4
3 5 6 46.5 1.37
3 5 6 48.18 1.39
3 5 6 48.31 1.42
-4 -5 -6 32.18 1.31
-4 -5 -6 33.26 1.24
4 5 6 35.09 1.21
4 5 6 32.06 1.22
4 5 6 31.52 1.29
4 5 6 34.38 1.23
5 -6 -6 7.38 0.71
5 -6 -6 7.16 0.45
5 -6 -6 6.17 0.47
-5 6 6 6.68 0.93
-5 6 6 7.48 0.51
4 -6 -6 8.21 0.49
4 -6 -6 8.23 0.63
4 -6 -6 9.25 0.66
4 -6 -6 8.18 0.43
-4 6 6 8.19 0.54
-4 6 6 8.87 0.48
-4 6 6 8.35 0.44
3 -6 -6 25.65 0.74
3 -6 -6 27.2 0.81
3 -6 -6 26.82 0.72
3 -6 -6 25.45 0.92
-3 6 6 25.16 0.78
-3 6 6 26.42 0.77
-3 6 6 25.63 0.75
2 -6 -6 112.07 2.34
2 -6 -6 112.47 2.53
2 -6 -6 114.19 2.33
-2 6 6 116.47 2.42
-2 6 6 115.9 2.37
-2 6 6 113.69 2.39
1 -6 -6 1.42 0.2
1 -6 -6 1.52 0.27
-1 6 6 1.38 0.25
-1 6 6 1.72 0.18
-1 6 6 2.13 0.23
0 -6 -6 65.67 1.62
0 -6 -6 64.33 1.47
0 6 6 64.67 1.58
0 6 6 66.27 1.52
0 6 6 64.9 1.43
-1 -6 -6 31.49 0.92
-1 -6 -6 30.89 0.98
1 6 6 31.2 0.89
1 6 6 31.41 0.99
1 6 6 32.06 0.95
-2 -6 -6 1.31 0.3
-2 -6 -6 0.27 0.35
-2 -6 -6 1.1 0.29
2 6 6 0.89 0.31
2 6 6 1.39 0.36
2 6 6 1.16 0.31
2 6 6 0.42 0.29
-3 -6 -6 22.13 0.95
-3 -6 -6 23.57 0.96
-3 -6 -6 22.42 1.02
3 6 6 23.88 0.97
3 6 6 23.9 0.98
3 6 6 23.33 1.01
3 6 6 23.93 0.95
-4 -6 -6 1.71 0.52
4 6 6 2.51 0.61
5 -7 -6 20.29 0.71
-5 7 6 21.99 0.75
4 -7 -6 14.58 0.81
4 -7 -6 13.9 0.6
4 -7 -6 14.02 0.75
-4 7 6 13.85 0.6
-4 7 6 13.55 0.56
-4 7 6 13.58 0.65
3 -7 -6 16.03 0.59
3 -7 -6 16.62 0.68
3 -7 -6 16.59 0.55
3 -7 -6 16.29 0.75
-3 7 6 17.36 0.66
-3 7 6 16.75 0.64
-3 7 6 16.48 0.59
2 -7 -6 22.22 0.83
2 -7 -6 22.77 0.66
2 -7 -6 22.64 0.68
-2 7 6 23.9 0.78
-2 7 6 22.19 0.73
-2 7 6 21.81 0.58
-2 7 6 22.64 0.7
1 -7 -6 15.03 0.68
1 -7 -6 16.11 0.55
-1 7 6 16.03 0.59
-1 7 6 15.44 0.67
-1 7 6 16.01 0.51
0 -7 -6 10.17 0.49
0 -7 -6 9.81 0.59
0 7 6 10.18 0.48
0 7 6 10.68 0.52
0 7 6 10.49 0.59
-1 -7 -6 56.95 1.51
-1 -7 -6 56.4 1.41
1 7 6 56.18 1.45
1 7 6 55.42 1.5
1 7 6 55.46 1.39
-2 -7 -6 6.03 0.56
-2 -7 -6 6.26 0.59
2 7 6 5.93 0.57
2 7 6 6.79 0.6
2 7 6 5.86 0.64
-3 -7 -6 15.75 0.9
-3 -7 -6 16.54 0.9
3 7 6 16.69 0.95
3 7 6 17.9 0.97
3 7 6 16.95 0.93
5 -8 -6 2.08 0.51
5 -8 -6 2.27 0.32
4 -8 -6 8.15 0.43
4 -8 -6 8.18 0.51
4 -8 -6 8.59 0.73
4 -8 -6 8.53 0.68
-4 8 6 7.72 0.56
-4 8 6 9.35 0.58
-4 8 6 8.51 0.47
3 -8 -6 83.32 1.88
3 -8 -6 81.38 1.77
3 -8 -6 81.8 1.79
3 -8 -6 84.55 2.07
-3 8 6 82.5 1.9
-3 8 6 81.97 1.84
-3 8 6 81.95 1.81
2 -8 -6 4.81 0.41
2 -8 -6 3.7 0.48
2 -8 -6 4.07 0.35
-2 8 6 4.55 0.34
-2 8 6 5.1 0.49
-2 8 6 3.93 0.45
-2 8 6 3.84 0.39
1 -8 -6 1.71 0.24
1 -8 -6 1.36 0.29
1 -8 -6 2.34 0.35
-1 8 6 2 0.27
-1 8 6 2.53 0.35
-1 8 6 1.97 0.34
0 -8 -6 6.92 0.47
0 -8 -6 7.15 0.56
0 8 6 6.54 0.48
0 8 6 7.08 0.58
0 8 6 7.31 0.49
-1 -8 -6 18.51 0.84
-1 -8 -6 18.79 0.76
1 8 6 18 0.74
1 8 6 18.2 0.85
1 8 6 17.28 0.78
-2 -8 -6 12.27 0.75
-2 -8 -6 10.93 0.74
2 8 6 11.33 0.78
2 8 6 12.22 0.79
2 8 6 11.2 0.72
-3 -8 -6 2.64 0.5
3 8 6 1.7 0.52
3 8 6 3.42 0.58
4 -9 -6 19.33 0.64
4 -9 -6 19.79 0.9
-4 9 6 19.25 0.68
-4 9 6 21.26 0.85
3 -9 -6 21.47 0.66
3 -9 -6 23.33 0.99
3 -9 -6 19.93 0.8
3 -9 -6 20.73 0.72
-3 9 6 21.78 0.78
-3 9 6 21.68 0.86
-3 9 6 21.07 0.7
-3 9 6 21.84 0.63
2 -9 -6 1.74 0.28
2 -9 -6 1.47 0.37
2 -9 -6 1.41 0.24
-2 9 6 1.43 0.28
-2 9 6 1.41 0.25
-2 9 6 1.6 0.33
-2 9 6 0.91 0.35
1 -9 -6 34.6 1.16
1 -9 -6 33.76 0.94
-1 9 6 32.8 0.98
-1 9 6 34.32 0.95
-1 9 6 35.36 1.13
0 -9 -6 7.78 0.52
0 -9 -6 6.77 0.61
0 9 6 7.33 0.56
0 9 6 6.79 0.67
0 9 6 7.82 0.56
-1 -9 -6 0.5 0.32
-1 -9 -6 0.54 0.37
1 9 6 0.72 0.34
1 9 6 0.82 0.39
1 9 6 0.92 0.36
-2 -9 -6 16.01 0.85
2 9 6 14.9 0.94
2 9 6 14.98 0.92
3 -10 -6 19.25 0.65
3 -10 -6 19.52 0.76
-3 10 6 19.56 0.69
-3 10 6 20.22 0.92
2 -10 -6 2.78 0.5
2 -10 -6 2.55 0.27
-2 10 6 3.76 0.48
-2 10 6 2.97 0.34
-2 10 6 3.13 0.36
1 -10 -6 35.06 1.25
1 -10 -6 31.67 0.95
-1 10 6 32.64 1
-1 10 6 32.74 1.19
-1 10 6 31.39 0.99
0 -10 -6 25.43 0.89
0 -10 -6 25.96 1.11
0 10 6 26.58 0.94
0 10 6 24.97 0.94
-1 -10 -6 0.18 0.33
1 10 6 0.57 0.41
1 10 6 0.61 0.38
1 -11 -6 0.27 0.27
-1 11 6 1.06 0.31
-1 11 6 0.26 0.41
0 11 -7 14.02 0.74
0 11 -7 12.61 0.77
0 -11 7 14.39 0.71
-1 11 -7 31.91 1.02
1 -11 7 31.48 0.97
-2 11 -7 0.63 0.28
-2 11 -7 1.67 0.42
2 -11 7 0.69 0.26
2 10 -7 -0.48 0.37
2 10 -7 -0.16 0.4
-2 -10 7 -0.09 0.36
1 10 -7 5.27 0.59
1 10 -7 5.61 0.56
-1 -10 7 4.21 0.44
0 10 -7 7.92 0.72
0 10 -7 8.19 0.6
0 10 -7 7.46 0.58
0 -10 7 8.98 0.75
0 -10 7 8.78 0.56
-1 10 -7 77.78 1.9
-1 10 -7 78.07 2.17
-1 10 -7 75 1.8
1 -10 7 76.32 2.16
1 -10 7 74.97 1.76
-2 10 -7 0.18 0.24
2 -10 7 0 0.21
-3 10 -7 19.82 0.72
3 -10 7 19.85 0.69
3 9 -7 45.77 1.47
3 9 -7 42.62 1.34
3 9 -7 43.21 1.51
-3 -9 7 45.6 1.45
2 9 -7 14.27 0.84
2 9 -7 13.59 0.71
2 9 -7 15.28 0.85
2 9 -7 12.68 0.86
-2 -9 7 14.04 0.78
1 9 -7 4.98 0.47
1 9 -7 3.78 0.42
1 9 -7 5.2 0.62
-1 -9 7 5.13 0.52
-1 -9 7 4.22 0.5
0 9 -7 1.63 0.35
0 9 -7 2.36 0.39
0 9 -7 1.96 0.31
0 -9 7 2.51 0.31
0 -9 7 1.53 0.39
-1 9 -7 7.12 0.54
-1 9 -7 6.43 0.61
-1 9 -7 5.65 0.47
-1 9 -7 5.86 0.53
1 -9 7 5.64 0.45
1 -9 7 5.97 0.46
1 -9 7 5.49 0.63
-2 9 -7 7.23 0.33
-2 9 -7 7.08 0.59
-2 9 -7 6.22 0.46
-2 9 -7 6.01 0.51
-2 9 -7 5.8 0.63
2 -9 7 6.35 0.42
2 -9 7 7.2 0.7
2 -9 7 5.74 0.46
-3 9 -7 30.49 0.88
-3 9 -7 30.33 0.88
-3 9 -7 29.62 0.89
-3 9 -7 29.39 0.9
3 -9 7 32.1 1.22
3 -9 7 30.35 1.08
3 -9 7 28.85 0.85
3 -9 7 29.95 0.85
-4 9 -7 5.75 0.49
4 -9 7 4.91 0.58
3 8 -7 50.36 1.56
3 8 -7 52.17 1.44
3 8 -7 53.77 1.56
3 8 -7 53.62 1.5
-3 -8 7 48.88 1.49
2 8 -7 0.74 0.34
2 8 -7 0.27 0.35
2 8 -7 1.04 0.34
-2 -8 7 0.16 0.32
1 8 -7 9.63 0.55
1 8 -7 10.36 0.62
-1 -8 7 11.3 0.66
0 8 -7 23.17 0.89
0 8 -7 22.32 0.82
0 -8 7 23.57 0.9
-1 8 -7 21.73 0.84
-1 8 -7 21.59 0.79
-1 8 -7 20.43 0.72
-1 8 -7 20.05 0.71
1 -8 7 20.45 0.68
1 -8 7 20.03 0.68
1 -8 7 20.95 0.86
-2 8 -7 2.99 0.33
-2 8 -7 2.78 0.3
-2 8 -7 2.68 0.3
-2 8 -7 3.57 0.42
-2 8 -7 2.67 0.33
-2 8 -7 3.35 0.3
2 -8 7 2.63 0.28
2 -8 7 2.71 0.4
2 -8 7 2.46 0.27
-3 8 -7 1.08 0.29
-3 8 -7 0.7 0.27
-3 8 -7 0.89 0.27
-3 8 -7 0.53 0.24
3 -8 7 1.17 0.38
3 -8 7 0.77 0.38
3 -8 7 0.65 0.23
3 -8 7 0.66 0.35
3 -8 7 0.51 0.21
-4 8 -7 0.03 0.34
-4 8 -7 0.17 0.24
4 -8 7 0.1 0.21
4 -8 7 0.9 0.45
4 -8 7 -0.29 0.34
4 7 -7 0.92 0.37
4 7 -7 0.01 0.45
4 7 -7 -0.22 0.53
4 7 -7 0.38 0.44
-4 -7 7 0.75 0.43
-4 -7 7 0.12 0.3
-4 -7 7 1.03 0.28
3 7 -7 6.82 0.62
3 7 -7 6.87 0.68
3 7 -7 5.89 0.62
3 7 -7 6.64 0.6
-3 -7 7 6.55 0.63
-3 -7 7 6.74 0.4
-3 -7 7 7.42 0.44
-3 -7 7 5.98 0.39
2 7 -7 10.55 0.62
2 7 -7 10.67 0.6
2 7 -7 10.68 0.65
-2 -7 7 8.9 0.61
-2 -7 7 9.33 0.59
1 7 -7 31.49 0.96
1 7 -7 30.92 0.99
1 7 -7 30.99 0.93
-1 -7 7 30.71 0.92
-1 -7 7 29.61 0.98
0 7 -7 48.46 1.27
0 7 -7 49.72 1.35
0 7 -7 50 1.27
0 -7 7 49.86 1.23
0 -7 7 48.1 1.34
-1 7 -7 3.91 0.35
-1 7 -7 4.7 0.46
-1 7 -7 5.05 0.4
-1 7 -7 5.09 0.46
1 -7 7 4.76 0.48
1 -7 7 4.34 0.36
1 -7 7 5.06 0.4
-2 7 -7 -0.17 0.21
-2 7 -7 -0.16 0.18
-2 7 -7 -0.2 0.17
-2 7 -7 -0.19 0.16
2 -7 7 -0.09 0.19
2 -7 7 -0.18 0.26
2 -7 7 -0.03 0.25
-3 7 -7 78.46 1.74
-3 7 -7 77.89 1.72
-3 7 -7 77.69 1.76
-3 7 -7 76.53 1.74
3 -7 7 78.35 1.73
3 -7 7 79.17 1.95
3 -7 7 77.78 1.91
3 -7 7 77.11 1.7
3 -7 7 76.66 1.97
-4 7 -7 3.79 0.44
-4 7 -7 4.37 0.53
4 -7 7 4.09 0.52
4 -7 7 4.39 0.52
4 -7 7 4.63 0.41
4 -7 7 3.93 0.57
4 6 -7 46.9 1.31
4 6 -7 47.84 1.39
4 6 -7 48.45 1.39
4 6 -7 46.52 1.48
4 6 -7 48.24 1.42
-4 -6 7 47.72 1.22
-4 -6 7 46.58 1.42
-4 -6 7 46.01 1.22
-4 -6 7 45.27 1.43
3 6 -7 8.57 0.58
3 6 -7 8.53 0.68
3 6 -7 9.27 0.61
3 6 -7 9.03 0.6
3 6 -7 9.6 0.64
-3 -6 7 8.68 0.65
-3 -6 7 9.12 0.43
-3 -6 7 9.43 0.67
-3 -6 7 8.7 0.43
-3 -6 7 9.06 0.45
2 6 -7 23.3 0.79
2 6 -7 22.96 0.85
2 6 -7 21.97 0.81
-2 -6 7 23.55 0.81
1 6 -7 12.42 0.56
1 6 -7 12.97 0.59
1 6 -7 12.75 0.61
-1 -6 7 13.55 0.57
-1 -6 7 12.83 0.61
0 6 -7 209.41 4.3
0 6 -7 213.29 4.24
0 6 -7 215.03 4.27
0 -6 7 209.61 4.32
0 -6 7 210.71 4.21
-1 6 -7 7.23 0.41
-1 6 -7 5.8 0.44
1 -6 7 6.71 0.49
1 -6 7 6.53 0.38
-2 6 -7 43.66 1
-2 6 -7 43.5 1
-2 6 -7 44.53 1.11
-2 6 -7 43.13 1.1
2 -6 7 44.22 1.2
2 -6 7 44.73 1.06
2 -6 7 43.1 1.24
2 -6 7 42.6 1.02
2 -6 7 44.98 1.23
2 -6 7 43.2 1.07
-3 6 -7 12.34 0.58
-3 6 -7 13.53 0.56
-3 6 -7 13.36 0.58
-3 6 -7 13.56 0.55
3 -6 7 13 0.55
3 -6 7 12.67 0.71
3 -6 7 12.54 0.52
3 -6 7 13.74 0.69
3 -6 7 12.84 0.68
-4 6 -7 3.32 0.38
-4 6 -7 3.86 0.45
4 -6 7 3.56 0.49
4 -6 7 2.92 0.44
4 -6 7 3.95 0.74
4 -6 7 4.25 0.41
-5 6 -7 1.5 0.44
-5 6 -7 2.05 0.37
5 -6 7 2.3 0.34
5 -6 7 2.66 0.49
5 -6 7 2.13 0.46
5 5 -7 10.07 1.2
5 5 -7 13.15 0.64
5 5 -7 11.18 0.86
5 5 -7 11.21 0.85
5 5 -7 12.63 1.04
-5 -5 7 10.94 1.18
-5 -5 7 11.55 0.72
-5 -5 7 12.82 0.93
4 5 -7 0.95 0.34
4 5 -7 1.24 0.43
4 5 -7 1.27 0.32
4 5 -7 0.72 0.38
4 5 -7 1.33 0.38
-4 -5 7 1.06 0.28
-4 -5 7 0.56 0.37
-4 -5 7 0.96 0.27
-4 -5 7 1.2 0.39
3 5 -7 1.49 0.31
3 5 -7 1.54 0.32
3 5 -7 1.69 0.32
3 5 -7 1.66 0.35
-3 -5 7 1.3 0.24
-3 -5 7 1.62 0.23
-3 -5 7 1.35 0.32
-3 -5 7 1.55 0.22
-3 -5 7 1.38 0.33
2 5 -7 99.74 2.17
2 5 -7 100.8 2.22
2 5 -7 96.06 2.1
2 5 -7 100.57 2.19
-2 -5 7 95.2 1.93
-2 -5 7 96.3 2.14
-2 -5 7 97.66 2.16
-2 -5 7 98.31 1.92
-2 -5 7 95.61 2.14
-2 -5 7 98.92 1.93
1 5 -7 36.57 0.99
1 5 -7 35.27 1
1 5 -7 35.66 0.97
-1 -5 7 35.78 1
-1 -5 7 35.82 0.97
0 5 -7 159.52 3.37
0 5 -7 164.28 3.36
0 5 -7 167.11 3.41
0 -5 7 168.06 3.34
0 -5 7 167.33 3.42
-1 5 -7 0.31 0.17
-1 5 -7 0.58 0.12
-1 5 -7 0.33 0.11
-1 5 -7 0.3 0.22
1 -5 7 0.37 0.21
1 -5 7 0.37 0.21
1 -5 7 0.4 0.12
1 -5 7 0.25 0.16
-2 5 -7 45.06 1.03
-2 5 -7 44.11 1.02
-2 5 -7 44.23 1.11
2 -5 7 45.21 1.09
2 -5 7 43.99 1.21
2 -5 7 43.3 1.18
2 -5 7 43.17 1.05
2 -5 7 45.52 1.22
-3 5 -7 10.19 0.52
-3 5 -7 9.77 0.49
-3 5 -7 9.21 0.5
-3 5 -7 8.89 0.55
3 -5 7 8.42 0.58
3 -5 7 9.72 0.47
3 -5 7 9.06 0.58
3 -5 7 10.13 0.49
3 -5 7 9.79 0.6
-4 5 -7 3.34 0.36
-4 5 -7 3.05 0.36
4 -5 7 3.92 0.43
4 -5 7 2.95 0.43
4 -5 7 3.43 0.45
4 -5 7 3.08 0.33
-5 5 -7 1.26 0.41
-5 5 -7 1.56 0.38
5 -5 7 1.36 0.45
5 -5 7 0.98 0.43
5 -5 7 1.62 0.34
5 4 -7 3.95 0.52
5 4 -7 3.8 0.49
5 4 -7 3.8 0.55
5 4 -7 3.54 0.56
-5 -4 7 3.4 0.5
-5 -4 7 4.33 0.45
-5 -4 7 4 0.56
4 4 -7 0.68 0.27
4 4 -7 0.49 0.34
4 4 -7 0.48 0.33
4 4 -7 1 0.3
4 4 -7 0.01 0.32
-4 -4 7 0.15 0.31
-4 -4 7 0.17 0.26
-4 -4 7 -0.01 0.31
-4 -4 7 0.24 0.27
3 4 -7 0.81 0.28
3 4 -7 0.9 0.27
3 4 -7 0.81 0.28
3 4 -7 1.43 0.28
-3 -4 7 1.28 0.29
-3 -4 7 1.04 0.29
-3 -4 7 1.18 0.27
-3 -4 7 1.05 0.26
-3 -4 7 1.07 0.21
2 4 -7 14.61 0.57
2 4 -7 14.18 0.62
2 4 -7 14.14 0.58
2 4 -7 14.7 0.56
-2 -4 7 13.71 0.43
-2 -4 7 13.91 0.42
-2 -4 7 13.77 0.43
-2 -4 7 14.09 0.58
-2 -4 7 13.8 0.6
-2 -4 7 14.85 0.56
1 4 -7 38.1 1.01
1 4 -7 39.3 1.01
1 4 -7 38.63 0.95
1 4 -7 36.95 0.99
-1 -4 7 38.4 1.01
-1 -4 7 37.41 0.98
-1 -4 7 38.21 0.97
0 4 -7 60.81 1.4
0 4 -7 60.01 1.49
0 4 -7 60.11 1.41
0 -4 7 59.49 1.43
0 -4 7 59.81 1.36
-1 4 -7 119.24 2.64
-1 4 -7 132.37 2.5
-1 4 -7 128.85 2.64
1 -4 7 130.28 2.7
1 -4 7 130.39 2.6
1 -4 7 127.58 2.71
1 -4 7 122.81 2.49
-2 4 -7 7.68 0.37
-2 4 -7 7.72 0.37
-2 4 -7 7.5 0.42
2 -4 7 6.09 0.45
2 -4 7 7.29 0.38
2 -4 7 6.63 0.39
2 -4 7 7.91 0.48
2 -4 7 7.45 0.49
-3 4 -7 34.79 0.98
-3 4 -7 35.85 0.98
-3 4 -7 35.86 0.96
3 -4 7 35.91 1.07
3 -4 7 34.7 1.08
3 -4 7 35.34 0.95
3 -4 7 34.87 1.04
-4 4 -7 5.16 0.51
-4 4 -7 6.06 0.51
4 -4 7 7.37 0.6
4 -4 7 6.69 0.59
4 -4 7 4.75 0.45
4 -4 7 5.93 0.56
-5 4 -7 40.8 1.3
-5 4 -7 41.49 1.31
5 -4 7 42.08 1.24
5 -4 7 43.84 1.35
5 -4 7 40.15 1.32
5 3 -7 10.1 0.74
5 3 -7 10.03 0.68
5 3 -7 9.64 0.8
5 3 -7 9.48 0.76
-5 -3 7 9.11 0.66
-5 -3 7 9.48 0.79
-5 -3 7 9.15 0.78
4 3 -7 0.27 0.34
4 3 -7 0.26 0.23
4 3 -7 0.53 0.32
4 3 -7 0.02 0.28
4 3 -7 0.09 0.25
-4 -3 7 0.04 0.29
-4 -3 7 -0.04 0.3
-4 -3 7 -0.09 0.24
-4 -3 7 0.17 0.24
3 3 -7 7.55 0.48
3 3 -7 7.88 0.46
3 3 -7 7.4 0.5
3 3 -7 7.44 0.53
-3 -3 7 7.84 0.42
-3 -3 7 7.42 0.51
-3 -3 7 6.94 0.51
-3 -3 7 7.26 0.49
-3 -3 7 7.28 0.41
2 3 -7 75.04 1.73
2 3 -7 75.22 1.65
2 3 -7 75.2 1.66
-2 -3 7 76.04 1.57
-2 -3 7 75.78 1.69
-2 -3 7 74.85 1.56
-2 -3 7 74.46 1.65
-2 -3 7 74.26 1.68
-2 -3 7 73.41 1.56
1 3 -7 57.55 1.28
1 3 -7 56.38 1.34
1 3 -7 55.58 1.3
-1 -3 7 56.06 1.32
-1 -3 7 55.29 1.16
-1 -3 7 56.53 1.16
-1 -3 7 58.83 1.32
-1 -3 7 56.18 1.3
0 3 -7 56.44 1.18
0 3 -7 57.69 1.19
0 3 -7 60 1.35
0 -3 7 57.73 1.37
0 -3 7 59.59 1.35
0 -3 7 55.99 1.18
0 -3 7 58.76 1.32
-1 3 -7 399.48 7.5
-1 3 -7 394.32 7.61
-1 3 -7 396.25 7.51
1 -3 7 395.63 7.58
1 -3 7 390.48 7.64
1 -3 7 399.55 7.67
1 -3 7 401.36 7.51
-2 3 -7 61.13 1.36
-2 3 -7 59.09 1.42
-2 3 -7 60.89 1.35
2 -3 7 61.93 1.48
2 -3 7 58.11 1.4
2 -3 7 59.86 1.43
2 -3 7 59.77 1.47
-3 3 -7 29.68 0.89
-3 3 -7 30.42 0.87
-3 3 -7 30.23 0.9
3 -3 7 29.86 0.85
3 -3 7 30.08 0.95
3 -3 7 31.07 0.93
3 -3 7 29.66 0.96
-4 3 -7 20.28 0.81
-4 3 -7 21.1 0.79
4 -3 7 19.36 0.75
4 -3 7 20.05 0.88
4 -3 7 20.35 0.83
4 -3 7 20.48 0.84
-5 3 -7 12.38 0.78
-5 3 -7 13.51 0.8
5 -3 7 13.47 0.73
5 -3 7 12.66 0.82
5 -3 7 13.76 0.78
5 2 -7 10.62 0.72
5 2 -7 11.38 0.66
-5 -2 7 11.14 0.69
-5 -2 7 10.84 0.75
4 2 -7 12.22 0.46
4 2 -7 12.69 0.65
4 2 -7 12.54 0.59
4 2 -7 11.96 0.7
4 2 -7 12.34 0.66
-4 -2 7 12.81 0.68
-4 -2 7 12.53 0.6
-4 -2 7 13.59 0.65
-4 -2 7 11.62 0.66
3 2 -7 30.67 0.93
3 2 -7 30.82 0.85
3 2 -7 31.65 0.89
3 2 -7 31.16 0.95
-3 -2 7 31.39 0.93
-3 -2 7 30.67 0.86
-3 -2 7 30.64 0.85
-3 -2 7 31.6 0.91
-3 -2 7 30.67 0.78
2 2 -7 187.55 3.74
2 2 -7 186.97 3.82
2 2 -7 190.74 3.77
2 2 -7 193.66 3.84
-2 -2 7 187.18 3.79
-2 -2 7 188.43 3.74
-2 -2 7 188.74 3.72
-2 -2 7 193.99 3.8
-2 -2 7 191.18 3.71
-2 -2 7 190.67 3.72
1 2 -7 52.59 1.18
1 2 -7 52.06 1.19
1 2 -7 51.86 1.24
1 2 -7 52.55 1.11
1 2 -7 52.34 1.12
-1 -2 7 52.02 1.21
-1 -2 7 51.54 1.22
-1 -2 7 52.99 1.22
-1 -2 7 50.13 1.11
0 2 -7 70.94 1.58
0 2 -7 70.44 1.46
0 2 -7 72.28 1.52
0 2 -7 70.06 1.46
0 -2 7 68.51 1.45
0 -2 7 70.87 1.55
0 -2 7 70.82 1.54
0 -2 7 71.36 1.54
0 -2 7 70.17 1.58
-1 2 -7 561.68 10.53
-1 2 -7 554.06 10.45
-1 2 -7 554.56 10.44
1 -2 7 548.7 10.49
1 -2 7 548.51 10.57
1 -2 7 550.19 10.53
1 -2 7 560.18 10.45
-2 2 -7 10.59 0.45
-2 2 -7 10.84 0.46
-2 2 -7 10.8 0.48
2 -2 7 10.84 0.52
2 -2 7 10.37 0.45
2 -2 7 11.47 0.52
2 -2 7 10.11 0.46
-3 2 -7 61.93 1.48
-3 2 -7 59.52 1.47
-3 2 -7 59.58 1.45
3 -2 7 58.88 1.53
3 -2 7 58.85 1.47
3 -2 7 59.77 1.51
3 -2 7 62.68 1.45
-4 2 -7 82.63 2.01
-4 2 -7 83.41 1.97
4 -2 7 80.67 1.98
4 -2 7 84.46 2
4 -2 7 82.59 2.05
4 -2 7 84.42 1.99
-5 2 -7 9.23 0.76
-5 2 -7 11.18 0.76
5 -2 7 8.45 1.03
5 -2 7 8.55 0.69
5 -2 7 9.43 0.76
6 1 -7 1.39 0.51
6 1 -7 1.5 0.43
6 1 -7 0.9 0.43
-6 -1 7 0.76 0.48
-6 -1 7 1.07 0.48
5 1 -7 27.96 0.99
5 1 -7 26.45 1.09
5 1 -7 27.75 0.92
-5 -1 7 28.01 0.99
-5 -1 7 27.16 1.01
4 1 -7 3.87 0.41
4 1 -7 4.17 0.4
4 1 -7 3.83 0.44
4 1 -7 2.99 0.38
-4 -1 7 3.52 0.41
-4 -1 7 3.56 0.37
-4 -1 7 3.68 0.43
-4 -1 7 3.67 0.48
3 1 -7 158.1 3.3
3 1 -7 161.94 3.33
3 1 -7 158.56 3.19
3 1 -7 162.2 3.26
-3 -1 7 154.37 3.25
-3 -1 7 162.78 3.28
-3 -1 7 162.01 3.29
-3 -1 7 159.13 3.12
-3 -1 7 161.4 3.26
2 1 -7 1.7 0.19
2 1 -7 1.8 0.21
2 1 -7 1.56 0.22
2 1 -7 1.95 0.24
-2 -1 7 1.9 0.22
-2 -1 7 1.84 0.21
-2 -1 7 1.77 0.21
-2 -1 7 1.59 0.2
1 1 -7 50.95 1.12
1 1 -7 49.4 1.09
1 1 -7 52.24 1.15
1 1 -7 51.01 1.11
1 1 -7 50.14 1.19
-1 -1 7 51.1 1.18
-1 -1 7 49.27 1.16
-1 -1 7 44.94 1.26
-1 -1 7 48.61 1.11
0 1 -7 193.99 3.78
0 1 -7 195.78 3.87
0 1 -7 198.31 3.81
0 1 -7 192.93 3.79
0 -1 7 194.75 3.8
0 -1 7 194.82 3.83
0 -1 7 190.93 3.86
0 -1 7 188.72 3.78
0 -1 7 199.45 3.84
-1 1 -7 2.19 0.25
-1 1 -7 1.94 0.21
-1 1 -7 1.84 0.22
-1 1 -7 1.65 0.2
1 -1 7 2.42 0.29
1 -1 7 1.93 0.21
1 -1 7 2.02 0.21
1 -1 7 1.67 0.25
1 -1 7 1.87 0.24
-2 1 -7 30.96 0.83
-2 1 -7 30.75 0.84
-2 1 -7 31.01 0.85
2 -1 7 30.75 0.84
2 -1 7 29.66 0.89
2 -1 7 29.06 0.86
2 -1 7 29.46 0.85
-3 1 -7 31.82 1.13
-3 1 -7 33.06 0.95
-3 1 -7 32.41 0.98
3 -1 7 32.23 0.94
3 -1 7 33.2 1
3 -1 7 31.15 0.93
3 -1 7 32.7 0.99
-4 1 -7 1.76 0.37
-4 1 -7 1.53 0.33
4 -1 7 1.16 0.35
4 -1 7 1.17 0.31
4 -1 7 0.73 0.3
4 -1 7 1.66 0.38
-5 1 -7 2.56 0.49
-5 1 -7 2.32 0.47
5 -1 7 2.22 0.45
5 -1 7 3.56 0.46
5 -1 7 3.16 0.45
6 0 -7 -0.01 0.41
6 0 -7 -0.29 0.37
6 0 -7 -0.61 0.36
-6 0 7 -0.17 0.42
5 0 -7 17.57 0.96
5 0 -7 17.98 0.86
5 0 -7 17.99 0.72
-5 0 7 17.77 0.82
-5 0 7 18.14 1.01
4 0 -7 17.85 1
4 0 -7 17.59 0.61
4 0 -7 18.59 0.77
4 0 -7 18.88 0.71
-4 0 7 18.27 0.73
-4 0 7 18.45 0.72
3 0 -7 126.92 2.64
3 0 -7 126.14 2.71
3 0 -7 124.53 2.53
3 0 -7 127.65 2.68
-3 0 7 128.45 2.67
-3 0 7 126.5 2.63
-3 0 7 130.03 2.7
2 0 -7 52.04 1.26
2 0 -7 54.07 1.24
-2 0 7 53.16 1.24
-2 0 7 53.91 1.18
1 0 -7 110.29 2.29
1 0 -7 114.34 2.34
1 0 -7 113.76 2.3
1 0 -7 113.12 2.31
1 0 -7 109.16 2.36
-1 0 7 108.41 2.29
-1 0 7 113.3 2.31
-1 0 7 117.31 2.34
-1 0 7 111.01 2.3
0 0 -7 227.25 4.43
0 0 -7 230.65 4.41
0 0 -7 230.41 4.46
0 0 -7 225.06 4.42
0 0 7 217.06 4.41
0 0 7 229.13 4.44
0 0 7 226.58 4.37
0 0 7 228 4.43
0 0 7 226.57 4.46
-1 0 -7 2.57 0.26
-1 0 -7 2.48 0.27
-1 0 -7 2.35 0.26
-1 0 -7 2.32 0.27
1 0 7 2.46 0.29
1 0 7 2.7 0.28
1 0 7 3.14 0.28
1 0 7 1.96 0.36
-2 0 -7 10.82 0.48
-2 0 -7 9.84 0.5
-2 0 -7 10.08 0.46
-2 0 -7 10.56 0.48
2 0 7 11.1 0.5
2 0 7 10.67 0.52
2 0 7 10.55 0.48
2 0 7 10.6 0.49
-3 0 -7 4.88 0.5
-3 0 -7 4.56 0.44
-3 0 -7 4.35 0.48
3 0 7 5 0.39
3 0 7 4.33 0.47
3 0 7 4.94 0.45
3 0 7 4.75 0.47
3 0 7 4.92 0.5
-4 0 -7 4.98 0.61
-4 0 -7 5.42 0.52
4 0 7 6.27 0.57
4 0 7 6.63 0.65
4 0 7 5.63 0.56
4 0 7 5.08 0.5
4 0 7 5.43 0.54
-5 0 -7 1.04 0.44
5 0 7 1.42 0.42
5 0 7 1.66 0.42
5 0 7 1.08 0.4
6 -1 -7 0.01 0.37
6 -1 -7 0.25 0.41
6 -1 -7 0.8 0.37
-6 1 7 1.3 0.42
5 -1 -7 11.1 0.71
5 -1 -7 11.63 0.59
5 -1 -7 11.54 0.66
-5 1 7 12.52 0.72
-5 1 7 11.22 0.67
4 -1 -7 15.84 0.65
4 -1 -7 15.15 0.54
4 -1 -7 14.87 0.71
-4 1 7 14.82 0.67
-4 1 7 15.25 0.65
3 -1 -7 47.72 1.15
3 -1 -7 46.87 1.21
3 -1 -7 47.36 1.2
-3 1 7 41.27 1.07
-3 1 7 47.97 1.23
-3 1 7 46.93 1.17
2 -1 -7 2.84 0.16
2 -1 -7 2.8 0.27
2 -1 -7 2.64 0.3
2 -1 -7 2.75 0.32
2 -1 -7 2.6 0.31
-2 1 7 3.29 0.34
-2 1 7 2.33 0.28
-2 1 7 2.93 0.26
1 -1 -7 0.8 0.11
1 -1 -7 0.73 0.17
1 -1 -7 0.8 0.17
1 -1 -7 1.25 0.2
1 -1 -7 0.71 0.15
-1 1 7 0.99 0.17
-1 1 7 0.43 0.19
-1 1 7 0.62 0.15
0 -1 -7 4.79 0.32
0 -1 -7 4.53 0.33
0 -1 -7 4.6 0.31
0 -1 -7 4.37 0.29
0 1 7 4.55 0.31
0 1 7 4.19 0.32
0 1 7 4.02 0.25
0 1 7 4.63 0.31
-1 -1 -7 12.12 0.51
-1 -1 -7 12.09 0.48
-1 -1 -7 11.51 0.47
-1 -1 -7 11.46 0.45
1 1 7 11.05 0.5
1 1 7 13.74 0.5
1 1 7 10.64 0.47
-2 -1 -7 43.1 1.08
-2 -1 -7 43.57 1.14
-2 -1 -7 41.05 1.1
-2 -1 -7 41.91 1.13
2 1 7 42.88 1.11
2 1 7 42.32 1.11
2 1 7 42.55 1.14
2 1 7 43.09 1.1
-3 -1 -7 11.17 0.64
-3 -1 -7 10.87 0.6
-3 -1 -7 11.77 0.6
3 1 7 11.74 0.62
3 1 7 11.6 0.62
3 1 7 12.14 0.63
3 1 7 11.93 0.62
3 1 7 11.41 0.61
-4 -1 -7 5.2 0.57
-4 -1 -7 5.3 0.5
-4 -1 -7 4.35 0.5
4 1 7 4.8 0.54
4 1 7 5.53 0.6
4 1 7 5.44 0.59
4 1 7 5.03 0.48
4 1 7 4.62 0.51
-5 -1 -7 0.44 0.45
5 1 7 0.96 0.43
5 1 7 1.26 0.42
5 1 7 1.58 0.47
6 -2 -7 0.07 0.35
6 -2 -7 0.68 0.38
6 -2 -7 0.21 0.39
-6 2 7 0.31 0.37
5 -2 -7 2.25 0.36
5 -2 -7 2.54 0.32
5 -2 -7 2.41 0.44
-5 2 7 1.92 0.39
-5 2 7 1.7 0.34
4 -2 -7 114.43 2.43
4 -2 -7 112.08 2.27
4 -2 -7 112.38 2.55
-4 2 7 114.31 2.45
-4 2 7 114.1 2.55
3 -2 -7 2.13 0.33
3 -2 -7 2.12 0.3
3 -2 -7 1.93 0.27
-3 2 7 2.77 0.35
-3 2 7 2.59 0.26
-3 2 7 2.29 0.34
2 -2 -7 1.35 0.23
2 -2 -7 0.82 0.16
2 -2 -7 0.92 0.21
-2 2 7 0.71 0.17
-2 2 7 0.82 0.17
1 -2 -7 39.22 1.02
1 -2 -7 39.27 1.04
1 -2 -7 41.6 1.01
1 -2 -7 42.51 0.98
-1 2 7 41.75 0.99
-1 2 7 40.37 1
-1 2 7 40.87 1.01
0 -2 -7 0.21 0.17
0 -2 -7 0.41 0.15
0 -2 -7 0.69 0.18
0 -2 -7 1.08 0.2
0 2 7 0.4 0.16
0 2 7 0.23 0.16
0 2 7 0.41 0.16
-1 -2 -7 41.92 1.1
-1 -2 -7 41.9 1.08
-1 -2 -7 42.13 1.03
-1 -2 -7 41.24 1.08
1 2 7 42.45 1.06
1 2 7 41.8 1.1
1 2 7 41.09 1.06
-2 -2 -7 19.1 0.72
-2 -2 -7 18.18 0.81
-2 -2 -7 19.03 0.68
-2 -2 -7 19.74 0.69
2 2 7 19.75 0.71
2 2 7 19.38 0.68
2 2 7 19.14 0.69
-3 -2 -7 73.79 1.81
-3 -2 -7 74.74 1.84
-3 -2 -7 73.66 1.76
3 2 7 75.8 1.82
3 2 7 74.01 1.79
3 2 7 74.82 1.81
3 2 7 73.89 1.8
-4 -2 -7 4.39 0.52
-4 -2 -7 4.24 0.49
-4 -2 -7 5.22 0.61
4 2 7 4.87 0.59
4 2 7 4.68 0.49
4 2 7 4.3 0.52
4 2 7 3.78 0.47
4 2 7 5.28 0.64
-5 -2 -7 35.83 1.44
5 2 7 35.32 1.17
5 2 7 34.09 1.31
5 2 7 35.54 1.28
6 -3 -7 0.49 0.33
6 -3 -7 0.34 0.43
6 -3 -7 0.53 0.35
-6 3 7 0.06 0.34
5 -3 -7 23.6 0.74
5 -3 -7 23.63 0.96
5 -3 -7 23.5 0.85
-5 3 7 22.78 0.86
-5 3 7 24.99 0.99
4 -3 -7 24.14 0.78
4 -3 -7 26.29 0.91
4 -3 -7 24.13 0.62
-4 3 7 25.58 0.81
3 -3 -7 0.75 0.22
3 -3 -7 0.78 0.24
3 -3 -7 0.96 0.28
-3 3 7 0.59 0.17
2 -3 -7 45.41 1.19
2 -3 -7 43.52 1.15
2 -3 -7 43.65 1.05
-2 3 7 45.01 1.09
-2 3 7 44 1.04
1 -3 -7 9.94 0.46
1 -3 -7 10.26 0.48
1 -3 -7 9.05 0.39
-1 3 7 9.53 0.43
-1 3 7 9.46 0.42
0 -3 -7 3.47 0.34
0 -3 -7 3.24 0.31
0 -3 -7 3.31 0.37
0 -3 -7 3.45 0.29
0 3 7 3.24 0.32
0 3 7 3.43 0.25
0 3 7 3.42 0.32
0 3 7 3.06 0.34
-1 -3 -7 106.74 2.34
-1 -3 -7 106.57 2.31
-1 -3 -7 108.64 2.37
-1 -3 -7 107.49 2.27
1 3 7 108.56 2.28
1 3 7 104.49 2.33
1 3 7 109.7 2.31
1 3 7 107.65 2.25
-2 -3 -7 11.16 0.57
-2 -3 -7 9.47 0.55
-2 -3 -7 9.85 0.61
2 3 7 10.58 0.58
2 3 7 10.36 0.59
2 3 7 10.53 0.55
2 3 7 10.44 0.58
-3 -3 -7 84.05 2.04
-3 -3 -7 83.16 1.97
-3 -3 -7 84.76 2.03
3 3 7 82.14 2.02
3 3 7 82.45 1.99
3 3 7 84.93 2.03
3 3 7 87.03 2.02
-4 -3 -7 3.95 0.49
-4 -3 -7 3.52 0.55
-4 -3 -7 2.95 0.44
4 3 7 3.28 0.52
4 3 7 3.1 0.49
4 3 7 4.24 0.51
4 3 7 3.97 0.41
4 3 7 3.99 0.47
5 -4 -7 -0.21 0.25
5 -4 -7 -0.21 0.36
5 -4 -7 0.22 0.24
-5 4 7 -0.09 0.36
-5 4 7 0.45 0.27
4 -4 -7 20.21 0.83
4 -4 -7 19.94 0.8
4 -4 -7 18.82 0.77
-4 4 7 21.11 0.86
3 -4 -7 1.28 0.3
3 -4 -7 1.18 0.3
-3 4 7 1.34 0.21
-3 4 7 1.27 0.22
2 -4 -7 4.37 0.32
2 -4 -7 4.19 0.41
-2 4 7 4.87 0.36
-2 4 7 4.36 0.34
1 -4 -7 15.47 0.52
1 -4 -7 14.8 0.59
1 -4 -7 14.26 0.61
-1 4 7 14.29 0.53
-1 4 7 15.72 0.57
0 -4 -7 7.54 0.45
0 -4 -7 8.08 0.4
0 -4 -7 7.65 0.48
0 4 7 7.24 0.33
0 4 7 7.1 0.42
0 4 7 6.74 0.44
-1 -4 -7 39.27 1.09
-1 -4 -7 39.76 1.03
-1 -4 -7 39.11 1.08
1 4 7 38.35 1.04
1 4 7 39.1 1
1 4 7 39.43 1.1
1 4 7 37.58 1.05
-2 -4 -7 196.48 4.03
-2 -4 -7 196.01 4.07
-2 -4 -7 192.05 4.09
2 4 7 201.35 4.04
2 4 7 193.1 4.09
2 4 7 199.61 4.03
2 4 7 203.62 4.09
-3 -4 -7 97.86 2.39
-3 -4 -7 100.83 2.33
-3 -4 -7 103.3 2.4
3 4 7 103.94 2.39
3 4 7 103.69 2.36
3 4 7 99.86 2.34
3 4 7 100.19 2.39
-4 -4 -7 27.34 1.14
-4 -4 -7 28.53 1.24
4 4 7 30.77 0.98
4 4 7 29.26 1.13
4 4 7 28.57 1.18
4 4 7 29.82 1.24
4 4 7 28.39 1.15
5 -5 -7 1.39 0.3
5 -5 -7 1.19 0.54
-5 5 7 1.09 0.29
-5 5 7 1.11 0.45
4 -5 -7 18.91 0.8
4 -5 -7 20.22 0.88
4 -5 -7 18.23 0.66
4 -5 -7 18.58 0.7
-4 5 7 18.89 0.78
-4 5 7 18.97 0.71
-4 5 7 19.36 0.57
3 -5 -7 77.25 1.69
3 -5 -7 76.37 1.77
3 -5 -7 76.2 1.88
-3 5 7 76.52 1.89
-3 5 7 78.6 1.67
-3 5 7 76.64 1.73
2 -5 -7 9.17 0.53
2 -5 -7 9.25 0.42
-2 5 7 8.95 0.46
-2 5 7 9.59 0.45
1 -5 -7 0.49 0.17
1 -5 -7 0.19 0.2
-1 5 7 0.01 0.19
-1 5 7 0.21 0.17
0 -5 -7 13.11 0.55
0 -5 -7 14.34 0.63
0 5 7 13.52 0.6
0 5 7 13.03 0.59
0 5 7 13.52 0.48
-1 -5 -7 24.67 0.86
-1 -5 -7 26.26 0.88
1 5 7 25.65 0.78
1 5 7 24.95 0.88
1 5 7 26.32 0.85
-2 -5 -7 62.45 2.14
-2 -5 -7 73.36 1.8
-2 -5 -7 72.51 1.81
2 5 7 73.59 1.76
2 5 7 74.1 1.74
2 5 7 75.41 1.82
-3 -5 -7 31.48 1.11
-3 -5 -7 30.34 1.18
-3 -5 -7 26.91 1.42
3 5 7 25.42 1.57
3 5 7 32.72 1.11
3 5 7 31.3 1.06
3 5 7 31.28 1.1
-4 -5 -7 16.62 1.55
-4 -5 -7 19.41 1.14
4 5 7 16.5 1.36
4 5 7 18.88 1.06
5 -6 -7 11.16 1.19
5 -6 -7 11.52 0.58
-5 6 7 10.68 0.6
4 -6 -7 5.78 0.47
4 -6 -7 5.52 0.58
4 -6 -7 5.98 0.62
-4 6 7 5.15 0.54
-4 6 7 5.13 0.45
-4 6 7 5.13 0.48
3 -6 -7 86.59 1.89
3 -6 -7 87.04 2.1
3 -6 -7 85.72 1.89
3 -6 -7 88.3 1.97
-3 6 7 87.63 1.9
-3 6 7 87.29 1.93
-3 6 7 83.32 1.94
2 -6 -7 86.01 2.07
2 -6 -7 88.13 1.88
-2 6 7 89.23 1.96
-2 6 7 86.92 1.92
1 -6 -7 46.3 1.14
1 -6 -7 47.38 1.3
-1 6 7 47.48 1.18
-1 6 7 44.63 1.03
-1 6 7 47.6 1.23
0 -6 -7 41.23 1.21
0 -6 -7 42.77 1.09
0 6 7 42.35 1.13
0 6 7 42.84 1.03
0 6 7 41.16 1.18
-1 -6 -7 11.83 0.64
-1 -6 -7 12.3 0.6
1 6 7 12.14 0.63
1 6 7 12.73 0.58
1 6 7 12.61 0.66
-2 -6 -7 39.82 1.24
-2 -6 -7 38 1.16
-2 -6 -7 37.18 1.22
2 6 7 38.66 1.22
2 6 7 38.8 1.15
2 6 7 37.58 1.2
2 6 7 39.24 1.21
-3 -6 -7 7.42 0.77
-3 -6 -7 6.96 0.7
-3 -6 -7 7.28 0.74
3 6 7 7.87 0.81
3 6 7 7.94 0.81
3 6 7 5.76 0.71
3 6 7 6.74 0.76
5 -7 -7 13 0.62
5 -7 -7 13.62 0.85
4 -7 -7 13.88 0.57
4 -7 -7 14.9 0.86
4 -7 -7 15.2 0.79
-4 7 7 13.81 0.62
-4 7 7 12.44 0.59
3 -7 -7 106.17 2.47
3 -7 -7 106.89 2.3
3 -7 -7 104.37 2.23
3 -7 -7 104.77 2.21
-3 7 7 103.27 2.24
-3 7 7 99.81 2.27
-3 7 7 103.52 2.27
2 -7 -7 0.52 0.27
2 -7 -7 0.78 0.2
2 -7 -7 0.81 0.25
-2 7 7 0.37 0.21
-2 7 7 0.39 0.29
-2 7 7 0.68 0.28
1 -7 -7 80.33 1.79
1 -7 -7 79.21 1.95
-1 7 7 80.24 1.88
-1 7 7 75.13 1.81
-1 7 7 78.52 1.63
0 -7 -7 6.04 0.45
0 -7 -7 6.35 0.53
0 7 7 5.98 0.48
0 7 7 5.92 0.44
0 7 7 5.51 0.54
-1 -7 -7 0.09 0.27
-1 -7 -7 0.18 0.28
1 7 7 0.3 0.29
1 7 7 0.37 0.27
1 7 7 0.12 0.31
-2 -7 -7 0.23 0.32
-2 -7 -7 -0.26 0.3
2 7 7 0.75 0.35
2 7 7 0.3 0.34
2 7 7 0.24 0.35
3 7 7 -0.29 0.43
3 7 7 -0.11 0.75
4 -8 -7 9.8 0.49
4 -8 -7 10.69 0.74
-4 8 7 10.36 0.56
-4 8 7 9.95 0.65
3 -8 -7 27.58 0.87
3 -8 -7 25.58 1.05
3 -8 -7 28.35 0.92
3 -8 -7 27.44 0.8
-3 8 7 26.81 0.89
-3 8 7 27.89 0.94
-3 8 7 27.23 0.83
2 -8 -7 50.47 1.44
2 -8 -7 47.54 1.2
2 -8 -7 47.33 1.19
-2 8 7 49.23 1.24
-2 8 7 49.01 1.28
-2 8 7 44.71 1.07
-2 8 7 49.37 1.33
1 -8 -7 12.02 0.55
1 -8 -7 12.58 0.69
-1 8 7 10.97 0.68
-1 8 7 11.38 0.57
-1 8 7 11.99 0.5
0 -8 -7 65.97 1.75
0 -8 -7 64.7 1.58
0 8 7 63.96 1.62
0 8 7 63.62 1.52
0 8 7 68.26 1.75
-1 -8 -7 2.05 0.42
-1 -8 -7 2.2 0.36
1 8 7 2.51 0.44
1 8 7 2.6 0.41
1 8 7 2.54 0.39
-2 -8 -7 1.04 0.39
2 8 7 0.97 0.42
2 8 7 1.12 0.42
4 -9 -7 20.27 0.69
-4 9 7 19.59 0.72
3 -9 -7 -0.01 0.37
3 -9 -7 0.76 0.22
-3 9 7 0.53 0.34
-3 9 7 0.74 0.27
2 -9 -7 -0.22 0.2
2 -9 -7 0.08 0.36
-2 9 7 0.33 0.22
-2 9 7 0.19 0.23
-2 9 7 0.41 0.34
1 -9 -7 1.54 0.37
1 -9 -7 1.54 0.27
-1 9 7 1.85 0.31
-1 9 7 1.13 0.29
-1 9 7 1.31 0.39
0 -9 -7 44.05 1.41
0 -9 -7 41.18 1.2
0 9 7 43.51 1.39
0 9 7 41.77 1.25
0 9 7 43.57 1.18
-1 -9 -7 8.84 0.67
1 9 7 8.83 0.73
1 9 7 9.79 0.7
2 -10 -7 1.28 0.28
-2 10 7 1.99 0.33
-2 10 7 1.53 0.44
1 -10 -7 3.22 0.36
-1 10 7 4.26 0.85
-1 10 7 2.47 0.37
-1 10 7 2.53 0.38
0 -10 -7 7.49 0.61
0 10 7 8.89 0.69
0 10 7 6.75 0.65
1 10 -8 8.43 0.68
1 10 -8 7.69 0.72
-1 -10 8 7.7 0.64
0 10 -8 12.35 0.74
0 10 -8 11.98 0.7
0 -10 8 12.59 0.67
-1 10 -8 3.47 0.52
-1 10 -8 2.81 0.38
1 -10 8 3.32 0.36
-2 10 -8 7.51 0.65
-2 10 -8 7.35 0.54
2 -10 8 6.22 0.49
2 9 -8 16.01 0.91
2 9 -8 17.45 0.81
-2 -9 8 17.06 0.86
1 9 -8 2.56 0.43
1 9 -8 2.46 0.46
1 9 -8 2.97 0.43
-1 -9 8 2.58 0.38
-1 -9 8 2.4 0.48
0 9 -8 43.72 1.28
0 9 -8 46.44 1.4
0 9 -8 44.57 1.29
0 -9 8 44.55 1.41
0 -9 8 45.18 1.24
-1 9 -8 0.48 0.33
-1 9 -8 0.45 0.26
-1 9 -8 0.71 0.38
1 -9 8 0.83 0.4
1 -9 8 0.26 0.24
-2 9 -8 10.37 0.72
-2 9 -8 10.07 0.56
2 -9 8 9.6 0.52
2 -9 8 10.71 0.8
-3 9 -8 1.44 0.31
3 -9 8 1.38 0.27
3 8 -8 3.57 0.55
3 8 -8 3.7 0.51
3 8 -8 2.58 0.51
-3 -8 8 3.64 0.52
2 8 -8 44.17 1.34
2 8 -8 40.44 1.33
2 8 -8 42.77 1.27
-2 -8 8 42.77 1.29
-2 -8 8 42.96 1.33
1 8 -8 6.5 0.58
1 8 -8 6.46 0.54
1 8 -8 7.06 0.6
-1 -8 8 5.81 0.53
-1 -8 8 6.91 0.65
0 8 -8 8.42 0.56
0 8 -8 7.88 0.6
0 8 -8 8.16 0.57
0 -8 8 7.7 0.54
0 -8 8 9.17 0.66
-1 8 -8 0.45 0.29
-1 8 -8 0.65 0.26
-1 8 -8 0.64 0.3
-1 8 -8 0.38 0.3
1 -8 8 0.53 0.23
1 -8 8 0.91 0.25
1 -8 8 0.62 0.33
-2 8 -8 11.52 0.69
-2 8 -8 11.49 0.6
-2 8 -8 11.89 0.58
2 -8 8 10.98 0.54
2 -8 8 12.23 0.74
2 -8 8 11.92 0.54
-3 8 -8 25.99 0.79
-3 8 -8 24.39 0.8
-3 8 -8 24.26 0.83
3 -8 8 24.99 1.36
3 -8 8 24.93 0.8
3 -8 8 25.72 0.98
3 -8 8 26.61 1.14
-4 8 -8 6.61 0.63
-4 8 -8 6.59 0.54
4 -8 8 7.01 0.68
4 -8 8 6.19 0.49
4 7 -8 14.57 0.88
4 7 -8 17.01 1.14
4 7 -8 14.57 0.84
-4 -7 8 14.55 0.97
3 7 -8 2.2 0.44
3 7 -8 2.52 0.42
3 7 -8 2.23 0.46
-3 -7 8 2.61 0.27
-3 -7 8 2.48 0.3
-3 -7 8 2.49 0.44
2 7 -8 11.11 0.63
2 7 -8 10.86 0.69
2 7 -8 9.24 0.62
-2 -7 8 10.13 0.64
-2 -7 8 11.47 0.68
1 7 -8 35.76 1.1
1 7 -8 34.42 1.05
1 7 -8 35.05 1.09
-1 -7 8 36.15 1.12
-1 -7 8 35.22 1.05
0 7 -8 56.69 1.44
0 7 -8 55.87 1.45
0 7 -8 57.36 1.5
0 -7 8 57.17 1.52
0 -7 8 56.38 1.4
-1 7 -8 79.44 2.28
-1 7 -8 78.46 1.9
-1 7 -8 78.97 1.96
1 -7 8 80.72 1.98
1 -7 8 82.22 2.19
-2 7 -8 13.91 0.65
-2 7 -8 13.7 0.47
-2 7 -8 13.69 0.49
-2 7 -8 14.14 0.61
-2 7 -8 13.51 0.64
-2 7 -8 13.55 0.47
2 -7 8 14.84 0.58
2 -7 8 14.28 0.75
2 -7 8 14.34 0.73
2 -7 8 14.38 0.58
-3 7 -8 2.22 0.31
-3 7 -8 2.3 0.31
-3 7 -8 2.25 0.32
3 -7 8 1.95 0.28
3 -7 8 2.32 0.44
3 -7 8 3.02 0.56
3 -7 8 1.6 0.38
-4 7 -8 1.41 0.36
-4 7 -8 1.22 0.29
4 -7 8 1.58 0.3
4 -7 8 1.29 0.47
4 -7 8 2.01 0.45
4 6 -8 0.11 0.38
4 6 -8 -0.13 0.52
4 6 -8 -0.79 0.45
4 6 -8 0.05 0.39
4 6 -8 0.79 0.39
-4 -6 8 0.28 0.41
-4 -6 8 0.79 0.48
-4 -6 8 0.3 0.28
-4 -6 8 0.13 0.29
3 6 -8 7.14 0.62
3 6 -8 7.9 0.62
3 6 -8 7.82 0.68
3 6 -8 7.34 0.66
-3 -6 8 7.31 0.4
-3 -6 8 7.41 0.43
-3 -6 8 7.45 0.41
-3 -6 8 8.08 0.72
-3 -6 8 6.6 0.63
2 6 -8 4.24 0.46
2 6 -8 5.19 0.5
2 6 -8 3.92 0.47
2 6 -8 4.83 0.55
-2 -6 8 4.77 0.45
-2 -6 8 4.63 0.51
-2 -6 8 5.03 0.55
1 6 -8 10.39 0.58
1 6 -8 10.19 0.55
1 6 -8 10.18 0.58
-1 -6 8 9.23 0.58
-1 -6 8 9.27 0.54
0 6 -8 32.15 0.96
0 6 -8 30.23 0.97
0 6 -8 31.28 0.94
0 -6 8 31.45 0.91
0 -6 8 31.55 1.01
-1 6 -8 97.78 2.24
-1 6 -8 100.02 2.19
1 -6 8 100.37 2.15
1 -6 8 101.57 2.3
-2 6 -8 244.38 4.96
-2 6 -8 239.64 4.75
-2 6 -8 245.17 4.98
-2 6 -8 245.34 4.74
2 -6 8 245.9 4.77
2 -6 8 261.21 5.01
2 -6 8 245.35 5.05
2 -6 8 245.01 5.05
-3 6 -8 25.32 0.85
-3 6 -8 24.53 0.78
-3 6 -8 24.79 0.81
-3 6 -8 25.63 0.84
3 -6 8 26.72 0.81
3 -6 8 25.09 0.93
3 -6 8 25.02 0.97
3 -6 8 24.43 0.98
3 -6 8 25.9 0.77
-4 6 -8 35.99 1.08
-4 6 -8 33.98 1.06
4 -6 8 33.89 1.01
4 -6 8 36.61 1.24
4 -6 8 33.6 1.18
4 5 -8 5.3 0.58
4 5 -8 4.4 0.55
4 5 -8 6.2 0.67
4 5 -8 6.26 0.62
4 5 -8 5.16 0.55
-4 -5 8 5.96 0.72
-4 -5 8 5.1 0.51
-4 -5 8 4.23 0.52
-4 -5 8 6.2 0.72
3 5 -8 0.11 0.31
3 5 -8 0.09 0.3
3 5 -8 0.33 0.3
3 5 -8 -0.1 0.27
-3 -5 8 -0.13 0.26
-3 -5 8 -0.04 0.2
-3 -5 8 0.06 0.29
-3 -5 8 0.6 0.21
-3 -5 8 0.2 0.36
-3 -5 8 -0.11 0.22
2 5 -8 5.8 0.54
2 5 -8 5.25 0.46
2 5 -8 5.68 0.47
2 5 -8 6.12 0.49
-2 -5 8 6.22 0.52
-2 -5 8 5.98 0.5
-2 -5 8 6.17 0.49
1 5 -8 3.26 0.35
1 5 -8 2.73 0.31
-1 -5 8 2.82 0.52
-1 -5 8 2.71 0.33
0 5 -8 0.5 0.22
0 5 -8 0.77 0.25
0 5 -8 0.82 0.25
0 -5 8 0.7 0.21
0 -5 8 0.59 0.24
-1 5 -8 19.31 0.72
-1 5 -8 19.68 0.5
-1 5 -8 21.16 0.7
-1 5 -8 19.46 0.5
1 -5 8 21.09 0.76
1 -5 8 20.09 0.77
1 -5 8 21.1 0.67
1 -5 8 19.34 0.52
-2 5 -8 59.03 1.33
-2 5 -8 60.06 1.45
-2 5 -8 58.89 1.5
-2 5 -8 60.76 1.33
2 -5 8 57.36 1.34
2 -5 8 61.05 1.41
2 -5 8 60.22 1.55
2 -5 8 59.76 1.55
-3 5 -8 23.99 0.82
-3 5 -8 24.79 0.8
-3 5 -8 24.25 0.77
3 -5 8 24.87 0.91
3 -5 8 23.95 0.93
3 -5 8 24.05 0.89
3 -5 8 24.51 0.78
-4 5 -8 44.94 1.27
-4 5 -8 44.5 1.24
4 -5 8 43.37 1.21
4 -5 8 45.93 1.38
4 -5 8 43.59 1.4
4 -5 8 43.32 1.36
-5 5 -8 1.19 0.4
-5 5 -8 1.62 0.45
5 -5 8 0.92 0.34
5 -5 8 0.5 0.44
5 -5 8 0.84 0.49
5 4 -8 11.19 0.79
5 4 -8 10.89 0.9
5 4 -8 11.5 0.79
-5 -4 8 11.45 0.71
-5 -4 8 12.58 0.94
4 4 -8 1.14 0.33
4 4 -8 2.2 0.43
4 4 -8 1.81 0.33
4 4 -8 0.45 0.35
4 4 -8 1.14 0.41
-4 -4 8 1.53 0.4
-4 -4 8 1.64 0.32
-4 -4 8 1.15 0.39
-4 -4 8 1.13 0.29
3 4 -8 0.38 0.3
3 4 -8 -0.3 0.23
3 4 -8 0.13 0.28
3 4 -8 0.1 0.27
-3 -4 8 0.04 0.24
-3 -4 8 0.01 0.19
-3 -4 8 0.1 0.3
-3 -4 8 -0.51 0.26
2 4 -8 62.24 1.53
2 4 -8 63.86 1.52
2 4 -8 64.51 1.58
2 4 -8 62.42 1.48
-2 -4 8 64.62 1.54
-2 -4 8 62.09 1.33
-2 -4 8 63.75 1.34
-2 -4 8 63.59 1.34
-2 -4 8 65.68 1.55
-2 -4 8 64.98 1.52
1 4 -8 0.42 0.2
1 4 -8 0.41 0.2
1 4 -8 0.36 0.22
1 4 -8 0.5 0.22
-1 -4 8 0.29 0.2
-1 -4 8 0.03 0.2
-1 -4 8 0.18 0.2
0 4 -8 181.37 3.68
0 4 -8 184.13 3.68
0 4 -8 180.81 3.67
0 -4 8 179.01 3.7
0 -4 8 179.24 3.42
0 -4 8 179.49 3.63
-1 4 -8 12.61 0.41
-1 4 -8 10.85 0.63
-1 4 -8 12.76 0.41
-1 4 -8 12.76 0.56
1 -4 8 12.85 0.59
1 -4 8 12.63 0.54
1 -4 8 13.9 0.59
1 -4 8 12.31 0.42
-2 4 -8 10.45 0.51
-2 4 -8 10.67 0.45
-2 4 -8 9.8 0.44
2 -4 8 10.39 0.58
2 -4 8 10.14 0.48
-3 4 -8 18.62 0.72
-3 4 -8 19.56 0.69
-3 4 -8 20.21 0.73
3 -4 8 19.2 0.78
3 -4 8 18.82 0.81
3 -4 8 19.26 0.79
3 -4 8 19.89 0.7
-4 4 -8 9.57 0.64
-4 4 -8 10.6 0.61
4 -4 8 10.07 0.72
4 -4 8 10.18 0.66
4 -4 8 9.95 0.71
4 -4 8 9.97 0.6
-5 4 -8 17.23 0.91
-5 4 -8 15.46 0.86
5 -4 8 15.72 0.87
5 -4 8 15.82 0.98
5 -4 8 14.84 0.79
5 3 -8 25.71 1.05
5 3 -8 23.96 1.05
5 3 -8 25.78 0.97
-5 -3 8 24.77 0.96
-5 -3 8 25.2 1.08
4 3 -8 1.31 0.4
4 3 -8 0.09 0.32
4 3 -8 0.6 0.33
4 3 -8 0.84 0.3
4 3 -8 1.01 0.27
-4 -3 8 0.79 0.35
-4 -3 8 0.81 0.28
-4 -3 8 0.07 0.32
-4 -3 8 1.21 0.31
3 3 -8 90.2 2.1
3 3 -8 90.65 2.11
3 3 -8 89.72 2.01
3 3 -8 92.36 2.04
-3 -3 8 90.06 1.96
-3 -3 8 93.05 2.08
-3 -3 8 90.27 1.95
-3 -3 8 88.46 1.94
-3 -3 8 91.82 2.07
2 3 -8 0.74 0.21
2 3 -8 0.8 0.26
2 3 -8 1.01 0.23
2 3 -8 0.84 0.25
-2 -3 8 1.19 0.18
-2 -3 8 0.99 0.24
-2 -3 8 1.1 0.23
-2 -3 8 0.7 0.23
-2 -3 8 0.99 0.19
-2 -3 8 1.06 0.18
1 3 -8 0.16 0.17
1 3 -8 -0.08 0.16
1 3 -8 0.01 0.19
-1 -3 8 0.19 0.12
-1 -3 8 0.74 0.21
-1 -3 8 -0.03 0.17
-1 -3 8 0.17 0.18
-1 -3 8 0.06 0.12
0 3 -8 52.95 1.31
0 3 -8 54.75 1.25
0 3 -8 55.43 1.16
0 3 -8 53.88 1.32
0 3 -8 56.3 1.33
0 -3 8 54.06 1.29
0 -3 8 56.76 1.29
0 -3 8 52.83 1.15
0 -3 8 55.26 1.35
-1 3 -8 33.45 0.93
-1 3 -8 32.37 0.92
-1 3 -8 33.47 0.82
-1 3 -8 33.32 0.81
1 -3 8 32.86 0.82
1 -3 8 32.25 0.97
1 -3 8 35 0.91
1 -3 8 33.19 0.94
-2 3 -8 1.85 0.23
-2 3 -8 1.9 0.23
-2 3 -8 1.92 0.27
2 -3 8 1.62 0.24
2 -3 8 1.59 0.27
2 -3 8 1.49 0.28
-3 3 -8 -0.35 0.21
-3 3 -8 -0.08 0.25
-3 3 -8 -0.13 0.22
3 -3 8 -0.2 0.28
3 -3 8 0.29 0.22
3 -3 8 0.23 0.28
-4 3 -8 4.61 0.57
-4 3 -8 4.52 0.52
4 -3 8 5.34 0.61
4 -3 8 5.21 0.58
4 -3 8 4.94 0.51
4 -3 8 4.09 0.46
-5 3 -8 0.99 0.44
-5 3 -8 1.1 0.42
5 -3 8 1.11 0.47
5 -3 8 1.94 0.46
5 -3 8 1.63 0.39
5 2 -8 3.58 0.42
5 2 -8 2.68 0.5
5 2 -8 2.05 0.43
-5 -2 8 2.86 0.47
-5 -2 8 2.45 0.41
4 2 -8 6.97 0.5
4 2 -8 7.45 0.68
4 2 -8 7.5 0.42
4 2 -8 6.88 0.59
-4 -2 8 7.92 0.61
-4 -2 8 6.85 0.54
-4 -2 8 7.97 0.62
3 2 -8 37.3 0.98
3 2 -8 37.49 1.04
3 2 -8 36.39 1.07
3 2 -8 38.52 1.12
-3 -2 8 37.59 1.01
-3 -2 8 38.3 1.08
-3 -2 8 37.47 1.06
-3 -2 8 38.09 0.94
-3 -2 8 36.81 0.98
2 2 -8 10.22 0.51
2 2 -8 9.39 0.46
2 2 -8 10.6 0.48
2 2 -8 9.41 0.53
-2 -2 8 10.6 0.43
-2 -2 8 10.44 0.47
-2 -2 8 10.42 0.5
-2 -2 8 9.53 0.42
-2 -2 8 10.93 0.52
1 2 -8 0.62 0.22
1 2 -8 0.8 0.22
1 2 -8 0.53 0.18
1 2 -8 0.83 0.16
1 2 -8 0.96 0.2
1 2 -8 0.86 0.16
-1 -2 8 0.65 0.19
-1 -2 8 0.87 0.2
-1 -2 8 0.99 0.16
-1 -2 8 1.07 0.21
0 2 -8 173.43 3.41
0 2 -8 173.46 3.53
0 2 -8 174.2 3.4
0 2 -8 170.21 3.45
0 -2 8 173.7 3.41
0 -2 8 176.17 3.5
0 -2 8 174.93 3.5
0 -2 8 174.99 3.55
0 -2 8 176.71 3.49
-1 2 -8 127.84 2.55
-1 2 -8 125.39 2.63
-1 2 -8 118.15 2.59
-1 2 -8 125.88 2.54
-1 2 -8 122.35 2.53
1 -2 8 128.88 2.59
1 -2 8 126.77 2.67
1 -2 8 126.3 2.6
1 -2 8 123.96 2.61
1 -2 8 121.6 2.53
-2 2 -8 29.91 0.84
-2 2 -8 29.39 0.93
-2 2 -8 30.02 0.84
2 -2 8 30.89 0.93
2 -2 8 29.52 0.93
2 -2 8 28.72 0.98
-3 2 -8 7.07 0.54
-3 2 -8 6.85 0.47
3 -2 8 6.81 0.49
3 -2 8 7.33 0.51
3 -2 8 7.94 0.56
3 -2 8 7.85 0.55
-4 2 -8 0.41 0.3
-4 2 -8 0.49 0.34
4 -2 8 0.37 0.33
4 -2 8 0.68 0.32
4 -2 8 0.21 0.28
4 -2 8 0.22 0.31
-5 2 -8 9.59 0.83
-5 2 -8 9.88 0.87
5 -2 8 9.93 0.84
5 -2 8 9.85 0.73
5 -2 8 10.89 0.74
5 1 -8 5.49 0.58
5 1 -8 6.39 0.72
5 1 -8 6.1 0.56
-5 -1 8 6.96 0.74
-5 -1 8 7.06 0.64
4 1 -8 69.61 1.59
4 1 -8 69.93 1.7
4 1 -8 68.89 1.75
4 1 -8 69.92 1.74
-4 -1 8 69.93 1.69
-4 -1 8 71.44 1.71
3 1 -8 4.07 0.47
3 1 -8 3.64 0.39
3 1 -8 3.56 0.34
3 1 -8 3.82 0.35
-3 -1 8 3.8 0.38
-3 -1 8 3.87 0.4
-3 -1 8 3.75 0.35
-3 -1 8 3.35 0.37
-3 -1 8 3.64 0.35
2 1 -8 22.82 0.7
2 1 -8 22.3 0.62
2 1 -8 22.69 0.68
2 1 -8 22.16 0.72
2 1 -8 23.15 0.75
-2 -1 8 22.43 0.68
-2 -1 8 22.16 0.71
-2 -1 8 22.55 0.73
1 1 -8 2.83 0.34
1 1 -8 3.24 0.28
1 1 -8 2.82 0.27
1 1 -8 2.95 0.3
1 1 -8 2.75 0.25
-1 -1 8 3.09 0.32
-1 -1 8 2.89 0.32
-1 -1 8 2.74 0.33
-1 -1 8 2.97 0.27
0 1 -8 441.49 8.63
0 1 -8 445.2 8.61
0 1 -8 458.21 8.64
0 1 -8 454.72 8.71
0 -1 8 450.64 8.62
0 -1 8 460.08 8.63
0 -1 8 462.67 8.68
0 -1 8 457.38 8.67
0 -1 8 456.32 8.71
-1 1 -8 48.9 1.17
-1 1 -8 50.58 1.16
-1 1 -8 48.45 1.16
-1 1 -8 48.86 1.23
1 -1 8 48.72 1.19
1 -1 8 47.29 1.24
1 -1 8 49.22 1.19
1 -1 8 49.37 1.19
-2 1 -8 23.63 0.75
-2 1 -8 24.87 0.8
-2 1 -8 24.93 0.77
-2 1 -8 25.17 0.78
2 -1 8 24.35 0.78
2 -1 8 23.68 0.82
2 -1 8 23.91 0.79
2 -1 8 24.85 0.77
-3 1 -8 36.82 1.12
-3 1 -8 37.95 1.08
3 -1 8 37.12 1.06
3 -1 8 37.62 1.12
3 -1 8 37.24 1.13
3 -1 8 36.81 1.07
-4 1 -8 13.81 1.23
-4 1 -8 15.21 0.73
4 -1 8 15.96 0.79
4 -1 8 15.23 1.17
4 -1 8 15.89 0.83
4 -1 8 15.61 0.75
-5 1 -8 10.47 0.9
5 -1 8 9.86 0.79
5 -1 8 10.68 0.83
5 -1 8 11.65 0.78
5 0 -8 1.09 0.32
5 0 -8 0.99 0.35
5 0 -8 0.45 0.39
-5 0 8 0.28 0.33
-5 0 8 0.6 0.36
4 0 -8 54.11 1.45
4 0 -8 52.68 1.29
4 0 -8 55.66 1.4
4 0 -8 56.18 1.5
-4 0 8 55.31 1.43
-4 0 8 56.04 1.43
-4 0 8 54.21 1.44
3 0 -8 35.46 1.02
3 0 -8 35.63 1.04
3 0 -8 36.8 0.99
3 0 -8 34.39 0.85
-3 0 8 36.89 1.03
-3 0 8 34.83 0.99
-3 0 8 36.44 1.02
-3 0 8 35.38 0.86
2 0 -8 104.52 2.23
2 0 -8 107.6 2.21
2 0 -8 105.37 2.22
2 0 -8 104.73 2.25
2 0 -8 101.62 2.23
2 0 -8 103.83 2.07
-2 0 8 104.08 2.24
-2 0 8 102.18 2.21
-2 0 8 102.97 2.16
1 0 -8 5.39 0.35
1 0 -8 5.74 0.35
1 0 -8 5.47 0.27
1 0 -8 5.82 0.38
1 0 -8 5.86 0.35
-1 0 8 5.78 0.37
-1 0 8 5.55 0.36
-1 0 8 5.55 0.36
0 0 -8 1.8 0.21
0 0 -8 2.62 0.28
0 0 -8 1.84 0.22
0 0 -8 1.73 0.24
0 0 8 2.07 0.26
0 0 8 2.52 0.26
0 0 8 1.4 0.24
0 0 8 1.9 0.24
-1 0 -8 90.16 2
-1 0 -8 92.98 1.96
-1 0 -8 89.71 1.98
-1 0 -8 92.84 2.03
1 0 8 91.31 1.99
1 0 8 91.46 2.05
1 0 8 91.82 1.97
1 0 8 93.68 2
-2 0 -8 0.94 0.26
-2 0 -8 1.07 0.25
-2 0 -8 1.04 0.24
-2 0 -8 0.82 0.22
2 0 8 1.14 0.25
2 0 8 1.44 0.27
2 0 8 0.69 0.24
2 0 8 1.05 0.24
-3 0 -8 35.16 1.05
-3 0 -8 35.42 1.04
-3 0 -8 35.67 1.11
3 0 8 36.21 1.1
3 0 8 35.29 1
3 0 8 35.73 1.06
3 0 8 36.37 1.1
3 0 8 33.96 1.06
-4 0 -8 11.12 0.78
-4 0 -8 10.99 0.69
4 0 8 10.9 0.71
4 0 8 10.68 0.71
4 0 8 11.37 0.66
4 0 8 11.8 0.77
-5 0 -8 10.97 0.96
5 0 8 10.57 0.92
5 0 8 9.99 0.85
5 0 8 11.91 0.91
5 -1 -8 3.37 0.36
5 -1 -8 2.94 0.49
5 -1 -8 3.39 0.41
-5 1 8 3.1 0.46
-5 1 8 3.26 0.42
4 -1 -8 12.74 0.51
4 -1 -8 13.77 0.71
4 -1 -8 14.65 0.66
-4 1 8 14.5 0.66
-4 1 8 14.66 0.69
3 -1 -8 -0.01 0.13
3 -1 -8 -0.19 0.41
3 -1 -8 0.28 0.24
3 -1 -8 0.12 0.27
-3 1 8 0.26 0.27
-3 1 8 0.2 0.17
2 -1 -8 26.62 0.81
2 -1 -8 25.68 0.78
2 -1 -8 26.68 0.76
2 -1 -8 26.84 0.82
2 -1 -8 26.94 0.8
-2 1 8 27.45 0.78
-2 1 8 26.22 0.74
-2 1 8 28.04 0.8
1 -1 -8 42.25 1.08
1 -1 -8 41.24 0.9
1 -1 -8 43.38 1.04
1 -1 -8 41.89 1.06
1 -1 -8 43.55 1.08
-1 1 8 42.07 1.07
-1 1 8 42.01 1.05
-1 1 8 41.75 1.04
0 -1 -8 22.24 0.71
0 -1 -8 21.8 0.67
0 -1 -8 22.83 0.69
0 -1 -8 23.08 0.71
0 1 8 22.01 0.68
0 1 8 21.83 0.71
0 1 8 22.61 0.7
0 1 8 22.72 0.61
-1 -1 -8 20.42 0.68
-1 -1 -8 21.34 0.72
-1 -1 -8 21.57 0.71
-1 -1 -8 20.41 0.66
1 1 8 20.53 0.73
1 1 8 20.98 0.69
1 1 8 21.21 0.7
1 1 8 20.34 0.65
-2 -1 -8 31.43 0.94
-2 -1 -8 32.4 0.98
-2 -1 -8 31 0.91
2 1 8 30.99 0.95
2 1 8 32.44 0.95
2 1 8 31.84 0.94
2 1 8 31.36 0.98
-3 -1 -8 3.6 0.4
-3 -1 -8 3.38 0.44
-3 -1 -8 3.76 0.4
3 1 8 4.03 0.43
3 1 8 4.33 0.43
3 1 8 4.21 0.42
3 1 8 4.25 0.52
3 1 8 3.11 0.39
-4 -1 -8 7.79 0.66
-4 -1 -8 9.05 0.77
4 1 8 6.87 0.58
4 1 8 8.06 0.67
4 1 8 8.65 0.69
4 1 8 7.57 0.71
-5 -1 -8 0.96 0.52
5 1 8 1.03 0.46
5 1 8 1.92 0.5
5 -2 -8 24.47 1.04
5 -2 -8 24.19 0.9
-5 2 8 23.55 0.92
-5 2 8 26.37 1.03
4 -2 -8 1.8 0.38
4 -2 -8 1.49 0.29
-4 2 8 1.28 0.3
3 -2 -8 231.89 4.72
3 -2 -8 237.98 4.71
-3 2 8 230.94 4.5
2 -2 -8 10.74 0.51
2 -2 -8 11.48 0.56
2 -2 -8 11.68 0.48
-2 2 8 10.63 0.48
-2 2 8 11.76 0.51
1 -2 -8 10.45 0.29
1 -2 -8 10.48 0.49
1 -2 -8 10.37 0.51
1 -2 -8 10.63 0.5
1 -2 -8 11.02 0.45
-1 2 8 10.61 0.47
-1 2 8 10.93 0.48
-1 2 8 11.11 0.47
0 -2 -8 11.79 0.48
0 -2 -8 11.84 0.53
0 -2 -8 11.39 0.5
0 -2 -8 12.01 0.53
0 2 8 12.38 0.41
0 2 8 12.15 0.5
0 2 8 11.36 0.5
0 2 8 11.95 0.52
-1 -2 -8 48.05 1.18
-1 -2 -8 47.06 1.24
-1 -2 -8 48.46 1.25
-1 -2 -8 46.85 1.22
1 2 8 46.93 1.15
1 2 8 46.01 1.2
1 2 8 48.4 1.26
1 2 8 48.53 1.2
-2 -2 -8 238.28 4.92
-2 -2 -8 245.58 4.93
-2 -2 -8 247.63 4.86
2 2 8 245.47 4.87
2 2 8 239.98 4.94
2 2 8 242.73 4.87
2 2 8 246.39 4.91
-3 -2 -8 5.72 0.57
-3 -2 -8 4.63 0.49
-3 -2 -8 5.27 0.49
3 2 8 5.22 0.55
3 2 8 5.25 0.62
3 2 8 5.44 0.6
3 2 8 5.42 0.43
3 2 8 5.26 0.54
-4 -2 -8 45.08 1.4
-4 -2 -8 48.64 1.45
-4 -2 -8 45.79 1.5
4 2 8 46 1.43
4 2 8 46.86 1.43
4 2 8 47.81 1.43
4 2 8 46.53 1.28
4 2 8 47.83 1.46
5 -3 -8 72.62 1.97
5 -3 -8 71.78 1.53
5 -3 -8 70.93 1.75
-5 3 8 73.77 1.95
-5 3 8 71.96 1.78
4 -3 -8 2.41 0.47
4 -3 -8 2.78 0.41
-4 3 8 2.13 0.56
3 -3 -8 92.04 2.06
3 -3 -8 89.16 2.09
3 -3 -8 91.62 1.98
-3 3 8 89.4 1.88
-3 3 8 89.68 2.01
2 -3 -8 64.24 1.7
2 -3 -8 62.54 1.44
2 -3 -8 61.95 1.53
-2 3 8 62.62 1.41
-2 3 8 60.09 1.48
1 -3 -8 43.4 1.06
1 -3 -8 42.91 1.17
1 -3 -8 43.06 1.14
-1 3 8 42.76 1.09
-1 3 8 42.76 1.09
0 -3 -8 0.38 0.21
0 -3 -8 0.6 0.22
0 -3 -8 0.59 0.2
0 -3 -8 0.83 0.23
0 3 8 0.53 0.16
0 3 8 0.39 0.21
0 3 8 0.6 0.23
0 3 8 0.64 0.2
-1 -3 -8 1.76 0.27
-1 -3 -8 1.68 0.27
-1 -3 -8 1.27 0.31
1 3 8 1.27 0.26
1 3 8 1.92 0.3
1 3 8 2.13 0.25
1 3 8 1.4 0.27
-2 -3 -8 -0.38 0.31
-2 -3 -8 0.13 0.26
-2 -3 -8 -0.13 0.22
2 3 8 0.02 0.25
2 3 8 0.53 0.28
2 3 8 -0.24 0.25
2 3 8 0.03 0.26
-3 -3 -8 0.51 0.31
-3 -3 -8 0.92 0.35
-3 -3 -8 0.88 0.41
3 3 8 1.06 0.34
3 3 8 0.7 0.36
3 3 8 0.2 0.36
3 3 8 0.92 0.33
-4 -3 -8 29.15 1.17
-4 -3 -8 30.74 1.28
4 3 8 32.21 1.01
4 3 8 32.5 1.2
4 3 8 31.48 1.22
4 3 8 33.17 1.23
4 3 8 32.29 1.25
5 -4 -8 0.79 0.41
5 -4 -8 0.8 0.31
-5 4 8 1.3 0.34
-5 4 8 1.6 0.47
4 -4 -8 29.37 0.91
4 -4 -8 29.47 1.02
4 -4 -8 30.68 1.07
3 -4 -8 11.64 0.52
3 -4 -8 11.37 0.64
3 -4 -8 12.37 0.61
-3 4 8 12.49 0.56
2 -4 -8 55.38 1.29
2 -4 -8 54.24 1.41
-2 4 8 53.48 1.29
-2 4 8 54.14 1.32
1 -4 -8 0.9 0.24
1 -4 -8 0.7 0.19
-1 4 8 0.85 0.23
-1 4 8 0.88 0.22
0 -4 -8 7.02 0.43
0 -4 -8 7.53 0.53
0 -4 -8 7.96 0.5
0 4 8 7.64 0.37
0 4 8 7.81 0.47
0 4 8 7.09 0.49
0 4 8 7.31 0.62
-1 -4 -8 1.03 0.26
-1 -4 -8 0.99 0.31
-1 -4 -8 1.38 0.28
1 4 8 0.89 0.29
1 4 8 0.58 0.27
1 4 8 1.02 0.28
1 4 8 1.28 0.27
-2 -4 -8 9.37 0.58
-2 -4 -8 8.75 0.6
-2 -4 -8 7.92 0.67
2 4 8 8.34 0.62
2 4 8 9.36 0.59
2 4 8 8.52 0.63
2 4 8 8.46 0.56
-3 -4 -8 2.81 0.49
-3 -4 -8 2.6 0.42
-3 -4 -8 2.95 0.45
3 4 8 3.5 0.46
3 4 8 3.43 0.45
3 4 8 2.05 0.45
3 4 8 2.84 0.43
-4 -4 -8 -0.8 0.44
-4 -4 -8 -0.08 0.57
4 4 8 0.17 0.36
4 4 8 -0.08 0.54
4 4 8 0.04 0.52
4 4 8 0.42 0.62
5 -5 -8 0.52 0.43
5 -5 -8 0.93 0.29
-5 5 8 0.2 0.31
4 -5 -8 19.31 0.86
4 -5 -8 18.1 0.88
-4 5 8 18.77 0.72
-4 5 8 17.97 0.6
3 -5 -8 0.38 0.28
3 -5 -8 0.48 0.35
3 -5 -8 0.51 0.31
-3 5 8 0.73 0.24
-3 5 8 0.56 0.38
2 -5 -8 36.92 1.13
2 -5 -8 37.17 0.99
-2 5 8 39.53 1.04
-2 5 8 38.36 1.04
1 -5 -8 3.68 0.37
1 -5 -8 3.13 0.4
-1 5 8 3.18 0.33
-1 5 8 3.91 0.39
0 -5 -8 72.05 1.66
0 -5 -8 71.87 1.78
0 5 8 74.26 1.76
0 5 8 71.62 1.7
0 5 8 71.14 1.54
-1 -5 -8 44.62 1.26
-1 -5 -8 42.47 1.26
-1 -5 -8 44.24 1.19
1 5 8 43.17 1.13
1 5 8 43.09 1.22
1 5 8 45.32 1.23
1 5 8 43.6 1.27
-2 -5 -8 9.18 0.74
-2 -5 -8 9.55 0.65
-2 -5 -8 9.05 0.64
2 5 8 8.95 0.7
2 5 8 9.82 0.69
2 5 8 9.84 0.66
2 5 8 10.28 0.64
-3 -5 -8 42.97 1.35
-3 -5 -8 42.65 1.44
-3 -5 -8 43.29 1.38
3 5 8 41.72 1.38
3 5 8 43.63 1.36
3 5 8 42.1 1.41
3 5 8 40.5 1.37
5 -6 -8 1.52 0.34
5 -6 -8 1.31 0.46
4 -6 -8 -0.15 0.38
4 -6 -8 0.04 0.23
4 -6 -8 -0.14 0.38
-4 6 8 -0.38 0.26
-4 6 8 0.16 0.24
3 -6 -8 125.53 2.86
3 -6 -8 122.68 2.62
3 -6 -8 126.69 2.7
-3 6 8 125.14 2.68
-3 6 8 124.65 2.77
-3 6 8 126.89 2.64
2 -6 -8 8.11 0.6
-2 6 8 7.34 0.52
1 -6 -8 17.64 0.63
1 -6 -8 15.97 0.72
-1 6 8 17.17 0.72
-1 6 8 16.82 0.67
0 -6 -8 151.35 3.29
0 -6 -8 151.79 3.14
0 6 8 150.39 3.18
0 6 8 143.81 3.01
0 6 8 155.7 3.26
-1 -6 -8 103.1 2.41
-1 -6 -8 101.09 2.28
1 6 8 102.61 2.4
1 6 8 99.73 2.21
1 6 8 100.5 2.33
-2 -6 -8 19.15 0.88
-2 -6 -8 19.64 1.18
-2 -6 -8 20.89 0.91
2 6 8 21.27 0.87
2 6 8 21.11 0.93
2 6 8 20.63 0.92
-3 -6 -8 20.83 1.04
3 6 8 21.58 1.02
3 6 8 22.45 1.14
4 -7 -8 29.03 0.89
4 -7 -8 30.78 1.08
-4 7 8 28.27 0.93
-4 7 8 30.02 0.91
3 -7 -8 88.58 1.99
3 -7 -8 93.71 2.08
3 -7 -8 90.69 2.25
-3 7 8 90.72 2.04
-3 7 8 87.58 2.03
2 -7 -8 2.79 0.29
2 -7 -8 2.49 0.4
-2 7 8 2.03 0.29
-2 7 8 2.78 0.35
1 -7 -8 48.9 1.44
1 -7 -8 48.35 1.27
-1 7 8 47.91 1.31
-1 7 8 58.61 1.19
-1 7 8 48.13 1.37
0 -7 -8 62.38 1.67
0 -7 -8 61.25 1.53
0 7 8 60.7 1.64
0 7 8 61.69 1.59
0 7 8 62.36 1.43
-1 -7 -8 17.26 0.84
-1 -7 -8 16.82 0.78
1 7 8 16.18 0.85
1 7 8 16.34 0.72
1 7 8 16.86 0.83
-2 -7 -8 2.23 0.43
2 7 8 1.63 0.43
2 7 8 1.09 0.41
4 -8 -8 17.72 0.91
4 -8 -8 16.53 0.67
-4 8 8 16.3 0.7
-4 8 8 16.62 0.78
3 -8 -8 2.29 0.43
3 -8 -8 2.7 0.3
-3 8 8 2.58 0.31
-3 8 8 2.27 0.39
2 -8 -8 2.69 0.31
2 -8 -8 1.91 0.42
-2 8 8 2.46 0.32
-2 8 8 2.38 0.4
1 -8 -8 16.44 0.67
1 -8 -8 16.91 0.86
-1 8 8 16.26 0.72
-1 8 8 17.35 0.83
-1 8 8 16.79 0.58
0 -8 -8 19.72 0.94
0 -8 -8 20.24 0.8
0 8 8 19.89 0.94
0 8 8 19.51 0.73
0 8 8 20.42 0.84
-1 -8 -8 26.61 0.99
1 8 8 27.01 0.96
1 8 8 24.95 1.03
-2 -8 -8 1.75 0.45
2 8 8 3.56 0.55
2 8 8 2.18 0.5
3 -9 -8 -0.06 0.23
3 -9 -8 0.21 0.4
-3 9 8 0.27 0.27
-3 9 8 0.11 0.38
2 -9 -8 0.97 0.27
-2 9 8 1.08 0.29
-2 9 8 0.38 0.38
1 -9 -8 7.68 0.54
-1 9 8 8.99 0.76
-1 9 8 6.61 0.57
0 -9 -8 1.53 0.34
0 9 8 1.75 0.39
0 9 8 1.35 0.38
-1 -9 -8 1.25 0.39
1 9 8 1.37 0.44
1 9 8 0.37 0.44
0 10 -9 2.69 0.47
0 10 -9 2.22 0.42
0 -10 9 2.43 0.39
-1 10 -9 34.36 1.16
-1 10 -9 30.86 1.07
1 -10 9 32.5 1.03
2 9 -9 2.34 0.49
2 9 -9 1.54 0.41
-2 -9 9 0.59 0.39
-2 -9 9 1.3 0.55
1 9 -9 22.07 0.97
-1 -9 9 22.8 0.93
-1 -9 9 23.47 1.1
0 9 -9 2.04 0.38
0 9 -9 2.44 0.5
0 -9 9 1.77 0.34
0 -9 9 3.03 0.53
-1 9 -9 12.34 0.72
-1 9 -9 10.89 0.65
1 -9 9 11.56 0.62
-2 9 -9 36.67 1.11
-2 9 -9 38.12 1.24
2 -9 9 36.12 1.06
3 8 -9 22.1 0.97
3 8 -9 23.6 1.12
3 8 -9 22.63 1.07
-3 -8 9 21.55 1.05
2 8 -9 0.26 0.46
2 8 -9 -0.2 0.37
2 8 -9 0 0.37
-2 -8 9 -0.32 0.35
-2 -8 9 -0.04 0.4
1 8 -9 11.5 0.71
1 8 -9 9.79 0.71
1 8 -9 10.32 0.65
-1 -8 9 10.39 0.76
-1 -8 9 10.16 0.66
0 8 -9 11.85 0.73
0 8 -9 12.75 0.69
0 8 -9 12.51 0.67
0 -8 9 11.77 0.77
0 -8 9 11.92 0.64
-1 8 -9 0.82 0.29
-1 8 -9 0.47 0.33
-1 8 -9 0.86 0.35
1 -8 9 0.53 0.37
1 -8 9 0.75 0.27
-2 8 -9 24.92 0.95
-2 8 -9 24.12 0.85
2 -8 9 22.45 0.81
-3 8 -9 4.54 0.46
-3 8 -9 2.79 0.46
-3 8 -9 3.49 0.39
3 -8 9 3.58 0.37
3 7 -9 13.15 0.83
3 7 -9 13.59 0.79
2 7 -9 9.7 0.7
2 7 -9 8.28 0.88
2 7 -9 9.77 0.65
-2 -7 9 7.95 0.68
-2 -7 9 10.82 0.82
1 7 -9 9.54 0.6
1 7 -9 9.55 0.65
1 7 -9 9.65 0.94
-1 -7 9 10.57 0.98
-1 -7 9 9.89 0.67
0 7 -9 1.92 0.35
0 7 -9 2.28 0.37
0 7 -9 2.42 0.37
0 -7 9 2.12 0.33
0 -7 9 2.01 0.37
-1 7 -9 3.35 0.37
-1 7 -9 4.34 0.5
-1 7 -9 4.62 0.5
1 -7 9 4.95 0.59
1 -7 9 3.71 0.37
-2 7 -9 9.05 0.41
-2 7 -9 9.02 0.43
-2 7 -9 9.47 0.63
-2 7 -9 9.3 0.57
-2 7 -9 8.55 0.42
2 -7 9 8.65 0.53
2 -7 9 10.54 0.75
2 -7 9 10.05 0.69
-3 7 -9 3.7 0.36
-3 7 -9 4.45 0.5
-3 7 -9 4.1 0.49
3 -7 9 4.01 0.46
3 -7 9 3.76 0.55
3 -7 9 3.08 0.54
-4 7 -9 12.74 0.72
-4 7 -9 10.55 0.66
4 -7 9 11.52 0.79
4 -7 9 10.57 0.62
4 6 -9 4.49 0.55
4 6 -9 3.87 0.53
4 6 -9 2.75 0.59
4 6 -9 3.21 0.49
-4 -6 9 3.29 0.56
-4 -6 9 4.98 0.58
3 6 -9 6.56 0.61
3 6 -9 7.09 0.75
3 6 -9 7.89 0.65
-3 -6 9 7.56 0.7
-3 -6 9 7.08 0.38
-3 -6 9 6.68 0.38
-3 -6 9 8.44 0.66
2 6 -9 8.6 0.67
2 6 -9 9.57 0.6
2 6 -9 8.7 0.59
2 6 -9 8.74 0.6
-2 -6 9 7.78 0.59
-2 -6 9 8.96 0.66
-2 -6 9 7.84 0.64
1 6 -9 13.25 0.64
1 6 -9 12.69 0.64
1 6 -9 13.9 0.69
-1 -6 9 12.9 0.63
-1 -6 9 13.57 0.69
0 6 -9 16.78 0.71
0 6 -9 16.98 0.72
0 -6 9 16.18 0.75
0 -6 9 16.81 0.67
-1 6 -9 31.43 1
-1 6 -9 30.99 0.97
1 -6 9 32.03 0.94
1 -6 9 32.41 1.08
-2 6 -9 111.98 2.49
-2 6 -9 113.59 2.31
-2 6 -9 111.72 2.56
-2 6 -9 113.68 2.29
2 -6 9 114.92 2.63
2 -6 9 111.11 2.44
2 -6 9 113.7 2.32
2 -6 9 115.17 2.62
-3 6 -9 22.95 0.77
-3 6 -9 23.26 0.81
-3 6 -9 23.08 0.85
3 -6 9 23.49 1.18
3 -6 9 23.89 1
3 -6 9 24.54 1.01
3 -6 9 23.94 0.82
-4 6 -9 2.22 0.41
-4 6 -9 1.91 0.36
4 -6 9 1.74 0.43
4 -6 9 2.66 0.36
4 5 -9 9.99 0.81
4 5 -9 11.05 0.74
4 5 -9 10.63 0.72
4 5 -9 11.05 0.71
4 5 -9 6.77 0.82
-4 -5 9 9.72 0.61
-4 -5 9 9.2 0.59
-4 -5 9 8.56 0.89
-4 -5 9 7.79 1.04
3 5 -9 0.88 0.33
3 5 -9 0.98 0.32
3 5 -9 0.69 0.43
-3 -5 9 0.85 0.33
-3 -5 9 0.82 0.22
-3 -5 9 0.81 0.23
-3 -5 9 0.44 0.36
-3 -5 9 0.7 0.23
2 5 -9 0.77 0.28
2 5 -9 0.16 0.3
2 5 -9 0.52 0.28
2 5 -9 0.44 0.26
-2 -5 9 1.11 0.31
-2 -5 9 0.58 0.29
-2 -5 9 0.66 0.3
1 5 -9 1.85 0.3
1 5 -9 1.91 0.31
1 5 -9 2.02 0.31
1 5 -9 1.84 0.31
-1 -5 9 1.71 0.29
-1 -5 9 2.14 0.33
-1 -5 9 1.94 0.33
0 5 -9 82.9 1.92
0 5 -9 80.92 1.9
0 5 -9 81.77 1.9
0 -5 9 81.7 1.86
0 -5 9 80.57 1.93
-1 5 -9 127.68 2.73
-1 5 -9 127.4 2.48
-1 5 -9 127.11 2.75
1 -5 9 126.29 2.68
1 -5 9 125.07 2.79
1 -5 9 123.35 2.49
1 -5 9 129.17 2.78
-2 5 -9 2.19 0.32
-2 5 -9 2.38 0.38
-2 5 -9 3.36 0.35
2 -5 9 2.14 0.38
2 -5 9 1.81 0.35
2 -5 9 1.92 0.29
-3 5 -9 0.15 0.28
-3 5 -9 0.02 0.24
-3 5 -9 0.14 0.26
3 -5 9 0.11 0.34
3 -5 9 -0.04 0.32
3 -5 9 -0.01 0.22
3 -5 9 -0.25 0.3
-4 5 -9 2.45 0.39
-4 5 -9 1.57 0.38
4 -5 9 1.76 0.43
4 -5 9 2.28 0.37
4 -5 9 1.75 0.47
4 4 -9 11.19 0.66
4 4 -9 12.81 0.72
4 4 -9 12.54 0.91
4 4 -9 11.7 0.78
4 4 -9 13.83 0.78
-4 -4 9 12.94 0.66
-4 -4 9 11.75 0.64
-4 -4 9 10.59 0.79
-4 -4 9 13.59 0.87
3 4 -9 10.06 0.59
3 4 -9 9.52 0.71
3 4 -9 11.55 0.67
3 4 -9 11.12 0.65
-3 -4 9 10.41 0.57
-3 -4 9 10.14 0.57
-3 -4 9 10.79 0.66
-3 -4 9 9.79 0.48
2 4 -9 1.41 0.27
2 4 -9 1.24 0.3
2 4 -9 2.01 0.3
2 4 -9 1.73 0.35
-2 -4 9 1.41 0.3
-2 -4 9 1.57 0.2
-2 -4 9 1.92 0.21
-2 -4 9 1.77 0.31
-2 -4 9 1.75 0.2
-2 -4 9 1.4 0.29
1 4 -9 18.01 0.66
1 4 -9 16.29 0.7
1 4 -9 16.68 0.63
1 4 -9 16.77 0.67
-1 -4 9 17.68 0.69
-1 -4 9 16.06 0.65
-1 -4 9 16.72 0.44
-1 -4 9 16.27 0.44
-1 -4 9 16.18 0.67
-1 -4 9 17.15 0.43
0 4 -9 139.07 2.88
0 4 -9 135.11 2.85
0 4 -9 133.8 2.61
0 4 -9 131.3 2.6
0 -4 9 132.31 2.61
0 -4 9 136.64 2.9
-1 4 -9 173.01 3.56
-1 4 -9 171.04 3.36
-1 4 -9 170.15 3.56
-1 4 -9 169.68 3.35
1 -4 9 172.45 3.37
1 -4 9 171.37 3.62
1 -4 9 175.4 3.59
1 -4 9 171.37 3.51
-2 4 -9 -0.49 0.25
-2 4 -9 0.08 0.2
-2 4 -9 0.24 0.22
-2 4 -9 -0.32 0.18
2 -4 9 0.47 0.26
2 -4 9 0.44 0.23
2 -4 9 -0.11 0.25
-3 4 -9 26.62 0.86
-3 4 -9 27.24 0.91
-3 4 -9 26.42 0.91
3 -4 9 27.64 1
3 -4 9 25.92 0.88
3 -4 9 27.17 1
3 -4 9 27.21 0.95
-4 4 -9 7.1 0.66
-4 4 -9 8.16 0.63
4 -4 9 9.63 0.77
4 -4 9 7.84 0.6
4 -4 9 7.87 0.66
4 -4 9 7.93 0.78
5 3 -9 2.39 0.51
5 3 -9 2.52 0.52
5 3 -9 2.69 0.45
-5 -3 9 1.38 0.5
-5 -3 9 2.05 0.41
4 3 -9 6.42 0.66
4 3 -9 6 0.58
4 3 -9 4.95 0.56
4 3 -9 5.98 0.66
-4 -3 9 6.86 0.55
-4 -3 9 5.71 0.67
-4 -3 9 6.34 0.58
-4 -3 9 5.66 0.55
3 3 -9 60.38 1.45
3 3 -9 59.76 1.49
3 3 -9 60.37 1.56
3 3 -9 58.7 1.57
-3 -3 9 58.78 1.41
-3 -3 9 58.07 1.51
-3 -3 9 58.66 1.4
-3 -3 9 58.86 1.38
2 3 -9 67.55 1.61
2 3 -9 69.83 1.6
2 3 -9 70.1 1.68
2 3 -9 69.67 1.7
-2 -3 9 69.36 1.62
-2 -3 9 69.17 1.65
-2 -3 9 69.12 1.5
-2 -3 9 71.3 1.67
-2 -3 9 69.08 1.5
-2 -3 9 69.52 1.51
1 3 -9 89.26 1.95
1 3 -9 90.66 2.02
1 3 -9 87.65 1.94
1 3 -9 88.55 1.82
1 3 -9 87.04 2.02
-1 -3 9 90.08 2.01
-1 -3 9 90.24 2
-1 -3 9 90.86 2
-1 -3 9 89.58 1.82
0 3 -9 15.15 0.58
0 3 -9 15.31 0.63
0 3 -9 16.13 0.63
0 3 -9 14.83 0.48
0 3 -9 15.14 0.48
0 -3 9 15.84 0.62
0 -3 9 16.04 0.61
0 -3 9 15.07 0.47
-1 3 -9 48.45 1.11
-1 3 -9 47.96 1.25
-1 3 -9 48.95 1.13
1 -3 9 46.04 1.29
1 -3 9 47.31 1.12
1 -3 9 49.67 1.25
-2 3 -9 -0.01 0.19
-2 3 -9 0.34 0.23
-2 3 -9 -0.07 0.19
-2 3 -9 -0.05 0.22
2 -3 9 0.09 0.25
2 -3 9 0.14 0.22
2 -3 9 0.47 0.26
-3 3 -9 21.89 0.79
-3 3 -9 22.82 0.9
3 -3 9 25.97 0.95
3 -3 9 22.27 0.89
3 -3 9 23.04 0.87
3 -3 9 22.97 0.9
-4 3 -9 2.52 0.39
-4 3 -9 2.26 0.4
4 -3 9 2.46 0.46
4 -3 9 2.32 0.37
4 -3 9 2.4 0.48
5 2 -9 4.48 0.56
5 2 -9 6.14 0.7
5 2 -9 5.65 0.64
-5 -2 9 4.2 0.55
-5 -2 9 5.67 0.67
4 2 -9 24.86 0.95
4 2 -9 23.57 0.98
4 2 -9 23.9 0.91
4 2 -9 23.97 0.82
-4 -2 9 24.01 0.94
-4 -2 9 24.46 0.96
-4 -2 9 24.37 0.87
3 2 -9 20.35 0.84
3 2 -9 21.5 0.82
3 2 -9 19.22 0.68
3 2 -9 20.06 0.76
-3 -2 9 21.04 0.79
-3 -2 9 19.87 0.68
-3 -2 9 20.14 0.69
-3 -2 9 19.99 0.72
2 2 -9 36.45 0.95
2 2 -9 37.17 1.01
2 2 -9 36.36 1.05
2 2 -9 36.9 1.08
-2 -2 9 37.36 1.04
-2 -2 9 36.98 0.99
-2 -2 9 38.96 1.07
-2 -2 9 36.59 0.95
-2 -2 9 36.22 1.05
1 2 -9 54.01 1.23
1 2 -9 55.13 1.38
1 2 -9 55.2 1.35
1 2 -9 54.82 1.27
1 2 -9 53.97 1.24
1 2 -9 55.79 1.31
-1 -2 9 54.62 1.34
-1 -2 9 55.98 1.34
-1 -2 9 55.46 1.35
-1 -2 9 54.1 1.23
0 2 -9 165.52 3.39
0 2 -9 164.63 3.33
0 2 -9 167.86 3.42
0 2 -9 165.5 3.27
0 2 -9 165.13 3.29
0 -2 9 165.02 3.37
0 -2 9 161.48 3.27
0 -2 9 165.37 3.35
0 -2 9 167.29 3.43
0 -2 9 165.25 3.38
-1 2 -9 72.84 1.63
-1 2 -9 71.87 1.7
-1 2 -9 74.87 1.63
-1 2 -9 74.26 1.65
-1 2 -9 73.73 1.73
1 -2 9 73.39 1.71
1 -2 9 74.69 1.77
1 -2 9 72.77 1.68
1 -2 9 76.05 1.7
-2 2 -9 30.16 0.87
-2 2 -9 29.99 0.91
-2 2 -9 29.93 0.89
-2 2 -9 29.85 0.95
2 -2 9 30.85 0.91
2 -2 9 30.12 0.97
2 -2 9 29.74 0.94
-3 2 -9 -0.42 0.27
-3 2 -9 -0.12 0.24
3 -2 9 -0.14 0.26
3 -2 9 -0.27 0.28
3 -2 9 0.19 0.28
3 -2 9 0.22 0.27
-4 2 -9 1.33 0.41
-4 2 -9 2.17 0.4
4 -2 9 1.14 0.42
4 -2 9 2.04 0.37
4 -2 9 1.47 0.41
4 -2 9 0.88 0.37
5 1 -9 34.63 1.17
5 1 -9 33.35 1.05
5 1 -9 34.02 1.22
-5 -1 9 32.18 1.18
-5 -1 9 34.03 1.18
4 1 -9 29.08 1.03
4 1 -9 28 0.97
4 1 -9 27.87 1.05
4 1 -9 27.98 0.85
-4 -1 9 27.9 0.99
-4 -1 9 28.6 0.95
-4 -1 9 28.16 0.74
-4 -1 9 28.01 1.01
3 1 -9 46.76 1.26
3 1 -9 45.95 1.26
-3 -1 9 38.04 1.36
-3 -1 9 46.56 1.19
-3 -1 9 45.81 1.22
-3 -1 9 48.04 1.22
2 1 -9 6.74 0.36
2 1 -9 6.33 0.43
2 1 -9 6.67 0.43
2 1 -9 6.58 0.41
2 1 -9 6.72 0.49
-2 -1 9 7.14 0.46
-2 -1 9 5.66 0.42
-2 -1 9 7.53 0.48
-2 -1 9 6.59 0.42
1 1 -9 37.74 1
1 1 -9 38.66 0.94
1 1 -9 38.55 1.04
1 1 -9 39.51 0.99
1 1 -9 39.79 1.08
1 1 -9 39.74 1.02
-1 -1 9 39.24 1.04
-1 -1 9 39.32 1.05
-1 -1 9 40.48 1.06
0 1 -9 32.92 0.95
0 1 -9 32.61 0.86
0 1 -9 33.21 0.89
0 1 -9 31.77 0.85
0 1 -9 32.37 0.9
0 -1 9 33.22 0.92
0 -1 9 32.6 0.86
0 -1 9 32 0.95
0 -1 9 32.04 0.91
-1 1 -9 4.22 0.43
-1 1 -9 3.51 0.35
-1 1 -9 3.48 0.35
-1 1 -9 3.74 0.37
-1 1 -9 4.17 0.36
1 -1 9 3.3 0.37
1 -1 9 3.55 0.39
1 -1 9 3.48 0.33
1 -1 9 3.5 0.42
-2 1 -9 32.56 0.92
-2 1 -9 30.64 0.94
-2 1 -9 29.92 1.09
-2 1 -9 30.51 0.91
-2 1 -9 30.85 0.91
2 -1 9 30.31 0.97
2 -1 9 26.57 1.08
2 -1 9 30.57 0.95
2 -1 9 30.98 0.93
-3 1 -9 4.31 0.48
-3 1 -9 6.01 0.58
3 -1 9 5.46 0.56
3 -1 9 4.83 0.52
3 -1 9 4.99 0.52
3 -1 9 5.45 0.61
3 -1 9 5 0.53
-4 1 -9 19.51 0.96
-4 1 -9 20.15 0.89
4 -1 9 19.86 0.93
4 -1 9 19.85 0.97
4 -1 9 20.56 0.9
4 -1 9 19.45 0.87
5 0 -9 27.33 1.06
5 0 -9 27.75 0.9
5 0 -9 28.29 1.04
-5 0 9 28.06 1.06
-5 0 9 27.8 1.07
4 0 -9 76.74 1.87
4 0 -9 76.58 1.92
4 0 -9 78.03 1.85
-4 0 9 80.28 1.9
-4 0 9 77.28 1.89
-4 0 9 75.78 1.83
3 0 -9 1.25 0.32
3 0 -9 1.34 0.29
3 0 -9 1.39 0.21
3 0 -9 1.25 0.32
-3 0 9 1.09 0.28
-3 0 9 0.87 0.3
-3 0 9 0.66 0.22
2 0 -9 1.22 0.27
2 0 -9 1.65 0.19
2 0 -9 1.47 0.28
2 0 -9 1.55 0.26
2 0 -9 1.51 0.24
2 0 -9 1.31 0.24
-2 0 9 1.41 0.26
-2 0 9 1.97 0.28
-2 0 9 2 0.26
1 0 -9 10.17 0.47
1 0 -9 10.27 0.47
1 0 -9 10.71 0.48
1 0 -9 10.46 0.47
1 0 -9 9.82 0.38
1 0 -9 9.92 0.52
-1 0 9 10.29 0.49
-1 0 9 10.87 0.52
-1 0 9 10.24 0.49
0 0 -9 61.51 1.4
0 0 -9 59.54 1.45
0 0 -9 60 1.41
0 0 -9 58.49 1.39
0 0 9 58.77 1.45
0 0 9 58.43 1.42
0 0 9 60.14 1.34
0 0 9 60.46 1.42
-1 0 -9 18.23 0.62
-1 0 -9 18.04 0.64
-1 0 -9 18.64 0.65
-1 0 -9 18.41 0.71
-1 0 -9 18.94 0.67
1 0 9 17.75 0.71
1 0 9 18.11 0.64
1 0 9 18.59 0.68
1 0 9 19 0.68
-2 0 -9 3.97 0.43
-2 0 -9 4.55 0.5
-2 0 -9 4.01 0.39
-2 0 -9 4.29 0.47
2 0 9 4.01 0.46
2 0 9 4.4 0.48
2 0 9 5.26 0.49
2 0 9 4.15 0.43
-3 0 -9 10.86 0.67
-3 0 -9 11.78 0.64
-3 0 -9 11.07 0.72
3 0 9 11.06 0.61
3 0 9 11.48 0.67
3 0 9 10.04 0.7
3 0 9 12.46 0.67
3 0 9 12.63 0.68
-4 0 -9 1.32 0.4
-4 0 -9 2.15 0.61
4 0 9 2.72 0.44
4 0 9 1.86 0.53
4 0 9 1.74 0.45
4 0 9 1.5 0.4
5 -1 -9 23.77 0.8
5 -1 -9 25.22 0.98
5 -1 -9 26.86 1.07
-5 1 9 24.98 1.03
-5 1 9 24.66 0.98
4 -1 -9 32.2 1.09
4 -1 -9 32.39 1.01
4 -1 -9 30.74 0.8
-4 1 9 32.43 1.07
-4 1 9 32.65 1.05
3 -1 -9 44.84 1.22
3 -1 -9 43.32 1.16
3 -1 -9 42.79 0.92
3 -1 -9 44.35 1.2
3 -1 -9 43.73 1.22
-3 1 9 43.64 1.31
-3 1 9 45.08 1.21
-3 1 9 43.22 1.05
2 -1 -9 122.97 2.64
2 -1 -9 122.99 2.64
2 -1 -9 125.99 2.61
2 -1 -9 122.38 2.64
2 -1 -9 125.84 2.67
-2 1 9 123.97 2.57
-2 1 9 124.23 2.6
-2 1 9 124.96 2.66
1 -1 -9 12.22 0.54
1 -1 -9 12.48 0.59
1 -1 -9 12.74 0.52
1 -1 -9 12.6 0.55
1 -1 -9 12.49 0.57
-1 1 9 13.09 0.55
-1 1 9 12.95 0.54
-1 1 9 12.4 0.55
0 -1 -9 69.59 1.66
0 -1 -9 71.01 1.66
0 -1 -9 71.74 1.65
0 -1 -9 72.29 1.62
0 1 9 71.76 1.54
0 1 9 72.25 1.66
0 1 9 71.62 1.68
0 1 9 70.26 1.63
-1 -1 -9 37.84 1.07
-1 -1 -9 36.06 1.02
-1 -1 -9 36.3 1.05
-1 -1 -9 36.51 1
1 1 9 35.62 1.03
1 1 9 35.07 0.96
1 1 9 36.58 1.02
1 1 9 37.5 1.07
-2 -1 -9 2.18 0.31
-2 -1 -9 3 0.31
-2 -1 -9 2.08 0.32
-2 -1 -9 3.2 0.41
2 1 9 2.76 0.34
2 1 9 2.9 0.34
2 1 9 2.26 0.33
2 1 9 2.25 0.35
-3 -1 -9 8.41 0.6
-3 -1 -9 8.82 0.67
-3 -1 -9 8.68 0.71
3 1 9 9.91 0.67
3 1 9 8.81 0.64
3 1 9 8.73 0.66
3 1 9 8.1 0.68
-4 -1 -9 10.89 0.89
-4 -1 -9 10.22 0.79
4 1 9 10.1 0.83
4 1 9 11.1 0.68
4 1 9 9.67 0.8
4 1 9 10.28 0.83
5 -2 -9 0.14 0.34
5 -2 -9 -0.32 0.38
-5 2 9 0.08 0.35
-5 2 9 0.01 0.37
4 -2 -9 2.31 0.43
4 -2 -9 2.44 0.59
3 -2 -9 48.68 1.31
3 -2 -9 48.57 1.32
3 -2 -9 49.84 1.25
-3 2 9 47.8 1.14
-3 2 9 48.48 1.28
2 -2 -9 132.24 2.79
2 -2 -9 134.58 2.92
2 -2 -9 129.8 2.87
2 -2 -9 132.11 2.83
-2 2 9 133.67 2.74
1 -2 -9 13.67 0.59
1 -2 -9 13.47 0.62
1 -2 -9 13.25 0.6
1 -2 -9 12.93 0.53
1 -2 -9 12.97 0.36
-1 2 9 12.82 0.57
-1 2 9 13.71 0.57
-1 2 9 13.21 0.57
0 -2 -9 22.06 0.75
0 -2 -9 21.98 0.76
0 -2 -9 21.07 0.7
0 -2 -9 21.95 0.78
0 2 9 20.43 0.72
0 2 9 21.42 0.62
0 2 9 21.97 0.74
0 2 9 21.51 0.75
-1 -2 -9 -0.01 0.21
-1 -2 -9 0.36 0.27
-1 -2 -9 0.27 0.23
1 2 9 0.06 0.22
1 2 9 -0.13 0.23
1 2 9 0.01 0.24
1 2 9 0.97 0.23
-2 -2 -9 77.88 1.9
-2 -2 -9 79.68 1.86
-2 -2 -9 79.88 1.94
2 2 9 77.18 1.87
2 2 9 79.53 1.94
2 2 9 79.37 1.91
2 2 9 80.93 1.86
-3 -2 -9 14.31 0.77
-3 -2 -9 12.56 0.86
-3 -2 -9 12.69 0.73
-3 -2 -9 13.65 0.63
3 2 9 12.72 0.75
3 2 9 14.21 0.75
3 2 9 14.16 0.8
3 2 9 12.95 0.82
-4 -2 -9 0.31 0.51
4 2 9 -0.55 0.37
4 2 9 0.17 0.47
4 2 9 -0.27 0.42
5 -3 -9 -0.27 0.38
5 -3 -9 0.75 0.34
-5 3 9 1.41 0.39
-5 3 9 0.5 0.47
4 -3 -9 -0.41 0.31
4 -3 -9 0.13 0.35
3 -3 -9 10.96 0.54
3 -3 -9 9.83 0.62
3 -3 -9 10.62 0.63
-3 3 9 9.73 0.49
-3 3 9 10.08 0.58
2 -3 -9 9.2 0.48
2 -3 -9 8.36 0.55
2 -3 -9 9.27 0.49
-2 3 9 9.27 0.52
-2 3 9 9.43 0.49
1 -3 -9 60.12 1.42
1 -3 -9 60.91 1.47
1 -3 -9 51.64 1.69
-1 3 9 59.64 1.42
-1 3 9 49.94 1.76
-1 3 9 58.86 1.53
0 -3 -9 0.59 0.24
0 -3 -9 0.35 0.2
0 -3 -9 0.35 0.27
0 3 9 0.14 0.22
0 3 9 0.18 0.22
0 3 9 0.21 0.18
0 3 9 0.65 0.27
-1 -3 -9 257.48 5.18
-1 -3 -9 254.18 5.16
-1 -3 -9 258.14 5.11
1 3 9 254.93 5.11
1 3 9 258.72 5.21
1 3 9 260.37 5.04
1 3 9 251.88 5.15
-2 -3 -9 3.81 0.4
-2 -3 -9 4.82 0.49
-2 -3 -9 4.42 0.49
2 3 9 3.74 0.42
2 3 9 4.86 0.49
2 3 9 4.81 0.47
2 3 9 3.36 0.42
-3 -3 -9 23.98 1.08
-3 -3 -9 23.45 0.76
-3 -3 -9 25.02 1.01
-3 -3 -9 24.07 0.99
3 3 9 23.34 0.93
3 3 9 22.58 1.01
3 3 9 22.85 1.04
3 3 9 24.83 1.01
-4 -3 -9 0.47 0.55
4 3 9 -0.03 0.47
5 -4 -9 0.52 0.34
5 -4 -9 0.68 0.42
-5 4 9 -0.25 0.37
4 -4 -9 -0.14 0.32
4 -4 -9 0.5 0.27
4 -4 -9 0.16 0.36
-4 4 9 0.17 0.27
-4 4 9 0.27 0.23
3 -4 -9 76.92 1.82
3 -4 -9 72.29 1.87
-3 4 9 75.76 1.67
2 -4 -9 7.19 0.54
2 -4 -9 6.15 0.46
2 -4 -9 7.78 0.45
-2 4 9 6.85 0.46
-2 4 9 6.95 0.48
1 -4 -9 31.02 0.97
1 -4 -9 29.57 0.88
-1 4 9 29.76 0.92
-1 4 9 30.34 0.93
0 -4 -9 8.44 0.62
0 -4 -9 9.3 0.55
0 -4 -9 8.69 0.51
0 4 9 8.01 0.41
0 4 9 8.85 0.56
0 4 9 8.56 0.58
0 4 9 8.84 0.54
-1 -4 -9 12.31 0.71
-1 -4 -9 12.59 0.66
1 4 9 11.69 0.68
1 4 9 10.38 0.56
1 4 9 11.54 0.67
-2 -4 -9 62.44 1.67
-2 -4 -9 61.54 1.68
-2 -4 -9 62.34 1.62
2 4 9 61.97 1.68
2 4 9 62.19 1.58
2 4 9 63.62 1.65
2 4 9 60.22 1.66
-3 -4 -9 60.95 1.81
-3 -4 -9 63.65 1.78
-3 -4 -9 61.1 1.71
3 4 9 61.93 1.73
3 4 9 63.84 1.71
3 4 9 64.04 1.79
3 4 9 62.22 1.79
5 -5 -9 1.36 0.46
4 -5 -9 3.63 0.51
4 -5 -9 4.01 0.47
4 -5 -9 4.22 0.53
-4 5 9 3.8 0.36
-4 5 9 2.84 0.36
3 -5 -9 41.03 1.12
3 -5 -9 43.16 1.29
3 -5 -9 41.76 1.2
-3 5 9 41.21 1.17
-3 5 9 41.75 1.11
2 -5 -9 7.05 0.48
2 -5 -9 7.08 0.57
2 -5 -9 6.68 0.46
-2 5 9 7.89 0.52
-2 5 9 6.93 0.49
1 -5 -9 63.81 1.66
1 -5 -9 66.47 1.55
-1 5 9 65.37 1.6
-1 5 9 63.86 1.6
0 -5 -9 25.44 0.92
0 -5 -9 25.53 0.83
0 5 9 24.33 0.71
0 5 9 24.25 0.9
0 5 9 25.19 0.87
-1 -5 -9 10.93 0.76
-1 -5 -9 11.22 0.63
-1 -5 -9 10.56 0.68
1 5 9 11.23 0.69
1 5 9 10.01 0.57
1 5 9 10.16 0.71
1 5 9 10.59 0.66
-2 -5 -9 13.68 0.79
-2 -5 -9 13.57 0.9
-2 -5 -9 14.19 0.78
2 5 9 14.08 0.84
2 5 9 13.43 0.84
2 5 9 14.41 0.73
2 5 9 16.07 0.85
-3 -5 -9 17.19 1.15
-3 -5 -9 14.98 0.97
3 5 9 14.5 1.04
3 5 9 15.85 0.92
4 -6 -9 8.03 0.55
4 -6 -9 8.9 0.72
-4 6 9 8.64 0.58
-4 6 9 8.03 0.58
3 -6 -9 14.43 0.81
3 -6 -9 14.69 0.63
3 -6 -9 13.91 0.72
-3 6 9 14.38 0.66
-3 6 9 14.66 0.67
2 -6 -9 26.92 1.02
2 -6 -9 27.43 0.86
-2 6 9 27.9 0.91
-2 6 9 27.98 0.93
1 -6 -9 0.8 0.34
1 -6 -9 0.74 0.3
-1 6 9 1.25 0.42
-1 6 9 1.25 0.33
0 -6 -9 38.66 1.22
0 -6 -9 38.27 1.1
0 6 9 39.01 1.16
0 6 9 34.02 0.98
0 6 9 38.51 1.19
-1 -6 -9 0.38 0.34
-1 -6 -9 -0.1 0.3
1 6 9 0.26 0.33
1 6 9 0.04 0.3
1 6 9 0.5 0.33
-2 -6 -9 6.11 0.72
2 6 9 6.28 0.76
2 6 9 6.14 0.64
3 6 9 4.19 0.62
4 -7 -9 29.14 1.07
4 -7 -9 28.75 0.92
-4 7 9 27.27 0.95
-4 7 9 27.92 0.93
3 -7 -9 18.54 0.72
3 -7 -9 20.6 0.83
-3 7 9 19.02 0.77
-3 7 9 19.61 0.82
2 -7 -9 8.48 0.72
2 -7 -9 8.98 0.54
-2 7 9 10.09 0.59
-2 7 9 9.38 0.66
1 -7 -9 1.87 0.42
1 -7 -9 2.06 0.32
-1 7 9 2.04 0.39
-1 7 9 1.7 0.33
0 -7 -9 25.08 1.03
0 -7 -9 24.86 0.89
0 7 9 24.33 0.8
0 7 9 24.6 0.95
0 7 9 25.15 1.02
-1 -7 -9 1.99 0.65
-1 -7 -9 2.79 0.4
1 7 9 2.21 0.4
1 7 9 2.3 0.43
1 7 9 1.99 0.5
-2 -7 -9 0.68 0.42
2 7 9 0.67 0.46
2 7 9 1.22 0.46
3 -8 -9 -0.05 0.23
3 -8 -9 0.99 0.43
-3 8 9 -0.39 0.35
-3 8 9 0.1 0.25
2 -8 -9 5.74 0.49
-2 8 9 6.16 0.53
-2 8 9 6.02 0.65
1 -8 -9 0.1 0.27
-1 8 9 0.46 0.27
-1 8 9 0.01 0.37
0 -8 -9 11.25 0.68
0 8 9 10.68 0.72
0 8 9 11.53 0.86
0 8 9 12.29 0.65
-1 -8 -9 3.11 0.47
1 8 9 4.31 0.49
1 8 9 3.25 0.5
2 -9 -9 1.24 0.31
-2 9 9 0.87 0.45
-2 9 9 0.78 0.32
1 -9 -9 2.87 0.38
-1 9 9 3.04 0.42
0 -9 -9 3.85 0.45
0 9 9 3.76 0.51
0 9 9 3.72 0.49
1 9 -10 -0.21 0.38
1 9 -10 -0.15 0.4
-1 -9 10 0.32 0.34
0 9 -10 4.47 0.5
0 9 -10 4.19 0.51
0 -9 10 5.35 0.58
-1 9 -10 1.18 0.38
-1 9 -10 0.73 0.33
1 -9 10 1.01 0.32
-2 9 -10 -0.07 0.37
-2 9 -10 0.11 0.29
2 -9 10 0.31 0.29
2 8 -10 50.91 2.18
2 8 -10 49.51 1.46
2 8 -10 45.77 1.52
-2 -8 10 47.47 1.47
-2 -8 10 49.76 1.54
1 8 -10 0.6 0.4
1 8 -10 0.43 0.36
1 8 -10 -0.11 0.37
-1 -8 10 0.48 0.32
-1 -8 10 0.11 0.43
0 8 -10 12.51 0.78
0 8 -10 11.69 0.71
0 8 -10 12.33 0.75
0 -8 10 12.05 0.87
0 -8 10 11.91 0.69
-1 8 -10 0.51 0.42
-1 8 -10 -0.06 0.33
-1 8 -10 -0.18 0.27
1 -8 10 0.35 0.28
-2 8 -10 12.51 0.74
-2 8 -10 11.77 0.69
2 -8 10 11.58 0.63
3 7 -10 5.11 0.59
3 7 -10 3.87 0.62
3 7 -10 5.18 0.58
-3 -7 10 5.2 0.61
-3 -7 10 5.12 0.6
2 7 -10 1.92 0.4
2 7 -10 2.43 0.45
2 7 -10 1.68 0.46
-2 -7 10 1.54 0.43
-2 -7 10 1.44 0.39
1 7 -10 66.2 1.71
1 7 -10 63.21 1.67
1 7 -10 63.59 1.72
-1 -7 10 61.72 1.64
-1 -7 10 65.63 1.74
0 7 -10 5.91 0.63
0 7 -10 6.28 0.59
0 7 -10 7.01 0.58
0 -7 10 6.59 0.66
0 -7 10 7.02 0.56
-1 7 -10 16.02 0.76
-1 7 -10 17.81 0.82
-1 7 -10 17.5 0.95
1 -7 10 16.19 0.72
1 -7 10 17.65 0.9
-2 7 -10 3.71 0.41
-2 7 -10 3.38 0.35
-2 7 -10 3.36 0.45
2 -7 10 3.16 0.37
2 -7 10 3.36 0.5
-3 7 -10 10.62 0.59
-3 7 -10 10.91 0.67
-3 7 -10 11.54 0.73
3 -7 10 10.04 0.61
3 6 -10 28.84 1.07
3 6 -10 28.13 1.07
3 6 -10 29.59 1.19
-3 -6 10 28.38 1.11
-3 -6 10 28.19 1.07
2 6 -10 0.71 0.39
2 6 -10 0.66 0.33
2 6 -10 0.09 0.32
-2 -6 10 0.31 0.34
-2 -6 10 0.5 0.32
1 6 -10 30.89 1.02
1 6 -10 32.85 1.05
1 6 -10 29.99 1.05
-1 -6 10 30.7 1.08
-1 -6 10 29.84 1
0 6 -10 5.48 0.57
0 6 -10 5.61 0.52
0 6 -10 5.82 0.52
0 -6 10 5.52 0.52
0 -6 10 4.94 0.58
-1 6 -10 17.56 0.8
-1 6 -10 17.71 0.76
-1 6 -10 17.33 0.76
1 -6 10 16.3 0.71
1 -6 10 17.3 0.82
-2 6 -10 1.09 0.54
-2 6 -10 1.18 0.25
-2 6 -10 0.98 0.24
-2 6 -10 0.96 0.31
2 -6 10 1.02 0.37
2 -6 10 1.13 0.3
2 -6 10 1.23 0.38
2 -6 10 0.86 0.26
-3 6 -10 3.7 0.4
-3 6 -10 4.52 0.52
-3 6 -10 4.83 0.57
-3 6 -10 3.78 0.42
3 -6 10 4.37 0.52
4 5 -10 1.69 0.44
4 5 -10 1.09 0.45
4 5 -10 1.69 0.58
4 5 -10 2.66 0.5
-4 -5 10 2.68 0.36
-4 -5 10 3.35 0.59
-4 -5 10 2.32 0.51
3 5 -10 6.35 0.77
3 5 -10 5.3 0.59
3 5 -10 6.16 0.7
3 5 -10 6.37 0.66
-3 -5 10 6.44 0.72
-3 -5 10 5.65 0.43
-3 -5 10 6.45 0.64
-3 -5 10 5.78 0.67
-3 -5 10 5.84 0.42
2 5 -10 5.24 0.54
2 5 -10 5.68 0.55
2 5 -10 5.86 0.53
2 5 -10 6.01 0.65
-2 -5 10 6.39 0.63
-2 -5 10 6.12 0.59
-2 -5 10 6.32 0.57
1 5 -10 17.58 0.74
1 5 -10 17.4 0.78
1 5 -10 17.95 0.71
1 5 -10 17.15 0.71
-1 -5 10 17.13 0.74
-1 -5 10 17.03 0.75
-1 -5 10 17.75 0.78
0 5 -10 22.33 0.84
0 5 -10 23.76 0.85
0 5 -10 21.69 0.82
0 -5 10 21.92 0.8
0 -5 10 22.61 0.88
-1 5 -10 11.99 0.65
-1 5 -10 13.16 0.67
-1 5 -10 12.78 0.44
-1 5 -10 13.14 0.44
1 -5 10 12.91 0.47
1 -5 10 13.74 0.71
1 -5 10 13.41 0.63
-2 5 -10 71.63 1.58
-2 5 -10 71 1.79
-2 5 -10 71.2 1.6
-2 5 -10 70.5 1.76
2 -5 10 69.72 1.85
2 -5 10 73.13 1.83
2 -5 10 70.24 1.71
-3 5 -10 0.74 0.3
-3 5 -10 1.08 0.36
-3 5 -10 0.82 0.31
-3 5 -10 0.86 0.38
3 -5 10 0.86 0.41
3 -5 10 0.98 0.29
3 -5 10 0.96 0.43
-4 5 -10 34.62 1.14
-4 5 -10 34.8 1.19
4 -5 10 34.96 1.13
4 -5 10 34.49 1.22
4 4 -10 0.54 0.36
4 4 -10 -0.32 0.37
4 4 -10 -0.33 0.43
4 4 -10 0.15 0.48
-4 -4 10 0.22 0.32
-4 -4 10 0.25 0.33
-4 -4 10 0.52 0.43
-4 -4 10 0.39 0.52
3 4 -10 11.65 0.69
3 4 -10 11.52 0.8
3 4 -10 11.96 0.64
3 4 -10 10.54 0.69
-3 -4 10 12.22 0.55
-3 -4 10 11.58 0.66
-3 -4 10 11.42 0.55
-3 -4 10 11.64 0.77
-3 -4 10 12.07 0.74
2 4 -10 0.59 0.31
2 4 -10 0.32 0.27
2 4 -10 1.04 0.34
2 4 -10 0.57 0.27
-2 -4 10 0.85 0.2
-2 -4 10 0.5 0.29
-2 -4 10 0.95 0.32
-2 -4 10 0.56 0.3
-2 -4 10 0.9 0.2
-2 -4 10 0.63 0.19
1 4 -10 6.15 0.48
1 4 -10 5.42 0.47
1 4 -10 5.26 0.46
-1 -4 10 4.7 0.44
-1 -4 10 5.98 0.53
-1 -4 10 4.67 0.29
-1 -4 10 5.36 0.51
-1 -4 10 5.02 0.28
0 4 -10 46.87 1.26
0 4 -10 46.98 1.24
0 4 -10 45.78 1.02
0 4 -10 44.66 1.58
0 4 -10 48.18 1.11
0 4 -10 46.96 1.29
0 -4 10 48.11 1.25
0 -4 10 43.78 1.01
0 -4 10 47.98 1.25
0 -4 10 46.29 1.3
-1 4 -10 0.14 0.26
-1 4 -10 0.52 0.2
-1 4 -10 0.39 0.19
-1 4 -10 0.3 0.27
1 -4 10 0.63 0.24
1 -4 10 0.45 0.28
1 -4 10 0.75 0.29
1 -4 10 0.66 0.21
-2 4 -10 12.09 0.66
-2 4 -10 12.08 0.57
-2 4 -10 11.43 0.55
-2 4 -10 11.04 0.63
2 -4 10 11.48 0.69
2 -4 10 12.62 0.67
2 -4 10 11.21 0.68
-3 4 -10 9.23 0.58
-3 4 -10 9.63 0.65
-3 4 -10 9.42 0.67
3 -4 10 10.5 0.75
3 -4 10 11 0.76
3 -4 10 10.17 0.63
-4 4 -10 -0.05 0.35
-4 4 -10 0.17 0.35
4 -4 10 0.48 0.33
4 -4 10 0.41 0.4
4 3 -10 21.95 0.86
4 3 -10 22.49 0.99
4 3 -10 22.18 1.08
4 3 -10 22.39 0.97
-4 -3 10 21.29 0.86
-4 -3 10 21.06 0.8
-4 -3 10 22.59 0.99
3 3 -10 14.68 0.63
3 3 -10 13.4 0.79
3 3 -10 14.23 0.73
3 3 -10 12.86 0.69
-3 -3 10 12.27 0.73
-3 -3 10 14.13 0.61
-3 -3 10 13.48 0.73
-3 -3 10 13.59 0.6
-3 -3 10 13.15 0.65
2 3 -10 4.01 0.42
2 3 -10 3.91 0.47
2 3 -10 3.99 0.44
2 3 -10 3.59 0.36
-2 -3 10 4.12 0.37
-2 -3 10 5.38 0.49
-2 -3 10 4.3 0.35
-2 -3 10 4.85 0.39
-2 -3 10 4.09 0.42
-2 -3 10 4.63 0.53
1 3 -10 11.24 0.54
1 3 -10 11.05 0.57
1 3 -10 11 0.54
1 3 -10 10.25 0.61
1 3 -10 10.5 0.44
-1 -3 10 11.3 0.6
-1 -3 10 11.68 0.6
-1 -3 10 11.21 0.6
-1 -3 10 10.81 0.42
0 3 -10 154.01 3.17
0 3 -10 152.65 3.33
0 3 -10 158.95 3.23
0 3 -10 154.7 3.07
0 3 -10 153.66 3.08
0 3 -10 155.93 3.26
0 -3 10 153.71 3.21
0 -3 10 155.99 3.3
0 -3 10 156.49 3.29
0 -3 10 153.09 3.07
-1 3 -10 17.19 0.72
-1 3 -10 15.8 0.68
-1 3 -10 16.99 0.59
-1 3 -10 17.49 0.6
1 -3 10 16.9 0.71
1 -3 10 16.6 0.76
1 -3 10 16.45 0.83
1 -3 10 16.86 0.68
-2 3 -10 10.34 0.53
-2 3 -10 9.88 0.6
-2 3 -10 10.19 0.63
-2 3 -10 10.42 0.56
2 -3 10 11.06 0.6
2 -3 10 10.15 0.65
2 -3 10 10.21 0.64
-3 3 -10 15.79 0.8
-3 3 -10 16.1 0.71
3 -3 10 16.36 0.8
3 -3 10 14.75 0.72
3 -3 10 15.91 0.84
-4 3 -10 2.23 0.43
-4 3 -10 2.41 0.47
4 -3 10 2.21 0.41
4 -3 10 2.14 0.46
5 2 -10 6.98 0.73
5 2 -10 7.25 0.7
5 2 -10 7.29 0.83
-5 -2 10 6.58 0.73
-5 -2 10 7.51 0.74
4 2 -10 53.01 1.37
4 2 -10 53.43 1.5
4 2 -10 53.81 1.58
4 2 -10 54.75 1.57
-4 -2 10 53.61 1.43
-4 -2 10 54 1.52
-4 -2 10 54.77 1.59
3 2 -10 12.52 0.65
3 2 -10 12.21 0.74
3 2 -10 12.36 0.57
3 2 -10 12.71 0.69
-3 -2 10 13.53 0.72
-3 -2 10 11.9 0.7
-3 -2 10 11.81 0.62
-3 -2 10 11.86 0.59
-3 -2 10 11.56 0.62
2 2 -10 18.36 0.72
2 2 -10 20.64 0.8
2 2 -10 18.04 0.65
2 2 -10 19.21 0.66
2 2 -10 19.41 0.75
-2 -2 10 19.49 0.72
-2 -2 10 18.96 0.76
-2 -2 10 20.03 0.78
-2 -2 10 19.12 0.66
1 2 -10 7.62 0.54
1 2 -10 7.38 0.47
1 2 -10 7.54 0.44
1 2 -10 7.33 0.49
1 2 -10 6.92 0.41
-1 -2 10 7.49 0.53
-1 -2 10 7.21 0.5
-1 -2 10 7.09 0.5
-1 -2 10 6.81 0.44
0 2 -10 2.16 0.25
0 2 -10 2.27 0.32
0 2 -10 2.19 0.25
0 2 -10 2.8 0.35
0 2 -10 2.44 0.29
0 -2 10 3.38 0.34
0 -2 10 1.96 0.28
0 -2 10 2.17 0.32
-1 2 -10 29.24 0.82
-1 2 -10 28.59 0.83
-1 2 -10 28.73 0.9
-1 2 -10 27.72 0.87
1 -2 10 28.5 0.9
1 -2 10 28.28 0.97
1 -2 10 30 0.91
-2 2 -10 41.78 1.18
-2 2 -10 43.97 1.25
-2 2 -10 42.27 1.18
-2 2 -10 43.14 1.14
2 -2 10 42.42 1.19
2 -2 10 42.46 1.28
2 -2 10 41.47 1.2
2 -2 10 43.86 1.24
-3 2 -10 2.62 0.41
-3 2 -10 2.43 0.35
3 -2 10 2.53 0.43
3 -2 10 2.3 0.41
-4 2 -10 1.15 0.44
-4 2 -10 0.81 0.41
4 -2 10 1.37 0.43
4 -2 10 1.27 0.38
5 1 -10 -0.06 0.35
5 1 -10 0.54 0.44
5 1 -10 0.53 0.44
-5 -1 10 0.5 0.42
-5 -1 10 0.18 0.47
4 1 -10 6.55 0.71
4 1 -10 6.13 0.52
4 1 -10 6.27 0.64
4 1 -10 4.86 0.64
-4 -1 10 5.42 0.46
-4 -1 10 5.34 0.59
-4 -1 10 6.5 0.64
-4 -1 10 6.64 0.74
3 1 -10 7.11 0.57
3 1 -10 8.26 0.65
3 1 -10 8.43 0.59
-3 -1 10 7.46 0.56
-3 -1 10 8.08 0.71
-3 -1 10 8.47 0.6
-3 -1 10 7.35 0.51
2 1 -10 49.68 1.33
2 1 -10 50.53 1.29
2 1 -10 50.09 1.35
2 1 -10 50.27 1.24
2 1 -10 50.57 1.17
-2 -1 10 49.99 1.33
-2 -1 10 50.81 1.27
-2 -1 10 50.56 1.31
1 1 -10 53.82 1.39
1 1 -10 53.75 1.29
1 1 -10 52.53 1.27
1 1 -10 52.39 1.34
1 1 -10 54.13 1.31
-1 -1 10 54.11 1.36
-1 -1 10 53.25 1.36
-1 -1 10 51.81 1.33
0 1 -10 11.63 0.55
0 1 -10 10.9 0.54
0 1 -10 11.87 0.52
0 1 -10 11.97 0.51
0 1 -10 11.36 0.61
0 -1 10 11.91 0.52
0 -1 10 11.11 0.56
0 -1 10 10.77 0.58
0 -1 10 11.04 0.57
-1 1 -10 30.4 0.87
-1 1 -10 28.54 0.89
-1 1 -10 29.49 0.89
-1 1 -10 28.79 0.88
-1 1 -10 30.45 0.97
1 -1 10 28.41 0.96
1 -1 10 29.27 0.92
1 -1 10 30.51 0.9
1 -1 10 28.67 0.92
-2 1 -10 0.29 0.23
-2 1 -10 0.44 0.29
-2 1 -10 0.12 0.3
-2 1 -10 0.14 0.26
2 -1 10 0.1 0.27
2 -1 10 0.46 0.3
2 -1 10 0.12 0.26
2 -1 10 0.59 0.3
-3 1 -10 3.13 0.44
-3 1 -10 3.31 0.41
-3 1 -10 3.11 0.39
3 -1 10 2.18 0.38
3 -1 10 3.05 0.43
3 -1 10 3.58 0.45
-4 1 -10 6.13 0.7
-4 1 -10 6.58 0.78
4 -1 10 6.26 0.69
4 -1 10 5.37 0.55
5 0 -10 10.42 0.8
5 0 -10 9.5 0.62
5 0 -10 9.68 0.77
-5 0 10 9.16 0.79
-5 0 10 9.16 0.86
4 0 -10 2.74 0.3
4 0 -10 3 0.43
4 0 -10 2.65 0.57
-4 0 10 2.58 0.28
-4 0 10 3.04 0.44
3 0 -10 4.4 0.51
3 0 -10 4.48 0.41
3 0 -10 5.22 0.51
3 0 -10 3.79 0.43
3 0 -10 4.71 0.35
-3 0 10 4.64 0.43
-3 0 10 4.12 0.43
-3 0 10 4.66 0.53
2 0 -10 20.11 0.72
2 0 -10 19.11 0.73
2 0 -10 19.21 0.56
2 0 -10 19.41 0.7
2 0 -10 18.42 0.75
2 0 -10 19.33 0.73
-2 0 10 19.76 0.7
-2 0 10 19.92 0.74
-2 0 10 19.44 0.75
1 0 -10 27.02 0.72
1 0 -10 26.16 0.85
1 0 -10 26.91 0.85
1 0 -10 27.62 0.9
1 0 -10 28.33 0.84
1 0 -10 28.33 0.84
-1 0 10 28.64 0.87
-1 0 10 27.98 0.88
-1 0 10 28.6 0.88
0 0 -10 1.05 0.24
0 0 -10 1.13 0.25
0 0 -10 0.39 0.27
0 0 -10 0.76 0.22
0 0 -10 0.54 0.23
0 0 10 0.66 0.22
0 0 10 0.57 0.26
0 0 10 0.56 0.24
0 0 10 0.57 0.25
-1 0 -10 150.58 3.21
-1 0 -10 149.59 3.12
-1 0 -10 147.33 3.16
-1 0 -10 150.15 3.14
-1 0 -10 151.3 3.13
1 0 10 149.61 3.23
1 0 10 153.51 3.12
1 0 10 153.75 3.17
1 0 10 149.03 3.17
-2 0 -10 31.54 1.53
-2 0 -10 34.77 1
-2 0 -10 33.96 1.03
-2 0 -10 34.31 1.03
2 0 10 31.07 1.52
2 0 10 34.28 1.05
2 0 10 34.74 1.11
2 0 10 34.18 1.07
-3 0 -10 20.69 0.95
-3 0 -10 19.07 0.83
-3 0 -10 19.64 0.94
-3 0 -10 17.93 0.75
3 0 10 19.58 0.86
3 0 10 18.97 0.88
3 0 10 19.48 0.87
3 0 10 18.6 0.87
-4 0 -10 2.27 0.48
-4 0 -10 2.3 0.54
4 0 10 2.2 0.48
4 0 10 2.46 0.47
5 -1 -10 33.88 1.25
5 -1 -10 32.52 1.16
-5 1 10 31.47 1.19
-5 1 10 34.47 1.25
4 -1 -10 2.51 0.46
-4 1 10 2.32 0.4
-4 1 10 2.73 0.28
3 -1 -10 0.41 0.32
3 -1 -10 0.4 0.28
3 -1 -10 -0.08 0.31
3 -1 -10 -0.35 0.25
-3 1 10 -0.07 0.32
-3 1 10 -0.1 0.23
-3 1 10 0.2 0.28
2 -1 -10 20.97 0.77
2 -1 -10 20.95 0.75
2 -1 -10 21.43 0.8
2 -1 -10 18.77 0.83
2 -1 -10 20.47 0.83
-2 1 10 19.41 0.9
-2 1 10 21.67 0.73
-2 1 10 21.13 0.77
1 -1 -10 56.76 1.41
1 -1 -10 53.38 1.35
1 -1 -10 53.47 1.4
1 -1 -10 55.16 1.35
1 -1 -10 54.6 1.37
1 -1 -10 55.34 1.18
-1 1 10 57.12 1.39
-1 1 10 55.06 1.4
-1 1 10 55.7 1.37
0 -1 -10 5.03 0.43
0 -1 -10 5.49 0.48
0 -1 -10 4.99 0.39
0 -1 -10 4.66 0.5
0 -1 -10 4.74 0.43
0 1 10 5.1 0.38
0 1 10 4.92 0.48
0 1 10 5.28 0.47
0 1 10 5.88 0.47
-1 -1 -10 32.79 0.99
-1 -1 -10 33.06 0.92
-1 -1 -10 30.23 1.03
-1 -1 -10 32.01 0.96
1 1 10 32.44 1.05
1 1 10 32.21 1.01
1 1 10 31.73 0.93
1 1 10 32.5 0.99
-2 -1 -10 47.65 1.33
-2 -1 -10 46.67 1.23
-2 -1 -10 48.13 1.39
-2 -1 -10 45.16 1.28
2 1 10 45.96 1.33
2 1 10 48.4 1.4
2 1 10 46.34 1.32
2 1 10 48.64 1.3
-3 -1 -10 15.35 0.83
-3 -1 -10 16.13 0.82
-3 -1 -10 14.81 0.71
-3 -1 -10 17.21 0.91
3 1 10 16.35 0.9
3 1 10 16.75 0.82
3 1 10 16.64 0.86
3 1 10 15.73 0.87
-4 -1 -10 50.53 1.69
4 1 10 52.16 1.62
5 -2 -10 -0.42 0.36
5 -2 -10 -0.19 0.42
-5 2 10 0.48 0.44
-5 2 10 -0.31 0.52
4 -2 -10 1.04 0.4
4 -2 -10 0.51 0.31
-4 2 10 0.78 0.24
-4 2 10 0.76 0.33
3 -2 -10 0.59 0.29
3 -2 -10 0.72 0.26
3 -2 -10 0.61 0.31
-3 2 10 0.48 0.27
-3 2 10 0.73 0.25
2 -2 -10 20.45 0.75
2 -2 -10 20.77 0.8
2 -2 -10 20.15 0.73
2 -2 -10 19.63 0.78
-2 2 10 19.91 0.71
-2 2 10 20.24 0.77
-2 2 10 20.06 0.78
1 -2 -10 0.29 0.21
1 -2 -10 0.05 0.22
1 -2 -10 0.01 0.13
1 -2 -10 -0.14 0.21
1 -2 -10 0.25 0.27
-1 2 10 0.08 0.25
-1 2 10 -0.05 0.23
-1 2 10 -0.14 0.22
0 -2 -10 48.26 1.33
0 -2 -10 50.13 1.26
0 -2 -10 50.5 1.29
0 -2 -10 51.54 1.34
0 2 10 51.04 1.17
0 2 10 51.52 1.34
0 2 10 50.81 1.35
0 2 10 49.2 1.29
-1 -2 -10 40.24 1.22
-1 -2 -10 40.85 1.19
-1 -2 -10 40.29 1.08
-1 -2 -10 39.69 1.13
1 2 10 41.21 1.19
1 2 10 41.19 1.09
1 2 10 41.31 1.23
1 2 10 39.95 1.17
-2 -2 -10 1.05 0.28
-2 -2 -10 0.49 0.38
-2 -2 -10 0.66 0.33
-2 -2 -10 -0.3 0.26
2 2 10 0.59 0.33
2 2 10 0.18 0.32
2 2 10 0.18 0.29
2 2 10 0.05 0.31
-3 -2 -10 0.23 0.31
-3 -2 -10 0.37 0.41
-3 -2 -10 -0.13 0.44
-3 -2 -10 0.19 0.34
3 2 10 0.08 0.41
3 2 10 0.32 0.41
3 2 10 0.15 0.45
3 2 10 0.48 0.39
-4 -2 -10 16.37 1.2
5 -3 -10 1.54 0.41
5 -3 -10 2.62 0.53
4 -3 -10 0.09 0.28
4 -3 -10 0.1 0.37
4 -3 -10 0.1 0.39
-4 3 10 0.7 0.32
-4 3 10 0.29 0.24
3 -3 -10 6.73 0.61
3 -3 -10 5.95 0.66
3 -3 -10 6.3 0.59
-3 3 10 6.26 0.72
-3 3 10 6.52 0.49
2 -3 -10 26.12 0.86
2 -3 -10 24.53 0.82
2 -3 -10 23.94 0.89
-2 3 10 23.95 0.85
-2 3 10 25.33 0.82
1 -3 -10 2.37 0.37
1 -3 -10 2.21 0.29
1 -3 -10 3 0.37
1 -3 -10 3.61 0.39
-1 3 10 3.49 0.36
-1 3 10 2.95 0.36
-1 3 10 2.25 0.34
0 -3 -10 19.98 0.81
0 -3 -10 21.62 0.8
0 -3 -10 17.07 1.05
0 3 10 20.41 0.8
0 3 10 19.73 0.78
0 3 10 20.13 0.62
0 3 10 17.11 1.14
-1 -3 -10 253.37 5.15
-1 -3 -10 252.6 5.14
-1 -3 -10 254.03 5.07
1 3 10 250.43 4.98
1 3 10 251.46 5.17
1 3 10 251.56 5.12
1 3 10 251.57 5.08
-2 -3 -10 14.03 0.88
-2 -3 -10 14.5 0.78
-2 -3 -10 14.74 0.77
2 3 10 13.7 0.8
2 3 10 14.11 0.71
2 3 10 14.45 0.81
2 3 10 14.47 0.81
-3 -3 -10 25.52 1.23
-3 -3 -10 24.5 1.21
-3 -3 -10 25.41 1.08
-3 -3 -10 24.21 0.85
3 3 10 23.96 1.02
3 3 10 23.75 1.1
3 3 10 23.92 1.13
4 -4 -10 8.89 0.77
4 -4 -10 8.14 0.68
4 -4 -10 7.62 0.59
-4 4 10 7.33 0.63
-4 4 10 7.36 0.5
3 -4 -10 1.96 0.31
3 -4 -10 1.98 0.38
3 -4 -10 2.62 0.42
-3 4 10 2.5 0.33
-3 4 10 2.39 0.36
2 -4 -10 28.76 0.9
2 -4 -10 28.63 1.01
2 -4 -10 28.19 0.9
-2 4 10 28.93 0.92
-2 4 10 29.1 0.95
1 -4 -10 0.02 0.24
1 -4 -10 0.54 0.29
-1 4 10 0.22 0.25
-1 4 10 0.5 0.28
0 -4 -10 22.9 0.88
0 -4 -10 23.12 0.82
0 -4 -10 22.42 0.91
0 4 10 21.73 0.67
0 4 10 21.89 0.85
0 4 10 22.08 0.87
0 4 10 22.76 0.86
-1 -4 -10 3.88 0.41
-1 -4 -10 4.35 0.51
-1 -4 -10 5.56 0.58
1 4 10 4.12 0.46
1 4 10 3.97 0.38
1 4 10 5.14 0.59
1 4 10 4.5 0.47
-2 -4 -10 3.4 0.54
-2 -4 -10 3.1 0.45
-2 -4 -10 2.86 0.45
2 4 10 3.17 0.46
2 4 10 3.4 0.49
2 4 10 3.3 0.43
2 4 10 2.9 0.46
-3 -4 -10 13.96 1.12
3 4 10 13.52 0.88
3 4 10 14.54 1.05
3 4 10 11.98 0.99
4 -5 -10 18.97 0.78
4 -5 -10 19.07 0.89
-4 5 10 18.13 0.69
-4 5 10 17.11 0.81
3 -5 -10 8.5 0.57
3 -5 -10 9.53 0.73
3 -5 -10 8.11 0.67
-3 5 10 10.04 0.61
-3 5 10 9.42 0.61
2 -5 -10 28.11 1.02
2 -5 -10 27.29 0.9
2 -5 -10 25.25 0.86
-2 5 10 26.52 0.92
-2 5 10 26.8 0.92
1 -5 -10 12.73 0.72
1 -5 -10 11.3 0.62
-1 5 10 12.28 0.67
-1 5 10 12.04 0.67
0 -5 -10 14.52 0.75
0 -5 -10 14.86 0.69
0 5 10 13.38 0.56
0 5 10 14.39 0.76
0 5 10 14.87 0.73
-1 -5 -10 0.01 0.46
-1 -5 -10 -0.11 0.31
-1 -5 -10 -0.29 0.3
1 5 10 -0.04 0.28
1 5 10 0.13 0.34
1 5 10 -0.06 0.32
-2 -5 -10 6.94 0.74
2 5 10 6.31 0.78
2 5 10 7.26 0.68
4 -6 -10 28.22 0.96
4 -6 -10 28.77 1.08
-4 6 10 28.82 1.02
-4 6 10 28.95 1.05
3 -6 -10 3.81 0.59
3 -6 -10 4.69 0.52
3 -6 -10 4.51 0.49
-3 6 10 4.17 0.43
-3 6 10 4.09 0.43
2 -6 -10 39.16 1.31
2 -6 -10 38.5 1.11
2 -6 -10 38.89 1.12
-2 6 10 39.6 1.19
-2 6 10 39.04 1.17
1 -6 -10 9.63 0.61
1 -6 -10 9.32 0.71
-1 6 10 8.74 0.66
-1 6 10 10.26 0.65
0 -6 -10 0.14 0.29
0 -6 -10 0.16 0.35
0 6 10 0.08 0.29
0 6 10 -0.11 0.35
0 6 10 -0.56 0.26
-1 -6 -10 1.05 0.48
-1 -6 -10 0.53 0.36
1 6 10 0.81 0.34
1 6 10 1.04 0.41
1 6 10 1.37 0.38
-2 -6 -10 2.1 0.5
2 6 10 0.81 0.45
2 6 10 1.17 0.47
3 -7 -10 11.75 0.76
3 -7 -10 12.56 0.63
-3 7 10 11.52 0.75
-3 7 10 11.51 0.66
2 -7 -10 7.17 0.55
2 -7 -10 6.46 0.6
-2 7 10 7.42 0.67
-2 7 10 7.09 0.58
1 -7 -10 67.51 1.67
-1 7 10 66.64 1.79
-1 7 10 65.56 1.72
0 -7 -10 3.47 0.43
0 7 10 3.11 0.36
0 7 10 2.66 0.51
0 7 10 3.4 0.47
-1 -7 -10 18.78 0.9
1 7 10 16.77 0.94
1 7 10 18.58 0.84
2 -8 -10 1.48 0.33
-2 8 10 1.88 0.47
-2 8 10 2.1 0.38
1 -8 -10 6.95 0.6
-1 8 10 7.87 0.84
-1 8 10 7.77 0.67
0 -8 -10 3.45 0.45
0 8 10 2.65 0.45
1 8 -11 8.76 0.8
1 8 -11 8.87 0.7
-1 -8 11 9.8 0.74
0 8 -11 15.35 0.84
0 8 -11 16.27 0.82
0 -8 11 15.54 0.79
-1 8 -11 5.49 0.63
-1 8 -11 3.72 0.45
1 -8 11 4.01 0.43
-2 8 -11 0.26 0.34
-2 8 -11 1.02 0.42
2 7 -11 3.25 0.49
2 7 -11 3.57 0.51
2 7 -11 3.92 0.56
-2 -7 11 3.56 0.54
-2 -7 11 3.33 0.49
1 7 -11 0.78 0.41
1 7 -11 1.62 0.37
1 7 -11 0.93 0.39
-1 -7 11 1.69 0.48
-1 -7 11 1.32 0.37
0 7 -11 15.84 0.86
0 7 -11 13.9 0.76
0 7 -11 13.55 0.8
0 -7 11 14.61 0.94
0 -7 11 14.39 0.76
-1 7 -11 72.67 1.89
-1 7 -11 76.01 1.94
-1 7 -11 77.8 1.99
1 -7 11 73.99 1.84
-2 7 -11 8.15 0.68
-2 7 -11 7.36 0.64
2 -7 11 7.7 0.6
3 6 -11 0.29 0.39
3 6 -11 -0.28 0.37
3 6 -11 -0.44 0.51
-3 -6 11 -0.26 0.42
-3 -6 11 -0.42 0.43
2 6 -11 15.62 1.1
2 6 -11 14.44 0.79
2 6 -11 15.18 0.81
-2 -6 11 14.6 0.84
-2 -6 11 13.85 0.97
1 6 -11 -0.05 0.35
1 6 -11 -0.04 0.32
1 6 -11 -0.07 0.42
-1 -6 11 -0.05 0.39
-1 -6 11 -0.21 0.35
0 6 -11 14.31 0.75
0 6 -11 14.69 0.78
0 -6 11 13.49 0.71
0 -6 11 13.5 0.83
-1 6 -11 0.82 0.34
-1 6 -11 2.05 0.4
-1 6 -11 1.21 0.37
1 -6 11 1.26 0.4
1 -6 11 0.88 0.32
-2 6 -11 1.95 0.27
-2 6 -11 1.89 0.38
-2 6 -11 1.79 0.41
-2 6 -11 2.83 0.33
2 -6 11 2.27 0.49
2 -6 11 2 0.36
-3 6 -11 11.97 0.75
-3 6 -11 11.64 0.68
-3 6 -11 11.73 0.77
3 -6 11 10.97 0.67
3 5 -11 1.24 0.38
3 5 -11 1.42 0.51
3 5 -11 1.42 0.42
-3 -5 11 2.35 0.43
-3 -5 11 2.74 0.66
-3 -5 11 0.97 0.42
2 5 -11 1.84 0.44
2 5 -11 2.13 0.5
2 5 -11 1.77 0.34
2 5 -11 2.27 0.4
-2 -5 11 1.8 0.39
-2 -5 11 2.34 0.42
-2 -5 11 1.56 0.37
1 5 -11 19.07 0.79
1 5 -11 17.8 0.84
1 5 -11 18.88 0.92
1 5 -11 17.57 0.78
-1 -5 11 18.05 0.81
-1 -5 11 18.64 0.85
-1 -5 11 17.14 0.81
0 5 -11 0.19 0.31
0 5 -11 0.43 0.31
0 5 -11 0.85 0.32
0 -5 11 0.18 0.28
0 -5 11 0.79 0.34
-1 5 -11 14.26 0.75
-1 5 -11 14.77 0.52
-1 5 -11 13.94 0.71
-1 5 -11 14.65 0.51
1 -5 11 15.58 0.81
1 -5 11 15.11 0.71
1 -5 11 14.9 0.53
-2 5 -11 24.81 0.79
-2 5 -11 24.71 0.96
-2 5 -11 24.56 0.8
-2 5 -11 24.7 0.96
2 -5 11 25.78 1.08
2 -5 11 24.33 0.99
2 -5 11 23.85 0.9
-3 5 -11 14.86 0.81
-3 5 -11 12.04 0.69
-3 5 -11 13.71 0.79
3 -5 11 12.92 0.72
4 4 -11 27.06 1.26
4 4 -11 28.34 1.04
4 4 -11 25.18 1.1
-4 -4 11 26.88 0.95
-4 -4 11 26.18 0.99
-4 -4 11 25.11 1.48
-4 -4 11 26.7 1.15
3 4 -11 3.41 0.44
3 4 -11 3.29 0.45
3 4 -11 4.37 0.46
-3 -4 11 4.42 0.47
-3 -4 11 4.22 0.49
-3 -4 11 3.62 0.72
-3 -4 11 4.63 0.53
-3 -4 11 4.01 0.46
2 4 -11 -0.19 0.29
2 4 -11 0.03 0.34
2 4 -11 -0.03 0.3
2 4 -11 0.07 0.29
-2 -4 11 -0.36 0.21
-2 -4 11 0.21 0.35
-2 -4 11 0.06 0.3
-2 -4 11 0.08 0.33
-2 -4 11 -0.22 0.22
-2 -4 11 0.24 0.19
1 4 -11 11.86 0.62
1 4 -11 11.9 0.63
1 4 -11 10.6 0.71
1 4 -11 11.08 0.6
-1 -4 11 11.39 0.42
-1 -4 11 11.69 0.44
-1 -4 11 11.39 0.7
-1 -4 11 10.85 0.67
-1 -4 11 11.36 0.68
0 4 -11 23.77 0.88
0 4 -11 22.45 0.63
0 4 -11 22.94 0.83
0 4 -11 22.15 0.84
0 4 -11 23.25 0.9
0 4 -11 22.5 0.64
0 -4 11 23.55 0.91
0 -4 11 23.01 0.86
0 -4 11 23 0.64
0 -4 11 23.13 0.85
-1 4 -11 9.76 0.61
-1 4 -11 9.23 0.65
-1 4 -11 9.4 0.47
1 -4 11 8.95 0.64
1 -4 11 9.21 0.7
1 -4 11 8.86 0.6
1 -4 11 8.85 0.68
-2 4 -11 0.8 0.35
-2 4 -11 0.49 0.33
-2 4 -11 0.97 0.28
-2 4 -11 0.39 0.29
2 -4 11 0.76 0.31
2 -4 11 0.46 0.36
2 -4 11 1.34 0.4
-3 4 -11 12.34 0.79
-3 4 -11 12.31 0.77
-3 4 -11 11.99 0.69
3 -4 11 14.99 0.9
3 -4 11 11.75 0.73
4 3 -11 3 0.52
4 3 -11 3.43 0.44
4 3 -11 2.75 0.49
-4 -3 11 3.32 0.42
-4 -3 11 4 0.47
-4 -3 11 3.7 0.61
-4 -3 11 2.87 0.54
3 3 -11 15.77 0.77
3 3 -11 15.81 0.92
3 3 -11 15.12 0.69
3 3 -11 15.41 0.79
-3 -3 11 14.91 0.84
-3 -3 11 16.64 0.75
-3 -3 11 15 0.87
-3 -3 11 15.79 0.7
-3 -3 11 15.46 0.68
2 3 -11 0.35 0.32
2 3 -11 0.07 0.28
2 3 -11 0.33 0.3
2 3 -11 -0.25 0.25
-2 -3 11 -0.36 0.3
-2 -3 11 0.56 0.24
-2 -3 11 -0.51 0.28
-2 -3 11 0.63 0.33
1 3 -11 88.93 2.1
1 3 -11 87.36 1.89
1 3 -11 90.03 2.02
1 3 -11 91.36 2.02
1 3 -11 89.79 2.15
-1 -3 11 88.9 1.88
-1 -3 11 90.8 2.1
-1 -3 11 89.65 2.1
-1 -3 11 89.93 2.09
0 3 -11 40.33 1.11
0 3 -11 39.03 1.13
0 3 -11 39.58 1.09
0 3 -11 38.71 1.19
0 3 -11 37.99 1.05
0 3 -11 38.02 0.99
0 -3 11 39.63 1.14
0 -3 11 38.71 0.99
0 -3 11 40.38 1.15
0 -3 11 39.51 1.18
-1 3 -11 150.15 3.13
-1 3 -11 149.74 3.22
-1 3 -11 147.58 3.07
-1 3 -11 148.18 3.05
-1 3 -11 149.65 3.24
1 -3 11 148.48 3.19
1 -3 11 152.56 3.31
1 -3 11 151.19 3.17
1 -3 11 149.52 3.2
-2 3 -11 36.89 1.07
-2 3 -11 38.1 1.38
-2 3 -11 36.7 1.15
-2 3 -11 37.31 1.12
2 -3 11 36.55 1.19
2 -3 11 41.73 1.41
2 -3 11 37.37 1.26
-3 3 -11 2.99 0.46
-3 3 -11 2.53 0.45
-3 3 -11 2.68 0.4
3 -3 11 2.97 0.5
3 -3 11 3.4 0.43
4 2 -11 0.76 0.42
4 2 -11 0.41 0.38
4 2 -11 0.97 0.36
-4 -2 11 0.92 0.44
-4 -2 11 0.72 0.37
-4 -2 11 1.58 0.36
3 2 -11 9.11 0.54
3 2 -11 10.08 0.79
3 2 -11 9.08 0.65
3 2 -11 8.99 0.68
-3 -2 11 8.09 0.72
-3 -2 11 9.2 0.61
-3 -2 11 9.38 0.72
-3 -2 11 8.94 0.61
-3 -2 11 7.91 0.58
2 2 -11 0.67 0.27
2 2 -11 0.68 0.27
2 2 -11 0.26 0.34
2 2 -11 0.88 0.32
2 2 -11 0.66 0.29
-2 -2 11 1.09 0.28
-2 -2 11 0.46 0.32
-2 -2 11 1.11 0.32
-2 -2 11 0.64 0.29
1 2 -11 77.32 1.81
1 2 -11 77.11 1.73
1 2 -11 76.9 1.74
1 2 -11 79.33 1.88
1 2 -11 80.26 1.77
-1 -2 11 79.74 1.88
-1 -2 11 78.69 1.87
-1 -2 11 78.81 1.88
0 2 -11 15.48 0.67
0 2 -11 15.94 0.6
0 2 -11 15.1 0.68
0 2 -11 15.95 0.75
0 2 -11 15.21 0.6
0 -2 11 15.39 0.71
0 -2 11 15.9 0.7
0 -2 11 15.12 0.71
-1 2 -11 16.87 0.72
-1 2 -11 16.77 0.71
-1 2 -11 16.01 0.67
-1 2 -11 16.22 0.65
-1 2 -11 16.96 0.78
1 -2 11 16.22 0.73
1 -2 11 16.16 0.74
1 -2 11 14.8 0.76
1 -2 11 16.73 0.72
-2 2 -11 74.41 1.83
-2 2 -11 72.57 1.89
-2 2 -11 75.38 1.78
2 -2 11 74.67 1.94
2 -2 11 74.4 1.87
2 -2 11 76.66 2.26
2 -2 11 74.43 1.84
-3 2 -11 13.28 0.77
-3 2 -11 12.47 0.83
-3 2 -11 14.32 0.73
3 -2 11 13.63 0.95
3 -2 11 13.67 0.85
3 -2 11 13.76 0.8
4 1 -11 0.76 0.38
4 1 -11 -0.22 0.34
4 1 -11 -0.17 0.3
-4 -1 11 0.2 0.37
-4 -1 11 0.1 0.39
-4 -1 11 -0.45 0.39
3 1 -11 14.03 0.71
3 1 -11 12.99 0.74
3 1 -11 12.05 0.81
3 1 -11 13.43 0.61
-3 -1 11 13.14 0.66
-3 -1 11 14.3 0.77
-3 -1 11 13.1 0.76
2 1 -11 0.96 0.32
2 1 -11 -0.09 0.25
2 1 -11 0.09 0.27
2 1 -11 0.2 0.28
-2 -1 11 0.63 0.28
-2 -1 11 0.32 0.31
-2 -1 11 -0.01 0.28
1 1 -11 3.06 0.33
1 1 -11 3.18 0.34
1 1 -11 2.85 0.39
1 1 -11 2.97 0.38
1 1 -11 3.46 0.37
1 1 -11 2.39 0.31
-1 -1 11 2.2 0.35
-1 -1 11 2.48 0.36
-1 -1 11 2.64 0.34
0 1 -11 34.66 1.03
0 1 -11 34.51 1.01
0 1 -11 35.37 1.02
0 1 -11 34.1 0.97
0 1 -11 35.74 1.11
0 -1 11 34.42 1.08
0 -1 11 34.7 0.98
0 -1 11 34.59 1.05
0 -1 11 34.73 1.07
-1 1 -11 2.51 0.64
-1 1 -11 2.39 0.36
-1 1 -11 2.43 0.33
-1 1 -11 2.75 0.35
-1 1 -11 2.67 0.36
1 -1 11 1.68 0.35
1 -1 11 2.77 0.36
1 -1 11 2.19 0.51
1 -1 11 2.76 0.35
-2 1 -11 11.12 0.72
-2 1 -11 11.96 0.75
-2 1 -11 11.16 0.66
-2 1 -11 12.1 0.64
2 -1 11 11.14 0.74
2 -1 11 11.12 0.7
2 -1 11 11.41 0.68
2 -1 11 11.18 0.68
-3 1 -11 8.63 0.69
-3 1 -11 9.18 0.68
-3 1 -11 10.66 0.99
3 -1 11 9.62 0.91
3 -1 11 8.82 0.81
3 -1 11 10.1 0.78
4 0 -11 2.91 0.48
4 0 -11 4.15 0.42
-4 0 11 2.77 0.44
-4 0 11 3.24 0.33
3 0 -11 14.95 0.72
3 0 -11 15.32 0.83
3 0 -11 15.38 0.52
3 0 -11 15.55 0.77
3 0 -11 15 0.74
-3 0 11 15.37 0.78
-3 0 11 15.06 0.67
-3 0 11 15.65 0.79
2 0 -11 8.37 0.53
2 0 -11 7.86 0.56
2 0 -11 7.99 0.41
2 0 -11 7.52 0.62
2 0 -11 8.3 0.55
2 0 -11 8.51 0.63
-2 0 11 8.06 0.62
-2 0 11 8.81 0.6
-2 0 11 8.02 0.54
1 0 -11 3.15 0.38
1 0 -11 3.75 0.4
1 0 -11 3.66 0.39
1 0 -11 3.92 0.36
1 0 -11 3.87 0.43
1 0 -11 3.1 0.33
-1 0 11 3.54 0.38
-1 0 11 4.1 0.41
-1 0 11 3.78 0.39
0 0 -11 -0.04 0.29
0 0 -11 0.58 0.27
0 0 -11 0.16 0.23
0 0 -11 0.23 0.27
0 0 -11 0.36 0.27
0 0 11 0.62 0.25
0 0 11 0.56 0.27
0 0 11 0.06 0.26
0 0 11 0.25 0.29
-1 0 -11 2.47 0.4
-1 0 -11 3.13 0.37
-1 0 -11 3.83 0.48
-1 0 -11 3.02 0.37
1 0 11 1.9 0.38
1 0 11 3.51 0.38
1 0 11 3.41 0.41
1 0 11 2.91 0.39
-2 0 -11 1.54 0.4
-2 0 -11 1.37 0.34
-2 0 -11 1.31 0.37
-2 0 -11 1.35 0.33
2 0 11 1.43 0.38
2 0 11 1.1 0.34
2 0 11 1.36 0.37
2 0 11 1.49 0.39
-3 0 -11 3.57 0.47
-3 0 -11 5.4 0.59
-3 0 -11 4.8 0.59
3 0 11 4.55 0.53
3 0 11 5.17 0.55
4 -1 -11 26.03 1.06
4 -1 -11 25.89 0.99
-4 1 11 26.44 1.05
-4 1 11 27 0.87
3 -1 -11 5.77 0.58
3 -1 -11 6.87 0.78
3 -1 -11 5.34 0.57
3 -1 -11 4.78 0.55
-3 1 11 5.24 0.51
-3 1 11 4.88 0.6
2 -1 -11 7.69 0.58
2 -1 -11 7.59 0.63
2 -1 -11 8.15 0.55
2 -1 -11 8.09 0.55
-2 1 11 7.34 0.6
-2 1 11 8.04 0.55
-2 1 11 7.55 0.59
1 -1 -11 6.95 0.53
1 -1 -11 7.12 0.53
1 -1 -11 8.02 0.39
1 -1 -11 7.39 0.52
1 -1 -11 8.03 0.64
-1 1 11 8.89 0.6
-1 1 11 7.6 0.58
-1 1 11 7.58 0.56
0 -1 -11 13.41 0.74
0 -1 -11 14.39 0.63
0 -1 -11 14.34 0.67
0 -1 -11 14.42 0.66
0 1 11 14.01 0.69
0 1 11 14.99 0.57
0 1 11 15.17 0.69
0 1 11 14.51 0.71
-1 -1 -11 84.56 2.04
-1 -1 -11 82.77 1.96
-1 -1 -11 84.48 1.99
-1 -1 -11 84.52 1.91
1 1 11 82.18 2.01
1 1 11 84.32 1.99
1 1 11 83.58 2.06
1 1 11 83.47 1.9
-2 -1 -11 3.59 0.77
-2 -1 -11 4.07 0.46
-2 -1 -11 4.37 0.5
-2 -1 -11 3.93 0.45
2 1 11 3 0.46
2 1 11 4.34 0.58
2 1 11 4.16 0.48
2 1 11 3.94 0.44
-3 -1 -11 17.38 1.05
-3 -1 -11 16.75 0.89
-3 -1 -11 16.19 0.76
3 1 11 16.5 0.91
3 1 11 15.94 0.94
4 -2 -11 11.31 0.76
4 -2 -11 11.14 0.7
-4 2 11 10.28 0.76
-4 2 11 11.37 0.79
3 -2 -11 18.55 0.86
3 -2 -11 18.74 0.84
3 -2 -11 19.22 0.83
-3 2 11 19.69 1
-3 2 11 19.81 0.73
2 -2 -11 70.35 1.74
2 -2 -11 71.48 1.78
2 -2 -11 70.4 1.77
2 -2 -11 72.03 1.73
-2 2 11 72.32 1.71
-2 2 11 71.45 1.78
-2 2 11 73.52 1.74
1 -2 -11 4.45 0.46
1 -2 -11 3.86 0.48
1 -2 -11 3.82 0.43
1 -2 -11 4.1 0.29
1 -2 -11 4.28 0.48
-1 2 11 3.75 0.41
-1 2 11 4.11 0.41
-1 2 11 3.85 0.43
0 -2 -11 24.81 0.89
0 -2 -11 25.01 0.98
0 -2 -11 25.53 0.82
0 -2 -11 25.94 0.91
0 2 11 25.62 0.93
0 2 11 25.15 0.91
0 2 11 23.77 0.93
0 2 11 23.93 0.82
-1 -2 -11 0.57 0.39
-1 -2 -11 0.4 0.28
-1 -2 -11 0.2 0.3
-1 -2 -11 0.58 0.32
1 2 11 0.7 0.36
1 2 11 0.45 0.28
1 2 11 0.6 0.34
1 2 11 0.88 0.36
-2 -2 -11 3.28 0.44
-2 -2 -11 3.49 0.55
-2 -2 -11 3.89 0.47
-2 -2 -11 3.54 0.41
2 2 11 3.24 0.48
2 2 11 4.49 0.53
2 2 11 4.39 0.54
2 2 11 3.39 0.43
-3 -2 -11 10.03 1.03
-3 -2 -11 10.84 0.69
3 2 11 11.1 0.91
3 2 11 10.08 0.83
4 -3 -11 13.4 0.71
4 -3 -11 12.96 0.85
4 -3 -11 13.09 0.89
-4 3 11 11.94 0.76
3 -3 -11 0.55 0.35
3 -3 -11 0.86 0.36
3 -3 -11 0.27 0.29
-3 3 11 0.58 0.31
-3 3 11 0.29 0.32
2 -3 -11 83.86 1.97
2 -3 -11 84.95 2.07
2 -3 -11 82.98 1.97
-2 3 11 83.91 2.03
-2 3 11 87.3 1.98
1 -3 -11 77.64 1.81
1 -3 -11 79.3 1.94
1 -3 -11 75.82 1.9
1 -3 -11 79.72 1.86
-1 3 11 79.07 1.91
-1 3 11 79.16 1.9
-1 3 11 78.25 1.86
0 -3 -11 0.52 0.37
0 -3 -11 0.22 0.29
0 -3 -11 -0.2 0.28
0 -3 -11 -0.55 0.25
0 3 11 0.15 0.34
0 3 11 0.09 0.31
0 3 11 0.07 0.24
0 3 11 0.16 0.3
-1 -3 -11 -0.74 0.41
-1 -3 -11 -0.19 0.31
-1 -3 -11 -0.24 0.26
1 3 11 -0.26 0.28
1 3 11 0 0.35
1 3 11 -0.46 0.39
1 3 11 0.13 0.34
-2 -3 -11 0.08 0.49
-2 -3 -11 0.39 0.37
-2 -3 -11 0.89 0.41
-2 -3 -11 0.88 0.32
2 3 11 0.32 0.36
2 3 11 0.6 0.43
2 3 11 0.53 0.43
2 3 11 -0.14 0.43
-3 -3 -11 4.59 0.71
-3 -3 -11 4.3 0.47
-3 -3 -11 4.48 0.61
3 3 11 4.3 0.63
3 3 11 4.13 0.58
3 3 11 4.85 0.59
4 -4 -11 1.53 0.48
4 -4 -11 1.35 0.36
-4 4 11 0.76 0.37
3 -4 -11 0.99 0.39
3 -4 -11 0.15 0.29
3 -4 -11 0.72 0.41
-3 4 11 0.86 0.32
-3 4 11 0.48 0.32
2 -4 -11 12.15 0.73
2 -4 -11 9.25 0.62
2 -4 -11 10.14 0.6
-2 4 11 10.72 0.65
-2 4 11 9.44 0.65
1 -4 -11 55.05 1.56
1 -4 -11 56.77 1.46
1 -4 -11 55.76 1.4
-1 4 11 57.29 1.53
-1 4 11 56.67 1.52
0 -4 -11 32.86 1.04
0 -4 -11 31.82 1.1
0 -4 -11 32.8 1.13
0 -4 -11 31.89 1.17
0 4 11 32.23 1.09
0 4 11 31.82 1.12
0 4 11 32.16 0.87
0 4 11 31.75 1.17
-1 -4 -11 1.56 0.37
-1 -4 -11 1.7 0.47
-1 -4 -11 2.16 0.43
1 4 11 2.04 0.41
1 4 11 1.77 0.4
1 4 11 1.93 0.36
1 4 11 2.76 0.43
-2 -4 -11 4.05 0.58
-2 -4 -11 3.3 0.46
-2 -4 -11 3.63 0.52
2 4 11 4.68 0.63
2 4 11 2.76 0.52
2 4 11 4.06 0.49
4 -5 -11 37.01 1.16
4 -5 -11 37.11 1.26
-4 5 11 36.04 1.21
3 -5 -11 6.77 0.69
3 -5 -11 7.9 0.94
3 -5 -11 6.74 0.59
-3 5 11 7.24 0.62
-3 5 11 8.24 0.66
2 -5 -11 41 1.19
2 -5 -11 40.5 1.19
2 -5 -11 40.64 1.35
-2 5 11 41.81 1.26
-2 5 11 42.13 1.24
1 -5 -11 38.91 1.17
1 -5 -11 38.41 1.07
1 -5 -11 39.26 1.3
-1 5 11 39.06 1.22
-1 5 11 39.85 1.25
0 -5 -11 58.24 1.67
0 5 11 57.36 1.31
0 5 11 54.24 2.17
0 5 11 57.63 1.64
-1 -5 -11 3.16 0.72
-1 -5 -11 3.27 0.47
1 5 11 3.01 0.4
1 5 11 2.98 0.49
-2 -5 -11 9.28 0.89
2 5 11 8.98 0.76
2 5 11 9.99 0.96
3 -6 -11 3.69 0.41
3 -6 -11 3.72 0.51
-3 6 11 2.49 0.4
-3 6 11 3.41 0.46
2 -6 -11 32.22 1.04
2 -6 -11 30.04 1.03
-2 6 11 31.9 1.11
-2 6 11 30.86 1.08
1 -6 -11 12.34 0.71
-1 6 11 11.78 0.81
-1 6 11 11.82 0.75
0 -6 -11 9.59 0.69
0 6 11 9.64 0.82
0 6 11 9.04 0.74
0 6 11 9.34 0.76
-1 -6 -11 -0.38 0.37
1 6 11 -0.12 0.35
1 6 11 1.57 0.45
2 -7 -11 12.81 0.7
2 -7 -11 12.49 0.7
-2 7 11 14.13 0.79
-2 7 11 13.44 0.88
1 -7 -11 21.36 0.88
-1 7 11 20.61 0.94
-1 7 11 21.25 1.05
0 -7 -11 10.96 0.75
0 7 11 11.15 0.82
1 7 -12 12.33 0.89
1 7 -12 13.05 0.89
1 7 -12 13.66 0.79
-1 -7 12 13.39 0.84
0 7 -12 1.01 0.48
0 7 -12 0.6 0.38
0 7 -12 0.89 0.41
0 -7 12 0.72 0.36
-1 7 -12 19.76 0.91
-1 7 -12 18.27 0.9
1 -7 12 18.69 0.86
2 6 -12 1.62 0.53
2 6 -12 1.47 0.43
2 6 -12 1.77 0.43
-2 -6 12 1.78 0.5
-2 -6 12 1.49 0.46
1 6 -12 25.87 1.08
1 6 -12 24.55 0.99
1 6 -12 22.74 0.97
-1 -6 12 25.14 1.13
-1 -6 12 24.18 1
0 6 -12 49.73 1.47
0 6 -12 51.01 1.48
0 6 -12 48.86 1.5
0 -6 12 48.5 1.43
0 -6 12 51.14 1.57
-1 6 -12 9.47 0.75
-1 6 -12 8.75 0.71
-1 6 -12 9.29 0.7
1 -6 12 9.37 0.67
-2 6 -12 1.17 0.4
-2 6 -12 1.33 0.4
2 -6 12 0.93 0.36
3 5 -12 2.76 0.59
3 5 -12 2.42 0.46
3 5 -12 2.56 0.49
-3 -5 12 2.26 0.49
-3 -5 12 2.94 0.56
2 5 -12 9.9 0.71
2 5 -12 9.07 0.84
2 5 -12 8.94 0.72
-2 -5 12 9.93 0.8
-2 -5 12 9.54 0.79
1 5 -12 2.28 0.42
1 5 -12 2.14 0.39
1 5 -12 1.67 0.44
-1 -5 12 2.01 0.41
-1 -5 12 2.23 0.45
0 5 -12 33.17 1.12
0 5 -12 33.51 1.16
0 5 -12 31.87 1.11
0 -5 12 32.75 1.19
0 -5 12 31.71 1.09
-1 5 -12 2.48 0.44
-1 5 -12 4.11 0.41
-1 5 -12 3.77 0.38
-1 5 -12 2.73 0.44
1 -5 12 3.62 0.52
1 -5 12 3.11 0.42
-2 5 -12 16.25 0.72
-2 5 -12 15.27 0.85
-2 5 -12 15.31 0.69
-2 5 -12 16.96 0.83
2 -5 12 16.08 0.8
2 -5 12 16.35 0.96
3 4 -12 19.28 0.86
3 4 -12 18.49 0.91
3 4 -12 16.31 0.87
3 4 -12 18.45 1.08
-3 -4 12 18.1 1
-3 -4 12 21.34 0.89
-3 -4 12 17.44 0.89
-3 -4 12 16.48 0.99
2 4 -12 16.85 0.92
2 4 -12 16.97 0.8
2 4 -12 16.22 0.8
2 4 -12 15.93 0.82
-2 -4 12 16.44 0.84
-2 -4 12 16.55 0.59
-2 -4 12 15.91 0.9
-2 -4 12 15.91 0.87
-2 -4 12 16.54 0.6
1 4 -12 2.26 0.36
1 4 -12 1.83 0.34
1 4 -12 1.58 0.42
-1 -4 12 0.74 0.36
-1 -4 12 1.57 0.25
-1 -4 12 1.4 0.39
-1 -4 12 1.1 0.2
-1 -4 12 1.17 0.36
0 4 -12 3.17 0.46
0 4 -12 3.1 0.41
0 4 -12 3.49 0.31
0 4 -12 3.56 0.39
0 4 -12 2.98 0.48
0 -4 12 3.35 0.37
0 -4 12 2.37 0.39
0 -4 12 3.12 0.44
-1 4 -12 0.94 0.39
-1 4 -12 0.99 0.28
-1 4 -12 0.99 0.58
-1 4 -12 1.22 0.27
1 -4 12 1.48 0.39
1 -4 12 0.72 0.39
1 -4 12 0.7 0.32
-2 4 -12 62.78 1.69
-2 4 -12 59.53 1.55
-2 4 -12 61.83 1.71
-2 4 -12 61.87 1.52
2 -4 12 63.95 1.67
2 -4 12 63.58 1.75
-3 4 -12 10.02 0.81
-3 4 -12 8.64 0.73
-3 4 -12 11.15 0.73
3 -4 12 11.3 0.77
3 3 -12 1.26 0.36
3 3 -12 2.91 0.54
3 3 -12 2.17 0.45
3 3 -12 1.05 0.41
-3 -3 12 0.65 0.35
-3 -3 12 1.42 0.49
-3 -3 12 1.88 0.42
-3 -3 12 1.3 0.36
-3 -3 12 1.32 0.46
2 3 -12 8.31 0.61
2 3 -12 9.29 0.66
2 3 -12 8.8 0.79
2 3 -12 8.04 0.66
-2 -3 12 9.35 0.56
-2 -3 12 9.79 0.76
-2 -3 12 7.93 0.7
-2 -3 12 9.42 0.7
1 3 -12 28.37 1
1 3 -12 27.31 0.86
1 3 -12 28 0.93
1 3 -12 28.06 1.06
1 3 -12 28.83 0.97
-1 -3 12 29.14 1.03
-1 -3 12 29.34 1.02
-1 -3 12 27.21 1.01
0 3 -12 5.45 0.46
0 3 -12 4.54 0.53
0 3 -12 4.36 0.42
0 3 -12 4.77 0.45
0 3 -12 4.14 0.45
0 3 -12 3.57 0.47
0 -3 12 4.45 0.46
0 -3 12 5.09 0.61
0 -3 12 4.73 0.47
-1 3 -12 0.9 0.38
-1 3 -12 0.99 0.36
-1 3 -12 1.59 0.29
-1 3 -12 1.57 0.31
1 -3 12 1.2 0.39
1 -3 12 1.58 0.37
1 -3 12 0.64 0.33
-2 3 -12 18.28 0.87
-2 3 -12 18.31 0.91
-2 3 -12 17.7 0.76
2 -3 12 18.6 0.86
2 -3 12 18.14 0.9
-3 3 -12 6.9 0.66
-3 3 -12 7.05 0.78
-3 3 -12 6.01 0.56
3 -3 12 6.41 0.7
4 2 -12 37.16 1.34
4 2 -12 39.71 1.15
4 2 -12 38.05 1.35
-4 -2 12 40.07 1.27
-4 -2 12 39.47 1.42
3 2 -12 3.78 0.48
3 2 -12 3.57 0.39
3 2 -12 3.55 0.56
3 2 -12 2.88 0.49
-3 -2 12 3.04 0.42
-3 -2 12 2.57 0.49
-3 -2 12 2.85 0.49
-3 -2 12 3.11 0.42
-3 -2 12 3.23 0.46
2 2 -12 11.18 0.59
2 2 -12 12.16 0.8
2 2 -12 10.58 0.67
2 2 -12 10.11 0.58
2 2 -12 11.05 0.69
-2 -2 12 10.92 0.69
-2 -2 12 11.52 0.78
-2 -2 12 10.95 0.63
-2 -2 12 10.46 0.74
1 2 -12 0.33 0.3
1 2 -12 0.69 0.29
1 2 -12 0.21 0.27
1 2 -12 0.54 0.28
1 2 -12 0.6 0.27
1 2 -12 0.35 0.35
-1 -2 12 0.51 0.31
-1 -2 12 0.55 0.33
-1 -2 12 0.46 0.32
0 2 -12 0.55 0.26
0 2 -12 0.49 0.26
0 2 -12 0.81 0.32
0 2 -12 0.14 0.34
0 2 -12 0.54 0.31
0 -2 12 0.44 0.31
0 -2 12 0.12 0.33
0 -2 12 0.7 0.34
-1 2 -12 12.28 0.78
-1 2 -12 11.79 0.68
-1 2 -12 12.73 0.62
-1 2 -12 12.66 0.7
-1 2 -12 12.03 0.7
1 -2 12 12.06 0.73
1 -2 12 12.61 0.71
1 -2 12 12.57 0.73
1 -2 12 13.13 0.81
-2 2 -12 1.73 0.37
-2 2 -12 1.42 0.35
2 -2 12 1.4 0.44
2 -2 12 1.37 0.39
-3 2 -12 11.61 0.92
-3 2 -12 12.03 0.8
-3 2 -12 12.46 0.79
3 -2 12 12.52 0.9
3 -2 12 12.78 0.86
4 1 -12 18.06 0.95
4 1 -12 18.16 1.51
-4 -1 12 19.44 0.92
3 1 -12 8.21 0.52
3 1 -12 6.79 0.64
3 1 -12 6.55 0.76
3 1 -12 6.33 0.66
-3 -1 12 7.86 0.66
-3 -1 12 6.9 0.75
-3 -1 12 8.74 0.73
2 1 -12 20.71 0.94
2 1 -12 19.79 0.84
2 1 -12 21.45 0.88
2 1 -12 20.89 0.7
2 1 -12 20.96 0.79
-2 -1 12 19.94 0.92
-2 -1 12 20.41 0.88
-2 -1 12 20.14 0.83
1 1 -12 13.25 0.68
1 1 -12 11.2 0.67
1 1 -12 13.09 0.76
1 1 -12 14.03 0.63
1 1 -12 13.01 0.69
1 1 -12 12.87 0.58
-1 -1 12 12.88 0.72
-1 -1 12 13.1 0.71
-1 -1 12 12.35 0.7
0 1 -12 2.19 0.36
0 1 -12 1.84 0.41
0 1 -12 1.75 0.34
0 1 -12 1.75 0.31
0 1 -12 2.3 0.38
0 -1 12 2.14 0.39
0 -1 12 1.61 0.35
0 -1 12 1.96 0.38
-1 1 -12 22.3 0.85
-1 1 -12 23.33 0.87
-1 1 -12 24.4 0.92
-1 1 -12 22.93 0.97
1 -1 12 24.13 0.99
1 -1 12 23.58 0.87
1 -1 12 24.29 0.92
1 -1 12 22.22 0.94
-2 1 -12 3.83 0.43
-2 1 -12 4.27 0.46
-2 1 -12 3.85 0.53
2 -1 12 3.4 0.47
2 -1 12 4.55 0.54
2 -1 12 4 0.48
-3 1 -12 4.78 0.61
-3 1 -12 4.89 0.55
-3 1 -12 5.97 0.73
3 -1 12 5.07 0.62
3 -1 12 4.49 0.56
4 0 -12 6.47 0.69
4 0 -12 6.81 0.73
-4 0 12 8.36 0.82
-4 0 12 5.76 0.75
3 0 -12 35.4 1.16
3 0 -12 39.03 1.29
3 0 -12 36.36 1.16
-3 0 12 35.47 1.23
-3 0 12 35.44 1.08
2 0 -12 16.05 0.87
2 0 -12 16.15 0.57
2 0 -12 17.11 0.77
2 0 -12 16.55 0.76
2 0 -12 16.06 0.73
-2 0 12 16.06 0.81
-2 0 12 16.49 0.76
-2 0 12 16.75 0.83
1 0 -12 19.87 0.79
1 0 -12 20.22 0.92
1 0 -12 20.68 0.81
1 0 -12 21.43 0.83
-1 0 12 21.95 0.87
-1 0 12 20.29 0.87
-1 0 12 19.19 0.85
0 0 -12 0.45 0.35
0 0 -12 -0.31 0.28
0 0 -12 -0.16 0.29
0 0 -12 0.11 0.26
0 0 12 0.15 0.32
0 0 12 0.5 0.32
0 0 12 0.37 0.28
0 0 12 0.5 0.31
-1 0 -12 3.21 0.56
-1 0 -12 3.02 0.43
-1 0 -12 3.23 0.41
-1 0 -12 3.29 0.41
1 0 12 3.5 0.4
1 0 12 2.95 0.44
1 0 12 4.39 0.48
1 0 12 3.08 0.45
-2 0 -12 0.29 0.48
-2 0 -12 0.3 0.31
-2 0 -12 0.35 0.34
-2 0 -12 -0.65 0.42
2 0 12 0.48 0.36
2 0 12 0.07 0.39
2 0 12 0.33 0.6
2 0 12 -0.6 0.36
-3 0 -12 9.93 0.97
-3 0 -12 9.38 0.71
-3 0 -12 8.96 0.81
3 0 12 8.18 0.87
3 0 12 8.55 0.84
4 -1 -12 -0.04 0.41
4 -1 -12 0.23 0.35
-4 1 12 0.11 0.41
3 -1 -12 32.23 1.13
3 -1 -12 29.4 1.53
3 -1 -12 31.18 1.09
-3 1 12 30.56 1
-3 1 12 32.7 1.2
2 -1 -12 -0.19 0.28
2 -1 -12 0.1 0.29
2 -1 -12 -0.36 0.36
2 -1 -12 0.28 0.32
-2 1 12 0.03 0.31
-2 1 12 -0.2 0.31
-2 1 12 0.15 0.34
1 -1 -12 19.04 0.8
1 -1 -12 20.27 0.61
1 -1 -12 19.65 0.92
1 -1 -12 20.44 0.81
1 -1 -12 18.3 1
-1 1 12 16.86 1.05
-1 1 12 18.86 0.84
-1 1 12 19.73 0.83
0 -1 -12 2.32 0.37
0 -1 -12 3.01 0.47
0 -1 -12 2.46 0.36
0 -1 -12 2.42 0.38
0 1 12 2.68 0.41
0 1 12 2.73 0.41
0 1 12 2.27 0.34
0 1 12 2.54 0.41
-1 -1 -12 16.85 0.82
-1 -1 -12 17.01 0.81
-1 -1 -12 17.49 0.93
-1 -1 -12 16.4 0.75
1 1 12 16.3 0.85
1 1 12 18.23 0.89
1 1 12 16.98 0.88
1 1 12 17.9 0.76
-2 -1 -12 42.49 1.32
-2 -1 -12 43.61 1.35
-2 -1 -12 42.24 1.23
-2 -1 -12 43.09 1.46
2 1 12 41.57 1.28
2 1 12 42.45 1.39
2 1 12 41.41 1.35
-3 -1 -12 6.8 0.76
3 1 12 5.43 0.62
4 -2 -12 4.07 0.48
4 -2 -12 5.65 0.63
4 -2 -12 4.74 0.62
-4 2 12 4.52 0.55
3 -2 -12 0.09 0.36
3 -2 -12 -0.07 0.33
3 -2 -12 0.05 0.36
-3 2 12 -0.32 0.33
-3 2 12 -0.48 0.35
2 -2 -12 13.53 0.73
2 -2 -12 14.81 0.76
2 -2 -12 13.63 0.72
-2 2 12 14.97 0.75
-2 2 12 14.55 0.8
1 -2 -12 31.01 1
1 -2 -12 31.34 1.02
1 -2 -12 30.52 1.11
1 -2 -12 30.42 1.07
-1 2 12 30.93 1.08
-1 2 12 30.01 1.04
-1 2 12 30.91 1.05
0 -2 -12 144.35 3.23
0 -2 -12 148.28 3.1
0 -2 -12 143.97 3.17
0 -2 -12 146.72 3.22
0 2 12 151.53 3.27
0 2 12 149.7 3.23
0 2 12 145.57 3.18
0 2 12 143.67 2.97
-1 -2 -12 24.3 0.98
-1 -2 -12 24.59 1.12
-1 -2 -12 24.9 1
-1 -2 -12 25.91 0.88
1 2 12 24.06 1
1 2 12 25.64 0.9
1 2 12 24.52 1.05
1 2 12 24.71 1.05
-2 -2 -12 26.73 0.96
-2 -2 -12 28.5 1.14
-2 -2 -12 28.25 1.44
-2 -2 -12 28.84 1.13
2 2 12 28.3 1.06
2 2 12 28.95 1.22
2 2 12 27.91 1.19
3 -3 -12 0.53 0.4
3 -3 -12 0.51 0.33
3 -3 -12 0.83 0.44
-3 3 12 1.01 0.35
-3 3 12 0.29 0.37
2 -3 -12 -0.39 0.34
2 -3 -12 0.01 0.3
2 -3 -12 0.72 0.35
-2 3 12 0.3 0.32
-2 3 12 0.38 0.33
1 -3 -12 4.43 0.53
1 -3 -12 3.61 0.46
1 -3 -12 3.89 0.45
-1 3 12 4.53 0.47
-1 3 12 4.01 0.47
0 -3 -12 0.37 0.35
0 -3 -12 0.87 0.41
0 -3 -12 0.68 0.34
0 -3 -12 0.72 0.34
0 3 12 -0.21 0.35
0 3 12 -0.7 0.34
0 3 12 0.22 0.34
-1 -3 -12 24.52 1
-1 -3 -12 24.55 0.87
-1 -3 -12 25.53 1.05
-1 -3 -12 23.42 1.15
1 3 12 24.59 1.08
1 3 12 24.85 0.89
1 3 12 25.2 1.11
1 3 12 24.92 1.04
-2 -3 -12 10.74 0.95
-2 -3 -12 10.99 0.69
-2 -3 -12 10.29 1.04
2 3 12 9.02 0.89
2 3 12 10.96 0.81
2 3 12 9.37 0.94
3 -4 -12 1.76 0.37
3 -4 -12 1.51 0.48
-3 4 12 1.28 0.39
-3 4 12 1.78 0.4
2 -4 -12 28.11 1.13
2 -4 -12 28.16 1
2 -4 -12 29.85 1.01
-2 4 12 28.28 1.07
-2 4 12 28.86 1.04
1 -4 -12 38.8 1.21
1 -4 -12 39.65 1.32
1 -4 -12 40.55 1.17
-1 4 12 40.18 1.29
-1 4 12 40.42 1.28
0 -4 -12 0.1 0.37
0 -4 -12 -0.24 0.31
0 -4 -12 0.39 0.33
0 4 12 -0.12 0.37
0 4 12 0.17 0.38
0 4 12 0.1 0.27
-1 -4 -12 5.96 0.57
-1 -4 -12 6.68 0.73
1 4 12 6.86 0.76
1 4 12 6.32 0.63
3 -5 -12 2.87 0.42
3 -5 -12 3.33 0.54
-3 5 12 3.69 0.49
-3 5 12 2.69 0.45
2 -5 -12 18.48 0.84
2 -5 -12 15.58 0.81
-2 5 12 17.55 0.88
-2 5 12 17.79 0.88
1 -5 -12 81.04 1.99
1 -5 -12 80.68 1.88
-1 5 12 79.72 2.04
-1 5 12 80.23 2.07
0 -5 -12 0.74 0.33
0 -5 -12 0.49 0.36
0 5 12 -0.63 0.35
-1 -5 -12 7.61 0.8
1 5 12 7.55 0.7
1 5 12 9.51 0.86
2 -6 -12 7.82 0.76
2 -6 -12 8.79 0.69
-2 6 12 8.01 0.81
-2 6 12 7.73 0.75
1 -6 -12 23.49 0.98
1 -6 -12 24.24 1.18
-1 6 12 23.19 1.16
-1 6 12 25.51 1.06
0 -6 -12 0.66 0.37
0 6 12 0.07 0.4
1 6 -13 17.43 0.93
1 6 -13 15.95 0.85
1 6 -13 15.5 1.01
0 6 -13 3.45 0.52
0 6 -13 2.76 0.45
0 6 -13 2.41 0.48
0 -6 13 3.3 0.49
2 5 -13 6.37 0.74
2 5 -13 5.3 0.79
2 5 -13 6.23 0.66
-2 -5 13 5.76 0.86
-2 -5 13 6.54 0.67
1 5 -13 28.71 1.09
1 5 -13 28.86 1.19
1 5 -13 28.63 1.09
-1 -5 13 29.6 1.15
-1 -5 13 28.91 1.22
0 5 -13 0.47 0.41
0 5 -13 0.41 0.37
0 5 -13 0.24 0.34
0 -5 13 0.07 0.34
-1 5 -13 4.33 0.56
-1 5 -13 3.79 0.51
-1 5 -13 3.3 0.52
1 -5 13 3.71 0.47
2 4 -13 0.28 0.37
2 4 -13 -0.18 0.36
2 4 -13 0.1 0.47
-2 -4 13 0.72 0.46
-2 -4 13 0.69 0.45
1 4 -13 30.32 1.19
1 4 -13 29.51 1.08
1 4 -13 30.97 1.05
-1 -4 13 30.47 1.18
-1 -4 13 27.74 1.11
0 4 -13 0.25 0.42
0 4 -13 0.02 0.3
0 4 -13 -0.3 0.33
0 4 -13 0.59 0.35
0 -4 13 0.04 0.35
0 -4 13 -0.08 0.42
-1 4 -13 8.39 0.72
-1 4 -13 9.25 0.59
-1 4 -13 8.67 0.66
-1 4 -13 8.74 0.8
1 -4 13 8.15 0.72
-2 4 -13 0.75 0.41
-2 4 -13 1.01 0.45
-2 4 -13 1.65 0.39
2 -4 13 0.93 0.39
2 -4 13 1.36 0.62
3 3 -13 11.76 0.81
3 3 -13 12.26 0.76
3 3 -13 8.28 1.25
3 3 -13 11.69 1.36
-3 -3 13 11.93 0.89
-3 -3 13 13.16 0.72
-3 -3 13 12.18 0.93
2 3 -13 0.67 0.37
2 3 -13 0.88 0.47
2 3 -13 0.76 0.37
2 3 -13 0.9 0.37
-2 -3 13 0.77 0.45
-2 -3 13 1.52 0.32
-2 -3 13 0.63 0.44
-2 -3 13 0.24 0.4
1 3 -13 0.47 0.31
1 3 -13 0.4 0.41
1 3 -13 0.14 0.33
1 3 -13 1.12 0.34
1 3 -13 0.89 0.35
-1 -3 13 0.39 0.37
-1 -3 13 0.72 0.4
-1 -3 13 1.12 0.39
0 3 -13 5.52 0.56
0 3 -13 5.46 0.52
0 3 -13 5.4 0.59
0 3 -13 6.42 0.72
0 3 -13 4.97 0.52
0 -3 13 5.23 0.56
0 -3 13 4.71 0.49
-1 3 -13 14.14 0.76
-1 3 -13 15.63 0.72
-1 3 -13 15.14 0.9
-1 3 -13 14.54 0.78
1 -3 13 15.1 0.84
1 -3 13 15.46 0.85
-2 3 -13 0.57 0.43
-2 3 -13 0.27 0.38
-2 3 -13 0.4 0.37
2 -3 13 0.02 0.39
2 -3 13 0.7 0.47
3 2 -13 34.46 1.05
3 2 -13 35.62 1.27
3 2 -13 36.95 1.29
-3 -2 13 34.16 1.34
-3 -2 13 35.78 1.15
-3 -2 13 35.33 1.2
2 2 -13 31.92 1.13
2 2 -13 33.35 1
2 2 -13 33.56 1.02
2 2 -13 33.12 1.27
2 2 -13 32.45 1.15
-2 -2 13 33.03 1.06
-2 -2 13 33.57 1.23
-2 -2 13 31.2 1.17
-2 -2 13 31.81 1.14
1 2 -13 4.49 0.53
1 2 -13 2.53 0.43
1 2 -13 3.84 0.4
1 2 -13 2.49 0.53
1 2 -13 3.72 0.42
1 2 -13 3.23 0.44
-1 -2 13 3.45 0.46
-1 -2 13 2.6 0.46
-1 -2 13 3.22 0.58
0 2 -13 16.45 0.91
0 2 -13 15.6 0.77
0 2 -13 14.95 0.8
0 2 -13 17.44 0.73
0 2 -13 15.16 0.74
0 2 -13 17.71 1.21
0 -2 13 16.11 0.86
0 -2 13 17.19 0.88
0 -2 13 16.13 0.9
-1 2 -13 0.28 0.42
-1 2 -13 1.17 0.34
-1 2 -13 0.81 0.42
1 -2 13 1.05 0.4
1 -2 13 0.96 0.39
-2 2 -13 52.17 1.61
-2 2 -13 51.31 1.47
-2 2 -13 51.1 1.49
2 -2 13 54.23 1.58
2 -2 13 52.07 1.57
3 1 -13 7 0.69
3 1 -13 7.59 0.79
-3 -1 13 6.98 0.68
-3 -1 13 6.55 0.57
2 1 -13 15.32 0.76
2 1 -13 12.16 0.99
2 1 -13 13.95 0.78
2 1 -13 15.16 0.65
2 1 -13 15.18 0.94
-2 -1 13 14.5 0.88
-2 -1 13 14.11 0.81
-2 -1 13 14.03 0.91
1 1 -13 1.35 0.38
1 1 -13 0.91 0.32
1 1 -13 1.07 0.33
1 1 -13 1.72 0.4
1 1 -13 1.58 0.46
-1 -1 13 1.48 0.41
-1 -1 13 0.53 0.39
-1 -1 13 0.83 0.4
0 1 -13 35.12 1.34
0 1 -13 36.42 1.12
0 1 -13 37.76 1.18
0 1 -13 37.85 1.17
0 -1 13 36.29 1.25
0 -1 13 38.14 1.27
0 -1 13 35.53 1.27
-1 1 -13 2.45 0.41
-1 1 -13 2.62 0.5
-1 1 -13 2.7 0.42
1 -1 13 2.04 0.53
1 -1 13 2.89 0.61
1 -1 13 3.45 0.46
1 -1 13 2.01 0.45
-2 1 -13 34.2 1.62
-2 1 -13 33.58 1.15
-2 1 -13 35.69 1.19
2 -1 13 28.13 1.51
2 -1 13 35.14 1.24
3 0 -13 0.05 0.4
3 0 -13 -0.04 0.39
3 0 -13 0.58 0.41
-3 0 13 0.4 0.4
-3 0 13 0.2 0.45
2 0 -13 14.15 0.98
2 0 -13 12.53 0.79
2 0 -13 11.46 0.84
2 0 -13 12.44 0.74
-2 0 13 13.12 0.84
-2 0 13 11.42 0.77
-2 0 13 13.15 0.78
1 0 -13 0.32 0.42
1 0 -13 0.57 0.29
1 0 -13 -0.32 0.31
1 0 -13 0.41 0.35
1 0 -13 0.93 0.38
-1 0 13 0.23 0.37
-1 0 13 0.74 0.39
-1 0 13 0.01 0.41
0 0 -13 5.6 0.66
0 0 -13 6.21 0.77
0 0 -13 7.17 0.62
0 0 -13 6.35 0.62
0 0 13 7.01 0.71
0 0 13 6.69 0.7
0 0 13 8.55 0.77
-1 0 -13 4 0.48
-1 0 -13 4.83 0.6
-1 0 -13 4.55 0.48
-1 0 -13 5.19 0.52
1 0 13 4.11 0.54
1 0 13 4.73 0.48
1 0 13 4.47 0.53
-2 0 -13 7.76 0.8
-2 0 -13 7.92 0.64
-2 0 -13 8.04 0.76
2 0 13 8.49 0.84
2 0 13 7.77 0.79
3 -1 -13 0.46 0.38
3 -1 -13 0.72 0.43
3 -1 -13 0.8 0.43
-3 1 13 0.5 0.38
-3 1 13 0.19 0.44
2 -1 -13 0.74 0.35
2 -1 -13 0.59 0.39
2 -1 -13 0.64 0.38
-2 1 13 0.83 0.39
-2 1 13 0.86 0.38
1 -1 -13 3.54 0.41
1 -1 -13 2.56 0.41
1 -1 -13 2.64 0.44
1 -1 -13 2.65 0.42
1 -1 -13 2.64 0.5
-1 1 13 3.06 0.47
-1 1 13 3.16 0.47
-1 1 13 3.44 0.48
0 -1 -13 3.42 0.53
0 -1 -13 2.64 0.44
0 -1 -13 2.05 0.41
0 -1 -13 2.35 0.41
0 1 13 2.61 0.45
0 1 13 2.37 0.55
0 1 13 3.08 0.37
0 1 13 2.32 0.46
-1 -1 -13 1.31 0.37
-1 -1 -13 1.54 0.5
-1 -1 -13 0.51 0.38
-1 -1 -13 0.65 0.43
1 1 13 0.83 0.45
1 1 13 0.4 0.35
1 1 13 0.29 0.44
-2 -1 -13 0.41 0.56
-2 -1 -13 0.51 0.38
-2 -1 -13 0.16 0.44
2 1 13 0.67 0.46
2 1 13 0.97 0.46
3 -2 -13 2 0.5
3 -2 -13 2.31 0.43
3 -2 -13 1.31 0.44
-3 2 13 1.48 0.42
-3 2 13 1.21 0.44
2 -2 -13 0.01 0.45
2 -2 -13 0.35 0.39
2 -2 -13 -0.13 0.36
-2 2 13 -0.09 0.34
-2 2 13 0.19 0.44
1 -2 -13 -0.46 0.34
1 -2 -13 -0.03 0.35
1 -2 -13 0.42 0.36
-1 2 13 0.47 0.39
-1 2 13 -0.12 0.37
0 -2 -13 25.41 0.94
0 -2 -13 25.69 1.11
0 -2 -13 27.34 1.08
0 -2 -13 25.83 1.03
0 2 13 28.44 1.07
0 2 13 26.84 1.11
0 2 13 25.99 0.86
0 2 13 25.55 1.12
-1 -2 -13 7.5 0.76
-1 -2 -13 8.12 0.64
-1 -2 -13 7.08 0.82
-1 -2 -13 9.35 0.96
1 2 13 8 0.69
1 2 13 8.38 0.89
1 2 13 7.31 0.84
2 -3 -13 0.56 0.42
2 -3 -13 0.23 0.35
2 -3 -13 0.44 0.42
-2 3 13 0.43 0.39
-2 3 13 0.72 0.4
1 -3 -13 20.09 0.86
1 -3 -13 22.7 1.03
-1 3 13 19.18 1.46
-1 3 13 20.11 0.98
0 -3 -13 0.1 0.34
0 -3 -13 -0.19 0.37
0 -3 -13 0.03 0.4
0 3 13 0.19 0.51
0 3 13 0.06 0.39
-1 -3 -13 0.31 0.38
-1 -3 -13 0.12 0.43
1 3 13 0.65 0.39
1 3 13 0.07 0.48
2 -4 -13 0.78 0.4
2 -4 -13 0.34 0.42
-2 4 13 1.23 0.43
-2 4 13 1.33 0.44
1 -4 -13 53.43 1.46
1 -4 -13 53.6 1.53
-1 4 13 53.99 1.61
-1 4 13 51.79 1.59
0 -4 -13 11.78 0.82
0 -4 -13 12.4 0.72
0 4 13 14.07 0.93
0 4 -14 14.78 0.99
0 4 -14 14.67 0.82
0 4 -14 14.66 0.89
1 3 -14 5.29 0.61
1 3 -14 4.6 0.64
1 3 -14 5.11 0.51
-1 -3 14 3.27 0.53
-1 -3 14 4.21 0.62
0 3 -14 -0.3 0.55
0 3 -14 0.29 0.33
0 3 -14 0.31 0.37
0 3 -14 0.59 0.38
0 -3 14 0.59 0.62
2 2 -14 -0.35 0.34
2 2 -14 -0.74 0.35
2 2 -14 -0.41 0.35
2 2 -14 0.13 0.38
-2 -2 14 -1.59 0.73
-2 -2 14 0 0.45
1 2 -14 5.26 0.62
1 2 -14 4.94 0.49
1 2 -14 6.06 0.86
1 2 -14 5.07 0.48
1 2 -14 3.85 0.5
-1 -2 14 6.3 0.81
-1 -2 14 3.96 0.57
-1 -2 14 5.2 0.56
0 2 -14 0.96 0.38
0 2 -14 1.4 0.41
0 2 -14 2.14 0.52
0 2 -14 0.71 0.39
0 -2 14 1.51 0.48
-1 2 -14 -0.27 0.46
-1 2 -14 0.9 0.4
-1 2 -14 0.58 0.37
1 -2 14 0.63 0.46
1 -2 14 0.03 0.42
2 1 -14 1.72 0.45
2 1 -14 1.12 0.44
2 1 -14 2.78 0.44
-2 -1 14 1.43 0.47
-2 -1 14 1.7 0.5
1 1 -14 0.73 0.36
1 1 -14 0.41 0.36
1 1 -14 0.27 0.54
1 1 -14 0.22 0.42
1 1 -14 0.11 0.35
-1 -1 14 0.39 0.43
-1 -1 14 0.05 0.46
-1 -1 14 -0.08 0.43
0 1 -14 0.26 0.37
0 1 -14 0.4 0.37
0 1 -14 -0.44 0.47
0 1 -14 -0.07 0.34
0 -1 14 0.77 0.5
0 -1 14 0.14 0.41
-1 1 -14 0 0.38
-1 1 -14 0.36 0.37
-1 1 -14 -0.28 0.48
1 -1 14 0.23 0.43
1 -1 14 -0.28 0.44
2 0 -14 -0.06 0.38
2 0 -14 0.01 0.38
2 0 -14 -0.34 0.38
-2 0 14 -0.36 0.42
-2 0 14 -0.63 0.4
1 0 -14 0.15 0.48
1 0 -14 0.05 0.36
1 0 -14 0.18 0.43
1 0 -14 0.05 0.38
-1 0 14 -0.34 0.4
-1 0 14 0.04 0.41
-1 0 14 0.28 0.44
0 0 -14 19.49 0.99
0 0 -14 19.58 0.92
0 0 -14 18.68 0.92
0 0 14 20.63 1.06
0 0 14 19.31 1.23
-1 0 -14 3.84 0.66
-1 0 -14 3.53 0.53
-1 0 -14 2.83 0.46
1 0 14 4.84 0.55
2 -1 -14 1.13 0.42
2 -1 -14 0.59 0.46
-2 1 14 1.05 0.44
1 -1 -14 20.87 0.98
1 -1 -14 21.42 1
1 -1 -14 21.84 1.19
-1 1 14 19.58 1.02
-1 1 14 20.71 1.1
0 -1 -14 5.62 0.58
0 -1 -14 4.76 0.56
0 -1 -14 6.16 0.64
0 -1 -14 4.9 0.58
0 1 14 5.88 0.64
0 1 14 6.35 0.7
1 -2 -14 3.3 0.47
1 -2 -14 3.83 0.56
1 -2 -14 3.24 0.55
-1 2 14 2.81 0.7
-1 2 14 4.01 0.58
0 -2 -14 0.05 0.43
0 -2 -14 -0.01 0.46
0 -2 -14 0.1 0.39
0 2 14 0.16 0.48
