#------------------------------------------------------------------------------
#$Date: 2021-08-21 01:40:42 +0300 (Sat, 21 Aug 2021) $
#$Revision: 268153 $
#$URL: file:///home/coder/svn-repositories/cod/cif/7/24/34/7243404.cif $
#------------------------------------------------------------------------------
#
# This file is available in the Crystallography Open Database (COD),
# http://www.crystallography.net/
#
# All data on this site have been placed in the public domain by the
# contributors.
#
data_7243404
loop_
_publ_author_name
'Sanda Bawa, Ali'
'Meunier-Prest, Rita'
'Rousselin, Yoann'
'Couvercelle, Jean-Pierre'
'Christine, Stern'
'Mal\'ezieux, Bernard'
'Bouvet, Marcel'
_publ_section_title
;
 Series of charge transfer complexes obtained as crystals in a confined
 environment
;
_journal_name_full               CrystEngComm
_journal_paper_doi               10.1039/D1CE00929J
_journal_year                    2021
_chemical_formula_moiety         '2(C7 H8 O3), C10 H2 N4'
_chemical_formula_sum            'C24 H18 N4 O6'
_chemical_formula_weight         458.42
_space_group_crystal_system      triclinic
_space_group_IT_number           2
_space_group_name_Hall           '-P 1'
_space_group_name_H-M_alt        'P -1'
_atom_sites_solution_hydrogens   geom
_atom_sites_solution_primary     dual
_audit_creation_date             2021-01-28
_audit_creation_method
;
Olex2 1.3
(compiled 2020.11.12 svn.r5f609507 for OlexSys, GUI svn.r6226)
;
_audit_update_record
;
2021-02-17 deposited with the CCDC.	2021-08-19 downloaded from the CCDC.
;
_cell_angle_alpha                79.516(2)
_cell_angle_beta                 85.590(3)
_cell_angle_gamma                70.030(3)
_cell_formula_units_Z            1
_cell_length_a                   7.0977(3)
_cell_length_b                   7.7054(4)
_cell_length_c                   10.1834(5)
_cell_measurement_reflns_used    7283
_cell_measurement_temperature    100.0(1)
_cell_measurement_theta_max      66.63
_cell_measurement_theta_min      6.20
_cell_volume                     514.64(4)
_computing_cell_refinement       'SAINT V8.40B (Bruker, 2016)'
_computing_data_reduction        'SAINT V8.40B (Bruker, 2016)'
_computing_molecular_graphics    'Olex2 1.3 (Dolomanov et al., 2009)'
_computing_publication_material  'Olex2 1.3 (Dolomanov et al., 2009)'
_computing_structure_refinement  'SHELXL 2018/3 (Sheldrick, 2015)'
_computing_structure_solution    'SHELXT  (Sheldrick, 2015)'
_diffrn_ambient_temperature      100.0(1)
_diffrn_measured_fraction_theta_full 0.999
_diffrn_measured_fraction_theta_max 0.999
_diffrn_measurement_device_type  'Bruker D8 Venture (Cu)'
_diffrn_measurement_method       '\f and \w scans'
_diffrn_radiation_type           CuK\a
_diffrn_radiation_wavelength     1.54178
_diffrn_reflns_av_R_equivalents  0.0994
_diffrn_reflns_av_unetI/netI     0.0569
_diffrn_reflns_Laue_measured_fraction_full 0.999
_diffrn_reflns_Laue_measured_fraction_max 0.999
_diffrn_reflns_limit_h_max       8
_diffrn_reflns_limit_h_min       -8
_diffrn_reflns_limit_k_max       8
_diffrn_reflns_limit_k_min       -9
_diffrn_reflns_limit_l_max       12
_diffrn_reflns_limit_l_min       -12
_diffrn_reflns_number            11444
_diffrn_reflns_point_group_measured_fraction_full 0.999
_diffrn_reflns_point_group_measured_fraction_max 0.999
_diffrn_reflns_theta_full        66.792
_diffrn_reflns_theta_max         66.792
_diffrn_reflns_theta_min         4.416
_diffrn_source_current           1.0
_diffrn_source_power             0.05
_diffrn_source_voltage           50.0
_diffrn_standards_number         0
_exptl_absorpt_coefficient_mu    0.910
_exptl_absorpt_correction_T_max  0.8642
_exptl_absorpt_correction_T_min  0.6710
_exptl_absorpt_correction_type   multi-scan
_exptl_absorpt_process_details
;
SADABS-2016/2 (Bruker,2016) was used for absorption correction.
wR2(int) was 0.1405 before and 0.1049 after correction.
The Ratio of minimum to maximum transmission is 0.7764.
The \l/2 correction factor is Not present.
;
_exptl_crystal_colour            'clear light orange'
_exptl_crystal_colour_lustre     clear
_exptl_crystal_colour_modifier   light
_exptl_crystal_colour_primary    orange
_exptl_crystal_density_diffrn    1.479
_exptl_crystal_description       plate
_exptl_crystal_F_000             238
_exptl_crystal_recrystallization_method
'The material was recrystallised by sublimation'
_exptl_crystal_size_max          0.56
_exptl_crystal_size_mid          0.41
_exptl_crystal_size_min          0.089
_refine_diff_density_max         0.557
_refine_diff_density_min         -0.323
_refine_diff_density_rms         0.095
_refine_ls_extinction_method     none
_refine_ls_goodness_of_fit_ref   1.125
_refine_ls_hydrogen_treatment    constr
_refine_ls_matrix_type           full
_refine_ls_number_parameters     157
_refine_ls_number_reflns         1824
_refine_ls_number_restraints     0
_refine_ls_restrained_S_all      1.125
_refine_ls_R_factor_all          0.1391
_refine_ls_R_factor_gt           0.1137
_refine_ls_shift/su_max          0.000
_refine_ls_shift/su_mean         0.000
_refine_ls_structure_factor_coef Fsqd
_refine_ls_weighting_details
'w=1/[\s^2^(Fo^2^)+(0.1306P)^2^+1.2491P] where P=(Fo^2^+2Fc^2^)/3'
_refine_ls_weighting_scheme      calc
_refine_ls_wR_factor_gt          0.2756
_refine_ls_wR_factor_ref         0.2917
_reflns_Friedel_coverage         0.000
_reflns_number_gt                1358
_reflns_number_total             1824
_reflns_threshold_expression     'I > 2\s(I)'
_cod_data_source_file            d1ce00929j2.cif
_cod_data_source_block           TCNB-(H2QOMe)2
_cod_database_code               7243404
_shelx_shelxl_version_number     2018/3
_shelx_space_group_comment
;
The symmetry employed for this shelxl refinement is uniquely defined
by the following loop, which should always be used as a source of
symmetry information in preference to the above space-group names.
They are only intended as comments.
;
_shelx_estimated_absorpt_t_max   0.923
_shelx_estimated_absorpt_t_min   0.630
_olex2_refinement_description
;
1. Fixed Uiso
 At 1.2 times of:
  All C(H) groups
 At 1.5 times of:
  All C(H,H,H) groups, All O(H) groups
2.a Aromatic/amide H refined with riding coordinates:
 C12(H12), C9(H9), C10(H10), C1(H1)
2.b Idealised Me refined as rotating group:
 C6(H6A,H6B,H6C)
2.c Idealised tetrahedral OH refined as rotating group:
 O2(H2), O3(H3)
;
_shelx_res_file
;
TITL TCNB-(H2QOMe)2 in P-1
    TCNB-(H2QOMe)2.res
    created by SHELXL-2018/3 at 10:33:41 on 28-Jan-2021
CELL 1.54178 7.0977 7.7054 10.1834 79.5158 85.5903 70.0301
ZERR 1 0.0003 0.0004 0.0005 0.0023 0.0026 0.0025
LATT 1
SFAC C H N O
UNIT 24 18 4 6
EQIV $1 +X,1+Y,+Z

L.S. 10
PLAN  5
SIZE 0.56 0.089 0.41
TEMP -173.15(10)
CONF
HTAB O2 O3_$1
HTAB O3 N2
list 4
MORE -1
BOND $H
HTAB
fmap 2
acta
REM <olex2.extras>
REM <HklSrc "%./TCNB-(H2QOMe)2.hkl">
REM </olex2.extras>

WGHT    0.130600    1.249100
FVAR       0.63598
O2    4    0.081447    1.011626    0.174761    11.00000    0.05573    0.04035 =
         0.02910   -0.00009   -0.00514   -0.01654
AFIX 147
H2    2    0.111956    1.054335    0.237208    11.00000   -1.50000
AFIX   0
O1    4    0.181816    0.856030    0.427094    11.00000    0.05476    0.04053 =
         0.02896   -0.00641   -0.00459   -0.01784
O3    4    0.211591    0.253686    0.327946    11.00000    0.04907    0.04301 =
         0.02987   -0.00488   -0.00214   -0.01587
AFIX 147
H3    2    0.237654    0.219352    0.409588    11.00000   -1.50000
AFIX   0
C12   1    0.197811    0.548307    0.386371    11.00000    0.04089    0.04686 =
         0.03249   -0.00486   -0.00236   -0.01656
AFIX  43
H12   2    0.233975    0.490247    0.475677    11.00000   -1.20000
AFIX   0
C8    1    0.109673    0.826765    0.213848    11.00000    0.04421    0.04284 =
         0.03757   -0.00404    0.00581   -0.01483
C7    1    0.166893    0.738262    0.346178    11.00000    0.04065    0.03796 =
         0.03532   -0.00983   -0.00056   -0.01217
C9    1    0.086261    0.721681    0.127006    11.00000    0.03752    0.04509 =
         0.03210   -0.00651   -0.00084   -0.00904
AFIX  43
H9    2    0.049109    0.779496    0.037803    11.00000   -1.20000
AFIX   0
C6    1    0.245990    0.772092    0.561259    11.00000    0.04621    0.04051 =
         0.03044   -0.00503   -0.00352   -0.01401
AFIX 137
H6A   2    0.378828    0.676513    0.559006    11.00000   -1.50000
H6B   2    0.150196    0.713926    0.606522    11.00000   -1.50000
H6C   2    0.252706    0.868599    0.609737    11.00000   -1.50000
AFIX   0
C11   1    0.175133    0.444718    0.294290    11.00000    0.04032    0.04060 =
         0.03496   -0.00467    0.00540   -0.01696
C10   1    0.115380    0.529774    0.165188    11.00000    0.03782    0.05848 =
         0.02981   -0.00845   -0.00238   -0.01676
AFIX  43
H10   2    0.094447    0.459524    0.103516    11.00000   -1.20000
AFIX   0

N2    3    0.346542    0.159429    0.617166    11.00000    0.04720    0.04691 =
         0.02836   -0.00488   -0.00367   -0.02209
N1    3    0.368012    0.536503    0.836701    11.00000    0.04609    0.04480 =
         0.03223   -0.00713   -0.00069   -0.01653
C2    1    0.442758    0.057319    0.867141    11.00000    0.04471    0.04212 =
         0.02776   -0.00910    0.00153   -0.02330
C5    1    0.387185    0.117647    0.728046    11.00000    0.03752    0.04625 =
         0.03821   -0.00676    0.00116   -0.01496
C3    1    0.456307    0.186873    0.942196    11.00000    0.04078    0.03795 =
         0.03473   -0.00679   -0.00324   -0.01412
C1    1    0.484589   -0.129947    0.923564    11.00000    0.04616    0.04565 =
         0.02916   -0.00769    0.00094   -0.01959
AFIX  43
H1    2    0.473525   -0.217662    0.872600    11.00000   -1.20000
AFIX   0
C4    1    0.408911    0.382988    0.883300    11.00000    0.03908    0.04694 =
         0.03377   -0.01158    0.00564   -0.01654
HKLF 4




REM  TCNB-(H2QOMe)2 in P-1
REM wR2 = 0.2917, GooF = S = 1.125, Restrained GooF = 1.125 for all data
REM R1 = 0.1137 for 1358 Fo > 4sig(Fo) and 0.1391 for all 1824 data
REM 157 parameters refined using 0 restraints

END

WGHT      0.1302      1.2557

REM Instructions for potential hydrogen bonds
HTAB O2 O1
HTAB O2 O3_$1
HTAB O3 N2
HTAB C12 N2
EQIV $3 -x, -y+2, -z
HTAB C9 O2_$3
EQIV $4 -x, -y+1, -z+1
HTAB C6 O3_$4
HTAB C6 N2_$1

REM Highest difference peak  0.557,  deepest hole -0.323,  1-sigma level  0.095
Q1    1   0.1833  0.9654  0.3426  11.00000  0.05    0.56
Q2    1   0.1097  1.2138  0.1761  11.00000  0.05    0.49
Q3    1   0.0922  0.3774  0.1762  11.00000  0.05    0.47
Q4    1   0.1907  0.1106  0.3291  11.00000  0.05    0.41
Q5    1   0.4334 -0.3555  0.8865  11.00000  0.05    0.40
;
_shelx_res_checksum              92160
_shelx_hkl_file
;
  -1   0   0 -0.0058 1.24028  24
  -1   0   0 0.98991 0.71443  29
  -1   0   0 -0.3704 1.19294  10
  -1   0   0 0.56470 0.94136  20
  -1   0   0 0.30853 0.91468   6
   1   0   0 0.72517 0.82067  22
   1   0   0 0.62852 0.73088  29
   1   0   0 0.62266 0.91164  20
   1   0   0 0.46495 0.99016   6
   1   0   0 0.15897 0.87533  10
  -2   0   0 35.3970 4.43848  24
  -2   0   0 35.4759 4.00629  29
  -2   0   0 37.9180 4.16415  18
  -2   0   0 38.8825 3.98944   1
  -2   0   0 38.7468 4.36442   6
  -2   0   0 31.0765 4.05247  10
  -2   0   0 30.4460 4.34499  20
   2   0   0 37.1038 3.58825   1
   2   0   0 39.3631 3.95079  29
   2   0   0 35.6352 3.86345  22
   2   0   0 34.9304 4.27085  20
  -3   0   0 578.925 45.9347  20
  -3   0   0 592.095 45.5245  24
  -3   0   0 666.335 45.0989   1
  -3   0   0 577.157 44.7421   7
  -3   0   0 707.159 45.4051  18
  -3   0   0 510.556 45.1698  10
  -3   0   0 691.960 44.7618  11
   3   0   0 581.489 44.8445  22
   3   0   0 641.058 44.6177   1
   3   0   0 583.642 44.4334   9
   3   0   0 606.022 44.3821  11
   3   0   0 603.049 45.3339   6
  -4   0   0 156.480 14.2950  24
  -4   0   0 147.448 13.4705  10
  -4   0   0 123.046 11.6572   2
  -4   0   0 173.323 13.0783  18
  -4   0   0 147.868 12.3978   7
  -4   0   0 152.945 14.1981  20
  -4   0   0 123.071 13.4485  11
   4   0   0 160.333 12.7302  22
   4   0   0 134.843 11.5290   9
   4   0   0 145.689 11.7772   1
   4   0   0 140.246 11.4099  11
   4   0   0 151.566 11.6303  14
   4   0   0 131.079 11.4561   2
  -5   0   0 18.4436 6.64287  18
  -5   0   0 25.2583 7.28693   1
  -5   0   0 24.5427 4.36567   2
  -5   0   0 24.6246 4.27482   7
  -5   0   0 20.5651 6.24146  24
  -5   0   0 19.0212 7.56742  10
  -5   0   0 30.0569 4.67542  11
   5   0   0 20.5424 5.03057  22
   5   0   0 16.3050 3.09973   9
   5   0   0 26.4239 3.46973  16
   5   0   0 24.3005 3.19675   2
  -6   0   0 4.65734 8.56163  18
  -6   0   0 8.59439 6.64889  24
  -6   0   0 0.75261 3.13171   7
  -6   0   0 0.61302 3.32647   2
   6   0   0 -2.2180 4.34774  22
   6   0   0 2.80311 2.26390   2
   6   0   0 3.19580 2.51444  16
   6   0   0 -1.7959 1.93024   9
  -7   0   0 14.3681 3.95682   7
  -7   0   0 9.48604 3.02484   2
   7   0   0 16.3785 2.20213   2
   7   0   0 14.4921 2.54269   9
   7   0   0 8.85277 2.15592  16
   7  -1   0 0.36408 1.47024   2
   7  -1   0 -0.5797 1.85451   9
   7  -1   0 3.66026 1.75819  16
  -7   1   0 4.47990 3.55699   2
  -7   1   0 2.20605 3.07234   7
   6  -1   0 0.84205 6.74033  22
   6  -1   0 3.35047 2.38759  16
   6  -1   0 1.38700 2.12318   2
   6  -1   0 0.32272 1.79291   9
  -6   1   0 8.37727 4.28708   2
  -6   1   0 9.02424 3.60106   7
  -6   1   0 5.22593 7.78456  24
   5  -1   0 7.77023 3.46747  17
   5  -1   0 5.55244 2.09462   9
   5  -1   0 2.90854 3.78810  22
   5  -1   0 7.31946 3.07178  16
   5  -1   0 6.01019 2.12986   2
  -5   1   0 -2.6535 4.58619   1
  -5   1   0 8.71885 3.45265  11
  -5   1   0 13.9606 4.81369   2
  -5   1   0 3.98531 5.08262  24
  -5   1   0 2.50132 4.76510  18
  -5   1   0 5.80931 3.41273   7
  -5   1   0 11.9190 7.66154  10
   4  -1   0 15.9571 3.31588  16
   4  -1   0 11.6464 2.52498   2
   4  -1   0 9.70615 3.92546  17
  -4   1   0 4.79421 4.01965  10
  -4   1   0 3.77421 4.49436  20
  -4   1   0 15.5434 3.44464  11
  -4   1   0 8.41361 3.18469   7
  -4   1   0 4.92021 3.31541   1
   3  -1   0 1.41668 1.87485   9
   3  -1   0 2.60764 3.28500  29
   3  -1   0 0.52788 1.57861  22
  -3   1   0 -0.6683 2.13332  20
  -3   1   0 4.54037 2.76543  11
  -3   1   0 -1.2242 2.56680   7
  -3   1   0 1.09401 1.86698  18
  -3   1   0 0.81825 2.29937  24
  -3   1   0 -0.3423 4.97578  29
  -3   1   0 0.57098 2.29364  10
   2  -1   0 112.574 8.91437  29
   2  -1   0 119.762 9.69436  20
   2  -1   0 107.999 8.90309  22
   2  -1   0 116.381 8.16648  14
  -2   1   0 105.551 8.99627  29
  -2   1   0 97.5892 8.77898   1
  -2   1   0 103.984 9.20452  24
  -2   1   0 102.147 9.07755  10
  -2   1   0 95.7445 9.21969  20
   1  -1   0 142.724 10.2103  29
   1  -1   0 113.481 10.4105  22
   1  -1   0 144.767 10.5101  20
   1  -1   0 136.141 9.80849  14
  -1   1   0 121.460 10.4290  20
  -1   1   0 122.363 10.5129   6
  -1   1   0 153.459 10.5474  24
  -1   1   0 134.244 10.1826  29
  -1   1   0 141.665 10.4300  10
   0  -1   0 42.2180 3.01704  29
   0  -1   0 39.7159 3.70744   5
   0   1   0 41.4714 3.01997  29
   0   1   0 37.5726 3.24645  20
  -1  -1   0 0.70711 0.80443   6
  -1  -1   0 0.43453 1.16755   5
  -1  -1   0 0.22760 0.55382  18
  -1  -1   0 1.42883 1.23782  24
  -1  -1   0 1.06056 0.57035  29
   1   1   0 0.37136 0.94884  20
   1   1   0 1.02893 1.05636  10
   1   1   0 0.69868 0.39095  15
   1   1   0 1.27157 0.59927  29
   1   1   0 0.69014 0.69264   6
  -2  -1   0 1293.37 108.636  10
  -2  -1   0 1535.31 108.709   6
  -2  -1   0 1626.28 108.454  18
  -2  -1   0 1425.64 108.808  24
  -2  -1   0 1498.24 108.493  29
   2   1   0 1577.19 109.085  20
   2   1   0 1633.80 108.456   1
   2   1   0 1592.23 108.516  29
   2   1   0 1478.91 108.580  22
  -3  -1   0 2.20205 1.37897  18
  -3  -1   0 1.21201 2.16117  10
  -3  -1   0 1.33506 2.47502  29
  -3  -1   0 4.61657 2.64035   7
  -3  -1   0 3.31877 2.51100  24
   3   1   0 3.82386 2.29146  11
   3   1   0 3.83122 1.77983   1
   3   1   0 3.16785 2.08198  29
   3   1   0 0.99761 1.50841  22
   3   1   0 1.69932 1.61809   6
   3   1   0 6.89161 2.48134   9
  -4  -1   0 51.8896 6.07945   7
  -4  -1   0 59.2092 5.73265  18
  -4  -1   0 49.1174 6.59723  24
  -4  -1   0 52.2124 5.45813   2
  -4  -1   0 44.5814 6.32328  10
  -4  -1   0 56.8406 6.34517  11
   4   1   0 50.7667 5.15435   9
   4   1   0 48.4354 6.54213   6
   4   1   0 49.1870 6.13501  11
   4   1   0 48.0663 5.67160  22
   4   1   0 46.0152 5.21449   1
  -5  -1   0 56.8698 5.95654   7
  -5  -1   0 51.8316 4.99833  12
  -5  -1   0 47.3869 7.78580  24
  -5  -1   0 52.1320 8.13974  10
  -5  -1   0 56.4499 5.49490   2
   5   1   0 60.4694 10.3654   6
   5   1   0 47.6830 5.88334  14
   5   1   0 38.2255 5.21159   1
   5   1   0 52.7356 6.50547  22
   5   1   0 39.8998 4.89392   2
   5   1   0 46.3649 5.11973   9
   5   1   0 48.0729 5.04601  11
  -6  -1   0 29.2809 8.29890  24
  -6  -1   0 16.2701 3.54195   2
  -6  -1   0 19.7433 4.23173   7
   6   1   0 9.39335 4.39471  22
   6   1   0 19.1667 3.33568   2
   6   1   0 19.9017 3.47227  11
   6   1   0 16.9363 3.00724   9
   6   1   0 13.2369 2.87492  16
  -7  -1   0 5.04935 9.10046  24
  -7  -1   0 5.29575 3.18036   2
  -7  -1   0 4.56447 3.29340   7
   7   1   0 0.81284 2.10680  16
   7   1   0 1.32409 2.42378   2
   7   1   0 5.68750 7.17807  22
   7   1   0 5.46405 2.11739   9
  -8  -1   0 -0.7947 1.72003   2
  -8  -1   0 6.03807 2.91241   7
   8   1   0 -0.2761 1.16919  16
   8   1   0 1.34059 1.46024   9
   8   1   0 1.84086 1.72818   2
   7  -2   0 0.82587 1.04335   2
   7  -2   0 -0.0475 1.59684   9
  -7   2   0 -0.4764 2.75392   7
   6  -2   0 1.75104 1.51969   2
   6  -2   0 4.09537 3.45468  16
   6  -2   0 -4.3226 8.81897   5
   6  -2   0 6.33040 2.62282   9
  -6   2   0 5.63936 3.74429  11
  -6   2   0 3.93805 3.31071   7
  -6   2   0 9.91029 19.0689  24
  -6   2   0 4.24951 10.5047   1
   5  -2   0 1.46734 1.91216   2
   5  -2   0 3.80984 3.15824  17
   5  -2   0 -3.0948 2.37759   9
   5  -2   0 1.55760 5.60521   5
  -5   2   0 15.1267 9.92074  10
  -5   2   0 -1.2854 5.68460  18
  -5   2   0 1.68868 4.10043  11
  -5   2   0 3.36726 5.59522   7
  -5   2   0 12.7437 6.89895  24
  -5   2   0 0.35903 4.43867   1
   4  -2   0 -1.9627 3.13980  22
   4  -2   0 4.93355 3.71512   5
   4  -2   0 2.93738 2.14856   9
   4  -2   0 -0.1478 2.13697   2
  -4   2   0 -0.2184 5.41988  10
  -4   2   0 1.18599 2.85851  11
  -4   2   0 3.20822 3.19970   7
  -4   2   0 2.71816 6.56584  20
  -4   2   0 14.0613 5.42073  18
  -4   2   0 2.40723 3.39824   1
  -4   2   0 -1.4821 3.72468  24
   3  -2   0 59.1272 7.78445   5
   3  -2   0 64.0436 5.68472   2
   3  -2   0 72.3697 6.47758  17
   3  -2   0 54.3729 5.30383   3
   3  -2   0 78.9842 6.91085  22
   3  -2   0 68.8123 5.86569   9
  -3   2   0 73.8235 7.67130  10
  -3   2   0 60.8495 8.24223  20
  -3   2   0 54.0364 7.26156  24
  -3   2   0 69.1466 6.64419   7
  -3   2   0 66.7983 6.68462   1
  -3   2   0 49.3126 7.19526  18
   2  -2   0 18.3581 4.79756  29
   2  -2   0 20.5754 3.92910   5
   2  -2   0 19.2432 3.37209  22
   2  -2   0 24.0816 2.99447   9
  -2   2   0 27.0062 3.72106  24
  -2   2   0 15.8897 3.54597  20
  -2   2   0 23.2194 5.09874  29
  -2   2   0 15.7364 3.88950  10
  -2   2   0 18.0224 3.08526   1
  -2   2   0 24.5426 3.70238  11
   1  -2   0 2.07647 1.34612  29
   1  -2   0 0.03789 1.96747   5
   1  -2   0 -0.8174 1.33135  22
   1  -2   0 -0.5506 1.40115  20
  -1   2   0 -0.2665 1.55142  24
  -1   2   0 1.06345 1.30404  20
  -1   2   0 2.31595 1.67026  10
  -1   2   0 -0.3238 1.34510  29
  -1   2   0 2.31519 1.55704   1
  -1   2   0 0.39117 1.82462   6
   0  -2   0 14.2173 3.09179   5
   0  -2   0 15.3286 1.50175  29
   0   2   0 12.0448 1.89089  20
   0   2   0 15.0070 1.97580  10
  -1  -2   0 3.28431 0.69782  29
  -1  -2   0 2.94227 1.96316   5
   1   2   0 2.37209 0.65665  29
   1   2   0 2.55974 0.98642   6
  -2  -2   0 579.837 44.2892  24
  -2  -2   0 609.930 44.2000   6
  -2  -2   0 618.038 43.8552  29
   2   2   0 628.500 43.7346   1
   2   2   0 583.701 44.0840   6
   2   2   0 629.335 44.5871  20
   2   2   0 607.805 43.7617  29
  -3  -2   0 7.41473 2.92897  24
  -3  -2   0 6.95706 2.67108  18
  -3  -2   0 7.01829 3.01048   7
   3   2   0 6.15731 2.40245  29
   3   2   0 6.69224 2.21813   6
   3   2   0 11.0264 2.56475  22
   3   2   0 7.38488 1.99024   1
  -4  -2   0 177.986 13.1554  18
  -4  -2   0 163.022 12.8908   7
  -4  -2   0 154.554 12.4427  12
  -4  -2   0 154.323 13.8592  24
  -4  -2   0 157.935 12.6269   2
   4   2   0 161.940 13.3639  22
   4   2   0 152.588 12.4445   9
   4   2   0 145.562 12.5445  11
   4   2   0 162.182 13.9269   6
   4   2   0 155.275 12.7612   1
  -5  -2   0 5.37839 2.92548   2
  -5  -2   0 1.91817 3.22809   7
  -5  -2   0 6.61041 2.91113  12
  -5  -2   0 5.92389 3.90507  24
   5   2   0 2.58868 2.17648  11
   5   2   0 3.63987 2.35602   9
   5   2   0 -4.3229 5.65593   6
   5   2   0 1.88122 2.18351   1
  -6  -2   0 9.98485 5.46337  24
  -6  -2   0 8.87661 3.06736   2
  -6  -2   0 1.71879 3.03266   7
   6   2   0 1.64362 2.32082  11
   6   2   0 -2.7059 2.84769   1
   6   2   0 2.01015 3.48675  22
   6   2   0 1.18245 2.45716   9
   6   2   0 3.50035 4.41112  14
  -7  -2   0 -2.8635 3.33554   7
  -7  -2   0 6.00193 3.06296   2
   7   2   0 5.40179 2.79444  11
   7   2   0 2.71964 6.41999   1
   7   2   0 2.71105 2.13540  16
   7   2   0 -4.9604 5.82220  22
   7   2   0 1.06436 1.76408   9
   7   2   0 -0.9860 3.74458   2
  -8  -2   0 -0.1970 3.93864   7
  -8  -2   0 2.35399 1.99406   2
   8   2   0 0.56340 1.26143  16
   8   2   0 3.86947 3.03546   2
   8   2   0 -0.7333 1.82602   9
   6  -3   0 13.7193 2.28954   9
   6  -3   0 8.80030 1.81559   4
  -6   3   0 5.93636 3.11428   7
  -6   3   0 10.9137 4.47897  11
  -6   3   0 -15.735 10.6788   1
   5  -3   0 0.84985 2.20923   9
   5  -3   0 2.40904 2.40954  17
   5  -3   0 -5.9664 7.81839   5
  -5   3   0 5.61570 3.27230  11
  -5   3   0 -1.3363 3.45951   7
  -5   3   0 -4.8792 4.58039   1
  -5   3   0 -12.676 11.5283  24
   4  -3   0 8.52382 2.03481  27
   4  -3   0 0.93430 2.47632   9
   4  -3   0 5.79885 2.04931   2
   4  -3   0 9.71651 3.31104  17
   4  -3   0 0.84373 5.38688   5
  -4   3   0 9.22283 3.70834   7
  -4   3   0 6.74225 4.73998  18
  -4   3   0 0.51888 8.32023  10
  -4   3   0 5.14763 6.03528  24
  -4   3   0 -1.4551 3.47796   1
  -4   3   0 4.05234 2.85487  11
   3  -3   0 108.820 9.62284  17
   3  -3   0 114.952 11.6999   5
   3  -3   0 104.358 8.85227   9
   3  -3   0 102.109 8.28407   3
   3  -3   0 111.066 8.63485   2
   3  -3   0 108.850 8.44190  27
  -3   3   0 97.9297 9.45078   7
  -3   3   0 104.078 9.95159   1
  -3   3   0 112.471 10.8492  24
  -3   3   0 109.129 9.40029  11
  -3   3   0 95.1540 10.8613  10
   2  -3   0 22.6708 3.20586   9
   2  -3   0 20.7899 4.97578   5
   2  -3   0 27.0941 4.08584  17
   2  -3   0 25.5163 3.06440  27
   2  -3   0 28.4242 2.81666   3
   2  -3   0 29.3875 3.19191   2
   2  -3   0 22.0893 2.46805  28
  -2   3   0 20.4085 3.93765  24
  -2   3   0 15.2817 6.45198  18
  -2   3   0 22.5050 3.65908   1
  -2   3   0 20.2023 5.02154  20
  -2   3   0 24.3689 3.92109  11
   1  -3   0 61.1109 6.95459   5
  -1   3   0 70.8536 6.56834  20
  -1   3   0 72.3473 5.93336   1
  -1   3   0 62.6299 6.26433  24
  -1   3   0 69.6633 6.42523  29
   0  -3   0 507.254 37.3424   5
   0   3   0 561.338 36.5374  24
   0   3   0 482.807 36.9606  20
   0   3   0 447.515 36.2464  10
  -1  -3   0 18.5401 3.49735   5
  -2  -3   0 79.6411 7.61313   5
  -2  -3   0 88.7334 6.50825  29
   2   3   0 80.9810 6.40321  29
   2   3   0 75.6493 6.98506   6
   2   3   0 92.0154 7.97267  20
   2   3   0 82.8917 6.64646  15
  -3  -3   0 17.2691 3.68678   7
   3   3   0 19.1934 4.00933  29
   3   3   0 19.4367 3.18497  22
   3   3   0 20.2849 2.71182   1
   3   3   0 21.2900 3.46276   6
  -4  -3   0 0.14013 3.06948   7
   4   3   0 3.93318 1.68150   1
   4   3   0 -0.3953 1.65562  22
   4   3   0 0.94082 2.95982   6
   4   3   0 3.25709 4.23121  11
   4   3   0 2.67290 2.67508   9
  -5  -3   0 13.9861 3.54194   2
  -5  -3   0 11.6984 3.52089   7
   5   3   0 9.67696 2.98504   9
   5   3   0 13.3559 2.91104  11
   5   3   0 8.92536 2.81407  22
   5   3   0 7.95626 5.85555   6
  -6  -3   0 20.8013 4.24240   7
  -6  -3   0 20.8485 3.37381   2
  -6  -3   0 13.9850 2.93402  12
   6   3   0 18.8419 6.07380  22
   6   3   0 16.6534 3.03987  11
   6   3   0 12.0183 3.20145   9
   6   3   0 14.5969 3.56646   1
  -7  -3   0 8.34956 3.45388   7
  -7  -3   0 13.1619 3.01892   2
   7   3   0 12.1769 4.40902   1
   7   3   0 16.1686 2.69318  16
   7   3   0 6.67987 2.52490   9
   7   3   0 20.4126 12.4806  14
   7   3   0 11.5443 2.68934  11
   7   3   0 13.7968 6.32222  22
  -8  -3   0 10.1392 3.61494   7
  -8  -3   0 12.1740 2.06906   2
   8   3   0 7.13999 1.58700  16
   8   3   0 14.7814 2.36432   9
   5  -4   0 5.05647 1.40712   2
   5  -4   0 -3.8142 3.34176   9
   5  -4   0 -0.1271 1.49167   4
  -5   4   0 -3.9921 2.85730  11
  -5   4   0 2.80363 3.33740   7
  -5   4   0 5.70670 5.27763   1
   4  -4   0 5.13689 1.83845  27
   4  -4   0 1.91203 2.65834  17
   4  -4   0 1.55695 1.79347   2
   4  -4   0 0.17275 3.06932   9
   4  -4   0 2.66802 7.90817   5
  -4   4   0 -10.116 12.3203  24
  -4   4   0 1.24682 3.86563   1
  -4   4   0 -0.3285 3.64343   7
  -4   4   0 1.82619 5.56015  18
  -4   4   0 2.63340 3.24173  11
   3  -4   0 4.93719 1.72301   3
   3  -4   0 2.33311 3.37736   9
   3  -4   0 3.77655 2.03896  27
   3  -4   0 8.29294 2.12276   2
   3  -4   0 3.98519 2.80597  17
   3  -4   0 6.73379 5.95117   5
  -3   4   0 -4.8393 9.92990  10
  -3   4   0 -9.0363 6.24113  24
  -3   4   0 5.20450 3.35875   1
  -3   4   0 11.5440 3.66726  11
  -3   4   0 3.91278 3.72260   7
   2  -4   0 6.87977 2.22164  27
   2  -4   0 3.87837 4.43621  17
   2  -4   0 3.66710 4.05398   5
   2  -4   0 9.73321 4.89981   9
   2  -4   0 7.40247 1.93150   3
  -2   4   0 3.92119 5.34735  10
  -2   4   0 2.98022 2.73916   1
  -2   4   0 -0.1058 3.82988  24
  -2   4   0 9.44696 3.73289  11
   1  -4   0 249.658 18.6749  17
   1  -4   0 240.613 18.0294  27
   1  -4   0 252.719 20.2790   5
   1  -4   0 243.308 17.6384   3
   1  -4   0 227.664 17.6099  28
  -1   4   0 236.095 18.9292  10
  -1   4   0 263.602 18.3305   1
  -1   4   0 198.513 19.6592  18
   0  -4   0 39.4928 3.76655  28
   0  -4   0 53.4696 5.85674   5
   0  -4   0 44.9050 4.25640  27
   0   4   0 36.1068 4.83283  20
   0   4   0 41.8737 4.67497  24
  -1  -4   0 101.180 9.69382   5
   1   4   0 103.664 8.51419  20
   1   4   0 100.402 8.33995  10
   1   4   0 102.089 8.70174   6
  -2  -4   0 102.641 9.75827   5
   2   4   0 112.815 8.90312  15
   2   4   0 98.6032 8.93411   6
  -3  -4   0 33.1163 3.63471  12
  -3  -4   0 35.2203 4.88878   7
   3   4   0 27.8372 3.51150   1
   3   4   0 21.8313 4.49928   6
  -4  -4   0 14.9742 2.90832  12
  -4  -4   0 12.4480 3.79893   7
  -4  -4   0 19.2082 3.30142   2
   4   4   0 7.72751 3.17871  22
   4   4   0 17.4990 4.16226  11
   4   4   0 9.85771 4.14687   6
  -5  -4   0 15.9066 3.15408   2
  -5  -4   0 18.2031 3.05041  12
  -5  -4   0 12.2573 3.98642   7
   5   4   0 11.2172 4.39177  22
   5   4   0 13.1453 3.53683  11
   5   4   0 13.7348 3.44620   9
  -6  -4   0 16.8811 3.06065  12
  -6  -4   0 17.8420 2.93587   2
  -6  -4   0 16.0885 6.56013   7
   6   4   0 15.3520 5.00057  11
   6   4   0 8.75808 3.75413   9
   6   4   0 21.2692 3.77196   1
   6   4   0 7.80808 4.12298  22
  -7  -4   0 2.95669 2.22059  12
  -7  -4   0 0.31536 2.34258   2
  -7  -4   0 0.65521 3.76846   7
   7   4   0 5.06973 5.91446  14
   7   4   0 -2.1158 7.00478  22
   7   4   0 1.50154 1.95566  11
   7   4   0 2.02054 2.94678   9
   7   4   0 0.15972 3.13786   1
  -8  -4   0 -0.2754 1.68015   2
  -8  -4   0 0.12436 1.01514   3
  -8  -4   0 4.71506 3.65901   7
   8   4   0 -0.7781 1.44329  16
   8   4   0 -1.3307 1.93608  11
   8   4   0 2.63264 3.03485   9
  -5   5   0 5.28840 2.78802  11
  -4   5   0 0.28113 4.55052   1
  -4   5   0 6.74679 3.11297  11
   3  -5   0 3.22408 1.90336   4
   3  -5   0 4.82766 1.63835  27
   3  -5   0 -2.3541 8.50889   5
   3  -5   0 5.51013 1.64417   3
  -3   5   0 0.09280 5.73917  18
  -3   5   0 5.70944 4.03852   1
  -3   5   0 4.53282 3.38282  11
  -3   5   0 -0.3133 3.76917   7
   2  -5   0 22.4835 3.51780   2
   2  -5   0 22.8330 2.97085  27
   2  -5   0 23.5377 3.81228  17
   2  -5   0 29.0570 3.24788   4
   2  -5   0 36.6446 8.10345   5
  -2   5   0 23.0225 4.52414   1
  -2   5   0 20.4723 7.12631  18
   1  -5   0 3.93652 1.44889  28
   1  -5   0 2.42593 4.52956   5
   1  -5   0 3.32857 3.64998  17
   1  -5   0 3.11657 2.23411   4
   1  -5   0 6.48890 2.12376  27
   1  -5   0 1.01851 1.49732   3
  -1   5   0 -3.0372 3.51622  18
  -1   5   0 10.6217 9.01349  11
   0  -5   0 3.20551 3.63927   5
   0  -5   0 2.97469 1.67789  28
   0   5   0 5.88107 3.10348  18
  -1  -5   0 10.0520 2.01983  28
  -1  -5   0 11.6127 2.85733   4
  -1  -5   0 14.4199 2.09962   3
  -1  -5   0 11.5725 2.73608  27
   1   5   0 3.95979 3.62895   6
  -2  -5   0 49.1298 4.37696  28
  -2  -5   0 47.5934 4.95476  12
  -2  -5   0 53.2267 6.49544   5
  -2  -5   0 47.2421 5.02046  27
  -2  -5   0 48.0481 4.73344   4
  -2  -5   0 42.6215 4.24027   3
   2   5   0 52.9922 6.80997   6
   2   5   0 53.1268 6.59082  15
  -3  -5   0 15.2266 2.51385  28
  -3  -5   0 14.8065 3.11984  12
  -3  -5   0 20.3079 2.54379   3
   3   5   0 18.4302 3.61708   1
   3   5   0 14.8897 4.73099   6
  -4  -5   0 34.3773 3.85624  28
  -4  -5   0 34.6233 3.68024   3
  -4  -5   0 42.1848 4.26782  12
   4   5   0 43.0112 4.67135   1
   4   5   0 29.9653 7.73777   6
  -5  -5   0 32.8270 5.09583   7
  -5  -5   0 24.2383 3.19205   3
  -5  -5   0 27.2308 3.33253  12
   5   5   0 16.3646 5.24445   9
   5   5   0 23.6806 4.24360  11
   5   5   0 25.7439 3.96818   1
  -6  -5   0 -3.8844 4.53399   7
  -6  -5   0 2.81063 1.45284   3
   6   5   0 -0.7226 2.38297  11
   6   5   0 -5.5636 4.80828  22
   6   5   0 -0.1367 2.66089   1
   6   5   0 0.87933 4.62332   9
  -7  -5   0 7.36961 2.08617  12
  -7  -5   0 -2.6038 4.33734   7
  -7  -5   0 2.39158 2.10508   2
   7   5   0 2.30971 2.01788  16
   7   5   0 13.7244 4.12880   1
   7   5   0 5.03864 2.04599  11
  -8  -5   0 2.29723 1.19583   3
   8   5   0 1.02635 1.37903  16
   8   5   0 -0.7927 1.58702  11
   4  -6   0 4.87887 1.26158  27
   4  -6   0 7.28911 1.31922   4
  -4   6   0 10.1673 2.80492  11
   3  -6   0 21.0204 2.55143   4
   3  -6   0 22.3250 2.33872  27
  -3   6   0 21.0514 5.21992   1
  -3   6   0 14.4260 4.07514  11
   2  -6   0 9.78004 2.23531   4
   2  -6   0 15.4572 2.23184   3
   2  -6   0 12.6772 1.87572  28
   2  -6   0 19.3563 9.03161   5
  -2   6   0 15.5050 4.42658  11
  -2   6   0 15.3451 4.83522   7
  -2   6   0 13.0812 5.12466   1
   1  -6   0 16.2487 2.61647  27
   1  -6   0 15.9542 1.98166   3
   1  -6   0 9.41169 2.15813   4
   1  -6   0 1.58409 6.72022   5
   1  -6   0 13.7452 1.88223  28
  -1   6   0 4.92584 9.22634  11
  -1   6   0 2.73339 7.25344  18
  -1   6   0 10.2996 3.74109   1
   0  -6   0 0.72317 5.02962   5
   0  -6   0 5.25756 1.61047  28
   0  -6   0 4.49797 1.72442   3
   0  -6   0 6.41986 2.36003   4
   0  -6   0 4.81080 2.12462  27
   0   6   0 -3.2457 5.72991  18
  -1  -6   0 9.78294 3.88263  12
  -1  -6   0 10.0350 2.02105  28
  -1  -6   0 13.2021 2.58552  27
  -1  -6   0 16.3727 6.51725   5
  -2  -6   0 13.7724 3.07672  12
  -2  -6   0 15.3537 3.87592   4
  -2  -6   0 8.24926 1.98866   3
  -2  -6   0 17.4051 5.66499   5
  -2  -6   0 11.5745 2.05117  28
  -3  -6   0 13.2275 2.31803  28
  -3  -6   0 15.5210 3.29199  12
  -3  -6   0 15.9944 2.23815   3
   3   6   0 4.05912 4.36791  22
  -4  -6   0 3.72134 2.04369  28
  -4  -6   0 8.43247 2.68393  12
  -4  -6   0 1.01788 1.68986   3
   4   6   0 1.96802 4.48582  22
   4   6   0 2.78605 3.16785   1
  -5  -6   0 23.6116 3.13229  28
  -5  -6   0 30.4650 3.19968   3
   5   6   0 21.8327 8.53892  22
  -6  -6   0 7.44651 2.07668  28
   6   6   0 9.48697 3.21603   1
   6   6   0 2.29347 2.59125  11
   6   6   0 10.4200 8.68332  22
  -7  -6   0 4.72641 1.41052   3
  -7  -6   0 4.72435 2.00508  28
  -7  -6   0 3.36875 1.65437  12
   7   6   0 10.4345 2.49556  11
   7   6   0 4.69146 2.69959   1
   7   6   0 5.75391 2.28622  16
   2  -7   0 -0.9961 1.19331   4
   2  -7   0 1.10141 1.06230  27
  -2   7   0 1.64773 4.79370   1
  -2   7   0 -0.8508 3.97518  11
   1  -7   0 1.37480 1.39310   4
   1  -7   0 1.20076 1.06627  28
   1  -7   0 1.78382 1.46102  27
   1  -7   0 -0.0428 1.26845   3
  -1   7   0 4.42931 4.91264   1
  -1   7   0 8.12417 5.77302  11
   0  -7   0 23.6193 2.46491   3
   0  -7   0 19.9181 2.75452  27
   0  -7   0 18.4958 2.54848   4
   0  -7   0 8.01390 8.00401   5
   0   7   0 22.3454 6.77290   1
   0   7   0 -4.8970 12.2698  15
  -1  -7   0 14.9601 2.74426  27
  -1  -7   0 20.0835 2.29299   3
  -1  -7   0 20.5724 2.48834   4
  -2  -7   0 6.23174 2.28441  27
  -2  -7   0 6.17033 7.32489   5
  -2  -7   0 6.70223 1.66542   3
  -2  -7   0 4.78724 1.65046  28
  -2  -7   0 7.12141 4.48166  12
  -2  -7   0 10.1988 2.63180   4
  -3  -7   0 5.05866 1.62602   3
  -3  -7   0 5.56197 1.76152  28
  -3  -7   0 11.7702 2.93828  27
  -4  -7   0 14.9681 2.13029  28
  -4  -7   0 13.3399 2.72856  12
   4   7   0 9.05913 4.16451   1
  -5  -7   0 6.61810 1.83132   3
  -5  -7   0 3.67299 2.21201  12
   5   7   0 7.59355 3.56249   1
   5   7   0 6.76518 4.32663  11
  -6  -7   0 51.1157 4.57257   3
  -6  -7   0 51.5492 4.99960  12
   6   7   0 47.6176 5.71054   1
   6   7   0 51.0398 5.46516  11
  -7  -7   0 59.8606 5.13924  12
   7   7   0 50.9010 4.97665  11
   1  -8   0 0.04275 1.08936   4
   1  -8   0 1.13225 0.86801  27
   0  -8   0 4.71234 1.46035   3
   0  -8   0 6.52302 1.06513  28
   0  -8   0 4.15700 1.27730  27
   0  -8   0 1.98628 1.23635   4
  -1  -8   0 1.82017 1.10395  28
  -1  -8   0 1.47265 1.03290   3
  -1  -8   0 0.11644 1.46146  27
  -1  -8   0 -1.0571 1.47068   4
  -2  -8   0 2.72515 3.48137   4
  -2  -8   0 3.86269 1.59157  27
  -2  -8   0 3.09370 1.22122  28
  -3  -8   0 -0.4575 1.22432  28
  -3  -8   0 -0.7481 3.32245  12
  -3  -8   0 -0.7587 1.16735   3
  -4  -8   0 1.13985 1.20609  28
  -4  -8   0 -1.6661 2.13299  12
  -4  -8   0 1.52487 1.18023   3
  -5  -8   0 5.58652 1.70189  12
  -5  -8   0 1.32166 1.04686   3
  -6  -8   0 1.13787 1.45780  12
  -6  -8   0 5.16967 1.08667   3
  -3  -9   0 1.70652 0.91883  28
  -3  -9   0 0.83586 0.83894   3
  -5  -8   1 2.51933 1.94573  12
  -5  -8   1 2.20844 1.05180   3
  -5  -8   1 4.35634 1.05627  28
  -4  -8   1 3.93251 1.15455   3
  -4  -8   1 4.35758 1.25714  28
  -3  -8   1 1.95398 0.99417   3
  -3  -8   1 -0.2280 1.85299  27
  -3  -8   1 1.41675 1.18584  28
  -2  -8   1 3.70304 1.20711   3
  -2  -8   1 4.67794 1.64143  27
  -2  -8   1 3.29287 1.01884  28
  -1  -8   1 3.61633 1.31665  27
  -1  -8   1 2.99364 0.95267   3
   0  -8   1 4.64503 2.13078   4
   0  -8   1 8.45544 1.16877  28
   0  -8   1 7.08912 1.20587   3
  -7  -7   1 1.70398 0.90161   3
   6   7  -1 2.95891 3.12516   1
   6   7  -1 5.19625 3.54508  11
  -6  -7   1 1.61098 1.37280  28
  -6  -7   1 1.75443 1.00874   3
   5   7  -1 12.7156 4.05999   1
   5   7  -1 1.81952 7.61958  25
   5   7  -1 12.3771 4.02005  11
  -5  -7   1 5.67047 2.22929  12
  -5  -7   1 8.03416 1.67151  28
  -5  -7   1 5.16999 1.50407   3
   4   7  -1 -1.9380 7.74100  25
   4   7  -1 6.55755 3.72813   1
   4   7  -1 -8.4019 9.99536  22
  -4  -7   1 -0.0450 1.51221  28
  -4  -7   1 4.44765 3.13149  12
  -4  -7   1 3.02470 3.31338  27
  -4  -7   1 1.36572 1.26319   3
  -3  -7   1 19.0290 2.94905  27
  -3  -7   1 25.1373 2.57286   3
  -3  -7   1 16.9375 2.31421  28
  -2  -7   1 19.4876 2.41491   3
  -2  -7   1 14.4527 2.72915  27
  -2  -7   1 22.4628 2.40750  28
  -1  -7   1 10.2514 7.44087   5
  -1  -7   1 12.9981 1.79522  28
  -1  -7   1 15.5963 1.92457   3
   0   7  -1 9.35484 5.40691   1
   0  -7   1 6.24477 1.87681   3
   0  -7   1 7.44101 9.48271   5
   0  -7   1 2.14565 1.39230  28
   0  -7   1 3.91665 1.89810   4
   0  -7   1 2.55390 3.07287  27
  -1   7  -1 8.32948 4.97823   1
  -1   7  -1 3.86745 5.28779  11
   1  -7   1 4.21601 1.23907  28
   1  -7   1 6.99650 1.53271   4
   1  -7   1 6.36173 1.42050   3
  -2   7  -1 2.22480 5.04487   1
  -2   7  -1 -5.3036 3.83566  11
   2  -7   1 -1.2578 1.07518  27
   2  -7   1 -0.1238 1.17344   4
   7   6  -1 4.81916 3.10869   1
   7   6  -1 7.27705 2.19902  11
  -7  -6   1 6.92864 1.77599  12
  -7  -6   1 7.26496 1.44371   3
   6   6  -1 3.42196 9.74112  22
   6   6  -1 5.92082 3.11891   1
   6   6  -1 9.53484 2.71896  11
  -6  -6   1 5.17834 1.61066  28
  -6  -6   1 6.27917 2.16765  12
   5   6  -1 6.39895 5.57273  22
   5   6  -1 6.01939 3.26578  11
  -5  -6   1 4.25934 1.87884  28
  -5  -6   1 9.91565 2.61453  12
  -5  -6   1 5.90062 1.81388   3
   4   6  -1 10.3879 3.39037   1
   4   6  -1 15.8835 6.00453  11
   4   6  -1 3.04142 4.91303  22
  -4  -6   1 17.6543 4.02464  27
  -4  -6   1 8.81336 2.00024   3
  -4  -6   1 9.32130 2.10454  28
   3   6  -1 3.35581 3.21164   1
  -3  -6   1 7.14395 2.05628  28
  -3  -6   1 11.2323 1.97814   3
  -2  -6   1 10.9548 2.54761  27
  -2  -6   1 16.8390 2.13739   3
  -2  -6   1 12.5003 1.94777  28
  -2  -6   1 9.73088 4.96875   5
   1   6  -1 1.53692 5.69768  15
  -1  -6   1 5.23221 2.47922  27
  -1  -6   1 9.38761 1.75437  28
  -1  -6   1 5.98065 2.50685   4
  -1  -6   1 8.88709 1.77272   3
  -1  -6   1 1.87800 5.03438   5
   0   6  -1 11.5149 4.49493   1
   0   6  -1 3.06318 5.38482  15
   0  -6   1 1.78330 5.19169   5
   0  -6   1 8.79330 2.24587   4
   0  -6   1 7.99067 1.58875  28
   0  -6   1 9.21342 1.63894   3
  -1   6  -1 38.8576 6.09682  11
  -1   6  -1 38.3475 5.94831   1
   1  -6   1 40.7107 3.81588   3
   1  -6   1 41.0073 4.20436  27
   1  -6   1 51.4899 9.68158   5
   1  -6   1 47.1812 3.98739  28
  -2   6  -1 -1.9027 9.54838  18
  -2   6  -1 14.6850 5.13092   1
  -2   6  -1 19.2656 4.30515  11
   2  -6   1 11.5833 2.12183   3
   2  -6   1 20.6280 2.67068  28
  -3   6  -1 -0.6369 3.11171  11
  -3   6  -1 5.02886 4.32816   7
  -3   6  -1 7.20487 4.45191   1
   8   5  -1 1.54702 1.48744  16
   8   5  -1 -0.4194 1.65082  11
  -8  -5   1 2.69339 1.87310  28
  -8  -5   1 -1.6371 0.99163   3
   7   5  -1 4.23429 2.02773  11
   7   5  -1 1.71162 2.16471  16
   7   5  -1 7.00592 2.95024   1
  -7  -5   1 6.59717 1.53257   3
  -7  -5   1 1.43600 3.83728   7
  -7  -5   1 7.85538 1.95466  12
  -7  -5   1 3.83185 2.07301   2
   6   5  -1 10.6309 4.74225  22
   6   5  -1 8.26797 2.73977  11
   6   5  -1 9.01590 3.63292   1
  -6  -5   1 9.12946 1.96103   3
  -6  -5   1 5.03666 2.28001  12
  -6  -5   1 11.9510 4.07090   7
  -6  -5   1 5.48439 2.53294   2
   5   5  -1 17.4192 3.51762  11
   5   5  -1 14.7092 3.53328   1
   5   5  -1 6.49932 3.73637  22
  -5  -5   1 15.8932 2.33219   3
  -5  -5   1 17.9028 4.53118   7
  -5  -5   1 14.4862 2.89147  12
   4   5  -1 10.5889 3.41549  22
   4   5  -1 8.54539 6.74330   6
   4   5  -1 15.5903 4.71925  11
   4   5  -1 10.7373 3.82446   1
  -4  -5   1 13.1176 2.32259   3
  -4  -5   1 10.1391 2.84668  12
   3   5  -1 29.0799 7.15599   6
   3   5  -1 13.7094 3.59374   1
  -3  -5   1 16.7067 2.39407  28
  -3  -5   1 20.4404 3.32084  12
  -3  -5   1 26.5828 5.86047  27
  -3  -5   1 13.1692 3.55675   3
   2   5  -1 -2.7901 4.20047   6
   2   5  -1 1.07669 3.62461  15
  -2  -5   1 2.22308 3.29390   5
  -2  -5   1 6.27007 1.89056  28
  -2  -5   1 5.78238 1.95931   3
   1   5  -1 -0.0550 3.00082  15
   1   5  -1 5.01482 3.83688   6
   1   5  -1 -1.7434 4.92494  18
   1   5  -1 -6.4649 4.61998  25
  -1  -5   1 1.14206 3.60009   5
  -1  -5   1 4.10801 2.62316  27
  -1  -5   1 3.88373 1.57461  28
   0   5  -1 45.7827 7.60786  18
   0   5  -1 68.5589 5.99452   1
   0  -5   1 61.6944 5.95537  27
   0  -5   1 52.5258 6.82187  17
   0  -5   1 75.8232 6.40560   3
   0  -5   1 64.6061 5.54704  28
   0  -5   1 73.9118 8.56135   5
  -1   5  -1 1.24681 4.73140   1
  -1   5  -1 -2.0421 4.14092  18
  -1   5  -1 10.1215 4.93376  11
   1  -5   1 4.13766 4.58952   5
   1  -5   1 4.93902 1.55276   3
   1  -5   1 4.82721 1.55116  28
   1  -5   1 5.58585 2.12968  27
   1  -5   1 6.86203 2.20069   4
  -2   5  -1 6.04215 3.38848   1
  -2   5  -1 4.68438 5.25002  18
   2  -5   1 9.09297 1.87211   3
   2  -5   1 11.6442 2.20212  27
   2  -5   1 9.47943 1.66511  28
   2  -5   1 7.16440 2.20184   4
   2  -5   1 11.7323 2.54341   2
   2  -5   1 19.6710 6.78542   5
   2  -5   1 11.9398 2.95501  17
  -3   5  -1 0.85521 3.94719   1
  -3   5  -1 5.01276 3.31258   7
  -3   5  -1 1.38677 3.15361  11
  -3   5  -1 -9.4860 6.07247  18
   3  -5   1 4.88432 1.50181   3
   3  -5   1 0.05611 7.24342   5
   3  -5   1 2.17748 1.68557  27
  -4   5  -1 8.09276 3.22441  11
  -4   5  -1 10.0562 4.72961   1
  -4   5  -1 4.99941 3.61037   7
   4  -5   1 1.97333 1.42293   4
   4  -5   1 3.00509 1.58058  27
   8   4  -1 1.12861 1.22242  16
  -8  -4   1 -0.7201 1.14636   3
  -8  -4   1 0.48428 3.14307   7
   7   4  -1 1.60576 3.21976   1
   7   4  -1 5.70268 9.93586  14
   7   4  -1 3.35192 5.93012  22
   7   4  -1 0.86989 2.05758  16
   7   4  -1 1.27244 3.74468   9
   7   4  -1 1.92219 2.14486  11
  -7  -4   1 8.47729 3.70481   7
  -7  -4   1 -1.5637 2.08528   2
  -7  -4   1 1.85784 1.73860  12
   6   4  -1 3.06140 2.47635  11
   6   4  -1 2.98560 2.81557   1
   6   4  -1 2.88538 5.62001   9
   6   4  -1 16.5880 6.07001  22
  -6  -4   1 7.88313 2.52470  12
  -6  -4   1 4.50302 2.58549   2
  -6  -4   1 7.55818 4.03694   7
   5   4  -1 -3.1950 7.52938   6
   5   4  -1 2.99620 2.55116  11
   5   4  -1 1.39935 2.49810  22
   5   4  -1 12.5540 4.43073   9
   5   4  -1 3.50696 2.21675   1
  -5  -4   1 6.09152 2.82957   2
  -5  -4   1 7.15936 3.82065   7
  -5  -4   1 8.14146 2.62891  12
   4   4  -1 157.448 12.2743   1
   4   4  -1 147.892 12.7683  22
   4   4  -1 142.804 12.0233  11
   4   4  -1 148.865 13.9318   6
  -4  -4   1 147.513 12.4773   7
  -4  -4   1 147.782 11.9841  12
  -4  -4   1 143.355 11.5085   2
   3   4  -1 34.8052 3.91938   1
   3   4  -1 36.6848 5.17780   6
  -3  -4   1 33.5472 4.64680   7
  -3  -4   1 33.7335 3.53596   3
  -3  -4   1 32.8537 4.00505  12
   2   4  -1 88.5999 8.08612   6
   2   4  -1 92.4387 7.16164  20
   2   4  -1 88.2015 7.95441  15
   2   4  -1 95.0167 7.23036   1
  -2  -4   1 79.3304 6.99082  28
  -2  -4   1 85.9135 8.83649   5
   1   4  -1 377.475 28.8314  18
   1   4  -1 430.248 28.1731  20
   1   4  -1 442.788 27.8522  20
  -1  -4   1 349.068 28.0308   3
  -1  -4   1 332.200 28.7320  27
  -1  -4   1 420.525 30.0775   5
  -1  -4   1 344.614 28.0194  28
   0   4  -1 3.21071 2.02593  18
   0   4  -1 2.91360 2.69204  10
   0   4  -1 5.04246 1.95496  20
   0  -4   1 1.74039 3.35411   5
   0  -4   1 6.12404 1.76187   3
   0  -4   1 5.96496 1.79599  28
  -1   4  -1 4.36849 3.95168  10
  -1   4  -1 -2.3235 3.30699  20
  -1   4  -1 1.55804 3.52341  24
  -1   4  -1 2.83916 2.48967  18
  -1   4  -1 2.42081 2.45265   1
   1  -4   1 11.0563 3.91118  17
   1  -4   1 8.04273 2.32387  27
   1  -4   1 5.25491 1.59585   3
   1  -4   1 4.42882 1.50348  28
  -2   4  -1 18.8384 4.03009   1
  -2   4  -1 15.3968 3.98236  11
  -2   4  -1 6.04303 6.88644  10
  -2   4  -1 18.5852 7.32652  24
   2  -4   1 24.3641 3.96887  17
   2  -4   1 23.3109 3.01260  27
   2  -4   1 18.6305 2.42360   3
   2  -4   1 25.8091 2.94809   2
   2  -4   1 20.3579 5.82928   5
   2  -4   1 21.8411 2.32720  28
  -3   4  -1 5.19753 3.45144   1
  -3   4  -1 -5.9594 4.63652  18
   3  -4   1 2.11512 2.09828   2
   3  -4   1 4.57127 4.61889   9
   3  -4   1 4.16170 1.59324   3
   3  -4   1 3.18476 5.91916   5
   3  -4   1 4.43086 2.77398  17
   3  -4   1 1.67894 1.17661  28
   3  -4   1 7.94049 2.17763  27
  -4   4  -1 1.03770 3.00380  11
  -4   4  -1 4.90254 6.22578  18
  -4   4  -1 -0.8990 3.25989   7
  -4   4  -1 3.78123 4.40258   1
   4  -4   1 4.53114 1.90175  27
   4  -4   1 1.68335 8.53414   5
   4  -4   1 4.02099 2.30594  17
   4  -4   1 7.13050 1.83790   2
   4  -4   1 4.42525 5.01473   9
  -5   4  -1 17.2158 5.85735   1
  -5   4  -1 19.1645 4.02591   7
  -5   4  -1 18.3126 3.77389  11
   5  -4   1 19.3000 2.34157   4
   8   3  -1 6.88026 2.66944   9
   8   3  -1 6.51557 1.53850  16
  -8  -3   1 4.08645 1.36796   3
  -8  -3   1 9.37528 3.76550   7
  -8  -3   1 5.79599 1.73642   2
   7   3  -1 1.19406 2.49925   9
   7   3  -1 1.98375 5.66421  22
   7   3  -1 -1.3062 3.86724   1
   7   3  -1 -0.3075 2.69955  16
   7   3  -1 0.12848 2.03203  11
  -7  -3   1 -1.0472 3.08149   7
   6   3  -1 7.46080 3.02364  11
   6   3  -1 10.0722 3.45904   1
   6   3  -1 7.54986 4.21581  22
   6   3  -1 13.2884 3.15938   9
  -6  -3   1 12.4936 3.88941   7
  -6  -3   1 12.9370 3.11463   2
  -6  -3   1 12.6450 2.90725  12
   5   3  -1 1.81509 2.40864  22
   5   3  -1 0.50312 6.33075   6
   5   3  -1 6.84281 2.48195  11
   5   3  -1 0.66556 3.03576   9
   5   3  -1 5.16220 2.43354   1
  -5  -3   1 9.44008 2.69789  12
  -5  -3   1 13.8903 3.30982   2
  -5  -3   1 13.3019 5.43482  24
  -5  -3   1 6.80290 3.38208   7
   4   3  -1 18.2205 3.19464  11
   4   3  -1 15.4614 3.38566  22
   4   3  -1 15.7041 3.74089   9
   4   3  -1 13.9190 2.82866   1
   4   3  -1 9.98815 3.72139   6
  -4  -3   1 10.3975 3.50009   7
  -4  -3   1 19.7974 3.37988   2
  -4  -3   1 18.1640 4.22518  24
  -4  -3   1 20.8422 3.04104  12
   3   3  -1 10.9568 2.45307   1
   3   3  -1 10.7841 3.13108   6
  -3  -3   1 13.9738 3.26316   7
   2   3  -1 362.276 25.2580   1
   2   3  -1 365.755 25.8565  20
   2   3  -1 360.750 25.7331  15
   2   3  -1 334.605 25.8829   6
   2   3  -1 342.055 25.2231  29
  -2  -3   1 323.267 26.4378   5
  -2  -3   1 337.979 25.9355   7
  -2  -3   1 345.556 25.3319  29
   1   3  -1 132.856 9.71595  20
   1   3  -1 132.573 10.0394  10
   1   3  -1 140.847 9.70174  10
   1   3  -1 136.332 10.2734  18
  -1  -3   1 113.173 11.0130   5
  -1  -3   1 126.505 9.53155  29
  -1  -3   1 126.987 9.54342  29
   0   3  -1 7.94678 1.76067  20
   0   3  -1 7.35170 2.37705  25
   0   3  -1 7.04503 1.97547   1
   0   3  -1 10.4121 2.75489  18
   0   3  -1 8.51985 1.82002  10
   0   3  -1 6.71231 1.93677  24
   0  -3   1 10.6744 2.19409  29
   0  -3   1 4.51182 2.60617   5
   0  -3   1 5.73934 2.68589  21
  -1   3  -1 154.209 11.8202  24
  -1   3  -1 144.687 11.3272   1
  -1   3  -1 145.756 11.6505  10
  -1   3  -1 132.562 12.2572  18
   1  -3   1 151.286 12.9159   5
  -2   3  -1 22.1951 4.53946  24
  -2   3  -1 29.8148 5.60094  20
  -2   3  -1 20.2248 4.98926  18
  -2   3  -1 21.9709 3.81280  11
   2  -3   1 30.2645 3.57419   2
   2  -3   1 34.3200 2.88005  28
   2  -3   1 32.8793 5.42573   5
   2  -3   1 27.0226 3.99576   9
   2  -3   1 31.6720 3.41869  27
   2  -3   1 39.3565 4.52868  17
   2  -3   1 33.7953 2.97076   3
  -3   3  -1 -2.7737 5.69735  20
  -3   3  -1 -2.8447 4.04722  24
  -3   3  -1 -1.3391 2.94165  18
  -3   3  -1 1.36931 3.00758   1
   3  -3   1 4.77072 2.89889   9
   3  -3   1 7.78158 3.05123  17
   3  -3   1 1.88071 1.67990  28
   3  -3   1 2.52287 2.55162  27
   3  -3   1 -2.2168 3.55882   5
   3  -3   1 5.23552 1.91062   3
   3  -3   1 3.37928 2.90075   2
  -4   3  -1 38.6450 5.32381  11
  -4   3  -1 37.7563 6.08453   1
  -4   3  -1 21.0308 10.7546  10
  -4   3  -1 39.1044 8.60990  18
  -4   3  -1 52.3136 9.85278  24
   4  -3   1 45.0880 5.20112  17
   4  -3   1 48.5250 4.85285   9
   4  -3   1 49.9197 4.21796  27
   4  -3   1 44.2850 8.68662   5
   4  -3   1 40.8199 4.42560   2
  -5   3  -1 1.72567 3.24656  11
  -5   3  -1 -0.9702 6.79787  18
  -5   3  -1 16.7480 14.9734  24
  -5   3  -1 7.00906 3.37329   7
  -5   3  -1 6.70453 5.04317   1
   5  -3   1 0.27106 2.49640   9
   5  -3   1 -6.2609 7.61390   5
   5  -3   1 0.31159 1.88263   2
   5  -3   1 3.09573 2.57632  17
  -6   3  -1 5.02405 3.93828  11
  -6   3  -1 -2.7188 3.03228   7
   6  -3   1 0.60411 1.09301   2
   6  -3   1 0.16356 2.77683   9
   6  -3   1 3.36140 1.45427   4
   8   2  -1 5.40523 3.33902  26
   8   2  -1 2.58706 1.42849  16
   8   2  -1 2.99289 1.97945   9
  -8  -2   1 4.88340 3.33849   7
   7   2  -1 3.00003 5.62479  22
   7   2  -1 2.81390 2.74332  11
   7   2  -1 5.26174 4.22972   2
   7   2  -1 1.12915 2.50022  16
  -7  -2   1 4.20520 3.16265   7
  -7  -2   1 5.32555 4.47532   2
   6   2  -1 3.35169 3.54445  22
   6   2  -1 9.70062 2.85046  11
   6   2  -1 8.57660 3.23847   1
   6   2  -1 9.10256 2.47292  16
   6   2  -1 9.29199 2.89362   9
  -6  -2   1 1.54993 5.83103  24
  -6  -2   1 8.74877 3.75937   7
  -6  -2   1 9.14256 3.24967   2
   5   2  -1 6.26587 5.88214   6
   5   2  -1 10.0568 3.85813  22
   5   2  -1 4.58152 2.28739  11
   5   2  -1 5.74910 2.50394   9
   5   2  -1 2.88760 2.23586   1
  -5  -2   1 9.62927 2.87616  12
  -5  -2   1 2.36692 2.95241   7
  -5  -2   1 4.23698 4.49724  24
   4   2  -1 110.581 9.81783   9
   4   2  -1 120.874 9.95733  11
   4   2  -1 123.757 11.1939  22
   4   2  -1 121.996 10.1343   1
   4   2  -1 133.010 11.5216   6
  -4  -2   1 132.483 10.0374   2
  -4  -2   1 109.441 10.9835  10
  -4  -2   1 120.762 10.1902   7
  -4  -2   1 122.963 9.79839  12
  -4  -2   1 113.840 10.8824  24
   3   2  -1 9.35737 2.93565  11
   3   2  -1 15.7740 3.38216   9
   3   2  -1 10.8981 3.78451  29
   3   2  -1 7.36889 2.10870   1
   3   2  -1 6.47718 2.49518  22
   3   2  -1 2.75201 1.80978   6
  -3  -2   1 10.9967 3.01422   7
  -3  -2   1 7.88654 2.44885  24
  -3  -2   1 4.90604 2.18877  10
   2   2  -1 45.3401 4.39117  15
   2   2  -1 46.1129 4.21856  29
   2   2  -1 53.9434 4.79807  20
   2   2  -1 41.7432 4.40558   6
   2   2  -1 46.5904 4.05574   1
  -2  -2   1 38.0313 4.17433  29
  -2  -2   1 44.5701 4.60667  24
   1   2  -1 -0.0615 0.63250  20
   1   2  -1 -0.2893 0.97973  10
   1   2  -1 1.20251 1.13481  15
   1   2  -1 0.00890 1.05984   6
   1   2  -1 0.35012 0.68634  18
  -1  -2   1 0.49143 1.76021   5
  -1  -2   1 0.24158 0.73432  29
   0   2  -1 2.08456 0.92480  24
   0   2  -1 1.68865 1.33405  25
   0   2  -1 1.37508 0.67429  20
   0   2  -1 2.72018 1.29756  18
   0   2  -1 2.03358 0.99329  10
   0  -2   1 3.19669 0.97948  29
   0  -2   1 1.76135 2.01342   5
  -1   2  -1 86.5336 6.81080  24
  -1   2  -1 79.5988 6.37956   1
  -1   2  -1 68.4774 6.56411  10
  -1   2  -1 85.6148 6.92598  29
  -1   2  -1 72.5615 6.77360  20
  -1   2  -1 80.0203 6.03273  25
  -1   2  -1 77.1490 7.22518  18
   1  -2   1 80.5273 6.72060  29
   1  -2   1 87.3541 6.89426  20
   1  -2   1 75.5080 7.49368   5
   1  -2   1 71.6745 7.47256  14
  -2   2  -1 0.48077 1.73090  20
  -2   2  -1 8.81659 4.22394  29
  -2   2  -1 2.45807 1.61490  18
  -2   2  -1 1.23925 1.95309  24
  -2   2  -1 3.33856 2.51631  10
   2  -2   1 4.46895 2.52859   9
   2  -2   1 2.26114 2.10639   5
   2  -2   1 1.14567 1.78697  22
  -3   2  -1 7.99931 3.65670  10
  -3   2  -1 8.19825 3.21772  24
  -3   2  -1 12.5422 2.97964   1
  -3   2  -1 3.79170 3.21628  20
  -3   2  -1 5.82457 2.65017  11
  -3   2  -1 5.26068 2.47451  18
   3  -2   1 10.7952 1.95995   3
   3  -2   1 5.43207 2.36208  22
   3  -2   1 9.34261 3.43725  17
   3  -2   1 8.58837 1.63389  28
   3  -2   1 5.63101 3.14435   5
   3  -2   1 9.18192 2.63310   2
  -4   2  -1 5.32146 3.06469  11
  -4   2  -1 3.40631 3.45946  18
  -4   2  -1 18.0172 5.91899  24
  -4   2  -1 10.8139 3.34892   7
  -4   2  -1 6.63743 6.24759  10
  -4   2  -1 4.00137 3.88827   1
   4  -2   1 7.37966 2.47473   9
   4  -2   1 2.37630 3.12197  22
   4  -2   1 5.47457 4.14591   5
  -5   2  -1 -7.5044 5.80166  18
  -5   2  -1 7.40576 7.74048  24
  -5   2  -1 2.75176 5.91087   7
  -5   2  -1 -0.3691 4.91838  11
  -5   2  -1 -3.3489 4.37564   1
  -5   2  -1 -0.1928 11.4130  10
   5  -2   1 2.26808 5.50747  22
   5  -2   1 -4.2015 6.01761   5
   5  -2   1 7.95995 3.02431   9
   5  -2   1 2.10165 2.00800   2
  -6   2  -1 -2.1275 3.18608   7
  -6   2  -1 1.36872 3.77359  11
  -6   2  -1 13.4833 12.9982   1
   6  -2   1 2.10403 2.29921   9
   6  -2   1 -0.0128 1.68893   2
   6  -2   1 -0.8509 2.17190  17
  -7   2  -1 -1.4435 2.58507   7
   7  -2   1 1.60722 1.07467   2
   7  -2   1 0.52918 2.19899   9
   7  -2   1 -0.2369 2.26022   4
   8   1  -1 7.26400 1.79560   2
   8   1  -1 7.27042 1.39799  16
   8   1  -1 6.61337 1.85852   9
  -8  -1   1 9.40251 3.35411   7
   7   1  -1 11.6525 2.22696  16
   7   1  -1 10.1563 2.50024   2
   7   1  -1 12.9228 7.78286  22
  -7  -1   1 6.55915 9.34713  24
  -7  -1   1 8.61569 2.98565   2
  -7  -1   1 10.6856 3.61704   7
   6   1  -1 7.90913 2.80942   9
   6   1  -1 11.0724 3.10114  11
   6   1  -1 6.75551 2.52834  16
   6   1  -1 -2.3889 4.84583   1
   6   1  -1 8.68274 4.26166  22
   6   1  -1 12.2110 3.16428   2
  -6  -1   1 6.28722 5.96991  24
  -6  -1   1 13.7988 3.39505   2
  -6  -1   1 12.8714 4.08201   7
   5   1  -1 5.14058 2.67727  11
   5   1  -1 2.68790 2.59346  22
   5   1  -1 5.53978 2.64457   1
   5   1  -1 3.95810 2.36625   9
   5   1  -1 9.49420 5.75041   6
  -5  -1   1 5.28464 2.84143   7
  -5  -1   1 0.10992 4.51201  24
  -5  -1   1 1.49878 5.10118  10
  -5  -1   1 1.61191 4.32246  18
  -5  -1   1 9.27283 5.49512   2
   4   1  -1 1052.88 77.6479  22
   4   1  -1 1099.94 78.5018   6
   4   1  -1 1046.63 76.8582  11
   4   1  -1 1118.13 77.2945   1
  -4  -1   1 1029.53 76.7938  12
  -4  -1   1 1014.67 77.4412   7
  -4  -1   1 1119.80 78.5864  24
  -4  -1   1 1047.42 77.0310   2
   3   1  -1 5.97502 2.63663  29
   3   1  -1 9.21589 2.61737  11
   3   1  -1 2.35320 1.55199   6
   3   1  -1 4.03669 1.87690   1
   3   1  -1 6.78048 2.05468  22
   3   1  -1 6.58764 2.52551   9
  -3  -1   1 2.36767 1.38338  18
  -3  -1   1 10.7082 4.04965   1
  -3  -1   1 6.92936 3.07483  20
  -3  -1   1 5.51167 2.40054  10
  -3  -1   1 -0.0885 2.55624  29
  -3  -1   1 3.31995 2.55975   7
  -3  -1   1 3.69406 2.15027  24
   2   1  -1 3.75088 1.53723   1
   2   1  -1 1.44994 1.37765   6
   2   1  -1 1.28999 1.27197  20
   2   1  -1 2.58077 1.46840  15
   2   1  -1 1.21630 1.24343  29
  -2  -1   1 1.97825 0.89367  18
  -2  -1   1 1.36537 1.80183  24
  -2  -1   1 2.08138 1.18314  29
  -2  -1   1 1.42337 1.36860   6
  -2  -1   1 0.41112 1.39651  20
  -2  -1   1 1.08240 1.56148  10
   1   1  -1 185.233 15.2779   6
   1   1  -1 238.505 15.2549  20
   1   1  -1 207.045 15.1911  29
   1   1  -1 203.872 15.3707  15
  -1  -1   1 197.906 15.2051  20
  -1  -1   1 216.258 15.2290  24
  -1  -1   1 206.199 15.1526  10
  -1  -1   1 202.630 15.5553   5
   0   1  -1 208.637 13.9418  18
   0   1  -1 185.092 13.4337  10
   0   1  -1 196.353 13.4589  24
   0   1  -1 189.208 13.8029  25
   0  -1   1 190.757 13.6691  29
   0  -1   1 162.946 14.0099   5
   0  -1   1 176.398 13.9173  14
  -1   1  -1 67.7299 5.78525   1
  -1   1  -1 75.1694 6.02553  29
  -1   1  -1 72.3135 6.03655  10
  -1   1  -1 58.7419 6.00714  20
  -1   1  -1 78.2650 6.85698  24
  -1   1  -1 73.8991 6.46951  18
  -1   1  -1 67.5785 5.48380  25
   1  -1   1 70.7968 5.75493  14
   1  -1   1 76.6502 6.05126  10
   1  -1   1 76.1221 6.04642  20
   1  -1   1 78.9160 5.98156  29
   1  -1   1 69.6665 6.57793   5
   1  -1   1 65.7094 6.25401  22
  -2   1  -1 1.95827 1.79251  18
  -2   1  -1 -1.4310 1.27628  20
  -2   1  -1 0.76409 1.93937  10
  -2   1  -1 -0.6015 1.70563  24
  -2   1  -1 0.33632 2.43873  29
   2  -1   1 -0.1277 1.48331  22
   2  -1   1 -1.6085 1.73675  29
   2  -1   1 0.80373 1.16544  14
   2  -1   1 1.33154 2.13349  20
  -3   1  -1 114.618 11.3308  10
  -3   1  -1 137.344 13.9861  29
  -3   1  -1 125.621 11.6493  18
  -3   1  -1 132.545 11.0207   1
  -3   1  -1 115.682 11.4707  24
   3  -1   1 137.949 12.6612  29
   3  -1   1 120.597 11.1016  22
   3  -1   1 145.487 10.4704   9
   3  -1   1 139.838 10.4328  14
  -4   1  -1 2.02321 3.37785   1
  -4   1  -1 1.31208 2.81586  18
  -4   1  -1 -1.5477 2.77727  11
  -4   1  -1 4.31396 2.79045   7
  -4   1  -1 2.48238 3.59426  24
  -4   1  -1 7.32130 5.40979   2
   4  -1   1 4.30259 2.32711   9
   4  -1   1 8.69271 3.72438  17
  -5   1  -1 7.21637 3.70183   7
  -5   1  -1 1.80166 4.74172  18
  -5   1  -1 0.08238 4.66541   1
  -5   1  -1 1.45182 3.43648  11
  -5   1  -1 -8.3501 7.37929  10
  -5   1  -1 -3.5703 5.46388  24
   5  -1   1 5.14920 2.46691   9
   5  -1   1 -4.0358 3.46495  22
   5  -1   1 9.51094 3.49800  17
   5  -1   1 4.05402 2.17391   2
  -6   1  -1 -4.4078 8.54444  18
  -6   1  -1 -2.6735 8.85385  24
  -6   1  -1 5.15752 4.18966   2
  -6   1  -1 0.27367 3.11295   7
   6  -1   1 3.16932 2.06676   2
   6  -1   1 -2.9053 6.11239  22
   6  -1   1 9.08504 7.00172   5
   6  -1   1 -0.9602 1.71592   9
   6  -1   1 8.31639 3.02783  17
   6  -1   1 7.26048 2.58491  16
  -7   1  -1 1.95340 2.95411   7
  -7   1  -1 2.65055 3.41355   2
   7  -1   1 0.99014 1.21739   2
   7  -1   1 1.60623 2.02141  16
   7  -1   1 2.00561 2.31277   4
   7  -1   1 -0.3609 1.72302   9
   7   0  -1 6.06014 1.99097   2
   7   0  -1 1.86113 1.64838  16
   7   0  -1 2.90228 1.93297   9
  -7   0   1 6.71081 3.09686   7
  -7   0   1 2.61141 2.86730   2
   6   0  -1 20.5926 2.72637   2
   6   0  -1 19.7794 3.16220  16
  -6   0   1 21.2636 11.3469  10
  -6   0   1 40.6863 13.3747  24
  -6   0   1 22.1801 4.09333   2
  -6   0   1 18.5460 4.24301   7
   5   0  -1 144.797 10.8201   9
   5   0  -1 119.083 10.3170  16
   5   0  -1 109.852 11.5400  22
   5   0  -1 121.632 10.2995   2
  -5   0   1 126.719 12.8264  18
  -5   0   1 141.745 10.9204   2
  -5   0   1 121.017 13.2255  24
  -5   0   1 149.876 14.5629  10
  -5   0   1 102.259 10.5972  11
  -5   0   1 135.813 11.6712   7
   4   0  -1 12.7270 3.24370  11
   4   0  -1 17.9927 5.27059   6
   4   0  -1 15.1725 2.61074   9
   4   0  -1 10.1292 3.38893  22
   4   0  -1 19.5866 3.41072   2
   4   0  -1 11.9556 3.42340   1
  -4   0   1 18.5554 4.31081   2
  -4   0   1 12.0130 4.04591   1
  -4   0   1 11.1447 4.30398  24
  -4   0   1 16.2057 3.77861  18
  -4   0   1 10.6487 4.05818  10
  -4   0   1 17.1976 3.48811   7
  -4   0   1 17.3644 3.71016  11
  -4   0   1 9.29272 3.78282  20
   3   0  -1 2.17236 2.12415  11
   3   0  -1 0.93990 2.07283   9
   3   0  -1 1.12897 1.31781  22
   3   0  -1 1.40239 1.98096   1
   3   0  -1 0.76454 1.70925   6
   3   0  -1 0.27910 2.47595  29
  -3   0   1 2.30827 2.15219  24
  -3   0   1 2.32565 2.77093   7
  -3   0   1 3.56184 2.59963  10
  -3   0   1 -0.1180 1.75869  20
  -3   0   1 8.98230 3.19128  11
  -3   0   1 2.76978 3.21856   1
  -3   0   1 2.73884 1.63675  18
   2   0  -1 9999.99 663.611  20
   2   0  -1 9010.20 662.832   1
  -2   0   1 9294.61 663.034   1
  -2   0   1 9586.53 663.290   6
  -2   0   1 9651.40 663.007  29
  -2   0   1 8431.64 663.142  24
   1   0  -1 21.8313 2.45817  10
   1   0  -1 20.0793 2.38717   6
   1   0  -1 19.4186 2.94029  15
   1   0  -1 22.5954 2.44785  20
   1   0  -1 20.2983 2.21448  29
  -1   0   1 20.3937 2.49248  10
  -1   0   1 19.7370 2.39929  24
  -1   0   1 16.7632 2.54235  20
  -1   0   1 21.5783 2.22951  29
  -1   0   1 20.8483 2.37835   6
   0   0  -1 1.52787 0.71004  25
   0   0  -1 2.53316 0.99031  18
   0   0  -1 2.76684 1.12791  15
   0   0   1 2.02760 0.60822   5
   0   0   1 2.06576 0.68748  14
   0   0   1 2.23134 0.57472  29
  -1   0  -1 1258.31 95.6950  10
  -1   0  -1 1345.42 95.5383  25
  -1   0  -1 1381.09 95.8597  18
  -1   0  -1 1288.07 95.7284   6
  -1   0  -1 1483.56 95.6717  29
  -1   0  -1 1331.59 95.7904  24
   1   0   1 1431.81 95.6025  29
   1   0   1 1275.43 95.5207  14
   1   0   1 1405.58 95.8057  10
   1   0   1 1276.86 95.7987  20
   1   0   1 1263.85 95.6650  22
  -2   0  -1 283.892 25.3433  10
  -2   0  -1 364.685 25.3434  29
  -2   0  -1 344.452 25.5722  18
  -2   0  -1 345.495 25.6180   6
  -2   0  -1 383.677 25.3752   1
  -2   0  -1 331.480 25.6035  24
   2   0   1 335.830 25.7418  20
   2   0   1 307.378 25.2157  22
   2   0   1 334.157 25.0260   1
   2   0   1 364.519 25.2598  29
   2   0   1 361.347 25.0107  14
  -3   0  -1 57.5498 6.00610  18
  -3   0  -1 46.0005 5.60063   1
  -3   0  -1 53.9454 5.11271   7
  -3   0  -1 47.8107 6.00474  10
  -3   0  -1 45.5041 5.97294  24
   3   0   1 52.1216 5.03977  11
   3   0   1 54.8022 6.36305  29
   3   0   1 54.6893 4.79993   9
   3   0   1 57.1917 4.99270  14
   3   0   1 52.1259 5.45747  22
   3   0   1 50.9463 5.03148   1
  -4   0  -1 7.84514 4.01688  24
  -4   0  -1 19.6890 3.72962   7
  -4   0  -1 5.47622 3.97044  10
  -4   0  -1 10.7569 3.53929   1
  -4   0  -1 9.19434 3.97602  18
  -4   0  -1 14.7114 3.53051  11
   4   0   1 9.57710 2.92433  11
   4   0   1 5.25102 2.67173  22
   4   0   1 11.5250 3.09190   2
   4   0   1 12.1109 2.39531   9
   4   0   1 15.5436 3.43956   1
  -5   0  -1 45.0073 7.84777   1
  -5   0  -1 55.1889 9.18074  10
  -5   0  -1 67.4138 8.52765  18
  -5   0  -1 66.2706 6.62448   7
  -5   0  -1 62.6574 6.23934  11
  -5   0  -1 54.3662 8.81470  24
   5   0   1 43.1024 6.23170  11
   5   0   1 66.3257 7.49620  22
   5   0   1 53.6425 5.40774   2
   5   0   1 52.3863 5.47571   9
   5   0   1 53.2651 6.35278  17
  -6   0  -1 17.4745 8.91000  24
  -6   0  -1 18.7333 3.96415   2
  -6   0  -1 14.0556 4.33344   7
   6   0   1 22.7786 4.12371  17
   6   0   1 13.9632 3.00989  16
   6   0   1 9.96651 6.14293  22
   6   0   1 16.4134 3.12899   9
   6   0   1 15.1278 2.81061   2
  -7   0  -1 -1.0692 3.03104   2
  -7   0  -1 2.55483 3.12408   7
   7   0   1 -0.5996 1.80485   2
   7   0   1 0.25433 1.81511  16
   7   0   1 0.00301 1.91938   9
   7  -1  -1 -0.9382 1.47684  16
   7  -1  -1 1.24852 1.45177   2
   7  -1  -1 -0.8788 1.96575   9
  -7   1   1 1.10170 2.82723   7
  -7   1   1 -3.1322 3.33851   2
   6  -1  -1 -2.2191 7.03126  22
   6  -1  -1 3.58789 1.95645   2
   6  -1  -1 -6.6274 7.12169   5
   6  -1  -1 2.10452 2.10748  16
   6  -1  -1 1.38445 1.96325   9
  -6   1   1 3.74385 4.17479   2
  -6   1   1 11.6877 11.8378  18
  -6   1   1 8.39718 7.71827  24
  -6   1   1 0.07839 3.04202   7
   5  -1  -1 -2.2531 3.78624  22
   5  -1  -1 3.54222 2.43874   2
   5  -1  -1 -1.1766 1.85445   9
   5  -1  -1 4.67655 2.81579  16
  -5   1   1 7.25890 4.34303   2
  -5   1   1 2.08774 4.46077  24
  -5   1   1 7.46566 3.52992  11
  -5   1   1 0.86883 6.96828  10
  -5   1   1 0.86041 4.30135   1
  -5   1   1 2.15365 4.58850  18
   4  -1  -1 28.7873 3.37366   2
   4  -1  -1 26.9754 3.63873  16
   4  -1  -1 25.7374 3.22734   9
   4  -1  -1 22.7983 4.32486  17
   4  -1  -1 26.4021 4.58207  22
  -4   1   1 18.5000 4.28843   1
  -4   1   1 22.8621 4.35396   7
  -4   1   1 25.9065 4.89831  18
  -4   1   1 21.6903 4.93039  24
  -4   1   1 24.2742 5.69181  10
  -4   1   1 19.1477 3.76753  11
   3  -1  -1 19.5559 2.74851  14
   3  -1  -1 17.3164 2.61511   9
   3  -1  -1 26.3669 5.71658  29
   3  -1  -1 16.4057 3.07727  22
  -3   1   1 19.4431 3.62725  18
  -3   1   1 13.1294 6.35361  29
  -3   1   1 17.4956 4.47644  20
  -3   1   1 17.4105 3.43722   1
  -3   1   1 20.3187 3.77350  10
  -3   1   1 13.6132 3.56275   7
  -3   1   1 17.1984 3.47214  24
   2  -1  -1 160.714 13.2309   6
   2  -1  -1 190.703 13.2073  29
   2  -1  -1 164.844 12.9052  22
  -2   1   1 141.905 13.4009   6
  -2   1   1 170.395 13.4000  10
  -2   1   1 167.058 13.1910   1
  -2   1   1 172.083 13.1625  29
  -2   1   1 174.938 13.5350  24
  -2   1   1 158.202 13.5659  20
   1  -1  -1 0.29307 1.09137   6
   1  -1  -1 0.84876 0.86733  22
   1  -1  -1 0.88447 0.81801  25
   1  -1  -1 0.74440 0.94299  29
   1  -1  -1 0.50221 1.13463  20
  -1   1   1 1.00589 1.07930   6
  -1   1   1 0.59387 1.26204  20
  -1   1   1 0.28161 1.46376   1
  -1   1   1 0.24777 1.59805  24
  -1   1   1 0.44261 1.57927  10
  -1   1   1 -0.3268 0.88044  29
   0  -1  -1 269.792 18.8667  29
   0  -1  -1 245.321 19.0209   5
   0  -1  -1 268.141 18.9389  25
   0   1   1 242.490 18.7975   6
   0   1   1 265.658 18.8611  29
   0   1   1 281.568 18.8619  14
  -1  -1  -1 -0.9962 0.56482  29
  -1  -1  -1 -0.2571 0.62641   6
  -1  -1  -1 0.64702 1.06612  18
  -1  -1  -1 0.12963 0.62036  15
   1   1   1 -0.1309 0.73594   6
   1   1   1 0.66854 0.81983  29
   1   1   1 0.54125 0.79070  22
  -2  -1  -1 171.949 14.4003  24
  -2  -1  -1 186.672 14.2010  18
  -2  -1  -1 172.902 13.9229  29
  -2  -1  -1 199.025 14.1480   6
   2   1   1 182.083 14.6154  20
   2   1   1 205.120 13.9159   1
   2   1   1 180.511 14.0521  22
   2   1   1 174.717 14.0951   6
   2   1   1 181.970 13.8781  29
  -3  -1  -1 58.6386 5.76631  18
  -3  -1  -1 46.7994 5.70911   7
  -3  -1  -1 54.8473 6.24503  24
  -3  -1  -1 46.8285 6.23388  10
   3   1   1 64.2864 5.32591  11
   3   1   1 65.1209 5.33166   1
   3   1   1 57.7740 5.80085  22
   3   1   1 55.3699 6.05231   6
   3   1   1 55.4036 6.14788  29
  -4  -1  -1 2.70680 2.94719  10
  -4  -1  -1 1.78966 2.07889  18
  -4  -1  -1 2.82990 2.92162   7
  -4  -1  -1 14.4078 5.05770  11
  -4  -1  -1 5.68931 3.40689  24
   4   1   1 3.70207 2.86899   6
   4   1   1 4.94364 2.41367  22
   4   1   1 4.39712 2.09038   1
  -5  -1  -1 40.5541 6.70080  18
  -5  -1  -1 34.4654 4.74765   7
  -5  -1  -1 33.7059 6.76771  24
  -5  -1  -1 34.0608 4.23271   2
   5   1   1 33.3507 4.02956   9
   5   1   1 32.5182 5.73518  22
   5   1   1 31.2375 3.91352  11
   5   1   1 27.2924 4.87183  14
   5   1   1 34.1075 4.42790   1
   5   1   1 32.4352 4.30507   2
  -6  -1  -1 1.25300 4.08541   7
  -6  -1  -1 8.90456 3.15826   2
  -6  -1  -1 -1.9040 5.92829  24
   6   1   1 -2.5108 4.08310  22
   6   1   1 -0.5844 2.16536   9
   6   1   1 -0.5252 5.60331  14
   6   1   1 2.97563 2.92542  11
   6   1   1 -3.4648 4.54946   1
  -7  -1  -1 2.84068 2.73536   2
  -7  -1  -1 -0.5044 3.02126   7
   7   1   1 3.02852 1.87337  16
   7   1   1 2.75022 1.61682   9
   7   1   1 6.14462 2.38897   2
   7   1   1 4.42404 6.75834  22
  -8  -1  -1 7.19162 2.41234   2
  -8  -1  -1 9.98163 3.08135   7
   8   1   1 5.27878 1.73472   9
   8   1   1 9.64054 2.16854   2
   8   1   1 8.20870 1.43681  16
   7  -2  -1 2.12097 2.84519  16
   7  -2  -1 -0.7108 1.77345   9
  -7   2   1 4.03291 3.01906   7
   6  -2  -1 2.11166 2.78853   4
   6  -2  -1 0.60660 2.16221  16
   6  -2  -1 0.36441 1.63397   2
   6  -2  -1 2.42109 2.23353   9
   6  -2  -1 2.65227 14.6440   5
  -6   2   1 0.20330 3.68707  11
  -6   2   1 3.72396 16.8870  24
  -6   2   1 -10.845 10.1515   1
  -6   2   1 8.47645 3.50949   7
   5  -2  -1 17.6179 2.71519   2
   5  -2  -1 21.0654 4.61504   9
   5  -2  -1 26.0747 3.26230  16
   5  -2  -1 25.9048 8.27251   5
  -5   2   1 20.3159 5.49813   1
  -5   2   1 14.1770 9.56627  10
  -5   2   1 19.9654 6.02194  11
  -5   2   1 25.1609 6.30859   7
  -5   2   1 14.4666 6.99793  24
   4  -2  -1 31.5753 3.43406   2
   4  -2  -1 30.0901 3.60980   9
   4  -2  -1 17.5386 6.14532  22
   4  -2  -1 33.9682 3.37617  27
   4  -2  -1 25.4381 4.48648  16
   4  -2  -1 33.4245 4.29386  17
  -4   2   1 21.6579 4.33332  11
  -4   2   1 31.8658 10.0154  20
  -4   2   1 30.1864 5.20234   1
  -4   2   1 27.9787 5.84484  18
  -4   2   1 26.2418 6.93219  10
  -4   2   1 23.3157 4.93928   7
  -4   2   1 21.6995 6.02224  24
   3  -2  -1 4.16240 1.83694   9
   3  -2  -1 -2.7700 2.20775  22
  -3   2   1 -2.0604 3.24720  20
  -3   2   1 8.84576 3.52777   7
  -3   2   1 -0.3692 2.74738  11
  -3   2   1 1.76391 3.04603  10
  -3   2   1 2.00422 2.49923  18
  -3   2   1 2.27069 2.45603   1
   2  -2  -1 3.58851 2.74366  29
   2  -2  -1 6.71131 2.64364  22
   2  -2  -1 6.52470 2.23280   9
  -2   2   1 8.50432 2.79017  24
  -2   2   1 6.04654 2.59837  10
  -2   2   1 6.79113 2.51694   1
  -2   2   1 7.43887 3.44527  29
   1  -2  -1 5.05037 2.00065  20
   1  -2  -1 7.88255 2.12429  22
   1  -2  -1 8.05705 2.82830   5
   1  -2  -1 8.39248 2.29024  29
  -1   2   1 9.83548 2.26216  29
  -1   2   1 7.35953 2.13564  20
  -1   2   1 8.50034 2.41308  24
  -1   2   1 9.13567 2.27513   1
  -1   2   1 8.06858 2.30117  10
   0  -2  -1 635.280 45.6591   5
   0  -2  -1 624.041 45.2904  29
   0   2   1 638.293 44.9105  29
   0   2   1 618.249 45.5156  20
  -1  -2  -1 10.4957 2.41023   5
   1   2   1 7.63935 1.33429   6
   1   2   1 8.78514 1.10184  29
  -2  -2  -1 696.691 50.1603   6
  -2  -2  -1 677.772 50.2952  18
  -2  -2  -1 669.189 49.9884  29
   2   2   1 711.068 49.9867  29
   2   2   1 701.036 50.2496  22
   2   2   1 710.099 49.8764   1
   2   2   1 698.953 50.2360   6
  -3  -2  -1 8.93456 3.22343  24
  -3  -2  -1 10.4469 2.92871  18
   3   2   1 12.0573 2.24768   1
   3   2   1 12.7272 2.88200   6
   3   2   1 8.11595 2.55544  29
   3   2   1 10.2077 2.66495  22
  -4  -2  -1 96.0824 8.40173   2
  -4  -2  -1 103.599 9.18320  18
  -4  -2  -1 87.2197 9.63714  24
  -4  -2  -1 95.2747 8.83326   7
   4   2   1 96.8703 9.18380  22
   4   2   1 106.035 8.60584  11
   4   2   1 100.578 8.46820   1
   4   2   1 95.8793 9.77772   6
  -5  -2  -1 4.35982 4.06698  18
  -5  -2  -1 4.06151 3.24008   7
  -5  -2  -1 3.27772 3.87212  24
   5   2   1 7.33710 2.76186   9
   5   2   1 4.47611 2.56881  11
   5   2   1 9.23587 5.78616   6
   5   2   1 5.15709 2.29740   1
   5   2   1 0.10677 2.40168  22
  -6  -2  -1 14.1399 6.73125  24
  -6  -2  -1 19.3607 3.95285   7
  -6  -2  -1 18.1742 3.32739   2
  -6  -2  -1 14.5723 3.31954  12
   6   2   1 15.4587 2.91762  11
   6   2   1 13.4482 3.13636   9
   6   2   1 20.8249 6.46629  22
   6   2   1 16.2985 5.75683  14
   6   2   1 14.7711 3.72855   1
  -7  -2  -1 -2.8732 3.22093   7
  -7  -2  -1 3.21282 2.68403   2
   7   2   1 5.33942 6.06376  22
   7   2   1 5.86047 2.51252   9
   7   2   1 -4.8518 7.96529   1
   7   2   1 -1.1098 2.81519  11
   7   2   1 3.99298 3.36962   2
   7   2   1 4.17204 2.18112  16
  -8  -2  -1 4.91274 3.33685   7
  -8  -2  -1 2.89599 1.89157   2
   8   2   1 4.31074 2.91458   2
   8   2   1 0.88146 1.31817  16
   8   2   1 0.30481 1.93638   9
   6  -3  -1 0.28994 2.05648   4
   6  -3  -1 2.36116 2.13861   9
   6  -3  -1 0.36656 1.19615   2
   5  -3  -1 33.7362 4.24717  27
   5  -3  -1 43.4278 4.59950  16
   5  -3  -1 32.9838 3.64808   2
   5  -3  -1 45.9885 4.29549   9
   5  -3  -1 30.0725 3.74591   4
  -5   3   1 35.6422 6.83280   1
  -5   3   1 36.2312 4.96263  11
  -5   3   1 19.5652 9.26178  24
  -5   3   1 40.4773 5.34219   7
  -5   3   1 35.1539 11.2141  18
   4  -3  -1 10.6517 2.25802   2
   4  -3  -1 9.66848 3.10572  17
   4  -3  -1 17.8917 7.32729   5
   4  -3  -1 10.9963 2.34818  27
  -4   3   1 13.5267 3.58595  11
  -4   3   1 6.12745 4.84516  18
  -4   3   1 20.1535 7.34247  24
  -4   3   1 13.5630 4.34234   1
  -4   3   1 16.0261 4.18347   7
  -4   3   1 12.3994 7.80138  10
   3  -3  -1 18.6118 2.52266  27
   3  -3  -1 17.7938 2.95858   9
   3  -3  -1 13.6548 4.91168   5
   3  -3  -1 23.1124 3.53484  17
  -3   3   1 13.9351 3.79062  11
  -3   3   1 14.4000 3.88935   1
  -3   3   1 20.3502 6.09616  10
  -3   3   1 12.0940 5.77646  20
  -3   3   1 23.8422 4.09036   7
  -3   3   1 13.5413 4.71527  18
   2  -3  -1 204.131 15.5643  17
   2  -3  -1 186.570 14.5865  28
   2  -3  -1 197.965 14.8707   2
   2  -3  -1 185.672 15.0054   9
   2  -3  -1 204.725 14.8715  27
   2  -3  -1 199.951 16.8203   5
  -2   3   1 201.535 16.3029  24
  -2   3   1 184.912 15.5857   1
  -2   3   1 209.278 16.4190  10
   1  -3  -1 4.70824 2.62055   5
   1  -3  -1 8.39235 2.46438   9
  -1   3   1 3.34634 2.88095  10
  -1   3   1 3.97377 1.99273  24
  -1   3   1 3.61634 1.78517  20
  -1   3   1 0.60519 2.10221  29
   0  -3  -1 143.392 11.7211   5
   0   3   1 152.202 11.1329  10
   0   3   1 127.247 10.1062  29
  -1  -3  -1 12.2552 2.95975   5
   1   3   1 10.7056 1.83853   6
  -2  -3  -1 50.9260 5.47109   5
   2   3   1 52.6250 4.33460  29
   2   3   1 55.2704 4.13961  15
   2   3   1 52.2023 4.92642   6
  -3  -3  -1 27.6168 5.16381  29
  -3  -3  -1 30.7783 4.55763   7
   3   3   1 28.0776 4.05950   6
   3   3   1 24.5418 3.07238   1
   3   3   1 29.0222 3.64734  22
   3   3   1 30.1664 4.29102  29
  -4  -3  -1 15.7733 3.07557  12
  -4  -3  -1 22.5346 3.97477   7
   4   3   1 15.5907 2.62058   1
   4   3   1 22.5557 4.77350   6
   4   3   1 19.8928 3.43515  11
   4   3   1 15.5815 4.20891  22
  -5  -3  -1 35.1258 5.18065   7
  -5  -3  -1 36.8673 4.33551  12
  -5  -3  -1 40.3250 5.56479   2
   5   3   1 40.3690 4.54604   1
   5   3   1 53.3925 9.98011   6
   5   3   1 28.3994 4.19746   9
   5   3   1 39.6763 4.49352  11
   5   3   1 39.5539 5.50947  22
  -6  -3  -1 64.0864 7.58045   7
  -6  -3  -1 74.9396 6.92637   2
  -6  -3  -1 60.1509 6.70825  12
   6   3   1 77.9369 9.44156  22
   6   3   1 85.6337 7.62254   1
   6   3   1 75.0513 6.97518   9
   6   3   1 78.5217 7.05880  11
   6   3   1 81.2264 8.91075  14
  -7  -3  -1 5.10622 2.41841   2
  -7  -3  -1 4.69687 3.55183   7
   7   3   1 6.67350 2.36888   9
   7   3   1 1.41027 3.49992   1
   7   3   1 3.41348 6.28629  22
   7   3   1 0.34106 2.09994  11
  -8  -3  -1 0.30121 1.66218   2
  -8  -3  -1 4.31286 3.73261   7
   8   3   1 1.85475 1.40803  16
   8   3   1 -1.6877 2.46353   9
   5  -4  -1 -0.0819 1.65851   4
   5  -4  -1 3.04041 1.37812   2
   5  -4  -1 2.38279 1.90714  27
   5  -4  -1 -1.1136 2.60459   9
  -5   4   1 8.02920 3.81898   7
  -5   4   1 3.32324 4.92316   1
  -5   4   1 2.79569 3.05556  11
   4  -4  -1 0.33404 2.58708   9
   4  -4  -1 4.85545 1.65309   2
   4  -4  -1 0.41244 8.21786   5
  -4   4   1 2.27232 3.90167   1
  -4   4   1 1.93328 3.73571   7
  -4   4   1 -12.421 10.0715  24
  -4   4   1 -0.8838 2.98857  11
  -4   4   1 -3.2129 5.39568  18
   3  -4  -1 68.4622 6.36479   9
   3  -4  -1 72.1424 7.13535  17
   3  -4  -1 71.7114 5.86911   2
   3  -4  -1 64.3427 5.82584  27
  -3   4   1 65.5482 9.54670  18
  -3   4   1 46.9432 9.53113  24
  -3   4   1 82.6407 7.38522   7
  -3   4   1 62.6148 7.51246   1
  -3   4   1 73.2217 12.0202  10
  -3   4   1 72.8079 7.01514  11
   2  -4  -1 12.2065 4.17159   5
   2  -4  -1 3.87056 2.56229   9
   2  -4  -1 7.31577 1.98567  27
   2  -4  -1 10.8910 3.62683  17
   2  -4  -1 3.87565 1.50475  28
  -2   4   1 4.82126 4.81016  10
  -2   4   1 2.64029 2.69534   1
  -2   4   1 4.51338 5.17249  20
  -2   4   1 4.06019 2.93376  18
  -2   4   1 1.48990 3.49579  24
   1  -4  -1 80.7387 6.38849   9
   1  -4  -1 71.7930 5.83423   3
   1  -4  -1 77.0949 6.13526   4
   1  -4  -1 66.5947 11.2583   5
   1  -4  -1 70.3121 5.73590  28
   1  -4  -1 73.4061 6.97700  17
   1  -4  -1 68.2111 5.96910  27
  -1   4   1 64.9518 6.52925   1
  -1   4   1 76.6022 7.37392  24
  -1   4   1 57.0982 7.03821  10
   0  -4  -1 3.97460 2.68156   5
   0   4   1 5.19216 2.68702  10
   0   4   1 2.66212 1.86742  20
   0   4   1 -0.0468 1.90885  24
  -1  -4  -1 104.577 9.47836   5
   1   4   1 88.3595 8.76510  20
   1   4   1 118.820 8.62372   6
  -2  -4  -1 3.48101 2.35486   5
   2   4   1 2.99629 1.67675   6
  -3  -4  -1 24.7776 3.22671  12
  -3  -4  -1 28.5460 5.29564   7
   3   4   1 24.9113 3.09515   1
   3   4   1 26.4783 4.39403   6
   3   4   1 19.4799 3.56406  22
  -4  -4  -1 68.8563 6.72624   7
  -4  -4  -1 53.4858 5.24746  12
  -4  -4  -1 51.3901 5.40833   2
   4   4   1 55.9667 6.53081  11
   4   4   1 62.0260 7.76709   6
   4   4   1 60.1996 5.57578   1
   4   4   1 64.9478 6.62957  22
  -5  -4  -1 15.0398 4.54577   7
  -5  -4  -1 18.5046 3.21420   2
  -5  -4  -1 17.3609 3.09577  12
   5   4   1 12.9164 4.89891   1
   5   4   1 5.71597 7.58649   6
   5   4   1 14.2415 3.28913  11
   5   4   1 18.8606 3.37306   9
   5   4   1 14.9133 4.72309  22
  -6  -4  -1 1.23292 4.43294   7
   6   4   1 -1.4408 4.04231  22
   6   4   1 0.79298 2.95321  11
   6   4   1 -0.1565 4.06725  14
   6   4   1 3.83635 2.89415   9
   6   4   1 0.45162 2.55710   1
  -7  -4  -1 1.91687 2.67484  12
  -7  -4  -1 4.46049 3.06072   2
  -7  -4  -1 2.78464 4.19940   7
   7   4   1 4.82834 2.70275   9
   7   4   1 -5.0964 6.59639  22
   7   4   1 4.56792 2.00718  11
   7   4   1 -10.989 6.12996  14
   7   4   1 2.88092 2.94307   1
  -8  -4  -1 2.09461 1.80165   2
  -8  -4  -1 1.44860 4.43684   7
   8   4   1 -0.2492 1.89099  11
   8   4   1 2.08383 2.15646   9
   8   4   1 2.19982 1.44701  16
   5  -5  -1 0.49464 1.13606   4
  -5   5   1 -1.7175 2.76076  11
   4  -5  -1 2.99374 1.54256   4
   4  -5  -1 4.48682 1.39262  27
  -4   5   1 1.31249 4.83747   7
  -4   5   1 4.03924 3.06058  11
  -4   5   1 3.35084 4.77834   1
   3  -5  -1 9.79669 8.90859   5
   3  -5  -1 3.19826 4.41240   9
   3  -5  -1 4.19658 1.60240  27
   3  -5  -1 6.60619 2.01845   4
  -3   5   1 -0.0277 3.61714   1
  -3   5   1 2.41767 4.60851   7
  -3   5   1 2.50803 3.37112  11
  -3   5   1 1.43475 5.55707  18
   2  -5  -1 5.71455 1.55564  28
   2  -5  -1 2.92991 6.22181   5
   2  -5  -1 9.45680 2.33256   4
   2  -5  -1 8.22055 3.36543   3
   2  -5  -1 6.72065 2.27793  27
   2  -5  -1 11.7474 5.15757   9
  -2   5   1 2.36626 3.13765   1
  -2   5   1 -5.8213 14.3593  10
  -2   5   1 5.87801 4.66971  18
  -2   5   1 4.77244 6.88425  24
  -2   5   1 7.82474 4.51168   7
   1  -5  -1 0.80637 1.49051  28
   1  -5  -1 2.67807 2.11362  27
   1  -5  -1 1.57080 4.67298   5
   1  -5  -1 7.15559 2.48592   4
  -1   5   1 6.87652 5.98825  10
  -1   5   1 1.67232 2.92190   1
  -1   5   1 -2.4297 4.23333  24
   0  -5  -1 44.0268 4.99421  12
   0  -5  -1 37.3065 3.96014  27
   0  -5  -1 38.9714 3.49207  28
   0  -5  -1 38.9571 3.54190   3
   0  -5  -1 49.6467 6.38521   5
   0  -5  -1 35.0012 3.96621   4
   0   5   1 36.4952 7.89767  20
   0   5   1 26.7363 4.74076   1
   0   5   1 35.7851 6.09604  10
  -1  -5  -1 1.46970 2.04676  28
  -1  -5  -1 3.50110 2.93587  27
  -1  -5  -1 1.69980 3.21129   5
   1   5   1 -1.9932 2.93629  20
   1   5   1 -2.3328 3.21621   6
   1   5   1 -0.6139 3.03225  10
  -2  -5  -1 84.5629 6.66794   3
  -2  -5  -1 70.2202 6.92437  12
  -2  -5  -1 86.9161 6.76557   4
  -2  -5  -1 70.5264 6.57710  28
  -2  -5  -1 84.5993 8.80012   5
   2   5   1 88.8498 8.55881   6
   2   5   1 89.3280 8.49863  20
  -3  -5  -1 50.4144 4.42493  28
  -3  -5  -1 43.1525 4.05583   3
  -3  -5  -1 44.2221 4.49181   4
  -3  -5  -1 38.9844 4.42829  12
   3   5   1 48.7497 7.64388   6
   3   5   1 48.9210 6.12652  22
   3   5   1 46.6607 4.93206   1
  -4  -5  -1 5.89198 1.97887   3
  -4  -5  -1 7.69087 2.45347  12
   4   5   1 2.29446 3.02158  22
   4   5   1 1.94177 6.97210   6
  -5  -5  -1 7.30112 2.55204  12
   5   5   1 5.63538 2.46207   1
   5   5   1 7.67508 3.10152  11
   5   5   1 4.87893 3.94982  22
  -6  -5  -1 1.62011 2.68705  12
  -6  -5  -1 4.52779 2.60412   2
   6   5   1 1.84708 5.78665  22
   6   5   1 -4.8522 4.12354  14
   6   5   1 3.30867 2.53111  11
   6   5   1 -0.6908 2.52150   1
   6   5   1 -1.7680 3.45200   9
  -7  -5  -1 12.3194 1.99200   3
  -7  -5  -1 13.9450 2.56154  12
   7   5   1 12.8514 3.91054   1
   7   5   1 18.7393 3.26583   9
   7   5   1 16.0381 2.83151  11
  -8  -5  -1 2.52940 1.14666   3
   8   5   1 0.89425 1.71560  11
   8   5   1 1.36504 1.27864  16
   4  -6  -1 5.57917 1.21341   4
   4  -6  -1 4.43478 1.20028  27
  -4   6   1 6.27723 2.82488  11
   3  -6  -1 7.55330 1.66547   4
   3  -6  -1 8.41196 1.46915  27
  -3   6   1 16.6766 4.83198   1
  -3   6   1 10.1959 3.80465  11
   2  -6  -1 1.10169 1.61657  27
   2  -6  -1 -1.9047 8.46696   5
   2  -6  -1 2.74585 1.72544   4
  -2   6   1 -0.6562 3.88652   1
  -2   6   1 2.67739 3.88070  11
  -2   6   1 -6.1343 6.30715  18
   1  -6  -1 5.05042 1.89581  27
   1  -6  -1 4.74341 5.93956   5
   1  -6  -1 7.72373 2.06217   4
   1  -6  -1 8.02578 1.60027  28
  -1   6   1 0.66939 5.79918  11
  -1   6   1 7.69855 5.78936  18
  -1   6   1 1.67050 3.67350   1
   0  -6  -1 6.64554 1.57484  28
   0  -6  -1 2.75549 5.13042   5
   0  -6  -1 5.92608 2.00898   3
   0  -6  -1 5.49433 2.19012   4
   0  -6  -1 3.74708 2.31341  27
   0   6   1 5.47323 5.02476   1
   0   6   1 0.83569 4.77489  18
  -1  -6  -1 9.02771 2.49793   4
  -1  -6  -1 17.4097 3.02861  12
  -1  -6  -1 13.3935 2.17922  28
  -1  -6  -1 20.8191 6.29044   5
  -1  -6  -1 14.7905 2.37745   3
   1   6   1 6.59712 5.00464  18
  -2  -6  -1 15.3143 2.89439   4
  -2  -6  -1 16.6881 2.49891  28
  -2  -6  -1 21.9475 2.51484   3
  -2  -6  -1 16.2703 3.32252  27
  -2  -6  -1 15.7874 6.31632   5
  -3  -6  -1 139.151 11.9827  28
  -3  -6  -1 159.172 12.1310   3
  -3  -6  -1 170.618 12.7387  12
  -4  -6  -1 0.22762 2.56144  12
   4   6   1 0.79928 5.07791  22
   4   6   1 2.06589 3.12302   1
  -5  -6  -1 21.6223 2.89578   3
  -5  -6  -1 26.5100 2.98942  28
  -5  -6  -1 20.4234 3.15557  12
   5   6   1 11.3298 4.36097  11
   5   6   1 15.3416 4.00534   1
  -6  -6  -1 25.8561 3.24670   3
  -6  -6  -1 29.9058 3.95955  12
  -6  -6  -1 20.0864 3.14739  28
   6   6   1 23.6308 4.64956   1
   6   6   1 15.7159 9.39632  22
   6   6   1 26.2963 3.90794  11
  -7  -6  -1 15.4389 2.12288   3
  -7  -6  -1 17.4326 2.62487  12
   2  -7  -1 9.11099 1.53860  27
  -2   7   1 6.69405 4.79960   1
  -2   7   1 10.8636 4.62092  11
   1  -7  -1 8.17625 2.13966   3
   1  -7  -1 6.12921 1.68154   4
   1  -7  -1 6.15467 1.66009  27
  -1   7   1 9.40728 5.61184   1
  -1   7   1 15.4861 6.14363  11
   0  -7  -1 5.22312 1.51022  28
   0  -7  -1 0.59190 10.9931   5
   0  -7  -1 4.85735 1.76808   4
   0  -7  -1 1.30900 1.97039  27
   0   7   1 3.95303 5.96498   1
  -1  -7  -1 5.74498 2.22390  27
  -1  -7  -1 6.58310 7.21166   5
  -1  -7  -1 3.10759 1.65463   3
  -1  -7  -1 5.47275 2.04930   4
  -1  -7  -1 2.71053 1.44931  28
  -2  -7  -1 27.6856 2.76511  28
  -2  -7  -1 22.3866 3.49934  12
  -2  -7  -1 26.3555 2.79197   3
  -2  -7  -1 31.9397 11.3958   5
  -3  -7  -1 9.91981 2.04479   3
  -3  -7  -1 14.2385 2.69552   4
  -3  -7  -1 10.1516 2.63104  12
  -3  -7  -1 13.4363 3.01704  27
  -4  -7  -1 90.2405 7.04567   3
   4   7   1 76.1608 8.30854   1
   4   7   1 77.6577 12.5069  14
   5   7   1 115.855 13.7399  14
   5   7   1 115.679 10.3805  11
   5   7   1 110.871 10.0475   1
  -6  -7  -1 5.66010 1.94237  12
  -6  -7  -1 5.05979 1.48289   3
   6   7   1 6.55736 3.38185   1
   6   7   1 5.79247 3.02081  11
  -7  -7  -1 21.8962 2.73907  12
  -7  -7  -1 21.7115 2.40676   3
   7   7   1 20.4989 3.27190  11
   1  -8  -1 1.52060 0.99939  27
   1  -8  -1 -0.1848 0.99863   4
   0  -8  -1 3.81463 1.41145  27
   0  -8  -1 2.81616 1.02557  28
  -1  -8  -1 0.64117 1.36642   4
  -1  -8  -1 3.12505 1.24526  28
  -1  -8  -1 -0.6927 1.44893  27
  -2  -8  -1 1.94408 1.80271  27
  -2  -8  -1 0.31154 1.30956  28
  -2  -8  -1 0.31650 1.39821   3
  -2  -8  -1 -0.2854 1.66386   4
  -2  -8  -1 1.85536 2.89763  12
  -3  -8  -1 1.01448 1.23008   3
  -3  -8  -1 0.62460 1.46841  28
  -3  -8  -1 -2.2714 2.30968  12
  -3  -8  -1 -2.2055 2.40892  27
  -4  -8  -1 -0.7694 2.07556  12
  -4  -8  -1 -1.9732 1.68162  28
  -4  -8  -1 -0.5971 1.24351   3
  -5  -8  -1 -1.3018 1.81374  12
  -5  -8  -1 1.10026 1.06045   3
  -6  -8  -1 1.50102 0.89092   3
  -6  -8  -1 3.59608 1.43508  12
  -2  -9  -1 6.14208 1.70083  28
  -3  -9  -1 1.26297 1.19037   3
  -4  -9  -1 6.15928 2.36515  12
  -5  -8   2 0.26945 0.83072   3
  -5  -8   2 1.01649 0.99278  28
  -4  -8   2 1.09576 1.07579  28
  -4  -8   2 1.11149 0.80311   3
  -3  -8   2 0.36557 1.66254  27
  -3  -8   2 0.50981 0.85289  28
  -3  -8   2 0.14659 0.78045   3
  -2  -8   2 2.41678 0.91607  28
  -2  -8   2 2.96003 0.98273   3
  -2  -8   2 2.96826 1.45137  27
  -1  -8   2 0.83302 0.72932   3
  -1  -8   2 0.17928 1.26485  27
  -1  -8   2 -0.0399 0.73147  28
   0  -8   2 0.96886 1.13899  27
   0  -8   2 1.41217 0.89013   3
   0  -8   2 0.87563 0.91260  28
   6   7  -2 2.99014 3.29218   1
   6   7  -2 -1.9821 2.19688  11
  -6  -7   2 0.58263 1.66321  12
  -6  -7   2 0.40057 0.89101   3
  -6  -7   2 0.30089 1.19405  28
   5   7  -2 16.4825 3.47225  11
  -5  -7   2 15.4682 2.07345   3
  -5  -7   2 18.3810 2.04546  28
   4   7  -2 15.4397 5.02539  11
   4   7  -2 20.6868 13.0923  25
  -4  -7   2 9.55851 1.87508   3
  -4  -7   2 9.59988 2.77103  12
  -4  -7   2 7.48490 2.71231  27
   3   7  -2 39.3371 5.51306   1
  -3  -7   2 36.7312 3.55383  28
  -3  -7   2 31.5106 3.50557   3
   2   7  -2 12.2997 5.04360   1
  -2  -7   2 12.3050 1.83919   3
  -2  -7   2 14.0615 2.39195  27
  -2  -7   2 12.8897 8.07768   5
  -2  -7   2 8.47901 1.79742  28
   1   7  -2 22.3820 5.89436   1
  -1  -7   2 12.5913 2.41088  27
  -1  -7   2 8.14165 2.00275   3
  -1  -7   2 10.6165 1.88138  28
  -1  -7   2 8.82805 7.64825   5
   0  -7   2 -0.1184 1.67214  27
   0  -7   2 -2.6742 9.45359   5
   0  -7   2 0.37872 0.79698   3
   0  -7   2 0.54922 1.07705  28
   0  -7   2 -0.4390 2.09115   4
  -1   7  -2 8.64630 4.82359   1
   1  -7   2 2.11308 1.17829  27
   1  -7   2 3.19798 0.99787  28
   1  -7   2 3.97935 1.01822   3
   1  -7   2 1.70515 1.49730   4
  -2   7  -2 -0.8580 3.56732  11
   2  -7   2 -0.4828 1.08139  27
   2  -7   2 0.73335 1.15865   4
   2  -7   2 -0.3834 0.82469   3
   7   6  -2 -2.0237 2.87928   1
   7   6  -2 0.34980 1.64975  11
  -7  -6   2 -0.0530 1.24441  28
  -7  -6   2 0.34870 0.98131   3
   6   6  -2 5.37550 3.28547   1
   6   6  -2 4.85020 6.25197  25
   6   6  -2 1.67938 2.36118  11
  -6  -6   2 0.72654 1.12884   3
  -6  -6   2 3.05037 1.47732  28
  -6  -6   2 1.00904 2.01304  12
   5   6  -2 1.43930 5.24766  25
   5   6  -2 4.48665 2.86296   1
   5   6  -2 3.16860 2.85137  11
   5   6  -2 10.5590 6.01886  22
  -5  -6   2 8.13472 1.92184   3
  -5  -6   2 5.23708 1.76303  28
   4   6  -2 24.5290 6.60975  25
   4   6  -2 17.3100 3.66798   1
   4   6  -2 13.4476 6.04048  22
   4   6  -2 18.2186 4.48131  11
  -4  -6   2 6.67064 4.60816  27
  -4  -6   2 10.5076 2.18299   3
  -4  -6   2 18.3711 2.31038  28
  -4  -6   2 12.2729 3.25368  12
   3   6  -2 -3.8130 4.90197  25
  -3  -6   2 2.48461 1.65781   3
  -3  -6   2 0.69662 1.62765  28
   2   6  -2 0.83223 3.17402   1
  -2  -6   2 5.57815 2.25927  27
  -2  -6   2 -0.0427 1.65957   3
  -2  -6   2 4.17644 1.65592  28
  -2  -6   2 1.05030 4.87411   5
   1   6  -2 45.6358 10.7363  15
   1   6  -2 44.1375 4.88686   1
  -1  -6   2 30.3124 3.86951  27
  -1  -6   2 40.7834 7.87999   5
  -1  -6   2 30.5981 4.21904   4
  -1  -6   2 40.2404 3.61125   3
   0   6  -2 13.4210 6.69206  15
   0   6  -2 18.9487 4.38927   1
   0  -6   2 12.6512 6.25657   5
   0  -6   2 12.6754 2.55782   4
   0  -6   2 13.3434 2.36252  27
  -1   6  -2 -2.7085 6.44290  15
  -1   6  -2 -2.3338 4.23162  11
   1  -6   2 10.4930 7.41077   5
   1  -6   2 4.27972 1.77879  27
   1  -6   2 3.68472 1.32594   3
   1  -6   2 1.20182 1.95950   4
   1  -6   2 5.80113 1.27642  28
  -2   6  -2 -4.3172 4.03037   1
  -2   6  -2 -2.5822 9.21171  15
   2  -6   2 2.84214 1.54859   4
   2  -6   2 1.78257 1.03978   3
   2  -6   2 6.12841 9.67108   5
   2  -6   2 2.01690 0.94410  28
  -3   6  -2 -0.0662 3.06169  11
  -3   6  -2 -1.9798 3.46014   7
  -3   6  -2 2.79622 4.41393   1
   3  -6   2 1.17666 1.23830  27
   3  -6   2 -0.6155 1.22005   4
   7   5  -2 9.86228 4.00685   1
   7   5  -2 3.50181 1.80979  11
   7   5  -2 5.50365 2.26460  16
  -7  -5   2 7.76235 2.26917   2
  -7  -5   2 1.74311 1.23839   3
   6   5  -2 7.77593 3.84971  16
   6   5  -2 2.84844 2.60354  11
   6   5  -2 1.66700 4.83719  22
   6   5  -2 6.71190 3.39290   1
   6   5  -2 -2.8903 4.89038  25
  -6  -5   2 -4.5749 3.47794   7
  -6  -5   2 2.02006 1.72122   3
  -6  -5   2 3.21878 2.49202  12
   5   5  -2 31.3267 4.60861   1
   5   5  -2 29.0998 5.95378  11
   5   5  -2 30.3694 6.34633  22
  -5  -5   2 30.0988 3.99339  12
   4   5  -2 11.2711 3.89666  11
   4   5  -2 2.38425 3.27771  22
  -4  -5   2 16.8402 4.64625   2
  -4  -5   2 8.65889 2.12285   3
  -4  -5   2 15.0433 3.71733  27
   3   5  -2 0.09706 5.47260   6
   3   5  -2 3.28067 2.49690   1
  -3  -5   2 4.79803 3.71628  12
  -3  -5   2 5.22867 1.95543   3
  -3  -5   2 4.78532 1.82742  28
  -3  -5   2 7.96884 2.95789  27
   2   5  -2 28.3780 7.55063  15
   2   5  -2 37.9436 4.38229   1
   2   5  -2 34.6185 7.87873   6
  -2  -5   2 36.9227 3.68201   3
  -2  -5   2 40.4083 5.05629  12
  -2  -5   2 29.7431 6.28441   5
  -2  -5   2 34.3694 4.92720  27
  -2  -5   2 33.4756 3.56530  28
   1   5  -2 -0.8387 2.55329   1
   1   5  -2 1.81291 3.62880  15
   1   5  -2 -7.7399 4.80199   6
   1   5  -2 -0.4026 4.24668  25
  -1  -5   2 -0.9241 1.45909  28
  -1  -5   2 1.52958 1.66800   3
  -1  -5   2 -3.8635 3.46930   5
   0   5  -2 12.6189 3.32438   1
   0  -5   2 18.3916 2.21111  28
   0  -5   2 29.2334 5.11340  17
   0  -5   2 19.3788 2.85237  27
   0  -5   2 18.4048 5.62661   5
   0  -5   2 16.5074 3.05147   4
  -1   5  -2 16.3962 7.63948  18
  -1   5  -2 23.9538 4.35693   1
   1  -5   2 32.0486 2.87549   3
   1  -5   2 30.1885 2.87137  28
   1  -5   2 29.7047 3.34193  27
   1  -5   2 22.8147 3.23481   4
   1  -5   2 26.9247 4.39936  17
  -2   5  -2 4.45328 5.73974  11
  -2   5  -2 12.8810 6.12307  18
  -2   5  -2 11.9314 4.21803   1
   2  -5   2 3.69371 3.09475  17
   2  -5   2 8.54890 1.56951   3
   2  -5   2 5.93312 1.44462  28
   2  -5   2 11.5904 2.04095  27
   2  -5   2 0.05503 5.78023   5
  -3   5  -2 4.12687 6.95046  15
  -3   5  -2 12.4825 3.84927  11
  -3   5  -2 5.94203 7.87191  18
  -3   5  -2 16.1020 5.21924   1
  -3   5  -2 14.3146 3.89696   7
   3  -5   2 10.5075 3.13367   2
   3  -5   2 9.35389 2.52120   4
   3  -5   2 11.4430 3.14594  17
   3  -5   2 17.5467 2.59696  27
   3  -5   2 12.7917 2.35981   3
  -4   5  -2 11.5960 3.65514   7
  -4   5  -2 2.82970 3.07770  11
  -4   5  -2 -4.8279 4.85390   1
   4  -5   2 4.52038 1.76443  27
   8   4  -2 1.07915 1.40872  16
   8   4  -2 -0.0223 2.40737  11
  -8  -4   2 1.08627 2.98709   7
  -8  -4   2 2.33353 1.37162   3
  -8  -4   2 1.29363 1.45314   2
   7   4  -2 0.68953 1.97825  16
   7   4  -2 -1.4557 1.82687  11
   7   4  -2 6.28912 3.78127   1
   7   4  -2 -5.0532 6.80998  25
  -7  -4   2 -0.1596 3.47644   7
  -7  -4   2 2.00404 1.96357   2
  -7  -4   2 0.21130 1.39211   3
   6   4  -2 57.6591 8.40514  22
   6   4  -2 40.0178 5.03593  16
  -6  -4   2 58.3203 5.03007   2
  -6  -4   2 51.5425 5.11950  12
   5   4  -2 10.8771 4.35147  22
   5   4  -2 8.19477 3.17803  11
   5   4  -2 8.53385 2.90918   1
  -5  -4   2 11.7709 2.21261   3
  -5  -4   2 9.68850 3.84661   7
  -5  -4   2 9.92883 2.86797   2
  -5  -4   2 13.9749 2.95014  12
   4   4  -2 38.4857 4.71150   1
   4   4  -2 39.0599 5.30823  22
   4   4  -2 33.3508 7.78516   6
  -4  -4   2 42.5350 5.23280   7
  -4  -4   2 37.1327 4.20633   3
  -4  -4   2 38.5669 4.53888  12
  -4  -4   2 35.6756 4.14418   2
   3   4  -2 307.777 21.3906  11
   3   4  -2 280.793 21.2326   1
   3   4  -2 279.574 23.0976   6
  -3  -4   2 296.483 21.8997   7
  -3  -4   2 238.401 21.0568  12
   2   4  -2 28.6343 4.59352  15
   2   4  -2 23.2333 4.49835   6
  -2  -4   2 25.7095 2.95132   3
  -2  -4   2 23.5207 4.90797   5
  -2  -4   2 24.4231 2.79903  28
   1   4  -2 3.37863 2.72621  18
   1   4  -2 1.50202 2.55125  25
   1   4  -2 -0.3703 2.14679  15
   1   4  -2 2.30596 2.22758   1
  -1  -4   2 0.57623 3.74081  21
  -1  -4   2 6.42721 1.90121  28
  -1  -4   2 0.58711 3.17260   5
   0   4  -2 114.135 8.91123   1
   0   4  -2 119.751 10.3104  18
   0   4  -2 103.251 9.55752  25
   0  -4   2 106.688 10.7476   5
   0  -4   2 110.811 8.52495  28
   0  -4   2 101.238 8.89680  27
   0  -4   2 107.096 8.51651   3
   0  -4   2 115.806 9.68967  21
  -1   4  -2 5.62078 4.01745  11
  -1   4  -2 2.82877 2.54892   1
   1  -4   2 3.40206 2.41261  27
   1  -4   2 9.14248 1.59783   3
   1  -4   2 0.75601 3.65055   5
   1  -4   2 5.18355 1.48340  28
  -2   4  -2 -1.9543 3.52132  18
   2  -4   2 -2.8036 4.55515   5
   2  -4   2 2.62410 3.10105  17
   2  -4   2 0.58163 1.28899   3
   2  -4   2 1.20055 1.28743  28
  -3   4  -2 30.8711 5.52610   1
  -3   4  -2 26.0943 7.96337  18
   3  -4   2 37.0596 3.43563   3
   3  -4   2 43.7274 8.91809   5
   3  -4   2 40.8441 4.57555  17
   3  -4   2 35.7080 3.31486  28
   3  -4   2 28.3955 3.59621   2
   3  -4   2 37.6150 3.57555  27
  -4   4  -2 5.82081 3.35647  11
  -4   4  -2 0.31226 6.61782  18
  -4   4  -2 10.8070 4.75041   1
  -4   4  -2 11.6718 3.64842   7
   4  -4   2 10.3408 2.67798  17
   4  -4   2 13.6775 8.47333   5
   4  -4   2 6.94313 1.85969   2
   4  -4   2 2.27236 2.22315  27
  -5   4  -2 20.2456 3.87953   7
  -5   4  -2 16.0092 4.02221  11
  -5   4  -2 4.95399 5.96550   1
   5  -4   2 13.8397 1.68173   2
   8   3  -2 7.71531 1.50923  16
  -8  -3   2 5.63430 3.14828   7
  -8  -3   2 7.69628 1.50483   3
   7   3  -2 4.91009 3.31676   9
   7   3  -2 13.9153 9.40715  25
   7   3  -2 6.30293 4.82751   1
   7   3  -2 -1.2602 2.07955  11
   7   3  -2 -4.0632 7.34261  22
   7   3  -2 -1.1805 1.83559  16
  -7  -3   2 -0.7401 3.41523   7
  -7  -3   2 -0.0354 2.17184   2
   6   3  -2 -2.4541 2.32942  11
   6   3  -2 0.60229 2.97121   1
  -6  -3   2 -0.4255 3.53554   7
  -6  -3   2 3.57354 2.66352   2
  -6  -3   2 2.99548 2.62193  12
   5   3  -2 1.90039 7.11095   6
   5   3  -2 11.5590 3.69549   9
   5   3  -2 -0.8218 2.57437   1
   5   3  -2 2.28019 2.43115  22
   5   3  -2 2.28434 2.31219  11
  -5  -3   2 2.58341 2.91911  12
  -5  -3   2 8.91251 2.99744   2
  -5  -3   2 -0.2794 3.19424   7
   4   3  -2 69.5276 6.28834  11
   4   3  -2 62.9011 8.11769   6
   4   3  -2 69.6129 6.57158   1
   4   3  -2 70.9014 6.73400   9
   4   3  -2 69.8105 7.03628  22
  -4  -3   2 61.7173 6.03599  12
  -4  -3   2 64.8184 6.22773   2
  -4  -3   2 65.5103 6.68466   7
   3   3  -2 79.3896 7.60282  15
   3   3  -2 68.0793 7.37792   6
   3   3  -2 72.1136 6.76410  11
   3   3  -2 71.3677 6.50777   1
  -3  -3   2 75.3550 6.69464  12
  -3  -3   2 81.9360 7.42192   7
   2   3  -2 0.74816 1.73687  15
   2   3  -2 2.12318 1.75125   1
   2   3  -2 1.21569 0.72861  20
   2   3  -2 1.22401 1.48430   6
  -2  -3   2 -2.6111 2.24073  29
  -2  -3   2 0.95418 2.35684   5
  -2  -3   2 3.55717 2.72876   7
   1   3  -2 72.6054 5.73312   1
   1   3  -2 71.8835 6.09263  18
   1   3  -2 65.6942 6.67472  15
   1   3  -2 65.7851 6.26682  25
  -1  -3   2 68.1183 6.03613  29
  -1  -3   2 61.0861 6.80480   5
   0   3  -2 41.0672 3.82153   1
   0   3  -2 35.2137 4.07787  25
   0   3  -2 35.5440 4.61429  18
   0  -3   2 40.3783 4.47372  21
   0  -3   2 46.2041 4.90034  29
   0  -3   2 37.3716 5.01698   5
  -1   3  -2 0.56021 1.84168   1
  -1   3  -2 2.03455 2.51973  24
  -1   3  -2 4.86128 3.50774  11
  -1   3  -2 -0.4553 1.84170  18
  -1   3  -2 -1.9600 2.48711  10
   1  -3   2 3.79089 2.40682  21
   1  -3   2 2.49714 2.41497   5
   1  -3   2 5.04397 1.65804   3
  -2   3  -2 103.020 9.58471   1
  -2   3  -2 111.413 10.3926  24
  -2   3  -2 96.2812 9.99926  10
  -2   3  -2 119.915 9.50924  11
   2  -3   2 113.678 8.92047   2
   2  -3   2 122.972 9.69607  17
   2  -3   2 118.944 11.3784   5
   2  -3   2 114.620 8.58882   3
   2  -3   2 112.199 8.92430  27
   2  -3   2 102.415 8.46858  28
  -3   3  -2 -4.5958 3.31370  18
  -3   3  -2 -0.5495 6.78229  10
  -3   3  -2 -0.0055 5.23564  24
  -3   3  -2 -1.7631 2.70631  11
   3  -3   2 2.53992 4.51730   5
   3  -3   2 7.52710 2.75924  27
   3  -3   2 4.65667 1.45468  28
   3  -3   2 5.37846 2.10701   2
   3  -3   2 2.66357 3.20879  17
   3  -3   2 3.97974 1.53732   3
   3  -3   2 7.46089 3.76280   9
  -4   3  -2 0.28954 3.69993   7
  -4   3  -2 13.6629 9.60078  24
  -4   3  -2 2.42055 3.52288  11
  -4   3  -2 6.04662 3.91071   1
  -4   3  -2 6.65977 5.10724  18
   4  -3   2 9.78242 5.87314   5
   4  -3   2 2.27635 3.63505   9
   4  -3   2 5.62562 1.96762   2
   4  -3   2 8.96581 2.76065  17
  -5   3  -2 1.51187 3.21188   7
  -5   3  -2 -6.2767 7.27019  18
  -5   3  -2 4.53623 5.46136   1
  -5   3  -2 -1.4265 3.23539  11
   5  -3   2 5.37602 9.27493   5
   5  -3   2 0.69843 2.57829  17
   5  -3   2 2.41874 2.26143   2
  -6   3  -2 11.1347 4.83833  11
  -6   3  -2 1.15516 2.99716   7
   6  -3   2 1.31440 1.09799   2
   6  -3   2 3.74769 1.36754   4
   8   2  -2 -0.3485 2.06105   9
   8   2  -2 1.48562 2.03051  26
   8   2  -2 2.47013 1.31820  16
  -8  -2   2 1.75639 1.66349   2
  -8  -2   2 3.64015 2.78629   7
  -8  -2   2 5.92881 1.84711   3
   7   2  -2 1.07838 2.32350   9
   7   2  -2 -2.6904 3.98450  11
   7   2  -2 -0.1190 1.71251  16
   7   2  -2 -6.3484 3.97052   2
   7   2  -2 0.67031 7.89162  22
  -7  -2   2 0.72880 3.29214   7
  -7  -2   2 2.85307 2.42993   2
   6   2  -2 11.9779 5.24236  25
   6   2  -2 4.00207 3.60114  22
   6   2  -2 7.22320 3.39020   9
   6   2  -2 6.95302 3.33915   1
   6   2  -2 8.20672 3.59801  11
  -6  -2   2 10.3552 3.23309   2
  -6  -2   2 18.8415 5.77598   7
  -6  -2   2 6.66694 7.07979  24
   5   2  -2 2.10358 2.19155  22
   5   2  -2 1.92051 2.73133   1
   5   2  -2 8.16338 2.79006  16
   5   2  -2 6.02701 3.00017   9
   5   2  -2 -6.3694 6.53636   6
   5   2  -2 8.15224 2.48147  11
  -5  -2   2 5.77912 2.92478   7
  -5  -2   2 6.83913 4.63113  24
  -5  -2   2 4.41963 3.30862   2
  -5  -2   2 3.19582 2.58918  12
   4   2  -2 29.0402 5.56304   6
   4   2  -2 24.8534 3.53101  11
   4   2  -2 24.9361 4.00487  22
   4   2  -2 27.0579 3.69903   9
   4   2  -2 28.2176 3.63883   1
  -4  -2   2 20.2172 4.71244  10
  -4  -2   2 30.8074 4.12429   7
  -4  -2   2 22.3609 4.61435  24
  -4  -2   2 31.2045 3.50562  12
   3   2  -2 1.49915 1.70139   1
   3   2  -2 2.96641 2.15399  15
   3   2  -2 6.66824 2.68570  11
   3   2  -2 -0.4523 5.61176   9
   3   2  -2 1.51317 1.75991   6
  -3  -2   2 -0.2631 2.26353  24
  -3  -2   2 0.82879 2.07262  10
  -3  -2   2 1.89364 2.65785   7
   2   2  -2 27.2904 3.68635  29
   2   2  -2 24.4312 3.49407   6
   2   2  -2 26.3685 3.79507  15
   2   2  -2 32.1536 3.32654  20
   2   2  -2 27.6785 3.11980   1
  -2  -2   2 29.4071 3.81022   7
  -2  -2   2 30.9428 3.72287  29
  -2  -2   2 29.5953 3.46799  24
   1   2  -2 4.82355 1.65031  18
   1   2  -2 3.00897 1.51290  15
   1   2  -2 4.85944 1.64177   6
   1   2  -2 2.13984 1.38708   1
  -1  -2   2 3.73043 1.21553  29
  -1  -2   2 5.02714 2.21462   5
   0   2  -2 1.18964 1.41858  18
   0   2  -2 -0.5146 1.35403   1
   0   2  -2 0.39929 1.37498  25
   0  -2   2 0.86643 1.60303  14
   0  -2   2 1.55231 2.06905   5
   0  -2   2 0.72018 1.08394  29
   0  -2   2 -1.0813 1.38700  29
  -1   2  -2 11.0575 2.21810  10
  -1   2  -2 8.39531 2.45896  24
  -1   2  -2 6.94799 1.98619   1
  -1   2  -2 8.29797 2.03384  25
   1  -2   2 6.63983 2.28173  20
   1  -2   2 7.97795 2.36408  29
   1  -2   2 6.14039 2.35914  14
   1  -2   2 8.80697 2.44915  21
   1  -2   2 8.29629 3.19827   5
  -2   2  -2 78.2669 6.72788   1
  -2   2  -2 73.6051 7.21431  24
  -2   2  -2 75.0275 6.40498  11
  -2   2  -2 59.7632 7.32137  18
  -2   2  -2 63.0858 6.94629  10
   2  -2   2 76.0909 7.80426   5
   2  -2   2 80.0384 7.56086  22
   2  -2   2 69.7546 6.43495   9
   2  -2   2 75.7470 6.81310  14
   2  -2   2 84.0387 7.00031  21
  -3   2  -2 1.72283 2.84738   1
  -3   2  -2 2.48643 2.65947  18
  -3   2  -2 3.67102 2.50951  11
  -3   2  -2 4.82978 3.90230  10
  -3   2  -2 -1.1552 3.33584  24
   3  -2   2 -0.6410 2.26300  22
   3  -2   2 5.25149 2.44420   2
   3  -2   2 5.52695 1.61238   3
   3  -2   2 3.90143 3.52242   9
   3  -2   2 3.10811 3.20802  17
   3  -2   2 2.67168 1.62516  28
   3  -2   2 -1.7553 3.03879   5
  -4   2  -2 1.78507 3.12711   7
  -4   2  -2 1.55778 3.83144   1
  -4   2  -2 -3.1635 2.86114  11
  -4   2  -2 3.92766 3.61774  18
  -4   2  -2 4.67674 6.73166  10
  -4   2  -2 -5.3388 5.18493  24
   4  -2   2 5.42252 3.64218  22
   4  -2   2 2.09621 2.76952   9
   4  -2   2 6.57254 2.25208   2
   4  -2   2 -3.2067 4.13206   5
   4  -2   2 5.17586 3.33501  17
  -5   2  -2 3.51495 7.35909  18
  -5   2  -2 -7.9685 11.9310  24
  -5   2  -2 6.14589 3.31451   7
  -5   2  -2 4.69820 3.34120  11
  -5   2  -2 0.39880 5.03185   1
   5  -2   2 5.69131 7.28543   5
   5  -2   2 5.62166 2.01728   2
   5  -2   2 2.79894 2.69385   9
   5  -2   2 2.62843 6.44860  22
   5  -2   2 7.17657 2.75559  17
  -6   2  -2 2.73363 3.34633   7
  -6   2  -2 1.92195 4.12911  11
   6  -2   2 3.26114 1.59318   2
   6  -2   2 2.70510 2.02997  17
   6  -2   2 1.47689 2.58047   9
   8   1  -2 3.55620 1.68561   2
   8   1  -2 0.53135 1.13671  16
   8   1  -2 1.50125 1.91559   9
  -8  -1   2 4.95215 2.07159   2
  -8  -1   2 2.00380 2.86004   7
   7   1  -2 2.86029 1.51878  16
   7   1  -2 2.43294 2.18403   9
   7   1  -2 1.23988 2.33195   2
  -7  -1   2 -0.6453 2.79525   7
  -7  -1   2 1.01519 2.60505   2
   6   1  -2 303.951 28.7212   1
   6   1  -2 362.479 28.4482   9
   6   1  -2 430.900 30.3133  22
   6   1  -2 361.260 27.7810  16
   6   1  -2 371.810 27.6472   2
  -6  -1   2 428.272 32.4456  24
  -6  -1   2 379.198 33.1924  10
  -6  -1   2 369.313 31.4048   7
  -6  -1   2 339.964 27.9839   2
   5   1  -2 2.98418 2.32954   9
   5   1  -2 -3.7793 6.21802   6
   5   1  -2 -2.0387 2.84775   1
   5   1  -2 -1.3211 2.47579  22
   5   1  -2 1.91404 2.19586  11
  -5  -1   2 9.35049 3.49010   2
  -5  -1   2 1.79418 3.00916   7
  -5  -1   2 -0.5337 5.72022  10
  -5  -1   2 -3.8359 4.40794  24
   4   1  -2 4.60815 2.44783   9
   4   1  -2 3.50514 2.13418  11
   4   1  -2 4.39304 2.14147   1
  -4  -1   2 5.38731 3.10266  24
  -4  -1   2 1.24381 2.96411  12
  -4  -1   2 0.18451 3.18352  10
  -4  -1   2 1.49633 2.80477  20
  -4  -1   2 4.58250 2.85336   7
  -4  -1   2 1.12705 2.51945  18
   3   1  -2 105.192 9.01931  29
   3   1  -2 92.7068 8.09935  22
   3   1  -2 104.711 7.81098  11
   3   1  -2 93.2371 7.95762   1
   3   1  -2 98.6948 7.72684   9
   3   1  -2 95.7101 8.58894   6
  -3  -1   2 88.4380 8.63924  20
  -3  -1   2 84.3323 8.38374  24
  -3  -1   2 90.2606 8.48384  10
  -3  -1   2 86.9000 8.06651   7
  -3  -1   2 81.5927 8.42654   1
   2   1  -2 108.911 8.07676   1
   2   1  -2 94.3799 8.21225   6
   2   1  -2 96.1759 8.59775  15
   2   1  -2 113.118 8.49453  20
   2   1  -2 100.170 8.20723  29
  -2  -1   2 90.0019 8.61058   6
  -2  -1   2 92.6916 8.06654  10
  -2  -1   2 92.5874 8.15739  29
  -2  -1   2 98.5629 8.19391  24
   1   1  -2 180.945 12.3015  20
   1   1  -2 186.752 12.5693   1
   1   1  -2 149.919 12.8642  15
   1   1  -2 162.942 12.5201  29
  -1  -1   2 163.031 12.2980  20
  -1  -1   2 165.087 12.2258  10
  -1  -1   2 136.673 12.7724  29
  -1  -1   2 181.303 12.3197  24
  -1  -1   2 162.739 12.8072   5
   0   1  -2 9.46449 2.06034  25
   0   1  -2 8.97692 1.71334   1
   0   1  -2 7.95822 2.50694  15
   0  -1   2 10.6434 2.58893  14
   0  -1   2 11.0546 2.50032  29
   0  -1   2 9.99472 1.07057  10
   0  -1   2 7.31950 2.38469   5
   0  -1   2 8.73604 1.06355  20
  -1   1  -2 594.284 44.6208   1
  -1   1  -2 614.885 44.4994  25
  -1   1  -2 583.898 44.6215  10
  -1   1  -2 618.689 45.2123  18
   1  -1   2 595.685 45.0813   5
   1  -1   2 599.535 45.1128  22
   1  -1   2 690.152 44.8246  20
   1  -1   2 649.479 44.7541  29
   1  -1   2 617.428 44.7907  14
  -2   1  -2 1.05222 1.74305  18
  -2   1  -2 -0.5357 3.30872  29
  -2   1  -2 3.37211 2.33268  11
  -2   1  -2 2.07399 1.98284   1
  -2   1  -2 4.02646 2.17715  24
  -2   1  -2 2.00048 1.95940  10
   2  -1   2 1.47647 1.41294  14
   2  -1   2 2.15580 2.41349  20
   2  -1   2 0.62352 1.52438  22
   2  -1   2 3.69603 2.38011   5
   2  -1   2 -0.5508 2.21709  29
  -3   1  -2 -6.8791 7.77054  29
  -3   1  -2 1.84596 2.69199   1
  -3   1  -2 3.18878 2.03530  18
  -3   1  -2 8.28268 2.63093  11
  -3   1  -2 4.69721 2.82188  24
  -3   1  -2 -1.3158 2.93202  10
   3  -1   2 5.92846 2.46568   9
   3  -1   2 4.00598 2.58087  21
   3  -1   2 4.55717 3.70211  17
   3  -1   2 1.63815 1.95446  14
   3  -1   2 1.05566 1.79578   3
   3  -1   2 2.88570 1.86485  22
   3  -1   2 6.14361 2.92559   2
  -4   1  -2 5.45328 4.83798  10
  -4   1  -2 -0.3138 3.59198  24
  -4   1  -2 2.92657 2.87992  11
  -4   1  -2 1.54867 2.85710   7
  -4   1  -2 0.92086 3.34456   1
  -4   1  -2 0.34075 2.87463  18
   4  -1   2 0.45509 3.42376  14
   4  -1   2 1.69164 2.46589  22
   4  -1   2 6.28463 2.13022   2
   4  -1   2 3.65743 2.21797   9
  -5   1  -2 13.4563 5.28578   1
  -5   1  -2 8.92977 3.33791   7
  -5   1  -2 11.2387 5.03656   2
  -5   1  -2 7.79422 5.11110  18
  -5   1  -2 16.6121 3.90755  11
  -5   1  -2 15.1330 6.59559  24
   5  -1   2 15.9252 6.33791   5
   5  -1   2 18.0142 6.39086  22
   5  -1   2 8.72240 2.63905   9
   5  -1   2 9.88417 2.37262   2
  -6   1  -2 9.77979 6.75027  11
  -6   1  -2 13.3320 9.57619  18
  -6   1  -2 3.88836 3.13329   7
  -6   1  -2 -13.667 10.6020  24
   6  -1   2 6.76775 6.55348  22
   6  -1   2 0.87373 2.16226   9
   6  -1   2 13.9241 3.95201  16
   6  -1   2 -5.2724 7.12057   5
   6  -1   2 4.63395 1.86269   2
   6  -1   2 3.55894 2.93761  17
  -7   1  -2 -4.4380 3.53970   2
  -7   1  -2 -1.7356 2.83682   7
   7  -1   2 0.50372 2.13309   9
   7  -1   2 -0.1823 1.35075   2
   7   0  -2 22.1425 2.72801  16
  -7   0   2 21.0983 4.05699   7
   6   0  -2 8.33607 2.51845   2
  -6   0   2 7.88919 7.45050  24
  -6   0   2 3.25977 3.48002   7
   5   0  -2 15.7144 5.04925  11
   5   0  -2 3.56680 2.70695   2
   5   0  -2 3.51100 2.56630  16
   5   0  -2 3.58321 3.05132  22
   5   0  -2 1.69210 1.91579   9
  -5   0   2 5.84934 3.99032   2
  -5   0   2 11.7948 8.11761  20
  -5   0   2 6.02817 5.63227  11
  -5   0   2 4.21298 4.40946  24
  -5   0   2 -1.0735 3.22084   7
  -5   0   2 5.10524 8.34249  10
  -5   0   2 8.99892 6.98035   1
  -5   0   2 0.53358 4.91425  18
   4   0  -2 1556.15 100.031   6
   4   0  -2 1180.02 97.7165   2
   4   0  -2 1240.17 97.6898  11
   4   0  -2 1419.28 98.0563   9
   4   0  -2 1517.76 99.8110  22
   4   0  -2 1281.22 97.8833  16
   4   0  -2 1339.73 98.2869   1
  -4   0   2 1404.22 98.7746   7
  -4   0   2 1402.59 99.8956  10
  -4   0   2 1476.80 100.947  20
  -4   0   2 1376.73 98.2418  11
  -4   0   2 1224.19 99.6095  24
  -4   0   2 1307.76 98.1773   2
   3   0  -2 31.0557 4.20695   1
   3   0  -2 36.4071 5.79946  29
   3   0  -2 41.2252 4.26010  22
   3   0  -2 40.1620 4.03340  11
   3   0  -2 40.6458 5.05184   6
   3   0  -2 41.9052 4.01803   9
  -3   0   2 44.9698 4.73647   7
  -3   0   2 44.5629 4.55423  11
  -3   0   2 43.1367 5.00812  24
  -3   0   2 30.1746 4.93493  10
  -3   0   2 27.1207 7.28879  29
  -3   0   2 35.3684 5.06731  20
  -3   0   2 35.8115 4.61069   1
   2   0  -2 117.930 8.83681  22
   2   0  -2 115.096 9.16615  29
   2   0  -2 116.470 9.14582   6
   2   0  -2 117.944 9.73336  20
   2   0  -2 109.572 8.88785   1
   2   0  -2 112.440 9.88719  15
  -2   0   2 94.9106 9.10241  24
  -2   0   2 118.540 9.45944   6
  -2   0   2 97.9282 9.27284  20
  -2   0   2 114.428 9.07088   1
  -2   0   2 101.856 9.03959  29
  -2   0   2 106.572 9.11870  10
   1   0  -2 863.239 62.8321  20
   1   0  -2 856.760 62.6973   1
   1   0  -2 919.166 62.7585  29
   1   0  -2 842.070 62.6032   6
   1   0  -2 846.774 62.7487  25
   1   0  -2 837.981 63.1334  15
  -1   0   2 885.006 62.6731  10
  -1   0   2 954.034 62.7687   6
  -1   0   2 759.203 62.7067  20
  -1   0   2 840.564 62.6948  29
  -1   0   2 968.358 62.8104  24
  -1   0   2 912.486 62.8501   1
   0   0  -2 193.117 14.9981  25
   0   0  -2 210.061 15.9477  15
   0   0  -2 196.945 15.2333  18
   0   0   2 203.583 14.9446  29
   0   0   2 210.144 14.7814   5
  -1   0  -2 0.32796 1.38273  15
  -1   0  -2 -0.4853 1.10156  25
  -1   0  -2 -0.3285 1.43546   1
  -1   0  -2 0.27985 1.46522  18
   1   0   2 1.86245 1.12750  29
   1   0   2 -0.3325 1.34269  22
   1   0   2 0.98376 1.54153   1
   1   0   2 -0.5275 1.19549  14
  -2   0  -2 69.3037 5.93749  25
  -2   0  -2 62.3941 6.67191  24
  -2   0  -2 74.6805 6.97868   6
  -2   0  -2 61.4424 6.63667  18
  -2   0  -2 80.1667 6.66005  29
   2   0   2 68.5320 6.51735  22
   2   0   2 71.2001 6.08161  14
   2   0   2 70.2592 6.97941  20
   2   0   2 69.7619 5.97764   1
   2   0   2 71.4664 6.34613  29
  -3   0  -2 73.4885 8.35756  24
  -3   0  -2 91.2278 8.56579  18
  -3   0  -2 90.8997 7.82498   1
  -3   0  -2 80.1727 8.35162  10
  -3   0  -2 70.6159 9.75750  29
   3   0   2 84.9925 8.00534  22
   3   0   2 82.3946 7.08853   9
   3   0   2 87.6014 7.36623  14
   3   0   2 87.3129 8.54966  29
   3   0   2 81.6028 7.53554  21
   3   0   2 92.4724 7.32986  11
   3   0   2 84.8865 8.46411   1
  -4   0  -2 205.070 15.5051   1
  -4   0  -2 176.349 14.4461   2
  -4   0  -2 211.372 17.0015  24
  -4   0  -2 196.249 16.6124  18
  -4   0  -2 162.332 14.6020  11
  -4   0  -2 208.898 15.2860   7
   4   0   2 174.768 14.7247  14
   4   0   2 171.341 14.7481  17
   4   0   2 184.707 14.6907  11
   4   0   2 173.350 14.7008   1
   4   0   2 188.747 15.8681  22
   4   0   2 192.516 14.6278   9
   4   0   2 180.860 14.3218   2
  -5   0  -2 6.21405 3.72142   2
  -5   0  -2 3.39843 4.06820  11
  -5   0  -2 2.74660 3.42836   7
  -5   0  -2 -3.8547 4.27525  18
  -5   0  -2 0.49351 5.94922   1
  -5   0  -2 0.93915 4.54130  24
   5   0   2 10.5365 4.10179  11
   5   0   2 -4.2294 4.11641  14
   5   0   2 -1.4086 2.24226   9
   5   0   2 -2.2901 3.21027  22
  -6   0  -2 4.86893 7.06381  24
  -6   0  -2 30.4045 12.5900  18
  -6   0  -2 28.3657 4.99324   7
  -6   0  -2 14.9405 3.83610   2
   6   0   2 15.5894 2.92480   9
   6   0   2 17.3046 2.56310   2
   6   0   2 15.0249 6.07702  22
   6   0   2 19.0828 2.88755  16
  -7   0  -2 41.2888 4.65063   2
   7   0   2 42.2838 3.93487   2
   7   0   2 37.2751 3.62102  16
   7  -1  -2 2.64925 1.31194  16
   7  -1  -2 0.36480 1.61734   9
   7  -1  -2 0.46492 1.17514   2
  -7   1   2 1.00647 2.95267   7
  -7   1   2 -3.2684 2.88427   2
   6  -1  -2 5.05459 2.35189  16
   6  -1  -2 1.44196 1.88576   2
   6  -1  -2 1.31141 1.80668   9
  -6   1   2 -3.3593 8.12529  24
  -6   1   2 11.9026 4.95062  11
  -6   1   2 3.60004 3.23210   7
   5  -1  -2 10.1905 2.17506   2
   5  -1  -2 11.7807 2.51854   9
   5  -1  -2 9.07600 2.70190  16
  -5   1   2 8.00132 5.55518  24
  -5   1   2 6.42421 3.75317  11
  -5   1   2 3.46956 7.59987  10
  -5   1   2 -1.5458 4.90195   1
  -5   1   2 13.5753 4.85138   2
  -5   1   2 9.72068 3.84574   7
   4  -1  -2 93.7872 8.58158  22
   4  -1  -2 84.5367 7.14843   2
   4  -1  -2 80.0235 7.12481   9
   4  -1  -2 76.5445 7.12638  16
   4  -1  -2 94.3053 6.93482  27
  -4   1   2 74.2337 9.13868  24
  -4   1   2 74.8137 9.46984  10
  -4   1   2 86.7838 11.0449  20
  -4   1   2 90.2962 9.20111  18
  -4   1   2 87.7856 8.42816   1
  -4   1   2 75.1897 8.21569   2
  -4   1   2 67.7436 7.90844   7
   3  -1  -2 5.10621 2.43414   6
   3  -1  -2 -2.8991 1.87694   9
   3  -1  -2 -0.8256 2.52187  25
   3  -1  -2 -2.8111 1.56617  22
  -3   1   2 -1.5642 2.44919  20
  -3   1   2 -0.0951 2.77574  10
  -3   1   2 2.56021 3.12558   7
  -3   1   2 0.40378 2.03505  24
  -3   1   2 1.74000 2.92667  11
  -3   1   2 -0.9711 2.60717   1
   2  -1  -2 37.1034 4.51226  29
   2  -1  -2 35.1211 3.61011  25
   2  -1  -2 34.0987 3.63950  22
   2  -1  -2 38.0234 3.50642   9
   2  -1  -2 32.5815 4.01314   6
  -2   1   2 32.5398 5.16516   6
  -2   1   2 37.8676 4.36676  11
  -2   1   2 36.9339 4.48747  20
  -2   1   2 34.6541 4.71814  29
  -2   1   2 33.1296 4.38953  10
  -2   1   2 35.3390 4.45304  24
   1  -1  -2 14.0729 2.76919  20
   1  -1  -2 12.4555 1.81809  25
   1  -1  -2 10.0896 1.94885   6
   1  -1  -2 12.6443 1.61365  22
   1  -1  -2 8.90066 3.57787  15
   1  -1  -2 8.13967 2.34757  29
  -1   1   2 11.5894 2.42442  20
  -1   1   2 12.3584 2.04531   6
  -1   1   2 11.8351 2.41876  10
  -1   1   2 9.36111 2.34563   1
  -1   1   2 10.6328 2.29749  29
   0  -1  -2 110.130 8.42782  25
   0  -1  -2 114.830 8.45497  29
   0  -1  -2 110.090 8.05432   6
   0  -1  -2 111.458 9.19357  15
   0  -1  -2 112.146 8.11316   5
   0   1   2 107.841 8.40136  29
   0   1   2 106.970 8.43120  14
  -1  -1  -2 2.41714 0.85198   6
  -1  -1  -2 1.81715 1.25009  15
  -1  -1  -2 2.10213 1.58009  18
  -1  -1  -2 4.05953 1.56957  25
   1   1   2 4.70742 1.18175  29
   1   1   2 3.93599 1.20574   1
   1   1   2 4.14507 1.40893  14
   1   1   2 2.11870 1.05534  22
  -2  -1  -2 12.4784 2.63501   6
  -2  -1  -2 8.41490 3.24907  24
  -2  -1  -2 9.19997 2.24230  29
  -2  -1  -2 12.6328 2.30136  15
  -2  -1  -2 9.38699 2.91173  18
   2   1   2 9.97337 2.64844  22
   2   1   2 10.4879 1.96982   1
   2   1   2 11.0923 2.32301  14
   2   1   2 10.4616 3.16080  20
   2   1   2 6.99109 2.35519  29
  -3  -1  -2 221.582 17.9578  18
  -3  -1  -2 210.091 17.2534   7
  -3  -1  -2 193.449 17.9762  24
  -3  -1  -2 213.796 17.4888   8
   3   1   2 230.452 17.6960  22
   3   1   2 239.709 17.1887   1
   3   1   2 221.956 17.0203  11
   3   1   2 258.843 17.5314  14
   3   1   2 236.443 17.7240  29
  -4  -1  -2 4.10436 2.55877  15
  -4  -1  -2 -5.7480 9.10067   1
  -4  -1  -2 10.1546 3.59421   2
  -4  -1  -2 2.07188 2.15978  18
   4   1   2 1.86190 1.95313  14
   4   1   2 6.26822 2.38767   9
   4   1   2 3.49569 2.20475   1
   4   1   2 4.11699 2.27510  11
  -5  -1  -2 19.2908 4.08450   7
  -5  -1  -2 18.1906 6.47883  18
  -5  -1  -2 21.1807 3.90541   2
  -5  -1  -2 17.1791 5.73530  24
   5   1   2 15.1134 3.72717   1
   5   1   2 18.5262 4.98891  22
   5   1   2 22.0339 3.64111   2
   5   1   2 22.4963 3.40287  11
   5   1   2 21.4895 3.23574   9
   5   1   2 23.0191 4.70333  14
  -6  -1  -2 32.1934 9.45628  24
  -6  -1  -2 27.3871 5.44750   7
  -6  -1  -2 41.0687 11.5995  18
  -6  -1  -2 29.1408 4.04006   2
   6   1   2 36.0221 7.99743  14
   6   1   2 23.9619 4.14120  11
   6   1   2 24.9468 3.78083   2
   6   1   2 25.5104 3.99825   9
   6   1   2 35.4859 8.20499  22
  -7  -1  -2 3.90531 3.54023   7
  -7  -1  -2 -0.1263 2.64448   2
   7   1   2 0.13568 8.19792  22
   7   1   2 0.43143 2.32252   2
   7   1   2 3.73820 1.93585  16
   7   1   2 3.40662 1.89199   9
  -8  -1  -2 1.18374 1.91634   2
  -8  -1  -2 2.81978 3.03658   7
   8   1   2 -0.2155 1.45216   9
   8   1   2 5.07854 1.94701   2
   8   1   2 0.68046 1.38631  16
   7  -2  -2 4.20625 1.16988   2
   7  -2  -2 1.66234 1.61387   9
   7  -2  -2 2.74170 1.72929  16
  -7   2   2 5.62511 3.74828   7
   6  -2  -2 6.20017 1.97871  16
   6  -2  -2 6.33234 1.62904   2
   6  -2  -2 9.99101 2.26065   9
  -6   2   2 7.31110 3.97296  11
  -6   2   2 10.2242 4.03464   7
   5  -2  -2 2.93526 1.88869   2
   5  -2  -2 6.99338 2.32314  16
   5  -2  -2 1.65095 6.43951   5
   5  -2  -2 0.92541 2.18437   9
  -5   2   2 -2.3768 5.90127  18
  -5   2   2 0.81295 10.3588  10
  -5   2   2 -2.7253 4.42501   7
  -5   2   2 3.70962 3.43288  11
  -5   2   2 5.64876 6.44857  24
  -5   2   2 1.46358 4.79284   1
   4  -2  -2 16.9867 2.48342   2
   4  -2  -2 16.3895 2.95911  27
   4  -2  -2 14.2634 2.66222   9
   4  -2  -2 13.2149 2.83143  16
  -4   2   2 7.49637 6.92330  20
  -4   2   2 18.5650 5.48496  24
  -4   2   2 7.12495 5.45978  10
  -4   2   2 14.2074 4.24388   7
  -4   2   2 15.5216 5.47371   1
  -4   2   2 7.92136 3.36369  11
   3  -2  -2 4.34542 2.35334   2
   3  -2  -2 1.45929 1.99680   9
   3  -2  -2 0.14681 2.65112  22
  -3   2   2 3.43986 3.28094  10
  -3   2   2 4.41494 3.75881   7
  -3   2   2 -0.2198 2.82943  11
  -3   2   2 3.91584 3.55927  20
  -3   2   2 2.39421 2.63896   1
  -3   2   2 4.21908 3.08030  24
   2  -2  -2 104.384 8.05616   9
   2  -2  -2 99.1813 8.18900  22
  -2   2   2 107.180 9.45555  20
  -2   2   2 100.585 8.51548  11
  -2   2   2 84.8787 9.48694  29
  -2   2   2 107.972 8.68579   1
  -2   2   2 91.0350 8.76967  10
  -2   2   2 82.0857 8.67013   7
  -2   2   2 92.5574 8.71481  24
   1  -2  -2 6.85389 2.61826   5
   1  -2  -2 3.71357 1.68798  29
   1  -2  -2 5.81004 1.85273  22
  -1   2   2 4.76998 1.97747  20
  -1   2   2 4.70799 1.91786   1
  -1   2   2 6.79738 1.91264   6
  -1   2   2 3.32993 1.57292  29
  -1   2   2 5.67351 2.24488  10
   0  -2  -2 559.479 41.9532   5
   0  -2  -2 596.624 41.6735  29
   0  -2  -2 620.105 41.8015  25
   0   2   2 518.531 42.1691  20
   0   2   2 587.137 41.4706   6
   0   2   2 594.915 41.6226  14
  -1  -2  -2 87.3880 7.03265   5
   1   2   2 80.9058 6.74529  29
   1   2   2 90.8315 6.78438  22
   1   2   2 83.9754 6.73566  29
   1   2   2 90.3029 6.41133   6
   1   2   2 90.9871 7.13987  14
  -2  -2  -2 556.961 36.8659   6
  -2  -2  -2 447.025 37.3668  18
   2   2   2 530.711 37.0944  22
   2   2   2 478.828 36.8308  29
   2   2   2 522.809 36.7762   1
   2   2   2 512.059 36.9100   6
  -3  -2  -2 1.43424 3.11987  29
  -3  -2  -2 4.95027 3.23662   8
  -3  -2  -2 1.56541 1.72101  18
   3   2   2 1.06263 1.76644   6
   3   2   2 1.80070 1.56821  22
   3   2   2 2.37720 2.15669  29
   3   2   2 2.80286 1.50562   1
   3   2   2 2.60361 2.41853  11
  -4  -2  -2 38.1163 5.34125  18
  -4  -2  -2 37.3281 6.40876  24
  -4  -2  -2 44.1584 4.73030   2
  -4  -2  -2 47.1134 5.34863   7
   4   2   2 44.6088 5.16315  14
   4   2   2 41.9357 6.30089   6
   4   2   2 37.8589 4.43805   1
   4   2   2 35.9233 5.26359  22
   4   2   2 47.4161 4.52822  11
  -5  -2  -2 -0.8070 3.42191   7
   5   2   2 2.95615 2.68619  22
   5   2   2 -0.6050 2.40715  11
   5   2   2 -0.3631 2.10024   1
   5   2   2 -0.8624 2.01156   9
   5   2   2 -1.3849 2.47482  14
  -6  -2  -2 14.3128 4.14158   7
  -6  -2  -2 9.66401 3.10124   2
   6   2   2 12.0898 2.85082   9
   6   2   2 10.6682 4.33843  22
   6   2   2 10.9691 4.68663  14
   6   2   2 10.9389 2.96828  11
  -7  -2  -2 -1.5673 3.77160   7
  -7  -2  -2 3.82054 3.78243   2
   7   2   2 -8.0316 7.10273  22
   7   2   2 -1.5160 1.90546   9
   7   2   2 -1.3298 3.40278   2
   7   2   2 -1.3792 2.95033  11
  -8  -2  -2 0.43319 1.87403   2
  -8  -2  -2 -0.8926 3.39834   7
   8   2   2 -0.1880 1.89689   9
   8   2   2 0.54658 1.19962  16
   8   2   2 1.22876 2.67245   2
   6  -3  -2 4.18513 1.26567   2
   6  -3  -2 1.64286 2.03062  16
   6  -3  -2 -1.8238 1.69764   9
  -6   3   2 6.69763 3.82407   7
  -6   3   2 -0.8230 3.86656  11
   5  -3  -2 12.2521 2.55286   9
   5  -3  -2 7.71757 4.01396   4
   5  -3  -2 11.3727 2.06993   2
   5  -3  -2 22.0289 10.6648   5
   5  -3  -2 12.1447 2.98237  16
   5  -3  -2 11.9265 2.45033  27
  -5   3   2 1.19104 7.17711  18
  -5   3   2 10.5214 4.27894   7
  -5   3   2 9.82275 5.36845   1
  -5   3   2 6.97653 3.28561  11
  -5   3   2 9.39025 7.87085  24
   4  -3  -2 31.3131 3.26348   2
   4  -3  -2 25.8524 3.67869  16
   4  -3  -2 35.8904 3.35007  27
   4  -3  -2 23.9381 8.49339   5
   4  -3  -2 32.7528 3.79001   9
   4  -3  -2 32.8696 3.53330   4
  -4   3   2 31.1582 4.61608  11
  -4   3   2 30.6052 4.76276   7
  -4   3   2 23.2920 7.10118  24
  -4   3   2 20.2774 7.59270  18
  -4   3   2 28.0601 10.4248  10
  -4   3   2 21.0459 4.99935   1
   3  -3  -2 -1.4770 2.51987   4
   3  -3  -2 1.18025 2.06869  27
   3  -3  -2 1.21793 2.08337   9
   3  -3  -2 -2.3388 4.00681   5
  -3   3   2 -3.7073 5.09972  20
  -3   3   2 2.18757 3.04347  11
  -3   3   2 -1.2293 3.11430  24
  -3   3   2 0.11171 3.11367   1
  -3   3   2 -1.5021 4.61801  10
  -3   3   2 5.39258 4.02224   7
   2  -3  -2 68.0521 5.98137  16
   2  -3  -2 69.6886 6.42634  17
   2  -3  -2 68.6993 5.95519   9
   2  -3  -2 71.9797 5.97183   4
   2  -3  -2 69.0230 7.25205   5
   2  -3  -2 67.9300 5.73573   2
   2  -3  -2 66.4295 5.73607  27
   2  -3  -2 60.8203 5.39480  28
  -2   3   2 70.6317 8.24296  20
  -2   3   2 71.0385 6.70257  11
  -2   3   2 60.4705 7.36356  10
  -2   3   2 71.1330 7.04346   7
  -2   3   2 61.3647 6.59092   1
  -2   3   2 50.9530 7.84046  24
   1  -3  -2 5.14011 2.29153   5
  -1   3   2 1.13035 2.05497  24
  -1   3   2 0.91311 2.01717  10
  -1   3   2 -5.2773 3.53860   6
  -1   3   2 1.88195 1.99547   1
  -1   3   2 3.37302 1.91620  20
   0  -3  -2 197.560 16.2408   5
   0  -3  -2 196.345 15.5589   9
   0   3   2 211.631 15.2769  14
   0   3   2 195.639 15.2864  29
   0   3   2 212.272 15.7192   6
   0   3   2 234.926 15.5419   1
  -1  -3  -2 23.5561 3.33822   5
   1   3   2 25.7204 2.18846  29
   1   3   2 24.3303 2.26018   6
   1   3   2 23.2140 2.29968  29
   1   3   2 22.9487 2.61933  22
   2   3   2 0.95748 1.15711   6
   2   3   2 2.00178 1.57366   1
   2   3   2 0.00735 1.30462  29
   2   3   2 1.64645 1.32187  22
   3   3   2 92.1691 8.13922   6
   3   3   2 91.0269 7.57495   1
   3   3   2 94.4223 7.75145  11
   3   3   2 92.8083 8.16125  22
  -4  -3  -2 154.860 11.6892   7
  -4  -3  -2 131.721 11.0759   2
  -4  -3  -2 134.097 11.0365  12
   4   3   2 140.098 12.7965  22
   4   3   2 129.186 12.4206   6
   4   3   2 156.505 11.3625  11
   4   3   2 124.788 11.1038   1
  -5  -3  -2 18.8943 3.28323   2
  -5  -3  -2 12.9278 4.35977   7
   5   3   2 14.8017 4.01705  14
   5   3   2 15.6184 4.81422  22
   5   3   2 16.0648 2.99628  11
   5   3   2 9.99551 2.72765   1
  -6  -3  -2 8.37484 4.10094   7
  -6  -3  -2 4.03935 2.96164   2
   6   3   2 5.37212 2.90830   1
   6   3   2 6.67318 2.62350   9
   6   3   2 11.8079 3.02238  11
   6   3   2 6.88566 4.30891  14
   6   3   2 5.67091 4.44802  22
  -7  -3  -2 29.9440 4.31586   2
  -7  -3  -2 42.2530 5.05443   7
   7   3   2 37.1856 4.40053   9
   7   3   2 37.4714 4.16897  11
   7   3   2 56.5642 10.4974  22
   7   3   2 31.2064 5.31269   1
  -8  -3  -2 14.1539 4.22556   7
  -8  -3  -2 7.46100 1.89198   2
   8   3   2 8.15457 2.05481   9
   8   3   2 6.58836 1.52334  16
   5  -4  -2 10.4248 2.01268   4
   5  -4  -2 9.17005 1.77426  27
   5  -4  -2 6.98226 1.52050   2
  -5   4   2 4.34640 5.06711   1
  -5   4   2 16.8443 5.64334   7
  -5   4   2 10.1232 3.60234  11
   4  -4  -2 4.47856 1.84412   2
   4  -4  -2 -0.0027 2.48019   9
   4  -4  -2 2.77294 1.59343  27
   4  -4  -2 1.85951 9.16972   5
  -4   4   2 -0.4590 3.10017  11
  -4   4   2 -1.0679 4.43348   7
  -4   4   2 -6.5237 8.87125  24
  -4   4   2 2.91398 5.88373  18
  -4   4   2 -2.8278 3.86447   1
   3  -4  -2 18.6460 2.79772   2
   3  -4  -2 26.2199 3.52657  16
   3  -4  -2 21.9893 3.16277   9
   3  -4  -2 38.0766 7.94603   5
   3  -4  -2 26.2026 2.70257  27
   3  -4  -2 24.7144 3.16130   4
  -3   4   2 33.5037 5.38745   7
  -3   4   2 19.6186 6.91820  24
  -3   4   2 20.8853 6.75492  18
  -3   4   2 20.2723 4.29877  11
  -3   4   2 16.8272 4.46252   1
  -3   4   2 6.15391 7.58841  10
   2  -4  -2 28.3964 3.91749  27
   2  -4  -2 20.4848 2.63528  28
   2  -4  -2 26.0342 5.60098   5
   2  -4  -2 19.9216 3.06794   9
   2  -4  -2 22.9082 3.75053  16
  -2   4   2 17.4030 3.89854   1
  -2   4   2 20.8255 4.23502  11
  -2   4   2 19.3052 5.56480   7
  -2   4   2 22.2992 8.61324  20
  -2   4   2 17.5130 5.83866  10
   1  -4  -2 67.6643 7.63702   5
   1  -4  -2 65.1719 6.07361   4
   1  -4  -2 66.6485 6.01153  27
   1  -4  -2 66.6134 6.49264  16
   1  -4  -2 75.1937 5.82023   2
   1  -4  -2 68.9107 5.65047  28
   1  -4  -2 71.8542 6.15785   9
  -1   4   2 67.2174 9.40752  24
  -1   4   2 68.2675 8.30535  20
  -1   4   2 71.4773 6.51153   1
   0  -4  -2 4.04530 2.34501   5
   0  -4  -2 7.54172 2.53098   4
   0   4   2 4.09355 1.97796  20
   0   4   2 -0.0446 2.14159  10
   0   4   2 2.68859 2.48845   1
  -1  -4  -2 35.2261 4.85454   5
   1   4   2 42.5734 4.93929  20
   1   4   2 43.5925 4.48248   6
   1   4   2 37.5412 4.09340  14
  -2  -4  -2 115.880 9.40131   5
   2   4   2 96.6255 9.04197   6
   2   4   2 100.517 8.59512  22
  -3  -4  -2 76.2909 6.86048  12
   3   4   2 68.8710 7.53336   6
   3   4   2 83.6825 7.42445  22
   3   4   2 87.1515 6.72206   1
  -4  -4  -2 8.85327 2.66913  12
   4   4   2 5.74845 3.15959  11
   4   4   2 2.01281 4.22842   6
   4   4   2 6.94563 2.24978   1
   4   4   2 1.90001 2.30583  22
  -5  -4  -2 3.51972 2.79374  12
  -5  -4  -2 1.45678 2.82040   2
   5   4   2 7.53199 9.28772   6
   5   4   2 -0.2258 2.62409  14
   5   4   2 2.17361 2.57790  11
   5   4   2 1.27009 2.18232   1
   5   4   2 -1.8133 3.43122  22
  -6  -4  -2 4.70555 2.73046   2
  -6  -4  -2 -2.6041 4.78306   7
  -6  -4  -2 3.84455 3.06968  12
   6   4   2 0.22284 3.74545  11
   6   4   2 -0.5100 3.29146   9
   6   4   2 -0.1177 2.57746   1
   6   4   2 4.29011 3.89792  14
   6   4   2 0.28010 4.93814  22
  -7  -4  -2 0.62007 2.82082  12
  -7  -4  -2 0.37901 2.24354   2
  -7  -4  -2 0.55144 7.62630   7
   7   4   2 2.69262 1.95463  11
   7   4   2 0.90646 7.50362  22
   7   4   2 1.83513 2.33271   9
   7   4   2 2.15221 3.16608   1
   7   4   2 4.92055 5.86067  14
  -8  -4  -2 24.4232 9.44975   7
  -8  -4  -2 5.13627 1.87125   2
   8   4   2 3.93827 2.00859  11
   8   4   2 0.84379 1.96091   9
   8   4   2 1.97580 1.41895  16
   5  -5  -2 -0.1064 1.56114   4
  -5   5   2 1.09671 2.72038  11
   4  -5  -2 5.98916 1.34444  27
   4  -5  -2 5.14341 1.82833   4
  -4   5   2 3.22059 4.57280   1
  -4   5   2 5.68642 3.21349  11
   3  -5  -2 7.01937 2.02520   4
   3  -5  -2 1.29824 2.76626   9
   3  -5  -2 4.84070 1.62237  27
   3  -5  -2 3.56914 12.8127   5
  -3   5   2 5.91880 10.4280  24
  -3   5   2 -3.2508 5.22066  18
  -3   5   2 4.10065 3.77923   1
  -3   5   2 7.59407 3.30546  11
   2  -5  -2 10.6221 2.05790  27
   2  -5  -2 7.99193 6.29304   5
   2  -5  -2 4.18996 3.03995   9
   2  -5  -2 11.0848 2.39408   4
  -2   5   2 -1.8266 9.73931  10
  -2   5   2 7.21890 3.94956  11
  -2   5   2 4.28612 4.32699  18
  -2   5   2 20.5096 7.86581  24
  -2   5   2 5.31039 3.23233   1
   1  -5  -2 22.6864 2.96399   4
   1  -5  -2 21.7140 4.03107  12
   1  -5  -2 24.4157 6.65455   5
   1  -5  -2 22.6147 2.83535  27
   1  -5  -2 17.9963 2.37041  28
  -1   5   2 17.0241 4.25900   1
  -1   5   2 20.1078 6.04954  10
  -1   5   2 31.1010 6.26881  11
  -1   5   2 31.2614 11.4735  20
   0  -5  -2 63.9774 7.33923   5
   0  -5  -2 54.6936 4.95658  27
   0  -5  -2 42.9908 5.21911  12
   0  -5  -2 48.6685 4.89699   4
   0  -5  -2 60.4276 4.60417  28
   0   5   2 61.4544 5.75603   1
   0   5   2 71.0636 9.82391  20
   0   5   2 40.1504 6.56334  10
   0   5   2 38.6468 6.20061  24
  -1  -5  -2 31.2524 3.38580   4
  -1  -5  -2 26.2789 7.53137   5
  -1  -5  -2 25.1589 3.54602  27
  -1  -5  -2 26.7243 3.39559  28
  -1  -5  -2 36.3219 3.70983   3
   1   5   2 21.0260 5.85291  20
  -2  -5  -2 9.32544 2.55198   3
  -2  -5  -2 8.51496 2.41498   4
  -2  -5  -2 7.55362 2.72516  12
  -3  -5  -2 6.99020 2.48997  12
   3   5   2 5.37116 2.51650   1
   3   5   2 1.37922 2.70972  22
  -4  -5  -2 13.0248 2.76774   4
  -4  -5  -2 2.23284 2.53233  12
   4   5   2 -0.4042 3.36487  22
   4   5   2 3.17405 2.31645   1
  -5  -5  -2 28.7650 3.58564  12
  -5  -5  -2 28.8493 5.64891   4
   5   5   2 31.9213 6.78035  22
   5   5   2 22.9556 5.59731  14
   5   5   2 22.3808 4.02401  11
   5   5   2 26.4051 3.76361   1
  -6  -5  -2 8.55507 2.58460  12
   6   5   2 1.89555 6.70552  22
   6   5   2 4.06816 4.55976  14
   6   5   2 3.01242 2.88698   9
   6   5   2 7.53665 3.19243   1
  -7  -5  -2 2.53047 2.15197  12
  -7  -5  -2 3.04299 2.17532   2
   7   5   2 3.76699 2.08552  11
   7   5   2 4.32308 3.00624   1
   7   5   2 6.82165 2.71330   9
  -8  -5  -2 1.63702 0.86330   3
   8   5   2 2.25057 1.32259  16
   8   5   2 1.54902 1.62093  11
   8   5   2 3.58353 2.64220   9
   4  -6  -2 1.60068 1.47581  27
   4  -6  -2 0.31704 1.10491   4
  -4   6   2 -0.8818 2.63840  11
   3  -6  -2 0.48638 1.11809  27
   3  -6  -2 -0.8498 1.24044   4
  -3   6   2 -0.9034 3.15835  11
  -3   6   2 -1.3977 4.18984   1
   2  -6  -2 -5.0032 10.5089   5
   2  -6  -2 2.72790 1.72847  27
  -2   6   2 -0.5275 3.92683  11
  -2   6   2 0.81100 3.70654   1
  -2   6   2 -2.4563 5.94665  18
   1  -6  -2 22.7334 3.79759  12
   1  -6  -2 12.9792 2.26400  27
   1  -6  -2 16.3727 2.03029  28
  -1   6   2 7.35429 5.56196  18
  -1   6   2 24.9028 7.30845  11
  -1   6   2 5.67654 3.85802   1
   0  -6  -2 43.5052 4.22435   3
   0  -6  -2 44.5852 4.12083  28
   0  -6  -2 44.6355 4.46624  27
   0  -6  -2 47.3865 4.44644   4
   0  -6  -2 58.1460 9.45630   5
   0   6   2 29.4179 8.98852  24
   0   6   2 46.0878 6.26432   1
  -1  -6  -2 228.446 16.1561   4
  -1  -6  -2 194.549 15.5749   3
  -1  -6  -2 206.179 16.2595  12
  -1  -6  -2 206.306 16.0439  27
  -2  -6  -2 14.4571 2.86753  12
  -2  -6  -2 11.3293 5.17040   5
  -2  -6  -2 20.8633 2.66596   3
  -2  -6  -2 22.6366 3.17155  27
  -2  -6  -2 16.6256 2.66024   4
   2   6   2 11.0708 5.82695  10
  -3  -6  -2 38.3053 4.22198   3
  -3  -6  -2 47.1419 4.78998  12
  -3  -6  -2 52.0187 4.34196   4
   3   6   2 35.5638 6.83241  14
  -4  -6  -2 35.3496 4.28605  12
  -4  -6  -2 41.8673 4.02888   3
   4   6   2 46.1358 5.03478   1
   4   6   2 39.6502 7.00268  14
  -5  -6  -2 107.571 8.59046   3
   5   6   2 97.5372 13.9304  14
   5   6   2 102.187 9.28452   1
  -6  -6  -2 13.0851 2.60067   3
  -6  -6  -2 13.2666 2.94132  12
   6   6   2 9.49517 3.91387   9
   6   6   2 8.49552 2.94885  11
   6   6   2 0.29902 5.33011  14
   6   6   2 5.49524 3.09073   1
  -7  -6  -2 5.67726 1.89738  12
  -7  -6  -2 5.42421 1.47551   3
   7   6   2 6.09870 3.14102   1
   7   6   2 7.89035 4.12128   9
   7   6   2 11.3215 2.52774  11
   2  -7  -2 0.80560 1.17817   4
   2  -7  -2 1.63430 1.06790  27
  -2   7   2 -1.1739 4.61179   1
  -2   7   2 -0.4645 4.20748  11
   1  -7  -2 1.03394 1.44184   4
   1  -7  -2 1.30945 1.53456  27
  -1   7   2 -3.2527 5.63641   1
  -1   7   2 0.63714 6.27945  11
   0  -7  -2 8.76568 1.94541  27
   0  -7  -2 9.75005 1.85756   4
   0   7   2 17.3865 6.73667   1
  -1  -7  -2 -2.9693 8.94826   5
  -1  -7  -2 7.53178 1.87749  28
  -1  -7  -2 9.22349 2.36139   3
  -1  -7  -2 10.1678 2.85895  12
  -1  -7  -2 9.00257 2.20085  27
  -2  -7  -2 70.2068 5.77835  12
  -2  -7  -2 48.2873 5.20774  28
  -2  -7  -2 51.4123 5.12807   4
  -2  -7  -2 62.9741 6.40414   3
  -2  -7  -2 61.3963 5.37100  27
  -3  -7  -2 78.0298 6.53176  28
  -3  -7  -2 79.2203 6.54184   3
  -4  -7  -2 7.52177 2.29213  12
  -4  -7  -2 9.02541 2.43275   4
  -4  -7  -2 5.68622 2.07706   3
   4   7   2 6.26009 4.40932   1
  -5  -7  -2 20.8835 3.06849   3
   5   7   2 15.1727 5.89138  11
  -6  -7  -2 23.2852 2.64391   3
   6   7   2 29.2769 4.66248   1
   6   7   2 24.5261 4.15528  11
  -7  -7  -2 47.6395 4.16786   3
   7   7   2 57.3085 7.07548   1
   7   7   2 45.8565 4.70739  11
   1  -8  -2 -1.1716 0.99431  27
   1  -8  -2 -1.0803 0.85120   4
   0  -8  -2 0.06406 1.06538   4
   0  -8  -2 1.78149 1.25994  27
  -1  -8  -2 -0.9761 1.40811  28
  -1  -8  -2 1.48232 1.54353  27
  -1  -8  -2 -0.5576 1.17118   4
  -1  -8  -2 -0.2250 4.81531  12
  -2  -8  -2 3.09299 1.46636   4
  -2  -8  -2 1.57588 2.25243  12
  -2  -8  -2 -0.0562 1.68428   3
  -2  -8  -2 1.41760 1.92131  27
  -3  -8  -2 2.51352 2.03654  28
  -3  -8  -2 0.23959 2.03210  12
  -3  -8  -2 -0.8636 1.80206   3
  -4  -8  -2 0.36294 1.83575  12
  -4  -8  -2 -0.6939 1.34679   3
  -5  -8  -2 0.96898 1.15403   3
  -5  -8  -2 5.96179 1.74786  12
  -6  -8  -2 0.66631 0.97865   3
  -6  -8  -2 2.57166 1.61798  12
  -2  -9  -2 1.27697 1.88024  27
  -3  -9  -2 -0.4006 2.37687  12
  -4  -9  -2 5.14069 1.93644  12
  -4  -8   3 0.58917 3.38338  27
  -4  -8   3 -0.1466 0.73318   3
  -4  -8   3 0.48633 0.81253  28
  -3  -8   3 2.61563 0.96818   3
  -3  -8   3 0.91613 0.87091  28
  -3  -8   3 3.80672 1.53651  27
  -2  -8   3 0.16837 0.81508   3
  -2  -8   3 0.48496 0.82304  28
  -2  -8   3 1.17353 1.33924  27
  -1  -8   3 2.78295 0.83962  28
  -1  -8   3 2.76511 1.05627  27
  -1  -8   3 4.38955 0.90491   3
   6   7  -3 5.61167 2.07121  11
   6   7  -3 0.45142 1.97709  26
  -6  -7   3 4.95160 1.10179  28
  -6  -7   3 1.13681 0.96595   3
   5   7  -3 30.9774 4.10041  11
  -5  -7   3 23.5807 2.96669  12
  -5  -7   3 25.9517 2.73680   3
   4   7  -3 11.9614 3.48876  11
  -4  -7   3 9.12580 3.18492  12
  -4  -7   3 9.51946 2.10575  27
  -4  -7   3 7.16349 1.52094   3
   3   7  -3 10.8789 4.37129  11
   3   7  -3 8.25941 4.01879   1
  -3  -7   3 7.77733 1.55603   3
  -3  -7   3 6.72119 1.90076  27
  -3  -7   3 4.51419 1.34900  28
   2   7  -3 -1.4891 6.23963   1
  -2  -7   3 3.45604 1.33456   3
  -2  -7   3 0.28355 1.18326  28
  -2  -7   3 0.34156 1.63178  27
   1   7  -3 7.13318 4.79633   1
  -1  -7   3 2.74826 1.09007   3
  -1  -7   3 1.83085 1.65289  27
  -1  -7   3 2.11913 0.96904  28
  -1  -7   3 7.50408 12.5455   5
   0   7  -3 7.82500 4.31742  11
   0  -7   3 3.68136 1.11091   3
   0  -7   3 1.03672 0.94687  28
   0  -7   3 2.69211 1.52080  27
  -1   7  -3 -2.6001 5.00052   1
   1  -7   3 0.82194 1.22224  27
   1  -7   3 1.87878 0.98195  28
   1  -7   3 0.83276 0.90183   3
   7   6  -3 -0.0527 1.51613  11
  -7  -6   3 2.25495 1.20218  28
  -7  -6   3 0.20172 0.95661   3
   6   6  -3 4.88045 2.91032   1
   6   6  -3 6.34359 2.27347  11
  -6  -6   3 4.09363 1.34580  28
  -6  -6   3 4.03982 1.45710   3
  -6  -6   3 4.96459 1.76752  12
   5   6  -3 -10.655 6.50776  22
   5   6  -3 -5.2150 5.81486  25
   5   6  -3 -2.5770 2.84443   1
   5   6  -3 -1.1945 2.40877  11
  -5  -6   3 0.94461 1.37376   3
  -5  -6   3 -1.3886 1.36355  28
  -5  -6   3 -0.0497 2.33756  12
   4   6  -3 0.66201 5.41453  22
   4   6  -3 -2.7637 2.71967   1
   4   6  -3 -1.2065 2.85540  11
   4   6  -3 -1.0568 5.93450  25
  -4  -6   3 2.67588 2.60320  27
  -4  -6   3 1.42979 1.35513   3
  -4  -6   3 2.79164 1.51870  28
  -4  -6   3 4.25493 2.88784  12
   3   6  -3 8.55412 5.88214  25
   3   6  -3 11.2094 3.73169   1
   3   6  -3 17.1196 4.12334  11
  -3  -6   3 9.93339 2.45214  27
  -3  -6   3 18.9111 3.98068  12
  -3  -6   3 13.0033 2.06561   3
   2   6  -3 15.8691 6.29904  11
   2   6  -3 9.32791 3.42008   1
  -2  -6   3 9.71386 1.73556  28
  -2  -6   3 8.21334 2.25273  27
  -2  -6   3 2.04990 5.29136   5
  -2  -6   3 7.81799 1.86862   3
   1   6  -3 14.7813 3.87205   1
   1   6  -3 8.31103 10.3069  15
   1   6  -3 16.6648 5.66148  11
  -1  -6   3 11.4440 1.76165  28
  -1  -6   3 26.8753 10.6044   5
  -1  -6   3 16.5716 2.18708   3
  -1  -6   3 8.23890 2.18959  27
   0   6  -3 8.74085 3.82872   1
   0   6  -3 15.6786 4.49812  11
   0   6  -3 8.01667 7.00232  15
   0  -6   3 11.0847 1.75752  28
   0  -6   3 12.9827 2.10527  27
   0  -6   3 8.98973 2.71770   4
   0  -6   3 19.3565 6.97497   5
  -1   6  -3 4.93556 3.50202  11
  -1   6  -3 -8.0543 7.58098  15
   1  -6   3 3.90975 2.26717   4
   1  -6   3 4.22670 1.44059   3
   1  -6   3 0.67161 1.78002  27
   1  -6   3 0.78296 7.19784   5
  -2   6  -3 10.6680 4.48887   1
   2  -6   3 4.45936 1.20095   3
   2  -6   3 4.52235 1.61862   4
   2  -6   3 5.41270 1.51891  27
  -3   6  -3 -2.7890 4.84743   1
  -3   6  -3 5.46241 2.94443  11
  -3   6  -3 2.10470 2.89462   7
   3  -6   3 2.19405 1.30710   4
   3  -6   3 2.03376 1.42971  27
   7   5  -3 14.1095 2.61441  11
   7   5  -3 12.5535 4.32767   1
  -7  -5   3 14.5488 1.96660   3
   6   5  -3 -0.8006 5.16354  22
   6   5  -3 3.20293 2.10572  11
   6   5  -3 -4.7680 6.11124  25
   6   5  -3 -0.0745 3.20683   1
  -6  -5   3 0.61871 2.00771  12
  -6  -5   3 1.92699 1.50908   3
  -6  -5   3 -0.6248 2.12170   2
   5   5  -3 -0.1521 2.78348   1
   5   5  -3 2.19805 4.10214  22
   5   5  -3 1.16127 2.45268  11
   5   5  -3 10.5881 5.52337  25
  -5  -5   3 6.97145 2.63043   2
  -5  -5   3 3.29786 1.82823   3
  -5  -5   3 8.96632 2.64314  12
   4   5  -3 2.88861 2.82653  11
   4   5  -3 2.21855 2.62748   1
   4   5  -3 -0.0252 3.99825  25
  -4  -5   3 7.01111 2.76185   2
  -4  -5   3 2.46324 1.86831  28
  -4  -5   3 4.41503 2.94005  12
   3   5  -3 7.64202 4.17654  25
   3   5  -3 1.97711 11.0732   6
   3   5  -3 3.44455 2.54702   1
   3   5  -3 13.5826 3.93912  11
  -3  -5   3 4.35323 1.84069   3
  -3  -5   3 5.39879 2.82239  27
  -3  -5   3 4.91310 1.74374  28
   2   5  -3 1.98390 6.40341   6
   2   5  -3 11.7273 3.36369   1
   2   5  -3 8.16055 5.23494  15
   2   5  -3 8.64670 3.99645  25
  -2  -5   3 15.4383 2.73671  27
  -2  -5   3 11.2479 1.96958  28
  -2  -5   3 12.2026 4.70438   5
  -2  -5   3 11.2853 2.15190   3
   1   5  -3 92.9561 12.5650   6
   1   5  -3 83.0213 7.28066   1
   1   5  -3 88.3851 7.56161  11
   1   5  -3 65.6566 8.50464  25
  -1  -5   3 64.4007 6.83126  27
  -1  -5   3 78.7473 6.51525  28
  -1  -5   3 89.2803 9.82398   5
  -1  -5   3 75.6165 6.58359   3
   0   5  -3 20.5956 4.00204  11
   0   5  -3 10.2284 4.75175  15
   0   5  -3 9.30278 3.38575   1
   0  -5   3 12.4409 1.83810   3
   0  -5   3 10.3823 1.75019  28
   0  -5   3 3.32294 4.86004   5
   0  -5   3 10.1751 2.28549  27
   0  -5   3 13.4770 4.10223   4
  -1   5  -3 7.11238 3.25845   1
  -1   5  -3 5.67314 4.69200  15
  -1   5  -3 9.91751 3.77414  11
   1  -5   3 12.9081 3.78700  17
   1  -5   3 8.40727 1.60130  28
   1  -5   3 6.57973 2.04976  27
   1  -5   3 10.9948 1.61927   3
   1  -5   3 14.0655 5.79364   5
  -2   5  -3 4.92919 4.12373   1
  -2   5  -3 -8.0415 6.00625  15
  -2   5  -3 5.00942 3.14985  11
  -2   5  -3 2.62654 7.75711  18
   2  -5   3 4.00603 1.30535  28
   2  -5   3 5.17677 1.39420   3
   2  -5   3 7.20582 1.92004  27
   2  -5   3 9.17661 2.82017  17
   2  -5   3 -1.1702 6.13745   5
  -3   5  -3 0.43522 8.58274  15
  -3   5  -3 9.60535 4.53529   1
   3  -5   3 5.69552 1.76615   4
   3  -5   3 7.20633 2.25522  17
   3  -5   3 7.25639 1.62811  27
   3  -5   3 5.44878 1.88207   2
  -4   5  -3 3.96074 5.25730   1
  -4   5  -3 1.91667 3.51825   7
  -4   5  -3 2.47517 3.04618  11
   4  -5   3 0.17675 1.08163   4
   4  -5   3 0.05854 1.48785  17
   7   4  -3 4.68741 3.53980   1
   7   4  -3 5.29922 2.09301  11
   7   4  -3 2.46347 2.06313  16
  -7  -4   3 2.51413 1.49944   3
  -7  -4   3 6.32627 3.74980   7
  -7  -4   3 1.75406 1.84803   2
   6   4  -3 1.54932 5.28975  25
   6   4  -3 6.48239 2.41630  11
   6   4  -3 5.87606 3.26350   1
   6   4  -3 5.05952 4.45484  22
   6   4  -3 10.8896 3.20236  16
  -6  -4   3 9.88334 2.53978  12
  -6  -4   3 5.78332 2.40920   2
  -6  -4   3 9.93112 3.68159   7
  -6  -4   3 9.09558 2.10929   3
   5   4  -3 72.1369 7.17987   1
   5   4  -3 62.9286 8.06632  22
   5   4  -3 65.1409 5.93854  16
   5   4  -3 56.1825 6.15639  11
   5   4  -3 80.7976 9.15772  25
  -5  -4   3 64.8344 6.36037  12
  -5  -4   3 67.8325 7.54641   7
  -5  -4   3 53.9590 5.71151   2
   4   4  -3 16.0791 6.80782   6
   4   4  -3 13.1525 3.65229   1
   4   4  -3 14.1941 3.24244  11
  -4  -4   3 14.2249 2.85388  12
  -4  -4   3 19.9927 2.60655   3
  -4  -4   3 9.56973 3.47297   7
  -4  -4   3 16.7078 3.00203   2
   3   4  -3 3.85463 2.76947  25
   3   4  -3 1.39260 4.11067   6
   3   4  -3 7.95631 3.23804  11
   3   4  -3 -1.2766 4.59390  15
   3   4  -3 0.55117 2.14354   1
  -3  -4   3 2.82919 2.13065   3
  -3  -4   3 9.60794 2.98157  12
  -3  -4   3 9.00494 2.70217   2
   2   4  -3 132.883 11.1933   6
   2   4  -3 122.360 11.0178  15
   2   4  -3 114.332 9.48919   1
   2   4  -3 96.1057 10.2205  25
  -2  -4   3 99.7482 8.89240   3
  -2  -4   3 120.126 9.59994  12
  -2  -4   3 122.653 11.0867   5
  -2  -4   3 106.330 8.85507  28
   1   4  -3 5.50837 3.21237   6
   1   4  -3 0.23391 2.09758   1
   1   4  -3 -0.8130 2.80152  25
   1   4  -3 1.16024 2.80912  15
  -1  -4   3 4.82177 1.88997   3
  -1  -4   3 -0.0344 3.41042  21
  -1  -4   3 8.08707 1.76313  28
   0   4  -3 2.48200 3.54022  25
   0   4  -3 1.59631 3.55960  18
   0   4  -3 17.0686 4.72013  11
   0  -4   3 5.11672 2.10952  27
   0  -4   3 0.44861 3.03139   5
   0  -4   3 -0.2147 2.97413  21
   0  -4   3 7.44201 1.71531   3
  -1   4  -3 30.8579 4.25256   1
  -1   4  -3 21.9414 6.04313  18
  -1   4  -3 23.5508 6.27911  15
   1  -4   3 39.0619 4.67929  17
   1  -4   3 24.0218 6.03189   5
   1  -4   3 26.7264 3.00585  28
   1  -4   3 31.7506 2.97542   3
   1  -4   3 25.1297 4.25051  21
   1  -4   3 37.5239 3.67442  27
  -2   4  -3 13.0474 3.94301   1
  -2   4  -3 22.2727 7.22229  15
  -2   4  -3 17.0438 6.80511  18
  -2   4  -3 21.2690 3.90314  11
   2  -4   3 23.4854 2.71732   2
   2  -4   3 25.3818 2.87979  27
   2  -4   3 21.6298 2.44972   3
   2  -4   3 20.3043 3.75975  17
   2  -4   3 15.8399 6.52797   5
   2  -4   3 18.4017 2.22032  28
  -3   4  -3 68.7419 7.21913  11
   3  -4   3 77.3210 7.20070  17
   3  -4   3 66.4265 5.88956   2
   3  -4   3 67.6548 5.89164   3
   3  -4   3 75.9520 6.04678  27
   3  -4   3 64.2651 13.2718   5
  -4   4  -3 2.97181 3.06884  11
  -4   4  -3 -6.9049 8.95096  18
  -4   4  -3 5.23180 4.84032   1
  -4   4  -3 4.54929 3.25134   7
  -4   4  -3 -2.7565 8.51438  15
   4  -4   3 11.6175 8.80567   5
   4  -4   3 2.41282 1.89988  17
   4  -4   3 4.19507 1.65626   2
  -5   4  -3 28.2654 8.50346   1
   5  -4   3 17.6568 2.15007   4
   5  -4   3 21.9440 1.92708   2
   5  -4   3 17.2282 2.57142  17
   8   3  -3 0.78480 1.21323  26
   7   3  -3 0.37282 2.09437  11
   7   3  -3 2.14870 1.81313  16
  -7  -3   3 7.18452 3.88725   7
  -7  -3   3 2.48287 2.15416   2
   6   3  -3 -0.9961 3.33029   1
   6   3  -3 -0.3987 4.76578   9
   6   3  -3 -6.4420 5.10251  25
   6   3  -3 3.31217 1.94309  11
   6   3  -3 1.88965 4.05431  22
  -6  -3   3 5.37079 2.11857   3
  -6  -3   3 3.98480 2.67068   2
  -6  -3   3 8.12134 3.63411   7
   5   3  -3 15.5519 4.53607  22
   5   3  -3 14.3218 2.89948  11
   5   3  -3 16.9009 3.61367   1
  -5  -3   3 12.0848 2.77780  12
  -5  -3   3 9.64599 3.87534   7
   4   3  -3 2.00784 4.43274   6
   4   3  -3 1.62434 2.29628  11
   4   3  -3 2.37401 2.22527  22
  -4  -3   3 6.07006 3.41101   7
  -4  -3   3 6.46884 2.52996   3
  -4  -3   3 2.88132 2.91251   2
  -4  -3   3 2.12283 2.78428  12
   3   3  -3 8.70077 2.96588  11
   3   3  -3 5.68508 2.25447   1
   3   3  -3 7.94684 3.15828  15
   3   3  -3 6.10563 3.05738   6
  -3  -3   3 5.68291 2.88932   7
  -3  -3   3 10.8510 2.95020   2
   2   3  -3 0.10071 1.96774  15
   2   3  -3 -2.3059 1.75155   6
   2   3  -3 1.72157 2.21626  25
   2   3  -3 -0.0020 1.73091   1
   2   3  -3 3.63363 2.91768  11
  -2  -3   3 2.12184 2.20206   5
   1   3  -3 4.29601 1.81790   1
   1   3  -3 10.9147 3.53666  11
   1   3  -3 3.98068 2.20372  18
   1   3  -3 3.94432 1.98442  25
   1   3  -3 0.13656 1.78094  15
  -1  -3   3 7.87784 2.99389  21
  -1  -3   3 -0.5005 2.04392   5
   0   3  -3 77.7952 6.59492   1
   0   3  -3 68.1692 8.06724  15
   0   3  -3 88.7915 7.10841  25
   0   3  -3 63.1306 7.51713  18
   0  -3   3 89.2233 7.27214  21
   0  -3   3 77.6650 7.94491   5
  -1   3  -3 6.55615 3.04436  11
   1  -3   3 8.52270 1.77184   3
   1  -3   3 7.79570 1.88386  28
   1  -3   3 13.8993 2.62358   2
   1  -3   3 16.9389 4.32414  17
   1  -3   3 5.82013 3.88897   5
   1  -3   3 11.0346 2.71583  27
  -2   3  -3 10.8315 3.03433  11
  -2   3  -3 4.16680 2.67965   1
  -2   3  -3 1.32087 2.92078  18
   2  -3   3 5.13092 1.67706   3
   2  -3   3 7.78007 1.59008  28
   2  -3   3 6.42646 3.87492   5
   2  -3   3 12.1157 2.30885   2
   2  -3   3 9.44029 2.80291  21
  -3   3  -3 2.26992 2.93116  11
  -3   3  -3 4.61821 4.11153  18
  -3   3  -3 1.48261 3.41616   1
   3  -3   3 4.46030 2.78553  27
   3  -3   3 4.68742 2.13894   2
   3  -3   3 4.52141 5.03358   5
   3  -3   3 3.01168 3.22313  17
   3  -3   3 3.98387 1.53633   3
   3  -3   3 1.30403 1.44805  28
  -4   3  -3 9.51773 7.22766  15
  -4   3  -3 10.1606 3.56646  11
  -4   3  -3 4.36319 3.08798   7
  -4   3  -3 20.1855 5.01366   1
  -4   3  -3 5.04197 6.95890  18
   4  -3   3 10.5137 9.27132   5
   4  -3   3 10.5977 2.15200   2
   4  -3   3 7.80691 3.17640  17
  -5   3  -3 12.0620 11.0680  18
   5  -3   3 24.5419 3.17902  17
  -6   3  -3 1.94527 8.10713  11
  -6   3  -3 1.30789 2.64898   7
   6  -3   3 5.02837 1.41720   4
   6  -3   3 6.45013 1.16305   2
   6  -3   3 5.88920 1.67005  17
   7   2  -3 -1.8373 3.55408   2
   7   2  -3 -0.4060 3.32603  11
   7   2  -3 6.99626 3.01012   9
   7   2  -3 1.52190 1.85150  16
  -7  -2   3 3.86522 2.09634   3
  -7  -2   3 -2.2144 2.19456   2
  -7  -2   3 2.67453 3.12361   7
   6   2  -3 6.84808 2.63929  11
   6   2  -3 17.8568 6.82566  22
   6   2  -3 5.93097 6.27279  25
   6   2  -3 5.62694 3.76908   1
   6   2  -3 9.75034 2.56658  16
   6   2  -3 1.93796 3.00949   9
  -6  -2   3 11.4396 3.19954   2
  -6  -2   3 3.97371 3.17778   7
   5   2  -3 4.05322 2.77490  16
   5   2  -3 0.34718 2.45122  22
   5   2  -3 4.53902 2.56921   1
   5   2  -3 4.14465 3.31953   9
   5   2  -3 0.01538 3.39114  25
   5   2  -3 5.22691 7.84873   6
  -5  -2   3 -6.1555 6.19499  24
  -5  -2   3 5.36392 3.05984   7
   4   2  -3 12.6399 2.67082  11
   4   2  -3 11.5830 2.95193   1
   4   2  -3 8.78046 4.25179   6
   4   2  -3 16.7922 3.12107  22
  -4  -2   3 10.8937 4.13423  24
  -4  -2   3 9.37976 4.65035  10
  -4  -2   3 11.2206 3.36466   7
   3   2  -3 5.72857 2.51987  15
   3   2  -3 9.93497 2.66268  11
   3   2  -3 12.7581 3.49796   6
   3   2  -3 8.84414 2.36573   1
  -3  -2   3 13.8819 3.12557  12
  -3  -2   3 9.77494 3.68190  24
  -3  -2   3 7.96554 2.71802  10
  -3  -2   3 9.68371 2.90334   7
  -3  -2   3 14.0644 3.25178   2
   2   2  -3 4.10152 1.73174   6
   2   2  -3 7.52863 2.10681   1
   2   2  -3 2.63111 2.37488  29
   2   2  -3 5.33158 2.09497  15
   2   2  -3 9.34214 2.79809  11
  -2  -2   3 11.2403 2.91312   7
   1   2  -3 0.40067 1.59795  15
   1   2  -3 -0.1990 1.23157   6
   1   2  -3 2.74024 1.85059  25
  -1  -2   3 2.16877 1.90632  29
  -1  -2   3 1.48634 1.89338   5
   0   2  -3 206.859 14.9697   1
   0   2  -3 175.659 15.7430  15
   0   2  -3 188.078 15.3673  18
   0   2  -3 210.670 15.0587  25
   0  -2   3 196.895 14.9840  21
   0  -2   3 197.632 15.1692  29
   0  -2   3 195.640 15.6339   5
   0  -2   3 181.195 15.4563  14
   0  -2   3 198.208 15.0221  29
  -1   2  -3 3.09464 1.86206  18
  -1   2  -3 3.29132 1.72457  25
  -1   2  -3 4.82773 2.02009   1
   1  -2   3 8.60342 3.37257   5
   1  -2   3 4.67598 1.92608  14
   1  -2   3 6.64421 2.33320  20
  -2   2  -3 8.91862 2.87301   1
  -2   2  -3 6.10793 2.84869  25
  -2   2  -3 3.04762 3.94690  11
   2  -2   3 9.52892 2.68797  14
   2  -2   3 12.5831 1.86071   3
   2  -2   3 12.0620 2.62577   2
   2  -2   3 8.19327 2.95696  21
   2  -2   3 15.8310 3.52301  17
  -3   2  -3 3.83286 2.78897  18
  -3   2  -3 12.5410 3.11313  11
  -3   2  -3 5.02670 5.29363  24
  -3   2  -3 3.88475 3.17114   1
   3  -2   3 9.93290 3.90395   5
   3  -2   3 11.2998 2.46195   2
   3  -2   3 9.09670 1.87210   3
   3  -2   3 17.8361 3.65951   9
   3  -2   3 8.02831 3.33041  17
   3  -2   3 11.7753 1.99690  28
   3  -2   3 6.01537 4.03201  14
   3  -2   3 7.00866 2.87444  21
  -4   2  -3 -1.3480 2.89224  11
  -4   2  -3 1.09067 4.43556  18
  -4   2  -3 -6.6359 6.57809  24
  -4   2  -3 7.27988 3.78531   1
   4  -2   3 3.46217 3.12647  17
   4  -2   3 3.43907 4.81844   5
   4  -2   3 6.19657 2.10958   2
  -5   2  -3 5.96918 3.31567   7
  -5   2  -3 -1.0998 6.99266  15
  -5   2  -3 2.53596 3.28242  11
  -5   2  -3 3.37301 6.36943  18
  -5   2  -3 0.79351 5.43900   1
   5  -2   3 5.60877 2.59552  17
   5  -2   3 15.6248 7.62510   5
   5  -2   3 5.35187 1.90132   2
  -6   2  -3 1.09210 3.16674   7
   6  -2   3 3.01841 1.78705  17
   6  -2   3 3.52983 3.10096   9
   7   1  -3 -0.9594 2.25777  26
   7   1  -3 -1.2259 2.21500   2
   7   1  -3 -2.0386 2.21057   9
   7   1  -3 -0.5259 1.56867  16
  -7  -1   3 3.93219 2.31051   2
  -7  -1   3 -1.2192 3.21753   7
   6   1  -3 0.39424 1.80742  16
   6   1  -3 8.82796 2.96571   2
   6   1  -3 1.86540 2.29326   9
   6   1  -3 5.71808 5.34050  22
  -6  -1   3 7.85280 3.19652   2
  -6  -1   3 1.12597 7.08134  24
  -6  -1   3 -0.6531 3.29910   7
   5   1  -3 49.5171 6.56717   1
   5   1  -3 42.8065 4.39109  16
   5   1  -3 36.2397 5.78711  22
   5   1  -3 42.8361 6.30476  25
   5   1  -3 38.0659 4.59699   2
   5   1  -3 34.5427 4.43255  11
   5   1  -3 19.0034 8.54382   6
   5   1  -3 42.9524 4.47938   9
  -5  -1   3 29.4533 9.24233  10
  -5  -1   3 38.5621 5.32989   7
  -5  -1   3 40.3181 4.73029   2
  -5  -1   3 42.8369 7.65296  24
   4   1  -3 17.5211 3.10441   9
   4   1  -3 25.1765 4.28487   2
   4   1  -3 20.4152 3.20758  16
   4   1  -3 15.1562 3.51255  22
   4   1  -3 14.8794 2.72810  11
   4   1  -3 16.8987 5.86685   6
   4   1  -3 22.4075 3.34546   1
  -4  -1   3 15.1279 4.83699  24
  -4  -1   3 21.6587 3.74932   7
  -4  -1   3 20.7133 4.96582  10
  -4  -1   3 18.1689 6.27600  20
   3   1  -3 77.2743 6.64980  11
   3   1  -3 74.8995 6.54991   9
   3   1  -3 68.7814 6.79095   1
   3   1  -3 73.5307 7.81423  15
   3   1  -3 79.0574 7.01423  22
   3   1  -3 77.1424 7.59550   6
  -3  -1   3 91.2375 7.43392   7
  -3  -1   3 73.0277 7.60066  20
  -3  -1   3 72.3883 7.33112  24
  -3  -1   3 73.6096 7.30812  10
   2   1  -3 5.98160 2.21749  15
   2   1  -3 10.3896 2.39775  11
   2   1  -3 7.90780 2.65220  25
   2   1  -3 4.70834 1.63415   6
   2   1  -3 14.1208 3.62881  29
   2   1  -3 11.1808 3.24940  20
   2   1  -3 7.01311 2.27076   1
  -2  -1   3 8.26405 2.11835  10
  -2  -1   3 8.33114 2.40964  24
  -2  -1   3 10.0800 2.23213  20
  -2  -1   3 7.10553 2.66839  29
   1   1  -3 560.232 40.5491  25
   1   1  -3 506.963 40.7880  15
   1   1  -3 480.639 40.1657   6
   1   1  -3 596.093 40.3110   1
  -1  -1   3 538.648 40.3911   5
  -1  -1   3 547.461 39.9090  20
  -1  -1   3 576.494 40.3954  29
  -1  -1   3 605.367 39.8676  10
  -1  -1   3 500.823 40.7168  14
  -1  -1   3 622.218 39.9451  24
   0   1  -3 61.4671 6.32806  15
   0   1  -3 59.3998 5.90873  18
   0   1  -3 65.7862 5.58074  25
   0   1  -3 63.5238 5.31749   1
   0  -1   3 62.5032 4.81105  20
   0  -1   3 65.1706 5.02853  10
   0  -1   3 64.1920 5.55844  29
   0  -1   3 57.4167 5.69902   5
   0  -1   3 56.2530 6.02021  14
  -1   1  -3 0.68191 1.33928  25
  -1   1  -3 0.43187 1.76239  15
  -1   1  -3 -0.7498 1.50639  18
  -1   1  -3 -0.0666 1.55201   1
   1  -1   3 2.08766 1.30663  20
   1  -1   3 0.92434 1.80667  29
   1  -1   3 -0.9348 2.02856   5
   1  -1   3 1.53746 1.73611  14
   1  -1   3 -1.4271 1.93645  21
  -2   1  -3 4.62556 2.13310   1
  -2   1  -3 7.78660 3.07589  24
  -2   1  -3 4.26344 2.12388  18
  -2   1  -3 6.76919 2.59143  11
  -2   1  -3 1.06556 1.68059  25
   2  -1   3 3.95793 2.13674  21
   2  -1   3 3.68419 1.78883  22
   2  -1   3 3.17762 1.76033  14
   2  -1   3 3.64211 2.16396   5
   2  -1   3 3.38976 3.10008  29
  -3   1  -3 79.5565 6.82331  11
  -3   1  -3 72.1976 7.78352  24
  -3   1  -3 61.9719 8.25177  18
  -3   1  -3 66.6104 7.29783   1
   3  -1   3 68.3153 6.81882  14
   3  -1   3 65.5722 5.91990   3
   3  -1   3 73.2371 6.65720  17
   3  -1   3 77.2701 7.00216  21
   3  -1   3 71.1519 6.27808   2
   3  -1   3 80.5438 8.39795   5
   3  -1   3 76.1787 8.08898  22
   3  -1   3 78.5441 6.57005   9
  -4   1  -3 9.19720 3.47349   7
  -4   1  -3 3.78065 4.45953  24
  -4   1  -3 3.85505 3.71186   1
   4  -1   3 4.98757 3.72910   5
   4  -1   3 13.9146 2.33321   2
   4  -1   3 9.45712 3.97484  14
   4  -1   3 10.3655 2.74336   9
   4  -1   3 17.2099 3.44899  17
  -5   1  -3 1.09458 3.15528   7
  -5   1  -3 3.95151 5.46392   1
  -5   1  -3 3.33187 5.86790  18
  -5   1  -3 -2.6021 5.94417  15
  -5   1  -3 1.74321 3.62124  11
  -5   1  -3 0.94724 6.93898  24
   5  -1   3 2.25811 4.62859  22
   5  -1   3 1.44523 2.00931   2
   5  -1   3 8.28757 5.97521   5
   5  -1   3 4.92642 2.93361  17
   5  -1   3 1.24836 2.45590   9
  -6   1  -3 4.52250 3.58095   7
  -6   1  -3 4.40060 10.4313  18
  -6   1  -3 5.78676 4.21354   2
   6  -1   3 5.88486 2.43109   9
   6  -1   3 3.04047 2.36705  17
   6  -1   3 10.4205 7.24692  22
   6  -1   3 -0.9199 8.49053   5
  -7   1  -3 6.79052 5.01799   2
  -7   1  -3 -2.1704 3.53988   7
   7  -1   3 0.54310 1.97631   9
   7  -1   3 1.34878 1.28298   2
   7   0  -3 -1.1519 1.74071   2
   7   0  -3 2.22859 2.00476   9
   7   0  -3 0.05591 1.39128  16
  -7   0   3 -2.1183 3.06559   7
  -7   0   3 2.69681 2.17469   2
   6   0  -3 75.4084 7.52239   9
   6   0  -3 99.2206 7.52276   2
   6   0  -3 77.9887 7.30430  16
   5   0  -3 22.0051 3.04277  16
   5   0  -3 22.9447 4.10325  11
   5   0  -3 19.6851 2.89195   2
   5   0  -3 21.1315 3.11138   9
  -5   0   3 17.3717 6.41246  24
  -5   0   3 15.8218 5.38524  11
  -5   0   3 15.0332 4.08777   2
  -5   0   3 14.7381 4.06923   7
  -5   0   3 23.6170 8.41876  10
   4   0  -3 53.9449 5.44758   9
   4   0  -3 73.7867 8.92173   6
   4   0  -3 72.4808 5.88759  16
   4   0  -3 55.2583 6.49392  22
   4   0  -3 65.9230 6.33756   1
   4   0  -3 57.3415 5.29047   2
   4   0  -3 62.7355 6.71300  25
   4   0  -3 50.5270 5.50670  11
  -4   0   3 65.5182 7.75671  10
  -4   0   3 63.4412 7.03371   1
  -4   0   3 67.9481 6.36142   2
  -4   0   3 53.6628 6.16337   7
  -4   0   3 66.6020 9.68396  20
  -4   0   3 48.6245 6.02401  11
  -4   0   3 58.8551 7.14483  24
   3   0  -3 174.023 13.3814   9
   3   0  -3 180.945 13.6918  22
   3   0  -3 186.333 16.5661  29
   3   0  -3 168.281 13.2012  11
   3   0  -3 178.852 13.7355   1
   3   0  -3 171.004 14.2350   6
   3   0  -3 173.196 13.8078  25
  -3   0   3 152.147 14.1262  10
  -3   0   3 170.820 14.4357  24
  -3   0   3 172.323 14.9776  20
  -3   0   3 180.070 14.0341   1
  -3   0   3 159.346 13.8823   7
   2   0  -3 20.8308 2.98807  25
   2   0  -3 20.5556 2.98090   6
   2   0  -3 18.0227 2.66441  11
   2   0  -3 16.0189 2.85554   1
   2   0  -3 16.2106 3.94887  15
   2   0  -3 20.2383 4.62978  29
  -2   0   3 14.4299 2.80516  10
  -2   0   3 15.9571 3.02204  24
  -2   0   3 15.3824 3.13607  20
  -2   0   3 11.6457 4.02340  29
  -2   0   3 16.9185 3.22563   1
   1   0  -3 88.6764 7.57795  25
   1   0  -3 89.9107 8.31121  15
   1   0  -3 93.7247 7.75425  29
   1   0  -3 93.1650 7.40167   1
  -1   0   3 95.4778 7.41438  10
  -1   0   3 85.2743 7.81629  14
  -1   0   3 93.2838 7.50604   1
  -1   0   3 84.4979 7.51252  20
  -1   0   3 91.2543 7.70556  29
   0   0  -3 93.3032 8.59679  18
   0   0  -3 109.845 8.93355  15
   0   0  -3 92.4610 7.97097   1
   0   0  -3 101.533 8.20266  25
   0   0   3 110.584 8.15975   1
   0   0   3 93.9198 8.43553  14
   0   0   3 105.908 8.24604  29
   0   0   3 106.612 7.80015   5
  -1   0  -3 -0.7567 1.23996  25
  -1   0  -3 -0.6072 1.52908  18
  -1   0  -3 -0.3830 1.48921  15
  -1   0  -3 0.78110 1.60881   1
   1   0   3 0.60935 1.45847  29
   1   0   3 -0.9959 1.56649   1
   1   0   3 -0.3042 1.35050   5
   1   0   3 -0.0032 1.53056  22
   1   0   3 0.67891 1.51620  14
  -2   0  -3 873.499 64.8507  25
  -2   0  -3 869.462 65.0112   1
  -2   0  -3 901.483 65.9340  18
  -2   0  -3 972.792 64.8559  11
   2   0   3 909.661 64.7102  11
   2   0   3 922.645 65.1027  29
   2   0   3 878.080 65.0080  14
   2   0   3 906.968 64.8188   1
   2   0   3 852.863 65.3328  22
  -3   0  -3 2.31974 1.89609  18
  -3   0  -3 -0.4431 1.80959  15
  -3   0  -3 -3.8282 6.88558  29
  -3   0  -3 0.01962 2.83228   1
  -3   0  -3 -0.8109 2.47981  24
  -3   0  -3 3.14573 2.22065  11
   3   0   3 0.35039 1.67263  14
   3   0   3 6.36642 4.20904  29
   3   0   3 -1.7195 2.17482   1
   3   0   3 6.83416 2.58064  11
   3   0   3 1.66430 2.46173  21
   3   0   3 2.52265 1.73273  22
  -4   0  -3 51.3833 5.97491  11
  -4   0  -3 61.3707 6.39959   2
  -4   0  -3 72.4608 8.29396  18
  -4   0  -3 57.7897 7.21291  15
  -4   0  -3 63.9566 6.52487   7
  -4   0  -3 59.4763 7.90164  24
   4   0   3 66.0778 7.16047  14
   4   0   3 60.4386 5.75588   9
   4   0   3 65.7756 5.91378  11
   4   0   3 52.3678 5.57785   2
   4   0   3 60.2803 7.38198  22
  -5   0  -3 148.718 13.7188   1
  -5   0  -3 130.144 14.2162  24
  -5   0  -3 151.519 15.2067  18
  -5   0  -3 162.362 11.9611   2
  -5   0  -3 115.500 11.5392  11
   5   0   3 128.914 11.4372  17
   5   0   3 160.899 13.9702  22
   5   0   3 121.434 11.1669   9
   5   0   3 134.134 11.0166   2
  -6   0  -3 10.5438 3.64098   2
  -6   0  -3 7.77898 3.54308   7
  -6   0  -3 5.49500 8.52290  18
   6   0   3 9.07944 3.01043  16
   6   0   3 9.02615 2.40056   2
   6   0   3 10.6505 8.05460   5
   6   0   3 10.1508 6.35360  22
   6   0   3 15.0459 3.28775  17
   6   0   3 7.51400 2.25488   9
  -7   0  -3 1.62662 2.44590   2
  -7   0  -3 1.91554 3.22011   7
   7   0   3 -0.5410 1.41252   2
   7   0   3 -0.0716 1.87413   9
   7   0   3 5.33352 3.03194  17
   7   0   3 4.68892 2.37349  16
   7  -1  -3 1.31268 2.75259   9
   7  -1  -3 2.09900 1.21146  16
  -7   1   3 3.73883 2.83473   2
  -7   1   3 -1.2058 2.82321   7
   6  -1  -3 8.82572 10.9705   5
   6  -1  -3 18.5201 3.36131  16
   6  -1  -3 11.4290 2.63352   9
  -6   1   3 2.28461 8.52220  24
  -6   1   3 14.6638 4.03023   7
  -6   1   3 11.9558 3.86630   2
   5  -1  -3 3.83842 2.21586   2
   5  -1  -3 3.36014 8.43411  22
   5  -1  -3 7.15567 2.52933  16
   5  -1  -3 1.95123 2.25380   9
  -5   1   3 2.32588 3.54360   7
  -5   1   3 1.22975 9.10968  10
  -5   1   3 0.86618 3.49445  11
  -5   1   3 -1.7339 5.16801  24
  -5   1   3 -3.6854 5.99243  18
   4  -1  -3 46.8531 4.77362   9
   4  -1  -3 50.7868 4.47822  27
  -4   1   3 36.9071 5.76802   7
  -4   1   3 42.7978 9.86126  20
  -4   1   3 43.8180 7.41015  10
  -4   1   3 52.1840 5.93476   1
  -4   1   3 45.6974 7.00528  24
  -4   1   3 56.7610 6.35300   2
  -4   1   3 39.3659 6.62103  18
   3  -1  -3 10.7898 2.44406  27
   3  -1  -3 8.20047 2.51605   9
   3  -1  -3 9.54991 3.18703  22
   3  -1  -3 9.23084 3.12244   6
   3  -1  -3 11.6110 2.77531   2
  -3   1   3 16.1072 3.99338   7
  -3   1   3 15.1651 3.58841  11
  -3   1   3 13.1024 3.82906  24
  -3   1   3 12.1134 4.58816  20
  -3   1   3 9.17634 3.41128  10
  -3   1   3 9.36281 3.42246   1
   2  -1  -3 0.82062 2.35965  29
   2  -1  -3 3.11144 1.70451  25
   2  -1  -3 3.16130 1.25617  22
   2  -1  -3 -2.1679 2.47336   1
   2  -1  -3 0.60527 1.45281   6
  -2   1   3 0.40434 1.67415  24
  -2   1   3 -0.5855 1.47135  20
  -2   1   3 3.16351 3.20267  29
  -2   1   3 -1.0612 1.95131   1
  -2   1   3 -0.7594 1.85650  10
   1  -1  -3 5.10871 1.82205  25
   1  -1  -3 3.41697 1.82796  29
   1  -1  -3 2.88611 2.22242  15
   1  -1  -3 4.88282 1.64608   6
   1  -1  -3 4.16134 1.39358  22
  -1   1   3 2.99305 1.67233  10
  -1   1   3 7.22166 2.26823   1
  -1   1   3 5.81532 1.97239   6
  -1   1   3 6.12533 2.02486  20
  -1   1   3 4.26170 2.57032  29
  -1   1   3 3.92094 1.64427  14
   0  -1  -3 54.3781 5.93476  15
   0  -1  -3 58.2387 5.04348  25
   0  -1  -3 57.1522 4.47505   6
   0   1   3 56.8796 5.13002   1
   0   1   3 60.7607 5.23452  29
   0   1   3 56.8886 5.20126  14
  -1  -1  -3 419.827 32.5875  18
  -1  -1  -3 425.287 32.0556  25
  -1  -1  -3 468.564 31.7520   6
  -1  -1  -3 448.255 32.4133  15
   1   1   3 422.837 31.9065  22
   1   1   3 452.899 31.9298   1
   1   1   3 443.732 31.4086   5
   1   1   3 406.082 31.8907  29
   1   1   3 453.069 32.1062  14
  -2  -1  -3 0.63984 1.65249  25
  -2  -1  -3 1.22050 1.46808  15
  -2  -1  -3 -0.1704 1.82400  18
  -2  -1  -3 1.03223 1.61548   6
  -2  -1  -3 -0.7827 3.58828   1
   2   1   3 0.66090 1.66302  29
   2   1   3 0.57991 1.61224  14
   2   1   3 2.36472 2.15098  11
   2   1   3 -0.0196 1.52976   1
   2   1   3 1.35320 1.58705  22
  -3  -1  -3 59.5124 5.90809  15
  -3  -1  -3 51.8669 6.24171  18
  -3  -1  -3 59.9865 5.80396   8
  -3  -1  -3 41.7208 10.7946  29
  -3  -1  -3 56.9421 5.84149   7
   3   1   3 43.4552 6.70946  29
   3   1   3 50.5947 5.21283   1
   3   1   3 47.8800 5.60368  22
   3   1   3 58.1488 5.18494  11
   3   1   3 54.9468 5.46094  14
  -4  -1  -3 46.6929 6.06835  15
  -4  -1  -3 34.7640 6.16090  24
  -4  -1  -3 37.8118 7.83757  18
  -4  -1  -3 40.3837 4.57219   2
  -4  -1  -3 33.5854 6.10007   8
  -4  -1  -3 42.0035 5.19627   7
  -4  -1  -3 34.9147 6.18194  11
   4   1   3 44.8092 5.89225  22
   4   1   3 38.9965 6.37497  14
   4   1   3 40.8303 4.52830   1
   4   1   3 40.3170 4.36537  11
   4   1   3 38.3258 5.13496   2
  -5  -1  -3 30.7654 4.12014   2
  -5  -1  -3 29.0838 5.13063   7
  -5  -1  -3 32.5142 7.18223  18
   5   1   3 40.2158 7.10052  17
   5   1   3 35.4389 4.15798  11
   5   1   3 30.4322 5.66071  14
   5   1   3 32.4174 4.88985   1
   5   1   3 32.1950 6.20147  22
   5   1   3 30.1995 4.39813   2
   5   1   3 32.5776 4.03368   9
  -6  -1  -3 10.3285 3.21201   2
   6   1   3 3.59560 5.26333  22
   6   1   3 16.7525 4.10415  17
   6   1   3 7.64395 6.75170  14
   6   1   3 9.69751 2.97574   2
  -7  -1  -3 3.33602 2.39009   2
  -7  -1  -3 2.34971 3.77693   7
   7   1   3 2.08213 2.09087   2
   7   1   3 2.96074 2.04860  16
   7   1   3 1.04936 2.08780   9
  -8  -1  -3 0.18031 3.50798   7
  -8  -1  -3 3.71223 2.12710   2
   8   1   3 -1.4797 1.37940   2
   8   1   3 2.53420 1.74237  16
   8   1   3 0.59549 1.74324   9
   6  -2  -3 5.31389 1.67831   2
   6  -2  -3 5.50230 2.25177   9
   6  -2  -3 3.63256 1.55918  16
  -6   2   3 4.56801 3.50529   7
  -6   2   3 2.17551 5.85660  11
   5  -2  -3 -0.7710 8.44759   5
   5  -2  -3 -1.6101 1.88418   9
   5  -2  -3 -2.1032 2.24165  16
  -5   2   3 4.07107 6.87895  18
  -5   2   3 -0.8747 4.99415   1
  -5   2   3 9.16272 14.1706  10
  -5   2   3 1.65243 6.75138  24
  -5   2   3 0.46182 3.67861   7
  -5   2   3 -2.3738 3.31869  11
   4  -2  -3 5.35705 2.06573  27
   4  -2  -3 6.90103 2.33361   2
   4  -2  -3 2.12532 2.09878   9
  -4   2   3 -0.9334 3.77082  24
  -4   2   3 5.06335 3.77501   1
  -4   2   3 4.03099 7.71264  20
  -4   2   3 8.87771 3.45899  11
  -4   2   3 1.14755 6.00423  10
  -4   2   3 3.26762 3.68121  18
  -4   2   3 5.34688 4.19044   7
   3  -2  -3 1.45112 2.10982   2
   3  -2  -3 8.01693 2.67498  16
   3  -2  -3 2.44233 3.09720  22
   3  -2  -3 1.80256 2.05826   9
  -3   2   3 4.78360 4.12849   7
  -3   2   3 -4.7545 3.40926  20
  -3   2   3 -0.9125 3.52214  10
  -3   2   3 1.62731 2.47133  24
  -3   2   3 0.00372 2.97420  11
  -3   2   3 3.97499 2.79249   1
   2  -2  -3 86.5086 7.20353  22
   2  -2  -3 93.0398 7.15820   9
  -2   2   3 78.5370 7.90174  24
  -2   2   3 78.0866 7.93106  10
  -2   2   3 86.0188 7.50922  11
  -2   2   3 78.0079 8.58590  20
  -2   2   3 83.8298 7.73019   1
  -2   2   3 64.4264 8.16826   7
   1  -2  -3 52.3822 5.88411  29
   1  -2  -3 56.1193 5.47107   5
   1  -2  -3 61.2335 5.06317  25
   1  -2  -3 54.7144 4.90940   9
  -1   2   3 61.8658 5.29111   6
  -1   2   3 53.1679 5.91021  29
  -1   2   3 51.8642 6.65332  10
  -1   2   3 52.4956 5.75283  20
  -1   2   3 58.2801 5.45799   1
   0  -2  -3 674.261 47.7753   5
   0  -2  -3 626.501 48.9759  15
   0  -2  -3 651.403 48.0330  25
   0   2   3 665.786 47.9742  14
   0   2   3 731.955 48.2100   1
   0   2   3 600.774 48.4871  20
   0   2   3 701.871 48.0682  29
  -1  -2  -3 16.9543 2.89772  25
  -1  -2  -3 25.2069 3.73851  15
   1   2   3 24.1932 2.98997  29
   1   2   3 25.3001 3.07972  14
   1   2   3 24.8269 2.79489   1
   1   2   3 21.2555 2.55382  22
   1   2   3 24.4446 2.96531  29
  -2  -2  -3 7.51592 3.00436  18
  -2  -2  -3 12.0347 2.94046   8
  -2  -2  -3 9.97005 2.08772   6
  -2  -2  -3 6.79354 2.89419  15
   2   2   3 9.45557 2.02406   1
   2   2   3 5.49704 1.90684  29
   2   2   3 11.1955 2.53574  22
   2   2   3 11.6260 2.52578  14
  -3  -2  -3 64.2578 5.92462  15
  -3  -2  -3 57.3312 6.55863  18
   3   2   3 61.6942 6.00473  14
   3   2   3 58.9646 5.48410   1
   3   2   3 59.1624 5.34276  11
   3   2   3 54.5302 6.04802  22
  -4  -2  -3 54.9668 5.75007   7
  -4  -2  -3 38.6496 5.18205   8
  -4  -2  -3 48.9313 4.67591   2
  -4  -2  -3 43.0080 4.02967   4
  -4  -2  -3 43.3016 5.94343  18
   4   2   3 41.6592 6.07498  22
   4   2   3 35.1759 4.41416  11
   4   2   3 36.9740 4.54957   1
   4   2   3 42.7237 5.23535  14
  -5  -2  -3 -3.6281 3.95000   7
  -5  -2  -3 -1.1644 4.20043  18
   5   2   3 2.04553 2.43433   1
   5   2   3 1.20431 2.85437  14
   5   2   3 2.45109 2.28327  11
   5   2   3 2.58467 2.47686   9
   5   2   3 2.40737 3.02899  22
  -6  -2  -3 -5.0066 8.59706  18
  -6  -2  -3 15.0259 4.64403   7
  -6  -2  -3 12.6798 3.05519   2
   6   2   3 3.84120 4.81929  22
   6   2   3 -0.4356 4.74795  14
   6   2   3 6.65290 3.26535   1
   6   2   3 3.06588 2.57737  11
   6   2   3 5.97854 2.80773   9
  -7  -2  -3 2.57508 2.27339   2
  -7  -2  -3 8.16958 4.12016   7
   7   2   3 6.48669 3.74384  11
   7   2   3 -2.9179 6.96293  22
   7   2   3 4.00608 2.08280   9
   7   2   3 0.15756 3.51541   2
  -8  -2  -3 0.67147 1.57759   2
  -8  -2  -3 -2.5970 4.18800   7
   8   2   3 1.68735 1.73099   9
   8   2   3 0.98573 1.32823  16
   8   2   3 4.27357 2.88916   2
   6  -3  -3 3.56136 1.46818  16
   6  -3  -3 2.89666 1.10739   2
   5  -3  -3 2.32559 1.78406  27
   5  -3  -3 2.32185 2.29399   2
   5  -3  -3 2.64945 2.03689  16
   5  -3  -3 8.58018 2.92730   4
   5  -3  -3 1.68325 2.03739   9
   5  -3  -3 -5.0242 13.8071   5
  -5   3   3 9.20319 8.77676  24
  -5   3   3 1.59108 3.04295  11
  -5   3   3 3.53473 5.35514   1
  -5   3   3 3.61281 4.27030   7
  -5   3   3 -9.2219 8.23620  18
   4  -3  -3 11.5415 2.16765  27
   4  -3  -3 10.8648 2.16032   2
   4  -3  -3 12.0578 2.74833   9
   4  -3  -3 7.95799 7.86489   5
  -4   3   3 12.1093 4.51899   1
  -4   3   3 5.22339 8.09941  10
  -4   3   3 7.77599 4.44815   7
  -4   3   3 6.95900 6.30809  24
  -4   3   3 9.62573 3.65778  11
   3  -3  -3 6.91384 1.95187  27
   3  -3  -3 3.64554 2.82030  16
   3  -3  -3 10.1533 3.25165   4
   3  -3  -3 3.04008 4.27627   5
   3  -3  -3 0.50759 2.13404   9
  -3   3   3 8.39441 4.74246   7
  -3   3   3 0.37495 3.26257   1
  -3   3   3 3.83164 3.29023  11
  -3   3   3 3.40982 3.33731  24
  -3   3   3 1.25715 4.69907  10
  -3   3   3 4.55097 6.37719  20
   2  -3  -3 106.807 8.96446  16
   2  -3  -3 120.543 9.25886   9
   2  -3  -3 109.939 8.79475   2
   2  -3  -3 114.798 10.3612   5
   2  -3  -3 112.289 9.11571   4
   2  -3  -3 117.709 8.88027  27
  -2   3   3 112.693 9.92452   1
  -2   3   3 111.655 11.8604  20
  -2   3   3 102.965 10.4614  24
  -2   3   3 115.700 10.6749  10
  -2   3   3 102.845 9.63815  11
  -2   3   3 100.669 11.1387   7
   1  -3  -3 0.74770 2.00362   9
   1  -3  -3 -1.2662 2.36662   5
  -1   3   3 -1.8934 3.04518   6
  -1   3   3 0.31199 2.00632  10
  -1   3   3 0.44394 1.73598  20
  -1   3   3 1.39153 2.03451   1
  -1   3   3 1.01725 1.96082  24
  -1   3   3 6.77683 3.79981  11
   0  -3  -3 1.04565 2.05957   9
   0  -3  -3 0.30777 1.96561   5
   0   3   3 -1.9501 1.80377   1
   0   3   3 -1.5443 1.76620  29
   0   3   3 0.15550 1.51694  20
   0   3   3 0.28069 1.50279  14
  -1  -3  -3 60.7085 5.83193   5
   1   3   3 66.8673 5.65956   1
   1   3   3 70.8764 5.77936  29
   1   3   3 59.9462 5.58524  29
   1   3   3 66.4105 5.79301  14
  -2  -3  -3 122.369 11.0592   8
   2   3   3 130.357 10.8185  14
   2   3   3 138.854 10.6367  22
   2   3   3 134.078 10.3156   1
   2   3   3 138.940 10.6859  29
  -3  -3  -3 76.9355 7.38323   8
   3   3   3 72.9109 6.43560   1
   3   3   3 80.3757 6.53657  11
   3   3   3 73.2204 7.03484  14
   3   3   3 68.0421 6.94978  22
  -4  -3  -3 60.0823 7.49864  18
  -4  -3  -3 57.8030 5.57377   2
  -4  -3  -3 63.7226 7.18106   7
  -4  -3  -3 55.6052 5.13999   4
  -4  -3  -3 60.9313 5.60039  12
   4   3   3 63.7770 6.66123  14
   4   3   3 59.6609 5.79774   1
   4   3   3 56.0106 7.18208  22
   4   3   3 53.7772 5.48348  11
  -5  -3  -3 130.512 10.6099   2
  -5  -3  -3 106.007 10.4061  12
   5   3   3 140.686 12.6608   1
   5   3   3 147.828 12.0602  14
   5   3   3 118.492 10.7023  11
   5   3   3 140.187 12.5862  22
  -6  -3  -3 31.2155 4.27618  12
  -6  -3  -3 31.8540 5.45885   7
  -6  -3  -3 25.7248 3.53861   2
   6   3   3 27.4319 6.27476  14
   6   3   3 25.3813 4.01394   9
   6   3   3 31.3653 7.74983  22
   6   3   3 21.5596 3.89393   1
   6   3   3 24.4795 4.03142  11
  -7  -3  -3 2.72697 2.74412   2
  -7  -3  -3 3.09128 4.26245   7
   7   3   3 2.88416 3.77482   1
   7   3   3 2.02935 1.99701   9
   7   3   3 6.22859 2.55264  11
   7   3   3 -7.2518 7.21640  22
   7   3   3 10.6473 8.74078  14
  -8  -3  -3 12.1796 6.14266   7
  -8  -3  -3 1.83719 1.75114   2
   8   3   3 3.48486 1.30171  16
   8   3   3 5.70759 2.06632   9
   5  -4  -3 3.73820 2.09814   4
   5  -4  -3 3.54179 2.12002   9
   5  -4  -3 2.65136 2.48681  16
   5  -4  -3 3.53798 1.27426   2
  -5   4   3 0.19387 5.31445   1
  -5   4   3 0.51166 2.92024  11
   4  -4  -3 15.8646 2.71418   9
   4  -4  -3 10.9400 2.01606  27
  -4   4   3 3.31637 7.61065  24
  -4   4   3 18.6866 3.62068  11
  -4   4   3 18.3081 5.38862   1
  -4   4   3 3.24804 5.97693  18
   3  -4  -3 16.4592 2.42120   2
   3  -4  -3 9.32605 2.83743  16
   3  -4  -3 16.0923 11.7297   5
   3  -4  -3 17.1871 2.59672   4
   3  -4  -3 15.1884 2.87441   9
   3  -4  -3 15.6104 2.15229  27
  -3   4   3 23.7951 6.50107  24
  -3   4   3 10.4931 3.92422  11
  -3   4   3 11.3726 4.18767   1
   2  -4  -3 11.2100 2.46858   9
   2  -4  -3 12.3825 2.18065  27
   2  -4  -3 6.69754 4.83854   5
   2  -4  -3 16.9971 3.01875  16
   2  -4  -3 17.2742 2.66653   4
  -2   4   3 8.46033 3.39518   1
  -2   4   3 2.53821 5.57614  20
  -2   4   3 9.18531 5.39453  10
  -2   4   3 3.68451 3.50255  24
  -2   4   3 12.1915 4.04976  11
   1  -4  -3 30.4937 3.31381  28
   1  -4  -3 37.9960 3.97169   9
   1  -4  -3 31.9020 3.46083  27
   1  -4  -3 32.9214 5.61318   5
   1  -4  -3 34.9718 3.97733  16
   1  -4  -3 33.1513 3.42298   2
  -1   4   3 29.3578 4.30072   1
  -1   4   3 44.2768 5.42525  11
  -1   4   3 33.4987 5.13327  24
   0  -4  -3 42.2634 4.13450   4
   0  -4  -3 43.8844 4.21227  27
   0  -4  -3 43.9578 4.56777  16
   0  -4  -3 53.5776 5.55400   5
   0   4   3 30.8266 5.38759  20
   0   4   3 34.9575 4.51185   1
   0   4   3 48.0794 5.51289  10
  -1  -4  -3 169.357 14.1615   8
  -1  -4  -3 166.489 13.1433   4
  -1  -4  -3 163.834 13.4218  12
  -1  -4  -3 156.866 13.7694   5
   1   4   3 184.422 14.6287  20
   1   4   3 181.503 13.2495   1
   1   4   3 181.772 13.4606  14
  -2  -4  -3 10.8685 3.63167   8
  -2  -4  -3 6.81773 3.16267  12
  -2  -4  -3 6.56098 2.27718   4
   2   4   3 8.78418 3.30470   1
   2   4   3 1.62446 2.14007  22
   2   4   3 2.13031 1.91895  29
   2   4   3 3.58584 1.84124  14
  -3  -4  -3 13.6309 2.42581   4
  -3  -4  -3 17.5044 2.82530  12
   3   4   3 24.5442 4.41880  11
   3   4   3 8.74358 2.52264   1
  -4  -4  -3 9.12346 2.25572   4
  -4  -4  -3 6.44383 2.53479  12
  -4  -4  -3 11.5383 3.14870   2
   4   4   3 1.03452 2.70925  22
   4   4   3 4.23251 2.38831  14
   4   4   3 7.67740 3.13224  11
  -5  -4  -3 7.93086 2.41899   4
  -5  -4  -3 7.44937 2.68931   2
  -5  -4  -3 2.17043 2.70485  12
   5   4   3 -1.6985 2.82245  14
   5   4   3 -0.5833 1.94954   1
   5   4   3 2.94234 3.51820  22
   5   4   3 -0.6727 2.30423  11
  -6  -4  -3 4.35159 3.13956  12
  -6  -4  -3 8.21968 2.45300   2
  -6  -4  -3 24.7273 9.41326   7
   6   4   3 3.64070 4.52673  14
   6   4   3 -0.2441 5.64095  22
   6   4   3 1.11100 2.42851   1
   6   4   3 3.40838 2.48156  11
   6   4   3 1.94500 2.38586   9
  -7  -4  -3 1.94159 3.52358  12
  -7  -4  -3 16.9963 8.94003   7
  -7  -4  -3 8.96470 2.30708   2
   7   4   3 10.7722 10.6973  22
   7   4   3 2.98658 3.02527   1
   7   4   3 13.5190 7.20351  14
   7   4   3 8.94693 2.38497  11
  -8  -4  -3 0.84365 1.52205   2
   8   4   3 1.94396 1.14551  16
   8   4   3 2.37128 1.74602   9
   8   4   3 0.83254 2.18142  11
   4  -5  -3 -0.4672 1.27772  27
   4  -5  -3 -1.2540 1.66595   4
  -4   5   3 0.50599 3.01689  11
  -4   5   3 1.62659 4.55335   1
   3  -5  -3 17.1224 3.13462   9
   3  -5  -3 23.9343 3.04679   4
   3  -5  -3 22.5867 2.40005   2
  -3   5   3 26.9626 9.46334  18
  -3   5   3 23.8688 4.25947  11
  -3   5   3 33.9415 5.55306   1
  -3   5   3 36.9501 10.9818  24
   2  -5  -3 3.21440 7.65524   5
   2  -5  -3 8.81450 2.67753   9
   2  -5  -3 9.18332 1.94714  27
   2  -5  -3 15.7537 3.26584   2
   2  -5  -3 16.6795 3.11117  16
  -2   5   3 -1.4094 5.43654  24
  -2   5   3 4.55355 3.30966   1
  -2   5   3 -3.9078 8.51839  10
  -2   5   3 2.32023 3.67356  11
   1  -5  -3 12.0457 2.24126  28
   1  -5  -3 18.7988 2.80989   4
   1  -5  -3 18.3405 3.53040  12
   1  -5  -3 13.6669 2.42008  27
  -1   5   3 14.6743 5.29835  24
  -1   5   3 13.6564 4.56267   1
  -1   5   3 11.7400 7.80805  20
  -1   5   3 6.54362 5.18639  10
   0  -5  -3 8.85846 2.49990  27
   0  -5  -3 11.1126 2.94990   4
   0  -5  -3 10.3347 3.00163  12
   0   5   3 -0.1266 2.86371   1
   0   5   3 4.28645 4.13234  20
   0   5   3 -0.4507 4.00285  10
   0   5   3 0.40436 2.89855  24
  -1  -5  -3 9.82501 2.80564  27
  -1  -5  -3 13.1538 2.94741  12
  -1  -5  -3 13.7608 2.39542   4
   1   5   3 2.82229 4.59734  20
   1   5   3 3.97292 3.29582   1
   1   5   3 6.24185 3.16332  10
  -2  -5  -3 12.3713 2.27688   4
  -2  -5  -3 7.62173 2.79487  12
   2   5   3 0.53338 4.64541  20
   2   5   3 10.6606 3.98287   1
   2   5   3 9.84338 3.84296  14
  -3  -5  -3 23.4736 2.82772   4
  -3  -5  -3 27.7685 3.35837  12
   3   5   3 12.4294 7.03829  22
   3   5   3 20.8867 3.50683   1
  -4  -5  -3 -0.0427 2.45132  12
   4   5   3 1.59206 2.35683   1
   4   5   3 9.88443 3.82061  11
   4   5   3 0.75366 2.79908  14
   4   5   3 -1.3579 3.91185  22
  -5  -5  -3 3.85755 2.38121   4
   5   5   3 0.37370 5.26697  22
   5   5   3 -1.7519 3.28241  14
   5   5   3 1.08247 2.18685   1
   5   5   3 6.53675 2.88345  11
  -6  -5  -3 6.41097 2.65258   2
  -6  -5  -3 1.30492 2.74682  12
   6   5   3 -2.5647 2.48129  11
   6   5   3 0.60573 2.23345   9
   6   5   3 0.16672 2.48403   1
   6   5   3 -0.6278 7.52788  22
   6   5   3 -3.0927 4.83676  14
  -7  -5  -3 2.27144 2.43305  12
  -7  -5  -3 -1.6899 2.02005   2
   7   5   3 0.32665 2.47810   9
   7   5   3 -0.9197 3.37931   1
  -8  -5  -3 -0.1359 0.84765   3
   8   5   3 -0.6722 1.69868  11
   8   5   3 1.15680 1.16902  16
   8   5   3 0.48399 2.21073   9
   4  -6  -3 -0.5001 1.31333  27
   4  -6  -3 1.31719 1.25935   4
  -4   6   3 -1.8522 2.55594  11
   3  -6  -3 2.55035 0.98116  27
  -3   6   3 3.08880 3.98179   1
  -3   6   3 1.39535 3.22813  11
   2  -6  -3 34.4564 4.05570   4
   2  -6  -3 38.0173 3.85082  27
  -2   6   3 42.6294 5.54563  11
  -2   6   3 45.6310 10.7267  18
  -2   6   3 42.1929 6.43020   1
   1  -6  -3 196.550 14.1426  27
   1  -6  -3 173.051 14.4989  12
  -1   6   3 164.856 14.9642   1
  -1   6   3 184.525 16.4286  11
   0  -6  -3 17.7057 3.71605  12
   0  -6  -3 25.9154 2.76351  28
   0  -6  -3 27.4647 3.10820  27
   0  -6  -3 24.9081 3.15565   4
   0   6   3 5.54064 8.09059  10
   0   6   3 20.6286 5.12432   1
   0   6   3 26.4413 7.07347  24
  -1  -6  -3 68.5828 5.91614   4
  -1  -6  -3 58.2507 10.6567   5
  -1  -6  -3 63.9064 5.54935  28
  -1  -6  -3 68.2025 6.28076  12
   1   6   3 63.5270 9.64688  10
  -2  -6  -3 53.5369 5.64983  12
  -2  -6  -3 56.0322 5.23970   3
  -2  -6  -3 65.3821 5.34689   4
   2   6   3 39.2133 12.5110  20
   2   6   3 63.7887 8.90727  10
  -3  -6  -3 210.881 15.1584  12
  -3  -6  -3 205.887 14.5822   4
   3   6   3 170.213 16.0708  14
   3   6   3 143.063 22.9974  20
  -4  -6  -3 16.8525 2.80098  12
   4   6   3 15.5387 6.04622  14
   4   6   3 23.7953 3.79713   1
  -5  -6  -3 20.2908 2.62937   3
  -5  -6  -3 14.8666 2.78398  12
   5   6   3 18.2891 3.67425   1
   5   6   3 23.7693 4.09791  11
   5   6   3 21.4802 6.92052  14
  -6  -6  -3 3.95560 1.82722   3
  -6  -6  -3 10.9379 3.61768  12
   6   6   3 3.52554 2.83739   1
   6   6   3 3.51512 2.71334  11
   6   6   3 4.25775 2.99025   9
   6   6   3 1.47299 5.43673  14
  -7  -6  -3 0.40955 1.80290  12
   7   6   3 -3.4122 3.03576   1
   7   6   3 3.38796 3.28416   9
   7   6   3 -0.4103 2.16442  11
   2  -7  -3 1.37295 1.21911  27
   2  -7  -3 1.47390 1.29721   4
  -2   7   3 -2.9210 4.06094  11
  -2   7   3 2.88820 4.79954   1
   1  -7  -3 3.87108 1.52179   4
   1  -7  -3 1.44988 1.38113  27
  -1   7   3 -1.4808 4.72478   1
  -1   7   3 3.72808 5.63208  11
   0  -7  -3 12.4802 2.23724   4
   0   7   3 23.9709 5.66332   1
   0   7   3 -4.3991 8.60543  18
  -1  -7  -3 58.5579 5.49974  12
  -1  -7  -3 48.2150 5.09526  27
  -1  -7  -3 61.7537 4.89624  28
  -2  -7  -3 5.27329 2.24711  12
  -2  -7  -3 6.91563 1.97006   4
  -3  -7  -3 27.8460 3.54634   3
  -3  -7  -3 40.1236 3.63586   4
  -3  -7  -3 36.9085 4.08687  12
  -4  -7  -3 21.7944 2.50795   3
  -4  -7  -3 16.2754 2.56552   4
   4   7   3 19.3663 5.18172   1
  -5  -7  -3 17.6924 2.69115   4
  -5  -7  -3 15.6477 4.12442  12
  -5  -7  -3 19.9656 2.49121   3
   5   7   3 28.9942 5.54632  11
   5   7   3 14.0468 10.6297  14
  -6  -7  -3 17.6007 2.02039   3
  -6  -7  -3 12.1784 2.46584  12
   6   7   3 25.0328 4.59803   1
   6   7   3 13.6798 3.77108  11
  -7  -7  -3 -0.3223 1.70953  12
  -7  -7  -3 2.33000 1.06725   3
   7   7   3 1.20754 2.12400  11
   1  -8  -3 0.63420 1.02738  27
   1  -8  -3 1.07324 0.95130   4
   0  -8  -3 8.67892 1.54901  27
   0  -8  -3 9.81739 1.43713   4
  -1  -8  -3 3.40276 2.76034  12
  -1  -8  -3 1.32717 1.10598   4
  -1  -8  -3 -1.5157 1.50572  27
  -2  -8  -3 6.75136 2.09985  12
  -2  -8  -3 6.72073 1.43603   4
  -3  -8  -3 0.54424 1.87323  12
  -3  -8  -3 -2.2780 1.49752   4
  -4  -8  -3 1.75906 1.72413  12
  -4  -8  -3 1.99387 1.81059   3
  -5  -8  -3 7.62805 1.83881  12
  -6  -8  -3 0.58784 1.15352   3
  -6  -8  -3 2.61269 1.55974  12
   6   8   3 6.05674 5.98109  11
  -2  -9  -3 5.16886 1.35785   4
  -3  -9  -3 5.23632 1.65822   4
  -3  -9  -3 8.94205 2.04504  12
  -4  -9  -3 0.78155 1.36617  12
   5   7  -4 0.49780 2.75848   8
   5   7  -4 -0.7497 2.02023  11
   5   7  -4 -3.4724 4.55771   1
  -5  -7   4 0.17243 0.86378   3
  -5  -7   4 0.58558 0.99320  28
   4   7  -4 0.67208 4.35643   8
   4   7  -4 3.94369 3.29950   1
   4   7  -4 0.84981 2.51891  11
  -4  -7   4 1.49432 1.72933  27
  -4  -7   4 -0.0316 0.99784  28
  -4  -7   4 1.39604 1.05659   3
   3   7  -4 1.90064 2.92512  11
   3   7  -4 1.76799 3.45708   1
  -3  -7   4 0.15262 0.94746   3
  -3  -7   4 1.85732 0.94112  28
  -3  -7   4 0.51404 1.68782  27
   2   7  -4 5.81597 3.59971  11
   2   7  -4 6.71627 4.14492   1
  -2  -7   4 6.12357 1.28668   3
  -2  -7   4 3.26131 1.50645  27
   1   7  -4 3.48976 4.50791   1
   1   7  -4 1.18742 4.13909  11
  -1  -7   4 2.83118 1.09920   3
  -1  -7   4 2.87617 1.03015  28
   0   7  -4 4.68686 3.31228  11
   0  -7   4 0.40194 1.13999  27
   0  -7   4 3.00218 0.94502  28
   1  -7   4 1.03200 1.08152  27
   6   6  -4 -2.9828 2.93262   1
  -6  -6   4 0.27379 1.16240   3
  -6  -6   4 1.44157 1.05619  28
   5   6  -4 -9.9802 6.49686  25
   5   6  -4 -2.2755 2.05104  11
   5   6  -4 0.96829 3.11704   1
  -5  -6   4 0.30223 1.10348  28
  -5  -6   4 -0.1692 1.24959   3
  -5  -6   4 -0.5184 2.61137  27
   4   6  -4 4.61195 2.95075   1
   4   6  -4 0.50289 6.39242  22
   4   6  -4 2.86374 2.43457  11
   4   6  -4 1.07951 6.03550  25
  -4  -6   4 4.05114 2.14917  27
  -4  -6   4 -0.7498 2.19311   3
  -4  -6   4 -3.3367 5.20506  12
   3   6  -4 25.2833 4.14163   1
   3   6  -4 22.2599 3.59316  11
   3   6  -4 17.1039 7.41798  25
  -3  -6   4 16.3301 2.74706  27
  -3  -6   4 24.5278 2.73341   3
  -3  -6   4 19.5053 2.38068  28
   2   6  -4 26.4075 4.03134   1
   2   6  -4 17.7177 3.96535  11
  -2  -6   4 18.6022 2.70324  27
  -2  -6   4 17.2401 2.35913  28
  -2  -6   4 19.3606 2.40339   3
   1   6  -4 2.44425 3.17353   1
   1   6  -4 6.12131 3.26716  11
   1   6  -4 1.50242 10.4527  15
  -1  -6   4 0.56033 1.19203   3
  -1  -6   4 3.03963 1.97140  27
  -1  -6   4 3.86056 1.38399  28
   0   6  -4 20.8243 4.54466   1
   0   6  -4 16.8649 3.85578  11
   0   6  -4 6.87874 8.93636  15
   0  -6   4 14.6166 2.53345  27
   0  -6   4 11.0756 1.79419  28
   0  -6   4 10.4015 1.82566   3
   0  -6   4 12.0644 7.64014   5
  -1   6  -4 -2.0649 3.09398  11
   1  -6   4 0.77927 0.78908   3
   1  -6   4 -0.1804 1.53817  27
   1  -6   4 -1.1672 0.96258  28
  -2   6  -4 12.8089 4.61408   1
   2  -6   4 5.52645 1.24415   3
   2  -6   4 7.01121 1.43723   4
   2  -6   4 7.22343 1.45911  27
   7   5  -4 -0.8293 1.57860  11
   7   5  -4 0.30093 1.17831  26
  -7  -5   4 3.91562 1.49647   3
  -7  -5   4 -1.1797 0.99987  28
   6   5  -4 -0.0321 1.79285  11
   6   5  -4 2.07919 3.04599   1
   6   5  -4 10.7872 6.83423  25
  -6  -5   4 0.62807 1.27203  28
  -6  -5   4 -2.3158 3.33355   2
  -6  -5   4 2.84971 1.53352   3
   5   5  -4 6.16316 2.40800  11
   5   5  -4 6.20268 3.15143   1
   5   5  -4 1.64536 5.75153  25
   5   5  -4 -3.7965 4.66934  22
  -5  -5   4 10.5480 2.58331  12
  -5  -5   4 7.33556 2.92057   2
  -5  -5   4 8.85623 3.11526  27
  -5  -5   4 10.9346 1.99047  28
   4   5  -4 4.48894 4.98015  25
   4   5  -4 3.57432 2.39032  11
   4   5  -4 4.96981 2.81983   1
  -4  -5   4 6.20574 1.93642   3
  -4  -5   4 6.72266 2.76921  12
  -4  -5   4 5.82938 1.83053  28
   3   5  -4 56.1643 7.35912  25
  -3  -5   4 45.1749 4.23937   2
  -3  -5   4 45.7099 5.24024  12
  -3  -5   4 41.3879 4.28298   3
   2   5  -4 12.1151 3.23600   1
   2   5  -4 17.7530 6.58907  15
  -2  -5   4 13.6891 2.75658  27
  -2  -5   4 14.0577 2.16500  28
  -2  -5   4 11.0083 5.45667   5
  -2  -5   4 16.7592 2.35289   3
   1   5  -4 1.19036 5.19428  15
   1   5  -4 7.61804 6.89788  25
   1   5  -4 2.95557 6.14465   8
   1   5  -4 3.64314 2.62469   1
   1   5  -4 10.3687 3.63181  11
  -1  -5   4 1.49434 4.78407   5
  -1  -5   4 4.35905 1.60301  28
  -1  -5   4 5.51823 1.77550   3
   0   5  -4 1.71253 3.28339  11
   0   5  -4 2.28396 5.51214  15
   0   5  -4 5.55255 2.88028   1
   0  -5   4 4.15110 1.48134  28
   0  -5   4 -0.1559 5.26044   5
   0  -5   4 4.28846 1.53415   3
   0  -5   4 5.38424 2.13483  27
  -1   5  -4 29.3134 4.33921  11
  -1   5  -4 37.5092 5.41632   1
  -1   5  -4 12.9119 6.57424  15
   1  -5   4 26.6775 3.05858  27
   1  -5   4 30.3081 2.94441   2
   1  -5   4 27.0749 4.49568  17
   1  -5   4 21.4376 3.05327   4
   1  -5   4 23.2155 2.71116   3
  -2   5  -4 3.34978 2.89106  11
  -2   5  -4 4.78606 7.52179  15
  -2   5  -4 2.12185 3.99843   1
   2  -5   4 6.96132 6.85602   5
   2  -5   4 -0.5313 2.47356   2
   2  -5   4 6.30137 2.46711   4
   2  -5   4 1.78711 2.40087  27
   2  -5   4 4.95028 1.50558  28
   2  -5   4 6.86783 1.49279   3
  -3   5  -4 -1.2262 4.62860   1
   3  -5   4 0.27728 0.96757   3
   3  -5   4 0.07504 1.85036  27
   3  -5   4 0.76050 1.45461   4
   3  -5   4 2.16399 2.10312  17
  -4   5  -4 2.33327 2.75168  11
  -4   5  -4 8.78618 3.21807   7
   4  -5   4 3.45906 1.67974  17
   4  -5   4 1.16372 1.12714   4
   7   4  -4 12.0860 2.97046  16
   7   4  -4 6.67062 4.53533   1
   7   4  -4 12.9455 2.46350  11
  -7  -4   4 15.3931 2.21683   3
  -7  -4   4 12.5877 2.02504   2
   6   4  -4 4.11001 3.34556   1
   6   4  -4 -8.7606 5.48933  25
   6   4  -4 3.99290 5.56558  22
   6   4  -4 2.61742 2.07065  11
   6   4  -4 2.07491 3.42745  16
  -6  -4   4 4.06688 1.85190   3
  -6  -4   4 6.98633 2.24996   2
  -6  -4   4 3.45064 3.47407   7
   5   4  -4 0.83956 2.79776   1
   5   4  -4 -0.5235 4.61263  25
   5   4  -4 3.03143 4.12802  22
   5   4  -4 1.15682 2.01668  11
  -5  -4   4 4.48095 2.41891   2
  -5  -4   4 4.91949 3.49876   7
  -5  -4   4 7.16729 2.42483  12
  -5  -4   4 7.06335 2.15757   3
   4   4  -4 35.9677 4.02281  11
   4   4  -4 36.8612 6.33392  25
  -4  -4   4 29.2020 3.65162   2
  -4  -4   4 27.4731 3.52801   3
  -4  -4   4 28.0007 3.74666  12
   3   4  -4 0.74656 5.82126   6
   3   4  -4 1.38132 3.61780  25
   3   4  -4 7.71367 2.87537  11
   3   4  -4 -4.6741 5.34876  15
  -3  -4   4 2.77077 2.21417   2
  -3  -4   4 4.26119 2.39359   3
   2   4  -4 7.48821 2.82594  11
   2   4  -4 0.86204 4.83533   6
   2   4  -4 0.45545 2.99767  25
   2   4  -4 1.19077 3.68781  15
  -2  -4   4 0.32346 3.24812   5
  -2  -4   4 5.71785 2.60905   3
  -2  -4   4 9.86224 2.41576   2
  -2  -4   4 5.26038 1.88517  28
   1   4  -4 3.04175 3.14307  15
   1   4  -4 9.82187 3.22573  11
   1   4  -4 6.70225 4.36276   6
   1   4  -4 7.39060 2.56151   1
   1   4  -4 9.13528 3.48688  25
  -1  -4   4 9.19257 1.99628  28
  -1  -4   4 9.91164 3.56681   5
  -1  -4   4 9.13377 2.03529   3
  -1  -4   4 4.07343 3.18023  21
   0   4  -4 42.1453 10.1926  25
   0   4  -4 33.4254 7.28192  15
   0   4  -4 48.4718 5.07493   1
   0   4  -4 51.6785 4.90664  11
   0   4  -4 44.4949 9.06623  18
   0  -4   4 48.7969 4.65352  27
   0  -4   4 44.9557 4.07551  28
   0  -4   4 39.3090 5.26530  21
   0  -4   4 51.5840 4.37037   2
   0  -4   4 33.3297 6.98343   5
   0  -4   4 45.6709 4.13905   3
  -1   4  -4 265.824 19.5975  11
  -1   4  -4 259.914 20.1938   1
  -1   4  -4 216.505 21.7961  15
   1  -4   4 263.119 20.2203  21
   1  -4   4 211.279 21.3900   5
   1  -4   4 258.610 18.7560   3
   1  -4   4 255.885 18.6193  28
   1  -4   4 254.363 19.1230  27
   1  -4   4 262.764 18.8046   2
  -2   4  -4 4.43226 6.06583  18
  -2   4  -4 8.40144 3.29343   1
  -2   4  -4 7.39343 3.07374  11
  -2   4  -4 1.76971 4.77043  15
   2  -4   4 8.98743 1.66000   3
   2  -4   4 11.7612 3.36460  17
   2  -4   4 11.1642 2.22949  27
   2  -4   4 6.39362 1.64407  28
   2  -4   4 11.9161 2.20098   2
   2  -4   4 19.7511 7.32929   5
  -3   4  -4 48.9468 7.19988   1
  -3   4  -4 44.6385 5.32687  11
   3  -4   4 31.1338 9.77030   5
   3  -4   4 42.3443 4.89823  17
   3  -4   4 50.1826 4.20753   3
   3  -4   4 45.7986 4.24103   2
  -4   4  -4 113.694 9.96345  11
  -4   4  -4 97.4190 11.2331   1
  -4   4  -4 112.124 10.4129   7
   4  -4   4 108.938 8.46788   2
  -5   4  -4 -3.0484 2.86145   7
  -5   4  -4 -0.6049 3.37684  11
   5  -4   4 -1.6787 1.33532  17
   5  -4   4 0.66885 1.02325   4
   7   3  -4 4.53991 2.97389  11
   7   3  -4 1.65420 1.70660  16
  -7  -3   4 3.04655 3.13379   7
  -7  -3   4 3.55446 1.77575   2
   6   3  -4 1.02473 2.01343  11
   6   3  -4 -6.9664 5.11947  22
   6   3  -4 -2.0874 5.35739  25
   6   3  -4 0.34195 3.48424   1
  -6  -3   4 2.54593 2.69489   2
  -6  -3   4 1.86164 2.88368   3
  -6  -3   4 0.66803 3.38240   7
   5   3  -4 -0.6532 2.16320  11
   5   3  -4 0.83976 4.02006  25
   5   3  -4 0.53404 2.75259   1
   5   3  -4 -1.0349 3.50718  22
  -5  -3   4 3.64630 2.83410   2
  -5  -3   4 -1.4746 3.28230   7
   4   3  -4 1.73106 6.05252   6
   4   3  -4 7.27625 2.36396  11
   4   3  -4 6.67745 2.95740   1
   4   3  -4 4.99223 3.59420  25
  -4  -3   4 10.8940 2.82171   2
  -4  -3   4 11.6986 2.65183  12
  -4  -3   4 15.2855 3.10474   3
  -4  -3   4 5.98666 3.23455   7
   3   3  -4 6.23743 2.31349   1
   3   3  -4 0.58847 2.71255  25
   3   3  -4 3.08384 2.12561  11
   3   3  -4 -0.7283 3.72791   6
   3   3  -4 3.39136 3.75100  15
  -3  -3   4 5.29178 2.82808   2
  -3  -3   4 6.30953 3.10331   7
  -3  -3   4 10.7522 2.89453  12
   2   3  -4 13.8484 2.80119  11
   2   3  -4 10.7662 3.88433  25
   2   3  -4 7.97673 4.11477   6
  -2  -3   4 14.2879 4.31099   5
  -2  -3   4 16.9513 2.75757   3
  -2  -3   4 23.7146 4.54053  21
  -2  -3   4 12.1900 2.78156   2
   1   3  -4 5.05702 2.52207   6
   1   3  -4 2.61262 2.58416  15
   1   3  -4 4.26470 2.32544  25
   1   3  -4 3.13856 2.51063  11
   1   3  -4 2.01834 1.84940   1
  -1  -3   4 6.32989 2.06436  28
  -1  -3   4 3.45236 2.27019   3
  -1  -3   4 1.91401 2.96202   5
  -1  -3   4 3.91429 2.97852  21
   0   3  -4 13.3668 3.20063  25
   0   3  -4 17.2873 4.31834   8
   0   3  -4 11.9806 2.65052   1
   0   3  -4 10.4311 3.10407  18
   0   3  -4 15.7650 3.18080  11
   0   3  -4 11.2069 4.34388  15
   0  -3   4 14.2419 2.55673   2
   0  -3   4 10.6668 2.21437  28
   0  -3   4 14.8964 2.09492   3
   0  -3   4 9.24795 4.65335   5
   0  -3   4 8.58406 3.03545  21
  -1   3  -4 -1.4799 3.21770  18
  -1   3  -4 3.86368 2.76392  11
  -1   3  -4 1.04994 2.05756   1
  -1   3  -4 0.19084 2.74699  15
   1  -3   4 1.93380 3.53535   5
   1  -3   4 3.08457 2.44853  21
   1  -3   4 7.03637 1.79663  28
   1  -3   4 4.28736 1.65262   3
   1  -3   4 7.41454 2.52933  27
  -2   3  -4 25.8136 6.09540  18
  -2   3  -4 16.8966 4.55343   1
  -2   3  -4 20.0420 6.01248  15
  -2   3  -4 25.2388 3.69928  11
   2  -3   4 22.9031 2.97148   2
   2  -3   4 24.9974 3.97613  21
   2  -3   4 21.4763 3.90163  17
   2  -3   4 24.1582 6.45355   5
   2  -3   4 27.6090 4.30860  27
   2  -3   4 28.8674 2.73408   3
  -3   3  -4 40.7622 6.03354   1
  -3   3  -4 32.9574 8.32641  18
  -3   3  -4 42.6540 5.14675  11
  -3   3  -4 31.4289 8.15840  15
   3  -3   4 56.7319 8.91238   5
   3  -3   4 45.8183 5.37573  17
   3  -3   4 53.1531 4.26802   3
   3  -3   4 43.9992 4.40636  27
   3  -3   4 42.1797 4.36521   2
   3  -3   4 46.0886 3.87859  28
  -4   3  -4 14.5296 4.00895   7
  -4   3  -4 16.6774 5.64003   1
  -4   3  -4 7.65567 6.39809  18
  -4   3  -4 19.1704 3.94915  11
   4  -3   4 23.2470 3.41876  17
   4  -3   4 32.3718 10.3810   5
   4  -3   4 23.5867 2.58764   2
  -5   3  -4 2.23372 3.07686   7
  -5   3  -4 2.27490 3.34824  11
  -5   3  -4 9.27290 7.23211   1
   5  -3   4 0.83483 1.34532  17
   5  -3   4 0.92923 1.09998   2
   7   2  -4 3.37864 1.65794  26
   7   2  -4 1.65147 4.18044   9
   7   2  -4 4.54183 1.60418  16
  -7  -2   4 -0.7861 3.11849   7
  -7  -2   4 6.36101 2.29711   2
   6   2  -4 -2.4697 5.04897  22
   6   2  -4 1.87080 3.95676   9
   6   2  -4 -1.8751 8.89804  25
   6   2  -4 7.21223 2.46910  16
   6   2  -4 0.49779 2.28175  11
   6   2  -4 2.24510 4.58057   1
  -6  -2   4 2.01629 3.07710   7
  -6  -2   4 8.66734 2.80179   2
   5   2  -4 16.0220 5.46598  25
   5   2  -4 17.3349 3.93163   1
   5   2  -4 19.0320 2.92626  11
   5   2  -4 22.8448 3.16799  16
   5   2  -4 19.5530 4.18607   9
   5   2  -4 13.6965 5.17968  22
  -5  -2   4 2.00987 8.87918  24
  -5  -2   4 15.2252 3.37561   2
  -5  -2   4 17.7240 4.23195   7
   4   2  -4 -0.8531 2.86187  25
   4   2  -4 4.77623 5.49378   6
   4   2  -4 -1.0660 2.41417   1
   4   2  -4 0.33633 1.96133  11
   4   2  -4 2.50365 2.25118  22
  -4  -2   4 6.98540 6.24028  24
  -4  -2   4 4.52666 3.80324   7
  -4  -2   4 -2.9227 6.18899  10
  -4  -2   4 8.35756 3.06785   2
   3   2  -4 -1.1955 2.34036  25
   3   2  -4 0.83784 1.96115   1
   3   2  -4 4.90906 2.17289  11
   3   2  -4 0.20355 2.91269   6
   3   2  -4 -0.5072 2.70724  15
  -3  -2   4 9.59024 2.77353  12
  -3  -2   4 -1.0693 3.59909  10
  -3  -2   4 1.19730 2.93054   7
   2   2  -4 77.9165 7.67409  25
   2   2  -4 79.9997 6.96950   1
   2   2  -4 72.1491 7.40869   6
   2   2  -4 72.5968 7.87379  15
   2   2  -4 87.1107 6.73435  11
  -2  -2   4 69.8193 6.63411   2
  -2  -2   4 80.6692 7.44981   7
   1   2  -4 -0.0706 1.86077  15
   1   2  -4 2.14750 2.11858  11
   1   2  -4 1.11755 1.92018  18
   1   2  -4 2.52765 1.70533   6
   1   2  -4 1.75552 1.73110   1
   1   2  -4 1.26682 2.02266  25
  -1  -2   4 3.48521 2.17360   5
  -1  -2   4 4.73875 2.71219  21
   0   2  -4 13.4152 3.39718   8
   0   2  -4 12.3617 3.47742  18
   0   2  -4 14.6169 2.80891  25
   0   2  -4 12.3649 3.58926  15
   0   2  -4 12.8756 2.48022   1
   0   2  -4 13.6995 2.65881  11
   0  -2   4 11.4404 3.13071   5
   0  -2   4 11.5453 2.63868  21
  -1   2  -4 17.4061 4.31906  18
  -1   2  -4 25.6653 3.23594  11
  -1   2  -4 25.0351 3.24617   1
  -1   2  -4 19.6618 4.77999  15
  -1   2  -4 29.1543 4.34547   8
   1  -2   4 24.7956 2.68811   3
   1  -2   4 19.9528 2.97469   2
   1  -2   4 20.5029 4.38133   5
   1  -2   4 20.6594 3.84516  14
  -2   2  -4 12.1641 4.62078  15
   2  -2   4 9.57329 3.29425  17
   2  -2   4 10.2699 2.36947   2
   2  -2   4 9.69511 1.82575   3
   2  -2   4 1.45864 3.77128   5
   2  -2   4 11.9549 2.43622  28
  -3   2  -4 21.8399 5.90827  18
  -3   2  -4 12.5178 3.14053  11
  -3   2  -4 11.3627 4.48242   1
   3  -2   4 18.6219 3.29784  21
   3  -2   4 16.5677 6.03224   5
   3  -2   4 20.5544 2.64661   2
   3  -2   4 16.7095 2.25564   3
   3  -2   4 20.3167 3.63504  17
  -4   2  -4 -5.5670 4.90281  18
  -4   2  -4 1.52636 4.19950   1
  -4   2  -4 -0.5373 4.92865  15
   4  -2   4 -0.6636 5.64057   5
  -5   2  -4 2.49849 3.52424  11
  -5   2  -4 10.7749 7.19800  18
  -5   2  -4 1.02993 10.3054  15
  -5   2  -4 0.55122 3.13631   7
  -5   2  -4 14.1309 6.56068   1
   5  -2   4 3.52676 1.74113   2
   5  -2   4 7.76388 2.65380  17
   5  -2   4 1.21549 8.81158   5
  -6   2  -4 17.7029 3.87526   7
   6  -2   4 12.5188 1.97464   2
   7   1  -4 15.4281 3.32231   9
   7   1  -4 11.5614 1.98726  26
   7   1  -4 12.4492 2.05469  16
  -7  -1   4 7.27670 3.47077   7
  -7  -1   4 11.9933 2.60198   2
   6   1  -4 2.67061 2.70122   2
   6   1  -4 3.20024 2.77010   9
   6   1  -4 2.51388 6.81796  22
   6   1  -4 -5.1250 6.13192  11
   6   1  -4 -0.1421 2.04183  16
  -6  -1   4 -0.4394 3.05656   7
   5   1  -4 11.0245 2.71541  16
   5   1  -4 15.7917 5.50312  25
   5   1  -4 5.51274 3.54165  22
   5   1  -4 16.8405 3.46947   2
   5   1  -4 11.9040 2.94978  11
   5   1  -4 17.4483 3.39733   9
  -5  -1   4 23.1256 4.11468   7
  -5  -1   4 1.89959 6.14779  24
  -5  -1   4 18.3389 3.41195   2
   4   1  -4 5.41554 2.95204   9
   4   1  -4 3.61485 4.53545   6
   4   1  -4 1.01995 2.13046  22
   4   1  -4 2.74280 2.97664  25
   4   1  -4 2.38531 2.59405   1
  -4  -1   4 4.48879 3.14170   7
  -4  -1   4 4.45647 4.15399  24
  -4  -1   4 -3.1422 5.02306  10
  -4  -1   4 -0.1394 5.80089  20
   3   1  -4 114.512 10.7044  25
   3   1  -4 128.502 11.3508   6
   3   1  -4 129.786 9.95100  11
   3   1  -4 122.711 9.89263   9
   3   1  -4 104.892 11.1997  15
   3   1  -4 120.541 10.3641   1
   3   1  -4 123.732 9.90955  16
  -3  -1   4 114.626 11.1519  20
  -3  -1   4 141.126 10.8988  10
  -3  -1   4 122.481 10.6905  24
  -3  -1   4 117.956 10.6375  21
  -3  -1   4 125.053 10.1319   2
  -3  -1   4 118.230 10.5826   7
   2   1  -4 187.089 16.5380  15
   2   1  -4 206.914 15.6337   1
   2   1  -4 198.025 15.9040  25
   2   1  -4 195.431 15.8546   6
   2   1  -4 214.073 15.3067  11
  -2  -1   4 200.954 15.5232  24
  -2  -1   4 212.394 15.7767  21
  -2  -1   4 195.784 15.6832  20
  -2  -1   4 207.143 15.4314  10
  -2  -1   4 179.582 15.7107   7
   1   1  -4 2.82697 1.92368  11
   1   1  -4 2.97253 1.62468   1
   1   1  -4 1.60281 1.86024  15
   1   1  -4 1.84073 1.42147   6
   1   1  -4 2.11586 1.75655  25
  -1  -1   4 3.99117 1.79595   5
  -1  -1   4 2.55884 1.63104  24
  -1  -1   4 2.16946 0.89974  20
  -1  -1   4 7.44715 2.71678  21
  -1  -1   4 3.03686 1.23934  10
  -1  -1   4 3.71591 2.15141  14
  -1  -1   4 4.26993 2.63870  29
   0   1  -4 54.8304 5.10827   1
   0   1  -4 47.6879 5.72599  18
   0   1  -4 52.8694 6.30297  15
   0   1  -4 57.5822 5.00135  11
   0   1  -4 62.3503 5.39908  25
   0   1  -4 60.6347 5.70495   8
   0  -1   4 53.3248 5.78479  14
   0  -1   4 48.5493 5.87136  29
   0  -1   4 61.1934 4.54869  20
   0  -1   4 49.0238 5.31208   5
   0  -1   4 51.7433 5.27465  21
   0  -1   4 54.2909 5.39953  10
  -1   1  -4 273.454 20.8145   8
  -1   1  -4 288.988 20.8364  25
  -1   1  -4 265.367 20.5005  11
  -1   1  -4 252.505 21.7523  15
  -1   1  -4 279.135 20.8350   1
  -1   1  -4 247.908 21.7382  18
   1  -1   4 271.559 21.2639  29
   1  -1   4 283.806 21.3513  14
   1  -1   4 286.878 20.8482  21
   1  -1   4 251.759 21.0718   5
   1  -1   4 319.262 21.1449  20
  -2   1  -4 16.8199 3.23382   1
  -2   1  -4 10.4240 3.03706  25
  -2   1  -4 19.3242 3.88005   8
  -2   1  -4 10.5649 3.81410  15
  -2   1  -4 24.7094 3.13816  11
  -2   1  -4 16.8079 3.79525  18
   2  -1   4 18.0885 2.52181   2
   2  -1   4 23.0075 3.53911  17
   2  -1   4 16.5456 2.82924  21
   2  -1   4 11.1815 3.28813  22
   2  -1   4 8.87126 3.78308   5
   2  -1   4 18.1998 3.44857  14
  -3   1  -4 22.9981 5.94914   8
   3  -1   4 8.71294 1.93138   3
   3  -1   4 11.2330 2.51143   2
   3  -1   4 3.00031 3.80759   5
   3  -1   4 11.5032 3.23235  17
  -4   1  -4 21.3638 8.23770   1
  -4   1  -4 19.2577 7.08391  15
  -4   1  -4 33.3526 7.31635  18
   4  -1   4 35.4881 4.22441  17
   4  -1   4 28.9372 6.94842   5
   4  -1   4 24.2856 3.09215   2
   4  -1   4 30.6367 4.26554  21
   4  -1   4 31.7939 6.51690  22
   4  -1   4 29.8131 3.78242   9
  -5   1  -4 1.74134 3.88147  11
  -5   1  -4 2.69469 8.40771  18
  -5   1  -4 -1.5039 3.31436   7
  -5   1  -4 -16.608 13.3311  15
   5  -1   4 7.32520 2.87083  17
   5  -1   4 0.04715 2.90160   9
   5  -1   4 2.76569 8.21945   5
   5  -1   4 6.18409 6.18656  22
  -6   1  -4 1.06005 3.28795   7
  -6   1  -4 4.51745 4.37571   2
   6  -1   4 3.32575 2.62547   9
   6  -1   4 2.83929 2.04788  17
   6  -1   4 3.84265 1.66988   2
  -7   1  -4 -3.3115 3.02565   7
  -7   1  -4 4.13237 4.04009   2
   7  -1   4 -0.7217 1.64258  17
   7  -1   4 0.26158 1.08329   2
   7   0  -4 2.04519 1.36522   2
   7   0  -4 5.94749 2.64883   9
   7   0  -4 4.01521 1.50010  16
  -7   0   4 1.94897 3.28150   7
  -7   0   4 2.13451 2.38911   2
   6   0  -4 15.2459 2.99194  26
   6   0  -4 19.4687 2.95500  16
   6   0  -4 17.8178 3.09718   9
  -6   0   4 19.3559 4.75152   2
  -6   0   4 24.6916 4.20947   7
  -6   0   4 11.7894 10.3570  24
   5   0  -4 12.4627 3.00467   9
  -5   0   4 16.2584 3.76587   2
  -5   0   4 22.3766 7.70813  24
  -5   0   4 8.41403 8.94645  10
  -5   0   4 16.2279 4.29538   7
   4   0  -4 3.61483 3.22458  25
   4   0  -4 3.31753 2.29210   9
   4   0  -4 6.76220 2.45036   2
   4   0  -4 4.74320 2.49073  11
   4   0  -4 -1.8905 2.49409  22
   4   0  -4 1.47409 3.12818  16
   4   0  -4 -0.9151 5.33233   6
   4   0  -4 -4.8243 3.58192   1
  -4   0   4 6.04406 4.78583   1
  -4   0   4 -1.4667 5.40851  20
  -4   0   4 0.61103 3.21909   7
  -4   0   4 -2.8747 3.89131  24
  -4   0   4 1.88795 3.38279  11
  -4   0   4 2.66109 4.86616  10
  -4   0   4 -1.4607 3.84036  18
   3   0  -4 88.1604 7.64938   9
   3   0  -4 82.8850 7.55464   2
   3   0  -4 92.1967 8.24151  25
   3   0  -4 81.9395 7.86604   1
   3   0  -4 104.171 9.21752   6
   3   0  -4 86.0228 7.81119  22
   3   0  -4 93.8476 7.52159  16
  -3   0   4 85.9335 8.72360  24
  -3   0   4 89.9205 9.41634  20
  -3   0   4 88.1822 8.39431   1
  -3   0   4 94.4324 8.23628   2
  -3   0   4 92.6724 8.97363  10
  -3   0   4 90.9353 8.92462  11
   2   0  -4 40.7089 4.34350  11
   2   0  -4 52.1680 5.16571   6
   2   0  -4 43.7162 4.67377   1
   2   0  -4 43.7974 5.03312  25
   2   0  -4 39.2938 4.47309   9
   2   0  -4 52.9919 6.61586  29
   2   0  -4 48.0381 6.00143  15
  -2   0   4 48.8449 5.10095  24
  -2   0   4 58.4816 5.52068   7
  -2   0   4 45.7207 7.15503  29
  -2   0   4 47.1376 5.15305   1
  -2   0   4 43.8044 5.15959  20
  -2   0   4 50.9546 4.96185  11
  -2   0   4 39.5320 5.38857  10
   1   0  -4 31.1183 4.86626  15
   1   0  -4 38.8793 5.26982  29
   1   0  -4 36.0990 3.56433  11
   1   0  -4 28.2120 3.78418  25
   1   0  -4 40.2941 3.72237   6
   1   0  -4 34.6213 3.76221   1
  -1   0   4 37.9553 3.98918  11
  -1   0   4 38.8004 3.67451  10
  -1   0   4 29.0594 4.38110  14
  -1   0   4 30.1301 3.62585  20
  -1   0   4 33.2898 4.00883   1
   0   0  -4 1046.39 81.3216  25
   0   0  -4 998.748 81.3434   8
   0   0  -4 1113.50 81.1513   1
   0   0  -4 1011.27 80.9207  11
   0   0  -4 1128.38 81.9049  18
   0   0  -4 1246.75 82.4151  15
   0   0   4 1099.50 81.6282  14
   0   0   4 1200.46 81.4946  29
   0   0   4 1289.53 81.3671   1
   0   0   4 1083.58 81.3292  21
   0   0   4 1137.77 81.4090  20
   0   0   4 1207.95 80.8358   5
  -1   0  -4 3.05426 2.48359   8
  -1   0  -4 -0.1132 1.83294  15
  -1   0  -4 0.39977 1.74439   1
  -1   0  -4 0.03287 1.66347  18
  -1   0  -4 0.87665 2.09830  11
  -1   0  -4 -0.1855 1.40832  25
   1   0   4 0.61183 1.79064  14
   1   0   4 1.44941 1.55683   5
   1   0   4 0.69207 2.12914  11
   1   0   4 -1.6619 1.77348  29
   1   0   4 -1.0312 1.89345  21
   1   0   4 0.21780 1.78245   1
  -2   0  -4 90.9949 7.64697   1
  -2   0  -4 72.3513 7.18325  11
  -2   0  -4 75.0083 7.34133  25
  -2   0  -4 100.308 8.61261  15
  -2   0  -4 83.9762 8.69831  18
  -2   0  -4 85.4844 7.61761   8
   2   0   4 78.0631 7.64788  14
   2   0   4 86.9047 7.21563  21
   2   0   4 79.6317 7.09892  11
   2   0   4 82.9353 8.51207  29
   2   0   4 84.7101 8.00652  22
   2   0   4 101.687 8.08991   5
   2   0   4 86.7340 8.21931   1
  -3   0  -4 375.180 26.1384   8
  -3   0  -4 362.681 26.3228   1
  -3   0  -4 353.470 26.9418  15
  -3   0  -4 338.168 25.5457   2
  -3   0  -4 316.550 25.8495  11
   3   0   4 338.622 26.5848   5
   3   0   4 324.484 25.2359   2
   3   0   4 352.291 25.6732  21
   3   0   4 333.654 26.2357  14
   3   0   4 333.444 25.6440  17
   3   0   4 323.719 25.5156   1
   3   0   4 345.723 25.4034  11
  -4   0  -4 33.2656 6.69181  15
  -4   0  -4 31.3378 4.44313   2
  -4   0  -4 36.1420 5.99438   8
  -4   0  -4 28.9945 4.30026  11
  -4   0  -4 31.8444 6.85838  18
  -4   0  -4 25.4215 4.56540   7
  -4   0  -4 26.4136 5.81464   1
   4   0   4 25.3975 5.40739  22
   4   0   4 23.0429 3.58735   9
   4   0   4 28.2978 4.10361  21
   4   0   4 34.3431 4.13374  17
   4   0   4 27.3082 4.85930  14
   4   0   4 35.5896 6.58408   5
   4   0   4 20.7541 3.46185   2
   4   0   4 15.7629 5.38111   1
  -5   0  -4 0.00904 5.71616  18
  -5   0  -4 1.08803 3.48959   7
   5   0   4 -5.8105 3.78632  22
   5   0   4 0.65248 2.49325   9
   5   0   4 5.56664 5.85227   5
   5   0   4 -6.5902 5.45845  14
  -6   0  -4 19.3088 9.96063  18
  -6   0  -4 28.2384 4.51989   7
  -6   0  -4 19.4399 4.49416   2
   6   0   4 25.5224 2.89737   2
   6   0   4 21.6123 2.92752   9
   6   0   4 1.08885 9.33955   5
   6   0   4 20.1332 3.35515  17
  -7   0  -4 2.59183 2.84793   2
  -7   0  -4 3.00793 3.54800   7
   7   0   4 3.79205 2.43670  17
   7   0   4 2.61186 2.19252   9
   7   0   4 1.32749 1.43723   2
   7  -1  -4 1.01313 1.09472  16
   7  -1  -4 1.12200 1.30374   2
   7  -1  -4 -0.6191 1.94712   9
  -7   1   4 -0.9419 2.85620   2
  -7   1   4 2.26650 4.46024   7
   6  -1  -4 8.74083 2.47929   9
   6  -1  -4 7.00128 1.96554   2
  -6   1   4 13.2232 3.98155   7
  -6   1   4 18.4788 12.7469  24
  -6   1   4 4.74341 3.21256   2
   5  -1  -4 2.08509 2.94752   9
   5  -1  -4 8.56671 2.28113  16
   5  -1  -4 6.80893 2.25542   2
  -5   1   4 11.9066 4.10972   2
  -5   1   4 -6.3153 10.6997  10
  -5   1   4 10.8552 7.04877   1
  -5   1   4 4.12926 5.55830  24
   4  -1  -4 18.8496 3.07814  16
   4  -1  -4 16.3403 2.56194   2
   4  -1  -4 20.1753 3.45975  26
  -4   1   4 11.6739 3.82999  11
  -4   1   4 17.4466 4.97533   1
  -4   1   4 22.0475 4.38180   7
  -4   1   4 8.33141 5.50192  10
  -4   1   4 17.8990 7.40448  20
   3  -1  -4 1.49146 4.12287  25
   3  -1  -4 5.55127 2.02831  27
   3  -1  -4 3.35845 3.29537   6
   3  -1  -4 5.08240 2.82533  16
   3  -1  -4 6.14112 2.18428   9
   3  -1  -4 -1.1170 2.74824  22
  -3   1   4 2.40624 2.55488  24
  -3   1   4 3.22690 3.62013  20
  -3   1   4 3.39270 3.21054  10
  -3   1   4 8.38918 3.17015  11
  -3   1   4 1.06828 2.88710   1
   2  -1  -4 30.0569 5.60891  15
   2  -1  -4 37.8970 7.15999  29
   2  -1  -4 42.9510 3.88837   9
   2  -1  -4 33.7123 4.23864  11
   2  -1  -4 34.3187 4.84529   8
   2  -1  -4 36.2128 4.05196  22
   2  -1  -4 31.2696 4.01532  25
   2  -1  -4 39.1068 4.59717   6
  -2   1   4 37.8072 4.50115  11
  -2   1   4 45.3042 5.58345   7
  -2   1   4 43.1149 8.11155  29
  -2   1   4 41.1105 4.79666  24
  -2   1   4 33.8096 4.35580   1
  -2   1   4 39.3880 5.07392  20
  -2   1   4 34.4718 4.57403  10
   1  -1  -4 153.975 11.7459   9
   1  -1  -4 143.633 13.1756  15
   1  -1  -4 164.138 12.6282  29
   1  -1  -4 133.251 11.7429   6
   1  -1  -4 159.122 12.0122  25
   1  -1  -4 140.261 12.0617   8
  -1   1   4 164.762 12.5516  20
  -1   1   4 165.803 12.7834  29
  -1   1   4 145.694 12.0748  11
  -1   1   4 144.815 12.2550   1
  -1   1   4 158.609 12.2427  10
  -1   1   4 154.133 12.2677  14
   0  -1  -4 0.64212 1.37852  25
   0  -1  -4 2.15831 1.95595  15
   0  -1  -4 1.30475 0.70413   6
   0   1   4 0.61677 2.24667  11
   0   1   4 0.96538 1.68149  14
   0   1   4 0.29116 1.08395  20
   0   1   4 1.35632 2.11573  29
   0   1   4 1.87689 1.72661   1
  -1  -1  -4 17.2375 2.60551  25
  -1  -1  -4 18.2592 2.82095   8
  -1  -1  -4 13.4223 4.77520   1
  -1  -1  -4 14.9676 3.41857  18
  -1  -1  -4 18.9908 3.61443  15
   1   1   4 19.7611 3.88257  29
   1   1   4 17.6000 3.24607  14
   1   1   4 19.1178 3.63460  29
   1   1   4 21.6532 2.85006   1
   1   1   4 16.5564 2.92134  11
   1   1   4 16.2590 4.58595  21
  -2  -1  -4 9.54201 2.55817  25
  -2  -1  -4 12.5245 2.97221   8
  -2  -1  -4 8.80377 3.07661  15
  -2  -1  -4 6.15413 2.86086   6
  -2  -1  -4 10.6526 3.56332  18
   2   1   4 9.58672 3.00994  21
   2   1   4 16.9557 4.20318  29
   2   1   4 9.98167 2.66235  14
   2   1   4 9.76074 2.29858  11
   2   1   4 8.18074 2.13220   1
   2   1   4 11.9608 2.95256  22
  -3  -1  -4 132.575 11.6913   2
  -3  -1  -4 140.232 12.2297   8
  -3  -1  -4 169.938 12.9632  15
  -3  -1  -4 144.837 13.5719  18
   3   1   4 154.050 12.0570   1
   3   1   4 151.683 11.8949  21
   3   1   4 137.133 11.7168  11
   3   1   4 158.171 12.7353  14
   3   1   4 156.773 12.9379  22
  -4  -1  -4 16.6353 4.53709   8
  -4  -1  -4 24.0008 3.80604   2
  -4  -1  -4 15.2333 5.37495  18
  -4  -1  -4 20.8691 4.45853   7
  -4  -1  -4 16.5383 6.04202  15
   4   1   4 17.2557 3.21202  11
   4   1   4 24.1390 3.63047  17
   4   1   4 12.3130 4.20740  22
   4   1   4 20.8226 3.92164  14
   4   1   4 14.3539 3.21947   1
  -5  -1  -4 -2.9600 4.79506  18
  -5  -1  -4 8.62554 3.23177   2
   5   1   4 1.68250 2.83440  11
   5   1   4 -0.3264 3.93622  22
   5   1   4 6.64231 2.41000   9
   5   1   4 4.66701 3.02145   2
   5   1   4 6.01206 3.60686  17
  -6  -1  -4 8.91355 3.34333   2
  -6  -1  -4 1.73623 9.12803  18
  -6  -1  -4 5.47380 4.11515   7
   6   1   4 10.6156 2.87691   2
   6   1   4 10.6702 3.09278  17
   6   1   4 18.7207 10.2432   5
   6   1   4 4.76458 5.75601  22
   6   1   4 1.96019 2.22688   9
   6   1   4 -1.9973 7.71244  14
  -7  -1  -4 -1.8211 3.62274   7
  -7  -1  -4 1.96200 2.18261   2
   7   1   4 6.41364 2.11686   9
   7   1   4 0.22384 2.11498   2
   7   1   4 2.96148 2.28355  16
   6  -2  -4 2.98935 2.17384   9
   6  -2  -4 0.49358 1.34685   2
   6  -2  -4 -0.0881 1.24989  16
  -6   2   4 6.07281 4.80299   7
   5  -2  -4 0.29711 1.89168   9
   5  -2  -4 2.39088 1.94875  16
   5  -2  -4 0.30357 1.89131   2
   5  -2  -4 -7.8901 11.5037   5
  -5   2   4 6.42391 7.66218   2
  -5   2   4 -7.3091 6.14220   1
  -5   2   4 3.90587 3.32009  11
  -5   2   4 4.19985 6.84557  24
  -5   2   4 1.01455 3.89840   7
  -5   2   4 -9.9093 8.84873  18
   4  -2  -4 8.17808 2.28897   2
   4  -2  -4 9.61419 2.46342  16
   4  -2  -4 6.35312 1.95964  27
   4  -2  -4 6.23894 2.31743   9
  -4   2   4 2.87639 3.90524   1
  -4   2   4 6.12432 3.39632  11
  -4   2   4 3.72861 4.26383   7
  -4   2   4 6.09403 7.56752  10
  -4   2   4 4.76296 4.78922  24
   3  -2  -4 14.9932 2.66525   9
   3  -2  -4 19.5324 2.87220  16
   3  -2  -4 15.3806 2.31592  27
   3  -2  -4 23.9065 3.79425  26
  -3   2   4 10.6968 3.81444   1
  -3   2   4 9.04507 5.10456  20
  -3   2   4 13.7408 4.54694  24
  -3   2   4 10.5641 3.61757  11
  -3   2   4 26.5337 5.11806   7
  -3   2   4 12.8893 4.87296  10
   2  -2  -4 224.278 17.7297  16
   2  -2  -4 228.119 17.6698   2
   2  -2  -4 242.273 17.6287  27
  -2   2   4 239.835 19.7940  20
  -2   2   4 242.466 18.4926  11
  -2   2   4 197.215 21.4755  24
  -2   2   4 263.889 19.3798  10
  -2   2   4 242.676 18.8231   1
   1  -2  -4 57.6986 4.86944  25
   1  -2  -4 48.9860 4.71415   9
  -1   2   4 49.6167 5.34260  10
  -1   2   4 39.5186 6.59878  29
  -1   2   4 52.1911 5.19096  11
  -1   2   4 54.5244 5.25127  14
  -1   2   4 46.5166 5.51125  20
  -1   2   4 43.3124 5.17242   1
   0  -2  -4 22.9402 3.70189   8
   0  -2  -4 19.8755 2.97222  25
   0  -2  -4 19.1683 4.27989  15
   0   2   4 17.7473 3.03959  14
   0   2   4 21.0769 3.65542  11
   0   2   4 18.4426 3.29490  20
   0   2   4 20.4810 4.19987  29
   0   2   4 17.4659 3.11119   1
  -1  -2  -4 313.108 24.4921  25
  -1  -2  -4 332.456 25.2976  15
  -1  -2  -4 319.080 24.5109   8
   1   2   4 363.232 24.7125  14
   1   2   4 334.552 24.2587  11
   1   2   4 317.024 24.4197  29
   1   2   4 325.209 24.4840  29
   1   2   4 311.144 24.3129   1
  -2  -2  -4 119.713 10.3663  15
  -2  -2  -4 117.054 10.0392  25
  -2  -2  -4 111.561 9.82843   8
  -2  -2  -4 109.036 10.7830  18
   2   2   4 120.858 10.1020  14
   2   2   4 122.468 9.89715  22
   2   2   4 111.647 10.1609  29
   2   2   4 121.354 9.47684  11
   2   2   4 123.403 9.62046   1
  -3  -2  -4 7.92135 2.82912   2
  -3  -2  -4 2.85155 2.54542  15
  -3  -2  -4 0.50968 2.23121  18
   3   2   4 2.14690 1.83253  14
   3   2   4 6.29354 2.27990  11
   3   2   4 -0.7279 1.89165  22
   3   2   4 0.01670 1.48756   1
  -4  -2  -4 33.9597 5.84986  18
  -4  -2  -4 31.2584 3.36987   4
  -4  -2  -4 34.3373 5.80000   7
  -4  -2  -4 32.1336 4.84477   8
   4   2   4 28.8108 3.79730  11
   4   2   4 43.7398 5.35465  14
   4   2   4 35.2701 4.16894   1
   4   2   4 36.2930 5.48300  22
  -5  -2  -4 6.42607 4.73047  18
  -5  -2  -4 7.66980 2.96006   2
  -5  -2  -4 1.43612 4.61682   7
   5   2   4 5.01649 2.71975   1
   5   2   4 2.27401 3.85132  22
   5   2   4 6.14924 3.62285  14
   5   2   4 3.97351 2.55399  11
  -6  -2  -4 -5.0766 4.64588   7
   6   2   4 -0.7692 3.81104   1
   6   2   4 -4.3499 5.87353  14
   6   2   4 -6.6563 6.60792  22
   6   2   4 1.78836 2.55745  11
   6   2   4 1.31183 2.06095   9
  -7  -2  -4 1.61340 2.25143   2
  -7  -2  -4 -2.9589 4.22063   7
   7   2   4 -1.8119 3.53379   2
   7   2   4 -2.2080 1.93551   9
  -8  -2  -4 10.9793 2.07278   2
   8   2   4 9.74084 1.34773  16
   8   2   4 10.3698 1.89014   9
   6  -3  -4 -0.1115 1.25394  16
   6  -3  -4 -0.1705 0.96089   2
   6  -3  -4 2.43297 1.93840   9
   5  -3  -4 1.67049 1.38713   2
   5  -3  -4 0.18666 1.61843  16
   5  -3  -4 1.26051 1.80361   9
  -5   3   4 -0.7370 11.9768  24
  -5   3   4 -0.1499 3.00074  11
   4  -3  -4 16.6731 2.68969   2
   4  -3  -4 21.8513 2.88455  16
   4  -3  -4 26.6593 3.47293   4
   4  -3  -4 19.0551 11.0531   5
   4  -3  -4 22.5922 3.61003   9
  -4   3   4 13.8425 7.40939  18
  -4   3   4 36.9057 11.8568  10
  -4   3   4 19.6324 8.02790   7
  -4   3   4 8.28967 8.10852  24
  -4   3   4 20.2748 5.26969   1
  -4   3   4 22.3229 4.47466  11
   3  -3  -4 15.1792 2.75685   9
   3  -3  -4 8.94163 6.11814   5
   3  -3  -4 12.1482 2.58753  16
   3  -3  -4 10.1281 2.33688   2
  -3   3   4 10.5581 3.93094   1
  -3   3   4 4.48208 7.44086  10
  -3   3   4 9.32801 3.47979  11
  -3   3   4 10.7009 4.19125  24
  -3   3   4 4.03721 6.95454  20
   2  -3  -4 12.3755 2.05441  27
   2  -3  -4 7.77812 2.20384   2
   2  -3  -4 2.35561 2.39119  16
  -2   3   4 4.20045 3.34701  10
  -2   3   4 2.54420 2.76461  24
  -2   3   4 0.21549 3.50566  20
  -2   3   4 8.13158 3.21668   1
  -2   3   4 2.42414 2.87272  11
   1  -3  -4 2.66023 3.10714   5
   1  -3  -4 7.95723 1.90275  27
   1  -3  -4 4.30928 2.00066   9
   1  -3  -4 10.9890 2.30103   2
   1  -3  -4 2.08734 2.73585  25
  -1   3   4 4.82386 2.64158  10
  -1   3   4 9.64179 3.66468  11
  -1   3   4 2.29833 2.23190   1
   0  -3  -4 42.4532 4.70925   5
   0  -3  -4 32.3850 4.38035  25
   0  -3  -4 48.4771 5.66563   8
   0   3   4 48.1588 5.19246  11
   0   3   4 37.1055 4.52334   1
   0   3   4 46.6399 4.61873  14
   0   3   4 44.8933 5.30062  20
  -1  -3  -4 105.200 8.84899  25
  -1  -3  -4 92.2011 8.95990   8
   1   3   4 109.873 8.99304  11
   1   3   4 113.894 8.72410   1
   1   3   4 94.4977 8.68954  14
  -2  -3  -4 96.5215 8.80287   8
   2   3   4 102.274 8.31403  22
   2   3   4 87.2542 8.58555  21
   2   3   4 102.330 8.16741  11
   2   3   4 94.9766 8.56130  14
   2   3   4 96.2979 8.06667   1
  -3  -3  -4 267.210 19.4908   4
  -3  -3  -4 234.267 19.6176  26
  -3  -3  -4 262.860 20.7605   8
  -3  -3  -4 238.257 20.0612  12
  -3  -3  -4 274.943 19.7429   2
   3   3   4 256.044 21.2887  14
   3   3   4 278.986 20.5703  22
   3   3   4 275.512 20.0719   1
   3   3   4 277.808 19.8247  11
  -4  -3  -4 40.5084 5.67797   8
  -4  -3  -4 44.4637 7.20027  18
  -4  -3  -4 45.2000 4.93408  12
  -4  -3  -4 43.7638 4.48644   2
  -4  -3  -4 50.4916 4.20865   4
   4   3   4 37.1374 4.52152   1
   4   3   4 48.2115 5.83403  14
   4   3   4 45.9844 6.23639  22
   4   3   4 41.3621 4.52927  11
   5   3   4 15.2556 4.72270  14
   5   3   4 24.0202 6.34928  22
   5   3   4 19.1174 2.98237  11
   5   3   4 21.4704 3.40569   1
  -6  -3  -4 7.14232 2.83162   2
  -6  -3  -4 -2.2443 6.05859   7
   6   3   4 2.55242 2.74894   1
   6   3   4 3.94829 2.68879  11
   6   3   4 7.96329 2.58694   9
  -7  -3  -4 23.1943 6.13303   7
  -7  -3  -4 23.3334 3.23420   2
   7   3   4 26.0664 3.37765  11
  -8  -3  -4 1.00664 1.74793   2
   8   3   4 2.62235 1.32081  16
   8   3   4 5.09743 1.77562   9
   5  -4  -4 1.92684 1.52302  16
   5  -4  -4 0.52831 2.03381   9
  -5   4   4 -5.6180 6.26761   1
  -5   4   4 3.22289 2.80059  11
   4  -4  -4 7.86016 2.60322  16
   4  -4  -4 3.84303 2.48187  27
   4  -4  -4 5.29178 2.29699   9
   4  -4  -4 0.57607 2.56070   4
   4  -4  -4 5.42085 2.91632   2
  -4   4   4 4.00526 6.74133  18
  -4   4   4 1.28744 2.98859  11
  -4   4   4 4.88126 4.47156   1
  -4   4   4 -3.6691 7.88471  24
   3  -4  -4 9.39976 2.28803  16
   3  -4  -4 8.93904 1.90867   2
   3  -4  -4 12.8560 2.37156   4
   3  -4  -4 7.45891 2.91743   9
   3  -4  -4 10.1685 2.05451  27
  -3   4   4 15.5201 9.61147  10
  -3   4   4 6.97589 5.33743  24
  -3   4   4 9.37352 3.78746   1
  -3   4   4 7.69746 3.98757  11
   2  -4  -4 -1.3090 6.34866   5
   2  -4  -4 2.41743 2.14274   9
   2  -4  -4 3.41652 2.02463  27
  -2   4   4 3.19928 6.75833  20
  -2   4   4 -1.4142 3.42113  24
  -2   4   4 4.73414 3.32000  11
  -2   4   4 0.53067 7.96197  10
  -2   4   4 0.48188 3.11363   1
   1  -4  -4 62.9115 8.63433   5
   1  -4  -4 75.9299 6.44439  27
   1  -4  -4 66.6638 6.32015  16
   1  -4  -4 78.8482 6.18538   2
   1  -4  -4 79.1942 6.52277   4
  -1   4   4 92.4735 8.79560  10
  -1   4   4 81.5928 8.35401  24
  -1   4   4 62.9872 7.13554   1
  -1   4   4 73.3259 9.62967  20
  -1   4   4 76.1103 7.43371  11
   0  -4  -4 9.01750 2.49349  16
   0  -4  -4 13.1542 2.47911  27
   0  -4  -4 3.84400 3.66806   5
   0  -4  -4 5.81400 2.32559   4
   0   4   4 2.64722 2.42311   1
  -1  -4  -4 32.3026 3.37481  16
  -1  -4  -4 23.9390 2.94543   4
  -1  -4  -4 34.0196 3.97252  26
   1   4   4 24.6098 4.91279  20
   1   4   4 24.6868 3.59075   1
   1   4   4 24.6136 3.95679  14
  -2  -4  -4 15.5070 3.31807  12
  -2  -4  -4 13.9689 3.21287  26
   2   4   4 26.2903 5.12134  11
  -3  -4  -4 11.3679 2.70956  26
  -3  -4  -4 0.99042 3.18317   8
   3   4   4 5.62138 2.31322   1
   3   4   4 7.77642 3.11605  14
   3   4   4 2.21346 2.82644  22
  -4  -4  -4 9.28843 3.05582   2
  -4  -4  -4 5.80671 2.11536   4
  -4  -4  -4 6.14033 2.62773  12
   4   4   4 2.08547 2.44398  14
   4   4   4 2.38681 2.44305  11
   4   4   4 0.81615 2.13576   1
   4   4   4 -0.1676 3.29827  22
  -5  -4  -4 10.4401 2.98426  12
  -5  -4  -4 9.30888 2.18087   4
   5   4   4 13.8757 3.00563  11
   5   4   4 6.50579 4.71060  22
  -6  -4  -4 3.48922 3.67524  12
  -6  -4  -4 -1.3467 2.71297   2
   6   4   4 0.91212 2.49332   1
   6   4   4 -4.4740 6.93770  22
   6   4   4 2.49523 2.21622  11
   6   4   4 -1.0893 4.88685  14
  -7  -4  -4 5.01718 1.99582   2
   7   4   4 2.97427 1.94440  11
   7   4   4 1.32771 1.97248   9
   7   4   4 3.33607 4.19078   1
  -8  -4  -4 -0.6891 1.52698   2
   8   4   4 -2.4365 1.48860   9
   8   4   4 1.91801 1.19353  16
   4  -5  -4 0.39396 1.19810  27
   4  -5  -4 1.83804 2.07541  16
   4  -5  -4 2.52579 1.79712   4
  -4   5   4 5.34181 4.82574   1
  -4   5   4 4.61475 2.85692  11
   3  -5  -4 9.60154 1.97871   2
   3  -5  -4 8.77267 2.47733  16
   3  -5  -4 13.8231 2.87979   4
   3  -5  -4 8.92103 1.89307  27
  -3   5   4 5.76494 4.14297   1
  -3   5   4 21.1494 9.44833  18
  -3   5   4 9.34798 9.51418  24
  -3   5   4 7.01322 3.28120  11
   2  -5  -4 5.43581 2.63569  16
   2  -5  -4 5.51122 1.71089  27
  -2   5   4 3.04973 6.33073  11
  -2   5   4 4.01989 9.97552  10
  -2   5   4 -0.6478 5.24827  24
  -2   5   4 1.63215 3.51919   1
   1  -5  -4 48.6118 4.52853  16
   1  -5  -4 43.2344 4.36047  27
   1  -5  -4 47.1067 4.61569   4
  -1   5   4 30.2001 8.19725  10
  -1   5   4 50.1557 7.41517  24
  -1   5   4 52.5054 19.9017  20
   0  -5  -4 18.6770 2.70904  27
   0  -5  -4 21.2841 2.71959   4
   0  -5  -4 21.4649 4.29329  16
   0  -5  -4 22.9628 3.56400  12
   0   5   4 22.5542 8.63681  20
  -1  -5  -4 1.83591 2.37908   4
  -1  -5  -4 18.7660 4.59712  26
  -1  -5  -4 1.36454 3.06109  12
   1   5   4 1.38002 3.07112  10
   1   5   4 -0.0175 3.97678  20
  -2  -5  -4 2.91202 1.91184   4
  -2  -5  -4 7.00095 3.16474  12
  -2  -5  -4 7.01893 3.72546  26
   2   5   4 -0.2577 3.83570  20
   2   5   4 0.53035 2.52070   1
   2   5   4 1.10547 3.31804  14
  -3  -5  -4 4.52042 2.77313  12
  -3  -5  -4 5.05470 1.93505   4
   3   5   4 0.99738 2.97231  14
   3   5   4 2.85429 2.23599   1
  -4  -5  -4 2.86604 1.88360   4
  -4  -5  -4 5.23848 2.32260  12
   4   5   4 1.79522 2.92980  11
   4   5   4 -0.1600 3.15910  14
   4   5   4 2.68728 2.39089   1
  -5  -5  -4 10.1958 2.31333   4
  -5  -5  -4 7.50784 3.01305   2
   5   5   4 19.4664 11.8564  22
  -6  -5  -4 4.31896 2.55245   2
   6   5   4 1.97366 2.49318   1
   6   5   4 5.30230 4.75899  14
   6   5   4 -0.2578 2.40342  11
  -7  -5  -4 2.39715 2.89686  12
  -7  -5  -4 -2.8373 2.04050   2
   7   5   4 0.58617 2.08438   9
   7   5   4 -4.2849 3.12077   1
   7   5   4 0.69469 1.92786  11
  -8  -5  -4 -0.2246 0.79160   3
   8   5   4 -2.3327 1.64707   9
   3  -6  -4 45.2278 4.14295   4
   3  -6  -4 44.0537 4.06055  27
  -3   6   4 54.3169 6.84148   1
   2  -6  -4 13.7999 2.95496  16
   2  -6  -4 19.9488 2.75955   4
   2  -6  -4 21.8496 2.86258  27
  -2   6   4 11.0417 7.38861  18
  -2   6   4 12.9165 4.22652  11
  -2   6   4 8.92386 11.9804  24
  -2   6   4 17.3752 5.00255   1
   1  -6  -4 63.8781 5.59237  27
   1  -6  -4 67.8500 5.78359   4
  -1   6   4 53.8768 6.64914  11
  -1   6   4 52.8343 6.82124   1
   0  -6  -4 47.2764 5.12550  12
   0  -6  -4 51.5807 4.86914   4
   0  -6  -4 47.8420 4.60491  27
   0   6   4 58.6927 11.1328  10
   0   6   4 43.3997 6.01839   1
  -1  -6  -4 261.846 23.2819   4
  -1  -6  -4 302.897 23.7797  12
   1   6   4 341.424 24.1837   1
   1   6   4 352.832 26.2788  10
  -2  -6  -4 48.6712 5.18013  12
  -2  -6  -4 57.6022 4.86939   4
   2   6   4 47.4206 9.28895   1
  -3  -6  -4 26.4793 3.04855   4
  -3  -6  -4 31.4945 3.64047  12
   3   6   4 23.9303 4.23664   1
   3   6   4 18.1314 6.97200  14
  -4  -6  -4 9.62030 1.97981   4
  -4  -6  -4 7.00240 2.30197  12
   4   6   4 5.63380 2.96714   1
   4   6   4 17.0282 4.56873  11
   4   6   4 4.59951 4.52777  14
  -5  -6  -4 3.70760 2.37797  12
  -5  -6  -4 3.26711 2.01038   3
  -5  -6  -4 0.58411 1.88474   4
   5   6   4 -3.6160 5.16096  14
   5   6   4 4.68523 3.12791  11
   5   6   4 4.75155 2.82627   1
  -6  -6  -4 1.36548 2.35933  12
  -6  -6  -4 -1.2126 1.51986   3
   6   6   4 -1.1908 2.70603   1
   6   6   4 0.71783 2.78761   9
   6   6   4 -2.2346 2.40893  11
   6   6   4 -2.4973 5.95323  14
  -7  -6  -4 2.74536 2.18650  12
  -7  -6  -4 1.14896 1.20303   3
   7   6   4 -2.7622 3.10827   1
   7   6   4 0.59239 2.61979   9
   7   6   4 3.18249 2.10401  11
   2  -7  -4 0.77529 0.89469  27
   2  -7  -4 2.25222 1.23784   4
  -2   7   4 -3.0016 4.63934   1
  -2   7   4 2.46779 3.41319  11
   1  -7  -4 27.5448 2.73419  27
   1  -7  -4 22.3151 2.72168   4
  -1   7   4 31.3759 5.56035  11
  -1   7   4 18.1681 6.10355   1
   0  -7  -4 1.76373 2.25061  12
   0  -7  -4 2.28212 1.97914   4
   0  -7  -4 6.19292 2.18564  27
   0   7   4 -0.0134 5.22132   1
  -1  -7  -4 9.62389 2.12589  27
  -1  -7  -4 14.8383 2.47690  12
  -1  -7  -4 11.5522 1.99738   4
   1   7   4 9.49021 5.46894   1
  -2  -7  -4 12.1327 2.84329  27
  -2  -7  -4 12.5695 2.44109  12
  -3  -7  -4 12.1423 1.91255   4
  -3  -7  -4 7.67109 2.20087  12
   3   7   4 8.91932 4.70897   1
  -4  -7  -4 11.9193 2.47493   4
  -4  -7  -4 19.0692 3.89274   3
  -4  -7  -4 16.7193 2.73808  12
   4   7   4 24.8513 5.17627   1
  -5  -7  -4 3.87188 1.87738  12
  -5  -7  -4 4.48271 1.74436   4
   5   7   4 2.36819 3.91166  11
   5   7   4 4.53661 3.68258   1
  -6  -7  -4 7.45731 1.89656  12
   6   7   4 5.11556 3.49378   1
   6   7   4 6.22861 2.99375  11
   6   7   4 3.07193 3.73952   9
  -7  -7  -4 2.56763 1.79436  12
  -7  -7  -4 0.97228 1.13353   3
   7   7   4 -0.4054 2.10942  11
   1  -8  -4 2.20883 1.05266  27
   1  -8  -4 2.82481 1.01046   4
   0  -8  -4 5.15702 2.08374  12
   0  -8  -4 6.60130 1.32030   4
   0  -8  -4 3.33106 1.29460  27
  -1  -8  -4 2.57229 1.91111  12
  -1  -8  -4 5.19719 1.27692   4
  -1  -8  -4 3.50679 1.61939  27
  -2  -8  -4 -0.7102 2.56261  27
  -2  -8  -4 1.14839 1.21262   4
  -2  -8  -4 0.30487 1.77901  12
  -3  -8  -4 13.5595 2.21774  12
  -3  -8  -4 13.1086 1.85725   4
  -4  -8  -4 -0.0731 1.80132  12
  -4  -8  -4 -0.9432 1.49007   4
  -5  -8  -4 7.35421 1.71836  12
  -6  -8  -4 1.41503 1.64519  12
  -2  -9  -4 0.09037 2.32770  12
  -2  -9  -4 0.64305 0.95921   4
  -3  -9  -4 9.83729 1.29596   4
   4   7  -5 3.08881 2.17251  11
  -4  -7   5 3.58088 1.41130  27
  -4  -7   5 4.07921 1.07035  28
  -4  -7   5 3.43827 1.14988   3
   3   7  -5 -1.1130 2.42907  11
   3   7  -5 6.20210 3.82901   1
  -3  -7   5 0.65451 1.39677  27
  -3  -7   5 0.12577 0.84283   3
   2   7  -5 2.74927 2.77923  11
   2   7  -5 -1.5021 4.22862   1
  -2  -7   5 0.40437 1.15773  27
  -2  -7   5 -0.7652 0.92128   3
  -2  -7   5 0.23295 0.80114  28
   1   7  -5 3.36539 2.96331  11
   1   7  -5 -1.2358 4.43219   1
  -1  -7   5 0.23525 0.70306   3
  -1  -7   5 -0.0084 0.84821  28
  -1  -7   5 1.52284 1.23387  27
   0   7  -5 0.38076 2.89539  11
   0  -7   5 2.64806 0.92183   3
   0  -7   5 -0.5192 0.94185  28
   0  -7   5 2.07746 1.24511  27
   6   6  -5 -0.6639 1.50577  26
   6   6  -5 -0.6358 2.13198   8
   6   6  -5 3.02053 1.54540  11
  -6  -6   5 2.06937 1.09763  28
  -6  -6   5 1.75018 1.33336   3
   5   6  -5 7.41584 2.19906  26
  -5  -6   5 5.86498 1.25677  28
  -5  -6   5 9.03766 1.57761   3
   4   6  -5 6.68801 2.50586  11
   4   6  -5 14.1764 3.58778   1
  -4  -6   5 9.88033 1.89064  27
  -4  -6   5 6.24078 1.68118   3
  -4  -6   5 8.52241 1.56925  28
   3   6  -5 -2.8144 2.30151  11
   3   6  -5 4.77852 3.92703   8
   3   6  -5 0.87714 2.91262   1
   3   6  -5 5.44761 10.5659  25
  -3  -6   5 -0.2559 1.24390   3
  -3  -6   5 1.05958 1.24751  28
  -3  -6   5 -0.5079 1.72308  27
   2   6  -5 11.0389 2.99387  11
   2   6  -5 15.5818 3.57767   1
  -2  -6   5 10.3459 1.85938  28
  -2  -6   5 10.9600 2.65192  27
   1   6  -5 0.12700 2.83616  11
   1   6  -5 -2.1482 3.45397   1
  -1  -6   5 1.51647 1.14213  28
  -1  -6   5 1.58684 1.40606  27
  -1  -6   5 -4.1309 9.35200   5
   0   6  -5 32.7119 4.31771  11
   0  -6   5 25.2069 3.00131   3
   0  -6   5 35.1953 2.95188  28
  -1   6  -5 0.93960 2.78041  11
  -1   6  -5 3.11564 4.21109   1
   1  -6   5 2.66229 1.36290  27
   1  -6   5 4.58059 1.08573  28
   1  -6   5 3.90492 1.09418   3
  -2   6  -5 -4.3287 4.99265   1
   2  -6   5 5.69758 2.01135   4
   2  -6   5 0.21116 0.78665   3
   2  -6   5 2.16029 1.36552  27
   6   5  -5 0.33925 1.51370  26
  -6  -5   5 4.81341 1.67692   3
  -6  -5   5 1.57680 1.26704  28
   5   5  -5 32.7283 4.98930   1
   5   5  -5 22.0834 7.40893  25
  -5  -5   5 25.7333 2.79440   3
  -5  -5   5 25.2461 3.05053  27
  -5  -5   5 25.2198 2.82957  28
   4   5  -5 8.42813 2.68025  11
   4   5  -5 16.3578 5.86718  25
   4   5  -5 15.2476 3.95693   1
  -4  -5   5 14.1761 2.27419   3
  -4  -5   5 9.76771 1.96855  28
   3   5  -5 31.3248 4.54921   1
   3   5  -5 35.1346 3.86053  11
  -3  -5   5 29.6517 3.34341   3
   2   5  -5 0.75409 2.55538   1
   2   5  -5 0.47273 5.93000   8
   2   5  -5 7.73393 5.48439  25
   2   5  -5 0.96278 2.90664  11
  -2  -5   5 1.79630 1.55716  28
  -2  -5   5 5.83520 1.87932   3
  -2  -5   5 3.28415 2.35216  27
   1   5  -5 47.8890 5.52600  11
   1   5  -5 38.6356 12.2981  15
  -1  -5   5 53.5039 4.77572  27
  -1  -5   5 38.5167 4.05036   2
  -1  -5   5 35.9872 9.51138   5
  -1  -5   5 39.5569 7.02499  21
  -1  -5   5 41.6549 3.98841  28
   0   5  -5 26.4381 4.07299  11
   0   5  -5 19.7836 7.57091  15
   0   5  -5 32.9273 5.18409   1
   0  -5   5 24.6792 8.92908   5
   0  -5   5 36.6109 3.15474  28
   0  -5   5 33.9832 3.51530  27
   0  -5   5 27.2873 3.22367   2
  -1   5  -5 -6.1764 6.65725  15
  -1   5  -5 1.61104 3.69531   1
  -1   5  -5 0.54299 2.79804  11
   1  -5   5 10.0204 3.87598  17
   1  -5   5 5.56619 1.40365  28
   1  -5   5 -4.7208 6.99416   5
   1  -5   5 5.65813 1.46095   3
   1  -5   5 4.50451 1.88003  27
   1  -5   5 11.9497 4.15315   4
  -2   5  -5 5.31709 4.49539   1
  -2   5  -5 6.61349 2.81881  11
   2  -5   5 1.19008 0.98914   3
   2  -5   5 -0.7493 1.65109  27
   2  -5   5 1.79687 1.79657   4
   2  -5   5 -0.1751 2.58931  17
   2  -5   5 0.74681 1.09038  28
  -3   5  -5 2.19315 2.83108   7
  -3   5  -5 2.50542 2.95800  11
  -3   5  -5 7.94391 5.18248   1
   3  -5   5 2.32307 1.34306   4
   3  -5   5 2.33900 1.90961  17
   7   4  -5 0.83251 1.16515  26
   7   4  -5 0.50028 2.79587   8
   7   4  -5 0.57313 2.22033  11
  -7  -4   5 0.26703 0.99676  28
  -7  -4   5 1.65360 1.37409   2
   6   4  -5 10.6248 4.24422   1
   6   4  -5 14.9145 6.48989  25
   6   4  -5 6.45342 2.39293  11
  -6  -4   5 5.09461 2.30775   3
  -6  -4   5 5.27185 1.78437   2
   5   4  -5 4.66194 3.41140   1
   5   4  -5 4.53325 5.00213  22
   5   4  -5 -0.7522 4.94887  25
   5   4  -5 2.16792 1.99683  11
  -5  -4   5 7.31208 2.27007   2
  -5  -4   5 4.36434 2.55196   3
   4   4  -5 4.89993 4.68768  25
   4   4  -5 8.53427 3.22353  11
   4   4  -5 2.25774 2.73765   1
  -4  -4   5 4.91603 2.29659   3
  -4  -4   5 3.58494 2.13629   2
   3   4  -5 2.68169 2.15784  11
   3   4  -5 -0.1539 2.46793   1
   3   4  -5 -7.4453 6.97115  15
   3   4  -5 -2.4142 3.64541  25
  -3  -4   5 3.11389 2.09927   2
  -3  -4   5 1.80040 1.62447  28
   2   4  -5 41.3852 4.87427   1
   2   4  -5 32.5213 6.07086  25
   2   4  -5 41.9511 8.76413  15
   2   4  -5 49.9797 18.1142   6
  -2  -4   5 37.2960 5.87666  21
  -2  -4   5 41.2773 3.87682  28
  -2  -4   5 40.8056 3.94107   2
   1   4  -5 315.140 24.3273   6
   1   4  -5 299.302 23.7024  15
   1   4  -5 267.111 20.3985  11
   1   4  -5 257.735 20.9954   8
  -1  -4   5 255.705 19.8187  28
  -1  -4   5 253.348 19.7668   2
  -1  -4   5 241.974 19.7552   3
  -1  -4   5 268.104 22.5648   5
   0   4  -5 13.7871 3.40242   1
   0   4  -5 27.7176 5.81069   8
   0   4  -5 8.13446 4.72904  15
   0   4  -5 4.47416 4.97700  25
   0   4  -5 16.3969 3.31709  11
   0  -4   5 22.3460 6.57101   5
   0  -4   5 13.2563 2.34260   2
   0  -4   5 15.2514 2.09977  28
   0  -4   5 16.2635 2.08304   3
   0  -4   5 12.3804 2.63640  27
  -1   4  -5 30.8180 5.19545   1
  -1   4  -5 25.4765 8.33572  15
  -1   4  -5 20.1467 8.77861  18
  -1   4  -5 36.9952 4.54723  11
   1  -4   5 36.4181 3.68936  27
   1  -4   5 23.6655 8.57122   5
   1  -4   5 38.4700 3.30916  28
   1  -4   5 33.8401 3.27253   3
   1  -4   5 31.1386 5.09618  17
   1  -4   5 36.1372 4.94876  21
  -2   4  -5 194.604 21.8592  18
  -2   4  -5 228.099 16.8043  11
   2  -4   5 184.895 16.1874  17
   2  -4   5 215.488 15.4794   2
   2  -4   5 189.087 15.3905   3
   2  -4   5 208.156 15.5138  27
  -3   4  -5 -7.3384 10.4064  18
  -3   4  -5 7.37554 6.67714  15
  -3   4  -5 -0.1830 4.50952   1
   3  -4   5 3.75038 2.28185  17
   3  -4   5 -2.0015 1.49832   2
   3  -4   5 0.51113 1.57215   3
   3  -4   5 -5.3925 10.2831   5
   3  -4   5 -1.7050 2.44646  27
  -4   4  -5 7.08226 3.25481  11
  -4   4  -5 0.01061 6.02259   1
  -4   4  -5 9.41006 3.41492   7
   4  -4   5 5.93574 1.85977  17
   4  -4   5 5.39034 1.38849   2
   7   3  -5 3.62606 2.21164  16
   7   3  -5 -0.6205 1.36065  26
  -7  -3   5 -1.1830 1.49101   2
   6   3  -5 -4.4796 6.37235  25
   6   3  -5 -1.4667 2.72783  16
   6   3  -5 0.81171 1.98959  11
  -6  -3   5 6.47523 3.80285   7
  -6  -3   5 -0.1141 2.00051   2
   5   3  -5 -3.8091 3.89634  22
   5   3  -5 -0.2913 3.24236   1
   5   3  -5 0.57311 1.88325  11
   5   3  -5 3.76828 5.01958  25
  -5  -3   5 1.49747 2.45535   2
  -5  -3   5 3.46401 3.19840   7
   4   3  -5 2.26409 2.54948   1
   4   3  -5 1.98535 2.07905  11
   4   3  -5 5.53360 3.75706  25
  -4  -3   5 12.9863 4.03194   7
  -4  -3   5 4.68180 2.47668   2
   3   3  -5 2.20383 2.07255  11
   3   3  -5 1.82675 4.46096  15
   3   3  -5 5.38343 5.67520   6
   3   3  -5 -1.7157 3.41520   1
   3   3  -5 -0.2214 2.88226  25
  -3  -3   5 1.24237 2.53026   2
   2   3  -5 9.43260 3.44596  25
   2   3  -5 2.96662 4.11322   6
   2   3  -5 6.99450 2.69788   1
   2   3  -5 9.02961 2.35990  11
   2   3  -5 6.49892 3.60099  15
   1   3  -5 9.10876 3.57108  25
   1   3  -5 10.8073 4.26923   6
   1   3  -5 11.4416 4.95726  15
   1   3  -5 7.26834 2.61635   1
   1   3  -5 11.5978 2.70849  11
  -1  -3   5 11.9289 2.39271   2
  -1  -3   5 16.4500 2.52454   3
  -1  -3   5 13.6702 3.39569  21
  -1  -3   5 14.1201 2.30323  28
  -1  -3   5 4.58068 3.32566   5
   0   3  -5 30.5930 4.49743   8
   0   3  -5 20.2330 4.54139  25
   0   3  -5 27.5544 7.18595  18
   0   3  -5 19.3540 5.88496  15
   0   3  -5 20.2107 3.34822  11
   0   3  -5 25.5066 3.58245   1
   0  -3   5 22.7021 2.94387   2
   0  -3   5 24.7088 2.78830  28
   0  -3   5 21.4337 3.88866  21
   0  -3   5 26.0825 2.69293   3
   0  -3   5 25.0971 5.39918   5
  -1   3  -5 9.41798 3.71860   1
  -1   3  -5 8.03510 2.90250  11
  -1   3  -5 2.96616 3.75144  25
  -1   3  -5 9.08259 4.74131  18
  -1   3  -5 4.06081 3.28543  15
   1  -3   5 11.7078 2.23802   2
   1  -3   5 19.2582 6.47992  17
   1  -3   5 5.11383 4.53407   5
   1  -3   5 14.9611 2.68907  27
   1  -3   5 8.53676 1.83503   3
  -2   3  -5 38.2624 8.60295  15
  -2   3  -5 53.7010 5.77435  11
  -2   3  -5 48.0290 9.22602  18
  -2   3  -5 58.7442 6.61444   1
   2  -3   5 55.9438 5.16402  27
   2  -3   5 66.4173 5.14961   2
   2  -3   5 69.4306 9.32153   5
   2  -3   5 48.0346 5.97480  21
   2  -3   5 56.6451 4.68430  28
   2  -3   5 56.1538 5.95602  17
   2  -3   5 49.5837 4.76751   3
  -3   3  -5 28.1104 5.51457   1
  -3   3  -5 24.2804 9.20884  18
  -3   3  -5 22.0286 4.15417  11
  -3   3  -5 23.0985 10.4144  15
   3  -3   5 23.9136 3.84750  17
   3  -3   5 25.2747 3.00650   2
   3  -3   5 24.9523 2.73517   3
   3  -3   5 20.2233 11.8984   5
   3  -3   5 28.5190 4.41830  27
  -4   3  -5 53.4525 13.9949  15
  -4   3  -5 43.5646 13.5057  18
   4  -3   5 32.5464 5.05209  17
   4  -3   5 40.9055 4.50760   2
   4  -3   5 23.6159 11.0151   5
  -5   3  -5 7.49795 3.82560  11
  -5   3  -5 6.86655 3.26211   7
   5  -3   5 5.85696 1.74037  17
   5  -3   5 4.25915 1.26498   2
   7   2  -5 6.25030 1.50340  16
   7   2  -5 7.50303 1.49243  26
  -7  -2   5 5.21225 4.44723   7
  -7  -2   5 6.03825 1.95061   2
   6   2  -5 3.38973 4.46975   2
   6   2  -5 0.15526 2.11237  16
   6   2  -5 -0.2656 2.49411  11
   6   2  -5 -2.2280 2.10374  26
   6   2  -5 2.55383 8.07547  25
  -6  -2   5 3.50006 2.78118   2
  -6  -2   5 0.49437 3.54017   7
   5   2  -5 2.35499 3.22672   1
   5   2  -5 1.05492 2.16017  11
   5   2  -5 -5.9136 3.66549  22
   5   2  -5 5.85413 4.62916  25
   5   2  -5 7.79970 2.67066  16
  -5  -2   5 -1.6082 4.16875   7
  -5  -2   5 1.06753 3.08463   2
   4   2  -5 3.89183 2.70292   1
   4   2  -5 5.96418 8.02744   6
   4   2  -5 2.29122 3.60969  25
   4   2  -5 6.57778 2.19241  11
   4   2  -5 3.58205 2.95057  22
  -4  -2   5 4.53187 3.41956   7
  -4  -2   5 9.17951 2.90010   2
   3   2  -5 1.36329 4.38106   6
   3   2  -5 -5.2496 3.45574  15
   3   2  -5 -4.2615 2.47671  25
   3   2  -5 -2.3543 2.17665   1
   3   2  -5 2.13315 1.98497  11
  -3  -2   5 10.9716 3.92885   7
  -3  -2   5 5.50688 4.41822  21
  -3  -2   5 6.44480 2.98286   2
   2   2  -5 1.22869 1.88514  11
   2   2  -5 -1.3276 2.84575   6
   2   2  -5 2.99824 2.14101   1
   2   2  -5 2.85495 3.51642  15
  -2  -2   5 9.35378 2.70091   2
  -2  -2   5 4.71165 3.66397  21
   1   2  -5 19.4477 4.49795   6
   1   2  -5 19.8560 2.86071  11
   1   2  -5 16.4421 3.90797  25
   1   2  -5 12.3296 6.39978  15
   1   2  -5 21.2642 2.89540   1
  -1  -2   5 18.9941 3.04090  28
  -1  -2   5 23.2385 3.08564   2
  -1  -2   5 15.2357 3.78641   5
  -1  -2   5 21.4251 3.73264  21
   0   2  -5 1.96106 2.56657  15
   0   2  -5 5.27570 2.11634   1
   0   2  -5 8.01888 3.37316   8
   0   2  -5 5.38985 2.08338  11
   0   2  -5 0.66987 2.71550  18
   0   2  -5 5.37364 2.33742  25
   0  -2   5 4.54073 2.97272  14
   0  -2   5 9.13987 2.46290   3
   0  -2   5 1.58344 2.50142   5
   0  -2   5 4.79119 2.33398  21
  -1   2  -5 15.1690 6.63300  18
  -1   2  -5 27.6329 3.99266  25
  -1   2  -5 30.2523 3.43427  11
  -1   2  -5 14.8748 5.08571  15
  -1   2  -5 18.4027 3.61451   1
  -1   2  -5 25.2292 4.42564   8
   1  -2   5 24.5393 3.01998   2
   1  -2   5 25.3895 2.74812   3
   1  -2   5 27.3330 5.24319   5
   1  -2   5 29.7292 4.26050  17
   1  -2   5 20.7738 3.43349  21
  -2   2  -5 6.52694 3.81684  25
  -2   2  -5 5.76591 2.89374   1
  -2   2  -5 1.29940 3.21622  15
  -2   2  -5 4.55574 3.61242  18
  -2   2  -5 4.95560 2.71502  11
  -2   2  -5 18.8543 5.54919   8
   2  -2   5 5.82374 2.71500   2
   2  -2   5 2.80167 4.32661   5
   2  -2   5 7.47429 1.85960   3
   2  -2   5 7.23061 3.24065  17
   2  -2   5 5.51686 3.65313  14
   2  -2   5 7.44242 2.76459  21
  -3   2  -5 15.8239 4.70123   1
  -3   2  -5 16.9845 6.59970  18
  -3   2  -5 19.5499 3.62347  11
   3  -2   5 22.2215 3.59741  17
   3  -2   5 17.7503 2.69326   2
   3  -2   5 6.48932 5.39312   5
   3  -2   5 18.6949 2.40667   3
   3  -2   5 15.9599 3.59466  21
  -4   2  -5 37.5489 11.0995  18
  -4   2  -5 37.0456 6.37478   1
   4  -2   5 33.3382 4.13131  17
   4  -2   5 40.9586 12.8994   5
   4  -2   5 25.0802 3.22690   2
  -5   2  -5 11.9557 10.6996  18
  -5   2  -5 16.3372 8.99137   1
  -5   2  -5 12.9337 4.13797  11
  -5   2  -5 10.6070 3.71851   7
   5  -2   5 15.2054 2.11124   2
   5  -2   5 8.76484 2.34775  17
  -6   2  -5 1.38996 3.08432   7
   6  -2   5 -0.5410 1.51956  17
   6  -2   5 -0.0700 1.09200   2
   7   1  -5 2.67722 2.06945   2
   7   1  -5 0.53205 1.24689  26
  -7  -1   5 3.00422 3.20822   7
  -7  -1   5 3.10555 1.98281   2
   6   1  -5 3.12031 2.21563  16
   6   1  -5 3.66546 2.15965  26
   6   1  -5 3.40021 2.62231   2
   6   1  -5 5.82623 3.55877   9
  -6  -1   5 0.44137 3.23034   7
  -6  -1   5 2.20413 2.62064   2
   5   1  -5 15.9385 4.56325   9
   5   1  -5 11.2838 5.59123  25
   5   1  -5 6.62756 2.43103  16
   5   1  -5 4.72956 5.11068  22
   5   1  -5 16.3083 5.11597  11
   4   1  -5 107.464 8.62417   2
   4   1  -5 111.611 10.3619  25
   4   1  -5 104.370 8.69954  16
   4   1  -5 97.9913 9.57457   1
   4   1  -5 116.797 14.3908   6
   4   1  -5 118.915 8.96052  11
   4   1  -5 94.6785 9.70451  22
   4   1  -5 88.1769 8.60071   9
  -4  -1   5 91.8492 12.4857  10
  -4  -1   5 114.591 9.32244   2
  -4  -1   5 86.8032 9.95384  21
   3   1  -5 0.33538 2.29183   1
   3   1  -5 4.97224 2.55663  25
   3   1  -5 1.21529 1.96643  11
   3   1  -5 3.12891 3.08077  15
   3   1  -5 9.64666 3.88113  16
   3   1  -5 -2.3233 3.49581   6
  -3  -1   5 -0.7937 3.75941  20
  -3  -1   5 3.09158 3.55640   7
  -3  -1   5 14.0507 4.48872  21
   2   1  -5 60.7562 6.86665   6
   2   1  -5 64.1633 5.63602  11
   2   1  -5 53.7783 5.82860   1
   2   1  -5 58.2740 7.75539  15
   2   1  -5 64.2353 6.60608  25
  -2  -1   5 50.3594 6.41051   7
  -2  -1   5 73.7835 6.34203  21
  -2  -1   5 60.6044 5.94913   2
   1   1  -5 238.150 20.0873   1
   1   1  -5 242.994 21.5250  15
   1   1  -5 248.630 19.8470  11
   1   1  -5 280.752 20.7889  25
   1   1  -5 261.104 20.4926   6
  -1  -1   5 313.716 21.0517  10
  -1  -1   5 276.647 21.4036  14
  -1  -1   5 252.834 19.9502   2
  -1  -1   5 276.243 20.4379  21
   0   1  -5 24.7063 3.22252   1
   0   1  -5 26.7182 3.46739   8
   0   1  -5 21.2119 4.26054  18
   0   1  -5 24.3885 4.47828  15
   0   1  -5 25.6140 3.20433  11
   0   1  -5 27.1204 3.86268  25
   0  -1   5 25.4598 3.53488  21
   0  -1   5 21.9310 4.19561  14
   0  -1   5 28.8659 2.93015  10
   0  -1   5 22.7891 3.69386   5
  -1   1  -5 4.18358 2.78735   8
  -1   1  -5 0.47196 2.27044  15
  -1   1  -5 4.56634 2.27170  18
  -1   1  -5 1.31290 2.04006   1
  -1   1  -5 1.35072 1.83554  25
   1  -1   5 1.75962 2.40385  14
   1  -1   5 3.04086 2.32918   5
   1  -1   5 2.09747 3.03587  21
  -2   1  -5 97.5243 9.02117   1
  -2   1  -5 101.115 9.50931   2
  -2   1  -5 102.299 8.50676  11
  -2   1  -5 85.8815 9.94666  18
  -2   1  -5 92.5610 9.89044  15
   2  -1   5 104.808 8.33754  17
   2  -1   5 102.664 8.62391  21
   2  -1   5 97.6401 7.91590   2
   2  -1   5 90.8598 7.66936   3
   2  -1   5 84.4597 9.31667  14
  -3   1  -5 18.1947 3.40600  11
  -3   1  -5 15.5496 5.43542  15
  -3   1  -5 18.6524 4.55463   1
  -3   1  -5 16.1679 6.14976  18
   3  -1   5 35.1551 7.79747   9
   3  -1   5 19.0697 3.05949   3
   3  -1   5 17.5071 3.22417  21
   3  -1   5 18.7695 3.41061  17
   3  -1   5 10.0695 3.53998  14
   3  -1   5 19.5764 2.87670   2
   3  -1   5 14.4794 4.85770   5
  -4   1  -5 28.4308 5.70679   1
  -4   1  -5 21.2051 7.87241  18
  -4   1  -5 21.1559 5.14118   2
   4  -1   5 7.88647 7.76112  14
   4  -1   5 22.9074 2.93857   2
   4  -1   5 18.6988 3.35864  17
   4  -1   5 20.3601 3.98174   9
   4  -1   5 23.5736 3.74799  21
  -5   1  -5 0.94665 4.34575  11
  -5   1  -5 5.05438 3.41662   7
  -5   1  -5 -4.7641 7.31534  18
  -5   1  -5 13.4736 5.02856   2
   5  -1   5 8.23795 2.04374   2
   5  -1   5 -8.3930 10.2262   5
   5  -1   5 7.16561 3.40600   9
   5  -1   5 10.5001 2.60657  17
  -6   1  -5 2.90915 3.64026   7
  -6   1  -5 -1.8190 4.21483   2
   6  -1   5 2.08192 1.43480   2
   6  -1   5 -1.5558 1.76269  17
   7   0  -5 0.45907 1.23527  16
   7   0  -5 -1.4243 2.84709   9
   7   0  -5 1.44128 1.43063   2
  -7   0   5 1.68148 2.38607   2
  -7   0   5 4.62112 3.93047   7
   6   0  -5 3.37975 1.70138  16
   6   0  -5 5.46885 2.10417   2
   6   0  -5 2.40225 2.18236  26
   6   0  -5 -0.0534 2.61421   9
  -6   0   5 0.83969 2.71505   2
  -6   0   5 2.88324 3.53935   7
   5   0  -5 45.7760 4.58584   2
   5   0  -5 44.8114 4.96703   9
   5   0  -5 50.0312 4.56283  26
  -5   0   5 44.8329 6.21101   7
  -5   0   5 55.1241 12.0300  24
  -5   0   5 36.2360 4.89893   2
   4   0  -5 13.7372 2.96140   9
   4   0  -5 13.1226 2.84967   2
   4   0  -5 13.6045 2.94149  26
   4   0  -5 6.53861 3.86131  25
   4   0  -5 13.2003 2.73748  16
  -4   0   5 16.9230 4.38579   7
  -4   0   5 23.3710 6.43621  24
  -4   0   5 12.9012 7.43177  10
   3   0  -5 9.45484 3.73843   6
   3   0  -5 11.1525 3.87932  22
   3   0  -5 19.9295 3.08126   2
   3   0  -5 15.8377 3.86146  25
   3   0  -5 20.8652 3.09086  16
   3   0  -5 19.8561 2.98666  26
  -3   0   5 26.3225 4.23456   2
  -3   0   5 15.9367 4.73144  24
  -3   0   5 21.7352 6.71423  20
  -3   0   5 12.0153 4.89777  10
   2   0  -5 293.695 23.4117   9
   2   0  -5 280.410 23.3919  11
   2   0  -5 331.779 23.9413   1
   2   0  -5 280.219 24.1184  25
   2   0  -5 324.431 23.5515  26
   2   0  -5 282.984 24.2277  16
   2   0  -5 275.515 23.3088   2
   2   0  -5 337.290 25.9106  15
  -2   0   5 340.140 24.8543  20
  -2   0   5 343.831 24.3759  24
  -2   0   5 306.635 23.6599   2
  -2   0   5 347.890 24.2972   1
  -2   0   5 329.121 23.7591  11
  -2   0   5 291.421 23.9564   7
  -2   0   5 341.166 24.2860  21
  -2   0   5 353.170 24.4354  10
   1   0  -5 16.5052 2.99591  25
   1   0  -5 24.8566 3.71081   8
   1   0  -5 19.9231 2.88453  11
   1   0  -5 16.8518 3.01470   1
   1   0  -5 19.7762 3.28839   6
   1   0  -5 20.6412 4.65601  15
  -1   0   5 19.7332 4.04342  14
  -1   0   5 18.3075 3.00497  10
  -1   0   5 25.0034 3.33714  11
  -1   0   5 21.8447 3.28420  24
  -1   0   5 22.8646 3.29432  20
  -1   0   5 24.9791 3.25371  21
  -1   0   5 21.1348 4.93423  29
  -1   0   5 20.8542 3.48014   1
   0   0  -5 10.1799 2.40660  11
   0   0  -5 15.1445 3.87907  15
   0   0  -5 10.9166 2.80767   8
   0   0  -5 8.51554 2.45844  25
   0   0  -5 9.87038 2.43228   6
   0   0  -5 10.7131 2.39198   1
   0   0   5 7.96820 2.92255  14
   0   0   5 15.4613 2.67621  11
   0   0   5 7.75054 2.28964  20
   0   0   5 8.85352 5.71037  29
   0   0   5 8.21291 2.69678  21
  -1   0  -5 365.377 26.7483  11
  -1   0  -5 349.755 27.0517   8
  -1   0  -5 309.545 26.9689  25
  -1   0  -5 351.791 27.0651   1
  -1   0  -5 391.830 28.4893  15
  -1   0  -5 348.949 28.2453  18
   1   0   5 370.663 27.7770  14
   1   0   5 404.812 27.0952  21
   1   0   5 312.948 27.5928  29
   1   0   5 374.014 27.8313  29
   1   0   5 384.195 26.6774   5
  -2   0  -5 23.1721 4.88242  15
  -2   0  -5 22.7416 3.64025  11
  -2   0  -5 28.2736 4.01641   1
  -2   0  -5 19.3669 3.50613  25
  -2   0  -5 29.1821 3.96091   8
  -2   0  -5 24.2346 5.19283  18
   2   0   5 24.8040 3.89969  17
   2   0   5 25.7461 3.47775   2
   2   0   5 28.5915 3.87460   1
   2   0   5 33.8505 4.72346   5
   2   0   5 29.6194 4.74969  14
   2   0   5 26.6629 3.56374  21
   2   0   5 32.0033 3.65481  11
  -3   0  -5 11.7900 5.13018  15
  -3   0  -5 5.60806 3.08950  18
  -3   0  -5 11.8902 3.24142  11
  -3   0  -5 12.4911 3.45393   2
  -3   0  -5 13.2630 4.01055   8
  -3   0  -5 15.8871 4.56019   1
   3   0   5 9.20817 2.35141   2
   3   0   5 14.3602 3.46572  11
   3   0   5 10.8981 2.97318  21
   3   0   5 11.7289 4.18960  22
   3   0   5 6.15708 4.20020   1
   3   0   5 13.1848 5.00861   5
   3   0   5 17.4427 3.12369  17
  -4   0  -5 14.7095 6.98340   1
  -4   0  -5 23.3522 5.79317   8
  -4   0  -5 26.0452 4.43395   7
  -4   0  -5 11.8795 4.54354  11
  -4   0  -5 16.3985 6.82127  18
  -4   0  -5 19.5608 4.25090   2
   4   0   5 25.1679 3.12490   2
   4   0   5 37.3648 7.49088   5
   4   0   5 25.1414 3.46494   9
   4   0   5 18.1971 3.37847  17
   4   0   5 24.5522 3.86704  21
   4   0   5 16.1826 6.67365  11
   4   0   5 18.7939 6.06399  22
   4   0   5 24.9576 5.66483  14
  -5   0  -5 -0.0601 5.87142  18
  -5   0  -5 -5.6308 5.54267   7
  -5   0  -5 9.91837 4.04992   2
   5   0   5 6.26366 8.43852   5
   5   0   5 -2.1617 6.62094  14
   5   0   5 8.37774 2.42728   2
   5   0   5 7.06852 2.99342  17
   5   0   5 9.24036 5.65753  22
  -6   0  -5 -1.7670 3.98337   7
  -6   0  -5 -1.5797 11.5667  18
  -6   0  -5 -1.0646 2.97926   2
   6   0   5 -2.6382 2.26505  17
   6   0   5 0.07202 1.74261   2
   6   0   5 0.38796 2.37987   9
  -7   0  -5 12.4671 3.92709   7
  -7   0  -5 9.88423 2.72099   2
   7   0   5 2.20863 2.96111   9
   7   0   5 6.13531 1.92384  17
   7   0   5 7.05689 1.57059   2
   6  -1  -5 8.63309 2.44677   9
   6  -1  -5 5.80407 1.72423   2
   6  -1  -5 5.25584 1.60694  16
  -6   1   5 0.66531 2.61580   2
  -6   1   5 2.46803 4.25686   7
   5  -1  -5 3.39537 2.92183  26
   5  -1  -5 5.07751 2.04700   2
   5  -1  -5 -1.0784 2.46794   9
  -5   1   5 1.02893 3.50436   2
  -5   1   5 -0.7266 3.95660   7
  -5   1   5 -0.4478 6.97794  24
   4  -1  -5 1.02896 2.34365   2
   4  -1  -5 6.96582 2.42454  16
   4  -1  -5 1.71929 2.27830   9
   4  -1  -5 6.18285 2.90844  26
  -4   1   5 3.89140 4.79549   1
  -4   1   5 2.17910 3.28855  11
  -4   1   5 -4.7298 6.96945  10
  -4   1   5 1.77794 4.29115   7
  -4   1   5 -0.3026 4.58484  24
   3  -1  -5 11.7767 2.62849  16
   3  -1  -5 8.58269 3.18611  26
   3  -1  -5 -1.3643 6.76477   6
   3  -1  -5 8.96611 2.53830   9
   3  -1  -5 15.5838 4.64606   8
   3  -1  -5 11.8951 2.45996   2
  -3   1   5 12.5965 3.33600  11
  -3   1   5 9.49916 4.53040   7
  -3   1   5 11.1986 4.32100  10
  -3   1   5 1.76242 4.92882  20
  -3   1   5 5.72030 3.39587  24
  -3   1   5 19.2261 5.05321   2
  -3   1   5 3.77429 3.44798   1
   2  -1  -5 4.75720 2.36215   2
   2  -1  -5 10.8746 2.73187  26
   2  -1  -5 1.62354 2.17345  25
   2  -1  -5 11.4667 3.62273   8
   2  -1  -5 -1.1812 2.90244  15
   2  -1  -5 7.55788 2.68135  16
   2  -1  -5 -0.5458 2.56497   6
   2  -1  -5 0.96775 2.06557  22
  -2   1   5 3.61975 2.90963  10
  -2   1   5 -1.3563 2.44953  20
  -2   1   5 3.45553 2.49165   1
  -2   1   5 6.53712 2.66360  11
  -2   1   5 0.60246 2.42796  24
   1  -1  -5 0.99007 1.86478   9
   1  -1  -5 0.98600 2.87078   1
   1  -1  -5 0.13289 2.22536  15
   1  -1  -5 6.05652 2.26208  25
   1  -1  -5 0.59203 2.64113   8
   1  -1  -5 -0.8985 1.63620   6
  -1   1   5 1.93627 2.12465   1
  -1   1   5 -0.6660 2.25158  14
  -1   1   5 -0.0450 1.51129  20
  -1   1   5 8.87281 4.50675  29
  -1   1   5 2.63889 2.32703  11
  -1   1   5 0.25986 1.90791  10
   0  -1  -5 15.5838 3.03672   8
   0  -1  -5 14.5279 3.87991  15
   0  -1  -5 16.4512 2.91034  25
   0  -1  -5 16.5035 2.31795   6
   0  -1  -5 12.0743 4.12408   1
   0   1   5 11.6038 4.07536  29
   0   1   5 13.9919 2.95857  11
   0   1   5 17.3829 3.07434   1
   0   1   5 16.9958 3.32243  14
   0   1   5 12.9071 2.86846  20
   0   1   5 12.0703 2.83667  21
  -1  -1  -5 235.991 18.8004  15
  -1  -1  -5 236.127 17.8005  25
  -1  -1  -5 236.017 17.6310   8
  -1  -1  -5 188.763 18.6002   1
  -1  -1  -5 240.030 18.9235  18
   1   1   5 218.227 17.4649   1
   1   1   5 234.727 18.4613  29
   1   1   5 223.343 17.9564  14
   1   1   5 238.586 17.3070  11
   1   1   5 218.401 17.4138  21
  -2  -1  -5 25.1618 5.77242   1
  -2  -1  -5 25.3475 3.67552   8
  -2  -1  -5 27.4226 4.03836  25
  -2  -1  -5 30.8430 5.14416  18
  -2  -1  -5 31.3432 4.58726  15
   2   1   5 30.6983 4.12524  14
   2   1   5 28.8158 3.80411  21
   2   1   5 29.8822 4.41710  22
   2   1   5 29.5737 3.67060   1
   2   1   5 26.5670 3.39971  11
  -3  -1  -5 4.21172 3.32781   8
  -3  -1  -5 0.29685 2.54291  15
  -3  -1  -5 5.06916 3.04621   2
   3   1   5 3.26800 2.61760  14
   3   1   5 -0.3437 3.43157   5
   3   1   5 3.77273 3.65049  22
   3   1   5 4.18789 3.09451  21
   3   1   5 1.60006 2.07284  11
  -4  -1  -5 45.8031 4.59424   2
  -4  -1  -5 36.8634 5.85961   8
  -4  -1  -5 52.7458 8.04501  18
   4   1   5 44.7916 4.63227   2
   4   1   5 43.0024 7.83809   5
   4   1   5 45.1968 6.12496  14
   4   1   5 42.5537 4.87495  11
   4   1   5 50.7878 5.21423  21
   4   1   5 38.3932 5.91733  17
   4   1   5 49.2708 6.86177  22
  -5  -1  -5 2.37418 5.62657  18
  -5  -1  -5 12.2279 3.50084   2
  -5  -1  -5 12.3038 4.67626   7
   5   1   5 2.76983 4.79574   1
   5   1   5 5.70221 7.37672   5
   5   1   5 8.20597 4.66232  22
   5   1   5 17.4199 3.21961   2
   5   1   5 8.80506 5.05910  14
   5   1   5 15.0496 2.90608   9
   5   1   5 11.9542 3.36797  17
  -6  -1  -5 1.83084 2.89036   2
  -6  -1  -5 12.6974 10.4837  18
  -6  -1  -5 -0.2448 4.45223   7
   6   1   5 12.6332 2.96780   2
   6   1   5 7.81211 2.28689   9
   6   1   5 -0.8596 10.4883  14
   6   1   5 10.0707 3.61858  17
   6   1   5 3.51872 7.40584  22
  -7  -1  -5 -0.2155 5.63519   7
  -7  -1  -5 4.10806 2.24069   2
   7   1   5 6.33009 3.38818  17
   7   1   5 4.86140 1.95311   2
   7   1   5 7.08687 1.99497   9
   6  -2  -5 -2.9508 2.16960   9
   6  -2  -5 1.06937 1.21090  16
   6  -2  -5 0.84950 1.11250   2
   5  -2  -5 1.82177 2.59642  16
   5  -2  -5 5.87610 2.24187   2
   5  -2  -5 1.90660 1.98251   9
  -5   2   5 -1.3619 5.62777   2
  -5   2   5 0.69816 8.14806  24
  -5   2   5 4.54876 5.18603   7
  -5   2   5 0.29749 7.85950   1
  -5   2   5 8.34719 3.51468  11
   4  -2  -5 49.6980 4.75031   2
   4  -2  -5 54.5290 5.14958  16
   4  -2  -5 45.7469 5.26412   9
  -4   2   5 48.3018 6.07083  11
  -4   2   5 54.3120 8.80737  24
  -4   2   5 46.4132 6.86094   1
  -4   2   5 48.4438 11.2076  10
   3  -2  -5 30.0117 3.19142  27
   3  -2  -5 35.9105 3.88848   9
   3  -2  -5 28.0834 3.33965   2
   3  -2  -5 31.0849 3.61491  16
   3  -2  -5 29.6343 3.95851  26
  -3   2   5 19.2212 5.18963   1
  -3   2   5 29.8196 6.89556  10
  -3   2   5 27.0243 4.41479  11
  -3   2   5 24.9728 5.62826  24
  -3   2   5 42.0677 10.7536  20
   2  -2  -5 36.8129 8.70683   8
   2  -2  -5 54.5457 4.67025  16
   2  -2  -5 56.5721 4.92084   9
   2  -2  -5 46.8558 4.46884  26
   2  -2  -5 44.6511 4.35076   2
   2  -2  -5 44.7745 4.21129  27
  -2   2   5 40.7077 5.56159  24
  -2   2   5 37.7049 5.48189   1
  -2   2   5 39.2093 4.94791  11
  -2   2   5 50.8454 6.44567  10
  -2   2   5 39.3646 7.16086  20
   1  -2  -5 250.544 18.8389  27
   1  -2  -5 260.029 19.0454  16
   1  -2  -5 256.005 18.9434  26
   1  -2  -5 238.961 19.2996  25
   1  -2  -5 220.994 19.7132   9
   1  -2  -5 285.523 19.5933   8
   1  -2  -5 248.133 18.7903   2
   1  -2  -5 251.427 21.5107  15
  -1   2   5 261.865 20.5146  20
  -1   2   5 245.681 19.9529   1
  -1   2   5 268.012 20.1583  10
   0  -2  -5 112.725 9.45228  25
   0  -2  -5 111.919 10.9450  15
   0  -2  -5 103.810 9.29490   8
   0   2   5 124.875 10.3308  20
   0   2   5 111.676 9.60762   1
   0   2   5 111.870 9.67946  14
   0   2   5 107.305 9.29885  11
  -1  -2  -5 -1.5080 1.83778  25
  -1  -2  -5 1.46735 2.06589  15
   1   2   5 -2.7142 4.54200  29
   1   2   5 -1.1342 1.64189  14
   1   2   5 2.47988 2.56306  21
   1   2   5 -1.9921 1.60036   1
   1   2   5 -0.6656 2.31359  11
  -2  -2  -5 75.5770 6.84926   2
  -2  -2  -5 83.8755 7.42283  26
  -2  -2  -5 84.0017 9.11194  18
  -2  -2  -5 80.0268 6.75507   4
  -2  -2  -5 93.5400 8.72609  15
  -2  -2  -5 80.6791 7.79577  25
  -2  -2  -5 85.8693 7.98057   8
   2   2   5 78.4021 7.35089   1
   2   2   5 91.3570 7.33313  11
   2   2   5 90.9284 7.84101  22
   2   2   5 88.9756 8.23324  14
   2   2   5 78.9048 7.35479  21
  -3  -2  -5 4.98695 3.58211  15
  -3  -2  -5 7.87568 2.73715   2
  -3  -2  -5 9.72487 3.29701  26
  -3  -2  -5 3.89568 3.12580  18
  -3  -2  -5 12.4820 1.99745   4
  -3  -2  -5 8.11769 2.92313   8
   3   2   5 7.14463 2.72229  14
   3   2   5 9.52459 2.31161  11
   3   2   5 15.6795 3.93585  22
   3   2   5 7.28735 2.53509   1
  -4  -2  -5 14.1011 4.08681   8
  -4  -2  -5 17.6461 5.01233   2
   4   2   5 21.8938 3.71558  17
   4   2   5 14.0316 2.86112  11
  -5  -2  -5 1.65780 5.51487  18
  -5  -2  -5 9.87802 5.65995   7
   5   2   5 0.34730 2.78915   1
   5   2   5 -0.5807 4.01633  14
   5   2   5 -5.4690 4.32526  22
   5   2   5 0.98168 2.55657  11
  -6  -2  -5 17.2527 5.67348   7
  -6  -2  -5 22.8150 3.48466   2
   6   2   5 29.6578 8.99824  14
   6   2   5 23.8201 3.33225   9
   6   2   5 20.6994 3.61740  11
   6   2   5 13.2184 3.82482  17
   6   2   5 13.5359 7.19713  22
   6   2   5 20.9543 4.01377   2
   6   2   5 28.1784 5.81488   1
  -7  -2  -5 7.20495 2.15911   2
   7   2   5 1.55506 2.91446   2
   5  -3  -5 7.86001 1.61622  16
   5  -3  -5 3.74387 2.01043   9
   5  -3  -5 4.72808 1.37871   2
  -5   3   5 8.50260 3.42185  11
   4  -3  -5 3.21087 2.42122   9
   4  -3  -5 0.51708 1.51888   2
   4  -3  -5 2.69637 1.65854  27
   4  -3  -5 2.03915 1.89807  16
  -4   3   5 -7.5182 6.49188  24
  -4   3   5 5.30181 3.09135  11
  -4   3   5 1.09782 6.75486  18
  -4   3   5 2.57653 4.72579   1
   3  -3  -5 6.01204 1.87269  27
   3  -3  -5 1.96168 2.15168  16
   3  -3  -5 1.18562 2.15270   9
   3  -3  -5 5.06506 1.94073   2
  -3   3   5 1.76958 3.06260  11
  -3   3   5 -0.9574 3.93875  24
  -3   3   5 -0.2794 3.35664   1
  -3   3   5 2.73385 6.56604  10
   2  -3  -5 11.5313 2.21293  27
   2  -3  -5 12.6605 2.24866   2
   2  -3  -5 7.29650 2.53968   9
   2  -3  -5 12.2210 2.48424  16
  -2   3   5 11.7809 5.08767  20
  -2   3   5 12.4615 3.47717  11
  -2   3   5 1.97616 4.01374  10
  -2   3   5 5.85661 3.23994  24
  -2   3   5 10.0759 3.61813   1
   1  -3  -5 38.6180 3.73379  16
   1  -3  -5 26.3974 3.73535   4
   1  -3  -5 31.0242 3.33783  27
   1  -3  -5 33.8247 3.96213  26
   1  -3  -5 32.3190 3.40521   2
   1  -3  -5 31.5441 3.71129   9
  -1   3   5 32.3530 4.35318  11
  -1   3   5 35.5445 5.14873  10
  -1   3   5 33.6746 6.17123  20
  -1   3   5 23.6928 4.42162   1
   0  -3  -5 42.4302 4.48129  16
   0  -3  -5 49.3051 4.70180  26
   0  -3  -5 50.6200 5.32425  25
   0  -3  -5 46.7753 4.40244  27
   0  -3  -5 47.6924 5.55092   8
   0  -3  -5 48.7000 4.37938   4
   0   3   5 44.5722 5.14590   1
   0   3   5 45.4082 5.82682  20
   0   3   5 45.4227 5.44169  14
   0   3   5 45.8300 5.28930  11
  -1  -3  -5 153.835 12.5847   2
  -1  -3  -5 177.462 12.9244  26
  -1  -3  -5 185.805 15.0703  15
  -1  -3  -5 147.182 13.4319   8
  -1  -3  -5 183.904 12.6904   4
  -1  -3  -5 176.736 13.6886  25
  -1  -3  -5 152.344 12.7473  16
   1   3   5 159.168 13.3406   1
   1   3   5 163.302 13.5156  14
  -2  -3  -5 32.1120 4.50537   8
  -2  -3  -5 38.3270 3.62516   2
  -2  -3  -5 33.3969 3.84872  26
  -2  -3  -5 25.4437 5.65469  15
  -2  -3  -5 31.4299 3.22371   4
  -2  -3  -5 38.5868 4.40036  12
   2   3   5 34.4267 3.86021   1
   2   3   5 33.9195 4.53043  21
   2   3   5 29.8106 4.66940  14
   2   3   5 36.7829 4.20684  11
  -3  -3  -5 72.8534 6.48361   2
  -3  -3  -5 80.6155 6.80264  12
  -3  -3  -5 81.3016 6.27404   4
  -3  -3  -5 72.9729 6.60577  26
  -3  -3  -5 72.2091 7.68791   8
   3   3   5 74.5727 8.57487  22
   3   3   5 65.3614 7.61709  14
   3   3   5 71.7820 6.59463  11
   3   3   5 76.7889 6.93910   1
  -4  -3  -5 6.14620 1.93504   4
  -4  -3  -5 2.77251 3.74268   8
  -4  -3  -5 10.1922 2.79670   2
  -4  -3  -5 3.29792 3.74525  18
   4   3   5 -0.1521 2.86806  14
   4   3   5 0.37462 3.58361  22
   4   3   5 2.50274 2.33681  11
  -5  -3  -5 59.9258 5.30940   2
  -5  -3  -5 67.2052 10.1382  18
   5   3   5 55.1577 7.61403  14
   5   3   5 45.5231 5.18542  11
   5   3   5 41.5807 5.60895  17
   5   3   5 59.1526 5.87675   1
  -6  -3  -5 20.1588 3.03265   2
   6   3   5 21.4601 4.13235   1
   6   3   5 3.38106 4.96660  14
   6   3   5 14.1579 3.17361  11
   6   3   5 13.4035 2.81058   9
   6   3   5 11.1071 7.60063  22
  -7  -3  -5 4.12149 2.25405   2
   7   3   5 -1.7238 1.91941   9
   7   3   5 -3.9772 2.53318  11
   7   3   5 8.30422 6.11061   1
   5  -4  -5 1.29973 1.33847  16
   5  -4  -5 1.56704 1.01747   2
  -5   4   5 -1.1720 2.85816  11
   4  -4  -5 0.85738 1.43583  27
   4  -4  -5 -0.2421 1.28349   2
   4  -4  -5 0.88587 1.96697   9
   4  -4  -5 -2.2233 1.83742  16
  -4   4   5 0.19808 2.98694  11
  -4   4   5 7.88694 12.5701  24
  -4   4   5 4.63213 4.43233   1
   3  -4  -5 9.61702 1.85810   2
   3  -4  -5 11.1443 1.94885  27
   3  -4  -5 8.95508 2.14753  16
  -3   4   5 -1.7620 13.8169  10
  -3   4   5 8.25010 3.40154  11
  -3   4   5 5.54860 3.78562   1
  -3   4   5 8.67702 5.62565  24
   2  -4  -5 2.63947 1.88059   2
   2  -4  -5 5.41714 1.93840  27
   2  -4  -5 5.86526 2.67016   9
   2  -4  -5 8.69096 2.21454  16
   2  -4  -5 8.34967 2.59849   4
  -2   4   5 0.88769 5.87044  10
  -2   4   5 8.15307 4.17093  24
  -2   4   5 8.93986 3.36657  11
   1  -4  -5 14.8362 2.62770   2
   1  -4  -5 12.6400 2.47455  16
   1  -4  -5 20.7454 3.90914  26
   1  -4  -5 9.87051 2.23613  27
   1  -4  -5 15.8639 3.07395   4
  -1   4   5 9.07566 3.53003  24
  -1   4   5 9.05931 3.73137   1
  -1   4   5 4.10947 5.06085  20
  -1   4   5 4.36441 4.19323  10
  -1   4   5 13.4131 3.66988  11
   0  -4  -5 14.7454 2.61871   2
   0  -4  -5 14.2881 2.48614  16
   0  -4  -5 11.4142 2.29583   4
   0  -4  -5 22.4304 3.70190  26
   0   4   5 14.2113 4.08998  11
   0   4   5 8.52707 3.31366   1
  -1  -4  -5 18.1969 2.48974   4
  -1  -4  -5 24.3265 3.56017  27
  -1  -4  -5 23.8697 4.74910   8
  -1  -4  -5 23.4179 2.95736   2
  -1  -4  -5 15.1623 2.74514  16
  -1  -4  -5 15.9229 3.21757  26
   1   4   5 17.9752 4.49736  14
   1   4   5 14.6028 5.56933  20
   1   4   5 21.5365 5.82686  11
   1   4   5 11.7333 3.19805   1
  -2  -4  -5 18.4446 2.89659   2
  -2  -4  -5 16.4342 3.95999   8
  -2  -4  -5 21.2243 3.03389  26
  -2  -4  -5 16.0542 3.10758  12
  -2  -4  -5 15.4833 2.21879   4
   2   4   5 17.9009 3.80654  11
   2   4   5 18.8020 3.14040   1
   2   4   5 20.7236 4.69799  21
  -3  -4  -5 1.39508 3.54509   8
  -3  -4  -5 5.93505 1.96814   4
  -3  -4  -5 10.5097 2.78326   2
  -3  -4  -5 8.26505 2.82009  12
  -3  -4  -5 11.7037 2.88612  26
   3   4   5 2.98269 1.97417   1
   3   4   5 8.21807 2.94382  11
  -4  -4  -5 0.66416 2.90611   2
  -4  -4  -5 1.60848 1.84934   4
  -4  -4  -5 -2.2490 3.39092   8
   4   4   5 2.01580 2.25159  11
   4   4   5 0.41885 2.20195   1
   4   4   5 -7.5120 4.65437  22
   4   4   5 -0.3435 2.87788  14
  -5  -4  -5 2.16886 2.01094   4
  -5  -4  -5 4.46566 3.48246  12
  -5  -4  -5 1.09869 2.84508   2
   5   4   5 1.69583 2.54556  11
   5   4   5 -6.9471 6.32662  22
   5   4   5 2.32827 2.44278   1
   5   4   5 2.86055 3.70032  14
  -6  -4  -5 15.2845 4.51411  12
  -6  -4  -5 8.33521 2.38285   2
   6   4   5 5.32280 2.23843  11
   6   4   5 8.61646 9.54044  22
   6   4   5 1.51791 4.84491  14
   6   4   5 10.5439 3.28703   1
  -7  -4  -5 1.82774 1.89866   2
   7   4   5 -0.4572 3.74516   1
   7   4   5 -1.7348 2.03030  11
   7   4   5 3.45787 2.11952   9
   4  -5  -5 2.75584 1.63847  16
   4  -5  -5 8.16103 3.19827  12
  -4   5   5 3.14319 2.67788  11
  -4   5   5 6.29360 4.58343   1
   3  -5  -5 40.4405 3.57818  16
   3  -5  -5 32.4640 3.40973  27
  -3   5   5 32.7899 4.74767  11
  -3   5   5 33.7704 11.5416  24
  -3   5   5 27.9108 6.23928   1
   2  -5  -5 8.52594 2.08299  16
   2  -5  -5 11.0918 2.37803   4
  -2   5   5 5.42117 3.17363  11
  -2   5   5 8.10938 3.74854   1
  -2   5   5 4.91152 5.17127  24
   1  -5  -5 18.2310 2.46392  16
   1  -5  -5 14.6300 2.37355   4
   1  -5  -5 10.2414 2.18641  27
  -1   5   5 16.4520 5.15620  24
  -1   5   5 8.32215 3.31416   1
  -1   5   5 16.9571 4.37079  11
  -1   5   5 6.89162 6.46651  10
   0  -5  -5 4.15935 2.92299  12
   0  -5  -5 9.81351 2.25239   4
   0  -5  -5 4.67637 2.49858  16
   0  -5  -5 1.63750 2.15414  27
   0  -5  -5 13.6006 3.55404  26
   0   5   5 11.4204 4.66303  11
   0   5   5 -0.3415 3.06419   1
   0   5   5 -6.3123 5.09637  10
   0   5   5 -10.012 6.81866  20
  -1  -5  -5 7.22959 2.40219  16
  -1  -5  -5 14.6602 3.50633  27
  -1  -5  -5 3.10328 1.86373   4
  -1  -5  -5 10.3612 4.71394  26
  -1  -5  -5 11.1028 2.91929  12
   1   5   5 3.76149 2.96989   1
   1   5   5 18.2888 5.38569  11
   1   5   5 4.32730 4.31318  10
  -2  -5  -5 11.0720 2.93739  26
  -2  -5  -5 7.46508 2.81988  12
  -2  -5  -5 4.66673 1.90723   4
  -2  -5  -5 0.24074 4.44503   8
   2   5   5 7.29969 5.09760  21
   2   5   5 0.97838 4.09381  14
   2   5   5 -2.8464 4.84933  20
   2   5   5 14.8348 4.88410  11
  -3  -5  -5 9.30535 2.80693  12
  -3  -5  -5 13.1367 2.18328   4
   3   5   5 16.2600 3.98495  11
  -4  -5  -5 14.8101 3.13036   2
  -4  -5  -5 11.4031 2.57932  12
  -4  -5  -5 22.4761 5.44297   3
   4   5   5 3.48099 3.95353  14
  -5  -5  -5 2.02414 1.71893   4
  -5  -5  -5 3.81789 2.91544  12
   5   5   5 0.51471 2.40189   1
   5   5   5 1.25112 2.56311  11
  -6  -5  -5 -1.4328 2.59965   2
  -6  -5  -5 4.14063 3.16829  12
   6   5   5 -2.9830 5.66114  14
   6   5   5 -0.0549 2.24093  11
   6   5   5 1.37828 2.51155   1
  -7  -5  -5 -0.2950 1.92701   2
   7   5   5 -3.0371 2.01588  11
   7   5   5 2.77869 3.09756   1
   7   5   5 -0.0290 1.88420   9
   3  -6  -5 20.3112 2.52354  27
   3  -6  -5 25.4406 2.43309   4
  -3   6   5 29.9223 4.31290  11
  -3   6   5 34.4409 5.61061   1
   2  -6  -5 21.6002 2.46707  27
   2  -6  -5 18.6170 2.49014   4
   2  -6  -5 20.1301 3.08722  12
  -2   6   5 23.3220 5.32339   1
  -2   6   5 16.8192 4.19956  11
   1  -6  -5 93.5735 8.24024   4
   1  -6  -5 108.579 8.26295  16
   1  -6  -5 92.3922 8.16018  27
  -1   6   5 97.2447 9.34764  11
  -1   6   5 110.927 10.2507   1
   0  -6  -5 28.9499 3.29899   4
   0  -6  -5 29.2854 3.23929  27
   0   6   5 28.8421 7.59791  11
   0   6   5 30.0202 5.40639   1
   0   6   5 33.6525 9.73120  24
   0   6   5 51.0647 11.9617  10
  -1  -6  -5 6.17920 1.95645   4
  -1  -6  -5 5.69297 2.56132  12
  -1  -6  -5 9.34126 2.21498  27
  -1  -6  -5 15.5039 3.86779  26
   1   6   5 14.1402 5.88928  11
   1   6   5 -5.5482 6.68008  10
   1   6   5 6.78595 3.54760   1
  -2  -6  -5 13.1647 2.39808   4
  -2  -6  -5 16.1248 2.68377  12
   2   6   5 13.3438 4.10980   1
  -3  -6  -5 6.45799 2.30222  12
  -3  -6  -5 5.59654 1.77768   4
   3   6   5 13.6184 4.94980  11
   3   6   5 -14.462 8.79105  14
   3   6   5 4.81564 2.91935   1
   4   6   5 2.82911 2.77230   1
   4   6   5 -2.4516 6.16810  14
   4   6   5 9.81188 3.81835  11
  -5  -6  -5 3.35630 1.66349   4
  -5  -6  -5 5.81771 2.26166  12
   5   6   5 0.48300 2.86356  11
   5   6   5 -2.6774 6.00335  14
   5   6   5 3.14847 2.70986   1
  -6  -6  -5 21.2785 2.76498  12
   6   6   5 13.7657 3.42387  11
   6   6   5 17.2658 4.74286   1
  -7  -6  -5 5.57250 3.27337  12
  -7  -6  -5 2.31904 1.32141   3
   7   6   5 11.7572 4.24226   1
   7   6   5 3.77994 2.54988  11
   7   6   5 1.44265 2.04837   9
   2  -7  -5 1.53168 1.12178  27
   2  -7  -5 2.99261 1.12409   4
  -2   7   5 -1.6774 3.19409  11
   1  -7  -5 2.61681 1.94811  12
   1  -7  -5 -1.5375 1.21138   4
   1  -7  -5 1.09617 1.21740  27
  -1   7   5 4.28924 4.48088   1
  -1   7   5 0.91746 3.96081  11
   0  -7  -5 5.77156 2.00969  12
   0  -7  -5 7.89284 1.59678   4
   0  -7  -5 4.26797 1.57010  27
   0   7   5 5.84111 5.40278  11
   0   7   5 8.24274 5.53839   1
  -1  -7  -5 1.44857 1.87661  12
  -1  -7  -5 2.95393 1.74886   4
   1   7   5 -4.9960 9.45517  24
   1   7   5 5.38181 4.82640   1
  -2  -7  -5 13.7062 2.22567   4
  -2  -7  -5 23.4594 2.90075  12
  -3  -7  -5 15.7645 2.44927   4
  -3  -7  -5 21.7110 2.89264  12
   3   7   5 14.7161 4.49726   1
  -4  -7  -5 4.27924 3.10106  12
  -4  -7  -5 5.11341 2.28572   4
   4   7   5 0.37451 4.58958  11
   4   7   5 1.97963 3.78822   1
  -5  -7  -5 1.45846 1.93455  12
  -5  -7  -5 -0.1194 1.54342   4
   5   7   5 5.24763 3.46765  11
   5   7   5 4.38013 3.37606   1
  -6  -7  -5 5.20770 1.76786  12
   6   7   5 6.18746 3.09714   9
   6   7   5 10.5717 3.51104   1
   0  -8  -5 -0.5517 1.81056  12
   0  -8  -5 3.26316 1.39713  27
   0  -8  -5 0.83969 0.94977   4
  -1  -8  -5 13.4471 2.17685  12
  -1  -8  -5 14.9683 1.93535   4
  -1  -8  -5 19.0675 2.29676  27
  -2  -8  -5 -0.7479 1.56193  12
  -2  -8  -5 1.67813 1.25705   4
  -3  -8  -5 3.62442 1.42384   4
  -4  -8  -5 1.07396 1.53255  12
  -4  -8  -5 0.57740 1.24816   4
  -5  -8  -5 2.64456 1.42444   4
  -5  -8  -5 1.22901 1.42151  12
   5   8   5 6.37777 5.42756  11
   2   7  -6 1.98854 2.53224  11
  -2  -7   6 2.02399 1.03661  28
   5   6  -6 3.86796 1.81947  11
   5   6  -6 -0.6440 2.29897   8
  -5  -6   6 3.32506 2.34787  27
  -5  -6   6 3.61788 1.20215  28
   4   6  -6 1.39774 3.10335   8
   4   6  -6 2.90274 2.96205   1
   4   6  -6 2.13975 1.95599  11
  -4  -6   6 3.72572 1.15891  28
  -4  -6   6 2.18392 1.59971  27
  -4  -6   6 3.69993 1.27756   3
   3   6  -6 -1.7831 5.07599   8
   3   6  -6 -2.7627 1.92572  11
   3   6  -6 1.51869 2.93303   1
  -3  -6   6 0.00907 1.11362   3
  -3  -6   6 -0.9173 1.05322  28
  -3  -6   6 -1.2982 1.42774  27
   2   6  -6 25.2242 3.47352  11
   2   6  -6 20.5000 4.47726   1
  -2  -6   6 26.5855 2.44771  28
  -2  -6   6 20.0281 2.67716  27
   1   6  -6 2.47647 2.45215  11
   1   6  -6 9.53656 3.69731   1
  -1  -6   6 3.17038 0.99122  28
  -1  -6   6 5.26854 1.39062  27
  -1  -6   6 3.39757 1.18656   3
   0   6  -6 2.10504 3.68995   1
   0   6  -6 1.95427 2.50108  11
   0  -6   6 1.99561 1.05442   3
   0  -6   6 2.86983 1.07992  28
   0  -6   6 1.06341 1.17439  27
  -1   6  -6 10.1462 4.87632   1
  -1   6  -6 4.78638 2.37424  11
   1  -6   6 3.61187 1.23555  27
   1  -6   6 4.50700 1.40217  28
   1  -6   6 3.52171 1.15013   3
   6   5  -6 2.87985 1.34589  26
   6   5  -6 10.9623 2.44252   8
   6   5  -6 8.70762 2.08083  11
  -6  -5   6 6.09800 1.16290  28
   5   5  -6 32.9298 4.00531  11
   5   5  -6 31.0967 3.41863  26
   5   5  -6 44.6239 5.11741   1
  -5  -5   6 31.5624 3.26703   3
  -5  -5   6 40.7161 3.53816  27
   4   5  -6 -0.9624 5.65968  25
   4   5  -6 1.96039 1.90905  11
   4   5  -6 -0.0945 2.91044   1
   4   5  -6 0.72661 3.01629   8
   4   5  -6 -0.3117 2.49915  26
  -4  -5   6 -0.3925 1.56743   3
  -4  -5   6 0.87658 1.12869  28
   3   5  -6 44.5012 5.47571   1
   3   5  -6 36.1464 7.66364  25
  -3  -5   6 41.0387 4.30580  28
  -3  -5   6 36.7693 4.26581   3
   2   5  -6 94.0453 11.1248  25
   2   5  -6 94.9874 8.18523  11
  -2  -5   6 87.7294 7.49085   3
  -2  -5   6 93.8930 7.53515  28
   1   5  -6 3.50618 7.65522   8
   1   5  -6 0.81471 9.58262  15
   1   5  -6 -1.4476 3.09534   1
   1   5  -6 1.76846 2.39270  11
  -1  -5   6 -2.3176 7.67669   5
  -1  -5   6 3.86892 1.53308  28
   0   5  -6 8.27442 8.91661  15
   0   5  -6 2.38175 3.47209   1
   0   5  -6 1.63253 2.60333  11
   0  -5   6 -1.0577 2.42400   2
   0  -5   6 -0.4332 2.15783  27
   0  -5   6 7.24855 2.70152   3
   0  -5   6 -7.7699 10.0767   5
   0  -5   6 3.68256 2.41226  28
  -1   5  -6 3.89388 3.86003   1
  -1   5  -6 6.38854 2.81470  11
   1  -5   6 0.55276 1.57209  27
  -2   5  -6 0.86242 2.43179  11
  -2   5  -6 -1.1301 4.54915   1
   2  -5   6 3.74181 2.04131   4
   2  -5   6 1.87849 1.62850  27
   2  -5   6 0.56268 0.89316   3
   2  -5   6 -1.4089 2.97415  17
  -3   5  -6 -2.5297 2.43380   7
  -3   5  -6 -0.8382 2.75584  11
   3  -5   6 -0.4114 1.64841  17
   6   4  -6 0.68513 1.28986  26
   6   4  -6 0.12478 2.70082   8
   6   4  -6 1.18133 4.46692   1
   6   4  -6 3.46671 2.46353  11
  -6  -4   6 2.18755 1.42878   2
  -6  -4   6 3.48385 1.24714  28
   5   4  -6 1.16421 3.36445   1
   5   4  -6 2.65744 5.73500  25
   5   4  -6 -1.0935 1.79168  26
   5   4  -6 -0.9219 1.90641  11
  -5  -4   6 0.02990 1.62329   2
  -5  -4   6 -1.4014 1.37723  28
   4   4  -6 28.8518 6.75106  25
   4   4  -6 26.4553 3.21066  26
   4   4  -6 28.5593 3.69350  11
   4   4  -6 32.8979 4.69161   1
  -4  -4   6 22.4092 2.98944   2
  -4  -4   6 27.8484 3.19139   3
  -4  -4   6 20.6133 2.80749  28
   3   4  -6 134.471 12.0495  25
  -3  -4   6 114.211 9.20424   3
  -3  -4   6 105.952 9.18740   2
   2   4  -6 6.01506 6.89769  15
   2   4  -6 7.23811 4.43299  25
   2   4  -6 13.2815 3.40312   1
   2   4  -6 18.1715 4.05369   8
   2   4  -6 9.53021 3.06389  11
  -2  -4   6 15.6829 2.55950   3
  -2  -4   6 13.5806 2.35487   2
  -2  -4   6 10.8619 4.94155  21
  -2  -4   6 19.6232 2.38353  28
   1   4  -6 7.42366 2.75048  11
   1   4  -6 2.54900 3.96917   8
   1   4  -6 4.79978 2.56031   1
   1   4  -6 -0.7209 5.55748  15
   1   4  -6 5.09736 4.41902  25
  -1  -4   6 -0.8199 3.55626  21
  -1  -4   6 6.37488 2.11463   2
  -1  -4   6 6.85551 1.83027  28
  -1  -4   6 -7.6552 5.83663   5
  -1  -4   6 3.51420 1.66247   3
   0   4  -6 401.882 31.2337  11
   0   4  -6 441.543 32.5737  25
   0   4  -6 400.062 30.8309   1
   0   4  -6 326.824 33.3664  15
   0  -4   6 375.622 29.5448  27
   0  -4   6 414.201 29.1639   3
   0  -4   6 414.331 29.0711  28
  -1   4  -6 0.93209 6.38492  15
  -1   4  -6 -0.2548 3.45530   1
   1  -4   6 5.58945 1.57266   3
   1  -4   6 6.62845 1.71090  28
   1  -4   6 5.75653 1.86838   2
   1  -4   6 5.44558 7.53755   5
   1  -4   6 5.07416 2.08117  27
  -2   4  -6 17.1341 7.50043  15
  -2   4  -6 8.39761 2.89699  11
   2  -4   6 8.18020 2.77052   2
   2  -4   6 2.59933 10.0007   5
   2  -4   6 5.19392 2.50815  27
   2  -4   6 5.38284 1.53951  28
   2  -4   6 6.72497 1.69673   3
  -3   4  -6 -0.5255 4.95436   1
   3  -4   6 -1.0157 1.32835   2
   3  -4   6 3.04181 2.00031  17
  -4   4  -6 -1.8881 3.11844  11
  -4   4  -6 0.15452 2.61398   7
   4  -4   6 2.54997 1.21955   2
   4  -4   6 3.02703 1.03124   4
   4  -4   6 1.58368 1.48469  17
   6   3  -6 -1.3607 1.36815  26
   6   3  -6 0.43092 2.24073  11
   6   3  -6 1.04694 5.72895   1
   6   3  -6 -1.8000 2.97683   8
  -6  -3   6 -1.2851 1.71065   2
   5   3  -6 0.69277 1.97886  26
   5   3  -6 -5.3636 4.90084  22
   5   3  -6 2.27919 2.01595  11
   5   3  -6 -3.6732 3.04562   1
   5   3  -6 -3.9084 5.67115  25
  -5  -3   6 5.40409 2.38338   2
   4   3  -6 2.23873 3.80906  22
   4   3  -6 6.86081 2.29403  26
   4   3  -6 3.27025 4.30940  25
   4   3  -6 1.80346 2.81320   1
   4   3  -6 3.62867 2.11504  11
  -4  -3   6 3.91518 2.40398   2
   3   3  -6 7.06245 2.50302  11
   3   3  -6 7.76308 6.03288  15
   3   3  -6 3.28735 3.88448  25
   3   3  -6 14.6425 2.72509  26
   3   3  -6 7.77764 2.99479   1
  -3  -3   6 9.25401 2.52411   2
   2   3  -6 7.29485 5.04508  15
   2   3  -6 11.3384 7.25605   6
   2   3  -6 7.73452 2.88508   1
   2   3  -6 7.85254 3.37205  25
   2   3  -6 8.53591 2.62141  11
  -2  -3   6 10.8581 2.58877   2
  -2  -3   6 15.4035 4.31830  21
   1   3  -6 1.80452 2.50047   1
   1   3  -6 3.55313 3.12786  25
   1   3  -6 -3.3767 2.19246  11
   1   3  -6 1.12948 3.90390  15
   1   3  -6 2.31400 3.46450   8
   1   3  -6 -6.2643 6.09097   6
  -1  -3   6 1.90031 2.99139  21
  -1  -3   6 0.40753 2.08550   2
  -1  -3   6 -2.3344 4.04400   5
   0   3  -6 117.159 14.1078   6
   0   3  -6 82.9695 11.5404  15
   0   3  -6 104.846 9.21353   1
   0   3  -6 109.559 8.67446  11
   0  -3   6 84.3892 9.17214  17
   0  -3   6 86.3437 7.67393  28
   0  -3   6 96.0422 8.00347   2
   0  -3   6 91.5597 8.90744  21
   0  -3   6 108.023 7.77665   3
  -1   3  -6 38.6980 6.25195   8
  -1   3  -6 55.0716 6.22923   1
  -1   3  -6 37.7348 11.4479  18
  -1   3  -6 43.8190 5.22814  11
  -1   3  -6 45.2419 8.91929  15
   1  -3   6 54.6715 4.63786   2
   1  -3   6 55.2447 5.75952  21
   1  -3   6 31.8626 8.93647   5
   1  -3   6 50.4760 4.37767  28
   1  -3   6 49.8569 5.56185  17
   1  -3   6 51.0766 4.88840  27
  -2   3  -6 36.2341 10.6404  15
  -2   3  -6 46.8591 6.45284   1
   2  -3   6 45.3714 5.23376  17
   2  -3   6 46.3580 4.16607  28
   2  -3   6 48.0120 4.50396   2
   2  -3   6 45.0725 4.29500   3
   2  -3   6 55.1662 4.71816  27
  -3   3  -6 4.09605 6.13742  15
  -3   3  -6 0.10638 8.30770  18
  -3   3  -6 13.5451 5.51730   1
  -3   3  -6 14.9267 3.31940  11
   3  -3   6 8.36160 2.06140   2
   3  -3   6 7.15227 10.8327   5
  -4   3  -6 0.03970 3.15421   7
  -4   3  -6 4.79163 3.27388  11
  -4   3  -6 8.56979 6.47299   1
   4  -3   6 5.21027 1.97890  17
  -5   3  -6 4.06323 3.18412   7
   5  -3   6 2.06598 1.06931   2
   5  -3   6 -0.2173 1.44556  17
   7   2  -6 0.79426 1.10871  26
   6   2  -6 0.62900 3.88316  11
   6   2  -6 0.56154 3.47919   8
   6   2  -6 -2.2197 1.47041  26
   6   2  -6 -0.9943 2.03378  16
  -6  -2   6 3.64289 2.16680   2
   5   2  -6 7.14395 2.22340  26
   5   2  -6 5.38661 3.94007   1
   5   2  -6 2.22807 4.93874  25
   5   2  -6 3.55898 5.67415  22
   5   2  -6 3.37220 2.26859  11
  -5  -2   6 10.1878 3.86482   7
  -5  -2   6 4.73505 2.90427   2
   4   2  -6 -0.4324 3.91156  25
   4   2  -6 0.29363 3.72328  22
   4   2  -6 -2.0084 2.17282  26
   4   2  -6 -0.3732 2.69931   1
  -4  -2   6 3.81842 4.16766   7
   3   2  -6 0.24509 4.67443  15
   3   2  -6 6.52008 2.72321   1
   3   2  -6 8.28787 3.40489  25
   3   2  -6 7.14960 2.45317  11
   3   2  -6 11.9052 2.70844  26
   3   2  -6 -2.5500 7.10018   6
  -3  -2   6 11.4957 4.68481  21
  -3  -2   6 7.69403 2.84105   2
   2   2  -6 15.5469 2.62648  11
   2   2  -6 9.50523 4.99569   6
   2   2  -6 6.30954 3.75468  15
   2   2  -6 11.1896 3.02079   1
   2   2  -6 9.32397 2.85484  26
   2   2  -6 16.0532 3.82141  25
  -2  -2   6 11.6533 3.85573  21
   1   2  -6 -1.3926 3.07091  15
   1   2  -6 5.58001 3.96984   6
   1   2  -6 2.09252 2.42481   1
   1   2  -6 4.92560 2.17104  11
   1   2  -6 5.53421 3.17686   8
  -1  -2   6 1.68300 2.78062  21
   0   2  -6 22.1196 3.32540  11
   0   2  -6 24.4125 4.20031  25
   0   2  -6 20.0749 7.87119  18
   0   2  -6 20.2467 5.94885  15
   0   2  -6 24.2622 3.94262   8
   0   2  -6 18.4789 3.45888   1
   0  -2   6 25.6705 3.13761   2
   0  -2   6 22.1537 5.17677  14
   0  -2   6 26.9792 3.92751  21
  -1   2  -6 2.54438 2.99359  25
  -1   2  -6 7.09926 4.13437  18
  -1   2  -6 11.1243 2.85052  11
  -1   2  -6 9.76308 3.39160   1
  -1   2  -6 13.8851 3.49081   8
  -1   2  -6 0.71518 3.31474  15
   1  -2   6 2.54755 3.65434  14
   1  -2   6 10.6547 4.45296   5
   1  -2   6 5.98338 2.64837  21
   1  -2   6 12.3304 3.55544  17
   1  -2   6 7.25420 2.15019   3
  -2   2  -6 35.6661 5.38901   1
  -2   2  -6 35.4035 6.08640   8
  -2   2  -6 42.2663 8.30658  18
  -2   2  -6 23.0854 6.68934  25
  -2   2  -6 23.4977 7.27755  15
  -2   2  -6 39.2683 4.76007  11
   2  -2   6 37.1550 3.68717   2
   2  -2   6 30.8285 3.53648   3
   2  -2   6 36.8099 4.49721  17
   2  -2   6 36.5558 7.55874  14
   2  -2   6 36.7193 4.22660  21
   2  -2   6 49.7175 8.44121   5
  -3   2  -6 9.45138 6.14256  18
  -3   2  -6 13.1814 3.55879  11
  -3   2  -6 7.39270 4.50518   1
  -3   2  -6 14.0322 5.31391  15
   3  -2   6 11.4376 2.12684   2
   3  -2   6 6.89954 7.30088  14
   3  -2   6 12.5935 8.65640   5
   3  -2   6 6.33990 3.37618  21
   3  -2   6 13.6670 3.14843  17
   3  -2   6 12.4546 2.05796   3
  -4   2  -6 17.9703 7.18119   1
  -4   2  -6 1.07610 7.91079  18
  -4   2  -6 4.16215 3.52260  11
  -4   2  -6 -0.2075 7.71149  15
   4  -2   6 8.95300 2.09162   2
   4  -2   6 8.39161 2.56621  17
  -5   2  -6 11.6939 3.87849   7
   5  -2   6 1.96720 1.70172  17
   5  -2   6 5.04703 1.43388   2
   6   1  -6 19.2074 2.40119  16
  -6  -1   6 15.3503 2.81069   2
  -6  -1   6 27.5321 4.84918   7
   5   1  -6 8.03381 2.41919  16
   5   1  -6 -7.2362 5.20013  11
   5   1  -6 6.72518 2.18212  26
   5   1  -6 1.72179 3.97893   8
  -5  -1   6 4.57731 2.98714   2
  -5  -1   6 4.01394 3.92625   7
   4   1  -6 7.78561 3.65094   1
   4   1  -6 24.2012 5.42644  25
   4   1  -6 20.1414 3.37984   2
   4   1  -6 17.8845 2.86202  26
   4   1  -6 14.1272 2.82200  16
  -4  -1   6 26.5517 4.87852   7
  -4  -1   6 14.2433 3.10366   2
  -4  -1   6 24.5016 6.22071  21
   3   1  -6 107.027 9.90215   1
   3   1  -6 108.996 8.98399   2
   3   1  -6 121.487 10.8386  25
   3   1  -6 122.545 12.8315  15
   3   1  -6 98.2352 13.1676   6
   3   1  -6 111.804 9.02221  16
   3   1  -6 100.920 9.05486  26
  -3  -1   6 113.134 9.48703   2
  -3  -1   6 103.816 9.89582  21
   2   1  -6 21.0200 3.84498   8
   2   1  -6 18.7074 6.30821   6
   2   1  -6 14.7646 3.06400  11
   2   1  -6 23.6065 3.11159  26
   2   1  -6 18.9228 5.50227  15
   2   1  -6 21.0151 4.02885  25
   2   1  -6 18.6797 3.50608   1
  -2  -1   6 24.8967 3.42248   2
  -2  -1   6 19.5915 3.80522  21
   1   1  -6 4.95350 3.22292  26
   1   1  -6 1.10278 2.72745  15
   1   1  -6 1.02069 2.14856   1
   1   1  -6 1.63175 2.78531   6
   1   1  -6 2.96035 1.93870  11
   1   1  -6 -1.2389 2.44626  25
   1   1  -6 1.74182 2.94934   8
  -1  -1   6 3.90764 2.40520  21
   0   1  -6 104.299 11.1539  15
   0   1  -6 103.910 9.07379   8
   0   1  -6 96.9146 10.1755  18
   0   1  -6 111.293 8.59145  26
   0   1  -6 94.4233 9.17808   2
   0   1  -6 108.587 9.13629   1
   0   1  -6 92.0444 8.50759  11
   0  -1   6 83.3664 8.98777  17
   0  -1   6 99.1642 8.32432   2
   0  -1   6 100.756 10.1433  14
   0  -1   6 116.011 9.41215   5
   0  -1   6 107.339 9.03368  21
  -1   1  -6 56.5177 7.76763  15
  -1   1  -6 63.9696 6.19609   8
  -1   1  -6 52.9893 5.69130  11
  -1   1  -6 47.9562 7.70508  18
  -1   1  -6 63.6765 6.60731  25
  -1   1  -6 63.1322 6.47497   1
   1  -1   6 61.5382 5.28442   2
   1  -1   6 61.3076 7.15066   5
   1  -1   6 53.1253 5.84312  17
   1  -1   6 53.1684 5.59224   3
   1  -1   6 69.5026 7.74531  14
   1  -1   6 60.3712 5.78054  21
  -2   1  -6 33.8423 7.02518  15
  -2   1  -6 36.0985 5.35236  25
  -2   1  -6 36.8898 4.54125  11
  -2   1  -6 37.3473 5.26968   1
  -2   1  -6 37.6459 7.29736  18
   2  -1   6 41.1360 6.55641  14
   2  -1   6 40.4256 4.62265  21
   2  -1   6 40.9676 3.95244   3
   2  -1   6 40.2649 9.31076   5
  -3   1  -6 37.3440 5.62776   8
  -3   1  -6 23.5066 5.45083   1
  -3   1  -6 22.7451 7.38592  15
  -3   1  -6 17.4830 7.48051  18
  -3   1  -6 26.5472 3.90198  11
   3  -1   6 27.5794 6.46036  14
   3  -1   6 23.6312 3.72342  17
   3  -1   6 25.1556 3.06604   2
   3  -1   6 25.1428 3.93833  21
   3  -1   6 30.9647 8.96096   5
  -4   1  -6 3.54482 5.97279  18
  -4   1  -6 2.99616 3.92932  11
  -4   1  -6 -0.8273 8.61739  15
   4  -1   6 2.55976 7.46133  14
   4  -1   6 4.86696 3.30092  21
   4  -1   6 9.16872 2.95087  17
   4  -1   6 5.41174 2.15521   2
  -5   1  -6 -1.3204 3.70712   7
  -5   1  -6 9.80498 9.81844  18
  -5   1  -6 2.03847 4.37895   2
  -5   1  -6 2.10422 8.07339  11
   5  -1   6 1.29232 1.66867   2
   5  -1   6 0.45525 1.95981  17
  -6   1  -6 1.84603 3.65521   7
   6  -1   6 0.88341 1.20738   2
   6  -1   6 0.63574 1.51285  17
   6   0  -6 -5.3509 4.38460   9
   6   0  -6 2.09981 1.80162  26
   6   0  -6 3.97795 1.81472   2
   6   0  -6 -0.8490 1.31193  16
  -6   0   6 2.72002 2.11134   2
  -6   0   6 -1.2855 4.14254   7
   5   0  -6 1.70572 2.11602   2
   5   0  -6 4.89190 1.97711  16
   5   0  -6 6.53089 3.08963   9
  -5   0   6 5.87246 3.01722   2
  -5   0   6 8.24279 11.4628  24
  -5   0   6 0.38560 4.06284   7
   4   0  -6 52.6282 5.87588   8
   4   0  -6 44.7454 4.84097   2
   4   0  -6 51.4945 5.04621  26
   4   0  -6 49.4907 4.85057  16
   4   0  -6 45.8437 5.25554   9
  -4   0   6 49.2030 6.50156  21
  -4   0   6 59.1866 5.73311   2
  -4   0   6 55.1262 6.19242   7
   3   0  -6 17.0240 4.02460   8
   3   0  -6 18.7427 4.20971  25
   3   0  -6 24.7454 3.58966   9
   3   0  -6 19.0307 6.75083  15
   3   0  -6 21.9150 3.04541   2
   3   0  -6 26.1604 3.16523  16
   3   0  -6 21.5283 3.14946  26
  -3   0   6 24.3522 4.44592  21
  -3   0   6 7.44144 8.19385   1
  -3   0   6 19.9651 5.86731  24
  -3   0   6 24.2245 3.94668   2
  -3   0   6 26.6527 5.10608   7
   2   0  -6 11.6564 2.69101  26
   2   0  -6 12.4983 3.40290   1
   2   0  -6 16.3644 2.74989   2
   2   0  -6 11.6448 2.76082  11
   2   0  -6 9.67017 3.92586  15
   2   0  -6 12.2160 3.34259  25
   2   0  -6 13.6987 3.43558   8
   2   0  -6 12.3935 3.87645   6
   2   0  -6 14.1000 3.17308  16
  -2   0   6 13.5872 3.44425  11
  -2   0   6 17.3315 3.66016  21
  -2   0   6 11.9607 4.54618  24
  -2   0   6 13.8761 4.13315  10
   1   0  -6 158.108 11.9887   6
   1   0  -6 135.329 11.6088   8
   1   0  -6 140.684 13.4811  15
   1   0  -6 121.417 10.6837  26
   1   0  -6 137.626 10.8992  11
   1   0  -6 119.447 11.1452   1
  -1   0   6 139.472 11.6162  21
  -1   0   6 124.504 10.9785   2
  -1   0   6 145.589 11.5719  24
  -1   0   6 146.200 11.5183  10
   0   0  -6 3.63468 2.62693   8
   0   0  -6 5.98588 2.90815  26
   0   0  -6 1.54914 2.23275  25
   0   0  -6 4.01573 2.19692  11
   0   0  -6 4.26182 2.24264   1
   0   0  -6 -1.0055 3.09995  15
   0   0  -6 0.03927 2.10839   6
   0   0   6 1.12939 4.94295  14
   0   0   6 3.45341 2.15349  11
   0   0   6 5.31256 3.10959  10
   0   0   6 1.41883 2.59269  20
   0   0   6 2.36821 2.15729  21
  -1   0  -6 44.2993 5.26952   2
  -1   0  -6 51.2640 6.76031  25
  -1   0  -6 57.7212 7.61723  15
  -1   0  -6 52.3872 5.42930  11
  -1   0  -6 55.0725 5.47125  26
  -1   0  -6 53.6300 5.72226   8
  -1   0  -6 42.5468 5.64513   1
   1   0   6 65.0936 5.31381  11
   1   0   6 48.4051 6.43002  14
   1   0   6 53.4823 5.32488  21
   1   0   6 50.6548 4.85475   2
   1   0   6 60.7011 5.80618   1
  -2   0  -6 3.88920 2.99862   8
  -2   0  -6 4.02411 3.01336  18
  -2   0  -6 5.04300 3.19985  15
  -2   0  -6 8.01524 2.83958  11
  -2   0  -6 2.76399 3.29764   1
  -2   0  -6 3.10602 3.58068   2
  -2   0  -6 3.64061 2.60954  25
   2   0   6 8.81548 2.58435   2
   2   0   6 -1.3807 3.67312   1
   2   0   6 3.80076 2.82511  11
   2   0   6 3.36857 2.35373  14
   2   0   6 0.96491 2.35901  21
  -3   0  -6 2.46371 3.36270  25
  -3   0  -6 3.31004 3.01839  11
  -3   0  -6 22.1125 6.15492   2
   3   0   6 10.2592 2.91119  17
   3   0   6 13.3536 4.28670  11
   3   0   6 10.3096 2.56418   2
   3   0   6 8.70787 3.08178  21
  -4   0  -6 5.77889 4.31296   7
  -4   0  -6 14.8236 4.85089   8
  -4   0  -6 -4.0222 5.82496  15
  -4   0  -6 -0.6676 4.34480  18
   4   0   6 0.26182 4.31275  14
   4   0   6 5.95819 2.57932  17
   4   0   6 8.17912 2.09250   2
   4   0   6 3.28824 2.92104  21
  -5   0  -6 0.57157 4.39313   7
  -5   0  -6 4.21762 7.48597  18
   5   0   6 13.9628 2.42093   2
   5   0   6 17.2845 9.01059  14
   5   0   6 8.64244 2.63721  17
  -6   0  -6 3.46639 4.34845   7
  -6   0  -6 5.35312 3.08666   2
   6   0   6 2.89416 1.70336   2
   6   0   6 2.70242 1.98495  17
   6   0   6 1.26548 3.53454   9
   6  -1  -6 1.03477 1.23660  16
   6  -1  -6 1.64628 1.20490   2
   6  -1  -6 -1.3897 2.58937  26
   6  -1  -6 3.17397 2.56422   9
  -6   1   6 0.85404 2.62509   2
   5  -1  -6 3.57179 2.36476  16
   5  -1  -6 1.80914 2.42414  26
   5  -1  -6 5.73590 2.44003   9
   5  -1  -6 1.71056 2.67086   2
  -5   1   6 11.9036 10.4489  24
  -5   1   6 1.56672 5.46549  21
  -5   1   6 0.21468 3.53987   2
  -5   1   6 2.25130 4.99445   7
   4  -1  -6 3.60477 2.45891  26
   4  -1  -6 11.8976 2.19999   2
   4  -1  -6 8.63613 2.33238  16
   4  -1  -6 7.17588 3.08296   9
  -4   1   6 6.03283 5.13558   7
  -4   1   6 12.2071 6.58529   1
  -4   1   6 12.3629 4.21214  11
  -4   1   6 -1.4081 5.97586  24
  -4   1   6 3.10196 9.96861  10
  -4   1   6 13.4326 4.01002   2
   3  -1  -6 14.5801 2.33465   2
   3  -1  -6 3.84698 3.59708  25
   3  -1  -6 14.6839 2.62639  16
   3  -1  -6 9.72414 2.59752  26
   3  -1  -6 9.78397 2.65566   9
  -3   1   6 5.87175 6.07797  10
  -3   1   6 2.00748 7.55961  20
  -3   1   6 2.39573 4.19583   1
  -3   1   6 -0.3584 4.03253  24
  -3   1   6 19.0847 5.87281   7
  -3   1   6 6.26195 2.97669  11
   2  -1  -6 35.4045 4.64608  25
   2  -1  -6 34.7753 3.70184  26
   2  -1  -6 36.7485 3.94405   9
   2  -1  -6 28.4230 4.64944   8
   2  -1  -6 38.9596 3.84930  16
   2  -1  -6 30.9485 7.28653   6
   2  -1  -6 25.0932 6.29355  15
   2  -1  -6 35.7791 3.57025   2
  -2   1   6 32.1804 5.11391   1
  -2   1   6 28.7574 4.13246  11
  -2   1   6 28.2040 7.29283  20
  -2   1   6 28.0880 4.99300  24
  -2   1   6 27.5819 5.55610  10
  -2   1   6 41.3656 5.51961   2
   1  -1  -6 73.9866 6.41913  26
   1  -1  -6 74.8151 7.29657  25
   1  -1  -6 77.5096 7.18247   8
   1  -1  -6 72.8704 6.37248   2
   1  -1  -6 68.6142 6.36808  16
   1  -1  -6 69.3264 8.99184  15
   1  -1  -6 66.4753 7.37827  11
  -1   1   6 87.6973 7.59125   2
  -1   1   6 80.5335 8.07964  14
  -1   1   6 65.8533 6.71085  11
  -1   1   6 73.7184 7.31757  21
  -1   1   6 72.5368 7.19395   1
  -1   1   6 76.4400 7.57285  10
  -1   1   6 78.9472 8.10344  20
   0  -1  -6 5.22220 2.06967   6
   0  -1  -6 10.4551 2.84213   8
   0  -1  -6 5.49680 3.06142  15
   0  -1  -6 9.54684 2.77236  25
   0   1   6 7.14550 2.32308  11
   0   1   6 10.0436 2.98987   1
   0   1   6 10.6720 3.04206  21
   0   1   6 9.08143 3.41069  20
   0   1   6 6.65976 2.56774  14
  -1  -1  -6 -1.8306 1.93970   6
  -1  -1  -6 -2.1500 1.92373  25
  -1  -1  -6 0.40319 2.34962   8
  -1  -1  -6 -1.4345 2.53229  15
  -1  -1  -6 5.21090 4.83438   1
  -1  -1  -6 11.9820 4.07287  11
   1   1   6 -0.9109 2.36552  21
   1   1   6 2.86791 2.44838   1
   1   1   6 1.91791 2.05503  11
  -2  -1  -6 109.532 9.89847  25
  -2  -1  -6 107.391 11.1793  15
  -2  -1  -6 110.777 11.3643  18
  -2  -1  -6 96.7878 8.25429   4
  -2  -1  -6 107.508 9.46103   8
  -2  -1  -6 105.203 8.52091   2
  -2  -1  -6 101.202 8.69506  26
   2   1   6 114.237 10.2443  14
   2   1   6 100.866 9.10212   1
   2   1   6 112.216 9.10841  21
   2   1   6 92.7179 8.56470   2
  -3  -1  -6 15.5233 3.82148   8
  -3  -1  -6 9.10481 3.59111  18
  -3  -1  -6 9.48055 3.10314   2
  -3  -1  -6 9.83278 3.77457  15
  -3  -1  -6 10.3171 3.63644  25
   3   1   6 13.6886 2.97256  11
   3   1   6 8.61150 3.29392  14
   3   1   6 12.3671 3.19550  21
   3   1   6 14.9927 2.92613  17
   3   1   6 8.37617 3.27946   1
   3   1   6 18.0190 3.22938   2
  -4  -1  -6 19.9048 7.17066  18
  -4  -1  -6 24.2984 3.95374   2
  -4  -1  -6 30.4121 5.88504   7
  -4  -1  -6 35.5100 5.02580   8
   4   1   6 28.9914 3.79847   2
   4   1   6 34.0770 3.92459  17
   4   1   6 22.4707 7.15718  22
   4   1   6 31.0995 4.30110  21
   4   1   6 19.8786 6.03997  14
   4   1   6 21.8974 4.00585  11
   4   1   6 23.9998 7.55842   1
  -5  -1  -6 15.8278 3.45938   2
  -5  -1  -6 7.46493 7.18716  18
   5   1   6 27.6839 8.83177  22
   5   1   6 17.2290 3.17952  17
   5   1   6 20.3870 2.81576   2
   5   1   6 14.3651 4.40701  11
   5   1   6 18.9330 3.01894   9
   5   1   6 7.14063 7.09193  14
  -6  -1  -6 1.39406 5.49289   7
  -6  -1  -6 0.26489 2.77500   2
   6   1   6 6.30227 2.36009   2
   6   1   6 -1.0359 2.26704   9
   6   1   6 1.02182 2.30381  17
  -7  -1  -6 2.82871 2.24399   2
   7   1   6 -1.4224 2.65110   9
   7   1   6 2.28722 2.46900  17
   7   1   6 1.42638 1.69214   2
   6  -2  -6 12.5638 1.61160   2
   6  -2  -6 10.5189 1.53767  16
   5  -2  -6 9.17795 2.68221   9
   5  -2  -6 9.78091 1.75652   2
   5  -2  -6 10.1696 2.74908  26
   5  -2  -6 10.9775 1.98683  16
  -5   2   6 23.1505 7.90874  11
  -5   2   6 3.85117 4.62442  21
  -5   2   6 5.65973 4.53731   2
   4  -2  -6 19.8522 2.86452  16
   4  -2  -6 23.4097 3.20312  26
   4  -2  -6 26.8869 2.92085   2
   4  -2  -6 29.0697 3.72922   9
  -4   2   6 31.3268 6.69188   1
  -4   2   6 22.7340 3.97271  11
  -4   2   6 22.5857 5.65148   2
   3  -2  -6 82.9816 6.75509   2
   3  -2  -6 74.3952 7.00993   9
   3  -2  -6 66.9384 6.66298  16
   3  -2  -6 66.1575 6.55930  26
  -3   2   6 94.0889 9.82769  24
  -3   2   6 75.2003 7.69648  11
  -3   2   6 87.6350 8.50559   1
   2  -2  -6 47.7698 4.95668   9
   2  -2  -6 44.4002 4.45533  27
   2  -2  -6 45.6945 4.57005  16
   2  -2  -6 50.0053 4.45454   2
   2  -2  -6 41.7791 5.60625   8
  -2   2   6 49.4431 6.43140  24
  -2   2   6 42.2957 8.89211  20
  -2   2   6 61.7133 7.28184  10
  -2   2   6 41.1758 5.32624  11
  -2   2   6 45.3285 5.80006   1
   1  -2  -6 15.5730 2.45107  26
   1  -2  -6 15.3110 2.58167  16
   1  -2  -6 8.55312 3.38931  25
   1  -2  -6 12.1365 2.26647  27
   1  -2  -6 11.8180 2.34083   2
   1  -2  -6 17.3508 3.42467   8
   1  -2  -6 12.7134 4.85300  15
  -1   2   6 16.1828 3.45898   1
  -1   2   6 13.7589 3.91450  10
  -1   2   6 10.5815 2.95430  11
  -1   2   6 8.99782 4.63358  20
   0  -2  -6 39.0234 7.09716  15
   0  -2  -6 46.8052 4.51984  26
   0  -2  -6 49.4733 5.26337   8
   0  -2  -6 49.0101 4.44774   2
   0  -2  -6 41.0763 5.32620  25
   0  -2  -6 53.6709 4.78977  16
   0   2   6 53.7523 5.27172  11
   0   2   6 35.2761 5.55068  14
   0   2   6 48.1381 5.58527   1
   0   2   6 55.0413 6.50219  20
  -1  -2  -6 51.8664 7.10635  15
  -1  -2  -6 52.8212 4.85342  26
  -1  -2  -6 51.6188 4.77040   2
  -1  -2  -6 45.5358 5.21050   8
  -1  -2  -6 52.2587 4.75596  16
  -1  -2  -6 53.7484 4.60722   4
  -1  -2  -6 48.8551 5.82433  25
   1   2   6 44.6867 5.27484   1
   1   2   6 50.3188 5.24955  11
   1   2   6 60.1913 6.59550  14
   1   2   6 46.1023 5.32868  21
  -2  -2  -6 39.1208 3.43806   4
  -2  -2  -6 33.1106 4.73768   8
  -2  -2  -6 33.5224 5.05769  25
  -2  -2  -6 33.5445 3.39939   2
  -2  -2  -6 34.8706 3.93743  26
  -2  -2  -6 39.8844 6.26906  15
   2   2   6 35.7001 4.25795   1
   2   2   6 27.0818 3.81869  11
   2   2   6 34.1305 5.28392  14
   2   2   6 37.5875 4.53704  21
  -3  -2  -6 1.89634 3.84336  15
  -3  -2  -6 5.39526 3.29050  18
  -3  -2  -6 4.84003 4.03539   8
  -3  -2  -6 5.86406 2.60997   2
  -3  -2  -6 4.70743 3.05351  26
  -3  -2  -6 9.71320 1.87189   4
   3   2   6 10.2046 3.07274  17
   3   2   6 2.82850 3.39320  22
   3   2   6 12.2885 3.54460  21
   3   2   6 5.51269 2.27477  11
   3   2   6 6.03832 2.25821   1
  -4  -2  -6 12.3726 4.19535   8
  -4  -2  -6 16.7457 3.18805   2
  -4  -2  -6 18.1467 6.74008  18
   4   2   6 19.2688 3.28617  11
   4   2   6 9.09758 4.35285  22
   4   2   6 16.2455 5.11276  21
   4   2   6 21.1138 5.45390  14
   4   2   6 13.3603 3.45853   1
   4   2   6 22.2678 3.26131  17
  -5  -2  -6 103.243 11.7150   8
  -5  -2  -6 93.6842 13.4492  18
   5   2   6 87.1412 7.81385   2
   5   2   6 58.8265 11.4398  22
   5   2   6 102.209 7.96192  17
   5   2   6 78.0485 9.68911  11
   5   2   6 107.136 11.0890  14
   5   2   6 68.4353 8.12816   1
  -6  -2  -6 15.6031 6.01477   2
   6   2   6 19.0669 2.98572   9
   6   2   6 22.5977 9.49065  22
   6   2   6 3.91760 9.08626  14
   6   2   6 16.2416 3.15499  17
  -7  -2  -6 4.05368 2.11275   2
   7   2   6 5.37433 2.42940  16
   7   2   6 1.29054 1.92265   9
   7   2   6 6.43909 2.89428   2
   5  -3  -6 -0.5124 1.15333   2
   5  -3  -6 1.98038 1.37272  16
  -5   3   6 3.76756 3.67603  11
   4  -3  -6 3.57175 2.02950   9
   4  -3  -6 3.96984 2.15361  16
   4  -3  -6 2.51544 1.72160   2
  -4   3   6 2.81637 9.89451  18
  -4   3   6 1.82729 5.10624   1
  -4   3   6 1.22025 6.40248  24
  -4   3   6 0.93053 2.88220  11
   3  -3  -6 5.09955 1.81849   2
   3  -3  -6 5.79212 2.31513  16
   3  -3  -6 5.55699 1.88412  27
  -3   3   6 6.03096 3.84101   1
  -3   3   6 6.95506 5.24915  24
  -3   3   6 5.17590 8.66203  10
   2  -3  -6 11.5450 2.58275   9
   2  -3  -6 9.39743 3.02014  26
   2  -3  -6 10.1429 2.13042  27
   2  -3  -6 5.75800 2.22742  16
  -2   3   6 8.32300 3.17362  11
  -2   3   6 7.28011 5.68720  10
  -2   3   6 2.37080 3.44706  24
  -2   3   6 9.26817 7.52104  20
  -2   3   6 4.19200 3.15483   1
   1  -3  -6 41.6262 4.42936  16
   1  -3  -6 29.1235 3.70061  26
   1  -3  -6 32.2882 5.44166   8
   1  -3  -6 24.3255 4.08042  27
  -1   3   6 36.4937 6.02471  10
  -1   3   6 35.5291 4.50212  11
  -1   3   6 34.9658 7.91435  20
  -1   3   6 29.9349 5.18855  24
  -1   3   6 26.0746 4.70242   1
   0  -3  -6 16.3770 2.70817  26
   0  -3  -6 17.7937 2.53886   2
   0  -3  -6 11.6316 4.75953  25
   0  -3  -6 13.1791 2.69803  27
   0  -3  -6 18.4325 2.56627  16
   0  -3  -6 14.4664 3.87434   8
   0   3   6 15.5358 4.24146  10
   0   3   6 19.8489 3.33840  11
   0   3   6 9.65228 3.25127   1
  -1  -3  -6 66.0470 6.39435  16
  -1  -3  -6 77.1988 7.41257   8
  -1  -3  -6 63.5361 7.42626  25
  -1  -3  -6 77.6259 6.54070  26
  -1  -3  -6 65.5238 6.31490   2
  -1  -3  -6 82.9509 6.30961   4
   1   3   6 88.9887 9.20890  20
   1   3   6 82.8950 7.41368   1
   1   3   6 72.0135 7.05536  11
   1   3   6 78.3992 7.24087  21
  -2  -3  -6 2.83986 3.50508  15
  -2  -3  -6 2.13084 2.56045  26
  -2  -3  -6 8.23678 3.43788  12
  -2  -3  -6 0.59744 3.14424   8
  -2  -3  -6 -0.4942 2.32122  25
   2   3   6 3.43593 1.92356   1
   2   3   6 0.36163 2.56234  14
   2   3   6 1.04392 2.30088  11
   2   3   6 5.10904 3.04729  21
  -3  -3  -6 42.1800 6.25108   8
  -3  -3  -6 66.6840 5.67457  12
  -3  -3  -6 66.0584 6.45131   4
  -3  -3  -6 41.1781 6.86292   2
   3   3   6 53.7783 7.11255  14
   3   3   6 55.1336 6.07385  21
   3   3   6 53.0129 8.04329  22
   3   3   6 59.4903 5.75207  11
   3   3   6 58.8054 6.07563   1
  -4  -3  -6 31.7283 5.17096   8
  -4  -3  -6 33.7370 3.56802   4
  -4  -3  -6 32.9444 4.00331   2
   4   3   6 26.2240 6.00303  14
   4   3   6 29.7642 4.26257   1
   4   3   6 31.1379 8.20513  22
   4   3   6 33.8198 4.26014  17
  -5  -3  -6 3.16680 5.40939   8
  -5  -3  -6 4.35757 2.93599   2
   5   3   6 2.98296 2.53796   1
   5   3   6 4.91866 4.91626  14
   5   3   6 -0.2967 6.84162  22
  -6  -3  -6 25.8202 3.80210   2
   6   3   6 18.5035 3.29315  11
   6   3   6 22.7747 4.77812   1
   6   3   6 36.7265 9.97532  14
   6   3   6 14.3437 10.8543  22
   6   3   6 24.7031 3.46322   9
   6   3   6 19.8505 4.19302  17
  -7  -3  -6 82.4638 7.37523   2
   7   3   6 85.5982 8.26336  11
   4  -4  -6 0.91250 1.59536  16
   4  -4  -6 0.69486 1.16877   2
  -4   4   6 6.29720 5.03411   1
  -4   4   6 -0.4827 2.94304  11
   3  -4  -6 2.04595 1.65532  27
   3  -4  -6 2.05935 1.99013  16
   3  -4  -6 11.0390 3.57275   4
   3  -4  -6 4.18498 1.53892   2
  -3   4   6 5.71257 3.85263   1
  -3   4   6 0.84801 2.66344  11
  -3   4   6 2.42489 5.52693  24
   2  -4  -6 5.84917 2.11321  16
   2  -4  -6 8.36969 1.98886  27
   2  -4  -6 5.67220 2.03435   2
  -2   4   6 2.78439 3.60845  11
  -2   4   6 2.91595 8.15946  10
  -2   4   6 4.00771 4.53342  24
  -2   4   6 1.44037 3.05581   1
   1  -4  -6 5.72870 2.01496  27
   1  -4  -6 6.93828 2.34903   4
  -1   4   6 9.49072 3.29639  11
  -1   4   6 9.12884 3.86318  24
  -1   4   6 3.12456 2.65900   1
  -1   4   6 2.36255 5.51632  10
   0  -4  -6 11.2535 2.57507  16
   0  -4  -6 15.3831 2.49038   2
   0  -4  -6 13.6038 2.45688   4
   0  -4  -6 11.0973 2.71173  27
   0   4   6 9.27700 3.79338   1
   0   4   6 15.7934 3.69512  11
   0   4   6 20.8333 7.74985  20
   0   4   6 15.1771 5.21457  10
  -1  -4  -6 1.23200 2.31171   2
  -1  -4  -6 6.54039 4.19319   8
  -1  -4  -6 6.82955 4.07200  26
  -1  -4  -6 10.6147 3.21748  27
  -1  -4  -6 2.22828 3.13478   4
  -1  -4  -6 7.57849 2.44518  16
   1   4   6 1.08818 4.18018  20
   1   4   6 5.45604 2.97046  11
   1   4   6 1.75173 2.38732   1
   1   4   6 0.41882 4.00181  14
  -2  -4  -6 8.83550 1.96870   4
  -2  -4  -6 3.91559 3.32388   8
  -2  -4  -6 12.3418 3.61231  12
  -2  -4  -6 6.97265 2.80880   2
  -2  -4  -6 2.36517 2.83519  26
   2   4   6 8.40106 3.17217  11
   2   4   6 7.71026 3.45160  21
  -3  -4  -6 10.4824 2.09907   4
  -3  -4  -6 12.1709 2.73382   2
  -3  -4  -6 7.22808 2.65059  26
  -3  -4  -6 8.90063 3.58888   8
   3   4   6 6.55719 3.69514  14
   3   4   6 8.82603 2.65184  11
   3   4   6 8.58445 3.67136   1
  -4  -4  -6 13.6990 4.22214   8
  -4  -4  -6 14.6907 3.00018   2
   4   4   6 16.9142 2.85431  11
   4   4   6 15.8364 3.32690   1
   4   4   6 14.1403 5.40963  14
  -5  -4  -6 7.25374 2.74493   2
   5   4   6 4.09571 2.80028   1
   5   4   6 6.70347 4.91938  14
   5   4   6 6.42202 2.59345  11
  -6  -4  -6 9.36479 3.15046   2
   6   4   6 8.26207 3.31517   1
   6   4   6 12.0253 2.95745  11
   6   4   6 4.58050 5.39183  14
  -7  -4  -6 6.35779 2.05298   2
   7   4   6 8.35259 2.12108   9
   7   4   6 5.16116 2.36446  11
   4  -5  -6 5.17094 1.44914  16
  -4   5   6 -0.6456 2.45612  11
   3  -5  -6 4.61166 1.35664  27
   3  -5  -6 6.57591 1.63657  16
   3  -5  -6 3.49421 1.46864   2
   3  -5  -6 6.32737 2.14491   4
  -3   5   6 4.52056 2.64369  11
  -3   5   6 5.16445 3.93419   1
   2  -5  -6 8.21792 2.26990   4
   2  -5  -6 0.94493 1.83181  16
   2  -5  -6 5.89653 1.69775   2
   2  -5  -6 3.11186 1.55386  27
  -2   5   6 8.62617 5.45849  24
  -2   5   6 2.84527 3.64460   1
  -2   5   6 2.79206 3.13964  11
   1  -5  -6 7.43683 2.13762  16
   1  -5  -6 10.7822 2.16919   4
   1  -5  -6 5.98726 2.00628   2
   1  -5  -6 8.22246 1.90026  27
  -1   5   6 5.62639 4.73669  24
  -1   5   6 3.94085 9.11529  10
  -1   5   6 2.52609 3.31925   1
  -1   5   6 6.71518 5.19915  11
   0  -5  -6 3.74301 2.11535  27
   0  -5  -6 2.98249 2.13533  16
   0  -5  -6 7.04130 1.94156   4
   0  -5  -6 6.69673 3.59301  26
   0  -5  -6 2.23186 2.81623  12
   0   5   6 -1.0826 2.95214   1
   0   5   6 9.47111 7.22140  10
   0   5   6 2.85924 3.48786  11
  -1  -5  -6 5.28586 3.17800  26
  -1  -5  -6 5.61981 1.95812   4
  -1  -5  -6 7.62489 2.63200  12
   1   5   6 -0.0527 2.85864   1
   1   5   6 -1.5715 4.89181  10
   1   5   6 10.9274 4.11912  11
  -2  -5  -6 21.4364 3.11057  26
  -2  -5  -6 19.4038 3.29474  12
  -2  -5  -6 22.4085 4.93263   8
  -2  -5  -6 17.7550 2.46191   4
   2   5   6 23.9935 3.74158   1
   2   5   6 27.9154 5.31802  21
   2   5   6 9.52829 5.65437  14
  -3  -5  -6 6.58848 1.88807   4
  -3  -5  -6 6.30746 2.71955  12
  -3  -5  -6 5.24668 2.82048  26
  -3  -5  -6 9.67498 2.86857   2
  -3  -5  -6 5.25695 4.08491   8
   3   5   6 5.38143 2.43014   1
   3   5   6 1.76689 4.39823  14
   3   5   6 10.9445 3.27729  11
  -4  -5  -6 4.44992 1.80010   4
  -4  -5  -6 5.68478 2.55147  12
   4   5   6 2.11843 2.55738  11
   4   5   6 -0.1563 4.30612  14
   4   5   6 -0.2827 2.41515   1
   4   5   6 13.2997 3.95165  17
  -5  -5  -6 2.01576 2.89057  12
  -5  -5  -6 6.78592 1.80065   4
  -5  -5  -6 8.00338 2.66990   2
   5   5   6 5.07858 2.89242   1
   5   5   6 0.07274 4.61952  14
   5   5   6 5.61771 2.35114  11
  -6  -5  -6 -0.7408 3.75354  12
  -6  -5  -6 -1.0325 2.10367   2
   6   5   6 3.22617 2.30672  11
   6   5   6 -0.1485 3.00021   1
  -7  -5  -6 -0.4805 1.78358   2
   7   5   6 0.24925 2.23270   9
   7   5   6 0.23439 2.12593  11
   7   5   6 5.80201 4.01599   1
   3  -6  -6 13.1364 1.80622   4
  -3   6   6 13.1918 2.95851  11
   2  -6  -6 14.0677 2.38674  12
   2  -6  -6 14.0991 1.93102   4
   2  -6  -6 9.94841 1.74955  27
  -2   6   6 14.0553 5.30264   1
  -2   6   6 15.9357 3.62267  11
   1  -6  -6 2.90201 1.84044  27
   1  -6  -6 2.67851 3.13660  12
   1  -6  -6 4.37646 1.75227  16
   1  -6  -6 4.25166 2.19436   4
  -1   6   6 2.71026 3.92472   1
  -1   6   6 -5.1164 6.87146  24
  -1   6   6 3.41396 3.42940  11
   0  -6  -6 10.0352 1.91448   4
   0  -6  -6 8.66604 2.39583  12
   0   6   6 3.84473 3.84663   1
   0   6   6 13.1060 4.33082  11
   0   6   6 3.05538 5.33074  24
  -1  -6  -6 15.7758 6.38444  26
  -1  -6  -6 11.7375 2.10318   4
  -1  -6  -6 8.80494 2.55078  12
   1   6   6 6.75268 3.56670   1
   1   6   6 4.80804 4.27608  11
   1   6   6 5.98452 9.54296  10
  -2  -6  -6 1.74046 1.77219   4
  -2  -6  -6 0.98457 1.96459  12
   2   6   6 -3.7591 7.58905  10
   2   6   6 -0.8792 2.97585   1
   2   6   6 0.48715 5.42501  11
  -3  -6  -6 5.40779 1.79155   4
  -3  -6  -6 7.09251 2.31854  12
   3   6   6 -1.3777 2.85555   1
   3   6   6 2.89016 3.43887  11
  -4  -6  -6 23.7130 3.01034   4
  -4  -6  -6 32.9171 3.56204  12
   4   6   6 16.9376 7.36888  14
   4   6   6 31.4716 4.86314   1
   4   6   6 33.2337 4.24287  11
  -5  -6  -6 6.77443 1.87721   4
   5   6   6 13.6164 3.42997  11
   5   6   6 8.75740 3.35136   1
   5   6   6 4.25474 7.30438  14
  -6  -6  -6 12.7685 2.56277  12
   6   6   6 14.9642 3.96421   1
   6   6   6 14.7870 3.13272  11
   7   6   6 12.7500 2.31083   9
   7   6   6 11.4780 2.42278  11
   2  -7  -6 1.08305 1.09819  27
  -2   7   6 2.42182 2.81245  11
   1  -7  -6 4.39078 1.38827  27
   1  -7  -6 5.50624 1.75762  12
   1  -7  -6 5.83875 1.28324   4
  -1   7   6 3.70737 4.57057   1
  -1   7   6 13.0964 3.99018  11
   0  -7  -6 5.98965 1.59952  27
   0  -7  -6 7.17564 1.65798   4
   0   7   6 19.4803 5.57943   1
   0   7   6 7.87582 4.05497  11
  -1  -7  -6 18.1393 2.42064   4
   1   7   6 26.1108 5.47937   1
   1   7   6 16.2005 5.99876  11
  -2  -7  -6 -0.3586 3.21705  12
  -2  -7  -6 -2.3676 2.54889   4
   2   7   6 -2.4182 3.85020   1
   2   7   6 -0.4651 5.01340  11
  -3  -7  -6 0.91485 2.27329  12
  -3  -7  -6 2.84291 1.75151   4
   3   7   6 3.39829 4.28472  11
   3   7   6 3.78379 3.99557   1
  -4  -7  -6 8.38303 1.98908  12
   4   7   6 14.7224 5.45293   1
   4   7   6 9.48064 3.60826  11
  -5  -7  -6 3.26964 1.37713   4
  -5  -7  -6 2.56010 1.76968  12
   5   7   6 0.61650 3.40877   1
   5   7   6 -2.5939 2.93554  11
  -6  -7  -6 4.21826 1.78386  12
   6   7   6 3.51738 2.38426  11
   6   7   6 1.66604 3.56137   1
   6   7   6 3.89178 2.63939   9
   0  -8  -6 0.86093 0.91971   4
   0  -8  -6 -0.7876 1.53036  27
   0  -8  -6 0.80185 1.63076  12
  -1  -8  -6 1.56367 1.33103  12
  -1  -8  -6 5.78136 2.36022  27
  -1  -8  -6 0.17505 0.90977   4
  -2  -8  -6 0.08049 1.00918   4
  -2  -8  -6 -0.6938 1.33978  12
  -3  -8  -6 4.63437 1.27994   4
  -4  -8  -6 0.81893 1.12297   4
  -4  -8  -6 0.69393 1.39283  12
  -5  -8  -6 1.19102 1.58290  12
  -5  -8  -6 -1.1162 1.16230   4
   5   8   6 6.57116 4.76064  11
   3   6  -7 1.66482 1.98942  11
   3   6  -7 -2.5720 3.38991   1
  -3  -6   7 1.17079 1.26907  27
  -3  -6   7 1.93828 1.36731   3
  -3  -6   7 0.40740 0.83918  28
   2   6  -7 2.31836 3.32010   1
   2   6  -7 -0.0846 2.05703  11
  -2  -6   7 1.62167 1.36591  27
  -2  -6   7 0.32324 1.02840  28
   1   6  -7 6.36730 3.61485   1
   1   6  -7 2.22105 2.33496  11
  -1  -6   7 3.67351 1.07724  28
  -1  -6   7 3.43231 1.36291  27
  -1  -6   7 1.57067 1.07734   3
   0  -6   7 4.33549 1.27960  28
   0  -6   7 4.29999 1.10311  27
   5   5  -7 4.86452 2.05366  11
   5   5  -7 8.24717 1.66764  26
   5   5  -7 10.1795 2.61757   8
  -5  -5   7 9.25648 1.73746  27
   4   5  -7 100.691 8.12535  11
   4   5  -7 105.559 8.85790   1
   4   5  -7 100.730 8.73898   8
  -4  -5   7 88.3290 7.63833  27
  -4  -5   7 78.4998 7.29558  28
   3   5  -7 0.78035 2.97755   8
   3   5  -7 3.00956 2.79797   1
   3   5  -7 0.12329 1.93282  11
  -3  -5   7 1.17550 1.26423  28
  -3  -5   7 -1.0537 1.57256   3
  -3  -5   7 -1.1430 1.46911  27
   2   5  -7 15.6346 3.91308   8
   2   5  -7 11.5106 4.21572   1
   2   5  -7 12.3712 2.88534  11
  -2  -5   7 9.98727 2.13871   2
   1   5  -7 0.76144 2.47808  11
   1   5  -7 0.12686 4.03716   1
  -1  -5   7 -0.5952 1.24881  27
  -1  -5   7 -0.4779 1.19712   3
  -1  -5   7 -0.4442 1.28932  28
   0   5  -7 -1.8195 3.61588   1
   0   5  -7 -1.1090 2.43440  11
   0  -5   7 2.77417 1.40229  27
   0  -5   7 1.60896 1.34206  28
   0  -5   7 0.23144 1.12912   3
  -1   5  -7 2.71049 2.42254  11
   1  -5   7 3.86290 2.00604  28
   1  -5   7 3.09073 1.45497  27
   1  -5   7 1.60994 1.07972   3
  -2   5  -7 4.36872 2.37545  11
   5   4  -7 39.0827 4.44744  11
  -5  -4   7 42.4557 3.80997   2
  -5  -4   7 44.6073 3.93439  28
   4   4  -7 6.25283 4.98798  25
   4   4  -7 9.57030 2.19691  26
   4   4  -7 15.8142 4.10578   1
   4   4  -7 10.9891 2.59934  11
  -4  -4   7 7.38614 1.72818   2
  -4  -4   7 6.84380 1.73068  28
   3   4  -7 3.87004 1.98071  11
   3   4  -7 4.27817 5.53497  25
   3   4  -7 3.68023 2.70998   8
   3   4  -7 0.27089 2.86865  26
   3   4  -7 5.07130 2.86736   1
  -3  -4   7 6.20841 2.29825  28
  -3  -4   7 5.47299 2.09710   2
  -3  -4   7 0.53137 2.12989   3
   2   4  -7 224.443 17.2767   8
   2   4  -7 200.785 22.7210  15
   2   4  -7 238.197 16.5896  11
   2   4  -7 193.293 16.8919   1
   2   4  -7 167.502 17.6054  25
  -2  -4   7 189.494 16.5503  21
  -2  -4   7 191.674 15.5233   2
  -2  -4   7 228.377 15.5898  28
   1   4  -7 -0.1271 2.19887  11
   1   4  -7 -5.2498 7.95737  15
   1   4  -7 -0.7335 2.96983   1
   1   4  -7 -5.1322 5.68882  25
   1   4  -7 -1.8018 3.68787   8
  -1  -4   7 -4.9698 3.29686  21
  -1  -4   7 0.05782 1.79753   2
  -1  -4   7 2.42722 1.59248   3
   0   4  -7 1.18322 3.38770   1
   0   4  -7 0.75685 8.09815  15
   0   4  -7 -2.1673 4.96385   8
   0   4  -7 1.38112 2.52939  11
   0  -4   7 -0.2503 2.84985  21
   0  -4   7 2.54038 1.63442   2
   0  -4   7 2.07298 1.57682  28
   0  -4   7 5.15222 1.82129  27
  -1   4  -7 -11.142 8.87732  15
  -1   4  -7 0.25909 2.81166  11
  -1   4  -7 -3.5566 3.97367   1
   1  -4   7 5.50073 2.92294  21
   1  -4   7 0.71277 1.42674   3
   1  -4   7 -2.6199 3.54098  17
   1  -4   7 1.30005 1.79352  28
   1  -4   7 0.90722 1.78554   2
   1  -4   7 1.42835 2.09902  27
  -2   4  -7 10.6456 5.30024   1
  -2   4  -7 8.94479 3.44826  11
   2  -4   7 4.25318 1.44232   3
   2  -4   7 7.58113 2.59852  17
   2  -4   7 4.35542 1.51953   2
   2  -4   7 6.15493 2.23359  27
  -3   4  -7 9.35740 6.94932   1
   3  -4   7 0.59117 1.78496  17
   3  -4   7 1.51421 1.22516   2
   6   3  -7 0.92504 1.23278  26
   6   3  -7 -3.2201 2.60768   8
  -6  -3   7 0.88705 1.37047   2
  -6  -3   7 -0.9830 1.05741  28
   5   3  -7 4.73837 1.62906  26
   5   3  -7 2.20930 2.14148  11
   5   3  -7 6.37129 5.51391  25
   5   3  -7 5.91001 4.20531   1
   5   3  -7 3.90706 3.08276   8
  -5  -3   7 4.29962 1.92595   2
   4   3  -7 0.66427 5.13403  22
   4   3  -7 1.23879 2.07800  11
   4   3  -7 0.96740 5.37654  25
   4   3  -7 0.92312 2.91642   1
   4   3  -7 -0.4174 2.08983  26
   4   3  -7 -2.3094 2.49718   8
   3   3  -7 -3.1115 4.16172  25
   3   3  -7 5.55533 8.51608  15
   3   3  -7 -0.5188 2.05625  11
   3   3  -7 0.38311 2.53712   8
   3   3  -7 -0.4495 2.53321   1
  -3  -3   7 2.39132 1.95895   2
   2   3  -7 60.0936 8.12898  25
   2   3  -7 68.4504 12.0462  15
   2   3  -7 65.5893 7.59428   8
  -2  -3   7 69.6719 5.91662   2
  -2  -3   7 59.3530 7.10811  21
   1   3  -7 42.3197 9.39377  15
   1   3  -7 37.2849 4.92368   1
   1   3  -7 28.9471 4.70463   8
  -1  -3   7 24.4485 3.33661   3
  -1  -3   7 32.2526 4.67892  21
  -1  -3   7 30.9356 3.49015   2
   0   3  -7 3.47470 5.03130  15
   0   3  -7 9.40368 3.78830   1
   0   3  -7 10.1749 2.85857  11
   0   3  -7 8.27978 4.78827  25
   0   3  -7 17.3018 4.16695   8
   0  -3   7 9.63342 3.49872  21
   0  -3   7 9.29408 2.13560   2
   0  -3   7 12.8291 2.35731   3
  -1   3  -7 19.0272 4.78125   1
  -1   3  -7 15.2530 5.19466   8
  -1   3  -7 8.38448 7.21992  25
  -1   3  -7 10.4100 3.30781  11
   1  -3   7 20.1201 3.95677  21
   1  -3   7 22.0632 2.75517  27
   1  -3   7 19.5195 4.09923  17
   1  -3   7 11.5414 2.22630   2
   1  -3   7 16.1860 2.28738   3
  -2   3  -7 10.8889 3.28582  11
  -2   3  -7 9.39296 10.9875  18
   2  -3   7 8.80490 1.88221   2
   2  -3   7 12.1850 3.29855  21
   2  -3   7 12.4906 2.72749  27
   2  -3   7 9.52250 1.82150   3
   2  -3   7 10.0125 2.94302  17
  -3   3  -7 6.18629 7.95840   1
  -3   3  -7 0.78217 2.61643  11
   3  -3   7 0.15440 1.54456   2
   3  -3   7 -1.8877 2.25887  17
  -4   3  -7 -3.4000 3.60739  11
   4  -3   7 2.62813 1.11673   2
   4  -3   7 2.13217 1.69457  17
   6   2  -7 1.26895 3.25200  16
   6   2  -7 -0.2529 1.26920  26
  -6  -2   7 0.83179 1.63880   2
   5   2  -7 1.92358 3.35243  16
   5   2  -7 2.04499 1.94508  26
   5   2  -7 6.49268 6.91138  25
   5   2  -7 -1.0193 2.61525  11
   5   2  -7 -1.3616 2.87610   8
  -5  -2   7 -0.7593 2.21566   2
   4   2  -7 10.6804 4.13590   1
   4   2  -7 12.7902 2.26198  26
   4   2  -7 10.2566 2.64057  11
   4   2  -7 5.90909 5.04663  25
   4   2  -7 4.25392 5.56211  22
   4   2  -7 17.6910 3.47694   8
  -4  -2   7 9.67530 2.67749   2
   3   2  -7 3.23557 2.22997  11
   3   2  -7 5.01275 2.33232  26
   3   2  -7 1.59682 2.81995   1
   3   2  -7 3.82971 3.52475   8
   3   2  -7 -3.5465 5.81502  15
   3   2  -7 1.18507 3.28149  25
  -3  -2   7 21.8858 7.71585  21
  -3  -2   7 4.72942 2.50677   2
   2   2  -7 22.9390 4.11668   1
   2   2  -7 25.4524 4.30269   8
   2   2  -7 24.5267 8.03727  15
   2   2  -7 32.8568 3.51037  26
   2   2  -7 26.9052 5.31213  25
  -2  -2   7 32.0949 3.82201   2
  -2  -2   7 26.3510 4.62032  21
   1   2  -7 0.40894 2.83002   8
   1   2  -7 0.50561 2.03995  11
   1   2  -7 3.52151 7.09702   6
   1   2  -7 -4.3448 3.98280  15
   1   2  -7 0.50234 2.41800   1
  -1  -2   7 3.92621 2.28578   2
  -1  -2   7 7.14655 2.95445  21
   0   2  -7 11.3402 3.70034   1
   0   2  -7 19.1552 7.06554  15
   0   2  -7 15.3223 4.65087  25
   0   2  -7 6.07345 7.29169   6
   0   2  -7 20.4672 3.75377   8
   0   2  -7 16.1391 3.18623  11
   0  -2   7 18.4774 2.60766   2
   0  -2   7 14.8210 3.19505  21
  -1   2  -7 4.76073 3.60348   8
  -1   2  -7 -4.0880 4.37468  15
  -1   2  -7 3.51018 2.57405  11
  -1   2  -7 1.10257 3.18302   1
  -1   2  -7 5.40577 4.32619  25
  -1   2  -7 0.35937 6.85349  18
   1  -2   7 0.63271 2.05787   2
   1  -2   7 -0.7092 2.35277  21
   1  -2   7 10.9040 3.52773  17
   1  -2   7 0.15205 4.43047  14
  -2   2  -7 8.80667 7.04929  18
  -2   2  -7 9.99285 3.54300  11
  -2   2  -7 12.6064 5.22434   8
  -2   2  -7 13.1773 6.38752  25
   2  -2   7 13.2741 3.11703  17
   2  -2   7 13.3004 3.62158  21
   2  -2   7 22.2004 8.45965  14
   2  -2   7 17.2852 2.30589   3
   2  -2   7 15.3146 2.24685   2
  -3   2  -7 -10.544 7.57481  18
  -3   2  -7 3.32322 2.88341  11
  -3   2  -7 -2.4334 5.43739   1
  -3   2  -7 -6.0802 5.92422  15
   3  -2   7 -7.0325 9.85179  14
   3  -2   7 2.41471 2.85627  21
  -4   2  -7 6.86450 3.57800   7
  -4   2  -7 21.3097 10.0617   1
  -4   2  -7 12.0044 4.24832  11
   4  -2   7 8.39479 1.71776   2
   4  -2   7 10.1192 2.20335  17
  -5   2  -7 4.27625 3.65046   7
   5  -2   7 4.92857 1.32521   2
   5  -2   7 5.69039 1.73494  17
   6   1  -7 0.53704 1.50707  16
   6   1  -7 -0.5086 1.31694  26
  -6  -1   7 0.43677 1.72142   2
   5   1  -7 32.7321 4.68588   8
   5   1  -7 47.2675 10.4804  25
   5   1  -7 32.2903 3.40397  16
  -5  -1   7 27.4113 3.79865   2
   4   1  -7 18.9968 5.97307  25
   4   1  -7 14.5473 2.54687  16
   4   1  -7 11.1036 5.48510   1
   4   1  -7 12.0969 2.41867  26
   4   1  -7 11.8811 3.11736   2
  -4  -1   7 13.6289 3.02600   2
  -4  -1   7 -0.2662 5.73164  21
   3   1  -7 -2.7600 5.12516  15
   3   1  -7 3.05065 2.28297  11
   3   1  -7 0.29016 3.03946   1
   3   1  -7 4.99993 2.45915  26
   3   1  -7 0.07847 3.71441  25
   3   1  -7 -3.7406 3.03257   8
  -3  -1   7 1.74761 3.85328  21
  -3  -1   7 7.66972 2.88548   2
   2   1  -7 37.2735 4.81581   2
   2   1  -7 35.9154 5.09582   8
   2   1  -7 42.8558 8.25926  15
   2   1  -7 36.5444 5.77400  25
   2   1  -7 38.6281 3.95827  26
   2   1  -7 29.7421 5.90025   1
  -2  -1   7 32.7354 4.95461  21
  -2  -1   7 42.5385 4.21552   2
   1   1  -7 24.4493 4.28718   1
   1   1  -7 34.5662 7.67156  15
   1   1  -7 40.3595 4.96241  26
   1   1  -7 26.1765 5.04900  25
   1   1  -7 33.6199 4.73135   8
  -1  -1   7 27.3147 4.21091  21
  -1  -1   7 34.3468 3.88466   2
   0   1  -7 23.9040 3.75056  11
   0   1  -7 18.8196 6.43448  15
   0   1  -7 27.1867 4.71622  25
   0   1  -7 28.0927 3.83677  26
   0   1  -7 23.1371 4.18980   1
   0   1  -7 34.7322 4.45249   8
   0  -1   7 33.5058 3.54842   2
   0  -1   7 33.2836 4.68876  17
   0  -1   7 15.9069 5.11542  14
   0  -1   7 22.0530 3.80834  21
  -1   1  -7 33.8404 7.21446  15
  -1   1  -7 39.2254 5.46325  25
  -1   1  -7 34.7571 7.42574  18
  -1   1  -7 30.9447 4.43420   8
  -1   1  -7 23.0758 4.96674   1
  -1   1  -7 31.1161 3.98607  11
   1  -1   7 25.6571 4.07780  17
   1  -1   7 30.7273 4.21504  21
   1  -1   7 38.8173 6.61114  14
   1  -1   7 29.6544 3.46822   2
  -2   1  -7 9.49463 3.96350   8
  -2   1  -7 5.92137 3.91032   1
  -2   1  -7 21.4688 5.28077  25
  -2   1  -7 22.5054 7.44128  15
  -2   1  -7 13.2219 3.27995  11
  -2   1  -7 8.95837 5.04004  18
   2  -1   7 11.1855 3.01620  21
   2  -1   7 22.4497 6.38807  14
   2  -1   7 13.9738 3.02386  17
  -3   1  -7 3.89017 4.99350   8
  -3   1  -7 -1.3815 5.41763  15
  -3   1  -7 0.30342 6.10580  18
  -3   1  -7 10.0475 4.96676   2
  -3   1  -7 -0.9373 6.05339   1
   3  -1   7 3.87179 1.88487   2
   3  -1   7 -2.9388 5.56618  14
   3  -1   7 0.64747 2.95216  21
   3  -1   7 2.55365 2.40695  17
  -4   1  -7 3.83455 9.69157  15
  -4   1  -7 -9.7150 7.37716  18
  -4   1  -7 0.47500 4.11204   7
  -4   1  -7 -5.6073 7.82113  11
   4  -1   7 1.42201 2.34547  17
   4  -1   7 -9.0130 10.4302  14
   4  -1   7 4.81346 2.92189  21
  -5   1  -7 9.26909 4.31894   2
  -5   1  -7 6.34728 4.12458   7
   5  -1   7 4.42722 1.56086   2
   5  -1   7 2.70950 1.69312  17
  -6   1  -7 11.6213 4.52143   2
   6  -1   7 14.0928 2.00774  17
   6   0  -7 5.20001 1.64913   2
   6   0  -7 5.51719 1.35146  26
   6   0  -7 4.11843 1.36816  16
  -6   0   7 8.89701 2.17006   2
   5   0  -7 4.83362 1.93634  16
   5   0  -7 8.83344 1.77212  26
   5   0  -7 4.49005 1.96732   2
  -5   0   7 8.98039 2.72064   2
   4   0  -7 12.0435 4.28585   8
   4   0  -7 13.2053 2.69119  16
   4   0  -7 21.7881 2.77400   2
   4   0  -7 15.2451 2.70753  26
  -4   0   7 18.2886 3.28366   2
  -4   0   7 18.9842 5.24714  21
   3   0  -7 41.4777 6.10179  25
   3   0  -7 36.1468 3.70309  16
   3   0  -7 32.8995 3.71395  26
   3   0  -7 28.7210 4.70855  11
   3   0  -7 27.7883 4.61365   8
   3   0  -7 25.3778 3.57364   2
  -3   0   7 23.8262 8.75162  24
  -3   0   7 42.0672 5.09634  21
  -3   0   7 37.2033 4.27597   2
   2   0  -7 2.01406 3.76543   1
   2   0  -7 4.05275 3.01002   8
   2   0  -7 4.53680 2.91772  11
   2   0  -7 6.21068 3.05252  25
   2   0  -7 4.16746 2.41442  26
   2   0  -7 5.17377 3.95066  15
  -2   0   7 3.32884 3.98918  11
  -2   0   7 -1.7094 5.48308  24
  -2   0   7 3.90092 3.50487  21
   1   0  -7 60.5920 6.47091   8
   1   0  -7 56.6129 8.56312  15
   1   0  -7 56.3669 6.64116  25
   1   0  -7 51.2506 8.98973   6
   1   0  -7 57.8491 5.35348  26
   1   0  -7 62.2564 5.40467   2
   1   0  -7 52.1123 6.43018   1
  -1   0   7 64.5247 6.44482  21
  -1   0   7 56.8603 5.54938   2
  -1   0   7 40.7669 7.36510  10
   0   0  -7 45.1880 5.43220   8
   0   0  -7 41.4348 7.54668   6
   0   0  -7 46.9399 4.89798   2
   0   0  -7 49.6120 4.64769  26
   0   0  -7 48.1814 7.90120  15
   0   0  -7 50.7340 6.08246  25
   0   0   7 47.7799 4.51976   2
   0   0   7 42.0575 6.33566   1
   0   0   7 52.5851 5.61784  21
   0   0   7 38.0273 6.36596  10
   0   0   7 45.4931 6.62516  14
  -1   0  -7 22.5448 6.75633  18
  -1   0  -7 32.5944 4.14199  26
  -1   0  -7 34.3121 4.35820   8
  -1   0  -7 33.1686 4.00385   2
  -1   0  -7 37.6796 5.06495  25
  -1   0  -7 37.4698 6.93982  15
  -1   0  -7 29.5698 5.25191   1
  -1   0  -7 18.8506 5.11747   6
   1   0   7 25.0436 5.51849   1
   1   0   7 27.2956 4.33906  21
   1   0   7 22.6587 5.93527  14
   1   0   7 29.9020 3.67930   2
   1   0   7 40.9020 4.52016  17
  -2   0  -7 17.4357 3.97517  11
  -2   0  -7 19.1446 4.78335  25
  -2   0  -7 28.4836 3.96511   2
  -2   0  -7 14.8398 6.67307  15
   2   0   7 28.5664 3.18803   2
   2   0   7 24.3492 3.56567  21
   2   0   7 24.0125 4.79224  11
   2   0   7 19.6175 3.44365  17
   2   0   7 21.2959 5.25066  14
  -3   0  -7 17.6214 3.82756   2
  -3   0  -7 3.88497 4.82337  18
  -3   0  -7 7.76854 5.19503  15
  -3   0  -7 7.54413 4.59937  11
  -3   0  -7 13.1774 4.15556   8
   3   0   7 13.1362 3.14562  21
   3   0   7 15.2447 2.91054  17
   3   0   7 11.2953 2.56152   2
   3   0   7 11.2738 5.00275  14
  -4   0  -7 10.5147 3.63247   2
  -4   0  -7 -0.3028 7.76887  18
  -4   0  -7 2.22039 11.5391  15
  -4   0  -7 10.6887 5.03742   8
   4   0   7 3.33592 8.62566  14
   4   0   7 8.85760 2.48570  17
   4   0   7 8.17051 1.99245   2
   4   0   7 4.74912 2.92376  21
  -5   0  -7 37.0501 15.0621  18
   5   0   7 19.3540 3.17623  17
   5   0   7 21.9735 2.76327   2
  -6   0  -7 5.39422 2.45788   2
   6   0   7 9.29528 1.99663  17
   6   0   7 6.16456 1.65490   2
   6  -1  -7 1.46107 1.13468   2
   6  -1  -7 3.45996 1.12046  16
   6  -1  -7 4.40165 3.13895  26
  -6   1   7 3.37192 2.25929   2
   5  -1  -7 3.07666 1.96831  26
   5  -1  -7 4.27182 1.62780   2
   5  -1  -7 1.20835 1.48792  16
  -5   1   7 0.35462 2.95918   2
  -5   1   7 9.40133 6.41989  21
   4  -1  -7 3.24475 2.78733   9
  -4   1   7 2.34924 5.14649  11
  -4   1   7 5.29018 3.29080   2
  -4   1   7 5.29491 4.43024  21
   3  -1  -7 13.8525 2.27935   2
   3  -1  -7 11.9278 2.48691  16
   3  -1  -7 5.34208 4.20981   8
   3  -1  -7 14.2713 2.54203  26
  -3   1   7 11.4780 3.97323  11
  -3   1   7 2.89824 14.5669  10
  -3   1   7 6.85692 6.18406  24
  -3   1   7 6.93111 6.85811   1
  -3   1   7 10.1020 4.11235  21
   2  -1  -7 0.03778 3.97346  15
   2  -1  -7 0.59625 3.15198  25
   2  -1  -7 5.03331 2.47056  26
   2  -1  -7 6.51502 2.44163  16
   2  -1  -7 1.65975 3.48479   8
  -2   1   7 -8.5173 7.25417  20
  -2   1   7 2.23140 2.90465  11
  -2   1   7 -3.8264 4.29097  24
  -2   1   7 6.88293 3.95285   1
  -2   1   7 8.80431 3.65365  21
  -2   1   7 7.43307 5.90728  10
  -2   1   7 8.43475 4.05792   2
   1  -1  -7 4.64731 3.07604   8
   1  -1  -7 8.77734 2.61730  16
   1  -1  -7 1.36510 3.13196  15
   1  -1  -7 3.57532 2.70753  25
   1  -1  -7 3.53757 4.54036  26
  -1   1   7 2.20100 3.08833   1
  -1   1   7 -0.0860 4.28604  10
  -1   1   7 5.98045 3.16760  21
  -1   1   7 -1.1611 2.59771  11
  -1   1   7 -3.3954 3.46315  24
   0  -1  -7 102.775 8.29230   2
   0  -1  -7 104.993 8.25221  26
   0  -1  -7 99.8515 9.15371   8
   0  -1  -7 106.153 9.49835  25
   0  -1  -7 96.4914 11.5957  15
   0   1   7 84.0991 8.53884   2
   0   1   7 95.7756 9.95086  14
   0   1   7 103.602 9.38020   1
   0   1   7 100.258 9.09739  21
  -1  -1  -7 1.09682 2.54458  25
  -1  -1  -7 -1.6446 2.97475  15
  -1  -1  -7 2.40402 2.84474   8
  -1  -1  -7 8.01241 2.56211   2
  -1  -1  -7 3.97544 2.83337  26
   1   1   7 2.64504 2.80642   1
   1   1   7 4.13882 3.00650  14
   1   1   7 0.82060 2.43745  21
   1   1   7 -1.4737 2.24695  11
  -2  -1  -7 16.0854 3.59714   8
  -2  -1  -7 20.9059 3.47799  26
  -2  -1  -7 13.4688 4.20797  25
  -2  -1  -7 19.4747 4.10896   2
   2   1   7 21.6311 3.45626  21
   2   1   7 14.7903 3.07890  11
   2   1   7 18.8638 3.48156  17
   2   1   7 15.9420 3.15754   2
   2   1   7 11.7467 3.95526   1
   2   1   7 17.9945 4.65388  14
  -3  -1  -7 49.6260 6.00563   8
  -3  -1  -7 40.4343 4.51732   2
  -3  -1  -7 35.0731 6.23903  25
  -3  -1  -7 42.8040 9.13476  15
  -3  -1  -7 40.2035 8.71562  18
   3   1   7 49.8940 5.19465  21
   3   1   7 51.3041 7.25300  14
   3   1   7 48.4993 5.11204  17
   3   1   7 38.4913 5.03003  11
   3   1   7 47.5130 4.72963   2
   3   1   7 39.5155 5.95070   1
  -4  -1  -7 7.51433 4.27310   8
  -4  -1  -7 7.41556 6.03229  18
   4   1   7 4.92418 3.18376  21
   4   1   7 10.8934 2.96967   2
   4   1   7 7.00432 2.60381  17
   4   1   7 2.21281 4.93589  14
  -5  -1  -7 -1.0489 8.85281  18
  -5  -1  -7 12.2315 3.24623   2
   5   1   7 4.39589 2.58897   2
   5   1   7 2.03193 6.99868  14
   5   1   7 4.04329 2.41392  17
   5   1   7 4.98979 2.97922   9
  -6  -1  -7 -0.6501 2.21555   2
   6   1   7 3.12456 2.15087  17
   6   1   7 3.77792 2.12201   2
   5  -2  -7 14.4413 1.99221  16
   5  -2  -7 9.46804 1.69829   2
   4  -2  -7 6.16862 2.38235  16
   4  -2  -7 5.91690 2.39051   9
   4  -2  -7 11.6852 3.27482  26
  -4   2   7 4.99068 7.91999   1
  -4   2   7 0.12537 4.83748   2
  -4   2   7 11.2952 4.12689  21
  -4   2   7 4.72330 8.18599  24
  -4   2   7 7.70080 3.51093  11
   3  -2  -7 14.2957 2.27511   2
   3  -2  -7 10.4177 2.46883  16
   3  -2  -7 14.7079 2.58600  26
  -3   2   7 18.2852 6.29678  11
  -3   2   7 24.0104 11.0732  10
  -3   2   7 13.0383 6.09106  24
  -3   2   7 14.9524 5.41234   1
   2  -2  -7 10.1669 2.21712   2
   2  -2  -7 12.6068 2.50058  26
   2  -2  -7 10.1530 2.59277  16
  -2   2   7 9.42076 3.30524  11
  -2   2   7 4.33478 6.29003  10
  -2   2   7 6.34804 3.50185   1
  -2   2   7 6.79253 10.3821  20
   1  -2  -7 45.8727 5.03448   8
   1  -2  -7 39.6135 3.87415  26
   1  -2  -7 38.8297 3.98275  16
   1  -2  -7 32.3335 5.17144  25
   1  -2  -7 44.8967 8.25913  15
  -1   2   7 35.7106 4.69897  11
  -1   2   7 31.9426 4.91044  21
  -1   2   7 27.6494 5.28413   1
  -1   2   7 41.5640 9.24632  20
  -1   2   7 38.2994 6.11984  24
  -1   2   7 34.7393 6.67915  10
   0  -2  -7 45.0681 5.31055   4
   0  -2  -7 62.3497 9.06077  15
   0  -2  -7 60.2386 5.39869   2
   0  -2  -7 68.1778 6.35148   8
   0  -2  -7 61.8939 5.47072  26
   0  -2  -7 63.2938 6.70522  25
   0   2   7 44.2603 5.96035   1
   0   2   7 51.3001 6.81450  10
   0   2   7 56.4186 7.37125  14
   0   2   7 58.3948 6.66550  21
   0   2   7 68.8372 8.92545  20
   0   2   7 70.2037 6.30355  11
  -1  -2  -7 1.89675 3.26245  15
  -1  -2  -7 10.1378 2.46090   2
  -1  -2  -7 10.1211 2.53149  16
  -1  -2  -7 6.76396 2.18823   4
  -1  -2  -7 4.17909 2.44908  25
  -1  -2  -7 3.69677 2.80654   8
   1   2   7 3.91977 3.51363  20
   1   2   7 5.78373 3.13563  21
   1   2   7 14.3229 4.35079  14
   1   2   7 6.79823 2.83787   1
   1   2   7 12.2372 2.90486  11
  -2  -2  -7 4.24707 2.50711  25
  -2  -2  -7 2.80076 3.15534   8
  -2  -2  -7 4.33730 2.44533   2
  -2  -2  -7 -2.5672 3.70905  15
  -2  -2  -7 5.66101 2.13293   4
   2   2   7 1.10752 2.24111  11
   2   2   7 1.35600 2.39331   1
   2   2   7 7.58336 3.01614  21
   2   2   7 4.29431 3.29884  14
  -3  -2  -7 241.974 16.9074   2
  -3  -2  -7 227.042 20.6220  18
  -3  -2  -7 193.648 19.7283  15
  -3  -2  -7 181.944 16.3689  26
  -3  -2  -7 237.519 18.3892   8
  -3  -2  -7 201.246 16.2584   4
   3   2   7 234.173 17.7492   1
   3   2   7 204.046 16.8609  21
   3   2   7 195.386 16.8686  11
   3   2   7 226.062 17.1712  17
   3   2   7 232.981 17.2101   2
  -4  -2  -7 60.1701 6.39184   2
  -4  -2  -7 68.0774 7.88872   8
  -4  -2  -7 67.7612 11.2952  18
   4   2   7 69.0979 6.60775  11
   4   2   7 70.3111 6.88030  21
   4   2   7 59.2385 6.74880   1
  -5  -2  -7 8.53364 2.80453   2
  -5  -2  -7 7.00575 8.00872  18
  -5  -2  -7 6.35921 3.82750   8
   5   2   7 0.20820 2.97216  11
   5   2   7 11.3686 3.62252   2
   5   2   7 8.66746 4.92578   1
   5   2   7 7.81220 6.16654  14
   5   2   7 3.23330 2.47201   9
   5   2   7 4.87682 2.30878  17
  -6  -2  -7 20.7424 3.11576   2
   6   2   7 26.4070 3.69224   2
  -7  -2  -7 16.4127 2.65231   2
   7   2   7 16.6414 2.81035   2
   7   2   7 17.2884 2.60919   9
   5  -3  -7 0.92680 1.13488  16
   4  -3  -7 -1.0624 1.62314  16
   4  -3  -7 5.16514 3.28733  26
   4  -3  -7 0.27269 1.35200   2
  -4   3   7 -5.0952 9.70195   1
  -4   3   7 0.71194 3.00377  11
   3  -3  -7 0.74862 2.77244  26
   3  -3  -7 1.26572 1.50720   2
   3  -3  -7 2.20595 1.93182  16
  -3   3   7 1.81803 2.91727  11
  -3   3   7 1.17668 5.45315  24
  -3   3   7 3.52867 4.35681   1
   2  -3  -7 2.56147 2.08895  16
   2  -3  -7 6.46417 1.92977   2
   2  -3  -7 7.90472 2.35241  26
  -2   3   7 -0.0344 2.92206  11
  -2   3   7 -5.2203 7.93441  10
  -2   3   7 -0.2284 4.90051  24
  -2   3   7 7.12061 3.59620   1
   1  -3  -7 21.4801 4.94824   8
   1  -3  -7 19.7146 2.91268  16
   1  -3  -7 22.5095 3.10413  26
  -1   3   7 17.4308 7.63152  20
  -1   3   7 21.1967 5.39704  24
  -1   3   7 20.9923 4.31510   1
  -1   3   7 21.7527 6.60343  10
  -1   3   7 18.3144 3.71463  11
   0  -3  -7 7.44365 2.33660  16
   0  -3  -7 7.20777 2.11786   2
   0  -3  -7 -0.8172 2.88374  25
   0  -3  -7 10.0610 2.50771  26
   0  -3  -7 6.45082 3.50851   8
   0   3   7 2.24482 3.11414  21
   0   3   7 4.50402 4.79381  14
   0   3   7 3.73001 2.59097  11
   0   3   7 4.54103 3.83394   1
   0   3   7 0.81343 4.65967  10
   0   3   7 0.50787 4.71941  20
  -1  -3  -7 19.7413 3.57103   8
  -1  -3  -7 14.2020 2.36541   2
  -1  -3  -7 14.7570 2.89690   4
  -1  -3  -7 13.9295 2.66434  26
  -1  -3  -7 14.1896 2.46210  16
  -1  -3  -7 7.15197 2.83888  25
   1   3   7 12.1394 4.15647  14
   1   3   7 9.39945 3.09746  11
   1   3   7 10.1637 3.62675  21
   1   3   7 7.71061 2.84884   1
   1   3   7 3.78793 4.49704  20
  -2  -3  -7 34.6034 4.96220   8
  -2  -3  -7 40.8424 4.87906  12
  -2  -3  -7 33.4850 3.64010   2
  -2  -3  -7 36.5756 5.40717  25
  -2  -3  -7 33.1577 3.76012  26
  -2  -3  -7 31.4579 3.28449   4
   2   3   7 30.7413 4.46311  21
   2   3   7 28.0157 5.21724   1
   2   3   7 24.1091 4.04824  11
   2   3   7 28.7695 5.62908  14
  -3  -3  -7 10.1047 2.70202   2
  -3  -3  -7 11.5007 3.89817   8
  -3  -3  -7 17.7410 2.30664   4
   3   3   7 5.22271 3.80749  14
   3   3   7 14.4729 3.36082   1
   3   3   7 12.1586 2.76943  11
   3   3   7 18.7288 4.14271  21
  -4  -3  -7 62.5810 7.66994   8
  -4  -3  -7 69.5088 6.13020  26
  -4  -3  -7 61.0476 6.14655   2
  -4  -3  -7 73.4647 6.02743   4
   4   3   7 87.1992 9.85238  14
   4   3   7 60.8043 6.65790   1
   4   3   7 65.8785 6.27163  17
   4   3   7 52.4839 6.26176  11
  -5  -3  -7 113.847 10.7584   8
   5   3   7 121.566 9.58314  11
   5   3   7 90.5937 8.91590  17
  -6  -3  -7 13.0829 2.64754   2
   6   3   7 8.93688 2.45443   9
   6   3   7 6.52492 3.01515  17
   6   3   7 2.03612 5.38651   1
   6   3   7 10.1411 3.08849  11
  -7  -3  -7 3.53072 2.01853   2
   7   3   7 2.92203 2.07427   9
  -4   4   7 4.05430 6.82810   1
   3  -4  -7 1.55525 1.60497  16
  -3   4   7 -2.0337 7.62569  24
  -3   4   7 -2.6110 2.62421  11
  -3   4   7 -1.4102 4.48714   1
   2  -4  -7 7.83518 2.81119  26
   2  -4  -7 6.44294 2.59919   4
   2  -4  -7 2.08564 2.03502  16
  -2   4   7 -0.8071 3.50096   1
  -2   4   7 2.74909 2.83419  11
  -2   4   7 14.9142 5.87780  24
   1  -4  -7 9.34369 2.53870  26
   1  -4  -7 1.47941 2.03371   2
   1  -4  -7 3.46155 1.98546  27
   1  -4  -7 2.72730 2.28109  16
  -1   4   7 1.23692 7.89531  10
  -1   4   7 -0.7096 3.03287   1
  -1   4   7 0.39342 2.80321  11
  -1   4   7 -0.9158 3.97044  24
   0  -4  -7 5.00524 2.55558  26
   0  -4  -7 8.52418 2.18394  27
   0  -4  -7 3.49066 2.11366   2
   0  -4  -7 6.53448 2.27731   4
   0  -4  -7 3.54564 2.20216  16
   0   4   7 5.42057 6.09712  10
   0   4   7 0.52793 2.81242   1
   0   4   7 3.77526 2.72404  11
  -1  -4  -7 17.7410 3.00003  26
  -1  -4  -7 20.5165 2.43826   2
  -1  -4  -7 24.8533 4.53028   8
  -1  -4  -7 16.0939 3.28829  12
  -1  -4  -7 16.9546 2.63310  16
   1   4   7 14.8982 3.70012   1
   1   4   7 13.8023 3.63034  11
   1   4   7 14.3977 3.92929  21
   1   4   7 8.27998 9.12284  20
   1   4   7 10.7997 5.96925  14
  -2  -4  -7 22.3910 2.83254   4
  -2  -4  -7 24.1775 4.48937   8
  -2  -4  -7 23.0495 3.24841  26
  -2  -4  -7 21.3189 3.86572  12
  -2  -4  -7 26.8166 3.08619   2
   2   4   7 15.4107 4.27737  21
   2   4   7 15.8530 3.54915  11
   2   4   7 18.5585 6.29311  14
   2   4   7 16.9130 3.62079   1
  -3  -4  -7 15.2446 2.94779  26
  -3  -4  -7 20.5478 4.00292   8
  -3  -4  -7 18.4965 3.58565  12
  -3  -4  -7 21.2251 2.67743   4
  -3  -4  -7 14.8279 2.84071   2
   3   4   7 13.4027 5.07671  14
   3   4   7 10.9102 3.23471   1
   3   4   7 15.7402 3.12116  11
  -4  -4  -7 19.0475 3.59702  12
  -4  -4  -7 3.53833 6.96003   8
  -4  -4  -7 14.8416 2.21871   4
  -4  -4  -7 11.8153 2.58818   2
   4   4   7 10.8024 4.48181  11
   4   4   7 10.0855 3.39025   1
   4   4   7 3.65115 4.54360  14
   4   4   7 18.1333 3.36973  17
  -5  -4  -7 10.9801 2.85787   2
   5   4   7 20.2007 6.41301  14
   5   4   7 13.0085 2.85066  11
   5   4   7 17.5861 4.12818   1
   6   4   7 7.16272 2.79352  11
   6   4   7 5.03133 3.40895   1
   6   4   7 6.11030 2.27192   9
  -7  -4  -7 15.0234 2.18656   2
   3  -5  -7 3.66278 1.37888  16
   3  -5  -7 4.19791 1.74037  12
  -3   5   7 1.35215 4.54839   1
  -3   5   7 1.40671 2.64343  11
   2  -5  -7 -1.7783 1.29165  27
   2  -5  -7 0.97360 1.57604   2
   2  -5  -7 1.13936 1.55364  16
   2  -5  -7 2.44628 2.31421   4
  -2   5   7 2.45717 3.91358   1
  -2   5   7 2.75009 2.84450  11
  -2   5   7 -8.2823 7.06652  24
   1  -5  -7 0.85106 1.66243  27
   1  -5  -7 8.69128 1.99830   4
   1  -5  -7 5.07827 1.89016  16
   1  -5  -7 7.47839 5.52411  26
  -1   5   7 2.47321 5.05177  24
  -1   5   7 3.50133 3.53327   1
  -1   5   7 0.02380 2.89657  11
   0  -5  -7 26.6892 3.12295  27
   0  -5  -7 29.4243 3.68468  26
   0  -5  -7 22.3099 3.51774  12
   0  -5  -7 33.1482 3.17583   4
   0  -5  -7 33.9871 3.09723   2
   0   5   7 29.4479 7.42139  24
   0   5   7 26.9856 4.95582   1
   0   5   7 8.88356 8.40663  10
  -1  -5  -7 3.65863 6.17563   8
  -1  -5  -7 12.5727 2.18137   2
  -1  -5  -7 10.3991 1.98171   4
  -1  -5  -7 14.0716 2.68265  26
  -1  -5  -7 9.73452 2.73457  12
  -1  -5  -7 12.1087 2.83262  27
   1   5   7 10.3802 3.88026  11
   1   5   7 10.5140 3.65791   1
   1   5   7 12.9428 4.28048  21
  -2  -5  -7 6.89589 1.91714   4
  -2  -5  -7 5.33066 2.70050   2
  -2  -5  -7 8.49999 2.47118  26
  -2  -5  -7 1.99809 4.18442   8
   2   5   7 11.4664 4.81932  21
   2   5   7 7.79112 3.15920  11
  -3  -5  -7 -4.9352 4.87675   8
  -3  -5  -7 5.70479 1.79385   4
  -3  -5  -7 0.16212 2.85381  12
  -3  -5  -7 8.04619 2.34268  26
   3   5   7 -2.1638 5.60676  14
   3   5   7 2.74382 2.64008   1
  -4  -5  -7 7.21238 1.76167   4
  -4  -5  -7 7.97329 2.72202   2
  -4  -5  -7 11.1595 2.52515  12
   4   5   7 4.35651 5.41092  14
   4   5   7 2.53369 2.68002   1
   4   5   7 6.11080 3.46395  17
   4   5   7 3.22128 2.16940  11
  -5  -5  -7 -1.4946 3.34155  12
  -5  -5  -7 0.88016 2.35537   2
   5   5   7 0.26984 2.24956  11
   5   5   7 -0.0578 6.84649  14
   5   5   7 -0.8343 2.96517   1
   5   5   7 1.78171 4.33278  17
  -6  -5  -7 0.02539 1.93717   2
   6   5   7 1.27099 2.22850  11
   6   5   7 0.26190 3.15405   1
   7   5   7 5.75431 2.32140  11
   7   5   7 7.48827 1.88270   9
   2  -6  -7 3.72673 1.63545  12
   2  -6  -7 3.36605 1.65547   4
  -2   6   7 -3.2286 3.97383   1
  -2   6   7 0.99762 2.86452  11
   1  -6  -7 5.36127 1.96116  12
   1  -6  -7 4.13516 1.49097   4
   1  -6  -7 1.79977 1.37099  27
  -1   6   7 6.79942 5.05659   1
  -1   6   7 4.95440 3.05303  11
   0  -6  -7 2.29227 1.90710   4
   0  -6  -7 1.51701 3.85133  26
   0  -6  -7 7.17553 3.33287  12
   0  -6  -7 1.30655 1.82555  27
   0   6   7 3.00294 3.91882   1
   0   6   7 -5.7367 6.27412  24
   0   6   7 -0.4505 3.18151  11
   1   6   7 5.96508 3.58125   1
   1   6   7 -2.5571 3.78628  21
  -2  -6  -7 17.1158 2.60279   4
  -2  -6  -7 20.0439 2.92391  26
  -2  -6  -7 24.5587 3.13267  12
   2   6   7 29.3695 4.93799   1
  -3  -6  -7 16.6836 2.36771   4
  -3  -6  -7 16.6767 2.75526  12
   3   6   7 17.1454 4.28436   1
   3   6   7 18.1454 3.69281  11
  -4  -6  -7 26.7685 3.66067  12
   4   6   7 28.5369 4.75530  17
   4   6   7 31.4431 4.13250  11
  -5  -6  -7 27.7936 2.94118   4
  -5  -6  -7 24.7130 3.15818  12
   5   6   7 19.8025 4.62575   1
  -6  -6  -7 11.8256 3.26306  12
   6   6   7 11.1932 3.03101  11
   6   6   7 16.3812 4.23376   1
   1  -7  -7 0.64145 1.19244   4
  -1   7   7 0.51682 2.85577  21
  -1   7   7 0.65629 2.92105  11
   0  -7  -7 0.65692 1.15015   4
   0  -7  -7 2.10054 1.56531  27
   0  -7  -7 -0.3896 1.40795  12
   0   7   7 -2.6817 4.40478  21
   0   7   7 1.20746 3.52640  11
   0   7   7 -2.9932 4.09548   1
  -1  -7  -7 2.01749 1.29252   4
  -1  -7  -7 3.89767 1.44359  12
   1   7   7 7.27337 4.01761   1
   1   7   7 2.29684 3.73527  11
  -2  -7  -7 7.43314 1.92273  12
  -2  -7  -7 7.38975 1.56142   4
   2   7   7 19.0445 5.02022   1
   2   7   7 17.8276 4.53248  11
  -3  -7  -7 0.58923 1.18123   4
  -3  -7  -7 -1.1754 1.32292  12
   3   7   7 2.52006 3.76297   1
   3   7   7 0.62841 3.27051  11
  -4  -7  -7 7.16048 1.50587   4
   4   7   7 5.70661 3.16635  11
   4   7   7 5.46125 3.62062   1
  -5  -7  -7 1.29757 1.18724   4
  -5  -7  -7 2.59573 1.88757  12
   5   7   7 -5.4822 3.42020   1
   5   7   7 2.90115 2.70434  11
  -1  -8  -7 4.44864 1.16523   4
  -1  -8  -7 6.12113 1.27690  12
  -2  -8  -7 1.71396 1.17006  12
   2   8   7 2.79616 4.90388  11
  -3  -8  -7 0.50161 1.35439  12
  -3  -8  -7 0.81250 1.05765   4
  -4  -8  -7 3.60646 1.08398   4
  -4  -8  -7 2.24931 1.57686  12
   4   8   7 2.94177 4.52294  11
   4   5  -8 2.69626 2.54324   8
   4   5  -8 6.63935 2.09099  11
  -4  -5   8 3.75559 1.45473  27
  -4  -5   8 5.44402 1.14014  28
   3   5  -8 -2.0314 3.41792   1
   3   5  -8 1.36959 1.97731  11
   3   5  -8 5.32347 2.94387   8
  -3  -5   8 -0.0250 1.26592  28
  -3  -5   8 1.22231 1.28806  27
   2   5  -8 0.70831 2.17521  11
   2   5  -8 0.79313 4.17015   8
   2   5  -8 -2.2238 3.50326   1
  -2  -5   8 0.35368 1.10529  27
  -2  -5   8 1.16645 1.40187  28
   1   5  -8 2.38302 2.24583  11
   1   5  -8 3.50061 3.65005   1
  -1  -5   8 1.87861 1.22737  27
  -1  -5   8 6.04250 1.68025   3
  -1  -5   8 0.24873 2.35590  28
   0   5  -8 2.43669 4.06182   1
   0   5  -8 4.05432 2.40520  11
   0  -5   8 0.16204 1.31651  27
   0  -5   8 0.97163 1.45515   3
   1  -5   8 29.4636 2.71247  27
   5   4  -8 6.08839 1.35503  26
   5   4  -8 8.73631 2.76762  11
  -5  -4   8 6.85362 1.45162  27
  -5  -4   8 6.09729 1.62711   2
   4   4  -8 45.8796 3.93624  26
  -4  -4   8 43.6973 3.87076  28
   3   4  -8 3.85587 3.08860   8
   3   4  -8 -0.6179 1.85242  11
   3   4  -8 -0.7106 3.09565  26
   3   4  -8 -3.1184 6.74904  25
   3   4  -8 0.09978 3.08561   1
  -3  -4   8 1.04500 1.39642   2
  -3  -4   8 4.66616 1.58760  28
   2   4  -8 -0.1292 2.98509   8
   2   4  -8 3.53326 3.73585   1
   2   4  -8 2.98856 2.05223  11
   2   4  -8 1.67312 6.59132  25
  -2  -4   8 1.48658 1.45978   2
  -2  -4   8 1.72345 1.70409  28
  -2  -4   8 -0.4980 6.64747  21
   1   4  -8 2.95206 3.35999   1
   1   4  -8 1.19166 3.67139   8
   1   4  -8 -0.2668 2.21775  11
   1   4  -8 -3.0217 8.06309  25
  -1  -4   8 -1.0352 1.94791   3
  -1  -4   8 2.87321 1.41399   2
  -1  -4   8 4.50644 3.41845  21
  -1  -4   8 0.61646 1.35348  27
  -1  -4   8 0.70061 1.79374  28
   0   4  -8 8.38651 2.63161  11
   0  -4   8 2.70981 1.63755  27
   0  -4   8 1.73269 1.66514   3
   0  -4   8 3.04970 2.79295  21
  -1   4  -8 -1.2399 2.42215  11
   1  -4   8 1.66259 1.34272   2
   1  -4   8 -1.3679 2.69950  21
   1  -4   8 0.95742 1.35249   3
   1  -4   8 5.40756 1.88217  27
  -2   4  -8 -2.0964 6.71870   1
  -2   4  -8 1.86719 3.34429  11
   2  -4   8 2.10436 1.19496   2
   5   3  -8 1.70026 1.39839  26
   5   3  -8 1.50247 3.57602   8
  -5  -3   8 1.01309 1.29021   2
  -5  -3   8 1.48542 1.33058  28
   4   3  -8 24.5262 3.19488  11
   4   3  -8 18.2975 2.47286  26
  -4  -3   8 19.1232 2.46572   2
   3   3  -8 11.5009 2.67180  11
   3   3  -8 12.5666 4.15778   1
   3   3  -8 9.38257 2.39843  26
   3   3  -8 16.8066 5.70959  25
   3   3  -8 25.1732 14.6992  15
  -3  -3   8 10.6692 2.15695  28
  -3  -3   8 5.10632 2.71802   2
   2   3  -8 -3.7174 2.98202   8
   2   3  -8 -3.3783 8.45806  15
   2   3  -8 -0.3359 2.13130  11
   2   3  -8 5.16005 4.60766  25
   2   3  -8 4.09301 3.83373  26
   2   3  -8 1.89901 2.95709   1
  -2  -3   8 5.42231 2.03680   2
  -2  -3   8 -5.4143 3.81785  21
  -2  -3   8 8.70183 2.89807  28
   1   3  -8 6.68064 3.62025   1
   1   3  -8 7.14006 4.74804  25
   1   3  -8 -3.1236 7.31501  15
   1   3  -8 11.6466 3.38982   8
   1   3  -8 3.59635 2.07831  11
  -1  -3   8 8.80291 3.23356  21
   0   3  -8 3.22909 6.00311  25
   0   3  -8 8.03918 3.81411   8
   0   3  -8 4.53384 2.56973  11
   0   3  -8 11.7445 4.56194   1
   0   3  -8 -0.4453 6.86639  15
   0  -3   8 7.35845 2.46398   3
   0  -3   8 5.75672 2.98055  21
   0  -3   8 5.35348 1.79148   2
  -1   3  -8 0.55016 4.24789   1
  -1   3  -8 4.21973 5.23049   8
  -1   3  -8 3.67783 2.57499  11
  -1   3  -8 0.64260 8.49919  15
   1  -3   8 1.57331 1.63960   2
   1  -3   8 -0.8844 1.75709   3
   1  -3   8 6.25725 6.05313  17
   1  -3   8 0.27156 2.38274  27
   1  -3   8 2.47608 2.54569  21
  -2   3  -8 12.7922 6.45667   1
  -2   3  -8 2.13231 2.67838  11
   2  -3   8 0.51514 2.57692  21
   2  -3   8 2.28203 1.44456   2
   2  -3   8 4.96080 2.52631  17
  -3   3  -8 2.46644 10.2061   1
   3  -3   8 1.49082 1.22610   2
   3  -3   8 -0.9534 1.85458  17
   5   2  -8 0.90607 3.07543   8
   5   2  -8 0.19781 1.17162  26
  -5  -2   8 -0.5309 1.60232   2
   4   2  -8 10.7678 3.23037   8
   4   2  -8 14.7376 5.78730   1
   4   2  -8 30.0131 7.03827  25
   4   2  -8 15.9002 3.18788  11
  -4  -2   8 11.0145 2.56416   2
   3   2  -8 0.76651 3.62038   1
   3   2  -8 1.63231 2.17724  11
   3   2  -8 -2.4732 4.22208  25
   3   2  -8 -6.7717 8.15640  15
   3   2  -8 2.92481 2.97850   8
  -3  -2   8 -2.7032 5.93151  21
  -3  -2   8 7.03004 2.27326  28
   2   2  -8 3.46841 3.10726   8
   2   2  -8 0.53165 3.04963   1
   2   2  -8 3.80470 2.19896  11
   2   2  -8 -3.0838 4.05968  25
   2   2  -8 9.94612 9.05985  15
  -2  -2   8 1.10118 1.91706   2
  -2  -2   8 2.98538 3.68452  21
   1   2  -8 3.31189 6.44184   8
   1   2  -8 0.22807 3.06340   1
   1   2  -8 -8.5276 5.88289  15
   1   2  -8 -0.0250 3.92054  25
  -1  -2   8 6.14869 2.19772   2
  -1  -2   8 2.06439 3.93280  21
   0   2  -8 15.8349 6.89068   8
   0   2  -8 3.50859 5.58050  15
   0   2  -8 9.24416 3.55746   1
   0  -2   8 11.9769 4.21076  17
  -1   2  -8 0.14339 3.87298   8
  -1   2  -8 3.30979 5.59416  25
  -1   2  -8 0.98764 2.83006  11
  -1   2  -8 -2.2020 3.76650   1
  -1   2  -8 10.4457 7.33777  15
   1  -2   8 2.19847 1.70379   2
   1  -2   8 2.02303 2.36073  21
  -2   2  -8 52.3503 12.8922  15
  -2   2  -8 75.9579 13.9571  25
   2  -2   8 55.2078 5.16111   2
   2  -2   8 53.2909 6.16498  21
  -3   2  -8 21.5469 8.66523   1
   3  -2   8 10.6410 1.95608   2
   3  -2   8 10.9942 2.53076  17
   3  -2   8 9.10935 3.25011  21
  -4   2  -8 12.1970 4.28184   7
   4  -2   8 19.6965 2.29069   2
   4  -2   8 14.5360 2.59254  17
   5   1  -8 -1.6804 2.24811   2
   5   1  -8 2.30142 1.37420  26
   5   1  -8 1.94949 2.29423  16
   4   1  -8 3.81184 6.62809  25
   4   1  -8 4.93552 3.09847  16
   4   1  -8 3.70352 2.45329  26
   4   1  -8 1.59964 2.94614   2
   4   1  -8 1.98100 3.16852   8
  -4  -1   8 -0.0078 3.11824   2
   3   1  -8 2.07821 5.19961  25
   3   1  -8 2.93046 2.82805   8
   3   1  -8 3.12511 2.22650  26
   3   1  -8 6.31180 3.14036   2
   3   1  -8 3.44167 7.61101  15
   3   1  -8 5.88942 5.27837   1
   3   1  -8 2.90414 2.94845  11
  -3  -1   8 2.36425 2.52021   2
  -3  -1   8 4.16410 4.04409  21
   2   1  -8 10.0807 3.03476  11
   2   1  -8 10.3475 4.48387  25
   2   1  -8 4.24005 4.37113   1
   2   1  -8 17.9551 3.61109   2
   2   1  -8 5.40864 3.19861   8
   2   1  -8 4.87308 6.27648  15
   2   1  -8 10.1773 2.48019  26
  -2  -1   8 9.79402 3.80751  21
  -2  -1   8 8.66027 2.66894   2
   1   1  -8 21.9161 8.48683  15
   1   1  -8 22.3849 3.91494   2
   1   1  -8 17.4496 5.01875  25
   1   1  -8 7.81340 3.21635  11
   1   1  -8 14.0179 3.52430   8
   1   1  -8 11.1311 2.78873  26
  -1  -1   8 14.7518 2.81312   2
  -1  -1   8 19.2036 4.87346  17
  -1  -1   8 11.6731 3.52489  21
   0   1  -8 23.2588 4.18712   2
   0   1  -8 18.1938 5.22627  25
   0   1  -8 16.0254 3.66564  11
   0   1  -8 22.4708 3.61442  26
   0   1  -8 21.0405 7.88830  15
   0   1  -8 28.6338 4.08626   8
   0   1  -8 18.0325 4.68981   1
   0  -1   8 19.1873 2.99363   2
   0  -1   8 26.1261 3.86372  17
   0  -1   8 18.8394 3.64553  21
  -1   1  -8 6.06652 4.19599  25
  -1   1  -8 4.12339 2.96231  11
  -1   1  -8 0.59287 4.78718  15
  -1   1  -8 4.00185 3.90473   1
  -1   1  -8 10.2637 3.75864   8
   1  -1   8 4.76253 2.61299  21
   1  -1   8 10.1563 5.01947  14
   1  -1   8 7.15335 2.93964  17
  -2   1  -8 11.4409 8.17811   8
  -2   1  -8 4.05116 5.70595  15
  -2   1  -8 17.1052 4.26814   2
  -2   1  -8 10.3908 5.00432  11
  -2   1  -8 5.23753 5.45108  25
  -2   1  -8 14.9330 7.93180  18
   2  -1   8 2.04773 5.39569  14
   2  -1   8 9.70132 2.18237   2
   2  -1   8 6.87831 2.86421  17
  -3   1  -8 -2.2088 7.70762  18
  -3   1  -8 5.13821 6.86354  15
  -3   1  -8 11.0677 4.48364   2
  -3   1  -8 -1.9535 5.17590   8
   3  -1   8 10.3218 2.62151  17
   3  -1   8 7.46023 2.97886  21
   3  -1   8 8.67135 2.11592   2
  -4   1  -8 12.7249 4.44141   2
   4  -1   8 14.2744 2.67523  17
  -5   1  -8 12.0617 4.03213   2
   5  -1   8 4.85995 1.84861  17
   5  -1   8 4.55912 1.49879   2
   5   0  -8 4.15272 1.49024  26
  -5   0   8 3.05001 2.07299   2
   4   0  -8 9.97449 2.06799  16
   4   0  -8 9.56640 2.93676  26
   4   0  -8 5.37147 8.15683  25
   4   0  -8 11.0341 4.04274   8
  -4   0   8 7.17728 2.88426   2
   3   0  -8 10.6799 5.26857  25
   3   0  -8 13.7555 3.84462   8
   3   0  -8 23.0416 2.79263  26
   3   0  -8 18.9105 2.98432  16
  -3   0   8 16.5183 4.29352  21
   2   0  -8 51.5516 5.19204   2
   2   0  -8 43.8806 5.70874   8
   2   0  -8 64.9989 10.9921  15
   2   0  -8 43.4005 4.99984  16
   2   0  -8 48.7664 4.76194  26
   2   0  -8 59.1935 7.53957  25
  -2   0   8 61.9960 6.42154  21
  -2   0   8 49.6185 5.36243   2
   1   0  -8 38.5811 4.50953   2
   1   0  -8 45.3202 5.54293   8
   1   0  -8 37.5259 8.86316  15
   1   0  -8 39.5685 6.44587  25
   1   0  -8 37.1369 4.22260  26
  -1   0   8 45.9064 4.30976   2
  -1   0   8 42.1311 5.27346  21
   0   0  -8 28.6527 4.28068  11
   0   0  -8 24.9192 5.42442  25
   0   0  -8 20.3636 7.56018  15
   0   0  -8 24.1771 3.69246   2
   0   0  -8 21.9583 6.79382   1
   0   0  -8 25.2785 3.39496  26
   0   0  -8 22.6625 4.27182   8
   0   0   8 30.2361 4.25666  21
   0   0   8 18.9713 6.56722  14
   0   0   8 24.1276 3.45207   2
  -1   0  -8 5.30037 3.31377   2
  -1   0  -8 3.44939 3.76205  25
  -1   0  -8 1.35023 4.27444  15
  -1   0  -8 3.96057 3.44978  11
  -1   0  -8 12.9196 5.75086   1
  -1   0  -8 10.8030 3.27107   8
   1   0   8 6.69962 2.38690   2
   1   0   8 1.72218 4.21044  14
   1   0   8 4.62414 2.84498  21
  -2   0  -8 13.7612 3.58459   2
  -2   0  -8 6.05133 4.02232   8
  -2   0  -8 1.75597 5.84438  18
  -2   0  -8 9.54879 5.24501  15
   2   0   8 12.8226 2.86029  17
   2   0   8 7.76164 4.56192  14
   2   0   8 14.7079 2.66796   2
  -3   0  -8 31.8446 10.3090  18
  -3   0  -8 24.1387 4.22622   2
  -3   0  -8 30.3103 5.43055   8
   3   0   8 28.8364 4.34158  21
   3   0   8 35.4025 3.69311   2
  -4   0  -8 4.67664 8.14743  18
  -4   0  -8 19.9807 5.22269   8
   4   0   8 16.3229 3.37627   2
   4   0   8 19.5849 3.50157  21
   4   0   8 8.60388 8.37036  14
   4   0   8 12.3331 2.89335  17
  -5   0  -8 -3.8196 2.83221   2
   5   0   8 1.00962 1.71830  17
   5   0   8 0.56870 1.81742   2
   5  -1  -8 3.52156 1.35528  16
   5  -1  -8 -0.4193 1.66577  26
  -5   1   8 1.02353 2.55346   2
   4  -1  -8 4.86300 1.91645  16
   4  -1  -8 8.25921 1.88082  26
  -4   1   8 8.78067 4.31893  21
  -4   1   8 7.11429 3.22751   2
   3  -1  -8 6.31563 2.17894  16
   3  -1  -8 1.87794 3.97307   8
   3  -1  -8 5.37271 2.09249  26
  -3   1   8 -1.8246 4.57690  11
  -3   1   8 10.7012 3.42951   2
  -3   1   8 0.64893 3.85290  21
   2  -1  -8 27.5248 4.50848   8
   2  -1  -8 28.2993 9.55765  15
   2  -1  -8 26.2638 3.07693   2
   2  -1  -8 20.2623 3.06518  16
   2  -1  -8 33.8531 3.58811  26
  -2   1   8 18.5992 4.30482  21
  -2   1   8 38.1698 7.52776   1
  -2   1   8 8.35653 7.41152  24
   1  -1  -8 29.3389 4.29168   8
   1  -1  -8 27.0551 8.09276  15
   1  -1  -8 28.0868 3.36334  16
   1  -1  -8 22.2916 3.32849   2
   1  -1  -8 28.8103 5.41031  25
   1  -1  -8 25.2395 3.46315  26
  -1   1   8 27.7402 4.05663  11
  -1   1   8 16.1837 7.41522   1
  -1   1   8 7.22389 7.93476  10
  -1   1   8 26.9737 4.21360   2
  -1   1   8 23.4191 6.43613  24
  -1   1   8 27.0908 4.43448  21
   0  -1  -8 7.21116 2.44961  26
   0  -1  -8 3.45819 2.91130   8
   0  -1  -8 -1.8751 3.04764  25
   0  -1  -8 2.05486 4.06167  15
   0  -1  -8 -0.7639 2.40016   2
   0   1   8 -9.4182 6.39310  10
   0   1   8 3.73280 2.65333  11
   0   1   8 -6.3343 4.47807  14
   0   1   8 2.92417 3.96019   1
   0   1   8 6.81164 3.27498  21
   0   1   8 6.40476 3.20940   2
  -1  -1  -8 39.1601 3.95317  26
  -1  -1  -8 32.6131 3.92114   2
  -1  -1  -8 32.4923 4.75705   8
  -1  -1  -8 35.8898 6.14711  25
  -1  -1  -8 43.2294 8.89101  15
   1   1   8 22.7146 5.73411   1
   1   1   8 30.8566 4.74686  21
   1   1   8 36.4992 4.26980   2
   1   1   8 25.0297 6.83683  14
  -2  -1  -8 20.9403 4.52806   8
  -2  -1  -8 29.0911 8.80537  15
  -2  -1  -8 15.6519 2.85029   2
  -2  -1  -8 22.5487 5.38242  25
   2   1   8 14.7841 3.46564  21
   2   1   8 22.8709 3.46402   2
   2   1   8 30.1293 6.64193  14
   2   1   8 23.3641 3.69748  17
  -3  -1  -8 22.7092 3.25983   2
  -3  -1  -8 19.6940 4.78952   8
  -3  -1  -8 10.1600 5.62990  18
  -3  -1  -8 19.4753 3.88544  26
  -3  -1  -8 3.34659 8.33570  15
   3   1   8 19.0751 3.62885  21
   3   1   8 16.6622 3.16056  17
   3   1   8 20.9477 5.99581  14
   3   1   8 19.1475 3.12821   2
  -4  -1  -8 10.2535 7.48240  18
  -4  -1  -8 6.50303 3.86851   8
  -4  -1  -8 4.82081 3.13421   2
   4   1   8 7.22816 2.41328  17
   4   1   8 8.15265 2.64800   2
   4   1   8 3.16195 4.17959   9
  -5  -1  -8 1.79366 2.50294   2
   5   1   8 4.02535 1.78166  17
   5   1   8 4.65324 2.44844   2
   5   1   8 -2.7709 4.74187   9
  -6  -1  -8 1.67169 2.15159   2
   6   1   8 -1.3128 1.58001   2
   6   1   8 2.04138 1.64974  17
   5  -2  -8 6.46710 1.42402  16
   5  -2  -8 7.34980 1.90189  26
   4  -2  -8 1.03032 1.64016  16
   4  -2  -8 0.98759 1.96573  26
  -4   2   8 0.60226 3.65675  21
  -4   2   8 -0.0402 4.16303   2
   3  -2  -8 8.94163 2.20976  16
   3  -2  -8 15.0794 2.30881  26
  -3   2   8 17.8408 8.06839   1
  -3   2   8 13.9351 3.97202  21
  -3   2   8 6.16239 3.46652  11
  -3   2   8 15.7601 5.88635   2
   2  -2  -8 46.8629 12.6183  25
   2  -2  -8 47.3781 4.48881  16
   2  -2  -8 45.9531 4.48817  26
  -2   2   8 44.1274 6.08504   2
  -2   2   8 27.3011 16.6514  10
  -2   2   8 54.6476 8.76677  24
  -2   2   8 42.9309 6.44601   1
  -2   2   8 39.1532 8.13916  11
  -2   2   8 36.8206 8.10506  21
   1  -2  -8 7.75417 2.31086  16
   1  -2  -8 8.39186 3.89798  25
   1  -2  -8 4.01703 2.46221  26
   1  -2  -8 5.58397 2.11010   2
   1  -2  -8 6.37729 3.50025   8
   1  -2  -8 1.09541 5.24271  15
  -1   2   8 6.51554 3.33068  21
  -1   2   8 -0.0436 2.80064  11
  -1   2   8 7.31169 7.62895  10
  -1   2   8 2.34638 3.36065   1
   0  -2  -8 26.3580 4.67499   8
   0  -2  -8 38.0948 3.98921  26
   0  -2  -8 39.0029 3.91801   2
   0  -2  -8 34.3833 3.80854  16
   0  -2  -8 30.6096 8.13395  15
   0   2   8 35.1679 7.77987  14
   0   2   8 55.7518 9.93191  10
   0   2   8 31.0446 12.5968  20
   0   2   8 28.7484 4.92262  21
   0   2   8 34.7241 5.50555   1
  -1  -2  -8 445.970 31.3688  25
  -1  -2  -8 371.883 29.1318   2
  -1  -2  -8 385.648 29.2586  26
  -1  -2  -8 461.251 33.9949  15
  -1  -2  -8 346.245 30.1675   8
   1   2   8 369.852 31.3199  14
   1   2   8 358.978 29.4855   2
   1   2   8 423.207 30.5865   1
  -2  -2  -8 153.581 14.2293  25
  -2  -2  -8 145.096 12.1146   2
  -2  -2  -8 160.354 12.1249  26
  -2  -2  -8 141.000 16.3030  15
  -2  -2  -8 138.502 11.6366   4
  -2  -2  -8 178.578 14.0698   8
   2   2   8 138.035 12.5662  21
   2   2   8 154.988 12.5470   2
  -3  -2  -8 8.36403 2.86285  26
  -3  -2  -8 12.6282 2.86971   2
   3   2   8 11.1817 3.23279  11
   3   2   8 19.6043 4.14328   2
   3   2   8 6.91113 5.22884  14
   3   2   8 14.2297 3.30246  21
  -4  -2  -8 71.8846 6.21331   2
  -4  -2  -8 64.6937 7.40897   8
   4   2   8 66.9300 6.22028  17
   4   2   8 50.8940 6.11185  11
   4   2   8 77.8703 10.7793  14
   4   2   8 49.3453 6.02470   2
  -5  -2  -8 38.1135 4.50204   2
   5   2   8 38.0559 4.22239  17
   5   2   8 49.5785 12.6068  14
  -6  -2  -8 -0.8152 1.87933   2
   6   2   8 -0.6739 1.86343  17
   6   2   8 -0.8407 3.17302   2
   4  -3  -8 3.00567 2.54909  26
   4  -3  -8 3.14775 1.39733  16
  -4   3   8 -0.3494 3.53389  21
   3  -3  -8 -2.2673 2.18732  26
   3  -3  -8 1.18577 1.65224  16
  -3   3   8 0.73294 5.63862   1
  -3   3   8 0.44989 3.33714  21
  -3   3   8 2.29069 2.93418  11
  -3   3   8 -14.517 10.7660  24
   2  -3  -8 7.40654 1.94396   2
   2  -3  -8 8.26439 2.57463  26
   2  -3  -8 9.30134 2.18747  16
  -2   3   8 6.30823 3.05522  11
  -2   3   8 8.60107 4.02709   1
  -2   3   8 2.45232 3.16950  21
  -2   3   8 4.26489 6.38185  24
   1  -3  -8 8.74007 5.20469  25
   1  -3  -8 6.70136 2.30582  16
   1  -3  -8 6.89756 2.23817  26
   1  -3  -8 0.45811 1.84542   2
  -1   3   8 3.78867 3.18111   1
  -1   3   8 1.36695 3.06817  11
  -1   3   8 4.88564 3.95957  21
  -1   3   8 -6.4880 8.05321  10
  -1   3   8 0.53753 5.13431  24
   0  -3  -8 31.7659 3.37705  16
   0  -3  -8 24.9234 4.42772   8
   0  -3  -8 24.0613 3.15400   2
   0  -3  -8 33.0433 3.24154   4
   0  -3  -8 30.2577 5.90074  25
   0  -3  -8 25.8361 3.49510  26
   0   3   8 21.5945 4.43692  21
   0   3   8 29.3763 8.35149  10
   0   3   8 19.7539 3.83098  11
   0   3   8 32.7180 4.91411   1
  -1  -3  -8 18.5088 5.32848  25
  -1  -3  -8 24.0998 3.43337  26
  -1  -3  -8 31.7771 4.29847  12
  -1  -3  -8 28.6301 3.14902   4
  -1  -3  -8 22.7618 4.35721   8
  -1  -3  -8 31.7718 3.41543   2
   1   3   8 30.8311 4.55181  21
  -2  -3  -8 67.6895 6.36671   2
  -2  -3  -8 82.9053 6.24084   4
  -2  -3  -8 67.2845 7.30578   8
  -2  -3  -8 58.1294 6.77728  12
  -2  -3  -8 71.2185 6.50120  26
   2   3   8 62.7086 9.41983  14
   2   3   8 79.5624 7.22862  11
   2   3   8 77.9325 7.23296  21
  -3  -3  -8 275.377 21.7034   2
  -3  -3  -8 274.177 23.3216   8
   3   3   8 277.855 22.7938   1
   3   3   8 304.781 24.6962  14
   3   3   8 293.950 22.0892  21
  -4  -3  -8 3.59251 3.42406   8
  -4  -3  -8 7.05443 2.60876   2
   4   3   8 1.24140 5.12738  14
   4   3   8 1.98368 2.33436  11
   4   3   8 1.33257 3.40325   1
  -5  -3  -8 -0.2911 2.48191   2
  -5  -3  -8 3.88998 3.53596   8
   5   3   8 0.80669 2.61114  11
   5   3   8 4.86455 2.19457  17
   5   3   8 3.98744 7.26263  14
   5   3   8 5.34004 4.56474   1
  -6  -3  -8 -1.7299 2.16859   2
   6   3   8 1.69873 2.30248  17
   6   3   8 -5.1694 6.05938  11
   6   3   8 -1.2936 2.39914   9
   4  -4  -8 2.09161 1.16197  16
   4  -4  -8 2.70057 1.06974   2
  -4   4   8 -0.5604 2.46950  21
   3  -4  -8 2.02909 3.30323  26
   3  -4  -8 -1.3579 1.45737  16
   3  -4  -8 -0.5364 1.18252   2
  -3   4   8 -2.8642 2.60347  11
  -3   4   8 2.91977 5.52429   1
  -3   4   8 -3.0736 2.85206  21
   2  -4  -8 -3.5389 2.62216  26
   2  -4  -8 0.72537 1.77803   2
   2  -4  -8 0.73791 3.36729  16
  -2   4   8 2.93963 4.14914   1
  -2   4   8 0.16074 3.38438  21
  -2   4   8 3.42888 2.74473  11
  -2   4   8 0.13797 7.23531  24
   1  -4  -8 9.80634 2.34116  26
   1  -4  -8 8.74833 2.54992   4
   1  -4  -8 6.90922 2.19152  16
   1  -4  -8 8.88919 1.80790   2
  -1   4   8 4.07003 2.96882  11
  -1   4   8 5.32067 6.03699  24
  -1   4   8 2.99144 3.35861   1
  -1   4   8 13.5086 3.77633  21
   0  -4  -8 9.04846 2.53048  26
   0  -4  -8 7.49251 2.06320   2
   0  -4  -8 9.18377 2.11047   4
   0  -4  -8 7.61551 2.10245  16
   0   4   8 3.49446 3.43919   1
   0   4   8 0.13205 4.28928  21
   0   4   8 6.89108 3.62174  11
   0   4   8 0.78163 8.55535  10
  -1  -4  -8 10.2730 3.03591  12
  -1  -4  -8 6.66156 2.05197   4
  -1  -4  -8 7.21805 3.89760   8
   1   4   8 12.5179 3.58500  11
   1   4   8 6.60844 2.94427   1
   1   4   8 -0.1057 6.77813  10
   1   4   8 12.2140 3.91891  21
  -2  -4  -8 16.4050 2.58175   2
  -2  -4  -8 18.8545 4.53315   8
  -2  -4  -8 13.7078 2.87919  26
  -2  -4  -8 19.0178 2.34366   4
  -2  -4  -8 18.2470 3.50734  12
   2   4   8 11.6988 6.55867  14
   2   4   8 11.3768 3.92274  21
   2   4   8 14.6012 3.75513  11
   2   4   8 15.7308 3.83814   1
  -3  -4  -8 34.2530 5.24141   8
  -3  -4  -8 33.7745 3.63270   2
  -3  -4  -8 33.0914 4.02315  12
  -3  -4  -8 26.2044 3.64648  26
   3   4   8 29.5740 5.70725  21
   3   4   8 23.8086 4.50664   1
   3   4   8 27.9912 3.79612  11
  -4  -4  -8 5.14422 2.32472   2
  -4  -4  -8 5.29551 1.70882   4
  -4  -4  -8 2.99345 3.49063   8
   4   4   8 5.03669 2.56599  17
   4   4   8 5.12590 3.15336   1
   4   4   8 -5.9621 5.96418  14
  -5  -4  -8 5.81000 2.27965   2
   5   4   8 7.06050 2.65811  17
   5   4   8 9.59451 9.13264  14
   5   4   8 4.88555 2.40770  11
   5   4   8 14.5379 4.04498   1
  -6  -4  -8 15.9053 2.52653   2
   6   4   8 18.3342 7.62353   1
   6   4   8 11.8803 4.03560  11
   3  -5  -8 -0.6402 1.70721  12
   3  -5  -8 0.45462 1.17429  16
  -3   5   8 -1.1611 2.34600  11
  -3   5   8 -0.1575 2.35687  21
   2  -5  -8 10.5251 1.86756  16
   2  -5  -8 13.1026 1.71692   2
  -2   5   8 14.9255 3.29965  11
  -2   5   8 17.0807 4.79026   1
   1  -5  -8 12.3414 2.57696  12
   1  -5  -8 9.56586 1.90858  16
   1  -5  -8 8.62161 2.09922   4
   1  -5  -8 6.81543 1.73215   2
  -1   5   8 3.98285 3.15287  21
  -1   5   8 12.0028 4.49421   1
  -1   5   8 8.96551 3.30508  11
  -1   5   8 2.80261 6.33159  24
   0  -5  -8 13.6321 2.65434  26
   0  -5  -8 17.6000 2.29206   4
   0  -5  -8 14.0856 2.47525  16
   0  -5  -8 9.57122 2.70777  12
   0  -5  -8 14.3217 2.14960   2
   0   5   8 13.4264 3.37671  11
   0   5   8 6.33296 3.46596  21
   0   5   8 12.9909 4.34793   1
   0   5   8 2.18579 5.29759  24
  -1  -5  -8 5.02232 1.99418   2
  -1  -5  -8 9.61045 2.06404   4
  -1  -5  -8 9.94030 2.52061  12
  -1  -5  -8 10.5082 2.32130  26
  -1  -5  -8 8.34311 5.61344   8
   1   5   8 9.58227 2.93863  11
   1   5   8 3.28862 3.18975  21
   1   5   8 9.23728 3.47791   1
  -2  -5  -8 19.0525 2.37778   4
  -2  -5  -8 10.1950 4.35808   8
  -2  -5  -8 13.2500 2.64471  26
  -2  -5  -8 15.4997 2.87827  12
  -2  -5  -8 16.8976 2.55400   2
   2   5   8 11.2608 4.16579   1
   2   5   8 13.8135 4.79712  21
   2   5   8 11.2375 3.21627  11
  -3  -5  -8 1.89901 1.48509   4
  -3  -5  -8 1.89835 2.41696  26
  -3  -5  -8 2.31436 3.35993   8
  -3  -5  -8 5.79052 2.41852   2
   3   5   8 1.67263 2.88294   1
   3   5   8 8.75671 8.90661  14
   3   5   8 2.92191 2.26382  11
  -4  -5  -8 3.41508 2.58690   4
  -4  -5  -8 3.53024 3.19213   8
  -4  -5  -8 -0.9410 2.36252   2
  -4  -5  -8 -1.0935 2.87906  12
   4   5   8 -1.3342 2.57526  17
   4   5   8 6.21370 8.11707  14
   4   5   8 2.51545 2.23655  11
   4   5   8 -1.2370 3.07380   1
  -5  -5  -8 4.59825 2.14944   2
   5   5   8 7.51423 3.30533  17
   5   5   8 6.04001 2.44369  11
   5   5   8 10.2952 3.81340   1
  -6  -5  -8 2.12188 1.94052   2
   6   5   8 0.55887 1.84729   9
   6   5   8 0.91450 4.06588   1
   6   5   8 -3.4305 2.04564  11
   2  -6  -8 1.75901 1.47765  12
  -2   6   8 2.89297 2.46508  21
  -2   6   8 0.76420 2.42870  11
   1  -6  -8 2.09226 1.57201   4
   1  -6  -8 2.99329 1.66235  12
  -1   6   8 1.50739 2.57197  21
  -1   6   8 -5.0989 3.66344   1
  -1   6   8 -0.5212 2.55604  11
   0  -6  -8 9.99195 2.03441  12
   0  -6  -8 9.05285 1.79912   4
   0   6   8 6.17463 3.45564  21
   0   6   8 6.43380 2.97991  11
   0   6   8 14.6440 4.59054   1
  -1  -6  -8 9.49589 2.61239  26
  -1  -6  -8 11.1488 1.83118   4
   1   6   8 9.18198 3.99949  21
   1   6   8 -0.8073 6.15638  24
   1   6   8 9.77399 3.19431  11
   1   6   8 13.5453 4.39624   1
  -2  -6  -8 41.6218 4.16128   4
   2   6   8 48.5002 5.41895  11
  -3  -6  -8 15.9775 2.71328  12
  -3  -6  -8 21.6665 2.50043   4
   3   6   8 18.7811 3.66337  11
   3   6   8 25.5999 4.93220   1
  -4  -6  -8 13.9615 2.22305  12
   4   6   8 8.45263 3.28874  17
   4   6   8 20.7976 4.41718   1
  -5  -6  -8 8.32397 2.48547  12
   5   6   8 4.11601 3.42814   1
   6   6   8 0.19131 1.96551  11
   6   6   8 -0.5083 1.78542   9
   0  -7  -8 2.76837 1.13821   4
   0  -7  -8 1.70007 1.25911  12
   0   7   8 1.46952 4.66699   1
   0   7   8 4.43733 5.08283  21
  -1  -7  -8 1.19994 1.25109  12
  -1  -7  -8 0.13126 1.28838   4
   1   7   8 -1.0157 3.97686  11
   1   7   8 2.07858 4.03252   1
  -2  -7  -8 7.69906 1.55103   4
   2   7   8 10.0345 3.60362  11
   2   7   8 15.6550 4.78280   1
  -3  -7  -8 6.26639 1.74317  12
  -3  -7  -8 4.06521 1.32336   4
   3   7   8 7.34373 3.88523   1
   3   7   8 5.64444 3.09812  11
  -4  -7  -8 -0.4960 0.99772   4
  -4  -7  -8 0.34925 1.57135  12
   4   7   8 0.27159 2.62303  11
   4   7   8 3.30911 3.81813   1
  -5  -7  -8 2.25879 2.06328  12
   5   7   8 -0.8540 2.38360  11
   3   4  -9 2.67141 2.36203   8
   3   4  -9 1.94065 2.27543  11
  -3  -4   9 1.30712 1.35555  27
  -3  -4   9 0.70330 1.27656   2
   2   4  -9 0.67948 2.50349  11
   2   4  -9 7.58348 4.77935   1
   2   4  -9 5.92039 3.04448   8
  -2  -4   9 3.91299 1.27707   2
   1   4  -9 -2.9533 2.26075  11
   1   4  -9 -5.6205 4.48845   1
   1   4  -9 1.33049 3.65669   8
  -1  -4   9 0.73925 1.29048   2
  -1  -4   9 1.50937 1.30231  27
   0   4  -9 1.46089 3.44022  11
   0  -4   9 1.20350 1.31206   2
   0  -4   9 1.41995 1.58642  27
   0  -4   9 0.00842 2.91531  21
  -1   4  -9 4.09315 2.60969  11
   1  -4   9 5.04459 2.23333  27
   1  -4   9 2.32031 1.49169   2
   4   3  -9 1.95344 1.42059  26
   4   3  -9 3.84434 2.62849   8
  -4  -3   9 4.47708 1.35297   2
   3   3  -9 1.61041 2.43364  11
   3   3  -9 10.7691 7.11946   1
   3   3  -9 -1.4104 2.74028   8
   3   3  -9 3.81664 1.91463  26
  -3  -3   9 1.33755 1.45491   2
   2   3  -9 -1.7148 2.39918  11
   2   3  -9 -0.8650 2.54793   8
   2   3  -9 -0.8598 4.37463   1
   2   3  -9 -4.4380 6.50183  25
   1   3  -9 3.55448 2.49579  11
   1   3  -9 9.00693 3.19972   8
   1   3  -9 5.49325 4.61757   1
   1   3  -9 2.23794 6.30295  25
  -1  -3   9 3.13441 1.50170   2
  -1  -3   9 0.65584 2.99345  21
   0   3  -9 14.3380 3.78283   8
   0   3  -9 14.3028 6.00198   1
   0   3  -9 8.65842 2.90107  11
   0  -3   9 12.4061 2.10054  27
   0  -3   9 14.5137 3.48378  21
  -1   3  -9 1.27719 2.70363  11
   1  -3   9 3.74448 2.28784  27
   1  -3   9 0.84391 1.19291   2
   1  -3   9 2.41067 3.42918  17
   1  -3   9 1.69996 2.40063  21
  -2   3  -9 7.96375 3.07007  11
   2  -3   9 6.61195 1.52627   2
   2  -3   9 8.39900 2.40908  17
   5   2  -9 0.53251 1.13017  26
   5   2  -9 -1.4239 2.66494   8
  -5  -2   9 1.65305 1.26852   2
   4   2  -9 3.19849 2.85067   8
   4   2  -9 -0.2958 1.35661  26
  -4  -2   9 -0.8703 1.38452   2
   3   2  -9 4.25327 2.83500   8
   3   2  -9 5.79548 1.80056  26
   3   2  -9 1.94318 2.98140  11
   3   2  -9 5.56750 5.71517  25
  -3  -2   9 5.78002 5.11120  21
  -3  -2   9 1.42903 1.63498   2
   2   2  -9 14.0836 10.2477  15
   2   2  -9 3.02270 2.73342   8
   2   2  -9 -1.9769 5.29501  25
   2   2  -9 3.40376 2.16255  26
  -2  -2   9 2.24872 3.48988   2
  -2  -2   9 2.67959 3.46185  21
   1   2  -9 -0.2143 5.61211  25
   1   2  -9 6.96186 8.99138  15
   1   2  -9 2.42642 3.37118  26
   1   2  -9 0.82048 2.81490   8
   1   2  -9 0.84699 2.65186  11
   1   2  -9 3.19520 4.60118   1
  -1  -2   9 5.83436 2.06591   2
  -1  -2   9 6.15690 3.10610  21
   0   2  -9 40.8663 8.48328  25
   0   2  -9 36.8180 4.98000  11
   0   2  -9 73.1384 14.4528  15
   0  -2   9 52.6235 5.63079  17
   0  -2   9 40.2403 5.34639  21
  -1   2  -9 9.15253 8.76011  15
  -1   2  -9 8.15348 7.45603  25
   1  -2   9 13.7375 2.82281   2
   1  -2   9 10.3492 2.92229  17
   1  -2   9 12.9831 2.81553  27
  -2   2  -9 19.5273 6.08429   8
  -2   2  -9 11.1915 3.90920  11
   2  -2   9 14.9759 2.29853   2
   2  -2   9 15.5474 3.32334  21
   2  -2   9 16.4778 2.64117  17
  -3   2  -9 0.54731 4.99306   7
   3  -2   9 -0.7631 1.70087  17
   3  -2   9 -0.3279 2.61076  21
   3  -2   9 0.91290 1.48085   2
   5   1  -9 -0.3193 0.97914  26
   5   1  -9 -1.8515 2.31280   2
  -5  -1   9 1.64281 1.70023   2
   4   1  -9 -2.2502 1.53405  26
   4   1  -9 2.23416 2.42650   2
   4   1  -9 3.44416 3.01716   8
  -4  -1   9 0.76984 1.91431   2
   3   1  -9 3.58199 6.20785  25
   3   1  -9 2.51593 3.02853   2
   3   1  -9 3.78688 1.86519  26
   3   1  -9 2.02385 2.74564   8
  -3  -1   9 6.93381 4.06632  21
  -3  -1   9 -1.8461 1.92857   2
   2   1  -9 11.0717 3.28058   8
   2   1  -9 8.34136 7.67142  15
   2   1  -9 7.95593 5.19594  25
   2   1  -9 13.0676 3.31243   2
  -2  -1   9 10.4226 2.38068   2
  -2  -1   9 9.24171 3.44360  21
   1   1  -9 23.1732 3.99111  11
   1   1  -9 23.2471 3.92391   8
   1   1  -9 13.7015 3.58432   2
   1   1  -9 14.0216 7.41906  15
   1   1  -9 12.1764 6.48325   1
   1   1  -9 23.5458 6.97170  25
   1   1  -9 15.9003 2.89491  26
  -1  -1   9 15.5614 3.70124  21
  -1  -1   9 16.4107 5.93134  17
  -1  -1   9 15.9858 2.62523   2
   0   1  -9 -4.0647 5.66051   1
   0   1  -9 -1.7422 6.39257  15
   0   1  -9 8.55871 5.69567  25
   0   1  -9 4.32327 3.35380  11
   0   1  -9 8.57103 3.87887   2
   0   1  -9 5.76171 2.99743   8
   0  -1   9 7.06597 2.82561  21
   0  -1   9 9.68156 2.40607   2
  -1   1  -9 3.11523 6.32759  25
  -1   1  -9 -1.2458 8.79208   1
  -1   1  -9 5.58609 6.98585  15
  -1   1  -9 -1.0294 3.29807   8
  -1   1  -9 0.99495 3.58205  11
  -1   1  -9 8.56650 4.19605   2
   1  -1   9 3.16796 2.79267  17
   1  -1   9 6.12040 2.00671   2
   1  -1   9 1.56634 2.40370  21
  -2   1  -9 16.1508 7.42649  25
  -2   1  -9 16.5580 4.26296   8
  -2   1  -9 8.62091 8.93293  15
  -2   1  -9 4.56953 4.14167   2
   2  -1   9 10.0124 3.16018  17
   2  -1   9 8.37713 7.32800  14
   2  -1   9 14.3633 2.36739   2
   2  -1   9 16.5808 3.46368  21
  -3   1  -9 -1.5047 4.19052   2
  -3   1  -9 11.3216 5.54003   8
   3  -1   9 9.89928 2.06665   2
   3  -1   9 10.1292 3.16284  21
  -4   1  -9 2.97148 3.94715   2
   4  -1   9 1.20448 1.50707  17
   4  -1   9 1.74978 1.22065   2
   5   0  -9 5.09041 1.92438   2
   5   0  -9 2.57677 2.06432  16
   5   0  -9 2.04727 1.32214  26
  -5   0   9 4.71785 1.77198   2
   4   0  -9 17.1281 2.45490  26
   4   0  -9 18.1901 2.39858  16
   4   0  -9 16.9882 2.52058   2
  -4   0   9 21.4842 5.08878  21
  -4   0   9 17.5885 2.74266   2
   3   0  -9 21.9263 8.47587  25
   3   0  -9 16.9645 3.60640   8
   3   0  -9 21.0461 2.79865   2
  -3   0   9 14.1230 4.24979  21
  -3   0   9 21.5624 3.16828   2
   2   0  -9 13.0235 2.59965   2
   2   0  -9 9.70848 3.32656   8
   2   0  -9 8.06499 2.16693  26
   2   0  -9 4.75379 5.65879  25
   2   0  -9 3.45985 7.41880  15
  -2   0   9 12.4422 2.85392   2
  -2   0   9 7.85550 3.28679  21
   1   0  -9 -2.8513 8.44562  15
   1   0  -9 0.94337 5.02207  25
   1   0  -9 -0.8525 2.15481  26
   1   0  -9 3.52574 2.66166   2
   1   0  -9 -1.1308 2.80043   8
  -1   0   9 3.88559 3.05957  21
  -1   0   9 1.90957 2.34539   2
   0   0  -9 9.43279 2.85725  26
   0   0  -9 7.73418 2.83953   2
   0   0  -9 2.17211 3.07146   8
   0   0  -9 11.1173 5.15956  25
   0   0  -9 -2.3907 5.94950  15
   0   0   9 8.27620 3.12893  17
   0   0   9 8.75653 2.50432   2
   0   0   9 5.78375 3.38921  21
  -1   0  -9 51.8336 6.09366   8
  -1   0  -9 33.1782 4.63447  26
  -1   0  -9 46.4071 4.78341   2
   1   0   9 30.6786 9.70248  14
   1   0   9 44.5251 4.66848   2
   1   0   9 47.9081 5.23329  17
   1   0   9 37.1003 5.26882  21
  -2   0  -9 11.5534 4.11008   8
  -2   0  -9 15.4868 4.30953  26
  -2   0  -9 11.7124 7.68143  15
   2   0   9 14.6312 2.86345  17
   2   0   9 12.4824 6.13403  14
   2   0   9 7.87137 2.80206  21
  -3   0  -9 6.94728 3.39294   2
  -3   0  -9 0.38763 4.04356   8
  -3   0  -9 -14.694 11.6436  15
   3   0   9 4.81182 3.41669  17
   3   0   9 0.98366 3.32903   2
   3   0   9 6.64064 2.81774  21
   3   0   9 -0.8779 7.92460  14
  -4   0  -9 5.55640 5.82716   8
  -4   0  -9 3.48202 2.70258   2
   4   0   9 2.63271 2.92352  21
   4   0   9 0.90487 1.71846  17
  -5   0  -9 0.84545 2.72946   2
   5   0   9 1.44865 1.41437   2
   5   0   9 0.38535 1.60111  17
   4  -1  -9 3.31543 1.62643  26
   4  -1  -9 2.28425 1.40118   2
   4  -1  -9 3.35943 1.62874  16
  -4   1   9 3.95744 2.39218   2
  -4   1   9 -4.2340 3.99077  21
   3  -1  -9 27.1737 3.30542  16
   3  -1  -9 50.4317 19.0962  25
   3  -1  -9 33.2285 3.48154  26
  -3   1   9 28.2865 4.96492  21
  -3   1   9 31.3710 3.76940   2
   2  -1  -9 9.70535 2.55097  16
   2  -1  -9 10.6270 2.21144   2
   2  -1  -9 16.7035 3.68942   8
  -2   1   9 13.8902 3.29496   2
  -2   1   9 9.16549 3.72895  21
   1  -1  -9 9.83966 6.90329  15
   1  -1  -9 13.6133 2.55173  26
   1  -1  -9 15.0128 3.60185   8
   1  -1  -9 8.63836 5.03669  25
  -1   1   9 9.24940 3.72603  21
  -1   1   9 9.70573 3.19908   2
   0  -1  -9 21.7907 6.45083  25
   0  -1  -9 27.6375 3.72090  26
   0  -1  -9 43.1324 10.2527  15
   0  -1  -9 43.1072 7.38369   8
   0  -1  -9 31.6179 3.69261   2
   0   1   9 34.9512 4.28191   2
   0   1   9 39.9879 9.25742  14
   0   1   9 35.3757 8.58342  21
  -1  -1  -9 41.5705 7.41417  25
  -1  -1  -9 27.2710 10.9939  15
  -1  -1  -9 32.3599 3.81310  26
  -1  -1  -9 28.8811 3.78436   2
   1   1   9 35.3568 4.43911  17
   1   1   9 38.7481 4.36061   2
   1   1   9 42.0805 8.74125  14
  -2  -1  -9 -1.3643 8.75419  15
  -2  -1  -9 4.66200 2.46567   2
  -2  -1  -9 -2.1825 5.31708  25
  -2  -1  -9 2.04971 3.31175   8
   2   1   9 -4.7980 5.78299  14
   2   1   9 4.82283 2.58736  21
   2   1   9 8.48735 5.07782  11
   2   1   9 2.97223 2.05534  17
   2   1   9 7.48354 2.92932   2
  -3  -1  -9 5.76344 3.97747  26
  -3  -1  -9 -1.2958 3.27895   8
  -3  -1  -9 3.58464 2.54857   2
   3   1   9 -1.0957 2.45230  21
   3   1   9 2.65385 1.93552  17
   3   1   9 2.01436 6.38699  14
  -4  -1  -9 0.05237 2.46713   2
  -4  -1  -9 0.69911 3.91861   8
   4   1   9 2.61391 1.82781  17
   4   1   9 1.93710 3.24066  21
   4   1   9 1.20760 2.25381   2
  -5  -1  -9 0.02137 2.26930   2
   5   1   9 0.04730 1.66562  17
   5   1   9 -1.1158 2.01541   2
   4  -2  -9 10.4085 1.69268  26
   4  -2  -9 8.55637 1.65405   2
  -4   2   9 11.1250 3.69824  21
   3  -2  -9 1.64625 1.70215  16
   3  -2  -9 -0.5410 1.79327  26
   3  -2  -9 -0.2147 1.35883   2
  -3   2   9 0.93043 5.36327  11
  -3   2   9 2.58756 3.86731   2
  -3   2   9 0.42781 3.50621  21
   2  -2  -9 53.7681 10.2193  25
   2  -2  -9 29.7391 3.32245   2
  -2   2   9 27.0765 5.79953   2
  -2   2   9 32.3609 5.11201  21
  -2   2   9 36.6864 9.32699   1
   1  -2  -9 250.629 20.8325  26
   1  -2  -9 310.735 22.1825   8
   1  -2  -9 272.783 20.6788  16
  -1   2   9 243.394 21.1801  11
  -1   2   9 297.506 21.2285   2
  -1   2   9 268.827 22.3435  21
   0  -2  -9 92.7072 10.5983   8
   0  -2  -9 100.916 8.48175   2
   0  -2  -9 92.3746 8.42798  26
   0   2   9 119.405 11.4911  21
   0   2   9 82.5344 13.1996  14
   0   2   9 115.114 12.7917  24
   0   2   9 111.695 10.5382  11
   0   2   9 90.7468 8.89395   2
  -1  -2  -9 5.89288 2.12272   2
  -1  -2  -9 5.24744 4.10305  25
  -1  -2  -9 8.77317 6.63954  15
  -1  -2  -9 10.9698 2.55394  26
   1   2   9 16.0887 4.45282   2
   1   2   9 1.09439 4.27214   1
   1   2   9 13.6123 6.27278  14
  -2  -2  -9 33.7861 3.60692  26
  -2  -2  -9 28.3277 3.61426   2
  -2  -2  -9 35.8542 7.27066  25
   2   2   9 25.2835 4.60168  21
   2   2   9 27.7889 4.41005  11
   2   2   9 46.7418 11.0681  14
   2   2   9 29.7531 3.96274  17
   2   2   9 24.5135 6.03544   1
  -3  -2  -9 127.028 10.2468  26
  -3  -2  -9 120.254 10.4695   2
   3   2   9 134.121 10.9527  21
   3   2   9 123.601 10.7354  11
   3   2   9 124.215 12.0454   1
  -4  -2  -9 2.63764 3.55568   8
  -4  -2  -9 5.49324 2.32975   2
   4   2   9 9.51207 3.95568  21
   4   2   9 3.84139 3.65742   2
   4   2   9 1.46417 1.93483  17
   4   2   9 3.24122 6.58716  14
   4   2   9 5.04626 4.51489  11
  -5  -2  -9 7.16816 2.39843   2
   5   2   9 15.4848 4.34238   9
   5   2   9 9.37743 2.11077  17
   5   2   9 9.88494 3.04976   2
  -6  -2  -9 1.76514 1.63398   2
   6   2   9 4.51672 1.60624  17
   6   2   9 2.61751 3.38483   2
   4  -3  -9 3.04272 1.10712   2
   4  -3  -9 0.98868 1.18678  16
   4  -3  -9 1.63746 2.96570  26
  -4   3   9 1.37010 3.43522  21
  -3   3   9 -1.5223 3.36439  21
  -3   3   9 5.17098 3.63042  11
   2  -3  -9 7.39852 2.19792  26
   2  -3  -9 7.52667 2.08125  16
  -2   3   9 11.3521 3.53962  11
  -2   3   9 18.1033 6.71279   1
  -2   3   9 11.4030 3.92269  21
   1  -3  -9 22.1763 2.93575   2
   1  -3  -9 19.4140 2.90203  26
   1  -3  -9 15.7604 7.56136  25
  -1   3   9 18.2981 4.17635  21
  -1   3   9 19.3218 3.91897  11
  -1   3   9 36.6934 9.69328  24
  -1   3   9 23.1397 5.33840   1
   0  -3  -9 8.76365 4.89620  25
   0  -3  -9 16.8749 2.65390  16
   0   3   9 23.1282 4.14723  21
   0   3   9 18.0221 3.47584  11
   0   3   9 11.8359 6.28586  24
  -1  -3  -9 124.917 10.4266  26
  -1  -3  -9 116.220 10.5620  12
  -1  -3  -9 131.061 12.0032   8
   1   3   9 132.310 11.9385   1
   1   3   9 134.995 11.1095  11
  -2  -3  -9 10.6631 2.09218   4
  -2  -3  -9 6.99243 2.32471   2
  -2  -3  -9 9.18860 3.92880   8
  -2  -3  -9 12.2023 2.44348  26
   2   3   9 3.59627 6.73168  14
   2   3   9 7.32059 2.67147  11
   2   3   9 4.05294 3.54640   1
   2   3   9 4.42327 2.86143  21
  -3  -3  -9 5.35516 3.27556   8
  -3  -3  -9 2.15852 2.10976   2
   3   3   9 5.60851 2.38525  17
   3   3   9 1.69119 3.75585   1
   3   3   9 7.84545 6.75976  14
   3   3   9 -1.3123 2.44644  11
   3   3   9 -0.8189 3.13874  21
  -4  -3  -9 2.98822 3.73296   8
  -4  -3  -9 0.14706 2.25848   2
   4   3   9 -3.1205 2.66906  11
   4   3   9 1.06291 1.75323  17
   4   3   9 -1.5907 4.46862   1
   4   3   9 -2.7511 7.69511  14
  -5  -3  -9 11.9753 2.42750   2
   5   3   9 16.2255 2.88176   9
   5   3   9 8.82389 2.29765  17
  -6  -3  -9 2.55063 1.77225   2
   6   3   9 6.04358 1.91158  17
   3  -4  -9 2.17883 3.08079  26
   3  -4  -9 0.65998 1.10456   2
   3  -4  -9 1.68163 1.30247  16
  -3   4   9 0.54584 2.96806  11
  -3   4   9 1.09671 2.76486  21
   2  -4  -9 0.24574 1.24185   2
   2  -4  -9 2.97563 1.50654  16
   2  -4  -9 -0.0351 2.08757  26
  -2   4   9 -0.5485 2.59361  11
  -2   4   9 1.53560 4.94818   1
  -2   4   9 0.36221 2.55551  21
   1  -4  -9 1.32762 1.73539  16
   1  -4  -9 0.27076 1.36325   2
   1  -4  -9 0.39353 1.90298  26
  -1   4   9 1.26968 3.33917  21
  -1   4   9 1.69406 3.75977   1
  -1   4   9 3.96746 7.33949  24
  -1   4   9 2.84465 2.73963  11
   0  -4  -9 8.53876 1.87968   2
   0  -4  -9 9.96768 2.22306  26
   0  -4  -9 4.41306 5.13415   8
   0  -4  -9 5.67898 2.66093  12
   0   4   9 1.36237 6.26604  24
   0   4   9 3.49354 3.49150   1
   0   4   9 9.19452 2.99428  11
   0   4   9 4.93917 3.16616  21
  -1  -4  -9 13.9992 2.29123   4
  -1  -4  -9 21.4905 4.42855   8
  -1  -4  -9 13.8941 2.53223  26
  -1  -4  -9 16.7604 2.41689   2
   1   4   9 12.4039 4.69472   1
   1   4   9 13.8746 3.29772  11
   1   4   9 12.2920 3.79887  21
  -2  -4  -9 1.47694 2.00794   2
  -2  -4  -9 4.59770 3.94862   8
  -2  -4  -9 3.03821 2.04059  26
  -2  -4  -9 4.21528 1.93904   4
   2   4   9 2.06554 3.48485   1
   2   4   9 1.88532 2.04356  11
   2   4   9 -0.0784 8.65520  14
   2   4   9 1.99067 3.18534  21
  -3  -4  -9 4.01328 2.67232  26
  -3  -4  -9 3.01694 2.25890   2
  -3  -4  -9 3.60080 1.81196   4
  -3  -4  -9 11.3970 6.67251  12
  -3  -4  -9 1.13171 3.38180   8
   3   4   9 3.41467 5.23813  21
   3   4   9 0.26460 2.61336  17
   3   4   9 4.92644 8.24720  14
   3   4   9 -3.5649 3.33482   1
   3   4   9 -0.2897 2.17021  11
  -4  -4  -9 13.0476 2.50213   2
  -4  -4  -9 24.0749 4.50508   8
   4   4   9 15.5615 5.66118   1
   4   4   9 8.58491 3.01025  11
   4   4   9 15.0925 2.48811  17
  -5  -4  -9 6.74139 1.94438   2
   5   4   9 4.89527 2.61744  11
   5   4   9 2.57038 4.69591   1
   5   4   9 1.66727 2.09650  17
  -6  -4  -9 1.06454 1.75712   2
   6   4   9 -0.7468 2.51226   9
   2  -5  -9 15.4153 2.39586  12
   2  -5  -9 14.7226 2.03911  16
  -2   5   9 14.4290 3.02073  11
  -2   5   9 12.9679 6.14967   1
   1  -5  -9 12.0768 2.05124  26
   1  -5  -9 7.35657 1.62483   2
  -1   5   9 7.89030 3.88174   1
  -1   5   9 10.3418 3.22990  21
  -1   5   9 10.6129 3.11934  11
   0  -5  -9 13.6213 2.47515  26
   0  -5  -9 19.8439 2.82521  12
   0  -5  -9 11.2101 2.16530   4
   0   5   9 17.4075 3.25481  11
   0   5   9 16.8374 3.67449  21
   0   5   9 17.6351 5.06715   1
  -1  -5  -9 0.94699 1.97185  26
  -1  -5  -9 1.96276 1.81140   2
  -1  -5  -9 0.55066 2.19940  12
  -1  -5  -9 -1.0708 5.79209   8
  -1  -5  -9 3.94657 1.64629   4
   1   5   9 7.37080 4.16249   1
   1   5   9 1.24644 3.14379  21
   1   5   9 -2.0079 6.00671  24
   1   5   9 7.86529 2.99208  11
  -2  -5  -9 -1.1396 2.00477   2
  -2  -5  -9 1.27645 2.10897  26
  -2  -5  -9 -2.6475 3.93700   8
  -2  -5  -9 -0.0671 1.60762   4
  -2  -5  -9 -1.0590 2.33097  12
   2   5   9 -2.0167 3.74291  21
   2   5   9 0.81116 2.19756  11
   2   5   9 0.64429 3.26116   1
  -3  -5  -9 1.98160 1.23689   4
  -3  -5  -9 1.56473 1.95857   2
  -3  -5  -9 3.69857 3.48400   8
  -3  -5  -9 2.90940 1.96985  26
  -3  -5  -9 2.34797 2.62847  12
   3   5   9 3.86731 2.04392  11
   3   5   9 1.14259 3.28897   1
  -4  -5  -9 -1.8276 1.94187   2
  -4  -5  -9 0.81407 1.17755   4
   4   5   9 1.81959 2.21085  17
   4   5   9 2.35818 2.39862  11
   4   5   9 -3.0182 3.55065   1
  -5  -5  -9 19.7565 2.55924   2
   5   5   9 21.1997 3.29703  17
   5   5   9 22.5642 4.79431   1
   5   5   9 26.0453 3.61222  11
   1  -6  -9 0.40473 1.52640  12
  -1   6   9 4.14239 2.30673  11
  -1   6   9 -0.0525 2.58731  21
   0  -6  -9 19.4877 2.21988   4
   0  -6  -9 22.9858 3.50583  26
   0  -6  -9 19.8969 2.91647  12
   0   6   9 28.2032 3.80243  11
   0   6   9 31.4603 5.25796   1
  -1  -6  -9 5.90145 1.74930  12
  -1  -6  -9 3.25937 1.39498   4
   1   6   9 5.32080 5.18749  21
   1   6   9 7.08827 3.74255   1
   1   6   9 5.95107 2.68091  11
  -2  -6  -9 3.82668 1.80868  26
  -2  -6  -9 7.87084 1.47068   4
  -2  -6  -9 7.80189 1.97527  12
   2   6   9 13.3872 4.64255   1
  -3  -6  -9 1.44089 1.98914  12
  -3  -6  -9 0.92982 1.15340   4
   3   6   9 -1.2898 2.25244  11
   3   6   9 -4.1397 3.65649   1
  -4  -6  -9 1.85421 1.07851   4
  -4  -6  -9 4.39161 2.40899  12
   4   6   9 4.20935 2.62751  17
   4   6   9 0.67065 2.33396  11
   4   6   9 3.50930 3.64633   1
   5   6   9 5.61208 2.12561  11
  -1  -7  -9 7.22497 1.47500  12
   1   7   9 7.01610 2.87041  11
  -2  -7  -9 2.89528 1.20196   4
  -2  -7  -9 2.02806 1.46453  12
   2   7   9 1.96275 2.45126  11
  -3  -7  -9 4.32635 1.26800   4
   3   7   9 2.90703 2.48120  11
   3   7   9 5.35055 2.40976  17
   3   3 -10 1.39614 2.10436   8
  -3  -3  10 4.36518 1.26461   2
   2   3 -10 6.72621 2.52335   8
  -2  -3  10 11.3287 1.61892   2
   1   3 -10 -1.8031 2.96994   8
   1   3 -10 6.02262 3.07994  11
  -1  -3  10 3.96332 1.71269  27
  -1  -3  10 2.64567 1.40902   2
  -1  -3  10 -0.3845 3.37920  21
   0   3 -10 12.0288 4.01275   8
   0   3 -10 9.99046 3.56874  11
   0  -3  10 7.09348 3.00902  21
   0  -3  10 8.43866 1.53677   2
   1  -3  10 13.7195 1.63907   2
   1  -3  10 8.38094 2.58562  21
   3   2 -10 -0.3815 1.52045  26
   3   2 -10 4.62464 2.79920   8
  -3  -2  10 -0.4942 1.34273   2
   2   2 -10 44.1876 4.13497  26
   2   2 -10 48.3467 5.52277   8
  -2  -2  10 47.6276 5.85956  21
  -2  -2  10 44.8514 4.44414   2
   1   2 -10 13.9414 3.44514   8
  -1  -2  10 17.0793 2.36250   2
  -1  -2  10 14.1236 3.33657  21
   0   2 -10 0.40039 2.95832   8
   0  -2  10 3.26497 2.02967  27
   0  -2  10 -0.9576 2.30987  21
   0  -2  10 3.69420 1.66156   2
  -1   2 -10 3.85126 5.53362   8
   1  -2  10 4.10622 3.34332  17
   1  -2  10 3.87127 1.46487   2
   1  -2  10 4.47834 2.72307  21
   2  -2  10 7.29212 1.47404   2
   2  -2  10 3.33043 3.05052  21
   2  -2  10 5.75353 2.26382  17
   4   1 -10 4.50250 3.26943   8
   4   1 -10 4.03345 2.51652   2
  -4  -1  10 5.36539 1.57682   2
   3   1 -10 19.8438 3.03142   2
   3   1 -10 19.7432 2.41503  26
   3   1 -10 20.2780 3.63392   8
  -3  -1  10 19.3646 2.70338   2
  -3  -1  10 23.7473 4.76644  21
   2   1 -10 9.21696 2.95013   8
   2   1 -10 4.81709 1.70641  26
   2   1 -10 0.21759 2.85366   2
   2   1 -10 10.6738 6.23994  25
  -2  -1  10 7.06562 3.27719  21
  -2  -1  10 2.17248 1.50307   2
   1   1 -10 -4.1319 6.51980  25
   1   1 -10 -2.2630 2.16607  26
   1   1 -10 1.23903 3.33202   2
   1   1 -10 0.16951 2.47817   8
  -1  -1  10 0.71982 1.82563   2
  -1  -1  10 2.38121 2.74133  21
   0   1 -10 3.59637 3.33665   2
   0   1 -10 -1.4537 10.4837  15
   0   1 -10 5.62992 3.16173   8
   0   1 -10 1.40046 6.91586  25
   0   1 -10 1.76197 3.10908  26
   0  -1  10 2.47618 2.57020  21
   0  -1  10 0.39133 4.82275  17
   0  -1  10 3.55874 1.71138   2
  -1   1 -10 -0.2860 3.57571   2
  -1   1 -10 1.33118 3.68064   8
  -1   1 -10 8.44876 7.39357  25
   1  -1  10 1.08540 2.40273  21
   1  -1  10 0.80494 1.60162   2
   1  -1  10 1.80841 2.48037  17
   1  -1  10 4.75291 4.33206  27
  -2   1 -10 7.76929 3.90281   2
  -2   1 -10 3.01800 4.11494   8
   2  -1  10 12.0615 1.99736   2
   2  -1  10 6.46473 2.77301  21
   2  -1  10 7.62951 2.24528  17
  -3   1 -10 7.06998 3.81821   2
   3  -1  10 8.75678 2.04710  17
   3  -1  10 8.62614 2.83656  21
   3  -1  10 5.83878 1.66322   2
   4   0 -10 -1.2786 1.56965   2
   4   0 -10 1.66561 1.10684  26
  -4   0  10 -1.4478 1.65923   2
   3   0 -10 -1.0674 1.14465  26
   3   0 -10 3.23623 3.10547   8
   3   0 -10 1.02730 1.77757   2
  -3   0  10 -2.2994 4.51028  21
  -3   0  10 0.37636 1.95860   2
   2   0 -10 4.99593 2.19915   2
   2   0 -10 6.01747 1.72343  26
   2   0 -10 3.29109 2.97861   8
   2   0 -10 4.16339 7.41630  25
  -2   0  10 4.04283 3.27217  21
  -2   0  10 1.37201 2.06936   2
   1   0 -10 21.5412 3.04510   2
   1   0 -10 33.3032 8.06737  25
   1   0 -10 15.2550 2.70497  26
   1   0 -10 20.4704 3.97091   8
   1   0 -10 51.8449 15.5829  15
  -1   0  10 12.6354 3.50492  21
  -1   0  10 21.0406 2.97024   2
   0   0 -10 2.65535 2.64080   2
   0   0 -10 -8.2917 8.82547  15
   0   0 -10 9.48010 2.93530  26
   0   0 -10 4.67261 3.14586   8
   0   0 -10 -0.4289 5.55026  25
   0   0  10 8.90194 3.12702  21
   0   0  10 9.64837 2.72357  17
   0   0  10 3.90535 4.10533   2
  -1   0 -10 4.81086 2.90612   2
  -1   0 -10 -8.2010 9.15168  15
  -1   0 -10 1.87344 2.97200  26
  -1   0 -10 4.46466 3.96255   8
  -1   0 -10 -5.2164 5.74757  25
   1   0  10 7.66478 2.48976  17
   1   0  10 2.83547 2.18724   2
   1   0  10 2.18634 2.63890  21
  -2   0 -10 -2.8245 2.59690   2
  -2   0 -10 -1.0567 3.67052   8
  -2   0 -10 4.72059 6.50971  25
   2   0  10 0.44611 2.54450  21
   2   0  10 2.81277 1.87541   2
   2   0  10 1.77860 1.97303  17
  -3   0 -10 2.76647 4.29451   8
  -3   0 -10 -2.4141 2.71365   2
   3   0  10 0.14806 1.56499   2
   3   0  10 0.35706 1.71728  17
   3   0  10 4.27562 2.62692  21
  -4   0 -10 3.17133 2.81584   2
   4   0  10 -0.0545 1.63091  17
   4   0  10 9.15919 3.37794  21
   4   0  10 1.88741 1.46185   2
   4  -1 -10 10.0408 1.77526   2
   4  -1 -10 11.5162 1.77016  16
   4  -1 -10 10.5452 1.54696  26
  -4   1  10 10.0302 2.17075   2
   3  -1 -10 4.00837 1.91589  16
   3  -1 -10 4.79294 4.65543   8
   3  -1 -10 1.38266 1.28768   2
   3  -1 -10 3.58232 1.58902  26
  -3   1  10 1.84917 3.54822  21
  -3   1  10 -0.8104 2.02473   2
   2  -1 -10 15.9627 3.76444   8
   2  -1 -10 16.2864 2.31846  26
   2  -1 -10 10.5136 2.21692   2
   2  -1 -10 15.9596 2.54189  16
  -2   1  10 15.7357 3.57947  21
  -2   1  10 15.3440 2.81663   2
   1  -1 -10 53.7185 5.41775  26
   1  -1 -10 50.6184 5.40229   2
   1  -1 -10 55.7906 15.8122  15
   1  -1 -10 50.7386 9.53761  25
   1  -1 -10 59.2950 6.30169   8
  -1   1  10 45.0178 6.00736  21
  -1   1  10 49.6491 5.20174  17
   0  -1 -10 -0.9261 3.03812   8
   0  -1 -10 6.71256 2.38434  26
   0  -1 -10 0.49511 8.82111  15
   0  -1 -10 2.81719 5.19273  25
   0  -1 -10 1.26301 2.25978   2
   0   1  10 1.55861 4.73314   2
   0   1  10 1.40897 3.03321  21
   0   1  10 7.43929 3.35814  17
  -1  -1 -10 6.48584 5.75986  25
  -1  -1 -10 -2.6150 7.95559  15
  -1  -1 -10 6.38670 2.54926   2
  -1  -1 -10 12.6853 3.10953  26
  -1  -1 -10 4.03993 3.62047   8
   1   1  10 -2.4370 8.29746  14
   1   1  10 10.2960 3.24017  21
   1   1  10 9.32913 2.82882  17
  -2  -1 -10 7.06608 5.78567  25
  -2  -1 -10 -2.9890 12.6224  15
  -2  -1 -10 10.5377 3.91940   8
  -2  -1 -10 9.70928 2.86977  26
  -2  -1 -10 4.25780 2.33285   2
   2   1  10 1.73283 2.54161  21
   2   1  10 6.44489 2.45299  17
   2   1  10 13.7272 8.12381  14
   2   1  10 6.37510 2.46752   2
  -3  -1 -10 4.90493 3.27233   8
  -3  -1 -10 5.63091 2.27315   2
   3   1  10 4.10464 2.11692   2
   3   1  10 6.72330 1.86365  17
   3   1  10 6.49844 2.68708  21
  -4  -1 -10 3.38666 4.23141   8
  -4  -1 -10 -1.7714 1.97859   2
   4   1  10 4.76329 3.71311  21
   4   1  10 -2.6056 2.03645   2
   4   1  10 0.01376 1.55064  17
   3  -2 -10 82.0753 5.97740  16
   3  -2 -10 66.3557 5.99556  26
  -3   2  10 67.2054 7.58291  21
   2  -2 -10 45.0467 5.78473   8
   2  -2 -10 37.0455 3.60421  16
   2  -2 -10 33.7305 3.61436   2
  -2   2  10 40.3162 5.41989  21
   1  -2 -10 4.14333 3.54954   8
   1  -2 -10 7.20203 1.90247   2
   1  -2 -10 7.56530 6.27860  25
   1  -2 -10 5.32356 2.03966  26
  -1   2  10 8.89708 3.44604  21
   0  -2 -10 11.6487 5.75149  25
   0  -2 -10 12.4241 4.17406  12
   0  -2 -10 11.6629 2.34097   2
   0  -2 -10 12.8458 2.48976  26
   0  -2 -10 4.27459 9.23116  15
   0  -2 -10 10.8439 3.47280   8
   0   2  10 5.99561 3.70635   2
   0   2  10 10.0141 3.52352  21
   0   2  10 6.12613 3.32826  11
  -1  -2 -10 90.8095 11.6722  25
  -1  -2 -10 98.5169 8.40841   2
  -1  -2 -10 108.653 8.57669  26
  -1  -2 -10 112.116 18.8978  15
   1   2  10 102.454 9.47105  21
   1   2  10 94.7782 9.00800  17
   1   2  10 90.9855 8.95758   2
   1   2  10 93.5982 14.5122  14
  -2  -2 -10 16.0517 3.93014   8
  -2  -2 -10 8.28581 2.97893  26
   2   2  10 8.11316 3.55536   2
   2   2  10 8.80664 3.09146  21
   2   2  10 6.50289 8.78983  14
  -3  -2 -10 4.34607 3.36187   8
  -3  -2 -10 1.07917 2.47195  26
  -3  -2 -10 1.68770 1.96380   2
   3   2  10 0.05072 1.45393  17
   3   2  10 7.54419 2.85776  21
   3   2  10 3.29979 3.51546   2
  -4  -2 -10 3.13699 1.93327   2
  -4  -2 -10 6.63370 3.93352   8
   4   2  10 4.92064 1.84293  17
   4   2  10 9.19591 3.24275   2
  -5  -2 -10 5.48428 2.15536   2
   5   2  10 1.17109 2.86321   2
   5   2  10 3.78414 1.65028  17
   3  -3 -10 3.53929 1.37270  26
   3  -3 -10 3.84883 1.22455  16
   3  -3 -10 3.47653 1.14035   2
  -3   3  10 5.08703 2.65762  21
   2  -3 -10 2.35914 1.16143   2
   2  -3 -10 4.81453 1.64362  26
   2  -3 -10 4.92738 1.49386  16
  -2   3  10 1.23890 2.47812  21
   1  -3 -10 43.7602 4.44072  26
   1  -3 -10 54.1256 4.48952   2
   1  -3 -10 36.4802 6.18482   8
  -1   3  10 39.0862 12.8754   1
  -1   3  10 39.7090 4.93670  11
  -1   3  10 49.3539 5.76717  21
   0  -3 -10 15.3469 2.33311   2
   0  -3 -10 20.9211 8.21103  25
   0  -3 -10 9.15006 3.04807  12
   0  -3 -10 6.59499 3.62045   8
   0  -3 -10 11.2348 2.44632  26
   0   3  10 18.3565 3.62506  21
   0   3  10 6.75578 5.16223   1
   0   3  10 11.9976 3.22776  11
  -1  -3 -10 4.34478 3.43661   8
  -1  -3 -10 1.73541 3.79080  12
   1   3  10 6.04760 5.25052   1
   1   3  10 0.46351 2.70880  11
   1   3  10 0.80803 2.53597  21
  -2  -3 -10 1.74163 3.04945   8
  -2  -3 -10 1.87693 2.09956   2
  -2  -3 -10 4.20770 2.23948  26
   2   3  10 -0.7561 2.64381  11
   2   3  10 1.90818 2.00277  17
   2   3  10 6.20767 10.0048  14
   2   3  10 -2.1287 5.03477   1
   2   3  10 1.95740 2.64757  21
  -3  -3 -10 -0.2992 2.79752   8
  -3  -3 -10 2.09205 1.78358   2
  -3  -3 -10 0.34503 2.02099  26
   3   3  10 0.57328 1.48482  17
   3   3  10 0.36590 3.24964  21
   3   3  10 -0.0692 2.99926  11
   3   3  10 -3.0381 6.07635   1
  -4  -3 -10 -2.1228 3.57831   8
  -4  -3 -10 4.56000 2.04062   2
   4   3  10 2.43993 4.23888  11
   4   3  10 2.52417 1.53068  17
  -5  -3 -10 4.17308 1.73805   2
   5   3  10 4.72738 1.76988  17
   2  -4 -10 1.19035 1.21345   2
   2  -4 -10 2.44074 1.62944  26
   2  -4 -10 3.73337 1.96480  12
  -2   4  10 5.41509 2.46447  21
  -2   4  10 1.14827 3.05667  11
   1  -4 -10 12.8315 2.34949  12
   1  -4 -10 11.6114 1.94298  26
  -1   4  10 20.4030 6.33823   1
  -1   4  10 5.47202 2.79671  11
   0  -4 -10 -1.9268 5.61100   8
   0  -4 -10 1.65687 1.43493   2
   0  -4 -10 1.83759 1.78056  26
   0  -4 -10 5.16140 2.51482  12
   0   4  10 9.62179 4.62866   1
   0   4  10 2.36428 2.85992  21
   0   4  10 4.31175 2.60262  11
  -1  -4 -10 7.42672 1.94835   2
  -1  -4 -10 6.28027 2.12973  26
  -1  -4 -10 6.35093 2.07143   4
  -1  -4 -10 6.94467 3.79712   8
   1   4  10 1.41923 2.69225  21
   1   4  10 7.79865 2.83059  11
   1   4  10 9.76033 6.22479   1
  -2  -4 -10 4.59653 1.79380   2
  -2  -4 -10 8.67766 3.45313  12
  -2  -4 -10 3.56185 3.24430   8
  -2  -4 -10 5.70367 2.02133  26
   2   4  10 0.97348 2.10598  11
   2   4  10 5.15602 2.98100  21
   2   4  10 10.3586 4.97776   1
  -3  -4 -10 1.98841 1.73479   2
  -3  -4 -10 4.41438 3.86738   8
  -3  -4 -10 0.57025 1.69729  26
   3   4  10 9.73133 4.56259   1
   3   4  10 0.64185 2.49810  11
   3   4  10 1.61084 1.48632  17
  -4  -4 -10 4.08216 3.57776   8
  -4  -4 -10 3.86762 1.71420   2
   4   4  10 3.98922 3.04985  11
   4   4  10 4.44589 1.75932  17
  -5  -4 -10 5.18402 1.68281   2
   5   4  10 4.72440 1.81287  17
   1  -5 -10 4.37032 1.66128  12
   1  -5 -10 4.66274 1.92473  26
  -1   5  10 2.47235 2.50652  21
  -1   5  10 2.89830 2.44442  11
   0  -5 -10 0.36475 1.74694  26
   0  -5 -10 -1.3598 1.76667  12
   0  -5 -10 -0.6628 1.46216   2
   0   5  10 -0.5793 2.55432  11
   0   5  10 -4.9804 4.18196   1
   0   5  10 -0.3243 2.73496  21
  -1  -5 -10 -0.2271 1.77766  26
  -1  -5 -10 -0.3292 1.79302  12
  -1  -5 -10 -1.0345 1.71534   4
  -1  -5 -10 -1.1942 1.65782   2
   1   5  10 -0.5215 4.07624   1
   1   5  10 -0.4463 2.23718  11
   1   5  10 4.81163 3.47891  21
  -2  -5 -10 2.58604 2.40456  12
  -2  -5 -10 1.42853 4.19800   8
  -2  -5 -10 -2.4969 1.74288   2
  -2  -5 -10 1.17888 1.30081   4
  -2  -5 -10 -0.8026 1.61383  26
   2   5  10 0.22609 2.37316  11
   2   5  10 -0.7800 5.05164  21
   2   5  10 -3.6432 3.77079   1
  -3  -5 -10 38.9599 3.42060   2
   3   5  10 39.0897 5.76430   1
   3   5  10 27.7863 4.26174  11
   3   5  10 34.1002 3.92034  17
  -4  -5 -10 19.6201 2.44523   2
   4   5  10 23.7944 3.72411  11
   4   5  10 31.9333 6.42360   1
  -1  -6 -10 1.10559 1.54406  26
  -1  -6 -10 1.91856 1.83395   4
  -1  -6 -10 1.42664 1.72081  12
   1   6  10 -2.7375 2.30915  11
  -2  -6 -10 2.30470 1.17368   4
  -2  -6 -10 4.65893 1.64356  12
   2   6  10 2.22347 2.22805  11
   2   6  10 2.29719 4.25913   1
  -3  -6 -10 9.61965 1.52405   4
  -3  -6 -10 7.16022 2.06718  12
   3   6  10 3.41998 2.35843  11
   3   6  10 6.66556 1.95640  17
   1   2 -11 4.56054 2.56131   8
  -1  -2  11 5.50298 2.24382  27
  -1  -2  11 6.29497 3.12023  21
  -1  -2  11 3.28627 1.29913   2
   0   2 -11 7.44920 3.24818   8
   0  -2  11 4.48653 2.70048  21
   0  -2  11 9.95630 1.59489   2
   0  -2  11 7.28304 2.11578  27
   2   1 -11 3.63509 2.53128   8
   2   1 -11 0.83533 2.76057   2
   2   1 -11 2.93537 1.64230  26
  -2  -1  11 -0.7010 3.52593  21
  -2  -1  11 1.67320 1.50912   2
   1   1 -11 3.48925 3.40233   2
   1   1 -11 2.18084 2.50320  26
   1   1 -11 0.37662 2.42163   8
  -1  -1  11 -0.8771 2.73258  21
  -1  -1  11 -0.2518 1.61070   2
   0   1 -11 10.6610 3.37464   8
   0  -1  11 7.91775 1.89989   2
   0  -1  11 6.47995 2.09944  27
   0  -1  11 11.2233 3.32778  21
  -1   1 -11 12.1455 3.63268   2
   1  -1  11 1.43325 2.61713  21
   1  -1  11 6.75075 1.53249   2
  -2   1 -11 5.73684 4.93657   8
  -2   1 -11 2.65751 3.87843   2
   2  -1  11 3.18166 1.40494   2
   2  -1  11 4.40301 2.54548  21
   2  -1  11 1.53072 2.03589  17
   2   0 -11 3.41503 2.95917   8
   2   0 -11 -1.0129 1.39600  26
   2   0 -11 2.02361 1.89019   2
  -2   0  11 -0.1093 2.55199  21
  -2   0  11 -0.5196 1.68615   2
   1   0 -11 1.76024 2.14677   2
   1   0 -11 -1.1037 1.60413  26
   1   0 -11 -0.4600 2.52671   8
  -1   0  11 2.08546 1.93142   2
  -1   0  11 3.73496 2.81240  21
   0   0 -11 0.69578 2.37626   2
   0   0 -11 3.86366 2.65575   8
   0   0 -11 0.58202 1.94701  26
   0   0  11 -3.1641 2.51155  21
   0   0  11 -0.5312 1.77786   2
  -1   0 -11 4.55443 2.48631   2
  -1   0 -11 -0.4560 3.07267   8
  -1   0 -11 1.81094 4.04292  26
   1   0  11 2.69789 2.09686  17
   1   0  11 -0.9912 1.79463   2
   1   0  11 2.63620 2.72947  21
  -2   0 -11 1.48313 3.57361   8
  -2   0 -11 -0.5282 2.61435   2
   2   0  11 -1.3773 2.57582  21
   2   0  11 -0.1854 1.68436   2
   2   0  11 -1.2238 1.53945  17
  -3   0 -11 10.4546 2.76592   2
   3   0  11 11.8234 2.11280  17
   3   0  11 12.4318 2.02669   2
   3   0  11 6.24575 3.09588  21
   2  -1 -11 -2.7146 3.52164   8
   2  -1 -11 -1.0233 1.50268   2
  -2   1  11 -3.9626 2.70966  21
  -2   1  11 -1.2940 2.06095   2
   1  -1 -11 4.88534 3.08849   8
   1  -1 -11 9.98055 1.85236  26
   1  -1 -11 13.6194 2.08277   2
  -1   1  11 9.20317 2.49143   2
  -1   1  11 10.3519 3.10256  21
   0  -1 -11 10.1196 3.74581   8
   0  -1 -11 9.50897 1.97872  26
   0   1  11 9.51645 2.77288   2
   0   1  11 12.0372 3.17566  21
   0   1  11 11.7292 2.28689  17
  -1  -1 -11 10.6639 3.81085   8
  -1  -1 -11 12.9062 2.17927  26
   1   1  11 10.8713 3.13249  21
   1   1  11 14.0651 2.54402   2
  -2  -1 -11 3.60028 2.13108   2
  -2  -1 -11 -1.4631 2.77417   8
  -2  -1 -11 -1.7614 2.68082  26
   2   1  11 5.66788 2.22844   2
   2   1  11 0.12897 2.32394  21
  -3  -1 -11 -3.4190 2.06906   2
  -3  -1 -11 -1.0750 3.38597   8
   3   1  11 -0.1217 1.85857   2
   3   1  11 0.47225 1.61368  17
   3   1  11 2.97344 2.97872  21
   2  -2 -11 -0.0590 1.22461   2
   2  -2 -11 1.34287 2.33828  12
   2  -2 -11 0.47707 1.24716  26
  -2   2  11 3.30023 3.88008   2
  -2   2  11 1.31336 2.59191  21
   1  -2 -11 19.5209 4.20457   8
   1  -2 -11 18.1753 2.44155  26
   1  -2 -11 22.9207 3.32408  12
  -1   2  11 24.5793 3.70476  21
   0  -2 -11 9.42843 1.85638  26
   0  -2 -11 6.21865 1.79721   2
   0  -2 -11 11.7727 3.65956   8
   0   2  11 7.55880 3.08752  21
   0   2  11 8.28620 2.16331  17
   0   2  11 9.73362 3.75336   2
  -1  -2 -11 1.44637 1.58863   2
  -1  -2 -11 0.74517 2.92170   8
  -1  -2 -11 -0.8347 1.81568  26
   1   2  11 0.59656 1.73161  17
   1   2  11 0.28058 2.77000  21
   1   2  11 3.29360 3.54905   2
  -2  -2 -11 2.02245 2.00746  26
  -2  -2 -11 5.91295 1.96664   2
  -2  -2 -11 6.85276 3.16056   8
   2   2  11 8.84207 3.48367   2
   2   2  11 3.16184 2.57515  21
   2   2  11 3.90876 1.75457  17
  -3  -2 -11 5.16349 2.00496   2
  -3  -2 -11 10.0340 3.52843   8
   3   2  11 4.27283 3.26800  21
  -4  -2 -11 -4.4951 3.19309   8
  -4  -2 -11 2.04090 1.60982   2
   4   2  11 0.04451 1.23444  17
   4   2  11 1.42909 3.83440   2
   2  -3 -11 12.6020 1.74214  12
   2  -3 -11 9.97332 1.48010   2
  -2   3  11 6.98055 2.57076  21
   1  -3 -11 1.04296 1.12164   2
   1  -3 -11 -0.5553 1.50192  26
   1  -3 -11 2.09749 2.32887  12
  -1   3  11 3.12709 3.22214  21
   0  -3 -11 -1.1730 1.57650  26
   0  -3 -11 4.58573 3.37275  12
   0  -3 -11 0.07397 1.42107   2
   0   3  11 -2.0010 4.69871  11
   0   3  11 2.02395 2.83965  21
  -1  -3 -11 5.38105 2.02967  26
  -1  -3 -11 4.31129 1.78541   2
  -1  -3 -11 5.05778 3.39527   8
   1   3  11 1.48479 2.30400  21
  -2  -3 -11 2.40227 1.71106   2
  -2  -3 -11 -0.2243 3.13255   8
  -2  -3 -11 3.02435 1.77556  26
   2   3  11 -2.6399 4.96265  11
   2   3  11 1.59661 1.28109  17
   2   3  11 0.58294 3.29601  21
  -3  -3 -11 9.48085 2.02740   2
  -3  -3 -11 10.7145 4.61025   8
   3   3  11 18.8453 4.65028  21
  -4  -3 -11 4.16716 3.19682   8
  -4  -3 -11 -0.0870 1.58396   2
   4   3  11 1.42361 1.38227  17
   1  -4 -11 13.2684 1.74927  26
   1  -4 -11 14.6308 1.97862  12
   1  -4 -11 11.2792 1.63564   2
  -1   4  11 11.2739 2.68368  21
   0  -4 -11 2.69651 1.53778  26
   0  -4 -11 0.16595 1.29852   2
   0  -4 -11 5.63672 2.36312  12
   0   4  11 -2.1018 2.33569  21
   0   4  11 1.73777 2.76899  11
  -1  -4 -11 2.55742 4.28267   8
  -1  -4 -11 2.91102 1.44759   2
  -1  -4 -11 4.43019 1.54221  26
   1   4  11 6.23017 2.86420  21
   1   4  11 2.56377 2.69338  11
  -2  -4 -11 18.8787 3.79517   8
  -2  -4 -11 14.9317 2.15656   2
  -2  -4 -11 16.0803 2.31404  26
   2   4  11 7.82955 4.01742  21
   2   4  11 7.85965 3.34886  11
  -3  -4 -11 4.33199 3.06716   8
  -3  -4 -11 5.36710 1.76244   2
   3   4  11 8.69025 3.76512  11
   3   4  11 5.25842 1.62995  17
  -1  -5 -11 20.3852 2.57235  12
  -1  -5 -11 23.1842 2.60580  26
   1   5  11 23.8264 3.38965  11
  -2  -5 -11 21.7112 2.55392  26
   2   5  11 20.7042 2.71111  17
   3   5  11 5.63862 1.58800  17
   0  -1 -12 -1.5729 2.35587   8
   0  -1 -12 0.24976 1.57352   2
   0  -1 -12 0.76083 1.42026  26
   0   1  12 -0.7932 2.22087  21
   0   1  12 -0.1508 3.70542  17
   0   1  12 -0.1191 1.89261   2
  -1  -1 -12 1.68879 3.08928   8
  -1  -1 -12 3.66032 2.17706  26
  -1  -1 -12 0.22718 1.48907   2
   1   1  12 0.12868 1.69182   2
   1   1  12 1.08758 1.78904  17
   1   1  12 1.14685 2.18840  21
   0  -2 -12 -1.1065 3.26942   8
   0  -2 -12 1.73001 1.48161   2
   0  -2 -12 2.91215 1.45974  26
   0   2  12 1.44839 1.43200  17
   0   2  12 -0.3507 2.27796  21
  -1  -2 -12 4.52758 1.46964  26
  -1  -2 -12 7.49169 3.05367   8
  -1  -2 -12 4.07955 1.51290   2
   1   2  12 2.07975 2.33193  21
   1   2  12 4.24518 1.51911  17
   1   2  12 7.29343 3.42455   2
   0   0   0    0.00    0.00   0

 _exptl_absorpt_process_details
)
 SADABS 2016/2: Krause, L., Herbst-Irmer, R., Sheldrick G.M. & Stalke D.,
 J. Appl. Cryst. 48 (2015) 3-10
)
 _exptl_absorpt_correction_type   multi-scan
 _exptl_absorpt_correction_T_max  0.8642
 _exptl_absorpt_correction_T_min  0.6710
 _exptl_special_details
)
 The following wavelength and cell were deduced by SADABS from the
 direction cosines etc. They are given here for emergency use only:
 CELL 1.54195    7.101    7.705   10.184   79.526   85.568   69.977
)
;
_shelx_hkl_checksum              4362
_olex2_diffrn_ambient_temperature_device 'Oxford Cryosystems'
_olex2_exptl_crystal_mounting_method
'The crystal was mounted on a MITIGEN holder oil'
_olex2_submission_special_instructions 'No special instructions were received'
loop_
_space_group_symop_operation_xyz
'x, y, z'
'-x, -y, -z'
loop_
_atom_site_label
_atom_site_type_symbol
_atom_site_fract_x
_atom_site_fract_y
_atom_site_fract_z
_atom_site_U_iso_or_equiv
_atom_site_adp_type
_atom_site_occupancy
_atom_site_site_symmetry_order
_atom_site_calc_flag
_atom_site_refinement_flags_posn
_atom_site_refinement_flags_adp
_atom_site_refinement_flags_occupancy
_atom_site_disorder_assembly
_atom_site_disorder_group
O2 O 0.0814(6) 1.0116(5) 0.1748(3) 0.0421(10) Uani 1 1 d . . . . .
H2 H 0.111956 1.054335 0.237208 0.063 Uiso 1 1 calc R U . . .
O1 O 0.1818(6) 0.8560(5) 0.4271(3) 0.0406(10) Uani 1 1 d . . . . .
O3 O 0.2116(6) 0.2537(5) 0.3279(3) 0.0406(10) Uani 1 1 d . . . . .
H3 H 0.237654 0.219352 0.409588 0.061 Uiso 1 1 calc R U . . .
C12 C 0.1978(8) 0.5483(8) 0.3864(5) 0.0397(13) Uani 1 1 d . . . . .
H12 H 0.233975 0.490247 0.475677 0.048 Uiso 1 1 calc R U . . .
C8 C 0.1097(9) 0.8268(8) 0.2138(6) 0.0422(13) Uani 1 1 d . . . . .
C7 C 0.1669(8) 0.7383(8) 0.3462(5) 0.0377(13) Uani 1 1 d . . . . .
C9 C 0.0863(8) 0.7217(8) 0.1270(5) 0.0395(13) Uani 1 1 d . . . . .
H9 H 0.049109 0.779496 0.037803 0.047 Uiso 1 1 calc R U . . .
C6 C 0.2460(9) 0.7721(8) 0.5613(5) 0.0391(13) Uani 1 1 d . . . . .
H6A H 0.378828 0.676513 0.559006 0.059 Uiso 1 1 calc R U . . .
H6B H 0.150196 0.713926 0.606522 0.059 Uiso 1 1 calc R U . . .
H6C H 0.252706 0.868599 0.609737 0.059 Uiso 1 1 calc R U . . .
C11 C 0.1751(8) 0.4447(8) 0.2943(5) 0.0383(13) Uani 1 1 d . . . . .
C10 C 0.1154(8) 0.5298(9) 0.1652(5) 0.0416(14) Uani 1 1 d . . . . .
H10 H 0.094447 0.459524 0.103516 0.050 Uiso 1 1 calc R U . . .
N2 N 0.3465(7) 0.1594(6) 0.6172(4) 0.0392(11) Uani 1 1 d . . . . .
N1 N 0.3680(7) 0.5365(7) 0.8367(4) 0.0406(12) Uani 1 1 d . . . . .
C2 C 0.4428(8) 0.0573(7) 0.8671(5) 0.0356(12) Uani 1 1 d . . . . .
C5 C 0.3872(8) 0.1176(8) 0.7280(5) 0.0405(13) Uani 1 1 d . . . . .
C3 C 0.4563(8) 0.1869(8) 0.9422(5) 0.0373(13) Uani 1 1 d . . . . .
C1 C 0.4846(8) -0.1299(8) 0.9236(5) 0.0391(13) Uani 1 1 d . . . . .
H1 H 0.473525 -0.217662 0.872600 0.047 Uiso 1 1 calc R U . . .
C4 C 0.4089(8) 0.3830(8) 0.8833(5) 0.0391(13) Uani 1 1 d . . . . .
loop_
_atom_site_aniso_label
_atom_site_aniso_U_11
_atom_site_aniso_U_22
_atom_site_aniso_U_33
_atom_site_aniso_U_23
_atom_site_aniso_U_13
_atom_site_aniso_U_12
O2 0.056(2) 0.040(2) 0.0291(19) -0.0001(16) -0.0051(17) -0.0165(18)
O1 0.055(2) 0.041(2) 0.0290(19) -0.0064(15) -0.0046(16) -0.0178(18)
O3 0.049(2) 0.043(2) 0.0299(19) -0.0049(15) -0.0021(17) -0.0159(18)
C12 0.041(3) 0.047(3) 0.032(3) -0.005(2) -0.002(2) -0.017(3)
C8 0.044(3) 0.043(3) 0.038(3) -0.004(2) 0.006(2) -0.015(3)
C7 0.041(3) 0.038(3) 0.035(3) -0.010(2) -0.001(2) -0.012(2)
C9 0.038(3) 0.045(3) 0.032(3) -0.007(2) -0.001(2) -0.009(2)
C6 0.046(3) 0.041(3) 0.030(3) -0.005(2) -0.004(2) -0.014(2)
C11 0.040(3) 0.041(3) 0.035(3) -0.005(2) 0.005(2) -0.017(2)
C10 0.038(3) 0.058(4) 0.030(3) -0.008(2) -0.002(2) -0.017(3)
N2 0.047(3) 0.047(3) 0.028(2) -0.0049(19) -0.0037(19) -0.022(2)
N1 0.046(3) 0.045(3) 0.032(2) -0.007(2) -0.001(2) -0.017(2)
C2 0.045(3) 0.042(3) 0.028(3) -0.009(2) 0.002(2) -0.023(3)
C5 0.038(3) 0.046(3) 0.038(3) -0.007(2) 0.001(2) -0.015(3)
C3 0.041(3) 0.038(3) 0.035(3) -0.007(2) -0.003(2) -0.014(2)
C1 0.046(3) 0.046(3) 0.029(3) -0.008(2) 0.001(2) -0.020(3)
C4 0.039(3) 0.047(3) 0.034(3) -0.012(2) 0.006(2) -0.017(3)
loop_
_atom_type_symbol
_atom_type_description
_atom_type_scat_dispersion_real
_atom_type_scat_dispersion_imag
_atom_type_scat_source
C C 0.0181 0.0091 'International Tables Vol C Tables 4.2.6.8 and 6.1.1.4'
H H 0.0000 0.0000 'International Tables Vol C Tables 4.2.6.8 and 6.1.1.4'
N N 0.0311 0.0180 'International Tables Vol C Tables 4.2.6.8 and 6.1.1.4'
O O 0.0492 0.0322 'International Tables Vol C Tables 4.2.6.8 and 6.1.1.4'
loop_
_geom_angle_atom_site_label_1
_geom_angle_atom_site_label_2
_geom_angle_atom_site_label_3
_geom_angle
_geom_angle_site_symmetry_1
_geom_angle_site_symmetry_3
_geom_angle_publ_flag
C8 O2 H2 109.5 . . ?
C7 O1 C6 116.4(4) . . ?
C11 O3 H3 109.5 . . ?
C7 C12 H12 120.4 . . ?
C11 C12 H12 120.4 . . ?
C11 C12 C7 119.1(5) . . ?
O2 C8 C7 120.7(5) . . ?
O2 C8 C9 120.9(5) . . ?
C9 C8 C7 118.4(5) . . ?
O1 C7 C12 124.9(5) . . ?
O1 C7 C8 114.2(5) . . ?
C12 C7 C8 120.9(5) . . ?
C8 C9 H9 119.0 . . ?
C8 C9 C10 121.9(5) . . ?
C10 C9 H9 119.0 . . ?
O1 C6 H6A 109.5 . . ?
O1 C6 H6B 109.5 . . ?
O1 C6 H6C 109.5 . . ?
H6A C6 H6B 109.5 . . ?
H6A C6 H6C 109.5 . . ?
H6B C6 H6C 109.5 . . ?
O3 C11 C12 121.4(5) . . ?
C10 C11 O3 117.9(5) . . ?
C10 C11 C12 120.8(5) . . ?
C9 C10 H10 120.6 . . ?
C11 C10 C9 118.9(5) . . ?
C11 C10 H10 120.6 . . ?
C3 C2 C5 119.7(5) . . ?
C1 C2 C5 119.4(5) . . ?
C1 C2 C3 120.8(5) . . ?
N2 C5 C2 177.7(6) . . ?
C2 C3 C1 120.6(5) . 2_657 ?
C2 C3 C4 120.6(5) . . ?
C1 C3 C4 118.9(5) 2_657 . ?
C2 C1 C3 118.6(5) . 2_657 ?
C2 C1 H1 120.7 . . ?
C3 C1 H1 120.7 2_657 . ?
N1 C4 C3 178.6(6) . . ?
loop_
_geom_bond_atom_site_label_1
_geom_bond_atom_site_label_2
_geom_bond_distance
_geom_bond_site_symmetry_2
_geom_bond_publ_flag
O2 H2 0.8400 . ?
O2 C8 1.356(6) . ?
O1 C7 1.366(6) . ?
O1 C6 1.437(6) . ?
O3 H3 0.8400 . ?
O3 C11 1.386(6) . ?
C12 H12 0.9500 . ?
C12 C7 1.391(7) . ?
C12 C11 1.388(8) . ?
C8 C7 1.417(8) . ?
C8 C9 1.357(8) . ?
C9 H9 0.9500 . ?
C9 C10 1.405(8) . ?
C6 H6A 0.9800 . ?
C6 H6B 0.9800 . ?
C6 H6C 0.9800 . ?
C11 C10 1.386(8) . ?
C10 H10 0.9500 . ?
N2 C5 1.147(7) . ?
N1 C4 1.136(7) . ?
C2 C5 1.449(7) . ?
C2 C3 1.394(7) . ?
C2 C1 1.390(7) . ?
C3 C1 1.408(8) 2_657 ?
C3 C4 1.453(8) . ?
C1 H1 0.9500 . ?
loop_
_geom_hbond_atom_site_label_D
_geom_hbond_atom_site_label_H
_geom_hbond_atom_site_label_A
_geom_hbond_distance_DH
_geom_hbond_distance_HA
_geom_hbond_distance_DA
_geom_hbond_angle_DHA
_geom_hbond_site_symmetry_A
_geom_hbond_publ_flag
O2 H2 O3 0.84 2.25 3.037(5) 155.6 1_565 yes
O3 H3 N2 0.84 2.22 3.050(6) 169.1 . yes
loop_
_geom_torsion_atom_site_label_1
_geom_torsion_atom_site_label_2
_geom_torsion_atom_site_label_3
_geom_torsion_atom_site_label_4
_geom_torsion
_geom_torsion_site_symmetry_1
_geom_torsion_site_symmetry_2
_geom_torsion_site_symmetry_3
_geom_torsion_site_symmetry_4
_geom_torsion_publ_flag
O2 C8 C7 O1 2.3(8) . . . . ?
O2 C8 C7 C12 -179.4(5) . . . . ?
O2 C8 C9 C10 179.8(5) . . . . ?
O3 C11 C10 C9 -177.2(5) . . . . ?
C12 C11 C10 C9 2.7(8) . . . . ?
C8 C9 C10 C11 -1.8(8) . . . . ?
C7 C12 C11 O3 177.5(5) . . . . ?
C7 C12 C11 C10 -2.3(8) . . . . ?
C7 C8 C9 C10 0.6(8) . . . . ?
C9 C8 C7 O1 -178.4(5) . . . . ?
C9 C8 C7 C12 -0.2(9) . . . . ?
C6 O1 C7 C12 3.9(8) . . . . ?
C6 O1 C7 C8 -178.0(5) . . . . ?
C11 C12 C7 O1 179.1(5) . . . . ?
C11 C12 C7 C8 1.1(8) . . . . ?
C5 C2 C3 C1 -178.2(5) . . . 2_657 ?
C5 C2 C3 C4 2.0(8) . . . . ?
C5 C2 C1 C3 178.3(5) . . . 2_657 ?
C3 C2 C1 C3 -0.9(9) . . . 2_657 ?
C1 C2 C3 C1 0.9(9) . . . 2_657 ?
C1 C2 C3 C4 -178.9(5) . . . . ?
