#------------------------------------------------------------------------------
#$Date: 2021-11-06 21:52:13 +0200 (Sat, 06 Nov 2021) $
#$Revision: 270432 $
#$URL: file:///home/coder/svn-repositories/cod/cif/7/24/36/7243616.cif $
#------------------------------------------------------------------------------
#
# This file is available in the Crystallography Open Database (COD),
# http://www.crystallography.net/
#
# All data on this site have been placed in the public domain by the
# contributors.
#
data_7243616
loop_
_publ_author_name
'Huang, Lijuan'
'Xu, Haiping'
'Zhao, Yan'
'Huang, Ling'
'Bi, Jian'
'Zeng, Hongmei'
'Zou, Guohong'
'Gao, Daojiang'
'Lin, Zhien'
_publ_section_title
;
 Isonicotinic acid-templated metal phosphate--oxalates: solvent-free
 synthesis, luminescence, and proton conduction
;
_journal_issue                   39
_journal_name_full               CrystEngComm
_journal_page_first              6855
_journal_page_last               6858
_journal_paper_doi               10.1039/D1CE00873K
_journal_volume                  23
_journal_year                    2021
_chemical_formula_moiety         'C7 H6 In N O8 P'
_chemical_formula_sum            'C7 H6 In N O8 P'
_chemical_formula_weight         377.92
_space_group_crystal_system      triclinic
_space_group_IT_number           2
_space_group_name_Hall           '-P 1'
_space_group_name_H-M_alt        'P -1'
_atom_sites_solution_hydrogens   geom
_atom_sites_solution_primary     dual
_audit_creation_date             2021-05-11
_audit_creation_method
;
Olex2 1.2
(compiled 2018.05.29 svn.r3508 for OlexSys, GUI svn.r5506)
;
_audit_update_record
;
2021-06-30 deposited with the CCDC.	2021-09-27 downloaded from the CCDC.
;
_cell_angle_alpha                114.317(7)
_cell_angle_beta                 95.498(6)
_cell_angle_gamma                105.293(7)
_cell_formula_units_Z            2
_cell_length_a                   6.6218(4)
_cell_length_b                   9.3168(8)
_cell_length_c                   9.4721(7)
_cell_measurement_reflns_used    3024
_cell_measurement_temperature    290.77(11)
_cell_measurement_theta_max      71.3860
_cell_measurement_theta_min      5.2450
_cell_volume                     499.59(8)
_computing_cell_refinement       'CrysAlisPro 1.171.39.46e (Rigaku OD, 2018)'
_computing_data_collection       'CrysAlisPro 1.171.39.46e (Rigaku OD, 2018)'
_computing_data_reduction        'CrysAlisPro 1.171.39.46e (Rigaku OD, 2018)'
_computing_molecular_graphics    'Olex2 (Dolomanov et al., 2009)'
_computing_publication_material  'Olex2 (Dolomanov et al., 2009)'
_computing_structure_refinement  'ShelXL (Sheldrick, 2015)'
_computing_structure_solution    'ShelXT (Sheldrick, 2015)'
_diffrn_ambient_environment      air
_diffrn_ambient_temperature      290.77(11)
_diffrn_detector                 'CCD plate'
_diffrn_detector_area_resol_mean 15.9595
_diffrn_detector_type            EosS2
_diffrn_measured_fraction_theta_full 1.000
_diffrn_measured_fraction_theta_max 1.000
_diffrn_measurement_details
;
List of Runs (angles in degrees, time in seconds):

  # Type    Start    End  Width  t~exp~   \w     \q     \k     \f   Frames
#--------------------------------------------------------------------------
  1  \w    -54.00  33.00   1.00    1.00    --  -35.23  57.00 120.00   87
  2  \w    -64.00  34.00   1.00    1.00    --  -35.23  77.00-120.00   98
  3  \w     13.00 106.00   1.00    1.00    --   35.23  38.00-150.00   93
  4  \w     17.00 104.00   1.00    1.00    --   35.23  57.00 -30.00   87
  5  \w     17.00 104.00   1.00    1.00    --   35.23  57.00  30.00   87
  6  \w     17.00 104.00   1.00    1.00    --   35.23  57.00   0.00   87
  7  \w     17.00 104.00   1.00    1.00    --   35.23  57.00 -60.00   87
  8  \w     23.00  90.00   1.00    1.00    --   35.23-125.00 120.00   67
  9  \w     87.00 177.00   1.00    1.00    --  106.90  45.00   0.00   90
 10  \w     37.00 110.00   1.00    1.00    --  106.90 -94.00 -90.00   73
 11  \w    100.00 178.00   1.00    1.00    --  106.90 111.00-180.00   78
 12  \w     39.00 127.00   1.00    1.00    --  106.90 -61.00 -90.00   88
 13  \w     36.00 113.00   1.00    1.00    --  106.90-111.00  30.00   77
 14  \w     36.00 113.00   1.00    1.00    --  106.90-111.00-180.00   77
 15  \w     87.00 177.00   1.00    1.00    --  106.90  45.00-120.00   90
 16  \w     39.00 127.00   1.00    1.00    --  106.90 -61.00  30.00   88
 17  \w    100.00 178.00   1.00    1.00    --  106.90 111.00  60.00   78
 18  \w     37.00 110.00   1.00    1.00    --  106.90 -94.00-120.00   73
 19  \w     36.00 113.00   1.00    1.00    --  106.90-111.00  90.00   77
 20  \w     87.00 175.00   1.00    1.00    --  106.90  61.00 -90.00   88
 21  \w     87.00 177.00   1.00    1.00    --  106.90  45.00-180.00   90
 22  \w     39.00 127.00   1.00    1.00    --  106.90 -61.00 150.00   88
 23  \w     81.00 178.00   1.00    1.00    --  106.90  30.00 120.00   97
 24  \w    -57.00  35.00   1.00    1.00    --  -35.23  38.00-150.00   92
 25  \w      7.00 104.00   1.00    1.00    --   35.23  77.00-150.00   97
 26  \w    -33.00  54.00   1.00    1.00    --   35.23 -57.00 -90.00   87
 27  \w    -33.00  54.00   1.00    1.00    --   35.23 -57.00 -30.00   87
 28  \w      7.00 104.00   1.00    1.00    --   35.23  77.00  30.00   97
 29  \w     17.00 104.00   1.00    1.00    --   35.23  57.00 120.00   87
;
_diffrn_measurement_device       'four-circle diffractometer'
_diffrn_measurement_device_type  'New Gemini, Dual, Cu at home/near, EosS2'
_diffrn_measurement_method       '\w scans'
_diffrn_orient_matrix_type
'CrysAlisPro convention (1999,Acta A55,543-557)'
_diffrn_orient_matrix_UB_11      -0.0847181000
_diffrn_orient_matrix_UB_12      0.1187139000
_diffrn_orient_matrix_UB_13      -0.0439676000
_diffrn_orient_matrix_UB_21      0.1860427000
_diffrn_orient_matrix_UB_22      0.1508631000
_diffrn_orient_matrix_UB_23      0.1293295000
_diffrn_orient_matrix_UB_31      0.1403902000
_diffrn_orient_matrix_UB_32      -0.0146083000
_diffrn_orient_matrix_UB_33      -0.1225365000
_diffrn_radiation_monochromator  graphite
_diffrn_radiation_probe          x-ray
_diffrn_radiation_type           CuK\a
_diffrn_radiation_wavelength     1.54184
_diffrn_reflns_av_R_equivalents  0.0658
_diffrn_reflns_av_unetI/netI     0.0561
_diffrn_reflns_Laue_measured_fraction_full 1.000
_diffrn_reflns_Laue_measured_fraction_max 1.000
_diffrn_reflns_limit_h_max       7
_diffrn_reflns_limit_h_min       -7
_diffrn_reflns_limit_k_max       11
_diffrn_reflns_limit_k_min       -11
_diffrn_reflns_limit_l_max       10
_diffrn_reflns_limit_l_min       -11
_diffrn_reflns_number            5120
_diffrn_reflns_point_group_measured_fraction_full 1.000
_diffrn_reflns_point_group_measured_fraction_max 1.000
_diffrn_reflns_theta_full        67.050
_diffrn_reflns_theta_max         67.050
_diffrn_reflns_theta_min         5.269
_diffrn_source                   'fine-focus sealed X-ray tube'
_diffrn_source_type              'Enhance (Cu) X-ray Source'
_exptl_absorpt_coefficient_mu    20.864
_exptl_absorpt_correction_T_max  0.189
_exptl_absorpt_correction_T_min  0.015
_exptl_absorpt_correction_type   gaussian
_exptl_absorpt_process_details
;
CrysAlisPro 1.171.39.46e (Rigaku Oxford Diffraction, 2018)
Numerical absorption correction based on gaussian integration over
			a multifaceted crystal model
Empirical absorption correction using spherical harmonics,
 implemented in SCALE3 ABSPACK scaling algorithm.
;
_exptl_crystal_colour            'clear colourless'
_exptl_crystal_colour_lustre     clear
_exptl_crystal_colour_primary    colourless
_exptl_crystal_density_diffrn    2.512
_exptl_crystal_description       block
_exptl_crystal_F_000             366
_exptl_crystal_size_max          0.325
_exptl_crystal_size_mid          0.263
_exptl_crystal_size_min          0.206
_refine_diff_density_max         1.363
_refine_diff_density_min         -1.671
_refine_diff_density_rms         0.267
_refine_ls_extinction_method     none
_refine_ls_goodness_of_fit_ref   1.088
_refine_ls_hydrogen_treatment    constr
_refine_ls_matrix_type           full
_refine_ls_number_parameters     164
_refine_ls_number_reflns         1781
_refine_ls_number_restraints     0
_refine_ls_restrained_S_all      1.088
_refine_ls_R_factor_all          0.0501
_refine_ls_R_factor_gt           0.0489
_refine_ls_shift/su_max          0.000
_refine_ls_shift/su_mean         0.000
_refine_ls_structure_factor_coef Fsqd
_refine_ls_weighting_details
'w=1/[\s^2^(Fo^2^)+(0.0923P)^2^] where P=(Fo^2^+2Fc^2^)/3'
_refine_ls_weighting_scheme      calc
_refine_ls_wR_factor_gt          0.1260
_refine_ls_wR_factor_ref         0.1273
_reflns_Friedel_coverage         0.000
_reflns_number_gt                1713
_reflns_number_total             1781
_reflns_threshold_expression     'I > 2\s(I)'
_cod_data_source_file            d1ce00873k2.cif
_cod_data_source_block           1
_cod_depositor_comments
'Adding full bibliography for 7243616--7243617.cif.'
_cod_original_cell_volume        499.59(7)
_cod_database_code               7243616
_shelx_shelxl_version_number     2014/7
_chemical_oxdiff_formula         'C14  H12  In2  N2  O16  P2  '
_shelx_space_group_comment
;
The symmetry employed for this shelxl refinement is uniquely defined
by the following loop, which should always be used as a source of
symmetry information in preference to the above space-group names.
They are only intended as comments.
;
_reflns_odcompleteness_completeness 100.00
_reflns_odcompleteness_iscentric 1
_reflns_odcompleteness_theta     66.97
_olex2_refinement_description
;
1. Fixed Uiso
 At 1.2 times of:
  All C(H) groups, All N(H) groups
 At 1.5 times of:
  All O(H) groups
2.a Aromatic/amide H refined with riding coordinates:
 N1(H1), C2(H2), C3(H3), C5(H5), C6(H6)
2.b Idealised tetrahedral OH refined as rotating group:
 O4(H4)
;
_shelx_res_file
;
    1.res created by SHELXL-2014/7

TITL h2-145-5_a.res in P-1
REM Old TITL H2-145-5 in P1 #1
REM SHELXT solution in P-1
REM R1 0.164, Rweak 0.019, Alpha 0.155, Orientation as input
REM Formula found by SHELXT: C5 O9 P In
CELL 1.54184 6.62181 9.316751 9.472137 114.3166 95.4978 105.2928
ZERR 2 0.000448 0.000777 0.000657 0.0073 0.0056 0.0065
LATT 1
SFAC C H In N O P
UNIT 14 12 2 2 16 2
EQIV $1 +X,+Y,1+Z
EQIV $2 +X,-1+Y,-1+Z

L.S. 10
PLAN  20
HTAB O4 O8_$1
HTAB N1 O1_$2
BOND $H
LIST 6
fmap 2
acta
SHEL 999 0.837
REM <olex2.extras>
REM <HklSrc "%.\\1.hkl">
REM </olex2.extras>

WGHT    0.092300
FVAR       6.11133
IN1   3    0.321613    0.646777    0.407940    11.00000    0.01203    0.01106 =
         0.01753    0.00705    0.00335    0.00250
P1    6    0.224257    0.455717    0.653720    11.00000    0.01299    0.01240 =
         0.01515    0.00690    0.00345    0.00269
O1    5    0.247669    0.587256    0.594857    11.00000    0.02287    0.01974 =
         0.01768    0.01173    0.00692    0.00522
O2    5    0.359359    0.346295    0.591944    11.00000    0.00563    0.02456 =
         0.04121    0.01218    0.00710    0.00659
O3    5   -0.005821    0.339850    0.612193    11.00000    0.00870    0.02438 =
         0.03677    0.01728    0.00553    0.00984
O4    5    0.301360    0.566539    0.839031    11.00000    0.03303    0.01849 =
         0.01660    0.00767    0.00375   -0.00111
AFIX 147
H4    2    0.259553    0.509142    0.883706    11.00000   -1.50000
AFIX   0
O5    5    0.475536    0.897171    0.618963    11.00000    0.02577    0.01470 =
         0.01588    0.00659    0.00282    0.00049
O6    5    0.619375    1.166963    0.688214    11.00000    0.03129    0.01064 =
         0.02117    0.00857    0.00643    0.00416
O7    5    0.225372    0.386259    0.246412    11.00000    0.02827    0.01267 =
         0.01467    0.00009    0.00508    0.00258
O8    5    0.232761    0.482526    0.067733    11.00000    0.06249    0.02162 =
         0.02570    0.01145    0.01250    0.01538
N1    4    0.128749   -0.121225   -0.235094    11.00000    0.03913    0.01485 =
         0.04110    0.00177    0.02618    0.00089
AFIX  43
H1    2    0.109498   -0.221851   -0.304278    11.00000   -1.20000
AFIX   0
C1    1    0.530181    1.019116    0.588017    11.00000    0.00937    0.01140 =
         0.02758    0.01183    0.00641   -0.00013
C2    1    0.235873   -0.068349   -0.086328    11.00000    0.02087    0.02015 =
         0.05654    0.01812    0.01635    0.00865
AFIX  43
H2    2    0.288604   -0.138995   -0.059156    11.00000   -1.20000
AFIX   0
C3    1    0.267200    0.091856    0.026135    11.00000    0.02043    0.02397 =
         0.03682    0.01533    0.00808    0.00595
AFIX  43
H3    2    0.340311    0.131191    0.130675    11.00000   -1.20000
AFIX   0
C4    1    0.187643    0.193230   -0.019564    11.00000    0.01785    0.02075 =
         0.02155    0.00883    0.00606    0.00268
C5    1    0.080738    0.134147   -0.173778    11.00000    0.03827    0.02053 =
         0.02476    0.00705    0.00719    0.00145
AFIX  43
H5    2    0.028698    0.202256   -0.205566    11.00000   -1.20000
AFIX   0
C6    1    0.051630   -0.027760   -0.280916    11.00000    0.04059    0.02603 =
         0.02247   -0.00221    0.00480   -0.00571
AFIX  43
H6    2   -0.022790   -0.070749   -0.385819    11.00000   -1.20000
AFIX   0
C7    1    0.217888    0.366868    0.103167    11.00000    0.01950    0.01628 =
         0.02209    0.00406    0.00217    0.00165
HKLF 4

REM  h2-145-5_a.res in P-1
REM R1 =  0.0489 for    1713 Fo > 4sig(Fo)  and  0.0501 for all    1781 data
REM    164 parameters refined using      0 restraints

END

WGHT      0.0923      0.0000

REM Highest difference peak  1.363,  deepest hole -1.671,  1-sigma level  0.267
Q1    1   0.4688  0.6569  0.4082  11.00000  0.05    1.36
Q2    1   0.1794  0.6466  0.4179  11.00000  0.05    1.22
Q3    1   0.5042  0.5383  0.5471  11.00000  0.05    1.02
Q4    1   0.3078  0.5385  0.3490  11.00000  0.05    0.99
Q5    1   0.0870  0.5941  0.5461  11.00000  0.05    0.96
Q6    1   0.3532  0.7533  0.4881  11.00000  0.05    0.95
Q7    1   0.2776  0.8807  0.5657  11.00000  0.05    0.90
Q8    1   0.3293  0.5642  0.4378  11.00000  0.05    0.87
Q9    1   0.6313  1.2618  0.6524  11.00000  0.05    0.84
Q10   1   0.3747  0.6796  0.6655  11.00000  0.05    0.83
Q11   1   0.5362  0.9151  0.4868  11.00000  0.05    0.81
Q12   1  -0.0640  0.2754  0.4637  11.00000  0.05    0.81
Q13   1   0.3187  0.2228  0.5907  11.00000  0.05    0.80
Q14   1   0.2396  0.5971  0.1434  11.00000  0.05    0.75
Q15   1  -0.0656 -0.4186 -0.4197  11.00000  0.05    0.75
Q16   1   0.3939  0.4646  0.6440  11.00000  0.05    0.73
Q17   1   0.0657  0.3862  0.2945  11.00000  0.05    0.72
Q18   1   0.4100  0.3444  0.7583  11.00000  0.05    0.71
Q19   1   0.3805  0.4166  0.7002  11.00000  0.05    0.70
Q20   1   0.4335  1.1196  0.6002  11.00000  0.05    0.67
;
_shelx_res_checksum              98955
_shelx_hkl_file
;
   0   0   1 269714. 10790.2  25
   0   0  -1 255449. 10581.9   2
   0   0  -1 283862. 8968.24  29
   0   0  -2 28370.4 1926.14  29
   0   0  -2 26913.7 2521.59   2
   0   0  -3 151720. 5713.06  27
   0   0   3 120598. 5845.25   4
   0   0   3 78926.0 5587.68  25
   0   0  -3 149836. 5810.70  26
   0   0   3 98309.0 5920.72   7
   0   0  -3 158761. 6836.49   2
   0   0   4 259005. 11202.4   7
   0   0   4 249034. 10502.3   4
   0   0  -4 195560. 9090.09  27
   0   0  -4 326664. 11116.7   2
   0   0  -4 271043. 9774.15  26
   0   0  -5 233484. 9246.61  26
   0   0   5 240401. 10879.2   4
   0   0   5 252214. 11553.0   7
   0   0   6 122778. 7665.16   7
   0   0   6 112840. 7206.32   4
   0   0  -7 18119.5 2030.72  22
   0   0  -7 17007.9 2034.16  10
   0   0  -7 19588.0 2180.08  17
   0   0  -8 663.051 526.291  22
   0   0  -8 342.778 404.137  10
   0   0  -8-292.889 354.539  17
   0   0  -9 13549.5 1457.85  17
   0   0  -9 14285.8 1506.51  12
   0   0  -9 12661.1 1384.91  10
   0   0 -10 13473.0 1184.59  12
   0   0 -10 18667.3 1336.85  17
   0   1 -10 10931.7 1186.63  12
   0   1 -10 12505.2 1213.79  17
   0   1  -9 40119.1 2831.65  10
   0   1  -9 39126.9 2804.56  17
   0   1  -9 44555.9 2979.02  12
   0   1  -8 44159.9 3213.72  10
   0   1  -8 39544.8 3063.04  17
   0   1  -7 7638.49 1350.39  17
   0   1  -7 4048.51 988.388  18
   0   1  -7 6537.81 1235.27  22
   0   1  -7 5066.05 1111.71  10
   0   1  -6 5365.15 1090.06  26
   0  -1   6 7431.62 1617.56   4
   0  -1   6 7916.80 1790.39   6
   0  -1   6 9216.75 1862.95   7
   0  -1   5 55767.4 4457.47   7
   0   1  -5 57314.0 3727.28  27
   0  -1   5 59738.7 4499.82   4
   0   1  -5 62359.5 3892.79  26
   0   1  -4 387244. 13182.0  26
   0  -1   4 361120. 13689.2   7
   0  -1   4 360516. 13534.5   4
   0  -1   3 225647. 8958.78   4
   0   1  -3 252122. 9009.86  26
   0   1  -3 249574. 8878.53   2
   0  -1   3 219216. 9044.01   7
   0   1  -3 220358. 7166.60   3
   0   1  -3 256944. 9430.71  27
   0   1  -2 220534. 6974.46   8
   0  -1   2 223447. 6485.18  24
   0   1  -2 210190. 6850.23   3
   0  -1   2 206046. 7356.54   7
   0   1  -1 33819.6 2234.75   3
   0   1  -1 36227.6 1807.36  25
   0   1   0 188070. 6180.61   1
   0  -1   0 187448. 9920.32   2
   0   1   0 190082. 6036.44  27
   0  -1  -1 313796. 12653.6   2
   0   1   1 278319. 8368.79   1
   0   1   1 312151. 9957.41   3
   0  -1  -2 353621. 12003.2  29
   0   1   2 437929. 14303.2   7
   0  -1  -2 360399. 12908.1  26
   0  -1  -2 480259. 15721.1   2
   0   1   2 377175. 12102.3   1
   0  -1  -3 123635. 5649.56  26
   0   1   3 136375. 6896.76   7
   0   1   3 112511. 5075.75   1
   0   1   3 114013. 6911.27  25
   0  -1  -3 101631. 4991.41  29
   0   1   4 15146.9 2160.15   4
   0   1   4 14406.6 2158.20   7
   0  -1  -4 13030.4 1952.54   2
   0  -1  -4 12335.1 1579.80  26
   0   1   5 50198.6 4373.54   7
   0   1   5 51226.4 4322.26   4
   0  -1  -5 34830.8 3372.32   2
   0  -1  -5 34366.3 2935.52  26
   0  -1  -6 53903.2 3896.82  17
   0  -1  -6 49470.8 3669.57  22
   0  -1  -7 12498.8 1694.20  10
   0  -1  -7 15160.8 1885.44  17
   0  -1  -7 12760.5 1696.04  22
   0  -1  -8 33982.9 2644.95  10
   0  -1  -8 38170.2 2761.17  22
   0   1   8 34876.8 3217.14  20
   0  -1  -8 40780.9 2856.46  17
   0  -1  -9 17413.9 1518.06  12
   0  -1  -9 17045.3 1486.01  17
   0  -1  -9 15307.8 1361.81  10
   0   2 -11 5515.23 625.569  17
   0   2 -11 3840.29 555.523  12
   0   2 -10 988.409 391.567  12
   0   2 -10 1011.73 358.022  17
   0   2  -9 15169.5 1768.65  18
   0   2  -9 18126.9 1907.47  12
   0   2  -9 16807.6 1838.26  17
   0   2  -9 15825.9 1783.83  10
   0   2  -8 41820.6 3342.11  18
   0   2  -8 43935.7 3350.83  12
   0   2  -8 40942.1 3246.42  17
   0   2  -8 42849.2 3382.25  10
   0   2  -7 136329. 6818.91  26
   0  -2   7 134939. 8205.21   6
   0  -2   7 115489. 7494.00   4
   0   2  -6 106954. 5768.56  27
   0  -2   6 90851.2 6059.31   4
   0  -2   6 105891. 6646.79   6
   0  -2   6 82135.1 5711.67   7
   0   2  -6 110531. 6055.16  26
   0  -2   5 3648.70 1031.45   4
   0   2  -5 4760.36 1106.38  26
   0  -2   5 4387.76 1179.95   6
   0  -2   5 3835.38 980.793   7
   0   2  -5 5004.49 1104.85  27
   0  -2   4 120760. 5853.95   6
   0   2  -4 121279. 5655.79  26
   0  -2   4 103576. 5142.48   7
   0   2  -4 116319. 5838.45  27
   0  -2   4 106401. 5390.17   4
   0  -2   3 351790. 12387.4   7
   0   2  -3 371600. 12151.1   8
   0  -2   3 357731. 12770.9   4
   0   2  -3 410897. 13273.6  26
   0  -2   3 369518. 13049.4   6
   0  -2   3 325598. 11675.8  24
   0   2  -3 408276. 13043.4   3
   0  -2   2 590267. 18269.1   7
   0   2  -2 572346. 18701.1  25
   0  -2   2 582349. 18682.0   4
   0   2  -2 603692. 18425.4   8
   0   2  -1 160806. 6251.44  27
   0   2  -1 176778. 7154.75   1
   0  -2   1 174355. 8109.58   2
   0   2   0 46425.2 2608.93   1
   0   2   0 44576.4 2276.12  27
   0   2   1 19971.2 3290.51  25
   0   2   1 22091.0 1509.55   1
   0  -2  -1 27013.6 1676.67  29
   0  -2  -1 26720.8 2059.19  28
   0  -2  -1 26375.0 3056.07   2
   0   2   1 23541.2 2333.25   3
   0   2   2 329931. 12178.7   7
   0   2   2 293922. 10188.8   1
   0   2   2 339067. 14845.6  25
   0  -2  -2 276515. 10421.6  29
   0  -2  -2 357580. 13807.3   2
   0  -2  -2 333324. 12027.0  26
   0   2   3 239016. 10373.8   7
   0   2   3 265624. 11665.3  25
   0  -2  -3 267493. 11315.9   2
   0   2   4 41580.3 3852.52   7
   0  -2  -4 37900.0 3201.43  26
   0  -2  -5 21324.9 2651.36   2
   0   2   5 15697.3 2303.04   4
   0   2   5 20202.1 2748.80   7
   0  -2  -6 8502.91 1450.46  17
   0  -2  -6 9169.29 1463.84  22
   0  -2  -7 17201.4 1886.30  22
   0  -2  -7 14543.3 1791.62  10
   0  -2  -7 16018.5 1820.76  17
   0  -2  -8 28977.9 2174.60  22
   0   2   8 28802.0 2572.76  20
   0  -2  -8 26735.2 2078.87  17
   0  -2  -8 28599.5 2154.14  10
   0  -2  -9 12757.0 979.812  17
   0  -2  -9 8322.42 857.410  12
   0   3 -11 18809.9 1361.01  17
   0   3 -11 22466.5 1551.21  12
   0   3 -10 35725.6 2539.85  12
   0   3 -10 34787.5 2446.45  17
   0   3  -9 4819.85 1074.44  18
   0   3  -9 4384.27 969.734  12
   0   3  -9 4017.20 889.317  17
   0   3  -9 4717.65 1037.10  10
   0   3  -8 1184.18 666.611  18
   0   3  -8 1566.57 743.577  10
   0   3  -8 1088.94 583.966  17
   0   3  -8 1745.43 723.273  12
   0  -3   7 51179.0 4246.85   5
   0  -3   7 56956.5 4753.75   6
   0   3  -7 61361.2 4365.38  27
   0  -3   7 52882.1 4457.31   4
   0   3  -7 63013.5 4610.67  26
   0  -3   6 227928. 10395.0   5
   0  -3   6 267355. 11307.6   6
   0   3  -6 216188. 10395.3  27
   0   3  -6 266494. 11022.7  26
   0  -3   6 251245. 10841.6   4
   0  -3   5 269498. 10773.7   7
   0   3  -5 298167. 11838.7  26
   0  -3   5 288816. 11447.9   4
   0  -3   5 266513. 11178.4   5
   0  -3   5 276090. 11329.8  28
   0  -3   5 291564. 11718.0   6
   0  -3   4 62805.8 3354.30   7
   0  -3   4 64159.7 3787.66  28
   0  -3   4 71221.5 4100.44   6
   0  -3   4 65420.1 3792.95   4
   0  -3   4 67588.3 3920.24   5
   0   3  -4 71849.1 4643.94  27
   0   3  -4 66999.3 4179.49  26
   0   3  -4 55906.3 3222.11   8
   0  -3   3 17228.1 1651.33   4
   0   3  -3 17900.4 2322.32   3
   0   3  -3 13707.4 1817.59  27
   0  -3   3 16199.3 1727.44   6
   0  -3   3 18621.7 1744.23  28
   0   3  -3 12527.5 1315.33   8
   0  -3   3 18669.4 1836.94   5
   0   3  -2 263655. 10814.1  27
   0  -3   2 306430. 10443.1   4
   0  -3   2 294810. 10621.4  28
   0   3  -2 369767. 12902.7  25
   0  -3   2 304531. 10743.4   5
   0  -3   2 305054. 10229.2   2
   0   3  -2 380719. 14606.7   3
   0  -3   2 269843. 10628.3   6
   0  -3   1 222338. 8459.37  28
   0   3  -1 224391. 9616.46   1
   0  -3   1 237654. 8548.15   5
   0  -3   1 222890. 8338.31   6
   0   3  -1 212728. 10457.3   3
   0   3  -1 219185. 8355.22  27
   0  -3   0 137544. 5869.42  28
   0   3   0 106118. 6573.16   3
   0   3   0 113152. 5721.61   1
   0  -3   0 151415. 8211.60   2
   0   3   0 156490. 9015.64  25
   0  -3   0 152812. 6122.45   5
   0  -3  -1 315188. 12371.9  28
   0  -3  -1 339188. 14477.2   2
   0   3   1 332070. 11856.5   1
   0  -3  -1 338592. 11646.6  29
   0  -3  -2 1813.71 900.962   2
   0   3   2 2821.41 866.467   7
   0   3   3 9817.62 1912.78  25
   0  -3  -3 7356.22 1655.92   2
   0  -3  -3 6856.01 1444.34  26
   0   3   3 7207.16 1499.28   7
   0   3   4 49944.5 4469.84   7
   0  -3  -4 43352.5 3790.44  26
   0  -3  -5 44932.3 3567.39  17
   0  -3  -5 49342.3 3759.60  22
   0  -3  -6 67357.1 4413.10  17
   0  -3  -6 108732. 5362.74  22
   0  -3  -7 35962.7 2569.72  22
   0  -3  -7 30082.2 2325.02  17
   0  -3  -7 33897.9 2540.31  10
   0   3   8 319.453 213.668  20
   0  -3  -8 850.040 282.187  10
   0  -3  -8 524.969 277.131  22
   0   4 -11 21615.4 1498.81  17
   0   4 -11 24177.9 1718.52  12
   0   4 -10 47889.8 3021.96  17
   0   4 -10 51919.7 3276.00  12
   0   4  -9 81117.5 4813.15  13
   0   4  -9 86072.9 5056.00  18
   0   4  -9 76529.2 4636.55  17
   0   4  -9 77308.9 4883.28  10
   0   4  -9 89928.6 5146.44  12
   0   4  -8 100763. 6125.32  18
   0   4  -8 80660.1 5336.39  17
   0   4  -8 100745. 5881.60  13
   0   4  -8 103231. 6350.98  12
   0   4  -8 93721.1 6103.69  10
   0   4  -7 1851.73 739.438  27
   0   4  -7 805.305 515.138  26
   0  -4   7 1736.51 749.935   5
   0  -4   7 2843.67 957.824   4
   0  -4   7 726.062 500.029  28
   0  -4   7 1873.73 815.684   6
   0  -4   6 102384. 5767.07   6
   0   4  -6 79965.8 5717.25  27
   0  -4   6 91764.5 5270.69   5
   0  -4   6 94116.3 5325.43   4
   0  -4   5 343201. 13164.8   5
   0  -4   5 338209. 12989.2   4
   0  -4   5 341125. 13049.3  28
   0   4  -5 350643. 14398.1  27
   0  -4   5 381700. 13700.0   6
   0   4  -4 530842. 19628.4   3
   0  -4   4 594285. 19206.1   6
   0  -4   4 563875. 18858.3   5
   0  -4   4 498440. 18100.4  24
   0  -4   4 559672. 18545.7   4
   0   4  -4 541916. 19887.2  27
   0  -4   4 531855. 18498.0  28
   0  -4   3 135970. 6199.62   5
   0   4  -3 125766. 6349.64  27
   0  -4   3 145117. 6446.30   6
   0  -4   3 133687. 5889.44   4
   0   4  -3 122606. 7254.14   3
   0   4  -3 100023. 5278.49   8
   0  -4   3 128481. 5936.17  28
   0   4  -3 88380.3 5741.20  25
   0   4  -2 12439.1 2225.81  25
   0  -4   2 11080.9 1527.25   2
   0  -4   2 11269.8 1465.07  28
   0   4  -2 8964.64 1328.30  27
   0   4  -2 11821.5 2228.99   3
   0  -4   2 10267.0 1405.83   5
   0  -4   2 10620.2 1407.98   6
   0   4  -1 104248. 6783.57   3
   0   4  -1 105909. 5239.04  27
   0  -4   1 101453. 5348.87  28
   0  -4   1 111242. 5550.40   5
   0   4  -1 144282. 8270.84  25
   0  -4   1 134854. 7717.17   2
   0  -4   0 361731. 13586.3   5
   0  -4   0 320924. 13202.7  28
   0  -4   0 369151. 13006.5  29
   0   4   0 347252. 13695.4   1
   0  -4   0 359097. 15490.9   2
   0  -4  -1 145315. 7615.08  28
   0   4   1 149632. 7775.70   7
   0   4   2 34667.6 3458.86   7
   0  -4  -2 51039.0 4426.46   2
   0  -4  -2 33668.6 3499.99  26
   0   4   2 57699.9 5149.42  25
   0   4   3 44491.6 4060.68   7
   0   4   3 53729.2 4771.71  25
   0  -4  -3 48062.4 4313.79   2
   0  -4  -4 8991.13 1644.28  22
   0   4   4 6872.98 1472.15  15
   0  -4  -5 37958.9 3178.79  22
   0  -4  -6 70525.2 4081.40  22
   0  -4  -7 68653.1 3427.56  22
   0  -4  -7 63748.3 3349.53  10
   0   5 -11 208.122 186.595  12
   0   5 -10 13188.0 1575.15  12
   0   5 -10 7863.05 1224.81  13
   0   5  -9 94616.3 5782.10  12
   0   5  -9 100854. 5637.25  13
   0   5  -8 173278. 9262.68  12
   0   5  -8 167509. 9225.28  10
   0   5  -8 189762. 8943.73  13
   0   5  -7 12349.1 2182.48  12
   0   5  -7 8378.06 1830.62  10
   0   5  -7 8047.01 1647.19  23
   0  -5   6 3316.27 972.140   6
   0   5  -6 2594.10 980.008  27
   0  -5   6 1666.64 652.725  28
   0  -5   6 2636.85 824.982   5
   0   5  -5 27801.6 3180.02  27
   0  -5   5 30813.0 2790.62   5
   0  -5   5 29471.6 2780.35   6
   0  -5   5 22930.2 2425.49  28
   0  -5   5 27448.5 2513.60   4
   0  -5   4 135091. 6602.71   5
   0  -5   4 139938. 6742.51   6
   0  -5   4 118384. 6215.12  28
   0   5  -3 246928. 11632.7   3
   0  -5   3 224278. 9677.99  28
   0  -5   3 229933. 9882.87   5
   0   5  -3 239437. 10071.8  27
   0  -5   3 247731. 10009.5   6
   0   5  -2 154133. 7522.65  27
   0  -5   2 160123. 7735.67   5
   0  -5   2 149025. 7516.42  28
   0   5  -2 174736. 9561.01   3
   0  -5   2 162754. 7589.18   6
   0  -5   1 40982.9 3504.08  28
   0  -5   1 47791.1 3769.87   5
   0  -5   1 49664.9 4727.24   2
   0  -5   0 4641.57 1515.33   2
   0   5   0 4247.82 1489.89  25
   0  -5   0 2367.49 890.494  28
   0  -5  -1 94552.8 6719.65   2
   0   5   1 114006. 7706.12  25
   0  -5  -2 55218.1 4902.81  26
   0   5   2 47201.8 4280.18   7
   0   5   2 45978.9 4006.74  15
   0  -5  -2 49467.4 4354.73   9
   0  -5  -3 101887. 6179.45  22
   0   5   3 104873. 6300.41  15
   0  -5  -3 102663. 6227.60   9
   0   5   4 60431.2 4306.81  15
   0  -5  -4 53508.4 3976.36  22
   0  -5  -5 4751.21 977.387  22
   0   5   5 5454.38 1082.22  15
   0   5   6 7180.65 1150.52  20
   0  -5  -6 6239.65 861.145  22
   0  -5  -6 5654.64 865.005  10
   0   6 -11 40769.4 2354.89  13
   0   6 -11 47573.8 2630.61  12
   0   6 -10 13456.8 1649.13  12
   0   6 -10 12282.0 1515.93  13
   0   6  -9 12007.8 1746.45  13
   0   6  -9 11046.8 1905.55  12
   0   6  -8 131587. 7920.52  12
   0   6  -8 122638. 7735.27  10
   0   6  -8 144922. 7518.26  13
   0   6  -7 95175.5 6866.82  10
   0   6  -7 105995. 7157.42  12
   0   6  -6 123186. 7900.89  12
   0  -6   6 117815. 6567.50   6
   0  -6   6 112230. 6428.44  28
   0  -6   5 4128.68 1087.71   6
   0   6  -5 3018.84 1080.14  27
   0  -6   5 2297.38 799.815  28
   0  -6   5 4525.44 1139.73   5
   0  -6   4 9216.64 1636.82   6
   0  -6   4 7650.40 1498.17  28
   0   6  -4 8440.10 1752.32  27
   0  -6   4 8682.46 1706.89   5
   0   6  -3 44334.6 3842.23  27
   0  -6   3 47993.6 4080.54   5
   0  -6   3 46688.8 3865.54   6
   0   6  -3 49772.7 4810.07  25
   0   6  -2 73284.2 6054.15  25
   0  -6   2 61745.0 4840.68  28
   0   6  -1 88052.7 6728.29  25
   0  -6   1 100614. 6277.37   5
   0  -6   0 56655.9 4868.72  28
   0  -6   0 61889.0 5372.69   2
   0  -6  -1 24328.3 3145.93   9
   0   6   1 22698.3 2740.07  15
   0   6   2 2230.48 866.841  15
   0  -6  -2 3716.72 1168.69   9
   0   6   3 72001.3 4778.39  15
   0   6   4 92240.4 4975.18  15
   0  -6  -4 79225.2 4475.81  22
   0   6   5 44753.9 2738.53  15
   0  -6  -5 41038.5 2505.53  22
   0   7 -11 28082.7 1812.26  12
   0   7 -11 17329.3 1431.35  13
   0   7 -10 89492.0 4605.67  13
   0   7 -10 93514.9 4963.41  12
   0   7  -9 8210.85 1621.88  12
   0   7  -9 8591.90 1416.52  13
   0   7  -8 1408.19 908.749  12
   0   7  -8 2069.01 866.208  13
   0  -7   8 1798.00 788.503   9
   0  -7   7 4124.62 1124.30   9
   0   7  -7 3435.32 1317.77  12
   0  -7   6 62807.2 4512.00   9
   0   7  -6 66915.8 5717.15  12
   0   7  -6 57387.9 4766.50  21
   0   7  -5 41418.9 4228.99  11
   0  -7   5 55262.2 4252.45   9
   0   7  -5 57680.0 5201.11  12
   0   7  -5 50151.5 4434.21  21
   0   7  -4 45812.8 4638.52  12
   0   7  -4 41785.1 4335.44  11
   0  -7   4 52441.1 4376.54   9
   0   7  -4 50624.5 4501.24  21
   0   7  -3 39259.8 4285.25  12
   0  -7   3 38417.8 3829.80   9
   0   7  -3 44934.8 4235.07  21
   0   7  -2-636.722 567.024  15
   0  -7   2 120.728 495.715   9
   0   7  -2 632.516 529.188  21
   0   7  -2-784.360 708.438  12
   0   7  -1 1383.53 689.013  15
   0   7  -1 913.021 722.267  21
   0  -7   1 1524.16 964.961   9
   0  -7   0 77813.0 5857.02   9
   0   7   0 70535.2 5013.87  21
   0   7   0 87938.0 5641.69  15
   0   7   1 129319. 6864.15  15
   0  -7  -1 100092. 6765.52   9
   0   7   2 107608. 5930.34  15
   0  -7  -2 103295. 6053.09   9
   0   7   3 1452.81 520.133  15
   0   7   4 13967.6 1486.50  20
   0   7   4 13936.6 1381.80  15
   0   8 -10 46788.3 3079.19  12
   0   8 -10 42093.9 2675.27  13
   0   8  -9 45274.3 3128.49  13
   0   8  -9 44172.1 3622.97  12
   0   8  -8 42973.9 3335.51  13
   0   8  -8 37128.3 3758.41  12
   0   8  -7 24221.9 3285.08  12
   0   8  -7 21136.3 2513.87  13
   0  -8   6 17342.8 2138.64   9
   0   8  -6 11614.1 1993.45  21
   0   8  -6 13812.5 2173.83  13
   0   8  -6 15765.4 2643.31  12
   0  -8   5 21158.7 2503.87   9
   0   8  -5 25555.7 2981.68  21
   0   8  -5 22830.5 3213.92  12
   0   8  -4 62390.9 5208.90  11
   0  -8   4 77347.8 5418.39   9
   0   8  -4 68198.6 5826.90  12
   0   8  -4 69830.0 5239.60  21
   0   8  -3 45427.6 4515.05  12
   0   8  -3 50072.0 4360.42  21
   0  -8   3 49725.8 4419.54   9
   0   8  -2 92923.9 5789.36  21
   0  -8   2 91721.0 6140.43   9
   0   8  -1 8299.34 1608.04  15
   0  -8   1 6914.82 1640.63   9
   0   8  -1 7063.65 1476.28  21
   0  -8   0 11364.2 2037.72   9
   0   8   0 12431.9 1830.93  15
   0   8   1 65368.3 4088.59  15
   0  -8  -1 53248.2 3932.02   9
   0   8   2 88923.0 4537.52  11
   0   8   2 86235.9 4531.07  15
   0   8   3 45563.3 2567.27  15
   0   9 -10 1998.76 498.538  12
   0   9 -10 2188.61 476.582  13
   0   9  -9 12479.6 1353.89  13
   0   9  -9 13433.6 1673.92  12
   0   9  -8 41722.9 3552.69  12
   0   9  -8 40941.4 2948.12  13
   0   9  -7 38223.1 3169.98  21
   0   9  -7 44819.3 4057.48  12
   0   9  -6 32466.2 3005.39  21
   0   9  -6 32266.6 3560.17  12
   0   9  -5 48606.1 4520.24  12
   0   9  -5 43942.5 3870.48  11
   0   9  -5 53730.8 4011.57  21
   0   9  -4 3800.27 1051.52  21
   0   9  -4 3159.14 1010.66  11
   0  -9   4 2866.79 979.502   9
   0   9  -3 61921.6 4410.09  11
   0  -9   3 68814.8 4751.39   9
   0   9  -2 139019. 6886.74  11
   0   9  -2 111938. 6103.00  15
   0  -9   2 140611. 7369.93   9
   0   9  -2 122006. 6418.75  21
   0   9  -1 106070. 5584.20  15
   0  -9   1 113867. 6228.31   9
   0   9  -1 126473. 6166.28  11
   0   9  -1 105549. 5493.73  21
   0   9   0 35094.0 2656.70  11
   0  -9   0 30996.1 2513.25   9
   0   9   0 29474.4 2405.69  15
   0   9   1 1.38224 128.162  15
   0   9   1 535.821 316.870  11
   0  10  -8 5238.86 963.608  12
   0  10  -7 7305.21 1234.40  12
   0  10  -7 6766.82 1043.89  21
   0  10  -6 20961.4 2020.14  21
   0  10  -5 51542.4 3323.11  21
   0  10  -5 41412.1 3112.21  11
   0  10  -4 41442.0 3043.24  11
   0  10  -4 45082.6 3098.57  21
   0  10  -3 4487.55 878.719  21
   0  10  -3 5124.30 984.242  11
   0  10  -2 17794.4 1619.54  21
   0  10  -2 19578.9 1781.53  11
   0  10  -1 65315.4 3150.91  11
   0  10  -1 46992.1 2639.98  15
   0  11  -5 31070.0 1931.99  21
  -1  11  -3 19681.9 1613.99  11
  -1  11  -3 28424.7 1818.78  21
  -1  11  -4 19381.0 1617.84  21
  -1  11  -4 15901.8 1440.02  11
   1 -11   4 16738.0 1376.13   9
   1 -11   5 4643.64 667.677   9
  -1  11  -5 5126.70 819.191  21
  -1  11  -6 4736.83 769.428  21
  -1  10   0 1038.28 362.245  15
  -1  10   0 1635.81 466.370  11
   1 -10   1 5012.10 896.784   9
  -1  10  -1 4625.90 862.591  15
  -1  10  -1 5165.14 948.185  11
   1 -10   2 7743.85 1285.15   9
  -1  10  -2 7967.28 1194.41  15
  -1  10  -2 8164.98 1300.16  11
  -1  10  -2 8629.57 1255.95  21
  -1  10  -3 30526.2 2681.86  21
  -1  10  -3 29787.8 2660.14  11
   1 -10   3 31323.4 2680.52   9
  -1  10  -4 61940.3 4036.74  21
   1 -10   4 61224.3 3815.79   9
  -1  10  -4 49746.0 3704.25  11
   1 -10   5 51339.2 3345.34   9
  -1  10  -5 46023.4 3467.91  21
  -1  10  -6 8623.53 1386.05  21
   1 -10   6 9152.92 1246.24   9
  -1  10  -7 3281.33 825.996  21
   1 -10   7 3945.96 753.084   9
  -1  10  -7 3926.02 970.374  12
   1 -10   8 24228.0 1731.99   9
  -1  10  -8 24674.9 1924.23  13
  -1  10  -8 21195.0 2036.16  12
  -1  10  -9 36090.1 2087.84  13
  -1   9   2 3884.73 689.926  15
  -1   9   2 4217.41 713.381  11
   1  -9  -1 4426.25 870.117   9
  -1   9   1 3904.12 836.815  15
   1  -9   0 25887.9 2708.94   9
  -1   9   0 27665.3 2541.73  15
  -1   9  -1 95271.0 5557.11  15
   1  -9   1 106155. 6429.40   9
  -1   9  -1 97200.4 5617.97  21
   1  -9   2 54370.8 4360.72   9
  -1   9  -2 49408.2 4006.84  21
  -1   9  -2 43158.3 3632.76  15
  -1   9  -3 874.804 697.422  21
   1  -9   3 55.8035 546.369   9
  -1   9  -4 15793.1 2290.19  21
  -1   9  -4 9194.82 1813.09  11
   1  -9   4 15521.3 2103.48   9
   1  -9   5 117042. 6152.99   9
  -1   9  -5 110120. 6589.27  21
   1  -9   6 83525.6 4852.62   9
  -1   9  -6 74750.1 5831.07  12
  -1   9  -6 82166.7 5320.53  21
  -1   9  -7 40120.8 3918.86  12
   1  -9   7 45187.5 3169.04   9
  -1   9  -7 43319.7 3520.80  21
  -1   9  -8 1210.48 514.489  13
   1  -9   8 558.348 301.091   9
  -1   9  -8 1049.12 537.310  12
  -1   9  -9 18241.7 1704.41  13
  -1   9  -9 19086.6 2023.74  12
   1  -9   9 16824.2 1504.04   9
  -1   9 -10 22973.6 1644.37  13
  -1   8   3 21200.2 1893.74  15
  -1   8   2 12564.4 1656.02  15
   1  -8  -2 9789.75 1460.54   9
  -1   8   1 2362.33 829.592  15
   1  -8  -1 1947.36 923.873   9
   1  -8   0 3324.95 1134.17   9
  -1   8   0 1869.55 866.582  15
  -1   8  -1 54414.3 4415.95  15
  -1   8  -1 49412.1 4317.29  21
   1  -8   1 47081.5 4368.12   9
   1  -8   2 17035.9 2555.17   9
  -1   8  -2 13548.7 2299.18  21
  -1   8  -3 135011. 8421.45  21
  -1   8  -3 130341. 8606.82  12
  -1   8  -4 18710.6 2990.23  12
  -1   8  -4 16873.2 2682.03  21
   1  -8   4 19428.2 2554.76   9
   1  -8   5 6897.73 1432.89   9
  -1   8  -5 4850.90 1476.31  21
  -1   8  -5 5245.07 1603.95  12
   1  -8   6 68876.3 4504.50   9
  -1   8  -6 62020.1 5474.22  12
  -1   8  -7 76429.3 6050.69  12
   1  -8   7 75156.7 4662.94   9
   1  -8   8 23736.8 2285.29   9
  -1   8  -8 27838.6 3185.32  12
  -1   8  -9 1263.78 542.064  12
  -1   8  -9 3125.39 786.185  13
   1  -8   9 2662.49 644.735   9
  -1   8 -10 996.003 456.113  13
   1  -8  10 703.339 282.794   9
  -1   8 -10 1589.90 524.497  12
   1  -7  -5 2577.65 478.669  10
  -1   7   5 2079.10 502.441  20
  -1   7   4 7050.94 1102.97  15
   1  -7  -4 5209.26 848.167  22
  -1   7   3 39978.4 3290.37  15
   1  -7  -3 36860.6 3078.96   9
   1  -7  -2 70459.5 5165.49   9
  -1   7   2 86739.7 5476.02  15
   1  -7  -1 116673. 7316.00   9
  -1   7   1 117917. 7055.51  15
   1  -7   0 21609.1 2835.73   9
  -1   7  -1 20479.4 2905.07  21
   1  -7   1 16874.9 2469.13   9
   1  -7   2 55102.8 4683.30   5
   1  -7   2 60714.9 4792.17   9
   1  -7   2 50355.9 4496.70  28
  -1   7  -2 53168.9 5052.68  21
   1  -7   3 104615. 6944.49   5
  -1   7  -3 104032. 8218.62   3
   1  -7   4 120392. 6912.82   5
  -1   7  -4 109127. 7700.64  21
  -1   7  -4 103494. 7905.70   3
   1  -7   4 114996. 6864.34  24
   1  -7   4 109422. 6624.96  28
   1  -7   4 124192. 6901.67   6
   1  -7   5 26751.1 2832.47   9
  -1   7  -5 21580.0 3032.69  21
  -1   7  -5 22283.1 3174.37  12
  -1   7  -6 3757.29 1175.37  21
   1  -7   6 4687.08 1212.57   9
  -1   7  -6 4991.20 1626.48  12
   1  -7   7 59545.6 4171.06   9
  -1   7  -7 51794.4 4544.57  23
  -1   7  -7 60217.5 5379.02  12
  -1   7  -8 78903.2 5871.70  12
   1  -7   8 70863.4 4507.59   9
   1  -7   9 48284.2 3345.24   9
  -1   7  -9 50247.6 3695.79  13
  -1   7  -9 51948.8 4184.67  12
   1  -7  10 3975.76 749.750   9
  -1   7 -10 5780.82 1006.90  13
  -1   7 -10 5173.82 965.323  12
  -1   7 -11 445.519 220.491  12
   1  -6  -6 16668.6 1232.10  22
   1  -6  -6 17264.5 1338.48  10
  -1   6   6 15293.0 1531.51  20
   1  -6  -5 20315.1 1775.56  22
  -1   6   4 26551.6 2692.84  15
   1  -6  -4 23637.2 2395.75  18
   1  -6  -4 27054.7 2451.73  22
   1  -6  -3-76.7697 429.039   9
   1  -6  -3 451.706 513.611  22
  -1   6   3 25.0272 384.890  15
   1  -6  -2 34627.7 3658.85   9
   1  -6  -2 29184.8 3130.64  22
   1  -6  -1 128891. 7469.41   9
   1  -6   0 69759.2 5389.38  28
  -1   6   0 103588. 7248.94   3
   1  -6   0 109467. 7151.81   2
  -1   6   0 83826.9 7352.24  25
  -1   6  -1 65074.9 6148.54  25
   1  -6   1 45775.3 4012.35  28
  -1   6  -1 62050.4 5645.71   3
   1  -6   1 51506.0 4171.12   5
  -1   6  -2 7022.44 1928.11  25
   1  -6   2 4300.98 1118.96   5
   1  -6   2 7492.25 1506.81  28
  -1   6  -2 6846.33 1985.95   3
   1  -6   2 7504.39 1674.67  24
   1  -6   3 121097. 6627.94  24
   1  -6   3 98271.5 5765.27  28
  -1   6  -3 69453.9 6615.94   3
   1  -6   3 111050. 6035.39   6
  -1   6  -3 110494. 6412.55  27
   1  -6   3 70632.5 5100.29   5
  -1   6  -4 111594. 8102.12   3
  -1   6  -4 103548. 6736.13  27
   1  -6   4 127956. 6514.83   6
   1  -6   4 119591. 6324.07  28
   1  -6   4 117995. 6396.75  24
   1  -6   5 56237.3 3846.72  28
  -1   6  -5 55088.2 4757.12  27
   1  -6   5 36867.2 3290.67   6
   1  -6   5 40404.4 3344.24   5
   1  -6   6 24908.5 2538.90  28
   1  -6   6 27090.8 2611.85   4
   1  -6   6 28548.6 2736.12   5
  -1   6  -6 33669.2 3599.82  23
  -1   6  -7 2408.71 1153.97  12
  -1   6  -7 1077.75 632.921  23
  -1   6  -8 1908.39 936.745  12
  -1   6  -8 2073.61 861.281  23
  -1   6  -9 23881.9 2520.89  13
  -1   6  -9 21164.6 2208.72  23
  -1   6  -9 29217.6 3038.80  12
  -1   6 -10 27287.3 2335.37  12
  -1   6 -10 26722.5 2248.81  13
   1  -6  11 32880.5 2032.08   9
  -1   6 -11 33261.7 2035.06  12
   1  -5  -7 3392.65 537.978  22
   1  -5  -7 2916.41 505.666  10
  -1   5   7 4280.13 777.597  20
   1  -5  -6 10860.0 1320.06  10
   1  -5  -6 10451.9 1245.47  22
   1  -5  -5 32991.8 2776.47  18
   1  -5  -5 33225.4 2765.67  22
   1  -5  -4 60032.7 4273.39   9
   1  -5  -4 53024.7 4000.10  22
  -1   5   4 58442.4 4496.81  15
   1  -5  -3 54667.2 4379.53   9
  -1   5   3 58166.2 4612.47  15
   1  -5  -3 52931.1 4251.60  22
  -1   5   2 4910.89 1734.49  25
   1  -5  -2 6456.76 1552.49   2
  -1   5   2 5034.25 1329.84   7
   1  -5  -2 4973.32 1291.38  26
  -1   5   1 22897.1 3049.55   3
  -1   5   1 23818.7 4039.98  25
   1  -5  -1 27049.2 3390.20   2
   1  -5   0 107576. 6049.23  28
  -1   5   0 104572. 8868.46  25
   1  -5   0 127221. 7573.69   2
   1  -5   0 115361. 6152.38   5
  -1   5   0 88783.2 6911.73   3
  -1   5  -1 243786. 13350.3   3
  -1   5  -1 271052. 14974.8  25
   1  -5   1 250558. 10604.0  28
   1  -5   1 281774. 11188.6   2
   1  -5   1 268766. 10801.5   5
   1  -5   2 120184. 6026.48  28
  -1   5  -2 120173. 6194.56  27
  -1   5  -2 125504. 8638.06  25
  -1   5  -2 112037. 8413.96   3
   1  -5   2 113276. 5870.04   6
   1  -5   2 119683. 5978.61   5
  -1   5  -3 61259.4 5322.73  25
   1  -5   3 67706.5 4175.90   5
   1  -5   3 66702.5 4237.30   6
  -1   5  -3 64136.1 4604.00  27
  -1   5  -3 58417.8 5646.87   3
   1  -5   3 62268.9 3994.75  28
   1  -5   3 72852.1 4596.99  24
   1  -5   4 10342.6 1531.96  24
   1  -5   4 10939.7 1624.18   6
  -1   5  -4 6505.98 1814.77   3
   1  -5   4 11275.4 1541.40  28
   1  -5   4 11037.2 1547.84   5
   1  -5   4 10333.2 1488.00   4
  -1   5  -4 9382.33 1789.35  27
   1  -5   5 54489.8 3717.78   4
   1  -5   5 51157.9 3601.67   5
  -1   5  -5 51648.8 4464.28  27
   1  -5   5 56414.0 3656.52  28
   1  -5   6 22238.3 2262.38  28
   1  -5   6 14133.6 1894.43   5
   1  -5   6 22085.2 2430.60   6
  -1   5  -6 22998.4 2928.44  27
   1  -5   6 21538.4 2340.58   4
  -1   5  -7 32630.5 3679.77  12
  -1   5  -7 26657.6 2945.63  23
  -1   5  -8 54.0087 520.887  23
  -1   5  -8 969.164 718.213  12
  -1   5  -9 4270.13 1086.36  12
  -1   5  -9 1740.02 709.004  13
  -1   5 -10 358.194 258.883  12
  -1   5 -11 8041.21 914.309  12
   1  -4  -8 24792.7 1507.73  10
   1  -4  -8 24671.1 1501.38  22
   1  -4  -7 47404.9 2871.05  10
   1  -4  -7 45839.2 2773.43  22
   1  -4  -6 1666.14 591.512  18
   1  -4  -6 1788.84 664.685  22
   1  -4  -5 5001.99 1167.73  18
   1  -4  -5 4518.46 1098.73  22
   1  -4  -4 34588.7 3162.55   9
   1  -4  -4 36247.7 3284.65  22
  -1   4   4 29134.6 3126.64  15
   1  -4  -3 77927.9 5089.50  26
   1  -4  -3 82996.9 5579.28   2
  -1   4   3 89570.5 7623.04  25
   1  -4  -2 112675. 6236.45  26
   1  -4  -2 104868. 6744.47   2
  -1   4   1 73323.3 5541.40   3
  -1   4   1 42804.5 6121.46  25
   1  -4   0 6456.46 1521.02   2
   1  -4   0 7706.18 1213.66   5
  -1   4   0 3024.41 1946.48  25
   1  -4   0 6079.50 1102.96  28
  -1   4   0 5868.49 1666.99   3
   1  -4   1 66491.6 3703.37  28
  -1   4  -1 63135.5 3547.36  27
   1  -4   1 68258.7 3731.15   6
   1  -4   1 66854.4 3673.49   5
  -1   4  -1 57166.8 5400.81   3
   1  -4   1 70834.1 3979.76   2
   1  -4   2 118140. 6224.11  24
   1  -4   2 127022. 4949.88   2
  -1   4  -2 115675. 7960.27   3
  -1   4  -2 117558. 6060.87  27
   1  -4   2 127172. 5617.85   5
   1  -4   2 127879. 5783.15   6
   1  -4   2 136922. 5682.95  28
   1  -4   3 97659.3 4876.77   4
   1  -4   3 87489.6 4766.52  24
  -1   4  -3 88881.4 5454.55  27
   1  -4   3 92330.5 4528.28  28
   1  -4   3 95058.9 4731.66   5
  -1   4  -3 78983.1 6051.83   3
  -1   4  -3 84584.0 5765.92  25
   1  -4   3 99912.5 5029.72   6
  -1   4  -4 67649.8 4854.40  27
   1  -4   4 72218.0 3946.45  28
   1  -4   4 80688.3 4456.29   6
  -1   4  -4 73457.7 5430.30   3
   1  -4   4 70596.1 4051.31   5
   1  -4   4 66891.9 3869.84  24
   1  -4   4 79534.7 4364.87   4
   1  -4   5 4518.88 979.495   5
   1  -4   5 4156.89 913.401   7
   1  -4   5 5162.98 1096.71   6
   1  -4   5 3572.22 858.806  28
  -1   4  -5 4131.44 1186.50  27
   1  -4   5 2766.26 781.524   4
  -1   4  -5 4597.57 1163.49  26
   1  -4   6 4854.59 1085.14  28
   1  -4   6 4621.00 1095.70   4
  -1   4  -6 3946.24 1064.81  27
   1  -4   6 4561.97 1087.88   6
   1  -4   6 3101.91 861.711   5
  -1   4  -6 4835.67 1275.36  26
  -1   4  -7 8573.08 1778.56  12
   1  -4   7 7016.69 1366.10  28
  -1   4  -8 38243.7 3547.41  12
  -1   4  -9 35284.7 2827.69  17
  -1   4  -9 41507.9 3219.72  12
  -1   4 -10 25213.7 1993.82  17
  -1   4 -10 35797.4 2489.69  12
  -1   4 -11 1256.12 343.788  12
   1  -3  -8 15906.5 1448.41  22
  -1   3   8 18300.7 1951.24  20
   1  -3  -8 16788.7 1490.73  10
   1  -3  -7 58797.7 3747.49  10
   1  -3  -7 63147.4 3737.47  18
   1  -3  -6 96443.6 5516.65  18
   1  -3  -6 115917. 5847.07  22
   1  -3  -5 110324. 6206.52  18
   1  -3  -5 124239. 6428.39  22
   1  -3  -4 1492.50 723.952  26
   1  -3  -4 1905.53 738.220   2
  -1   3   4 1391.34 685.203   7
   1  -3  -3 131036. 6517.36  26
  -1   3   3 140165. 7384.98   7
   1  -3  -2 254386. 9691.43  26
  -1   3   2 227785. 10054.4   3
   1  -3  -1 276997. 12401.1   2
   1  -3  -1 255699. 9280.94  28
  -1   3   0 71236.9 5831.72   3
   1  -3   0 116316. 4806.42   5
   1  -3   0 111083. 4757.18  28
  -1   3   0 57210.4 7440.87  25
  -1   3   0 101693. 4022.84  27
   1  -3   0 120480. 5895.95   2
   1  -3   1 1683.15 452.157  28
   1  -3   1 1882.49 503.115   2
  -1   3  -1 2805.09 2183.73  25
   1  -3   1 1373.06 447.122   6
  -1   3  -1 1504.80 549.093  27
  -1   3  -1 1698.81 1107.04   3
   1  -3   1 1649.45 467.314   5
   1  -3   2 4891.36 573.767   2
  -1   3  -2 4152.40 1254.57   3
  -1   3  -2 6312.99 1183.91  27
   1  -3   2 5005.77 826.483   5
   1  -3   2 5240.99 772.966  28
   1  -3   2 4355.14 809.308   4
  -1   3  -2 4170.92 1905.94  25
   1  -3   2 5201.36 965.972  24
   1  -3   3 20695.6 1919.73   4
   1  -3   3 18881.0 1694.80   5
  -1   3  -3 20620.0 2054.99  26
   1  -3   3 20086.0 1664.76  28
   1  -3   3 25601.9 2143.07   6
  -1   3  -3 17056.0 2081.21  27
   1  -3   3 16696.5 1632.53  24
   1  -3   3 19867.6 1777.39   7
  -1   3  -3 18493.5 2230.17   3
   1  -3   4 259247. 9894.55   4
   1  -3   4 220288. 8985.23  24
  -1   3  -4 248136. 10690.0  27
   1  -3   4 228955. 9458.50   5
   1  -3   4 256881. 9915.48   6
   1  -3   4 258223. 9698.73   7
  -1   3  -4 290564. 11013.2  26
   1  -3   4 223900. 9160.98  28
  -1   3  -4 272858. 10444.3   3
   1  -3   5 92574.3 5249.26   7
   1  -3   5 96505.8 5475.56   4
  -1   3  -5 104016. 5855.69  27
   1  -3   5 89427.7 5382.04   6
  -1   3  -5 102340. 5925.66  26
  -1   3  -6 23783.6 2704.33  26
  -1   3  -6 16155.1 2161.04  27
   1  -3   6 19920.4 2359.63   7
   1  -3   6 23349.0 2616.43   4
   1  -3   6 19852.8 2482.35   6
   1  -3   7 4688.72 1222.19   7
  -1   3  -7 4321.03 1045.41  17
  -1   3  -7 6404.20 1384.84  12
  -1   3  -7 4080.66 1140.98  27
  -1   3  -8 4573.93 1036.58  17
  -1   3  -8 4842.37 1157.32  12
  -1   3  -9 30979.4 2636.35  12
  -1   3  -9 29433.3 2487.18  17
  -1   3 -10 51969.6 3020.06  12
  -1   3 -10 47155.6 2811.77  17
  -1   3 -11 25054.3 1537.36  12
   1  -2  -9 19974.3 1508.24  22
   1  -2  -9 26948.2 1725.55  10
   1  -2  -9 25540.4 1599.79  17
   1  -2  -9 20990.0 1489.62  12
   1  -2  -8 1760.46 563.177  18
   1  -2  -8 1922.58 566.771  17
   1  -2  -8 1322.25 498.921  22
   1  -2  -8 1586.89 490.461  10
   1  -2  -7 27350.1 2442.90  22
   1  -2  -7 25028.2 2363.61  18
   1  -2  -7 29227.7 2532.84  17
   1  -2  -7 27990.8 2534.65  10
   1  -2  -6 18516.8 2128.05  17
   1  -2  -6 18334.7 2129.17  18
   1  -2  -6 22482.6 2318.53  22
   1  -2  -5 178685. 7949.92  26
   1  -2  -5 212567. 9063.14   2
   1  -2  -4 90289.0 4823.52  26
  -1   2   4 97445.3 5949.24   7
   1  -2  -3 44675.4 3795.15   2
   1  -2  -3 35274.2 2616.57  26
  -1   2   2 105860. 6158.32   3
  -1   2   2 97026.6 9051.61  25
   1  -2  -1 223095. 9202.84   2
  -1   2   1 197097. 11123.2  25
   1  -2   0 97994.0 3670.26  28
   1  -2   0 94036.7 4845.69  24
   1  -2   0 103611. 3690.61   5
   1  -2   0 89340.1 4123.32   2
  -1   2  -1 31689.8 2385.14  27
  -1   2  -1 43725.5 3370.07  25
   1  -2   1 35965.9 1889.76   5
   1  -2   1 37856.8 1799.12  28
   1  -2   1 39877.2 2643.77  24
   1  -2   1 39462.6 1972.05   2
   1  -2   2 41070.8 2499.63   7
   1  -2   2 45638.8 2626.15   6
  -1   2  -2 42667.7 2874.60  25
   1  -2   2 37881.6 2312.11   5
   1  -2   2 41731.0 2636.00  24
   1  -2   2 39922.7 2138.52  28
  -1   2  -2 39261.4 2770.64   3
  -1   2  -2 44170.6 2734.16  26
   1  -2   3 31141.2 2225.21  24
   1  -2   3 26822.4 2242.25   4
   1  -2   3 23991.4 2134.61   6
  -1   2  -3 25558.5 2112.72   3
  -1   2  -3 31899.7 2776.63  27
   1  -2   3 23315.5 2099.96   7
  -1   2  -3 25279.4 2355.78  26
   1  -2   4 13708.8 1773.34   7
  -1   2  -4 13060.9 1725.13  27
  -1   2  -4 13914.0 1823.86  26
   1  -2   4 10915.5 1595.06   4
   1  -2   4 13028.2 1762.30   6
   1  -2   5 43446.3 3709.49   4
   1  -2   5 45536.8 3774.35   7
   1  -2   5 45578.6 3862.79   6
  -1   2  -5 52350.6 3752.51  27
  -1   2  -6 85574.1 5107.94  27
   1  -2   6 68875.1 5175.72   4
   1  -2   6 57053.7 4899.86   6
  -1   2  -6 91682.2 5123.85  26
   1  -2   6 73682.2 5303.35   7
  -1   2  -7 95381.8 5454.24  17
  -1   2  -7 91091.9 5451.15  22
  -1   2  -8 27435.8 2569.95  17
  -1   2  -9 7255.17 1169.34  12
  -1   2  -9 10358.4 1349.39  17
  -1   2 -10 30551.8 2050.32  17
  -1   2 -10 33365.6 2183.94  12
   1  -1  -9 66246.2 3399.74  18
   1  -1  -9 66276.6 3420.46  22
   1  -1  -9 65174.5 3467.01  12
   1  -1  -9 69247.0 3559.06  10
   1  -1  -9 71783.0 3596.79  17
   1  -1  -8 26347.2 2314.86  10
   1  -1  -8 28293.6 2382.57  17
   1  -1  -8 24267.9 2226.66  18
   1  -1  -8 26972.0 2279.30  22
   1  -1  -7 39396.7 3100.14  17
   1  -1  -7 34662.1 2905.25  18
   1  -1  -7 37115.0 3004.26  10
   1  -1  -7 34124.7 2839.31  22
  -1   1   6 20767.7 2921.90   7
   1  -1  -6 17089.3 1941.50  26
  -1   1   6 22047.7 3027.19   4
  -1   1   5 229748. 10492.1   7
  -1   1   5 239716. 10696.2   4
   1  -1  -5 213208. 8499.00  26
  -1   1   4 177909. 8666.28   7
   1  -1  -4 192691. 7532.37  26
   1  -1  -3 132442. 6955.74   2
   1  -1  -3 119575. 4723.33  24
   1  -1  -3 130360. 5421.29  26
  -1   1   2 2219.71 1156.59  25
   1  -1  -2 2046.87 803.804   2
   1  -1  -2 1887.94 517.770  24
  -1   1   2 1347.00 568.518   3
   1  -1  -2 1544.74 454.072  26
   1  -1  -2 1263.78 193.456  27
  -1   1   1 49634.3 1795.11  29
  -1   1   1 49392.4 2881.91   3
   1  -1  -1 67256.0 2949.03  24
   1  -1  -1 54257.3 2952.97   2
   1  -1  -1 39310.6 1586.76   1
   1  -1  -1 58021.5 2255.37  26
  -1   1   0 51920.9 2582.82  29
   1  -1   0 52373.3 2092.35   6
   1  -1   0 45392.1 2362.10   2
   1  -1   0 51324.0 1849.29   5
   1  -1   0 50244.3 2278.38   8
   1  -1   1 333972. 10659.1   6
   1  -1   1 366071. 11326.4  24
  -1   1  -1 353642. 10960.2  26
   1  -1   2 64404.3 3537.21   6
  -1   1  -2 66027.1 3639.86  26
   1  -1   2 70727.8 3515.60  24
  -1   1  -3 18667.7 1991.55  26
   1  -1   3 19235.9 1690.12  24
   1  -1   3 14322.0 1820.08   7
  -1   1  -3 19449.8 2058.21  29
   1  -1   3 17333.9 1931.67   4
  -1   1  -4 15866.6 2429.36   2
  -1   1  -4 19390.2 1996.51  26
   1  -1   4 17163.1 2217.42   7
   1  -1   4 17924.1 2227.52   4
  -1   1  -4 18347.6 2001.37  27
   1  -1   5 43721.0 3937.57   6
  -1   1  -5 35059.2 2850.58  26
  -1   1  -5 36093.7 3077.17  27
   1  -1   5 37602.4 3659.92   7
   1  -1   5 32802.0 3399.82   4
   1  -1   6 20150.3 2800.55   4
   1  -1   6 17798.4 2721.71   6
   1  -1   6 20324.5 2907.13   7
  -1   1  -6 21673.3 2246.21  26
  -1   1  -7 92022.8 5426.39  17
  -1   1  -7 96776.4 5510.00  22
  -1   1  -8 44664.3 3295.33  17
  -1   1  -9 21080.4 1891.24  12
  -1   1  -9 20867.4 1870.17  17
  -1   1 -10 266.857 163.709  12
  -1   1 -10 1161.05 321.184  17
   1   0 -10 682.936 286.368  12
   1   0 -10 468.261 209.203  10
   1   0 -10 200.159 207.670  17
   1   0  -9 24146.9 2059.25  12
   1   0  -9 22656.9 1991.00  18
   1   0  -9 24361.8 2064.51  10
   1   0  -9 25461.9 2105.66  17
   1   0  -8 55735.1 3611.28  18
   1   0  -8 56809.5 3660.17  10
   1   0  -8 63634.4 3854.16  17
   1   0  -7 89267.7 5068.05  22
   1   0  -7 94668.9 5324.64  18
   1   0  -7 107549. 5663.16  17
   1   0  -7 98427.6 5412.20  10
   1   0  -6 26483.4 2450.72  26
  -1   0   6 28938.2 3491.37   4
  -1   0   6 26829.5 3461.56   7
  -1   0   5 6156.37 1404.49   4
   1   0  -5 8414.16 1290.48  26
   1   0  -5 6938.38 1207.68   2
  -1   0   5 7744.67 1631.13   7
  -1   0   4 9248.04 1645.77   7
  -1   0   4 5921.63 1527.06  25
   1   0  -4 8340.58 1391.59   2
   1   0  -4 8950.50 1396.83  27
   1   0  -4 9213.61 1338.79  26
   1   0  -3 59247.6 3583.99   2
  -1   0   3 58853.7 4023.08  25
   1   0  -3 64428.9 3484.08  27
   1   0  -3 59595.3 3311.25  26
   1   0  -3 61227.3 3559.39   8
   1   0  -2 204269. 6034.91  26
   1   0  -2 176202. 5467.87  27
   1   0  -2 168119. 6011.64   2
   1   0  -2 118500. 4724.40  24
  -1   0   2 133807. 4915.38   3
   1   0  -2 128031. 5296.37   1
   1   0  -1 153447. 5048.36  27
   1   0  -1 148754. 5475.40   2
   1   0  -1 157881. 5080.61   1
   1   0  -1 140497. 4694.63  26
   1   0   0 39217.1 1650.67   4
   1   0   0 44448.1 2251.90  24
   1   0   0 39304.7 1906.67   7
   1   0   0 46200.8 2251.73   1
  -1   0   0 43490.5 1654.85  28
   1   0   1 79600.8 3701.81  24
   1   0   1 74226.3 3599.82   4
  -1   0  -2 2489.52 775.068  29
  -1   0  -2 2696.15 733.500  26
   1   0   2 2091.05 700.790   4
  -1   0  -3 134320. 6093.47  26
   1   0   3 144108. 7499.70   7
   1   0   3 130403. 6611.36   4
  -1   0  -3 126000. 6317.41  29
  -1   0  -4 142110. 6618.23  26
  -1   0  -4 143407. 7056.80  29
   1   0   4 136304. 7940.41   7
  -1   0  -4 137340. 8383.06   2
   1   0   4 137419. 7530.76   4
  -1   0  -5 147302. 7071.81  27
  -1   0  -5 150012. 6882.11  26
   1   0   5 134477. 8149.42   4
  -1   0  -6 10453.5 1677.53  22
   1   0   6 12683.2 2368.68   6
  -1   0  -6 9209.93 1600.35  17
   1   0   7 15412.6 2344.06  20
  -1   0  -7 14123.6 1880.29  17
  -1   0  -7 15994.3 1993.17  22
   1   0   8 27713.4 2861.41  20
  -1   0  -8 32259.5 2624.84  17
  -1   0  -8 33315.9 2637.11  22
  -1   0  -9 52395.5 2982.28  12
  -1   0  -9 52871.9 2982.87  17
   1   1 -10 46464.0 2767.93  12
   1   1 -10 48158.7 2773.84  10
   1   1 -10 49977.9 2804.96  17
   1   1 -10 46780.8 2710.85  18
   1   1  -9 10346.1 1388.06  12
   1   1  -9 9402.02 1352.39  10
   1   1  -9 11573.9 1467.95  17
   1   1  -9 10476.8 1412.50  18
   1   1  -8 17503.2 2023.97  10
   1   1  -8 16581.3 1947.22  12
   1   1  -8 17006.3 1975.12  18
   1   1  -8 20243.5 2153.94  17
   1   1  -7 119936. 6215.57  17
   1   1  -7 110976. 6049.82  10
  -1  -1   7 102477. 7463.84   4
   1   1  -7 110278. 5953.11  18
   1   1  -7 102687. 5816.19  26
  -1  -1   6 117967. 7370.82   7
  -1  -1   6 131743. 7747.05   4
   1   1  -5 18917.9 2130.34  26
   1   1  -5 20547.1 2227.58  27
  -1  -1   5 20753.7 2495.12   4
  -1  -1   5 18828.2 2362.69   7
  -1  -1   4 26664.9 2495.96   7
   1   1  -4 19443.1 1825.35   2
  -1  -1   4 31737.3 2734.16   4
   1   1  -4 41455.8 3296.06  27
  -1  -1   4 30332.5 2391.41  25
   1   1  -4 29699.4 2458.97   8
   1   1  -4 34054.3 2604.12  26
  -1  -1   3 52841.2 3402.86   6
  -1  -1   3 31064.2 2398.82   7
   1   1  -3 41553.9 2668.66  26
   1   1  -3 45158.0 2967.06  27
  -1  -1   3 41735.7 2719.58   4
   1   1  -3 41527.7 2771.59   8
   1   1  -3 40671.0 2438.34   2
   1   1  -2 61654.8 3045.87   1
  -1  -1   2 52449.9 2773.38   6
   1   1  -2 59076.2 2901.20  27
  -1  -1   2 56769.0 2761.04   5
   1   1  -2 56556.7 2672.68  26
  -1  -1   1 165618. 5311.60   6
  -1  -1   1 159577. 5802.43  28
  -1  -1   1 159261. 5592.68   5
   1   1  -1 157464. 6052.20   1
  -1  -1   0 164517. 5785.31  28
  -1  -1   0 168471. 5908.36   5
   1   1   0 151148. 5959.50   1
   1   1   1 171965. 7962.32   7
  -1  -1  -1 171882. 7018.47  28
  -1  -1  -1 185730. 7419.79  29
   1   1   1 178802. 7191.24   1
   1   1   2 69395.6 4925.92  25
   1   1   2 51363.2 3622.87   4
  -1  -1  -2 61737.5 4134.27  26
  -1  -1  -2 61637.6 3781.24  29
   1   1   2 62616.7 4654.29   7
   1   1   2 58368.9 3645.98   1
   1   1   3 799.832 680.056   4
  -1  -1  -3 293.126 357.475  29
   1   1   3 1077.99 832.242   7
  -1  -1  -3 1432.20 618.317  26
  -1  -1  -3 678.285 1256.28   2
   1   1   3 822.546 752.344  25
   1   1   3 3597.82 964.676   1
   1   1   4 77700.3 5543.61   4
  -1  -1  -4 61360.9 5342.61   2
  -1  -1  -4 62225.8 4254.05  26
   1   1   4 73534.9 5805.25   7
  -1  -1  -5 145382. 8140.95   2
  -1  -1  -5 128466. 6685.70  26
   1   1   5 154907. 8701.39   7
  -1  -1  -6 44888.3 3559.35  22
  -1  -1  -6 41231.5 3505.32  17
  -1  -1  -7 7474.84 1317.18  17
   1   1   7 7535.69 1533.14  20
  -1  -1  -7 8400.72 1405.78  22
  -1  -1  -8 204.609 248.785  17
   1   1   8-298.764 247.940  20
  -1  -1  -9 22958.3 1576.15  12
  -1  -1  -9 16475.6 1345.79  17
   1   2 -11 28170.2 1656.96  17
   1   2 -11 22698.4 1486.47  10
   1   2 -11 25856.3 1618.24  12
   1   2 -10 51495.2 3091.12  12
   1   2 -10 51970.7 3091.03  18
   1   2 -10 53639.6 3091.98  17
   1   2 -10 50076.2 3063.95  10
   1   2  -9 77974.6 4481.61  12
   1   2  -9 76582.1 4478.46  10
   1   2  -9 71696.3 4294.04  17
   1   2  -9 75264.8 4423.83  18
   1   2  -8 14786.1 1925.90  12
   1   2  -8 13517.6 1853.62  18
   1   2  -8 15936.6 1993.76  17
   1   2  -8 14626.7 1947.89  10
  -1  -2   7 7039.02 1670.51   4
   1   2  -7 8171.53 1507.74  26
  -1  -2   7 7953.16 1767.10   6
  -1  -2   6 7085.86 1553.42   4
   1   2  -6 9033.74 1548.07  27
   1   2  -6 4519.60 1145.27  26
   1   2  -5 173320. 8040.15  26
  -1  -2   5 175010. 8610.52   6
   1   2  -5 168836. 7719.28   8
  -1  -2   5 165515. 8233.76   4
  -1  -2   4 290875. 11097.1   5
   1   2  -4 314177. 11161.3   8
  -1  -2   4 299101. 11702.0   6
   1   2  -4 362102. 12688.9  27
   1   2  -4 315149. 11371.0  26
  -1  -2   4 251059. 10269.5   7
  -1  -2   4 274795. 11061.9   4
  -1  -2   3 81069.0 3404.95   7
  -1  -2   3 109771. 4879.45   5
  -1  -2   3 116151. 5025.85   6
  -1  -2   3 93815.0 4686.51  28
   1   2  -3 112676. 5517.87   1
   1   2  -3 106714. 5189.85  27
  -1  -2   3 94732.9 4270.67   4
   1   2  -3 107836. 4865.54   8
  -1  -2   2 1875.58 542.235   5
  -1  -2   2 2351.58 698.816  28
   1   2  -2 1580.56 582.019   1
   1   2  -2 3366.33 768.009   8
   1   2  -2 2329.05 639.275  27
  -1  -2   2 1534.31 302.315   4
   1   2  -1 2074.55 374.253   7
   1   2  -1 2765.20 659.577   1
  -1  -2   1 1831.72 416.813   6
  -1  -2   1 1803.62 521.908  28
  -1  -2   1 2721.39 579.063   5
   1   2  -1 2869.34 683.586  27
  -1  -2   0 65435.9 3607.96  29
  -1  -2   0 66405.4 3500.16   5
   1   2   0 65777.8 5068.32  25
  -1  -2   0 54751.0 3226.37  28
   1   2   0 53603.5 3149.07   1
   1   2   0 67037.2 4196.68   7
   1   2   1 316323. 13259.9   7
   1   2   1 275791. 10790.7   1
  -1  -2  -1 274632. 11060.3  28
  -1  -2  -1 319816. 11418.1  29
  -1  -2  -2 307710. 18027.7   2
   1   2   2 385972. 14412.2   1
  -1  -2  -2 341381. 14360.1  29
   1   2   2 600274. 19646.5  25
   1   2   2 495501. 17540.4   7
  -1  -2  -2 469385. 16003.0  26
   1   2   3 146494. 8233.37   7
  -1  -2  -3 118372. 6952.82  26
   1   2   3 134004. 7261.12   4
  -1  -2  -3 129855. 8688.65   2
   1   2   4-425.388 381.899   4
   1   2   4 664.722 553.059   7
  -1  -2  -4-505.568 501.544   2
  -1  -2  -4 517.833 393.199  26
  -1  -2  -5 162292. 8250.28  17
  -1  -2  -5 167358. 8282.62  22
  -1  -2  -6 47832.2 3684.39  17
  -1  -2  -6 53168.5 3841.25  22
  -1  -2  -7 73070.5 4164.61  10
  -1  -2  -7 78890.1 4350.14  17
   1   2   7 78276.1 4889.07  20
  -1  -2  -7 79175.8 4404.99  22
  -1  -2  -8 13393.8 1303.79  17
   1   2   8 13387.0 1484.47  20
   1   3 -11 437.585 216.081  12
   1   3 -11 412.639 195.167  17
   1   3 -11 842.335 271.106  10
   1   3 -10 46049.8 2993.72  18
   1   3 -10 45749.9 3007.71  12
   1   3 -10 44851.9 2902.02  17
   1   3 -10 45133.1 2989.65  10
   1   3  -9 55620.6 3822.71  12
   1   3  -9 54382.3 3773.45  18
   1   3  -9 54094.0 3805.24  10
   1   3  -9 52352.6 3654.53  17
   1   3  -8 51998.1 4042.95  12
   1   3  -8 42770.0 3574.44  17
   1   3  -8 46907.0 3908.06  10
   1   3  -8 45588.5 3701.33  18
   1   3  -8 43419.1 3442.54  13
  -1  -3   7 33618.1 3401.12   6
   1   3  -7 33646.2 3126.72  27
   1   3  -7 22452.4 2767.85  26
  -1  -3   7 31947.1 3173.96  28
  -1  -3   7 29703.8 3089.66   5
  -1  -3   6 11811.3 1727.60   5
  -1  -3   6 10498.3 1661.79  28
  -1  -3   6 9340.94 1644.44   6
   1   3  -6 9154.99 1643.60  26
   1   3  -6 9344.41 1800.91  27
  -1  -3   5 6967.63 1221.92   5
  -1  -3   5 7822.89 1312.26  28
  -1  -3   5 6871.53 1292.85   6
   1   3  -5 8584.50 1702.82  27
  -1  -3   5 7467.18 1280.29   4
   1   3  -5 4332.45 965.257   8
  -1  -3   4 182239. 7749.61  28
   1   3  -4 165047. 8291.11  27
  -1  -3   4 171155. 7141.45   4
  -1  -3   4 188413. 7782.64   5
  -1  -3   4 196246. 7981.97   6
   1   3  -4 170580. 7594.92   8
   1   3  -3 102343. 4947.18   8
   1   3  -3 89460.9 5350.43   1
   1   3  -3 82634.1 4823.56  27
  -1  -3   3 105710. 5219.75  28
  -1  -3   3 91090.0 4748.03   5
  -1  -3   3 82285.0 3859.67   4
   1   3  -2 162984. 7728.62   1
  -1  -3   2 177702. 7218.39   5
  -1  -3   2 181640. 7514.78  28
  -1  -3   2 171409. 6817.88   6
   1   3  -2 173005. 7356.06  27
   1   3  -1 94805.3 5194.62   1
  -1  -3   1 113127. 5288.78   5
  -1  -3   1 107982. 5250.23  28
   1   3   0 1828.94 675.396   1
  -1  -3   0 2277.40 686.325  28
   1   3   0 2458.78 1000.03   7
  -1  -3   0 2850.71 809.117  29
  -1  -3   0 1999.25 698.182   5
  -1  -3  -1 103528. 5497.41  29
  -1  -3  -1 100515. 5583.56  28
  -1  -3  -1 88039.3 7868.01   2
   1   3   1 89320.5 4999.47   1
   1   3   1 107333. 6428.03   7
   1   3   2 110069. 6783.53   7
   1   3   2 128287. 7702.75  25
  -1  -3  -2 111698. 6650.75  26
   1   3   3 103927. 6666.88   7
  -1  -3  -3 78059.3 5699.91  26
  -1  -3  -3 86092.5 6624.12   2
   1   3   3 89646.0 5703.89   4
   1   3   3 109149. 6682.99  25
  -1  -3  -4 41872.1 3804.90  17
   1   3   4 39137.7 3541.82  15
  -1  -3  -4 49197.4 4056.79  22
  -1  -3  -5 9922.09 1678.33  17
  -1  -3  -5 11561.5 1792.57  22
   1   3   6 7301.59 1387.56  20
  -1  -3  -6 9409.27 1402.10  17
  -1  -3  -6 6288.62 1188.40  22
   1   3   7 53757.5 3375.01  20
  -1  -3  -7 44324.1 2732.11  17
  -1  -3  -7 42152.7 2669.19  10
  -1  -3  -7 56284.8 3111.34  22
   1   4 -11 16070.2 1341.12  10
   1   4 -11 15712.0 1290.71  17
   1   4 -11 13826.3 1319.73  12
   1   4 -10 588.024 359.367  12
   1   4 -10 1502.25 599.742  13
   1   4 -10 283.182 228.243  17
   1   4 -10 758.185 386.549  10
   1   4  -9 1530.33 672.563  12
   1   4  -9 559.564 537.557  13
   1   4  -9 627.003 409.732  17
   1   4  -9 707.000 531.797  10
   1   4  -9 1305.94 672.887  18
   1   4  -8 5629.73 1357.48  12
   1   4  -8 7084.48 1566.25  18
   1   4  -8 5361.16 1326.98  17
   1   4  -8 6117.44 1459.41  10
   1   4  -8 5259.35 1209.75  13
   1   4  -7 30392.5 3089.97  13
  -1  -4   7 23725.9 2765.03   6
   1   4  -7 30293.4 3269.35  27
   1   4  -7 27881.9 3255.11  10
   1   4  -7 25460.5 3067.61  18
  -1  -4   7 26832.0 2831.97   5
   1   4  -7 26678.0 3107.44  12
  -1  -4   6 73252.5 4720.04   6
  -1  -4   6 66914.7 4434.87   5
  -1  -4   6 68549.4 4493.12  28
   1   4  -5 46458.3 3542.88   8
  -1  -4   5 53724.5 3776.23  28
  -1  -4   5 55436.4 3834.87   6
  -1  -4   5 50691.0 3634.68   5
   1   4  -5 51231.7 4389.77  27
  -1  -4   4 63176.1 4100.77   5
   1   4  -4 47908.8 4004.37  27
  -1  -4   4 61855.7 4028.23   6
  -1  -4   4 61920.5 4216.70  28
   1   4  -4 51649.8 3777.47   8
  -1  -4   3 19132.3 2251.86  28
  -1  -4   3 18934.2 1969.61   6
   1   4  -3 20622.7 2614.77   1
   1   4  -3 19231.1 2186.75  27
  -1  -4   3 20043.0 2138.80   5
   1   4  -3 22281.5 2315.97   8
   1   4  -2 195465. 9029.78   1
   1   4  -2 195115. 8472.47  27
  -1  -4   2 215549. 8654.16   5
  -1  -4   2 213709. 8813.67  28
  -1  -4   2 191945. 7928.97   6
  -1  -4   1 222375. 9580.20  28
   1   4  -1 212755. 9443.20   1
  -1  -4   1 232111. 9713.62   5
  -1  -4   0 131609. 9066.71   2
   1   4   0 151664. 7148.16   1
  -1  -4   0 155852. 7455.45  28
  -1  -4  -1 16698.5 2264.95  28
  -1  -4  -1 15940.4 2828.82   2
   1   4   1 21216.2 2952.84  25
   1   4   2 12806.6 2290.89  25
  -1  -4  -2 12877.8 2502.90   2
  -1  -4  -2 12794.7 2258.18  26
   1   4   3 77125.3 5225.72  15
  -1  -4  -3 75729.5 5424.30  22
   1   4   4 41326.4 3546.66  15
  -1  -4  -4 41192.4 3651.10  22
   1   4   5 17669.4 2083.84  15
  -1  -4  -5 22788.7 2358.67  22
  -1  -4  -6 8852.22 1182.49  10
  -1  -4  -6 10880.6 1323.61  22
   1   4   6 12060.8 1556.32  20
   1   4   7 3101.94 580.703  20
   1   5 -11 34323.5 2204.35  12
   1   5 -11 29673.0 1961.12  10
   1   5 -10 35710.6 2756.70  12
   1   5 -10 30435.4 2423.20  17
   1   5 -10 34894.8 2633.64  13
   1   5 -10 35581.2 2761.61  10
   1   5  -9 13868.3 2045.67  12
   1   5  -9 11922.2 1830.29  17
   1   5  -9 13343.3 2031.51  10
   1   5  -9 12972.7 1801.07  13
   1   5  -8 4387.38 1319.15  12
   1   5  -8 4104.46 1298.55  10
   1   5  -8 4796.03 1213.81  13
   1   5  -7 5012.37 1339.78  12
   1   5  -7 6475.65 1669.97  10
   1   5  -7 6291.35 1492.62  13
  -1  -5   6 18709.0 2277.05   5
  -1  -5   6 18614.7 2294.02  28
   1   5  -6 17364.6 2638.09  27
  -1  -5   6 18280.2 2236.76   6
   1   5  -5 91909.6 6420.73  27
  -1  -5   5 114123. 6328.17  28
  -1  -5   5 111340. 6142.75   5
  -1  -5   5 108437. 5980.94   6
  -1  -5   4 102130. 5761.58   6
  -1  -5   4 104622. 6052.36   5
   1   5  -4 82740.6 5779.69  27
  -1  -5   4 113740. 6471.73  28
   1   5  -4 93065.7 5791.46   8
   1   5  -3 147166. 7658.94  27
  -1  -5   3 141893. 7139.46   6
  -1  -5   3 165597. 8255.84  28
  -1  -5   3 150616. 7690.50   5
   1   5  -2 309.621 405.793   1
  -1  -5   2 1123.47 587.454  28
  -1  -5   2 646.202 551.212   5
  -1  -5   1 109212. 6613.32  28
   1   5  -1 130100. 8177.66  25
   1   5  -1 109770. 6602.93   1
  -1  -5   1 117876. 6820.24   5
  -1  -5   1 106505. 7531.22   2
  -1  -5   1 113449. 6787.88  29
  -1  -5   0 95907.1 6380.43  28
   1   5   0 115326. 7575.73  25
  -1  -5   0 110463. 7670.61   2
   1   5   1 99670.5 6366.90  15
  -1  -5  -1 104462. 7403.75   2
  -1  -5  -2 19955.1 2590.13   9
   1   5   2 22549.5 2653.70  15
   1   5   3 484.350 422.517  15
   1   5   4 16345.0 1998.69  15
  -1  -5  -4 15409.4 1975.30  22
   1   5   5 25269.3 2301.96  20
  -1  -5  -5 21827.6 1931.22  22
   1   5   5 22696.8 1990.28  15
   1   5   6 13592.0 1307.44  20
   1   6 -11 305.623 220.519  12
   1   6 -11 303.667 186.200  13
   1   6 -10 3930.77 904.150  12
   1   6 -10 4047.29 845.655  13
   1   6  -9 117274. 6863.37  10
   1   6  -9 118548. 6741.66  12
   1   6  -9 113620. 5998.87  13
   1   6  -8 73932.8 5517.61  12
   1   6  -8 70887.9 4859.98  13
   1   6  -8 75003.5 5702.43  10
   1   6  -7 87581.5 6317.16  12
   1   6  -7 82444.5 6343.46  10
   1   6  -7 79754.1 5443.19  13
   1   6  -6 7727.99 1749.91  12
   1   6  -6 6753.47 1581.98  13
   1   6  -5 8499.52 1866.09  12
  -1  -6   5 8568.48 1684.99  28
   1   6  -5 8704.22 1787.48  27
  -1  -6   5 8438.89 1620.17   5
  -1  -6   4 182711. 9361.06  28
  -1  -6   4 179447. 9074.79   5
  -1  -6   3 239764. 11359.1   5
  -1  -6   3 237058. 11574.8  28
  -1  -6   2 70316.9 5604.70  29
  -1  -6   2 73619.6 5503.81   5
  -1  -6   2 66518.6 5313.81  28
   1   6  -1 24699.9 2935.33  15
   1   6  -1 21237.5 2608.02  21
   1   6   0 18539.2 2446.15  15
   1   6   0 15656.0 2149.30  21
  -1  -6  -1 96621.0 6611.03   9
   1   6   1 128612. 6908.52  15
   1   6   2 88434.9 5409.34  15
   1   6   3 33450.8 3051.42  20
   1   6   3 41368.4 3165.93  15
   1   6   4 1455.34 588.043  20
   1   6   4 1506.93 475.567  15
   1   6   5 2652.03 533.023  20
   1   7 -11 2271.15 491.249  12
   1   7 -11 2689.22 508.110  13
   1   7 -10 2484.57 699.402  12
   1   7 -10 2166.57 608.376  13
   1   7  -9 1168.34 631.039  12
   1   7  -9-17.5473 250.536  13
   1   7  -8 33993.1 3514.62  12
   1   7  -8 31798.6 2937.20  13
   1   7  -7 107051. 7141.97  12
   1   7  -7 102366. 6177.13  13
   1   7  -6 58556.8 5079.95  11
   1   7  -6 89591.2 6314.92  12
   1   7  -6 59982.0 4955.94  21
   1   7  -6 80414.7 5467.98  13
   1   7  -5 11929.0 2261.29  12
   1   7  -5 10652.6 2115.86  11
   1   7  -5 11170.7 2005.13  21
   1   7  -4 28805.8 3571.55  12
   1   7  -4 31692.8 3351.17  21
   1   7  -4 29256.7 3560.31  11
   1   7  -3 96273.2 6178.00  21
   1   7  -3 85877.9 6292.25  11
   1   7  -3 85483.3 6464.29  12
   1   7  -2 35758.5 3491.01  21
   1   7  -2 42085.4 4049.76  11
   1   7  -2 33674.9 3411.84  15
   1   7  -1 62506.9 4617.65  21
   1   7  -1 70858.7 4967.53  15
   1   7   0 7725.82 1423.89  21
   1   7   0 11075.6 1794.68  15
   1   7   1 6342.06 1340.00  11
  -1  -7  -1 4557.25 1241.91   9
   1   7   1 5707.21 1255.88  15
   1   7   2 15102.7 1765.09  15
   1   7   3 17629.1 1638.32  15
   1   8 -10 40568.7 2442.07  13
   1   8 -10 39293.5 2722.14  12
   1   8  -9 21796.3 2332.31  12
   1   8  -9 23863.2 2061.57  13
   1   8  -8 496.694 529.482  12
   1   8  -8 613.602 396.098  13
   1   8  -7 34875.3 3215.63  13
   1   8  -7 41746.2 3990.76  12
   1   8  -6 119480. 7240.25  12
   1   8  -6 114008. 6295.29  21
   1   8  -5 96359.8 6502.68  11
   1   8  -5 107514. 6232.81  21
   1   8  -5 94879.3 6668.55  12
   1   8  -4 42671.7 4232.36  12
   1   8  -4 43534.3 4022.77  11
   1   8  -4 46084.3 3856.03  21
   1   8  -3 12345.6 2054.27  11
   1   8  -3 13477.5 2002.23  21
   1   8  -2 34244.7 3142.60  15
   1   8  -2 40390.8 3589.49  11
   1   8  -2 35609.7 3221.04  21
   1   8  -1 105770. 5754.87  21
   1   8  -1 103508. 5798.87  15
   1   8  -1 116430. 6324.42  11
   1   8   0 21731.8 2237.59  11
   1   8   0 17771.5 1978.10  15
   1   8   1 6465.32 1027.67  11
   1   8   1 8629.22 1225.99  15
   1   8   2 2285.08 511.116  15
   1   9  -9 44948.3 2966.86  12
   1   9  -9 35469.6 2290.29  13
   1   9  -8 51976.9 3757.99  12
   1   9  -7 2748.04 778.570  21
   1   9  -7 5825.64 1253.47  12
   1   9  -6 4124.24 979.757  21
   1   9  -6 2931.89 964.325  12
   1   9  -6 3158.22 942.957  11
   1   9  -6 2771.80 887.182  19
   1   9  -5 63505.8 4406.20  11
   1   9  -5 72866.3 4412.90  21
   1   9  -4 29719.5 2775.19  11
   1   9  -4 31128.2 2751.06  21
   1   9  -3 61628.3 4099.46  11
   1   9  -3 69606.9 4193.78  21
   1   9  -2 9024.81 1347.02  11
   1   9  -2 9795.58 1362.61  21
   1   9  -1 5597.51 950.316  11
   1   9  -1 2984.58 701.041  15
   1   9   0 3747.40 652.137  11
   1   9   0 3432.95 623.315  15
   1  10  -7 31672.7 2061.75  21
   1  10  -6 6844.19 977.877  19
   1  10  -6 7185.87 1015.30  21
   1  10  -6 9057.22 1175.88  11
   1  10  -5 532.667 362.023  21
   1  10  -5 243.384 260.148  11
   1  10  -5 293.171 291.500  19
   1  10  -4 30164.3 2229.46  11
   1  10  -4 32816.5 2272.39  21
   1  10  -3 42429.5 2524.08  11
   1  10  -3 37493.3 2351.62  21
   1  10  -2 25501.6 1697.14  11
   2 -11   2 10695.1 1049.19   9
  -2  11  -3 583.102 319.505  21
   2 -11   3 640.332 292.294   9
  -2  11  -3 840.754 328.941  11
  -2  11  -4 26446.6 2101.77  21
   2 -11   4 24648.6 1823.36   9
   2 -11   5 38156.6 2295.72   9
  -2  11  -5 38620.8 2643.28  21
  -2  11  -6 10588.1 1262.11  21
   2 -11   6 14038.6 1205.31   9
   2 -11   7 6820.18 750.729   9
   2 -10   0 7465.25 1023.26   9
  -2  10   0 5708.26 956.780  15
  -2  10  -1 73889.3 4272.16  15
   2 -10   1 78995.4 4509.95   9
  -2  10  -2 109251. 5715.51  21
   2 -10   2 112800. 5706.27   9
  -2  10  -2 94515.4 5276.31  15
  -2  10  -3 42009.5 3403.95  11
   2 -10   3 46230.3 3297.31   9
  -2  10  -3 44797.7 3600.13  21
  -2  10  -4 1784.70 670.748  21
   2 -10   4 1084.01 451.741   9
  -2  10  -5 21133.3 2388.96  21
   2 -10   5 21443.7 2002.18   9
  -2  10  -6 16733.2 2021.79  21
   2 -10   6 16095.3 1615.86   9
  -2  10  -7 20303.0 2071.94  21
   2 -10   7 22577.6 1803.89   9
  -2  10  -7 22620.4 2114.39  13
  -2  10  -8 34806.4 2371.58  13
   2 -10   8 32728.0 2063.05   9
  -2  10  -9 13427.7 1185.93  13
   2  -9  -2 49725.2 2974.45  18
  -2   9   2 79096.0 3874.13  15
  -2   9   1 50545.7 3453.54  15
   2  -9  -1 36263.6 2945.44   9
  -2   9   0 16929.0 2141.61  15
   2  -9   0 16054.6 2149.24   9
  -2   9  -1 4690.38 1295.91  21
   2  -9   1 2819.76 1001.91   9
  -2   9  -2 33129.7 3554.80  21
   2  -9   2 31977.8 3173.58   9
   2  -9   3 40853.7 3542.90   9
  -2   9  -3 39289.2 4084.92  21
   2  -9   4 71193.7 4630.57   9
  -2   9  -4 67040.3 5398.19  21
  -2   9  -5 24972.4 3086.84  21
   2  -9   5 26578.5 2521.62   9
  -2   9  -6 12087.9 2012.77  21
   2  -9   6 11621.6 1549.42   9
  -2   9  -7 8577.76 1509.97  21
   2  -9   7 9879.28 1323.35   9
   2  -9   8 25286.7 2007.79   9
   2  -9   9 36214.8 2245.41   9
  -2   9  -9 41185.5 2692.07  13
  -2   9 -10 41872.8 2307.97  13
   2  -8  -3 3279.49 706.990  18
  -2   8   3 4400.26 917.038  15
   2  -8  -2 52426.8 3889.51   9
  -2   8   2 73486.5 4660.56  15
   2  -8  -1 69701.3 5101.36   9
   2  -8   0 38605.3 3691.25   9
  -2   8  -1 7484.58 1842.66  21
   2  -8   1 8703.23 1721.09   9
  -2   8  -2 5666.17 1793.62  21
   2  -8   2 6578.71 1490.21   9
   2  -8   3 12756.7 1995.10   9
  -2   8  -3 11593.9 2510.92  21
  -2   8  -4 19929.7 3211.94  21
   2  -8   4 25855.6 2772.85   9
  -2   8  -5 24654.6 3468.16  21
   2  -8   5 26642.6 2623.57   9
  -2   8  -6 59191.3 5049.71  21
   2  -8   6 67883.7 4269.04   9
   2  -8   7 5225.14 1074.21   9
   2  -8   8-267.055 318.020   9
   2  -8   9 11037.2 1283.83   9
   2  -8  10 43666.6 2308.40   9
  -2   8 -10 32870.0 2302.50  13
   2  -7  -5 18664.4 1373.55  18
   2  -7  -5 20151.5 1411.88  22
   2  -7  -4 45693.3 3050.84  18
   2  -7  -4 45492.1 2902.17  22
  -2   7   4 53868.2 3627.75  15
   2  -7  -3 57614.6 4064.62   9
  -2   7   3 64562.5 4636.00  15
   2  -7  -3 57124.2 3814.19  22
   2  -7  -2 233.854 516.811   9
   2  -7  -2 466.384 533.132  22
   2  -7  -1 11700.4 2069.01   9
   2  -7  -1 9663.59 1905.02  22
   2  -7   0 76805.0 5377.67   9
  -2   7  -1 7012.68 2071.19  21
   2  -7   1 7409.87 1538.93   9
   2  -7   2 49232.2 4243.60   5
   2  -7   2 52875.8 4249.46   9
  -2   7  -2 54869.8 5939.19  25
  -2   7  -2 43388.4 5316.29  21
   2  -7   3 32432.3 3172.14   9
  -2   7  -3 27575.5 4192.39  21
  -2   7  -3 25822.9 4307.45   3
   2  -7   3 25494.0 2901.91   5
  -2   7  -4 11151.5 2234.52  23
   2  -7   4 14674.6 2087.34   5
  -2   7  -4 8161.92 2372.96   3
   2  -7   4 14830.2 2050.59   9
  -2   7  -4 12925.1 2803.57  21
  -2   7  -5 3809.12 1383.28  21
   2  -7   5 5383.22 1200.20   9
  -2   7  -5 3458.81 1238.12  23
  -2   7  -6 67226.8 5603.15  23
  -2   7  -6 61523.7 5449.23  21
   2  -7   6 74678.5 4582.17   9
   2  -7   7 76284.1 4665.99   9
  -2   7  -7 83630.9 5983.47  23
  -2   7  -8 79311.5 5799.49  12
  -2   7  -8 85650.7 5344.82  23
   2  -7   8 78950.6 4577.10   9
  -2   7  -9 17047.7 2179.85  12
   2  -7   9 16900.4 1728.85   9
  -2   7  -9 17056.3 1866.61  23
  -2   7 -10 15011.7 1493.64  12
   2  -7  10 17177.9 1495.14   9
  -2   7 -10 18156.7 1662.12  13
   2  -6  -6 5692.63 725.607  18
   2  -6  -6 4586.76 716.322  10
   2  -6  -6 6398.45 792.370  22
   2  -6  -5 1079.89 371.987  18
   2  -6  -5 2271.52 587.576  22
   2  -6  -4 41351.7 3373.40  18
  -2   6   4 48723.3 4002.73  15
   2  -6  -4 43882.7 3319.74  22
   2  -6  -3 41859.5 3760.39   9
   2  -6  -3 40905.1 3634.08  22
   2  -6  -2 18842.9 2696.87  22
   2  -6  -2 28223.6 3135.47   9
   2  -6  -1 21168.7 3096.49   2
   2  -6  -1 19537.8 2522.70   9
  -2   6   1 16235.9 2962.29   3
   2  -6  -1 18742.9 2732.63  24
   2  -6   0 8844.12 1810.78   2
  -2   6   0 5235.03 1892.63   3
  -2   6   0 5871.76 2324.57  25
   2  -6   0 10245.7 2171.17  24
   2  -6   1 11528.2 2148.12  24
   2  -6   1 13091.3 1943.18   5
  -2   6  -1 9194.67 2430.35   3
  -2   6  -2 34296.7 4971.77   3
   2  -6   2 36687.5 3582.31  24
   2  -6   2 33113.0 3076.74   5
  -2   6  -2 31376.5 5137.37  25
   2  -6   3 54974.2 4042.58   6
   2  -6   3 56733.0 4068.92   5
  -2   6  -4 50214.5 5795.63   3
   2  -6   4 42686.5 3607.99   6
   2  -6   4 58573.3 3995.80   5
  -2   6  -4 54290.9 4892.97  27
   2  -6   4 54126.5 3946.56  24
   2  -6   5 30950.5 2959.62   6
   2  -6   5 38559.3 3106.07   5
  -2   6  -5 37711.4 4026.75  27
   2  -6   5 36692.9 3055.45   4
  -2   6  -6 3542.21 1064.30  23
  -2   6  -7 2973.54 1103.37  12
  -2   6  -7 4629.27 1353.27  23
  -2   6  -8 155558. 8616.17  12
  -2   6  -8 150308. 7636.27  23
  -2   6  -9 66989.6 4400.12  12
  -2   6  -9 56476.0 3769.50  23
  -2   6 -10 12920.5 1399.38  12
   2  -5  -7 49218.3 2525.86  10
   2  -5  -7 47602.5 2443.98  22
   2  -5  -6 38333.9 2678.14  18
   2  -5  -6 39838.1 2761.63  10
   2  -5  -6 39024.5 2668.42  22
   2  -5  -5 11247.5 1660.85  18
   2  -5  -5 9587.60 1478.41  22
   2  -5  -4 3335.11 1061.94   9
   2  -5  -4 2004.39 841.029  22
   2  -5  -3 14871.9 2161.03   9
   2  -5  -3 13049.5 2192.31  22
   2  -5  -2 5496.52 1588.43   2
  -2   5   2 3456.52 1318.36   3
  -2   5   2 1513.82 1641.62  25
   2  -5  -2 5256.63 1306.49  24
   2  -5  -1 99159.0 6719.19   2
  -2   5   1 81639.6 7137.90   3
   2  -5  -1 94408.6 6543.39  24
   2  -5   0 123831. 6648.23   2
   2  -5   0 108137. 5897.28  28
   2  -5   0 124758. 8089.11  24
   2  -5   1 79436.6 4623.30   2
   2  -5   1 81221.3 4582.28   5
   2  -5   1 88045.9 5779.76  24
   2  -5   1 79403.0 4587.14  28
  -2   5  -2 1500.44 1664.67  25
   2  -5   2 5067.03 1065.94   6
  -2   5  -2 4203.88 1689.75   3
   2  -5   2 5344.92 1252.50  24
  -2   5  -2 5475.62 1276.46  27
   2  -5   2 4434.40 953.630   5
   2  -5   3 68996.6 4312.88   6
  -2   5  -3 55112.0 5680.01   3
   2  -5   3 65729.9 4342.11  24
   2  -5   3 64432.1 3966.13   5
  -2   5  -3 59842.5 4823.49  27
   2  -5   4 198835. 9081.30  24
   2  -5   4 220915. 9044.70   5
   2  -5   4 240397. 9801.98   6
  -2   5  -4 196678. 11647.4   3
   2  -5   4 226929. 9364.20   4
  -2   5  -4 204986. 10555.8  27
   2  -5   5 177289. 7929.23   5
  -2   5  -5 181097. 9661.28  27
   2  -5   5 184611. 8287.08   4
   2  -5   6 43998.3 3645.84   6
   2  -5   6 39967.0 3252.53   5
  -2   5  -6 52102.8 4507.52  27
   2  -5   6 44316.5 3556.82   4
  -2   5  -7 2475.03 1119.46  12
  -2   5  -7 3804.64 1051.51  23
  -2   5  -8 59974.5 4772.68  12
  -2   5  -8 51821.7 3904.96  23
  -2   5  -9 70341.8 4384.34  12
  -2   5  -9 62792.5 3940.80  23
  -2   5 -10 53436.2 3111.48  12
   2  -4  -8 221.955 140.376  10
   2  -4  -8-28.0579 131.265  22
   2  -4  -7 28340.4 2135.72  18
   2  -4  -7 27547.6 2173.81  10
   2  -4  -7 30930.7 2230.45  22
   2  -4  -6 58531.3 3902.76  18
   2  -4  -6 63290.7 3972.16  10
   2  -4  -6 62288.8 3901.92  22
   2  -4  -5 50843.5 3836.06  22
   2  -4  -5 48647.2 3760.12  18
   2  -4  -4 9101.01 1587.75   9
   2  -4  -4 8646.56 1643.84  22
   2  -4  -3 2407.63 1001.09   2
  -2   4   3 3474.72 1959.90  25
  -2   4   2 3885.81 1367.12   3
   2  -4  -2 1701.24 1062.83   2
  -2   4   2 2033.88 1884.96  25
   2  -4  -2 1895.07 848.616  24
   2  -4  -1 48098.4 4140.90   2
   2  -4  -1 54070.3 4876.53  24
   2  -4   0 52969.4 3747.13   2
  -2   4   0 39521.8 4648.09   3
   2  -4   0 53330.9 3385.99  28
   2  -4   0 51793.7 4579.23  24
   2  -4   0 54853.9 3303.28   5
  -2   4  -1 104889. 10042.7  25
   2  -4   1 162642. 6682.87   6
   2  -4   1 166438. 6506.05   5
   2  -4   1 142242. 7618.18  24
   2  -4   1 169718. 6562.79  28
   2  -4   1 167730. 6880.51   2
  -2   4  -1 135310. 6791.22  27
  -2   4  -1 128057. 8791.85   3
   2  -4   2 90327.7 4599.40   6
  -2   4  -2 75564.1 6071.73   3
   2  -4   2 86012.0 3996.52   2
   2  -4   2 87681.0 4231.93   5
   2  -4   2 89936.3 4136.09  28
  -2   4  -2 54417.8 6708.59  25
  -2   4  -2 73180.9 5022.42  27
   2  -4   2 69443.0 4596.98  24
  -2   4  -3 37264.0 3931.99   3
   2  -4   3 34928.8 2924.33  24
   2  -4   3 39386.3 2710.17   5
  -2   4  -3 33312.2 3374.89  27
   2  -4   3 44674.9 3111.01   4
   2  -4   3 45934.0 3227.51   6
   2  -4   4 31511.1 2710.74   6
  -2   4  -4 17374.5 2620.41   3
   2  -4   4 29704.7 2615.89   4
   2  -4   4 25126.3 2189.04   5
  -2   4  -4 25290.3 2967.26  27
  -2   4  -4 27819.0 2821.58  26
   2  -4   4 22854.6 2265.69  24
   2  -4   5 105846. 5535.65   5
  -2   4  -5 118509. 6843.94  27
   2  -4   5 121872. 6201.23   4
  -2   4  -5 112330. 6585.93  26
   2  -4   5 110332. 5788.66   7
   2  -4   6 179639. 8379.05   5
  -2   4  -6 206265. 9483.72  27
  -2   4  -6 189915. 9468.77  26
   2  -4   6 215042. 9179.68   4
   2  -4   6 191141. 8624.68   7
  -2   4  -7 51747.0 4532.98  12
  -2   4  -7 46472.1 3795.66  23
  -2   4  -8 936.542 541.557  12
  -2   4  -8 17.2306 321.068  23
  -2   4  -9 3654.04 917.123  12
  -2   4 -10 17939.3 1584.02  12
   2  -3  -8 21922.1 1732.54  18
   2  -3  -8 23581.6 1839.12  10
   2  -3  -8 21659.1 1740.62  22
   2  -3  -7 7443.57 1208.35  18
   2  -3  -7 8216.60 1267.34  10
   2  -3  -7 7236.52 1176.38  22
   2  -3  -6 2434.93 820.523  18
   2  -3  -6 4666.85 1088.26  10
   2  -3  -6 2596.58 879.164  22
   2  -3  -5 1710.09 719.781  18
   2  -3  -5 2711.27 828.635  22
   2  -3  -4 19405.5 2502.78   2
  -2   3   4 23747.7 3049.73   7
  -2   3   3 25271.0 5465.52  25
   2  -3  -3 56526.6 4996.57   2
  -2   3   2 157296. 9574.98   3
  -2   3   2 157806. 12599.5  25
   2  -3  -2 184532. 8486.67  24
  -2   3   1 2553.08 1014.33   3
   2  -3  -1 2120.51 824.659   2
  -2   3   1 2895.07 1613.18  25
   2  -3  -1 3417.53 1141.90  24
   2  -3   0 14259.4 1615.39   2
   2  -3   0 8347.35 1004.94   5
  -2   3   0 9951.90 2058.93   3
  -2   3   0 8057.25 1059.50  27
  -2   3   0 13253.0 2718.22  25
   2  -3   0 17193.1 2228.55  24
   2  -3   1 7382.07 967.827   6
   2  -3   1 8550.88 1112.52   2
  -2   3  -1 8054.87 1699.85   3
   2  -3   1 5391.26 728.653   5
  -2   3  -1 5207.51 1154.49  27
  -2   3  -1 8595.93 1886.09  25
   2  -3   1 8276.81 1500.08  24
   2  -3   1 4664.07 641.319  28
  -2   3  -2 264389. 11321.1  27
   2  -3   2 304841. 10319.4   6
  -2   3  -2 300533. 12119.2   3
   2  -3   2 287821. 10334.5   4
   2  -3   2 268261. 9491.80   5
   2  -3   2 254582. 8999.83  28
  -2   3  -2 271875. 12300.3  25
   2  -3   2 251137. 10748.2  24
   2  -3   3 241465. 8994.07   6
   2  -3   3 231199. 9021.62   4
   2  -3   3 232313. 8963.25   7
  -2   3  -3 197759. 9565.85   3
   2  -3   3 201022. 8022.80   5
  -2   3  -3 223313. 10081.8  27
  -2   3  -3 191998. 8674.73  26
   2  -3   3 192249. 8721.47  24
   2  -3   4 79183.6 4582.74   5
  -2   3  -4 103710. 5904.82   3
   2  -3   4 99834.0 5263.35   7
  -2   3  -4 95789.2 5750.73  27
   2  -3   4 95990.7 5200.26   6
   2  -3   4 80259.9 4786.50  24
  -2   3  -4 94029.1 5535.15  26
   2  -3   4 99789.1 5355.10   4
  -2   3  -5 7824.67 1540.11  26
   2  -3   5 5807.79 1242.06   6
   2  -3   5 10328.5 1658.88   4
  -2   3  -5 7919.80 1504.95  27
   2  -3   5 8829.04 1502.66   7
  -2   3  -6 43835.3 3935.26  27
   2  -3   6 41832.4 3877.61   6
  -2   3  -6 74657.3 5047.63  26
   2  -3   6 67580.9 4733.73   4
   2  -3   6 66190.1 4635.00   7
  -2   3  -7 82634.3 5288.19  12
  -2   3  -7 73302.3 4763.29  17
  -2   3  -7 77803.3 4938.70  23
  -2   3  -8 27392.5 2645.78  12
  -2   3  -8 22186.2 2300.63  17
  -2   3  -9 16057.7 1741.75  12
  -2   3  -9 15306.9 1630.65  17
  -2   3 -10 2412.70 506.718  12
  -2   3 -10 2239.72 454.709  17
   2  -2  -9 14977.4 1271.25  18
   2  -2  -9 16449.2 1362.08  10
   2  -2  -9 13400.8 1186.84  22
   2  -2  -8 15820.4 1634.04  18
   2  -2  -8 14881.4 1577.83  17
   2  -2  -8 17290.3 1712.19  10
   2  -2  -8 16680.7 1647.90  22
   2  -2  -7 2374.24 780.636  18
   2  -2  -7 2182.37 749.005  17
   2  -2  -7 1557.28 632.619  10
   2  -2  -7 1884.80 669.198  22
   2  -2  -6 31585.7 2831.83  22
   2  -2  -6 29382.7 2774.93  18
   2  -2  -6 30573.4 2863.50  17
   2  -2  -6 36062.9 3001.60  10
   2  -2  -6 30992.0 3075.75  14
   2  -2  -5 13245.3 1900.55   2
  -2   2   5 12953.6 2284.55   7
  -2   2   4 1653.19 1750.57  25
   2  -2  -4 4694.75 1254.84   2
   2  -2  -3 61716.2 4831.66   2
  -2   2   3 58630.7 6620.79  25
  -2   2   2 67573.9 6080.85  25
   2  -2  -2 55747.8 4033.40   2
   2  -2  -2 56558.0 3514.90  24
   2  -2  -1 30088.9 1569.97   1
   2  -2  -1 25069.3 2278.93   2
  -2   2   1 27722.7 2942.60   3
  -2   2   1 24259.7 1882.27  29
   2  -2  -1 32225.0 2578.03  24
   2  -2   0 208982. 6749.10   6
   2  -2   0 212149. 7688.12   2
  -2   2   0 212087. 8962.59   3
  -2   2   0 193533. 8021.36  29
   2  -2   0 202334. 7226.58   8
   2  -2   1 1354.69 461.571   4
   2  -2   1 570.442 231.557   5
  -2   2  -1 1269.57 342.297  26
   2  -2   1 880.841 359.128   6
  -2   2  -1 744.754 760.757  29
  -2   2  -1 1634.31 891.758   3
   2  -2   1 958.757 322.206   8
  -2   2  -2 28212.8 2195.33  26
   2  -2   2 13703.5 1098.10  28
   2  -2   2 30130.4 2479.98  24
   2  -2   2 29695.7 2106.49   6
   2  -2   2 27982.6 2198.06   4
  -2   2  -2 31269.6 2765.12   3
  -2   2  -2 20541.5 2396.83  29
   2  -2   2 21871.0 1606.56   5
   2  -2   2 26065.6 2167.71   7
   2  -2   3 98021.7 5288.06   7
  -2   2  -3 95887.7 5228.82  26
   2  -2   3 101252. 5268.26   4
   2  -2   3 93508.0 4924.43   6
   2  -2   3 105416. 5492.96  24
  -2   2  -3 107040. 5700.08   3
  -2   2  -3 93778.6 5797.96  29
   2  -2   4 136528. 7029.08   7
   2  -2   4 135009. 6912.47   4
   2  -2   4 124433. 6668.82   6
  -2   2  -4 140289. 6517.95   3
  -2   2  -4 139023. 7617.36  29
  -2   2  -4 146974. 7122.27  26
   2  -2   4 121066. 6381.76  24
   2  -2   5 35416.1 3361.22   7
  -2   2  -5 33944.0 3029.10  26
   2  -2   5 22586.2 2732.83   6
  -2   2  -5 23622.4 2694.83  27
   2  -2   5 28747.7 3045.71   4
   2  -2   6 5466.65 1386.12   4
   2  -2   6 6426.48 1507.92   7
   2  -2   6 4970.72 1357.31   6
  -2   2  -6 5980.09 1351.74  27
  -2   2  -6 8761.20 1490.59  26
  -2   2  -7 2862.46 870.334  23
  -2   2  -7 3287.46 978.600  17
  -2   2  -8 26894.2 2488.94  17
  -2   2  -9 30247.6 2315.93  12
  -2   2  -9 30023.2 2274.01  17
  -2   2 -10 7108.94 812.603  12
  -2   2 -10 6869.24 762.708  17
   2  -1 -10 7260.16 771.294  10
   2  -1  -9 9561.35 1149.98  18
   2  -1  -9 9202.66 1138.05  17
   2  -1  -9 9420.27 1150.87  10
   2  -1  -8 3469.90 851.528  18
   2  -1  -8 2945.69 760.231  22
   2  -1  -8 3017.71 783.659  17
   2  -1  -8 3859.62 878.068  10
   2  -1  -7 8671.69 1411.32  18
   2  -1  -7 10477.7 1600.55  17
   2  -1  -7 10631.5 1541.74  10
   2  -1  -7 11994.1 1771.43  14
   2  -1  -7 6117.17 1197.65  22
  -2   1   6 38461.9 4191.13   7
   2  -1  -6 36526.2 3043.87  18
   2  -1  -6 40529.8 3233.01  10
   2  -1  -6 39321.2 3516.62  14
  -2   1   6 37213.5 4125.68   4
  -2   1   5 99227.6 6366.89   7
   2  -1  -5 66368.3 4692.32   2
   2  -1  -4 176609. 8431.71   2
   2  -1  -4 182557. 7664.82  26
   2  -1  -3 56838.0 4034.61   2
  -2   1   3 65612.6 5561.50  25
   2  -1  -3 53484.9 3168.00  26
   2  -1  -3 58524.9 3849.38   8
   2  -1  -2 2301.02 443.016  26
  -2   1   2 5241.41 806.213  29
  -2   1   2 5204.30 1072.79   3
   2  -1  -2 4651.46 997.876   2
   2  -1  -2 4643.53 830.492  24
   2  -1  -2 5253.19 1037.30   8
   2  -1  -2 5415.33 665.810   1
   2  -1  -1 332891. 11086.9   1
  -2   1   1 333960. 11954.1  29
   2  -1  -1 308517. 11829.9   2
  -2   1   1 364993. 12747.6   3
   2  -1  -1 348287. 11869.5  24
   2  -1  -1 332798. 11829.0   8
  -2   1   0 999999. 23367.6  29
   2  -1   0 659421. 19670.0   6
   2  -1   0 832860. 22075.0  24
  -2   1   0 579116. 19361.9  26
   2  -1   0 819810. 21377.4   1
   2  -1   0 769047. 20989.7   8
   2  -1   1 182880. 6807.59   6
   2  -1   1 199434. 7348.64   4
  -2   1  -1 171507. 7091.91  26
   2  -1   1 230631. 8298.30  24
   2  -1   1 191193. 7617.14   7
  -2   1  -1 230508. 9088.71  29
   2  -1   1 188352. 6932.00   8
   2  -1   2 962.088 548.939   4
   2  -1   2 1658.47 705.003   7
  -2   1  -2 2202.30 748.323  26
   2  -1   2 957.471 520.027   6
  -2   1  -2 154.561 592.335  29
   2  -1   2 1019.06 563.728  24
   2  -1   3 15541.9 2118.95   7
   2  -1   3 19433.9 2189.94  24
  -2   1  -3 16912.1 2268.59  29
   2  -1   3 18428.1 2162.96   4
   2  -1   3 18098.0 2026.74   6
  -2   1  -3 19931.1 2087.25  26
  -2   1  -4 172554. 7704.19  26
   2  -1   4 167986. 8387.54   6
  -2   1  -4 171726. 8738.73  29
   2  -1   4 157103. 8471.92   7
   2  -1   4 149253. 8172.79   4
   2  -1   5 96356.2 6425.18   7
   2  -1   5 105414. 6516.73   6
  -2   1  -5 69014.7 5158.88  27
  -2   1  -5 100669. 5374.90  26
   2  -1   5 64741.4 5384.19   4
   2  -1   6 39336.9 3946.99  20
  -2   1  -6 46208.7 3838.92  17
  -2   1  -6 43708.1 3531.74  23
  -2   1  -7 23880.8 2547.64  17
   2  -1   7 21213.3 2790.48  20
   2  -1   8 171.276 425.512  20
  -2   1  -8 322.787 380.402  17
  -2   1  -9 9702.71 1134.88  12
  -2   1  -9 8669.20 1071.48  17
   2   0 -10 13732.2 1247.59  17
   2   0 -10 15155.3 1302.26  10
   2   0 -10 14481.0 1263.09  18
   2   0  -9 15508.1 1614.87  18
   2   0  -9 17571.9 1728.69  17
   2   0  -9 15272.3 1619.48  10
   2   0  -8 23884.4 2289.59  18
   2   0  -8 25035.3 2387.53  17
   2   0  -8 24081.7 2295.03  10
   2   0  -7 3839.91 996.225  18
   2   0  -7 4425.49 1064.80  17
   2   0  -7 4838.56 1033.51  10
   2   0  -7 5003.45 1239.61  14
  -2   0   6 7054.39 1680.29   4
  -2   0   5 52001.6 4249.19   4
  -2   0   5 53110.5 4609.17   7
   2   0  -5 46992.0 3481.35  26
   2   0  -4 104898. 5564.09   2
   2   0  -4 104133. 5222.78  26
  -2   0   4 98787.1 6537.42  25
   2   0  -4 99752.1 5627.02   8
  -2   0   4 90429.0 5941.70   7
   2   0  -3 86532.5 3486.29  24
   2   0  -3 104894. 5060.08   2
  -2   0   3 84666.7 4033.04   3
   2   0  -3 62055.3 3580.68  26
   2   0  -3 65970.8 3751.54  27
   2   0  -3 80545.3 4093.54   1
   2   0  -3 113270. 5316.24   8
   2   0  -2 31647.9 2480.74   8
   2   0  -2 35451.8 2583.62   2
  -2   0   2 39189.8 2967.77  29
  -2   0   2 34147.2 2006.86   5
   2   0  -2 38596.5 2444.56  24
   2   0  -2 42894.2 2482.63   1
   2   0  -1 149820. 5488.66   1
  -2   0   1 141381. 5999.62  29
   2   0  -1 139302. 5619.68  24
   2   0  -1 137354. 5504.97   8
   2   0   0 399580. 13948.8  24
   2   0   0 393180. 13492.2   8
  -2   0   0 393964. 12599.4  28
  -2   0   0 414151. 14483.6  29
   2   0   0 381049. 12314.3   4
   2   0   0 423427. 13756.2   1
   2   0   0 399355. 13108.9   7
   2   0   1 111353. 5351.64   7
   2   0   1 121810. 5600.22  24
   2   0   1 101958. 4685.61   4
  -2   0  -1 122508. 5528.93  26
   2   0   1 114653. 5277.65   1
   2   0   2 276203. 11433.2   7
  -2   0  -2 250549. 10293.7  26
   2   0   2 268282. 10636.8   4
   2   0   3 12973.5 2152.75   7
  -2   0  -3 15385.4 2274.46  29
  -2   0  -3 11957.7 1682.92  26
   2   0   3 13931.2 1886.79   1
   2   0   3 14399.4 2094.36   4
   2   0   4 962.061 671.320   4
  -2   0  -4 1619.33 632.149  26
   2   0   4 2296.56 991.003   7
   2   0   4 953.072 615.816   1
  -2   0  -4 479.974 1244.15   2
  -2   0  -4 1594.72 815.869  29
   2   0   5 9948.20 2052.96   4
   2   0   5 9322.02 2042.51   7
   2   0   5 8698.20 1895.58   6
  -2   0  -5 7819.82 1433.46  26
  -2   0  -6 38705.7 3511.27  22
   2   0   6 33823.8 3709.79  20
  -2   0  -6 34515.4 3314.06  17
   2   0   7 18562.7 2433.70  20
  -2   0  -7 19015.4 2170.45  17
   2   0   8 21209.1 2131.05  20
  -2   0  -8 23496.4 2056.89  17
  -2   0  -9 18114.2 1411.09  12
  -2   0  -9 17941.6 1393.09  17
   2   1 -10-82.9823 107.592  18
   2   1 -10 187.394 234.066  17
   2   1 -10 240.423 187.987  10
   2   1  -9 18118.3 1858.07  12
   2   1  -9 16340.4 1772.34  18
   2   1  -9 18991.1 1912.56  17
   2   1  -9 14516.1 1682.55  10
   2   1  -8 41561.3 3159.90  18
   2   1  -8 42349.7 3295.73  17
   2   1  -8 39623.7 3140.39  10
   2   1  -8 49185.7 3543.74  14
   2   1  -7 66115.1 4370.36  18
   2   1  -7 68625.3 4765.86  17
   2   1  -7 74297.0 4783.65  10
   2   1  -7 71535.8 4754.89  14
  -2  -1   6 12646.6 2170.80   6
   2   1  -6 11319.0 1792.69  26
  -2  -1   5 1304.45 677.775   4
  -2  -1   5 381.331 424.162   6
   2   1  -5 1642.88 694.100  26
   2   1  -5 637.478 483.115   8
   2   1  -4 70050.4 4699.72  27
  -2  -1   4 86745.7 5019.21   6
   2   1  -4 85410.6 4533.11   2
   2   1  -4 86897.5 4600.90  26
  -2  -1   4 76376.0 4599.48   5
  -2  -1   4 90286.9 5018.62   4
   2   1  -4 93407.5 5160.62   8
  -2  -1   3 143644. 6579.87   6
   2   1  -3 190468. 7537.52   1
  -2  -1   3 179514. 7393.18  28
  -2  -1   3 190988. 7206.10   5
   2   1  -3 181216. 7461.27  27
   2   1  -3 165860. 7265.35   8
  -2  -1   3 161073. 6711.52   4
  -2  -1   2 404122. 11145.4   5
  -2  -1   2 409973. 11824.0  28
   2   1  -2 474362. 12661.1   1
   2   1  -2 449547. 12680.5   8
  -2  -1   1 38062.4 2297.33  28
   2   1  -1 36738.8 2590.84   1
  -2  -1   1 31840.8 2814.93  29
  -2  -1   1 33275.1 1963.89   5
   2   1  -1 32998.8 2567.56   8
   2   1   0 55907.5 3178.47   7
   2   1   0 47347.5 2324.52   4
  -2  -1   0 59969.6 3202.26  28
   2   1   0 56401.1 3420.80   1
  -2  -1   0 56328.3 3725.11  29
   2   1   1 10074.6 1646.53   7
   2   1   1 5389.00 1088.63   4
   2   1   1 6688.51 1285.34   1
  -2  -1  -1 12589.9 1561.59  28
   2   1   2 162340. 7965.76   1
   2   1   2 164368. 9173.30   7
  -2  -1  -2 165388. 8311.70  26
  -2  -1  -2 183985. 8752.43  29
   2   1   2 160854. 8279.99   4
   2   1   3 138735. 8642.77   7
  -2  -1  -3 123191. 7406.83  29
  -2  -1  -3 119471. 6756.33  26
   2   1   3 122438. 7597.99   4
   2   1   3 119106. 6745.63   1
   2   1   4 11577.2 2362.30   7
  -2  -1  -4 15704.5 3142.26   2
  -2  -1  -4 15240.7 2098.19  26
   2   1   4 15350.9 2612.22   4
   2   1   5 1363.77 805.280  20
  -2  -1  -5 2332.14 899.900  17
  -2  -1  -5 318.283 692.131  22
   2   1   6 10655.0 1876.77  20
  -2  -1  -6 8826.02 1630.87  17
  -2  -1  -6 11405.4 1818.10  22
   2   1   7 5307.45 1151.93  20
  -2  -1  -7 4538.08 1005.96  17
  -2  -1  -8 12741.1 1316.73  17
   2   1   8 12246.5 1381.52  20
   2   2 -11 14807.9 1175.06  10
   2   2 -10 14939.7 1490.82  18
   2   2 -10 14303.3 1447.63  17
   2   2 -10 15289.9 1503.94  10
   2   2  -9 238.337 326.401  12
   2   2  -9 801.122 505.736  18
   2   2  -9 387.456 382.701  17
   2   2  -9 35.7134 291.637  10
   2   2  -8 667.559 561.681  12
   2   2  -8 1546.86 658.685  18
   2   2  -8 1017.65 566.590  17
   2   2  -8 1115.82 541.094  10
   2   2  -8 729.643 559.954  14
   2   2  -8 527.106 469.236  13
   2   2  -7 45195.4 4022.57  12
   2   2  -7 55266.1 4083.09  18
   2   2  -7 46767.4 4062.74  17
   2   2  -7 52167.1 4220.75  10
   2   2  -7 48439.9 3674.60  13
   2   2  -7 48314.9 3789.01  14
  -2  -2   6 135169. 7535.92  28
  -2  -2   6 142986. 7587.67   5
   2   2  -6 150400. 7704.01   8
  -2  -2   5 102352. 5831.91  28
  -2  -2   5 106449. 5794.75   5
   2   2  -5 107152. 6847.67  27
   2   2  -5 105837. 5986.86   8
   2   2  -4 3187.88 968.888   1
  -2  -2   4 2748.23 758.129  28
   2   2  -4 3414.88 1047.39  27
  -2  -2   4 3484.41 885.057   5
   2   2  -4 2242.45 720.725   8
   2   2  -3 45558.1 3342.94   1
  -2  -2   3 47965.9 3281.33  28
  -2  -2   3 37049.2 2725.24   5
   2   2  -3 40076.4 3189.46  27
   2   2  -3 40645.8 3041.75   8
  -2  -2   2 79761.8 4047.89   5
  -2  -2   2 81365.2 4419.71  28
   2   2  -2 89453.6 4824.23   8
   2   2  -2 85475.5 4807.67   1
  -2  -2   1 81649.5 4167.97   5
  -2  -2   1 91402.7 5295.33  29
  -2  -2   1 91461.2 4541.27  28
   2   2   0 41903.9 3227.91   1
  -2  -2   0 51079.5 3773.41  29
   2   2   0 49318.9 3452.83   7
  -2  -2   0 53612.0 3486.32  28
   2   2   1 103385. 6823.40   7
   2   2   1 101927. 5778.70   1
  -2  -2  -1 105994. 5854.39  28
  -2  -2  -1 115042. 6512.86  29
   2   2   2 2826.59 909.902   1
   2   2   2 4562.75 1757.39   7
  -2  -2  -2 3605.41 1169.09  29
  -2  -2  -2 3705.00 1135.31  26
   2   2   3 6141.73 1738.54   7
  -2  -2  -3 4911.69 1910.04   2
  -2  -2  -3 7010.04 1531.94  26
   2   2   4 15318.0 2452.35  20
   2   2   4 12223.9 2034.13  15
  -2  -2  -4 12717.8 2356.70  22
  -2  -2  -4 12175.5 1945.27  23
   2   2   5 48600.1 4206.77  20
  -2  -2  -5 47973.3 4082.56  17
  -2  -2  -5 51453.2 4294.18  22
   2   2   6 52725.8 3985.69  20
  -2  -2  -6 56356.8 3915.84  17
  -2  -2  -7 22973.2 1993.79  17
   2   2   7 25726.2 2245.62  20
   2   2   8 1006.94 312.209  20
  -2  -2  -8 941.910 267.491  17
   2   3 -11 13146.7 1130.58  12
   2   3 -11 15920.0 1290.36  10
   2   3 -10 36359.9 2642.79  12
   2   3 -10 40045.2 2707.65  18
   2   3 -10 38924.4 2681.41  17
   2   3 -10 40370.6 2754.68  10
   2   3  -9 59727.7 4040.66  12
   2   3  -9 61975.4 3944.73  18
   2   3  -9 58668.2 3955.00  17
   2   3  -9 62744.7 4059.47  10
   2   3  -8 46961.7 4085.62  12
   2   3  -8 51767.3 3964.33  18
   2   3  -8 47731.3 4096.95  17
   2   3  -8 49771.1 4097.54  10
   2   3  -8 45652.2 3613.16  13
   2   3  -7-439.807 468.316  12
   2   3  -7-353.589 402.369  18
   2   3  -7 66.7002 299.605  17
   2   3  -7 1063.13 659.744  10
   2   3  -7 103.893 538.500  14
   2   3  -7 296.711 442.828  13
  -2  -3   6 61842.8 4429.82   5
  -2  -3   6 60070.9 4418.86  28
   2   3  -6 59465.5 5190.33  27
   2   3  -6 56573.9 4423.37   8
  -2  -3   5 243846. 10121.8   5
  -2  -3   5 240736. 10100.0  28
   2   3  -5 218877. 11027.3  27
   2   3  -5 219658. 10036.0   8
  -2  -3   4 251409. 10409.4   5
   2   3  -4 251205. 11179.6   1
   2   3  -4 226416. 10151.3   8
  -2  -3   4 267651. 10727.0  28
   2   3  -4 232694. 10767.9  27
   2   3  -3 36490.7 3267.55   1
  -2  -3   3 30968.6 2649.00   5
   2   3  -3 28424.7 2802.45  27
  -2  -3   3 32701.4 2909.98  28
   2   3  -3 35770.4 3113.31   8
   2   3  -2 17582.0 2173.94   1
  -2  -3   2 22007.6 2270.47  28
  -2  -3   2 19699.8 2062.53   5
  -2  -3   1 79124.9 4709.20  28
  -2  -3   1 65221.1 4222.00   5
  -2  -3   1 74185.3 5061.32  29
   2   3  -1 63773.7 4261.24   1
   2   3   0 64674.2 4411.24   1
  -2  -3   0 71909.9 4940.41  29
  -2  -3   0 72245.6 4755.62  28
  -2  -3  -1 100487. 6328.31  29
  -2  -3  -1 84108.9 5574.83  28
   2   3   1 82577.3 5283.67   1
  -2  -3  -2 2398.24 1504.07   2
  -2  -3  -2 4664.51 1408.81  26
   2   3   3 52523.2 4320.02  15
  -2  -3  -3 49446.6 4371.57  23
  -2  -3  -3 43186.2 4626.17  22
   2   3   4 845.414 694.584  20
   2   3   4 240.253 458.301  15
  -2  -3  -4-305.129 621.858  22
   2   3   5 6485.38 1377.66  20
  -2  -3  -5 7103.40 1421.91  22
  -2  -3  -5 6551.91 1314.08  17
   2   3   5 4635.65 1091.28  15
   2   3   6 36682.2 2859.44  20
  -2  -3  -6 36333.4 2659.15  17
   2   3   7 45250.4 2513.31  20
  -2  -3  -7 36549.6 2119.16  17
   2   4 -11 1599.05 396.439  12
   2   4 -11 1693.18 412.896  10
   2   4 -10 12924.1 1534.04  12
   2   4 -10 14174.5 1597.03  10
   2   4 -10 12560.4 1476.34  13
   2   4  -9 71536.1 4787.30  12
   2   4  -9 75408.5 4659.40  18
   2   4  -9 66258.5 4546.10  17
   2   4  -9 69224.1 4673.73  10
   2   4  -9 75181.9 4553.84  13
   2   4  -8 108818. 6796.90  12
   2   4  -8 125045. 7056.30  18
   2   4  -8 101093. 6449.67  17
   2   4  -8 106028. 6639.72  10
   2   4  -8 122490. 6539.51  13
   2   4  -7 8697.25 1757.91  12
   2   4  -7 9529.07 1833.16  18
   2   4  -7 8241.49 1687.79  17
   2   4  -7 8701.22 1812.42  10
   2   4  -7 9023.67 1672.30  13
  -2  -4   6 1048.04 618.132  28
   2   4  -6 1348.72 794.972  27
   2   4  -6 970.122 562.309   8
  -2  -4   5 36299.7 3300.32   5
  -2  -4   5 36335.7 3257.24  28
   2   4  -5 28845.8 3015.99   8
   2   4  -4 115139. 7078.79   1
  -2  -4   4 129202. 6868.93  28
  -2  -4   4 114858. 6398.19   5
   2   4  -4 101292. 6386.87  27
   2   4  -4 85675.0 5860.46   8
  -2  -4   3 68760.8 4695.18   5
  -2  -4   3 71568.2 4967.41  28
   2   4  -3 68331.8 5064.46   1
   2   4  -3 85050.3 5533.18   8
  -2  -4   2 68147.2 4782.13  28
   2   4  -2 64437.7 4657.65   1
  -2  -4   2 62793.6 4533.05   5
  -2  -4   2 74462.6 5719.25  29
   2   4  -1 36232.2 3326.98   1
  -2  -4   1 37005.6 3371.64   5
  -2  -4   1 41806.7 3674.81  28
   2   4   0 38663.9 3525.93   1
  -2  -4   0 42390.6 4026.74  29
  -2  -4   0 46060.8 4040.60  28
  -2  -4  -1 25789.7 4355.42   2
   2   4   2 26114.2 3217.80  20
   2   4   2 22354.0 2755.84  15
   2   4   3 43199.5 3936.40  20
   2   4   3 37900.3 3415.26  15
   2   4   4 78323.6 4958.09  20
   2   4   4 65956.9 4361.18  15
  -2  -4  -4 73666.0 4910.18  22
   2   4   5 6081.89 1119.46  20
  -2  -4  -5 3659.04 808.616  17
   2   4   5 5611.50 1002.20  15
   2   4   6 6277.56 905.673  20
   2   5 -11 27344.8 1834.26  12
   2   5 -11 28611.3 1845.48  13
   2   5 -10 7187.65 1157.33  12
   2   5 -10 7106.10 1159.20  10
   2   5 -10 6858.10 1100.90  13
   2   5  -9 31319.8 3108.30  12
   2   5  -9 26652.7 2900.84  10
   2   5  -9 33782.4 2859.28  13
   2   5  -8 169326. 8993.18  12
   2   5  -8 167598. 9014.06  10
   2   5  -8 177155. 8436.41  13
   2   5  -7 81817.5 5985.18  12
   2   5  -7 78375.3 5857.32  10
   2   5  -7 81466.8 5558.41  13
   2   5  -6 46070.5 4246.23  12
   2   5  -6 39193.5 3989.33  19
   2   5  -6 40676.9 4060.01  11
   2   5  -6 45082.6 4353.58  10
   2   5  -6 40268.6 4005.55  13
  -2  -5   5 7475.36 1603.66  28
   2   5  -5 5435.57 1406.19  27
  -2  -5   5 6790.83 1530.76   5
   2   5  -5 6611.84 1484.57   8
  -2  -5   4 14301.4 2263.15   5
  -2  -5   4 18426.4 2587.38  28
   2   5  -4 15331.6 2372.20   8
   2   5  -3 60238.3 4808.53   1
  -2  -5   3 43706.2 4895.98  29
  -2  -5   3 56213.7 4580.14   5
  -2  -5   3 57424.9 4702.41  28
   2   5  -3 46003.8 4372.00   8
  -2  -5   2 73385.7 5376.27   5
  -2  -5   2 57157.8 5413.18  29
  -2  -5   2 75894.3 5545.70  28
   2   5  -2 74698.3 5381.26   1
  -2  -5   1 26036.6 3216.26  28
   2   5  -1 22053.2 2787.54   1
  -2  -5   1 23652.5 3132.12  29
   2   5   0 23546.0 3100.52  11
   2   5   0 25660.0 3086.06  15
   2   5   0 23335.9 2663.46  21
   2   5   1 6620.39 1457.14  15
   2   5   2 1037.49 689.162  20
   2   5   2 2121.84 820.542  15
   2   5   3 56005.6 4186.19  20
   2   5   3 53059.4 3825.28  15
   2   5   4 44126.5 3246.01  20
   2   5   4 45192.1 3037.65  15
   2   5   5 14708.8 1411.71  20
   2   5   5 18214.6 1387.63  15
   2   6 -11 38591.0 2088.96  12
   2   6 -11 27144.0 1827.13  13
   2   6 -10 54225.9 3444.95  12
   2   6 -10 54161.3 3239.52  13
   2   6  -9 3508.55 975.305  12
   2   6  -9 3734.03 946.506  13
   2   6  -8 7759.01 1828.10  12
   2   6  -8 2088.66 849.764  13
   2   6  -7 5539.23 1536.81  12
   2   6  -7 7885.78 1639.59  13
   2   6  -7 4239.74 1347.97  11
   2   6  -6 71127.1 5597.53  19
   2   6  -6 72386.4 5644.45  11
   2   6  -6 75090.9 5662.77  12
   2   6  -6 62124.0 5062.72  13
   2   6  -5 25638.0 3145.28  12
   2   6  -5 23419.3 3128.44  11
   2   6  -5 20150.8 2837.56  21
   2   6  -4 7241.50 1654.66  12
   2   6  -4 8620.96 1883.69  11
   2   6  -4 8887.27 1770.59  21
   2   6  -3 8037.17 1782.51  21
   2   6  -3 5605.32 1442.99  12
   2   6  -3 7464.73 1900.53  11
   2   6  -2 1258.05 799.487  21
   2   6  -2 882.896 827.978  11
   2   6  -1 2945.22 966.058  21
   2   6  -1 3227.97 1154.09  11
   2   6  -1 3834.41 1200.56  15
   2   6   0 34806.3 3528.01  11
   2   6   0 30105.5 2933.17  21
   2   6   0 34986.6 3386.72  15
   2   6   1 87242.7 5406.56  15
   2   6   2 55527.9 3732.42  15
  -2  -6  -2 45848.9 3894.62  23
   2   6   3 319.766 221.347  15
   2   6   4 7625.74 873.588  15
   2   7 -10 45109.0 3046.82  12
   2   7 -10 64073.0 3226.55  13
   2   7  -9 26630.8 2627.93  12
   2   7  -9 29100.8 2391.59  13
   2   7  -8 23923.3 2768.14  12
   2   7  -8 24798.3 2510.97  13
   2   7  -7 413.879 564.392  12
   2   7  -7 737.702 613.696  19
   2   7  -7 609.841 675.403  13
   2   7  -7 277.144 470.853  11
   2   7  -6 21504.7 2880.50  12
   2   7  -6 21063.3 2818.15  19
   2   7  -6 20388.0 2773.22  11
   2   7  -6 12326.5 2107.36  21
   2   7  -5 19041.2 2739.20  12
   2   7  -5 21125.6 2898.65  11
   2   7  -5 18833.6 2512.76  21
   2   7  -4 29682.0 3526.89  11
   2   7  -4 28872.0 3384.91  12
   2   7  -4 26396.7 2973.62  21
   2   7  -3 24188.6 3040.89  11
   2   7  -3 29581.4 3067.00  21
   2   7  -2 13071.1 2107.06  11
   2   7  -2 13379.7 1944.50  21
   2   7  -1 7961.82 1446.90  21
   2   7  -1 10807.0 1793.83  11
   2   7  -1 11092.5 1734.78  15
   2   7   0 8259.21 1412.55  11
   2   7   0 7696.36 1374.01  15
  -2  -7  -1 13929.7 1978.21  23
   2   7   1 28184.2 2352.69  15
   2   7   2 59535.8 3295.53  15
   2   8 -10 2490.16 530.457  12
   2   8 -10 2993.79 523.169  13
   2   8  -9 13338.0 1635.00  12
   2   8  -9 12283.7 1332.14  13
   2   8  -8 40055.2 3278.62  12
   2   8  -8 31336.8 2581.32  13
   2   8  -7 38141.9 3331.95  19
   2   8  -7 40156.6 3429.00  11
   2   8  -7 45538.5 3831.36  12
   2   8  -6 17488.2 2346.27  19
   2   8  -6 13374.8 2087.71  11
   2   8  -6 15273.8 1959.62  21
   2   8  -6 14062.1 2144.67  12
   2   8  -5 16573.1 2290.57  11
   2   8  -5 14529.4 2193.36  12
   2   8  -5 16585.3 2061.84  21
   2   8  -4 17448.7 2242.16  11
   2   8  -4 16758.0 2095.10  21
   2   8  -3 20912.5 2392.30  11
   2   8  -3 21550.9 2310.06  21
   2   8  -2 107539. 5704.59  11
   2   8  -2 99323.1 5355.16  21
   2   8  -1 76922.6 4209.52  11
   2   8  -1 60801.6 3772.49  15
   2   8   0 16385.1 1602.25  15
   2   8   1 2815.34 536.681  15
   2   9  -9 487.714 233.833  12
   2   9  -8 12603.7 1355.14  16
   2   9  -8 14852.8 1604.64  12
   2   9  -7 10897.0 1492.39  12
   2   9  -7 8404.73 1227.10  11
   2   9  -7 7448.19 1112.53  19
   2   9  -6 7849.87 1268.32  19
   2   9  -6 9966.67 1399.83  11
   2   9  -6 9074.73 1268.32  21
   2   9  -5 43588.8 3098.89  19
   2   9  -5 42285.0 3069.65  11
   2   9  -5 48475.8 3093.65  21
   2   9  -4 28560.3 2326.32  11
   2   9  -4 26391.6 2201.69  21
   2   9  -3 1141.18 407.470  16
   2   9  -3-96.0963 171.172  11
   2   9  -2 26087.4 1916.95  11
   3 -11   2 14510.6 1241.79   9
  -3  11  -3 46279.2 2861.61  21
   3 -11   3 46129.5 2549.76   9
  -3  11  -4 49280.9 3094.40  21
   3 -11   4 42242.8 2443.89   9
  -3  11  -5 42521.7 2831.05  21
   3 -11   5 38870.3 2222.77   9
  -3  11  -6 1309.46 453.105  21
   3 -11   6 1441.19 361.322   9
  -3  10   1 19583.8 1613.43  15
   3 -10   0 29085.5 2195.17   9
  -3  10   0 38727.5 2756.27  15
  -3  10  -1 82973.0 4734.63  15
   3 -10   1 75040.4 4281.73   9
  -3  10  -2 15493.5 2006.23  21
   3 -10   2 14804.1 1719.43   9
  -3  10  -2 16535.1 2011.58  15
  -3  10  -3-771.346 468.924  21
   3 -10   3 244.495 315.926   9
  -3  10  -4 56693.5 4317.23  21
   3 -10   4 49511.8 3203.22   9
  -3  10  -5 101353. 5957.69  21
   3 -10   5 95504.1 4660.77   9
  -3  10  -6 75541.0 4671.89  21
   3 -10   6 66770.7 3540.51   9
  -3  10  -7 15417.9 1724.70  21
   3 -10   7 15164.8 1343.62   9
   3 -10   8 3462.69 559.979   9
   3  -9  -2 2351.55 560.313  18
  -3   9   2 1925.91 586.690  15
  -3   9   1 2198.35 783.810  15
   3  -9  -1 2043.75 624.919   9
   3  -9   0 5309.97 1187.10   9
  -3   9  -1 50614.1 4493.89  21
   3  -9   1 45176.6 3621.80   9
  -3   9  -2 68255.3 5812.82  21
   3  -9   2 71932.3 4654.01   9
  -3   9  -3 60086.3 5574.87  21
   3  -9   3 68751.2 4445.50   9
  -3   9  -4 8741.32 2134.90  21
   3  -9   4 9441.14 1462.65   9
  -3   9  -5 25072.8 3341.91  21
   3  -9   5 27750.6 2424.06   9
  -3   9  -6 54564.4 4503.65  21
   3  -9   6 55018.1 3405.72   9
  -3   9  -7 55491.2 4208.36  21
   3  -9   7 76097.9 3807.52   9
   3  -9   8 19207.9 1586.78   9
   3  -9   9 416.116 185.469   9
  -3   9  -9 923.242 401.656  13
   3  -8  -4 4633.60 661.583  18
   3  -8  -3 34761.4 2518.18  18
   3  -8  -3 34768.4 2339.76  22
   3  -8  -2 76469.7 4749.18   9
   3  -8  -2 95825.2 4897.66  22
   3  -8  -1 93247.6 5681.38   9
   3  -8  -1 87235.1 5328.67  22
   3  -8   0 10013.5 1767.10   9
  -3   8  -1 47662.0 5306.21  21
   3  -8   1 48626.4 3965.56   9
  -3   8  -2 31085.5 4569.75  21
   3  -8   2 37825.7 3432.46   9
  -3   8  -3 197505. 12905.4  21
   3  -8   3 220256. 9777.78   9
  -3   8  -4 93642.5 8187.69  21
   3  -8   4 109788. 6028.18   9
  -3   8  -5 19681.5 3419.78  21
   3  -8   5 21106.5 2232.57   9
  -3   8  -5 22946.3 3495.41  23
  -3   8  -6 20407.0 2979.05  21
  -3   8  -6 19612.7 2986.16  23
   3  -8   6 21175.5 2125.74   9
   3  -8   7 80074.6 4304.90   9
  -3   8  -7 68130.0 5306.14  23
  -3   8  -8 65062.3 4326.35  23
   3  -8   8 60023.8 3435.98   9
   3  -8   9 29964.9 1997.93   9
   3  -8  10 1876.73 357.671   9
   3  -7  -5 30135.3 1873.14  18
   3  -7  -5 27846.9 1786.96  22
   3  -7  -4 23331.2 2035.67  18
  -3   7   4 26579.9 2541.68  15
   3  -7  -4 23042.6 1988.78  22
   3  -7  -3 189.947 337.641   9
   3  -7  -3 572.032 610.549  22
   3  -7  -2 47643.6 4035.39   9
   3  -7  -2 44648.3 4034.39  22
   3  -7  -1 140854. 7689.33   9
   3  -7  -1 153882. 8657.91  22
   3  -7   0 116532. 6679.63   9
   3  -7   0 120585. 7293.06  22
  -3   7  -1 63432.5 7281.10  21
   3  -7   1 76646.7 5092.46   9
   3  -7   1 81084.5 5526.84  22
  -3   7  -2 1235.95 1334.07  21
   3  -7   2 537.265 404.190   9
  -3   7  -3 88490.3 8638.52  21
   3  -7   3 109206. 6166.03   9
   3  -7   4 126319. 6601.19   9
  -3   7  -4 120579. 8620.40  23
  -3   7  -5 94756.2 7919.63  21
  -3   7  -5 101260. 7678.13  23
   3  -7   5 105258. 5731.80   9
   3  -7   6 35602.9 2910.96   9
  -3   7  -6 33149.8 3937.08  23
   3  -7   7 671.701 438.224   9
  -3   7  -7 442.195 670.161  23
  -3   7  -8 5475.44 1233.02  23
   3  -7   8 4516.08 903.819   9
  -3   7  -9 32767.7 2521.69  23
   3  -7   9 30359.3 2183.10   9
   3  -7  10 21785.7 1485.75   9
   3  -6  -6 15313.8 1290.75  18
   3  -6  -6 15346.6 1302.97  10
   3  -6  -6 15301.0 1297.66  22
   3  -6  -5 32381.5 2466.99  18
   3  -6  -5 34654.0 2521.17  10
   3  -6  -5 32697.0 2479.79  22
   3  -6  -4 77124.1 4559.57  18
   3  -6  -4 62162.0 4348.73  22
   3  -6  -3 54150.2 4146.06   9
   3  -6  -3 54299.5 4512.48  22
   3  -6  -2 5019.89 1249.35   9
   3  -6  -2 5654.10 1548.56  22
   3  -6  -1 57883.9 4283.57   9
   3  -6  -1 48992.9 4510.00  22
  -3   6   0 111907. 9968.16   3
   3  -6   0 123487. 6966.99   2
   3  -6   0 121424. 8511.78  24
  -3   6  -1 159818. 12229.6   3
   3  -6   1 185721. 9505.24  24
  -3   6  -2 51268.1 6718.05   3
   3  -6   2 74492.2 5244.71  24
   3  -6   3 11686.0 1818.80   6
  -3   6  -3 8787.74 2640.09   3
   3  -6   3 12530.7 1972.21  24
   3  -6   4 47103.1 3803.55   6
  -3   6  -4 42857.6 5574.44   3
  -3   6  -4 43775.9 4699.67  27
   3  -6   4 45238.4 3720.67  24
  -3   6  -5 60690.4 5952.89  21
  -3   6  -5 76287.2 6317.67  23
  -3   6  -6 61582.4 5419.21  23
  -3   6  -7 13422.0 2184.43  23
  -3   6  -8 5021.66 1151.45  23
  -3   6  -9 376.330 349.868  23
   3  -6  10 1522.51 379.488   9
  -3   6 -10 1576.79 394.923  23
   3  -5  -7 30033.8 1786.42  18
   3  -5  -7 27179.5 1741.67  22
   3  -5  -6 6237.82 986.146  18
   3  -5  -6 4688.07 876.419  10
   3  -5  -6 3639.36 782.327  22
   3  -5  -5 6564.89 1245.31  18
   3  -5  -5 7202.46 1252.76  10
   3  -5  -5 5518.27 1232.23  22
   3  -5  -4 26513.1 2716.63   9
   3  -5  -4 42376.8 3730.54  22
   3  -5  -3 94326.7 5887.43   9
   3  -5  -3 99877.7 6712.16  22
   3  -5  -2 74333.9 6106.61   2
  -3   5   2 27476.8 6890.51  25
   3  -5  -1 52952.1 4658.46   2
  -3   5   1 47626.9 6278.10   3
   3  -5  -1 61796.5 5319.24  24
  -3   5   0 2155.54 1337.12   3
   3  -5   0 4867.97 1188.71   2
  -3   5   0 2227.63 2083.98  25
   3  -5   0 5961.73 1759.71  24
  -3   5  -1 125232. 9970.10   3
   3  -5   1 148715. 6956.90   2
   3  -5   1 122301. 7544.39  24
  -3   5  -2 198540. 12710.2   3
   3  -5   2 184743. 9436.76  24
   3  -5   3 47518.9 3623.97   6
  -3   5  -3 36406.2 4846.41   3
  -3   5  -3 42637.2 4400.85  27
   3  -5   3 44467.0 3714.42  24
   3  -5   4 45059.3 3594.93   6
  -3   5  -4 43257.5 5079.72   3
  -3   5  -4 42439.5 4442.30  27
   3  -5   4 30150.3 2967.95   4
   3  -5   4 42057.4 3414.61  24
   3  -5   5 5259.28 1161.05   4
   3  -5   5 6120.27 1288.66   6
  -3   5  -5 6655.10 1728.81  23
  -3   5  -5 9168.24 2042.83  27
  -3   5  -6 5341.96 1426.20  23
  -3   5  -7 56740.1 4438.52  23
  -3   5  -8 31928.7 2882.52  23
  -3   5  -9 32442.9 2511.97  23
   3  -4  -8 11216.9 1022.37  10
   3  -4  -8 9617.08 921.707  22
   3  -4  -7 92323.1 4396.74  18
   3  -4  -7 93687.8 4497.67  10
   3  -4  -7 88708.1 4388.68  22
   3  -4  -6 95010.7 5088.38  18
   3  -4  -6 101224. 5278.53  10
   3  -4  -6 98249.6 5250.86  22
   3  -4  -5 85481.7 5045.76  18
   3  -4  -5 85166.5 5115.77  10
   3  -4  -5 80983.1 5315.39  22
   3  -4  -4 1071.77 697.377  22
   3  -4  -3 81876.3 6783.93   2
  -3   4   3 36471.4 7628.87  25
  -3   4   2 155208. 11152.2   3
  -3   4   2 140769. 13792.0  25
   3  -4  -2 138044. 7685.99  24
   3  -4  -1 291621. 12508.6   2
  -3   4   1 275673. 18314.0  25
   3  -4  -1 315039. 13387.3  24
  -3   4   0 61155.2 6402.69   3
   3  -4   0 78492.0 4952.91   2
  -3   4   0 70488.8 7873.92  25
   3  -4   0 82810.2 5928.85  24
  -3   4  -1 1886.84 1559.10  25
   3  -4   1 2867.48 732.927   6
  -3   4  -1 3954.62 1565.06   3
   3  -4   1 3020.67 818.279   2
   3  -4   1 1591.95 845.295  24
   3  -4   2 8563.67 1302.07   6
  -3   4  -2 9004.84 2171.90   3
  -3   4  -2 9242.04 1959.03  27
  -3   4  -2 9713.28 2671.60  25
   3  -4   2 8979.06 1688.43  24
   3  -4   3 97684.5 5424.45   6
  -3   4  -3 116994. 7998.09   3
   3  -4   3 108003. 5769.75   4
  -3   4  -3 89467.4 6615.83  27
   3  -4   3 84527.1 5429.40  24
  -3   4  -4 239222. 11668.6   3
   3  -4   4 160832. 8058.43  24
  -3   4  -4 223402. 10741.1  27
   3  -4   4 157254. 8191.64   4
   3  -4   5 81494.2 5044.54   6
  -3   4  -5 82957.5 5782.62  27
  -3   4  -6 5543.67 1340.80  23
  -3   4  -7 2487.56 910.484  23
  -3   4  -8 10756.7 1565.74  23
  -3   4  -9 31378.1 2371.26  23
   3  -3  -8 839.808 313.096  18
   3  -3  -8 1356.94 407.504  10
   3  -3  -8 743.758 355.266  22
   3  -3  -7 5998.79 1046.11  18
   3  -3  -7 7262.98 1162.93  10
   3  -3  -7 7101.70 1243.05  14
   3  -3  -7 6398.81 1074.98  22
   3  -3  -6 41563.2 3164.15  18
   3  -3  -6 40657.1 3188.11  10
   3  -3  -6 36791.4 3299.12  14
   3  -3  -6 38872.3 3239.37  22
   3  -3  -5 200484. 8727.99  18
   3  -3  -5 196198. 8856.05  10
   3  -3  -5 179384. 9757.79  14
   3  -3  -5 181744. 9168.85  22
   3  -3  -4 134418. 8092.27   2
  -3   3   4 77285.0 10491.8  25
   3  -3  -3 18103.3 2799.96   2
  -3   3   3 17488.7 4374.21  25
   3  -3  -2 62820.2 4624.42  24
   3  -3  -2 78465.4 5452.66   2
  -3   3   2 66457.4 6372.36   3
   3  -3  -1 176777. 8887.92   2
  -3   3   1 186463. 11430.2   3
   3  -3   0 194824. 8185.02   1
  -3   3   0 228303. 11997.6   3
   3  -3   0 204455. 8902.22   2
  -3   3   0 197853. 10138.6  29
  -3   3   0 280788. 13955.8  25
   3  -3   0 252896. 10626.2  24
   3  -3   1 145897. 6211.69   6
  -3   3  -1 166131. 9541.43   3
  -3   3  -1 141003. 8666.46  29
   3  -3   1 160036. 8001.30  24
   3  -3   2 61537.7 3688.48   6
  -3   3  -2 70765.2 5605.85   3
  -3   3  -2 78397.1 6159.47  29
  -3   3  -2 74767.5 5852.62  25
   3  -3   2 59549.8 3909.51   4
   3  -3   2 62140.3 4479.02  24
   3  -3   3 5925.40 1156.68   6
  -3   3  -3 5853.54 1614.64  29
  -3   3  -3 8393.83 1878.80   3
   3  -3   3 8496.22 1488.28   4
   3  -3   3 5846.13 1282.65  24
   3  -3   4 32457.3 3216.90   4
   3  -3   4 42560.7 3432.36   6
  -3   3  -4 47566.6 4211.27   3
  -3   3  -4 50184.2 4648.47  29
  -3   3  -4 44604.5 4074.61  27
   3  -3   4 34027.9 3113.32  24
   3  -3   4 45538.8 3616.45   7
  -3   3  -5 75116.5 5341.19  27
   3  -3   5 67854.8 4760.73   7
  -3   3  -6 125754. 7055.49  23
  -3   3  -7 76031.0 4914.09  17
  -3   3  -7 87158.9 5284.91  23
  -3   3  -8 7921.86 1330.57  12
  -3   3  -8 9268.97 1349.89  17
  -3   3  -8 8707.83 1373.66  23
  -3   3  -9 7822.20 1036.09  12
  -3   3  -9 6937.93 941.428  17
   3  -2  -9 54780.0 2778.15  18
   3  -2  -9 55485.4 2853.72  10
   3  -2  -8 62181.0 3444.66  18
   3  -2  -8 62403.9 3522.92  10
   3  -2  -8 51703.2 3164.91  22
   3  -2  -7 14053.8 1664.68  18
   3  -2  -7 12164.3 1631.20  10
   3  -2  -7 12262.8 1750.64  14
   3  -2  -6 9713.86 1793.28  14
   3  -2  -6 11540.5 1613.14  18
   3  -2  -6 11481.4 1678.11  10
   3  -2  -6 7125.02 1421.17  22
  -3   2   5 160343. 9530.44   7
   3  -2  -5 180074. 9051.08   2
  -3   2   4 126853. 11439.2  25
   3  -2  -4 146225. 8303.67   2
   3  -2  -3 251432. 12094.8   2
  -3   2   3 325088. 17588.9  25
   3  -2  -2 21478.5 2526.11   2
  -3   2   2 19111.9 2826.19   3
   3  -2  -2 15046.4 1859.89  24
   3  -2  -2 20613.3 2215.36   8
   3  -2  -1 75192.3 3672.50   1
   3  -2  -1 61022.5 4200.93   2
  -3   2   1 75936.2 5488.93   3
  -3   2   1 69985.7 4666.29  29
   3  -2  -1 81871.3 4693.01  24
   3  -2  -1 76369.9 4282.86   8
   3  -2   0 148843. 6971.85  24
   3  -2   0 141178. 6179.52   1
  -3   2   0 149206. 8126.23  29
  -3   2   0 133957. 7478.08   3
   3  -2   0 120903. 5715.48   8
  -3   2  -1 281219. 12980.0  29
  -3   2  -1 270275. 11962.5   3
   3  -2   1 279436. 10277.7   4
   3  -2   1 282562. 11131.2   1
   3  -2   1 278345. 11243.3  24
  -3   2  -2 166330. 9260.14  29
  -3   2  -2 164281. 8507.35   3
   3  -2   2 178843. 8145.83  24
   3  -2   2 167598. 7690.33   4
  -3   2  -3 47016.9 4460.93  29
  -3   2  -3 49284.3 4205.28   3
   3  -2   3 43892.5 3744.27  24
   3  -2   3 47865.1 3790.21   4
   3  -2   3 47370.2 3868.36   7
   3  -2   4 1828.86 855.289   4
   3  -2   4 2210.44 768.871   7
  -3   2  -4 1643.91 883.753  29
  -3   2  -4 1280.86 679.650   3
   3  -2   4 1082.58 747.935  24
   3  -2   5-194.343 277.866   4
   3  -2   5 1072.70 606.543   7
   3  -2   5-614.790 567.197   1
  -3   2  -5 845.806 557.155  27
   3  -2   6 45211.5 4036.85  20
  -3   2  -6 44004.3 3888.83  17
  -3   2  -6 49179.2 3947.43  23
  -3   2  -7 107225. 5842.95  23
   3  -2   7 87192.4 5663.33  20
  -3   2  -7 98102.1 5678.98  17
  -3   2  -8 71416.8 4096.44  12
  -3   2  -8 80215.0 4315.11  17
  -3   2  -8 68516.3 4107.55  23
  -3   2  -9 9510.40 1032.77  12
  -3   2  -9 10653.3 1080.09  17
   3  -1 -10 185.361 142.474  18
   3  -1 -10-38.8139 62.4728  10
   3  -1  -9 39151.5 2424.37  18
   3  -1  -9 33789.7 2324.84  17
   3  -1  -9 39166.4 2488.42  10
   3  -1  -8 27278.5 2281.39  18
   3  -1  -8 30285.4 2531.81  17
   3  -1  -8 26869.1 2336.61  10
   3  -1  -8 23528.3 2322.33  14
   3  -1  -7 130736. 6279.88  18
   3  -1  -7 139290. 6999.95  17
   3  -1  -7 148807. 6803.54  10
   3  -1  -7 140901. 7115.63  14
   3  -1  -6 35793.4 3235.40  19
   3  -1  -6 35624.1 2968.93  18
   3  -1  -6 37436.3 3780.25  17
   3  -1  -6 39862.4 3352.15  10
   3  -1  -6 39393.9 3976.75  14
   3  -1  -5 164.156 246.165   2
   3  -1  -4 19157.3 2558.21   2
  -3   1   4 21430.9 3622.21  25
   3  -1  -3 128726. 7091.42   2
   3  -1  -3 136369. 6868.36   8
   3  -1  -2 169987. 7186.52  24
  -3   1   2 168351. 8310.02   3
   3  -1  -2 159554. 7609.86   2
   3  -1  -2 173065. 6883.03   1
   3  -1  -2 168937. 7442.64   8
   3  -1  -1 230229. 8668.97   1
  -3   1   1 226727. 10012.5   3
  -3   1   1 208947. 9650.16  29
   3  -1  -1 230682. 9100.72  24
   3  -1  -1 209471. 8677.55   8
  -3   1   0 139997. 7350.19  29
   3  -1   0 145893. 6684.73  24
   3  -1   0 129182. 5954.98   8
   3  -1   0 133493. 6205.03   1
   3  -1   1 3428.45 759.577   4
  -3   1  -1 5109.57 1436.56  29
   3  -1   1 4289.01 1033.19   1
   3  -1   1 3959.94 1029.21  24
   3  -1   1 2830.63 732.186   8
  -3   1  -2 76568.5 5997.46  29
  -3   1  -2 62795.5 4184.35  26
   3  -1   2 59303.6 4088.82   4
   3  -1   2 69258.9 4763.99  24
   3  -1   2 69491.0 4641.63   1
   3  -1   2 67101.4 4630.00   7
   3  -1   3 206150. 9980.07  24
  -3   1  -3 200172. 10744.4  29
  -3   1  -3 188071. 8701.41  26
   3  -1   3 179442. 9106.00   1
   3  -1   3 197752. 9486.09   4
   3  -1   3 216413. 10164.2   7
   3  -1   4 74187.2 5810.15   7
  -3   1  -4 72465.1 6113.90  29
  -3   1  -4 89987.2 5233.46  26
   3  -1   4 97754.1 6278.75   4
   3  -1   4 92579.4 5955.29   1
   3  -1   5 99414.5 6771.31  20
  -3   1  -5 113697. 6567.15  23
   3  -1   6 5384.31 1432.67  20
  -3   1  -6 6638.14 1461.71  17
  -3   1  -6 6401.47 1397.02  23
   3  -1   7 37036.9 3366.55  20
  -3   1  -7 40151.3 3236.25  17
  -3   1  -7 32275.0 2882.37  23
  -3   1  -8 45900.8 2880.77  12
   3  -1   8 42409.5 2915.85  20
  -3   1  -8 51457.7 3115.57  17
  -3   1  -9 51627.9 2499.46  17
   3   0 -10 39547.8 2236.33  18
   3   0 -10 42014.1 2325.84  10
   3   0  -9 14320.1 1482.29  18
   3   0  -9 13530.8 1515.28  17
   3   0  -9 13670.9 1500.17  10
   3   0  -8 25437.8 2303.86  18
   3   0  -8 24232.4 2413.94  17
   3   0  -8 25563.8 2399.12  10
   3   0  -8 25314.5 2513.99  14
   3   0  -7 116974. 6463.29  19
   3   0  -7 118573. 6074.51  18
   3   0  -7 122183. 6927.37  17
   3   0  -7 125051. 6535.73  10
   3   0  -7 115628. 6673.35  14
   3   0  -6 71886.0 4547.20  18
   3   0  -6 77249.2 5771.59  17
   3   0  -6 78613.0 5377.49  10
   3   0  -6 71261.5 5652.90  14
   3   0  -5 13344.8 1975.13   2
   3   0  -5 20611.9 2514.76   8
   3   0  -4 36800.1 3224.69   2
  -3   0   4 33955.3 3266.18  28
   3   0  -4 37913.7 3268.43   8
   3   0  -3 556.614 456.053   1
  -3   0   3 819.741 578.823  29
   3   0  -3 941.665 525.669   8
   3   0  -2 6612.91 1168.11   1
   3   0  -2 7456.61 1295.78  24
   3   0  -2 4593.94 984.721   8
  -3   0   2 5213.76 1252.91  29
   3   0  -1 224682. 9323.06   8
   3   0  -1 246949. 9489.93   1
  -3   0   1 206993. 10053.8  29
   3   0  -1 228553. 9630.12  24
  -3   0   0 162521. 8626.84  29
   3   0   0 184893. 7930.23   1
   3   0   0 184017. 8474.53  24
   3   0   0 180070. 8088.49   8
   3   0   1 126672. 6355.38   1
  -3   0  -1 130627. 7413.32  29
   3   0   1 132877. 6979.68  24
   3   0   1 131922. 6508.52   8
   3   0   1 133499. 6617.18   7
   3   0   2 45309.8 4117.94   7
  -3   0  -2 57223.6 5235.71  29
  -3   0  -2 42347.3 3346.95  26
   3   0   2 49168.1 3870.56   1
   3   0   3-121.288 469.592   7
  -3   0  -3 276.971 365.544  26
  -3   0  -3 1142.91 905.871  29
   3   0   3 1099.97 814.191   1
   3   0   4 84528.3 5686.12   1
   3   0   4 87740.3 6785.21   7
  -3   0  -4 84095.4 6535.29  29
  -3   0  -4 68860.1 4788.21  26
   3   0   5 143194. 8657.45  20
  -3   0  -5 144944. 7816.29  23
   3   0   6 43210.4 3825.67  20
  -3   0  -6 41311.1 3610.74  17
   3   0   7 10684.6 1558.12  20
  -3   0  -7 11676.5 1540.52  17
   3   0   8 149.815 156.901  20
  -3   0  -8 834.744 300.754  12
  -3   0  -8 1120.05 366.878  17
   3   1 -10 48951.4 2739.88  18
   3   1 -10 52377.8 2868.36  10
   3   1  -9 75513.2 4095.84  18
   3   1  -9 73479.3 4213.42  17
   3   1  -9 75133.9 4178.93  10
   3   1  -8 18753.1 2024.22  18
   3   1  -8 20127.2 2310.32  17
   3   1  -8 19130.9 2196.90  10
   3   1  -8 19422.9 2241.79  14
   3   1  -7 983.566 556.923  19
   3   1  -7 1129.40 516.400  18
   3   1  -7 2425.15 989.385  17
   3   1  -7 1555.75 704.614  10
   3   1  -7 2098.67 818.412  14
   3   1  -7 1613.92 626.101  13
  -3  -1   6 18907.4 2662.19  28
   3   1  -6 12800.9 2101.78   8
  -3  -1   5 128384. 7219.54  28
   3   1  -5 113854. 6686.04   8
  -3  -1   4 215739. 13041.9  29
   3   1  -4 231093. 11001.5   1
   3   1  -3 37525.1 3130.81   1
  -3  -1   3 28058.1 2572.10  28
  -3  -1   3 29328.2 3620.50  29
   3   1  -3 28682.7 2680.46   8
  -3  -1   2 87109.1 6108.78  29
   3   1  -2 91986.7 5243.78   1
   3   1  -2 82891.3 4975.22   8
  -3  -1   1 1116.56 714.309  29
   3   1  -1 1244.18 638.633   1
   3   1  -1 2409.61 775.435   8
   3   1   0 89775.3 5147.49   1
  -3  -1   0 82182.3 5657.67  29
   3   1   1 385737. 14891.0   1
  -3  -1  -1 355297. 15031.8  26
  -3  -1  -1 410094. 16259.3  29
   3   1   1 388074. 15364.9   7
   3   1   2 317099. 14552.4   7
   3   1   2 327450. 12971.4   1
  -3  -1  -2 291859. 14348.3  29
   3   1   3 103800. 8083.47   7
   3   1   3 84248.3 5693.41   1
  -3  -1  -3 96031.5 7207.68  29
  -3  -1  -3 78570.7 5378.72  26
   3   1   4 3908.99 1345.60  20
   3   1   4 4165.29 1327.91  15
  -3  -1  -4 3111.39 986.445  23
   3   1   5 116275. 7060.10  20
   3   1   5 110343. 6665.31  15
  -3  -1  -5 123335. 6858.63  23
  -3  -1  -6 97174.5 5420.57  17
  -3  -1  -6 87454.1 5044.90  23
   3   1   7 64295.2 3706.57  20
  -3  -1  -7 66017.2 3683.03  17
   3   2 -11 286.036 152.942  10
   3   2 -10 30332.4 2146.51  18
   3   2 -10 31127.3 2194.67  10
   3   2  -9 65344.6 3780.21  18
   3   2  -9 61647.8 3883.93  17
   3   2  -9 66943.3 3984.26  10
   3   2  -8 67433.0 4366.06  18
   3   2  -8 68502.5 4849.01  17
   3   2  -8 70322.0 4766.96  10
   3   2  -8 63857.9 4336.02  14
   3   2  -8 64559.3 4289.42  13
   3   2  -7 18615.9 2298.85  11
   3   2  -7 18345.5 2368.33  19
   3   2  -7 24349.3 2612.83  13
   3   2  -7 25476.8 2796.72  18
   3   2  -7 24220.1 2996.61  17
   3   2  -7 21963.1 2705.37  10
   3   2  -7 20605.0 2516.22  14
  -3  -2   6 30350.3 3273.70  28
   3   2  -6 15798.1 2343.12   8
  -3  -2   5 14144.9 2109.62  28
   3   2  -5 6370.81 1354.12   8
  -3  -2   4 59313.5 4438.19  28
   3   2  -4 62047.1 4681.66   1
  -3  -2   4 47785.8 5754.96  29
   3   2  -4 53053.0 3981.20   8
   3   2  -3 288779. 11681.4   1
  -3  -2   3 264380. 13525.7  29
   3   2  -3 264996. 11005.9   8
  -3  -2   2 190853. 10383.0  29
   3   2  -2 202202. 9232.87   1
  -3  -2   2 190061. 8545.33  28
   3   2  -2 217585. 9732.81   8
  -3  -2   1 96550.0 6530.16  29
   3   2  -1 96883.3 5721.33   1
   3   2  -1 112708. 6640.91   8
  -3  -2   0 5823.31 1461.50  29
   3   2   0 6466.64 1379.04   1
   3   2   1 31566.3 3229.45   1
  -3  -2  -1 32313.8 3437.45  26
  -3  -2  -1 25805.9 3302.45  29
   3   2   2 142867. 7835.80   1
  -3  -2  -2 115175. 7474.71  26
   3   2   3 166701. 9783.37  20
   3   2   3 149909. 8650.91  15
   3   2   4 103115. 6564.77  20
   3   2   4 90563.3 5941.58  15
  -3  -2  -4 96168.9 6136.52  23
   3   2   5 359.948 471.681  20
  -3  -2  -5 258.386 433.541  23
  -3  -2  -5 1145.20 803.500  17
   3   2   5 485.817 499.906  15
   3   2   6 5982.19 1066.57  20
  -3  -2  -6 6259.70 1098.92  17
   3   2   7 47026.7 2493.68  20
  -3  -2  -7 40777.8 2369.99  17
   3   3 -11 20478.3 1420.50  10
   3   3 -10 924.694 412.894  18
   3   3 -10 474.476 320.476  10
   3   3 -10 670.497 399.449  13
   3   3  -9 993.748 552.473  18
   3   3  -9 1920.21 755.232  10
   3   3  -9 1663.91 749.012  13
   3   3  -8 1518.90 725.820  14
   3   3  -8 1502.21 769.680  18
   3   3  -8 1839.14 898.804  10
   3   3  -8 2688.16 937.904  13
   3   3  -7 44235.2 3726.65  11
   3   3  -7 48168.1 4046.60  18
   3   3  -7 50193.3 4225.41  10
   3   3  -7 50830.7 4118.28  13
   3   3  -6 66880.7 4944.36  11
   3   3  -6 73045.9 5169.62  19
   3   3  -6 65940.7 5029.78  18
   3   3  -6 75765.9 5485.18  10
  -3  -3   6 75989.3 5452.65  28
   3   3  -6 82161.5 6196.59  13
  -3  -3   5 80157.8 5371.77  28
   3   3  -5 44629.7 3986.29   8
  -3  -3   4 13388.0 2939.45  29
  -3  -3   4 12403.2 2047.34  28
   3   3  -4 13685.6 2233.48   1
   3   3  -4 9942.33 1743.52   8
  -3  -3   3 5065.86 1520.30  29
  -3  -3   3 2783.08 971.650  28
   3   3  -3 4563.05 1306.75   1
   3   3  -3 5241.26 1339.03   8
   3   3  -2 143276. 7864.73   1
  -3  -3   2 160963. 9472.64  29
  -3  -3   2 147515. 7813.84  28
  -3  -3   1 181853. 10534.9  29
   3   3  -1 242645. 10342.9   1
  -3  -3   0 126881. 8412.44  29
   3   3   0 179418. 8633.47   1
  -3  -3  -1 11993.1 2338.15  29
   3   3   1 14431.8 2796.27  15
  -3  -3  -1 12520.4 2267.55  26
   3   3   1 11197.5 1936.44   1
   3   3   2 22286.4 3172.80  20
   3   3   2 20590.2 2899.30  15
   3   3   3 106508. 6740.31  20
   3   3   3 89888.8 5928.34  15
  -3  -3  -3 86697.6 5959.92  23
   3   3   4 42063.3 3604.00  20
   3   3   4 40222.4 3354.81  15
  -3  -3  -4 40841.4 3575.49  23
   3   3   5 52571.2 3505.86  20
  -3  -3  -5 52142.4 3561.46  17
   3   3   5 49670.9 3242.54  15
   3   3   6 10772.2 1150.85  20
  -3  -3  -6 7282.22 931.937  17
   3   4 -10 16926.1 1683.57  10
   3   4 -10 18823.7 1746.32  13
   3   4  -9 16846.7 2102.18  10
   3   4  -9 16014.3 1893.09  13
   3   4  -8 1922.08 816.454  11
   3   4  -8 2601.47 887.912  18
   3   4  -8 2335.96 949.290  10
   3   4  -8 1635.07 677.373  13
   3   4  -7 349.790 427.339  19
   3   4  -7 1143.85 772.757  11
   3   4  -7 1379.93 903.215  18
   3   4  -7 1816.50 942.123  10
   3   4  -7 1389.82 782.884  13
   3   4  -6 22206.8 2857.45  11
   3   4  -6 23728.8 2926.47  19
   3   4  -6 21685.6 2844.74  10
   3   4  -6 23746.9 3522.31  13
   3   4  -5 50963.8 4662.05  19
   3   4  -5 48342.2 4525.03  11
   3   4  -5 50883.2 4392.54  10
  -3  -4   5 49010.3 4517.63  28
   3   4  -5 40936.1 4321.30  13
  -3  -4   4 126485. 9814.52  29
  -3  -4   4 106894. 6879.92  28
   3   4  -4 120039. 7613.95   1
  -3  -4   3 138047. 9576.15  29
   3   4  -3 128599. 7692.12   1
  -3  -4   3 123186. 7530.47  28
   3   4  -3 148060. 8390.10   8
   3   4  -2 974.570 651.259   1
  -3  -4   2 1621.54 998.699  29
  -3  -4   2 1448.84 765.129  28
   3   4  -2 2092.81 955.310   8
   3   4  -1 65019.6 5083.27   1
  -3  -4   1 65285.5 5818.45  29
   3   4  -1 65036.0 5144.20  21
   3   4   0 138235. 9032.65  15
   3   4   1 97100.2 6574.80  15
   3   4   2 46446.8 3893.85  15
  -3  -4  -2 45160.4 4152.90  23
   3   4   3-359.789 512.761  20
   3   4   3 313.205 334.677  15
  -3  -4  -3-346.254 473.535  23
   3   4   4 21994.8 2158.68  20
  -3  -4  -4 20086.4 2088.31  17
   3   4   4 21374.3 1980.64  15
  -3  -4  -5 26458.8 1791.75  17
   3   4   5 22600.0 1572.95  15
   3   5 -10 8850.38 1147.05  13
   3   5  -9 63007.3 4359.13  12
   3   5  -9 70971.3 4512.74  10
   3   5  -9 65595.9 4052.13  13
   3   5  -8 78419.7 5457.02  12
   3   5  -8 76887.8 5029.47  11
   3   5  -8 75901.0 5063.30  19
   3   5  -8 92731.6 5744.64  10
   3   5  -8 85971.5 5277.60  13
   3   5  -7 51644.2 4263.89  11
   3   5  -7 49945.5 4213.64  19
   3   5  -7 51824.7 4352.30  13
   3   5  -6 16165.5 2517.27  12
   3   5  -6 27767.3 3333.83  11
   3   5  -6 27650.9 3348.42  19
   3   5  -6 24677.7 3226.46  13
   3   5  -5 11863.4 2100.46  12
   3   5  -5 14242.4 2469.48  21
   3   5  -5 15920.1 2620.40  19
   3   5  -5 14939.8 2595.40  11
   3   5  -4 143655. 8870.50  11
   3   5  -4 140434. 9031.06  21
   3   5  -4 124085. 7646.21  12
   3   5  -3 207352. 11425.8  11
   3   5  -3 218697. 11226.1  21
   3   5  -3 181812. 9689.38  12
   3   5  -2 140516. 9223.01  11
   3   5  -2 135172. 7887.25  21
   3   5  -1 21801.9 3105.62  11
   3   5  -1 19956.2 2851.76  15
   3   5  -1 18776.5 2470.51  21
   3   5   0 17179.6 2464.06  15
   3   5   1 143745. 7592.28  15
   3   5   2 74649.7 4571.51  15
  -3  -5  -2 74573.9 5094.60  23
   3   5   3 39315.5 2838.89  20
   3   5   3 43924.2 2909.68  15
  -3  -5  -3 41950.1 3153.61  23
   3   5   4 3380.74 610.616  20
   3   5   4 4601.45 680.298  15
   3   6 -10 9448.87 1095.65  12
   3   6 -10 13964.8 1335.77  13
   3   6  -9 4431.25 1001.37  12
   3   6  -9 4715.16 906.862  13
   3   6  -8 22134.3 2554.66  12
   3   6  -8 21821.4 2374.98  11
   3   6  -8 19682.7 2294.49  19
   3   6  -8 24642.5 2489.67  13
   3   6  -7 111776. 6872.27  12
   3   6  -7 117257. 6748.94  11
   3   6  -7 106896. 6530.66  19
   3   6  -7 102418. 6366.78  13
   3   6  -6 67368.3 5298.96  12
   3   6  -6 79627.4 5862.89  19
   3   6  -6 79281.8 5782.65  11
   3   6  -5 32935.5 3724.33  19
   3   6  -5 31606.6 3658.47  11
   3   6  -5 28839.1 3384.95  21
   3   6  -5 27919.1 3317.30  12
   3   6  -4 9044.76 1859.17  21
   3   6  -4 7384.83 1661.67  12
   3   6  -4 10188.8 2121.41  11
   3   6  -3 93432.8 6752.01  11
   3   6  -3 103279. 6466.60  21
   3   6  -2 45466.0 4252.08  11
   3   6  -2 48979.3 3983.40  21
   3   6  -1 87052.4 5671.70  11
   3   6  -1 85750.6 5282.82  16
   3   6  -1 87813.5 5578.61  15
   3   6   0 25499.6 2607.71  15
   3   6   1 444.769 377.619  15
  -3  -6  -1 1876.55 741.233  23
   3   6   2 15388.6 1545.61  15
  -3  -6  -2 14011.7 1669.43  23
   3   6   3 30159.3 1827.71  15
   3   7 -10 20607.2 1461.73  13
   3   7  -9 16218.7 1737.81  12
   3   7  -9 16175.1 1556.98  13
   3   7  -8 1754.65 649.646  12
   3   7  -8 448.103 322.319  19
   3   7  -8 916.945 472.902  11
   3   7  -8 918.247 418.406  13
   3   7  -7 32532.1 3024.95  11
   3   7  -7 31597.3 2970.58  19
   3   7  -7 29687.7 3061.79  12
   3   7  -6 133269. 7401.10  11
   3   7  -6 137823. 7550.18  19
   3   7  -6 133774. 7468.56  12
   3   7  -5 124570. 7228.86  19
   3   7  -5 118224. 7065.99  11
   3   7  -5 118095. 6489.16  21
   3   7  -5 106518. 6477.68  12
   3   7  -4 16897.7 2350.82  11
   3   7  -4 21353.5 2451.04  21
   3   7  -3 4478.88 1177.80  11
   3   7  -2 38409.4 3155.16  11
   3   7  -2 32895.9 2870.61  16
   3   7  -1 81472.4 4465.71  11
   3   7  -1 75588.3 4382.92  15
   3   7   0 33224.4 2445.48  15
  -3  -7   0 31030.6 2858.27  23
   3   7   1 8265.26 991.076  15
  -3  -7  -1 9682.62 1222.69  23
   3   8  -8 28442.9 2067.78  19
   3   8  -8 31592.4 2286.86  16
   3   8  -8 24227.8 2125.91  12
   3   8  -7 4642.78 949.026  19
   3   8  -7 5495.98 1032.88  11
   3   8  -7 7090.91 1165.38  16
   3   8  -6 7159.80 1257.29  19
   3   8  -6 6133.65 1153.53  11
   3   8  -6 9379.38 1383.60  16
   3   8  -5 31851.9 2765.78  19
   3   8  -5 34437.1 2795.36  11
   3   8  -5 38735.7 2952.28  16
   3   8  -4 67298.7 4034.62  19
   3   8  -4 63641.9 3929.79  11
   3   8  -4 65524.3 4018.02  16
   3   8  -3 52461.5 3294.35  19
   3   8  -3 49895.9 3171.51  11
   3   8  -3 44618.6 3019.86  16
   3   8  -2 14097.2 1450.16  19
   3   8  -2 14091.6 1411.83  11
  -3  -8   1 6282.54 1041.58  23
   3   9  -6 16184.4 1346.27  11
   3   9  -6 12409.0 1194.76  19
   3   9  -5 3763.16 616.696  11
   3   9  -5 3064.02 574.274  19
   3   9  -5 2825.89 582.360  16
   3   9  -4 8967.40 913.738  11
   3   9  -4 8394.27 920.792  19
  -4  11  -4 8.22726 219.168  21
   4 -11   4 237.614 149.751   9
  -4  11  -5 8574.42 1108.43  21
   4 -10   0 10511.8 1081.19   9
  -4  10   0 12402.0 1471.86  15
   4 -10   1 349.337 232.199   9
  -4  10  -2 30481.9 2864.95  21
   4 -10   2 33271.7 2456.23   9
  -4  10  -3 43818.1 3745.55  21
   4 -10   3 35709.8 2584.12   9
  -4  10  -4 47034.2 3963.86  21
   4 -10   4 41658.5 2700.68   9
  -4  10  -5 17593.8 2249.63  21
   4 -10   5 12888.6 1332.15   9
  -4  10  -6 5062.53 1089.66  21
   4 -10   6 5986.64 812.985   9
  -4  10  -7 1988.08 565.667  21
   4 -10   7 1529.14 359.662   9
   4  -9  -2 24816.3 1844.39  18
   4  -9  -2 26697.6 1630.95  22
   4  -9  -1 39691.6 2780.58   9
   4  -9  -1 46084.6 2633.80  22
   4  -9   0 36882.1 2994.79   9
  -4   9  -1 1473.77 740.093  21
   4  -9   1 2672.22 834.914   9
  -4   9  -2 4728.27 1534.26  21
   4  -9   2 1541.78 680.111   9
  -4   9  -3 4462.38 1770.54  21
   4  -9   3 6834.02 1234.88   9
  -4   9  -4 15204.6 2822.60  21
   4  -9   4 14977.2 1733.45   9
  -4   9  -5 22271.3 3182.73  21
   4  -9   5 21215.6 1945.93   9
  -4   9  -6 47238.1 4083.44  21
   4  -9   6 45580.3 2856.83   9
  -4   9  -7 2977.73 865.272  21
   4  -9   7 3547.63 662.969   9
   4  -9   8 441.804 199.540   9
   4  -8  -4 50906.1 2467.35  18
   4  -8  -3 32806.9 2346.02  18
   4  -8  -3 34476.7 2287.79  22
   4  -8  -2 717.949 430.792   9
   4  -8  -2 1330.72 494.957  22
   4  -8  -1 18395.0 2222.92   9
   4  -8  -1 21930.5 2512.96  22
   4  -8   0 21156.5 2501.65   9
   4  -8   0 38916.9 3410.15  22
  -4   8  -1 28004.1 4511.56  21
   4  -8   1 17063.5 2227.15   9
   4  -8   1 27899.6 2774.05  22
  -4   8  -2 25683.2 4647.60  21
   4  -8   2 24556.5 2631.46   9
   4  -8   2 25067.4 2545.40  22
  -4   8  -3 16893.2 3568.38  21
   4  -8   3 18978.3 2248.13   9
  -4   8  -4 1914.96 1641.54  21
   4  -8   4 2661.35 848.647   9
  -4   8  -5 3679.15 1662.81  21
   4  -8   5 4743.09 1009.02   9
  -4   8  -5 5285.03 1594.12  23
  -4   8  -6 49852.4 4715.13  21
   4  -8   6 45743.7 3080.85   9
  -4   8  -6 44633.8 4230.90  23
   4  -8   7 51996.7 3159.46   9
  -4   8  -7 65157.1 4648.08  23
   4  -8   8 45353.7 2655.54   9
  -4   8  -8 57747.4 3546.38  23
   4  -8   9 2890.22 454.887   9
   4  -7  -5 3381.72 551.779  18
   4  -7  -5 2432.76 476.178  22
   4  -7  -4 27931.2 2164.07  18
  -4   7   4 28304.2 2704.62  15
   4  -7  -4 25819.9 2117.96  22
   4  -7  -3 56102.5 3651.13  18
   4  -7  -3 44510.9 3520.23  22
   4  -7  -2 19545.2 2701.69  22
   4  -7  -1 31557.3 3418.36  22
  -4   7   0 3770.90 2150.41  21
   4  -7   0 4618.50 1263.43   9
   4  -7   0 6829.40 1596.82  22
  -4   7  -1 1053.93 1550.12  21
   4  -7   1 216.488 394.961   9
  -4   7  -2 14332.0 3867.48  21
   4  -7   2 11394.2 1807.01   9
  -4   7  -3 21073.4 4384.31  21
   4  -7   3 15662.6 2105.00   9
  -4   7  -4 49530.6 6319.75  21
   4  -7   4 44425.0 3598.33   9
  -4   7  -4 48714.3 5088.07  23
  -4   7  -5 26043.3 4046.20  21
   4  -7   5 27633.9 2605.18   9
  -4   7  -5 25993.2 3551.87  23
  -4   7  -6 2663.55 1209.23  21
   4  -7   6 2458.13 746.731   9
  -4   7  -6 3346.74 1228.78  23
  -4   7  -7 5805.83 1386.04  23
   4  -7   7 4916.89 936.052   9
   4  -7   8 69007.5 3652.04   9
  -4   7  -8 77038.2 4437.67  23
   4  -7   9 28428.8 1804.14   9
  -4   7  -9 35895.5 2293.04  23
   4  -6  -6 37690.7 2009.14  18
   4  -6  -6 25810.1 1736.12  22
   4  -6  -5 21179.7 1853.82  18
   4  -6  -5 20657.5 1888.22  22
   4  -6  -4 3228.06 893.295  18
   4  -6  -4 2127.67 897.868  22
   4  -6  -3 8859.19 1871.58  22
   4  -6  -2 24557.2 3041.82  22
   4  -6  -1 27166.4 3193.60  22
  -4   6   0 65125.0 8188.70  21
  -4   6  -1 22833.3 4863.85  21
   4  -6   1 38741.2 4588.84  16
   4  -6   2 184.323 380.206  20
   4  -6   2 1016.70 447.924  16
   4  -6   3 37114.9 4610.03  16
   4  -6   4 84025.6 5190.75   9
  -4   6  -4 71358.7 6316.80  23
  -4   6  -5 81032.0 6965.45  21
  -4   6  -5 85667.6 6589.36  23
   4  -6   6 33391.2 2866.42   9
  -4   6  -6 40232.7 4203.99  23
  -4   6  -7 8102.43 1628.53  23
   4  -6   8 33239.1 2424.46   9
  -4   6  -8 39938.0 3047.63  23
   4  -6   9 27812.7 1811.06   9
  -4   6  -9 27027.8 2036.54  23
   4  -5  -7 22271.8 1416.87  18
   4  -5  -7 13623.3 1138.59  22
   4  -5  -6 72636.9 3710.08  18
   4  -5  -6 66493.2 3678.82  22
   4  -5  -5 52037.9 3405.14  18
   4  -5  -5 42378.3 3401.58  22
   4  -5  -4 16029.7 2004.29  18
   4  -5  -4 16237.7 2398.64  22
   4  -5  -3 2565.36 1105.10  22
   4  -5  -2 4377.58 1192.17  22
  -4   5   1 25399.9 4912.55   3
  -4   5   1 21401.3 5999.56  25
   4  -5  -1 36306.6 4122.83  24
  -4   5   0 37069.8 5689.47   3
   4  -5   0 42189.4 3761.06   2
  -4   5   0 26835.3 6428.78  25
  -4   5  -1 77028.2 8261.89   3
  -4   5  -1 66937.9 9652.40  25
   4  -5   1 93791.3 6724.79  24
  -4   5  -2 64661.4 7267.67   3
   4  -5   2 65185.7 5060.68  24
  -4   5  -3 9487.95 2669.16   3
   4  -5   3 11335.6 1892.19  24
   4  -5   4 6953.61 1302.26  20
   4  -5   4 9056.49 2214.29  16
  -4   5  -4 6696.98 1881.67  23
  -4   5  -5 88472.2 6837.78  23
  -4   5  -6 138888. 8084.60  23
  -4   5  -7 41468.3 3552.85  23
  -4   5  -8 560.767 374.978  23
   4  -5   9 1132.58 345.192   9
  -4   5  -9 677.360 296.997  23
   4  -4  -8 26401.2 1528.46  18
   4  -4  -7 6062.27 869.296  18
   4  -4  -7 4851.23 801.343  10
   4  -4  -7 5154.45 824.100  22
   4  -4  -6 862.091 462.973  18
   4  -4  -6 642.953 383.273  14
   4  -4  -6 131.738 433.041  22
   4  -4  -5 11594.8 1660.75  18
   4  -4  -5 11777.4 2082.34  14
   4  -4  -5 9192.82 1726.53  22
   4  -4  -4 28304.9 2740.30  18
   4  -4  -4 26281.2 3466.23  14
   4  -4  -4 29214.6 3323.38  22
   4  -4  -3 68359.2 5370.99  14
   4  -4  -3 73135.0 5349.47  22
   4  -4  -2 58578.8 5197.62   2
  -4   4   2 56373.8 8515.97  25
  -4   4   1 4011.22 1692.07   3
   4  -4  -1 4418.82 1297.16   2
  -4   4   1 4735.14 2330.56  25
   4  -4  -1 5427.88 1453.90  24
  -4   4   0 4428.19 1674.32   3
  -4   4   0 2134.43 1403.37  25
   4  -4   0 3649.02 1252.26  24
  -4   4  -1 59064.8 6353.99   3
  -4   4  -1 69575.6 8008.77  25
   4  -4   1 71192.8 5401.59  24
  -4   4  -2 92403.2 7802.48   3
   4  -4   2 84800.2 6111.21   1
  -4   4  -3 85435.8 7754.31   3
  -4   4  -3 148305. 9428.00  27
   4  -4   3 121209. 6729.04   4
   4  -4   3 112725. 6615.74  24
   4  -4   4 16556.6 2109.36  20
  -4   4  -4 19812.2 3318.99   3
   4  -4   4 19196.9 3112.01  16
   4  -4   4 16482.7 2326.19   4
  -4   4  -4 21587.1 3185.69  23
   4  -4   5 895.204 596.846  20
  -4   4  -5 2265.79 1059.06  23
   4  -4   6 58464.9 4145.74  20
  -4   4  -6 81568.6 5389.88  23
  -4   4  -7 59239.7 4246.35  23
  -4   4  -8 20701.8 2061.66  23
  -4   4  -9 4364.98 683.285  23
   4  -3  -8 17251.4 1424.51  18
   4  -3  -8 15904.1 1382.17  10
   4  -3  -7 11973.3 1397.06  18
   4  -3  -7 9420.39 1295.23  10
   4  -3  -7 9327.02 1262.53  22
   4  -3  -6 19357.8 1997.17  18
   4  -3  -6 18574.7 2073.44  10
   4  -3  -6 16382.7 2287.39  14
   4  -3  -5 13322.3 1836.15  19
   4  -3  -5 13432.2 1804.80  18
   4  -3  -5 13252.3 2444.21  14
   4  -3  -5 13134.8 2257.31  22
   4  -3  -4 627.038 401.956  19
   4  -3  -4 1048.23 493.884  18
   4  -3  -4 178.991 685.841  14
   4  -3  -4-58.5687 290.283  22
   4  -3  -3 15065.6 2578.86   2
  -4   3   3 15522.2 4187.68  25
  -4   3   2 62917.9 6596.52   3
   4  -3  -2 75473.6 5462.57   2
   4  -3  -2 62457.2 4633.64  24
  -4   3   1 53078.7 5666.58   3
   4  -3  -1 61956.9 4616.42  24
  -4   3   0 40938.5 4725.29   3
  -4   3   0 51475.0 5927.53  25
   4  -3   0 55899.3 4398.37  24
  -4   3  -1 12145.3 2583.92  29
  -4   3  -1 12652.0 2434.09   3
   4  -3   1 6723.92 1419.19   1
  -4   3  -1 12232.5 2772.66  25
   4  -3   1 10908.1 1889.74  24
  -4   3  -2 21947.8 3248.04   3
  -4   3  -2 31062.9 4108.28  29
   4  -3   2 30337.7 3189.83  24
   4  -3   2 28028.7 3109.16   1
  -4   3  -3 57798.7 5684.90  29
   4  -3   3 45648.2 3888.57   4
   4  -3   3 52465.2 4571.69   1
   4  -3   3 47269.2 4019.89  24
   4  -3   4 97362.2 6032.48  20
  -4   3  -4 97250.7 6937.65   3
  -4   3  -4 116646. 7311.42  23
   4  -3   5 11896.2 1896.53  20
  -4   3  -5 13894.2 2233.11  23
   4  -3   6 829.906 500.364  20
  -4   3  -6 1697.35 715.860  23
   4  -3   7 3830.55 959.250  20
  -4   3  -7 4962.68 1147.18  23
  -4   3  -8 13973.2 1577.15  23
   4  -2  -9 3464.01 546.136  18
   4  -2  -9 4251.52 605.577  10
   4  -2  -8 5491.58 881.755  18
   4  -2  -8 6368.15 980.183  10
   4  -2  -8 6980.58 1055.33  14
   4  -2  -7 1397.64 562.073  18
   4  -2  -7 163.633 307.174  10
   4  -2  -7 741.206 540.673  14
   4  -2  -6 54688.4 3854.13  19
   4  -2  -6 51813.2 3583.19  18
   4  -2  -6 51156.7 3962.69  10
   4  -2  -6 49575.1 4578.92  14
   4  -2  -5 96265.6 5507.40  19
   4  -2  -5 92267.2 5218.49  18
   4  -2  -5 92450.6 6581.04  14
   4  -2  -5 76456.2 4887.55  13
   4  -2  -4 139192. 8306.25   2
  -4   2   4 130269. 11612.1  25
   4  -2  -3 6344.53 1449.47   2
  -4   2   3 11292.7 2987.51  25
  -4   2   2 12658.4 2445.38   3
  -4   2   2 12692.2 2953.55  25
   4  -2  -2 8537.61 1480.13  24
   4  -2  -2 13210.7 1806.15   8
  -4   2   1 124403. 8207.75   3
   4  -2  -1 124327. 6634.71  24
   4  -2  -1 121398. 6160.69   8
  -4   2   0 464173. 18517.9   3
  -4   2   0 439269. 18369.1  29
  -4   2  -1 89601.2 6686.86   3
  -4   2  -1 79928.1 6621.49  29
   4  -2   1 106532. 6069.63  24
   4  -2   1 102925. 5899.37   1
  -4   2  -2 6266.87 1752.51  29
  -4   2  -2 4614.56 1397.71   3
   4  -2   2 5732.57 1357.70   1
   4  -2   2 4703.61 1262.96  24
  -4   2  -3 23214.0 3551.91  29
  -4   2  -3 14636.0 2482.15   3
   4  -2   3 22755.2 2828.83  24
   4  -2   3 24626.2 2951.32   1
   4  -2   4 63382.9 4896.52  20
   4  -2   4 61878.2 4604.42  15
  -4   2  -4 64800.2 5026.70  23
   4  -2   5 48084.0 4161.62  20
  -4   2  -5 55002.2 4398.40  23
   4  -2   6 31350.0 3111.11  20
  -4   2  -6 36029.6 3414.68  17
  -4   2  -6 36274.6 3317.86  23
   4  -2   7 14203.9 1769.57  20
  -4   2  -7 14802.5 1769.11  17
  -4   2  -7 15857.7 1897.11  23
   4  -2   8 743.545 306.099  20
  -4   2  -8 519.529 271.061  23
   4  -1  -9 30831.9 1946.90  18
   4  -1  -9 20450.1 1687.86  10
   4  -1  -8 39804.7 2693.79  18
   4  -1  -8 40090.2 2867.16  10
   4  -1  -8 38034.3 2893.23  14
   4  -1  -7 8998.61 1443.63  19
   4  -1  -7 9264.96 1388.82  18
   4  -1  -7 6669.26 1273.81  10
   4  -1  -7 8110.89 1619.98  14
   4  -1  -6 7290.02 1342.98  19
   4  -1  -6 6016.29 1181.06  18
   4  -1  -6 4442.83 1460.04  17
   4  -1  -6 7478.25 1597.47  10
   4  -1  -6 6497.94 1772.23  14
   4  -1  -6 3863.19 1047.42  13
   4  -1  -5 32327.4 3145.30  19
   4  -1  -5 29484.5 2820.92  18
   4  -1  -5 34444.8 3756.93  14
   4  -1  -5 27470.6 2865.03  13
  -4   1   4 90909.8 8397.47  25
   4  -1  -4 86411.2 5563.64   8
   4  -1  -3 145428. 7422.49   8
  -4   1   2 131029. 8100.05   3
   4  -1  -2 136038. 6519.80   8
   4  -1  -1 1182.30 654.074   1
  -4   1   1 1285.75 786.485  29
  -4   1   1 2757.76 1222.70   3
   4  -1  -1 1298.32 695.507  24
   4  -1  -1 1203.04 464.588   8
   4  -1   0 181840. 8169.57   1
  -4   1   0 154131. 9411.32  29
   4  -1   0 172670. 8412.16  24
   4  -1   1 165321. 8128.68   1
  -4   1  -1 154303. 9629.88  29
   4  -1   1 147024. 7953.15  24
  -4   1  -2 102314. 7873.77  29
   4  -1   2 113520. 6920.35  24
   4  -1   2 116047. 6825.54   1
  -4   1  -3 22818.0 3617.28  29
   4  -1   3 21104.9 3013.63   7
   4  -1   4 474.834 522.454  20
   4  -1   4 473.654 619.397  15
  -4   1  -4-254.726 376.925  23
   4  -1   5 6861.85 1583.44  20
  -4   1  -5 9268.52 1708.16  23
   4  -1   6 18052.8 2328.25  20
  -4   1  -6 21998.5 2563.39  17
  -4   1  -6 21081.7 2372.31  23
   4  -1   7 20425.7 1946.34  20
  -4   1  -7 22651.3 2087.40  17
  -4   1  -7 22880.5 2124.36  23
  -4   1  -8 12899.7 1123.05  17
   4   0 -10 1671.81 357.648  18
   4   0 -10 2376.41 438.243  10
   4   0  -9 13478.4 1363.06  18
   4   0  -9 14552.9 1483.91  10
   4   0  -8 47048.3 3355.34  19
   4   0  -8 53549.7 3360.96  18
   4   0  -8 56544.5 3696.40  10
   4   0  -8 50460.8 3610.84  14
   4   0  -7 77545.7 4761.08  19
   4   0  -7 79793.6 4552.63  18
   4   0  -7 74658.5 5218.38  14
   4   0  -7 65768.0 4319.90  13
   4   0  -6 37770.7 3388.60  19
   4   0  -6 29778.8 2911.54  18
   4   0  -6 35346.3 3519.01  10
   4   0  -6 35949.4 4102.41  14
   4   0  -6 34911.1 3291.31  13
   4   0  -5 261.120 389.600  19
   4   0  -5-15.6769 357.796  11
  -4   0   5-85.1390 687.337  25
   4   0  -5-44.8020 571.574  14
   4   0  -5 578.865 664.513  13
   4   0  -4 37935.7 3476.14   8
   4   0  -3 209850. 9509.72   8
  -4   0   2 121504. 8216.67  29
   4   0  -2 127414. 6897.14   1
   4   0  -2 131025. 7155.85  24
   4   0  -1 42358.6 3417.90   1
  -4   0   1 33824.1 3932.94  29
   4   0  -1 37372.9 3461.65  24
   4   0  -1 42287.2 3543.19   8
   4   0   0 25630.4 2660.95   1
  -4   0   0 22190.1 3140.74  29
   4   0   0 27081.8 2867.57   8
   4   0   1 10103.4 1718.36   1
  -4   0  -1 12170.4 2413.32  29
   4   0   2 142070. 7884.51   1
  -4   0  -2 153155. 10014.2  29
   4   0   3 54778.9 5171.94  20
   4   0   3 51608.7 4636.53  15
  -4   0  -3 48174.1 4325.92  23
   4   0   4 8505.77 1968.74  20
   4   0   4 7950.37 1690.16  15
  -4   0  -4 8415.07 1703.39  23
   4   0   5 2799.59 1000.25  20
   4   0   5 3073.49 1002.67  15
  -4   0  -5 1535.87 721.815  23
   4   0   6 8690.71 1375.94  20
  -4   0  -6 8560.96 1427.50  17
  -4   0  -6 7171.24 1271.68  23
   4   0   7 2409.78 542.853  20
  -4   0  -7 3252.49 662.159  17
  -4   0  -7 2455.87 560.766  23
   4   1 -10 15475.8 1266.97  18
   4   1 -10 16316.8 1339.70  10
   4   1  -9 3322.85 724.797  18
   4   1  -9 3515.11 767.160  10
   4   1  -9 3264.04 786.154  14
   4   1  -9 1698.74 550.678  13
   4   1  -8 1070.57 550.676  19
   4   1  -8 1423.29 584.589  18
   4   1  -8 2480.01 802.064  10
   4   1  -8 1465.54 669.929  14
   4   1  -8 1865.46 698.808  13
   4   1  -7 75667.5 4876.38  19
   4   1  -7 68790.0 4959.52  10
   4   1  -7 63931.5 4870.31  14
   4   1  -7 67775.0 4613.53  13
   4   1  -6 95209.5 5790.45  11
   4   1  -6 97589.8 5952.24  19
   4   1  -6 101032. 6444.03  10
   4   1  -6 88886.5 6917.82  14
   4   1  -6 108444. 6674.33  13
   4   1  -5 89327.4 5665.60  11
   4   1  -5 90099.8 5740.19  19
   4   1  -5 84438.1 6332.06  14
   4   1  -5 98102.9 7220.22  13
   4   1  -4 2375.22 893.102   8
  -4  -1   3 2469.02 1152.67  29
   4   1  -3 2095.13 921.470   1
   4   1  -3 1929.78 767.215   8
   4   1  -2 222696. 9937.48   1
   4   1  -2 200672. 9572.01   8
   4   1  -1 62461.4 4426.00   1
  -4  -1   1 54227.6 5273.12  29
   4   1  -1 57583.8 4644.30   8
   4   1   0 54339.0 4101.97   1
   4   1   0 52459.7 4597.59   8
   4   1   1 20933.7 2619.90   1
  -4  -1  -1 23216.5 3412.45  29
   4   1   2 698.120 649.966  15
  -4  -1  -2 644.888 666.962  23
   4   1   3 8199.25 1893.18  15
  -4  -1  -3 6777.41 1599.53  23
   4   1   4 34789.4 3664.00  20
   4   1   4 32787.5 3323.09  15
  -4  -1  -4 28154.0 3067.84  23
   4   1   5 39941.5 3326.74  20
  -4  -1  -5 35613.1 3377.82  17
   4   1   5 33324.1 2813.43  15
  -4  -1  -5 38688.8 3191.55  23
   4   1   6 24726.3 2016.46  20
  -4  -1  -6 24949.9 2173.38  17
  -4  -1  -6 20994.9 1975.84  23
   4   2 -10 30255.3 1962.07  18
   4   2 -10 29925.7 2035.70  10
   4   2 -10 32144.5 1894.48  13
   4   2  -9 60507.9 3484.90  18
   4   2  -9 57265.4 3603.05  10
   4   2  -9 55011.1 3409.65  13
   4   2  -8 37007.3 3230.02  19
   4   2  -8 37311.1 3108.70  18
   4   2  -8 58118.3 4113.72  10
   4   2  -8 30702.8 2880.41  14
   4   2  -8 54031.9 3689.94  13
   4   2  -7 1920.07 856.474  19
   4   2  -7 2340.93 877.075  11
   4   2  -7 2212.77 1009.39  18
   4   2  -7 3066.31 1118.39  10
   4   2  -7 1550.65 853.484  14
   4   2  -7 2924.17 1112.38  13
   4   2  -6 50393.5 4004.91  11
   4   2  -6 49055.5 4017.55  19
   4   2  -6 49568.1 4783.61  13
   4   2  -5 189197. 9454.68  11
   4   2  -5 184540. 9446.95  19
   4   2  -5 209630. 11764.2  13
   4   2  -4 171842. 9114.89   1
   4   2  -4 155509. 8027.79   8
   4   2  -3 5347.57 1481.71   1
  -4  -2   3 4995.90 1802.15  29
   4   2  -3 3539.16 1140.27   8
  -4  -2   2 1261.04 920.541  29
   4   2  -2 1793.11 802.381   1
   4   2  -2 939.108 726.850   8
  -4  -2   1 15551.8 2798.95  29
   4   2  -1 16197.2 2264.42   1
   4   2  -1 17716.0 2716.84   8
   4   2   0 48886.3 5054.76  15
   4   2   0 48580.8 4971.32   8
   4   2   1 59898.4 5548.90  20
   4   2   1 60624.1 5659.08  15
  -4  -2  -1 50026.7 4918.47  23
   4   2   2 12148.4 2559.65  20
   4   2   2 12772.4 2485.44  15
  -4  -2  -2 8063.53 1837.87  23
   4   2   3 23293.8 3044.50  20
   4   2   3 18931.3 2638.82  15
  -4  -2  -3 16402.7 2405.70  23
   4   2   4 608.572 493.848  20
   4   2   4 924.984 518.974  15
  -4  -2  -4 1942.08 760.066  23
   4   2   5 5196.40 957.045  20
  -4  -2  -5 6125.66 1163.69  17
   4   2   5 3656.37 747.173  15
  -4  -2  -5 4508.94 940.088  23
   4   2   6 19729.8 1432.70  20
  -4  -2  -6 16799.6 1445.88  17
   4   3 -10 3678.71 681.681  10
   4   3 -10 3785.10 665.136  13
   4   3  -9 70559.0 3998.79  18
   4   3  -9 69221.2 4192.43  10
   4   3  -9 72428.3 4112.22  13
   4   3  -8 116336. 6090.16  11
   4   3  -8 105799. 6010.47  19
   4   3  -8 114323. 6151.66  18
   4   3  -8 112791. 6369.18  10
   4   3  -8 113242. 6192.48  13
   4   3  -7 32629.4 3134.18  11
   4   3  -7 34225.9 3269.94  19
   4   3  -7 35189.8 3521.02  10
   4   3  -7 32966.3 3545.34  13
   4   3  -6 1141.62 771.801  19
   4   3  -6 1239.14 671.173  11
   4   3  -6 813.020 835.008  10
   4   3  -6 1122.99 935.422  13
   4   3  -5 15488.5 2327.31  19
   4   3  -5 11550.0 2054.80  11
   4   3  -5 15894.2 2581.80  16
   4   3  -5 13966.3 2656.89  13
   4   3  -4 77253.3 6019.73  11
   4   3  -4 81710.3 6149.32  19
   4   3  -4 85517.9 7039.11  16
   4   3  -4 62538.8 5271.34  13
   4   3  -3 96283.8 7247.94  11
   4   3  -3 99821.0 7410.73  19
   4   3  -3 110778. 8587.60  16
   4   3  -2 68531.6 6216.39  19
   4   3  -2 60369.8 5912.02  11
   4   3  -1 12063.2 2282.10  16
   4   3  -1 11209.8 2281.42  15
   4   3   0 7375.13 1628.54  16
   4   3   0 11549.0 2523.11  15
   4   3   1 34848.5 4135.28  15
  -4  -3  -1 23299.4 3217.62  23
   4   3   2 5858.73 1496.69  20
   4   3   2 9343.69 1800.03  15
  -4  -3  -2 8433.84 1766.27  23
   4   3   3 77557.9 4966.96  20
   4   3   3 68711.4 4558.68  15
  -4  -3  -3 73182.0 4928.76  23
   4   3   4 37432.8 2787.10  20
  -4  -3  -4 40083.2 3198.03  17
   4   3   4 32391.9 2460.82  15
  -4  -3  -4 36403.6 2878.86  23
   4   3   5 4445.79 672.427  20
  -4  -3  -5 5493.96 816.945  17
   4   4 -10 4886.25 760.082  13
   4   4  -9 19282.2 1929.24  13
   4   4  -8 128421. 6425.32  11
   4   4  -8 127735. 6508.17  19
   4   4  -8 112680. 6362.36  13
   4   4  -7 95103.8 5792.20  11
   4   4  -7 93371.6 5827.15  19
   4   4  -7 91252.4 6254.70  13
   4   4  -6 61910.9 4768.40  11
   4   4  -6 66092.9 4925.50  19
   4   4  -6 54227.0 5020.05  13
   4   4  -5 582.470 747.015  19
   4   4  -5 578.849 665.438  11
   4   4  -5 898.402 835.349  16
   4   4  -5 1513.39 966.776  13
   4   4  -4 13515.2 2574.45  19
   4   4  -4 10729.1 2319.65  11
   4   4  -4 15695.1 3287.42  16
   4   4  -3 44065.1 4876.74  19
   4   4  -3 37914.6 4546.74  11
   4   4  -3 44630.9 5043.46  16
   4   4  -2 63958.9 6194.28  19
   4   4  -2 60293.0 6091.35  11
   4   4  -2 63770.5 5467.79  16
   4   4  -1 71360.5 6458.15  19
   4   4  -1 71495.2 5296.50  16
   4   4  -1 66084.0 5798.35  15
   4   4   0 19563.1 2860.84  15
   4   4   1 11225.1 1890.74  15
  -4  -4  -1 8934.94 1885.29  23
   4   4   2 15584.4 1911.36  15
  -4  -4  -2 15016.6 2103.43  23
   4   4   3 21023.7 1905.47  20
  -4  -4  -3 24614.0 2459.90  17
   4   4   3 23148.0 1988.13  15
  -4  -4  -3 24002.6 2301.29  23
  -4  -4  -4 34944.0 2195.46  17
   4   4   4 34307.3 1954.56  15
   4   5 -10 52183.1 2689.13  13
   4   5  -9 10559.6 1319.86  13
   4   5  -8 843.485 489.677  19
   4   5  -8 1113.53 505.930  11
   4   5  -8 401.232 300.693  13
   4   5  -7 12322.5 1890.36  11
   4   5  -7 14613.3 2057.89  19
   4   5  -7 13092.8 2115.43  16
   4   5  -7 12094.1 2031.43  13
   4   5  -6 74634.9 5322.24  11
   4   5  -6 77631.2 5434.27  19
   4   5  -6 76086.6 5801.31  16
   4   5  -6 59577.1 4877.23  13
   4   5  -5 24361.7 3177.54  11
   4   5  -5 28116.3 3349.12  19
   4   5  -5 24001.5 3475.20  16
   4   5  -4 35122.4 4027.02  19
   4   5  -4 32535.8 3833.14  11
   4   5  -4 36471.2 4213.62  16
   4   5  -3 15136.3 2714.72  19
   4   5  -3 14173.3 2552.93  11
   4   5  -3 16103.2 2478.40  16
   4   5  -2 3510.62 1328.48  19
   4   5  -2 2474.75 1084.11  11
   4   5  -2 3913.73 1172.45  16
   4   5  -1 4678.68 1255.84  19
   4   5  -1 5158.20 1189.30  16
   4   5  -1 4053.11 1194.00  15
   4   5   0 37102.1 3243.62  15
   4   5   1 66533.1 4087.81  15
  -4  -5  -1 66854.6 4666.39  23
  -4  -5  -2 53587.9 3479.97  17
   4   5   2 49813.5 2988.44  15
  -4  -5  -2 52441.0 3477.76  23
   4   6  -9 21981.4 1728.35  11
   4   6  -9 25499.4 1885.43  13
   4   6  -8 19341.3 1930.21  11
   4   6  -8 20247.2 1989.33  19
   4   6  -8 14488.4 1702.95  13
   4   6  -7 4111.91 986.640  19
   4   6  -7 2927.21 877.713  11
   4   6  -7 4014.55 992.371  16
   4   6  -6 8140.83 1526.82  19
   4   6  -6 6112.52 1313.47  11
   4   6  -6 6582.74 1477.91  16
   4   6  -5 16722.8 2382.54  11
   4   6  -5 19982.3 2566.36  19
   4   6  -5 20714.3 2625.51  16
   4   6  -4 28258.5 3060.29  11
   4   6  -4 20843.9 2733.02  19
   4   6  -4 24679.0 2830.84  16
   4   6  -3 17621.5 2270.95  11
   4   6  -3 19966.6 2491.58  19
   4   6  -3 19860.1 2371.81  16
   4   6  -2 20578.7 2251.22  11
   4   6  -2 19118.8 2206.00  19
   4   6  -2 19452.2 2144.67  16
   4   6  -1 10320.8 1441.03  15
   4   6   0 2594.04 647.028  15
  -4  -6   0 3995.22 1028.35  23
   4   6   1 21391.9 1616.89  15
  -4  -6  -1 19883.7 1863.25  23
   4   7  -8 29581.6 2174.79  11
   4   7  -8 43299.8 2510.03  19
   4   7  -7 43023.6 2881.00  11
   4   7  -7 44945.0 2957.50  19
   4   7  -6 21240.9 2117.64  11
   4   7  -6 22054.9 2187.29  19
   4   7  -6 21601.0 2144.29  16
   4   7  -5 17561.7 1916.23  11
   4   7  -5 14835.8 1779.39  19
   4   7  -5 18197.7 1960.94  16
   4   7  -4 5825.73 1039.41  11
   4   7  -4 6297.46 1084.35  19
   4   7  -4 6261.20 1118.65  16
   4   7  -3 33953.2 2463.65  11
   4   7  -3 32770.7 2498.72  19
   4   7  -3 32727.0 2477.14  16
   4   7  -2 59265.4 3158.09  19
   4   7  -2 54689.1 2985.51  16
  -4  -7   1 83119.2 4496.31  23
   4   8  -6 17948.8 1400.75  11
   4   8  -6 17103.7 1380.47  19
   4   8  -6 17994.8 1465.37  16
   4   8  -5 53549.1 2735.70  11
   4   8  -5 55841.7 2817.46  19
   4   8  -5 54933.8 2886.16  16
   4   8  -4 16230.7 1272.28  19
  -5  10  -2 25201.3 2359.72  21
  -5  10  -3 47684.5 3618.72  21
  -5  10  -4 4350.53 1046.02  21
  -5  10  -5 3877.52 926.372  21
   5  -9  -1 28186.1 1911.21  18
   5  -9  -1 31112.6 1917.46  22
   5  -9   0 5409.90 850.295  22
  -5   9  -1 950.744 646.133  21
   5  -9   1 2474.74 584.177  22
  -5   9  -2 21105.3 3103.16  21
   5  -9   2 19799.9 1761.70  22
  -5   9  -3 77381.3 6282.22  21
  -5   9  -4 61839.7 5397.80  21
  -5   9  -5 10857.5 2046.78  21
   5  -9   5 7028.94 963.282   9
  -5   9  -6 3979.08 1010.41  21
   5  -9   6 3060.61 546.190   9
   5  -8  -3 1959.10 448.676  18
  -5   8   3 3371.40 855.381  15
   5  -8  -3 2723.92 522.766  22
   5  -8  -2 12958.5 1425.66  18
   5  -8  -2 11669.0 1381.59  22
   5  -8  -1 68708.9 4227.08  22
   5  -8   0 95369.2 5269.97  22
  -5   8  -1 23004.9 3941.79  21
   5  -8   1 23994.9 2326.53  22
  -5   8  -2 2242.13 1396.71  21
  -5   8  -3 30696.8 4615.56  21
  -5   8  -4 39894.6 5092.95  21
  -5   8  -5 80579.9 6446.14  21
  -5   8  -5 64203.7 5078.14  23
  -5   8  -6 25282.7 3059.48  21
  -5   8  -6 23768.3 2654.55  23
  -5   8  -7 1295.11 504.667  23
   5  -7  -4 29462.1 2048.51  18
   5  -7  -4 39761.7 2388.41  22
   5  -7  -3 34745.3 2536.56  18
   5  -7  -3 29542.0 2541.96  22
   5  -7  -2 1769.86 648.908  18
   5  -7  -2 1538.73 684.089  22
   5  -7  -1 19966.7 2401.04  22
  -5   7   0 28905.4 4921.83  21
   5  -7   0 35224.2 3173.38  22
  -5   7  -1 92904.7 9228.68  21
  -5   7  -2 25941.9 4696.06  21
  -5   7  -3 4388.86 2111.31  21
  -5   7  -4 18884.8 3785.21  21
  -5   7  -5 32715.9 4236.44  21
  -5   7  -5 27928.6 3452.02  23
  -5   7  -6 15175.9 2609.04  21
  -5   7  -6 18582.9 2493.70  23
  -5   7  -7 12079.8 1621.08  23
  -5   7  -8 4939.54 802.033  23
   5  -6  -5 904.835 309.593  18
   5  -6  -5 1810.52 549.758  22
   5  -6  -4 22280.2 2011.91  18
   5  -6  -4 21769.7 2196.16  22
   5  -6  -3 33208.4 2788.49  18
   5  -6  -3 34301.1 3228.52  22
   5  -6  -2 46816.6 3911.85  22
   5  -6  -1 19035.0 2423.04  22
  -5   6   0 2143.97 1965.32  21
   5  -6   0 3561.53 1355.91  16
   5  -6   1 68611.3 5627.96  16
   5  -6   1 52660.9 4074.97  14
   5  -6   2 60600.4 4391.83  20
   5  -6   2 65410.7 5591.95  16
   5  -6   3 22355.6 2430.07  20
   5  -6   3 25519.6 3380.02  16
   5  -6   4 8362.20 1411.13  20
  -5   6  -4 7846.07 2090.69  23
  -5   6  -5-57.5861 840.441  21
  -5   6  -5 432.087 579.818  23
  -5   6  -6 4793.37 1235.84  23
  -5   6  -7 14557.3 1783.18  23
  -5   6  -8 24515.7 1915.59  23
   5  -5  -6 31133.9 2017.04  18
   5  -5  -6 29934.9 2015.01  22
   5  -5  -5 26942.1 2169.11  18
   5  -5  -5 24869.8 2290.35  22
   5  -5  -4-16.8470 349.873  18
   5  -5  -4 358.109 640.740  14
   5  -5  -4 141.522 493.849  22
   5  -5  -3 38449.9 3757.52  14
   5  -5  -3 44238.8 3810.77  22
   5  -5  -2 45547.4 4013.06  14
   5  -5  -2 51476.9 4125.41  22
   5  -5  -1 57255.0 5150.60  16
   5  -5  -1 77634.1 5130.79  14
   5  -5   0 23320.7 3109.49  16
   5  -5   0 21123.6 2538.74  14
   5  -5   1 633.533 536.464  20
   5  -5   1 1091.63 700.404  16
   5  -5   2 8344.91 1572.15  20
   5  -5   2 9750.15 2064.29  16
   5  -5   3 18379.4 2233.38  20
   5  -5   3 17508.6 2820.17  16
   5  -5   4 62647.6 4240.28  20
   5  -5   4 63582.8 5421.22  16
  -5   5  -4 51452.6 5254.97  23
   5  -5   5 10434.5 1538.56  20
  -5   5  -5 12947.5 2399.94  23
  -5   5  -6 19279.7 2376.82  23
  -5   5  -7 508.236 314.874  23
  -5   5  -8 1246.91 410.976  23
   5  -4  -7 3300.81 554.716  18
   5  -4  -6 21662.4 1846.17  18
   5  -4  -6 21595.4 2008.60  14
   5  -4  -6 18172.3 1785.77  22
   5  -4  -5 81914.6 4587.97  18
   5  -4  -5 85484.0 5728.24  14
   5  -4  -5 87243.6 5173.34  22
   5  -4  -4 39296.2 3899.54  14
   5  -4  -4 42726.9 3789.75  22
   5  -4  -3 8363.66 1773.80  14
   5  -4  -3 8953.63 1683.90  22
   5  -4  -2 15746.6 2143.39  19
   5  -4  -2 18352.8 2431.09  14
   5  -4  -1 61022.3 4948.19  16
   5  -4  -1 55874.5 4314.06  14
   5  -4   0 43427.0 3831.09  20
   5  -4   0 43604.4 4152.33  16
   5  -4   1 14124.5 2070.17  20
   5  -4   1 15422.9 2429.16  16
   5  -4   2 30614.8 3092.74  20
   5  -4   2 37206.7 3927.31  16
   5  -4   3 5172.75 1249.35  20
   5  -4   3 4838.82 1475.27  16
  -5   4  -3 4150.71 1644.36  23
   5  -4   4 1604.41 703.414  20
   5  -4   4 1783.50 1016.85  16
  -5   4  -4 2618.11 1295.12  23
   5  -4   5 42173.0 3361.70  20
  -5   4  -5 46719.6 4215.33  23
   5  -4   6 40469.3 3005.16  20
  -5   4  -6 43749.0 3557.74  23
  -5   4  -7 45378.8 3159.32  23
  -5   4  -8 5394.20 796.664  23
   5  -3  -8 17112.3 1236.28  18
   5  -3  -7 4501.04 775.373  18
   5  -3  -7 5287.20 887.064  14
   5  -3  -6 6285.72 1041.04  18
   5  -3  -6 6916.80 1470.18  14
   5  -3  -5 77069.5 4595.07  19
   5  -3  -5 75299.3 5684.02  14
   5  -3  -5 76383.1 5221.38  22
   5  -3  -4 80077.5 4758.12  19
   5  -3  -4 78522.2 5487.37  14
   5  -3  -3 58208.6 4369.04  19
   5  -3  -3 71379.9 5088.79  14
   5  -3  -3 66581.0 4761.64  22
   5  -3  -2 1297.13 744.401  19
   5  -3  -2 1092.44 628.788  16
   5  -3  -2 2282.45 956.905  14
   5  -3  -1 17832.3 2412.30  20
   5  -3  -1 20542.2 2678.13  16
  -5   3   1 14202.1 3246.92   3
   5  -3  -1 19706.1 2383.10  14
   5  -3   0 15887.9 2225.98  20
   5  -3   0 17213.6 2504.89  16
  -5   3   0 16020.0 3604.35  25
   5  -3   1 44491.6 3834.05  20
   5  -3   1 43983.5 4151.92  16
   5  -3   2 38230.1 3575.85  20
   5  -3   2 37627.7 3862.33  16
   5  -3   3 14539.0 2110.86  20
   5  -3   3 14713.2 2402.78  16
  -5   3  -3 9549.75 2253.92  23
   5  -3   4 3414.22 1034.89  20
  -5   3  -4 3982.37 1308.82  23
   5  -3   5 3482.88 960.989  20
  -5   3  -5 2706.74 1015.97  23
   5  -3   6 15516.4 1809.88  20
  -5   3  -6 17954.1 2120.76  23
   5  -3   7 48023.9 2894.20  20
  -5   3  -7 56991.4 3390.47  23
   5  -2  -8 32185.0 2042.23  18
   5  -2  -8 32343.6 2163.66  14
   5  -2  -7 44882.8 2972.18  18
   5  -2  -7 61783.6 3830.31  14
   5  -2  -6 21479.3 2166.15  19
   5  -2  -6 20274.3 2712.00  14
   5  -2  -6 19683.8 2026.74  13
   5  -2  -5 9291.60 1545.17  19
   5  -2  -5 10247.3 2022.65  14
   5  -2  -5 7997.14 1458.67  13
   5  -2  -4 9857.93 1693.96  19
   5  -2  -4 10112.9 1879.62  14
   5  -2  -4 10350.4 1844.82  13
   5  -2  -3 39410.6 3672.11  19
   5  -2  -3 46236.2 3926.86  14
   5  -2  -3 47102.2 4120.01  13
   5  -2  -2 44072.0 3911.69  20
   5  -2  -2 40382.5 3729.04  19
   5  -2  -2 47799.3 4123.66  16
   5  -2  -2 48793.3 3888.04  14
   5  -2  -2 46743.4 4049.08  13
  -5   2   1 23602.7 4022.02   3
   5  -2  -1 28720.6 3087.99  24
   5  -2   0 16028.9 2244.06   1
   5  -2   0 20005.7 2703.72  16
  -5   2   0 12454.5 2850.15  29
  -5   2   0 13884.5 3061.17   3
   5  -2   1 1393.58 780.359  20
   5  -2   1 2092.92 927.215  16
   5  -2   1 598.930 466.040  15
   5  -2   2 13680.1 2139.03  20
   5  -2   2 12747.0 2181.52  16
   5  -2   2 11364.3 1982.51  15
  -5   2  -2 9594.46 2283.67  23
   5  -2   3 45096.6 3986.31  20
   5  -2   3 42507.4 3865.08  15
  -5   2  -3 43254.4 4467.17  23
   5  -2   4 54565.5 4253.55  20
   5  -2   4 43802.0 3795.84  15
  -5   2  -4 51369.7 4446.68  23
   5  -2   5 43272.8 3600.45  20
  -5   2  -5 54702.6 4363.95  17
  -5   2  -5 55048.8 4117.69  23
   5  -2   6 3945.33 853.371  20
  -5   2  -6 3227.02 829.945  17
  -5   2  -6 3549.13 881.463  23
   5  -2   7 9132.54 993.169  20
  -5   2  -7 8039.40 1079.95  23
   5  -1  -8 11338.0 1244.91  18
   5  -1  -8 11034.0 1342.26  14
   5  -1  -7 74634.8 4168.13  19
   5  -1  -7 67213.8 3893.66  18
   5  -1  -7 68849.0 4558.72  14
   5  -1  -6 14471.2 1885.79  19
   5  -1  -6 15631.0 2548.62  14
   5  -1  -6 14120.1 1867.15  13
   5  -1  -5 10539.7 1730.65  19
   5  -1  -5 9058.99 1905.71  14
   5  -1  -5 9743.42 1767.96  13
   5  -1  -4 1465.14 842.102  19
   5  -1  -4 1162.67 647.192  14
   5  -1  -4 1055.37 695.256  13
   5  -1  -3 3033.54 980.897  19
   5  -1  -3 3397.08 1100.03  16
   5  -1  -3 3988.94 1127.68  14
   5  -1  -3 4711.27 1332.25  13
   5  -1  -2 250.900 469.937  16
  -5   1   2 2158.95 1472.57   3
   5  -1  -2 1324.49 813.561  24
   5  -1  -2 1000.87 558.602  14
   5  -1  -2 1863.96 835.608  13
   5  -1  -1 19517.9 2457.61   1
   5  -1  -1 19559.7 2708.66  16
  -5   1   1 11116.1 2573.34  29
  -5   1   1 16805.3 3291.28   3
   5  -1  -1 17931.8 2471.30  24
   5  -1   0 34865.5 3473.58  20
   5  -1   0 36260.8 3711.33  16
   5  -1   0 32120.7 3341.55  15
   5  -1   1 24659.2 3006.07  20
   5  -1   1 24048.7 3007.33  16
   5  -1   1 25055.0 2972.13  15
  -5   1  -1 18400.1 3295.12  23
   5  -1   2 20128.8 2789.60  20
   5  -1   2 24600.6 2983.85  16
   5  -1   2 20223.3 2695.99  15
  -5   1  -2 16020.2 2787.87  23
   5  -1   3 1341.43 847.792  20
   5  -1   3 545.472 700.509  15
  -5   1  -3-13.9047 694.098  23
   5  -1   4 22694.8 2755.12  20
   5  -1   4 23770.7 2644.17  15
  -5   1  -4 20220.2 2609.15  23
   5  -1   5 58475.2 4064.84  20
  -5   1  -5 59086.2 4429.43  17
   5  -1   5 48858.5 3572.83  15
  -5   1  -5 53112.7 3906.56  23
   5  -1   6 36533.7 2544.35  20
  -5   1  -6 36628.3 2681.72  17
  -5   1  -6 35327.0 2686.26  23
   5   0  -9 44468.4 2352.13  18
   5   0  -8 6145.62 1005.03  19
   5   0  -8 4138.31 813.119  18
   5   0  -8 5000.88 978.460  14
   5   0  -8 5453.67 927.205  13
   5   0  -7 9413.31 1444.01  19
   5   0  -7 7817.47 1578.82  14
   5   0  -7 7857.57 1330.17  13
   5   0  -6 25646.9 2700.47  19
   5   0  -6 24722.6 3300.12  14
   5   0  -6 24963.4 2790.81  13
   5   0  -5 34684.0 3348.58  19
   5   0  -5 33963.5 3723.17  14
   5   0  -5 36997.4 3948.22  13
   5   0  -4 36167.1 3464.63  11
   5   0  -4 35225.0 3478.42  19
   5   0  -4 37026.0 3604.20  16
   5   0  -4 32914.8 3445.19  14
   5   0  -4 37731.0 3987.82  13
   5   0  -3 11305.4 1969.63  11
   5   0  -3 11893.7 2021.22  19
   5   0  -3 11741.4 2087.35  16
   5   0  -3 11765.4 1882.59  14
   5   0  -3 11936.9 2062.11  13
   5   0  -2 19306.7 2602.28  11
   5   0  -2 15364.1 2339.83  19
   5   0  -2 21029.3 2869.79  16
   5   0  -2 18097.4 2431.71  15
   5   0  -2 21626.2 2488.69  14
   5   0  -2 23490.7 2813.58  13
   5   0  -1 1065.87 840.923  16
   5   0  -1 792.841 518.548  15
   5   0   0 21771.0 2827.19  20
   5   0   0 19529.9 2789.84  16
   5   0   0 20155.3 2753.59  15
   5   0   1 98545.7 6727.97  20
   5   0   1 97628.6 6444.16  16
   5   0   1 103620. 6718.70  15
   5   0   2 107401. 7192.16  20
   5   0   2 99422.0 6586.46  15
  -5   0  -2 86272.7 6613.54  23
   5   0   3 58790.5 5060.97  20
   5   0   3 50200.7 4328.79  15
  -5   0  -3 50688.5 4507.28  23
   5   0   4 1756.74 811.436  20
   5   0   4 743.346 521.868  15
  -5   0  -4 1167.43 717.119  23
   5   0   5 57304.1 3636.52  20
  -5   0  -5 65612.8 4269.15  17
   5   0   5 53693.7 3335.81  15
  -5   0  -5 63507.7 3960.90  23
   5   0   6 34909.5 2083.43  20
  -5   0  -6 36665.2 2301.22  17
   5   1  -9 41424.0 2433.25  19
   5   1  -9 44188.2 2467.35  13
   5   1  -8 21808.7 2050.66  19
   5   1  -8 21882.7 2059.77  14
   5   1  -8 21806.4 2008.34  13
   5   1  -7 9244.68 1543.53  19
   5   1  -7 9173.07 1652.91  14
   5   1  -7 9408.70 1590.89  13
   5   1  -6 5103.13 1245.03  19
   5   1  -6 6820.33 1345.74  11
   5   1  -6 3211.21 1443.14  14
   5   1  -6 5205.69 1535.30  13
   5   1  -5 2615.55 928.232  19
   5   1  -5 1851.46 831.977  11
   5   1  -5 1330.10 891.063  14
   5   1  -5 2513.60 1215.85  13
   5   1  -4 49256.3 4278.22  11
   5   1  -4 55295.8 4564.97  19
   5   1  -4 51215.8 4588.91  16
   5   1  -4 50885.4 4808.18  13
   5   1  -3 38429.1 3893.51  11
   5   1  -3 44945.6 4212.12  19
   5   1  -3 48645.3 4641.70  16
   5   1  -3 38518.7 3968.04  13
   5   1  -2 41496.0 4162.23  19
   5   1  -2 52712.6 4976.68  16
   5   1  -1 20366.6 2958.73  16
   5   1  -1 19568.1 2695.55  15
   5   1   0 18178.6 2703.99  16
   5   1   0 15576.0 2564.00  15
  -5  -1   0 8860.74 2334.31  23
   5   1   1 7174.00 1830.92  20
   5   1   1 8460.96 1660.49  16
   5   1   1 8528.35 1915.49  15
  -5  -1  -1 6548.30 1746.76  23
   5   1   2 88037.5 6435.43  20
   5   1   2 80143.9 5915.26  15
  -5  -1  -2 79138.2 5977.51  23
   5   1   3 73423.9 5115.40  15
  -5  -1  -3 71204.3 5187.59  23
   5   1   4 39290.1 3054.25  20
   5   1   4 38719.1 2898.82  15
  -5  -1  -4 40456.3 3256.48  23
   5   1   5 1000.73 385.898  20
  -5  -1  -5 1364.96 477.892  17
   5   1   5 406.299 216.139  15
  -5  -1  -5 1113.84 427.021  23
   5   2  -9 2490.59 550.593  19
   5   2  -9 1743.68 517.336  13
   5   2  -8 9651.06 1390.49  19
   5   2  -8 9469.14 1388.21  13
   5   2  -7 24232.2 2519.99  19
   5   2  -7 22400.1 2666.50  13
   5   2  -6 54641.6 4120.52  11
   5   2  -6 48537.8 4010.07  19
   5   2  -6 56608.5 5481.28  13
   5   2  -5 2260.35 887.234  19
   5   2  -5 4919.53 1302.83  11
   5   2  -5 1640.04 880.588  16
   5   2  -5 3138.68 1209.89  13
   5   2  -4 17882.1 2620.55  11
   5   2  -4 18261.6 2666.03  19
   5   2  -4 21057.0 3074.33  16
   5   2  -4 18281.7 2724.27  13
   5   2  -3 4426.21 1483.17  19
   5   2  -3 1997.10 989.285  11
   5   2  -3 2992.04 1386.11  16
   5   2  -2 48799.0 4828.13  19
   5   2  -2 66102.5 5806.00  16
   5   2  -1 105796. 6975.94  16
   5   2  -1 94777.5 6512.36  15
   5   2   0 50604.9 4217.77  16
   5   2   0 51177.8 4907.69  15
  -5  -2   0 42705.7 4841.69  23
   5   2   1 3058.76 1159.81  20
   5   2   1 4765.01 1541.39  15
  -5  -2  -1 3084.11 1155.92  23
   5   2   2 10199.0 1741.45  20
   5   2   2 12751.2 1949.86  15
  -5  -2  -2 10803.0 1987.96  23
   5   2   3 33117.3 2808.67  20
   5   2   3 34705.1 2790.53  15
  -5  -2  -3 35076.2 3121.31  23
  -5  -2  -4 35884.7 2758.73  17
   5   2   4 29745.1 2024.85  15
  -5  -2  -4 35821.2 2607.02  23
   5   3  -9 1142.63 364.109  19
   5   3  -9 1259.32 400.767  13
   5   3  -8 986.619 469.830  19
   5   3  -8 1125.66 490.701  13
   5   3  -7 4304.03 1059.20  19
   5   3  -7 4032.27 1054.72  11
   5   3  -7 4713.38 1261.84  13
   5   3  -6 5245.90 1269.25  19
   5   3  -6 4540.79 1213.18  11
   5   3  -6 5805.77 1401.84  16
   5   3  -6 3824.79 1362.81  13
   5   3  -5 39542.3 3794.07  11
   5   3  -5 43133.0 3997.73  19
   5   3  -5 47693.2 4467.05  16
   5   3  -5 41997.1 4064.86  13
   5   3  -4 26660.3 3285.27  11
   5   3  -4 26172.1 3248.78  19
   5   3  -4 32847.8 4122.70  16
   5   3  -3 28369.2 3595.29  11
   5   3  -3 33618.7 3934.62  19
   5   3  -2-412.184 721.268  19
   5   3  -2 1996.83 1107.55  16
   5   3  -1 31750.3 3289.03  16
   5   3  -1 29656.3 3477.48  15
  -5  -3   1 24573.7 3768.16  23
   5   3   0 70974.1 4660.26  16
   5   3   0 78659.0 5879.62  15
  -5  -3   0 64490.1 5671.64  23
   5   3   1 42272.5 3628.83  15
  -5  -3  -1 40372.1 3915.79  23
   5   3   2 12651.1 1594.61  15
  -5  -3  -2 13733.6 1905.61  23
   5   3   3 2613.30 543.984  20
   5   3   3 4152.80 721.492  15
  -5  -3  -3 3358.17 826.473  23
   5   4  -9 36289.6 2264.90  19
   5   4  -9 43991.7 2480.05  13
   5   4  -8 36995.7 2715.97  11
   5   4  -8 34787.2 2680.42  19
   5   4  -8 33143.2 2607.08  13
   5   4  -7 17564.0 2032.13  11
   5   4  -7 17624.9 2064.25  19
   5   4  -7 17383.1 2170.94  13
   5   4  -6 2153.32 878.130  19
   5   4  -6 2950.66 992.540  11
   5   4  -6 2067.75 914.874  16
   5   4  -6 3088.10 1078.32  13
   5   4  -5 4204.28 1190.33  19
   5   4  -5 3186.99 1072.31  11
   5   4  -5 4615.54 1457.70  16
   5   4  -4 75657.9 5716.92  11
   5   4  -4 70363.7 5560.87  19
   5   4  -4 87080.8 7021.70  16
   5   4  -3 121200. 7791.81  11
   5   4  -3 123424. 7831.67  19
   5   4  -3 127709. 7713.64  16
   5   4  -2 48199.1 4381.05  19
   5   4  -2 50983.7 4098.13  16
   5   4  -1 2666.53 758.797  16
   5   4  -1 2513.95 885.381  15
  -5  -4   1 1146.08 1086.55  23
   5   4   0 24118.2 2431.21  15
  -5  -4   0 29676.7 3260.12  23
   5   4   1 49152.6 3184.78  15
  -5  -4  -1 48194.2 3748.15  23
   5   4   2 29606.0 2001.07  15
  -5  -4  -2 33628.1 2555.38  23
   5   5  -8 14776.9 1519.68  11
   5   5  -8 14668.0 1525.95  19
   5   5  -8 16752.1 1600.52  13
   5   5  -7 47362.7 3182.89  11
   5   5  -7 45739.7 3183.05  19
   5   5  -7 37736.4 2938.36  16
   5   5  -7 36703.6 2829.89  13
   5   5  -6 51642.3 3690.82  11
   5   5  -6 54069.2 3784.64  19
   5   5  -6 51001.2 3897.41  16
   5   5  -5 10071.6 1617.47  11
   5   5  -5 11379.0 1728.72  19
   5   5  -5 11432.8 1840.02  16
   5   5  -4 15174.4 2024.69  11
   5   5  -4 17283.0 2231.10  19
   5   5  -4 15835.3 2138.28  16
   5   5  -3 34195.9 2956.59  11
   5   5  -3 35218.7 3066.33  19
   5   5  -3 39734.7 3214.15  16
   5   5  -2 38002.9 2880.72  16
  -5  -5   2 35069.5 3834.08  23
   5   5  -1 28089.6 2126.52  16
   5   5  -1 27929.2 2229.69  15
  -5  -5   1 30672.2 3152.22  23
   5   5   0 10757.6 1214.17  15
  -5  -5   0 17686.3 2004.12  23
  -5  -5  -1 4244.37 783.967  23
   5   6  -7 44410.6 2662.46  11
   5   6  -7 43143.5 2667.05  19
   5   6  -7 36926.5 2495.65  16
   5   6  -6 82116.3 4101.46  11
   5   6  -6 85823.5 4249.66  19
   5   6  -5 44261.3 2924.42  11
   5   6  -5 47654.2 3068.99  19
   5   6  -5 51133.1 3252.31  16
   5   6  -4 7379.58 1024.87  11
   5   6  -4 7415.68 1079.97  19
   5   6  -4 9304.94 1260.20  16
   5   6  -3 15286.6 1455.41  19
   5   6  -3 15622.2 1536.60  16
  -5  -6   3 19330.0 2263.74  23
   5   6  -2 20322.5 1550.91  16
  -5  -6   2 32403.8 2725.60  23
  -5  -6   1 56880.2 3399.89  23
   6  -9   0 41215.8 2182.95  22
   6  -9   1 23802.1 1645.68  22
  -6   9  -2 24154.9 2811.31  21
   6  -9   2 17835.2 1397.45  22
  -6   9  -3 7515.36 1524.59  21
   6  -9   3 6306.17 750.629  22
  -6   9  -4 1301.71 638.987  21
  -6   9  -5 7853.84 1277.33  21
   6  -8  -2 15046.4 1305.12  22
   6  -8  -1 3463.26 711.377  22
   6  -8   0 1770.33 518.226  22
  -6   8  -1 6304.00 1790.78  21
   6  -8   1 6296.69 981.199  22
  -6   8  -2 17326.0 3151.53  21
   6  -8   2 20178.0 1784.31  22
  -6   8  -3 30660.7 3966.28  21
  -6   8  -4 30413.2 3751.27  21
  -6   8  -5 5790.94 1341.21  21
   6  -7  -3 11152.3 1259.59  22
   6  -7  -2 11876.2 1516.92  22
   6  -7  -1 53291.2 3551.23  22
  -6   7   0 26605.7 4402.57  21
   6  -7   0 35683.7 2813.97  22
  -6   7  -1 17657.7 3601.99  21
  -6   7  -2 873.824 813.901  21
  -6   7  -3 16520.1 3123.63  21
   6  -7   3 25241.4 2115.50  14
  -6   7  -4 63128.2 5795.78  21
  -6   7  -5 60200.0 4988.91  21
  -6   7  -6 15999.5 1943.12  21
  -6   7  -6 19735.2 2043.65  23
   6  -6  -4 6961.25 1034.13  22
   6  -6  -3 8739.90 1393.58  22
   6  -6  -2 4944.93 1109.73  14
   6  -6  -2 4064.43 972.900  22
   6  -6  -1 7071.37 1348.35  14
   6  -6  -1 9809.88 1585.10  22
   6  -6   0 64913.2 4821.83  16
   6  -6   0 54415.1 3904.20  14
   6  -6   1 90266.5 5970.34  16
   6  -6   1 84254.1 5082.11  14
   6  -6   2 62947.9 4870.60  16
   6  -6   2 64966.1 4273.26  14
   6  -6   3 4048.22 939.419  20
   6  -6   3 3162.87 1038.21  16
   6  -6   4 15230.0 1682.62  20
  -6   6  -5 75773.9 5663.77  21
   6  -6   5 66307.4 3617.51  20
  -6   6  -5 72926.2 5171.01  23
  -6   6  -6 87604.2 4886.30  23
   6  -5  -5 9802.56 1099.45  14
   6  -5  -5 10255.6 1175.95  22
   6  -5  -4 32442.7 2892.73  14
   6  -5  -4 31719.8 2724.47  22
   6  -5  -3 38270.4 3336.56  14
   6  -5  -3 41094.9 3313.05  22
   6  -5  -2 50876.2 4087.95  14
   6  -5  -2 73837.0 4624.74  22
   6  -5  -1 3498.80 1122.54  16
   6  -5  -1 5573.73 1324.53  14
   6  -5   0 2070.39 951.760  16
   6  -5   0 3416.83 1038.68  14
   6  -5   1 67887.5 4645.86  20
   6  -5   1 61766.3 4986.35  16
   6  -5   1 60957.6 4477.65  14
   6  -5   2 121797. 6497.00  20
   6  -5   2 122978. 7370.74  16
   6  -5   3 84794.2 5057.12  20
   6  -5   3 98963.6 6217.88  16
   6  -5   4 19081.6 1989.98  20
   6  -5   4 21533.1 2539.77  16
  -6   5  -4 16249.1 2647.76  23
   6  -5   5 4091.69 786.253  20
  -6   5  -5 5430.14 1298.29  23
   6  -5   6 53563.2 2892.33  20
  -6   5  -6 71374.6 4038.25  23
   6  -4  -6 9612.78 1090.30  14
   6  -4  -5 9627.26 1473.66  14
   6  -4  -4-235.246 403.405  14
   6  -4  -4 124.898 301.899  22
   6  -4  -3 24808.4 2733.52  14
   6  -4  -3 19169.0 2330.10  22
   6  -4  -2 42834.7 3999.20  16
   6  -4  -2 58644.0 4287.67  14
   6  -4  -1 52325.9 4443.01  16
   6  -4  -1 51336.1 4074.43  14
   6  -4   0 52053.1 4196.41  20
   6  -4   0 48424.1 4323.98  16
   6  -4   0 46404.7 3867.81  14
   6  -4   1 587.585 438.739  20
   6  -4   1 790.642 793.875  16
   6  -4   2 22602.1 2537.25  20
   6  -4   2 22028.6 2849.20  16
   6  -4   3 101492. 5757.62  20
   6  -4   3 111045. 6691.58  16
   6  -4   4 72277.8 4365.65  20
   6  -4   4 73181.2 4842.38  16
  -6   4  -4 72861.9 5806.41  23
   6  -4   5 19525.0 1864.66  20
  -6   4  -5 19152.7 2325.75  23
   6  -4   6 802.400 311.182  20
  -6   4  -6 265.876 216.631  23
   6  -3  -7 3182.56 568.119  14
   6  -3  -6 31621.9 2564.85  14
   6  -3  -5 78872.6 5142.08  14
   6  -3  -4 54072.1 3767.43  19
   6  -3  -4 51244.9 4098.68  14
   6  -3  -3 9184.73 1529.90  19
   6  -3  -3 8630.64 1655.73  14
   6  -3  -2 10435.9 1912.75  16
   6  -3  -2 12352.3 1923.42  14
   6  -3  -1 129687. 7443.55  20
   6  -3  -1 131159. 7673.56  16
   6  -3  -1 139332. 7347.17  14
   6  -3   0 191127. 9481.25  20
   6  -3   0 194164. 9940.10  16
   6  -3   0 199945. 9425.68  14
   6  -3   1 87037.1 5742.90  20
   6  -3   1 93652.6 6220.76  16
   6  -3   2 107.768 418.732  20
   6  -3   2 299.429 531.816  16
   6  -3   3 8928.76 1541.87  20
   6  -3   3 7895.80 1647.82  16
  -6   3  -3 9200.69 2175.12  23
   6  -3   4 86714.1 4981.44  20
  -6   3  -4 90075.2 6058.78  23
   6  -3   5 44941.7 3017.20  20
  -6   3  -5 49311.5 3628.95  23
   6  -3   6 27589.4 1881.14  20
  -6   3  -6 31418.8 2315.43  23
   6  -2  -7 11484.7 1287.38  14
   6  -2  -6 2732.92 653.328  19
   6  -2  -6 3407.36 977.398  14
   6  -2  -5 12712.8 1675.15  19
   6  -2  -5 16514.9 2267.70  14
   6  -2  -4 100038. 5753.30  19
   6  -2  -4 108503. 6385.08  14
   6  -2  -3 107290. 6055.70  19
   6  -2  -3 118133. 6465.31  14
   6  -2  -2 60886.7 4762.92  16
   6  -2  -2 59225.6 4361.05  14
   6  -2  -1 3350.05 1059.16  20
   6  -2  -1 2407.68 1023.11  16
   6  -2  -1 4097.80 1244.79  14
   6  -2   0 121357. 7122.39  20
   6  -2   0 117297. 7266.67  16
   6  -2   1 123009. 7151.35  20
   6  -2   1 119364. 7240.10  16
   6  -2   2 127803. 7046.75  20
   6  -2   2 116600. 6924.12  16
   6  -2   3 12910.0 1945.32  20
  -6   2  -3 12856.4 2333.07  23
   6  -2   4 286.450 267.536  20
  -6   2  -4 661.804 459.453  23
   6  -2   5 8228.53 1165.75  20
  -6   2  -5 10527.7 1461.78  23
  -6   2  -6 20992.9 1671.74  23
   6  -1  -8 24526.9 1674.83  14
   6  -1  -7 68333.9 3560.43  19
   6  -1  -7 56614.0 3555.53  14
   6  -1  -6 23608.2 2159.40  19
   6  -1  -6 22071.3 2552.12  14
   6  -1  -5 547.263 391.020  19
   6  -1  -5 958.538 702.779  14
   6  -1  -5 666.030 769.239  13
   6  -1  -4 34354.3 3196.18  19
   6  -1  -4 30528.0 3156.64  16
   6  -1  -4 27837.9 3015.41  14
   6  -1  -3 106058. 6577.83  19
   6  -1  -3 119138. 6998.73  16
   6  -1  -3 113519. 6563.62  14
   6  -1  -2 170575. 9022.64  16
   6  -1  -2 159134. 8167.40  14
   6  -1  -1 24120.4 2899.30  20
   6  -1  -1 35728.7 3700.63  16
   6  -1  -1 33427.8 3187.83  14
   6  -1   0 3337.48 1165.46  20
   6  -1   0 3326.08 1210.31  16
   6  -1   0 1720.01 829.211  14
   6  -1   1 35725.1 3577.11  20
   6  -1   1 32820.9 3439.98  16
   6  -1   1 29719.4 3211.72  15
   6  -1   2 86378.5 5804.83  20
   6  -1   2 88155.2 5400.64  16
   6  -1   2 87231.5 5525.63  15
  -6   1  -2 72601.4 6196.52  23
   6  -1   3 54184.2 4158.76  20
  -6   1  -3 54391.4 4529.59  23
   6  -1   4 15180.3 1787.93  20
  -6   1  -4 17805.1 2120.81  17
  -6   1  -4 15228.4 1945.82  23
   6  -1   5 1424.41 411.017  20
  -6   1  -5 1348.22 445.345  17
  -6   1  -5 2596.60 626.743  23
   6   0  -8 4969.17 738.629  19
   6   0  -8 3591.42 613.163  14
   6   0  -7 40601.8 2736.20  19
   6   0  -7 33268.2 2647.83  14
   6   0  -7 39100.8 2719.75  13
   6   0  -6 86081.5 4779.18  19
   6   0  -6 81796.7 4989.55  13
   6   0  -5 65641.0 4617.74  19
   6   0  -5 75954.0 5234.80  14
   6   0  -5 69612.2 5278.34  13
   6   0  -4 11184.2 1868.79  19
   6   0  -4 7943.09 1656.32  16
   6   0  -4 6490.29 1524.38  14
   6   0  -4 13531.8 2240.92  13
   6   0  -3 21744.0 2715.54  19
   6   0  -3 25023.1 3077.28  16
   6   0  -2 103508. 6610.62  16
   6   0  -2 67459.8 4831.92  14
   6   0  -1 92859.4 6396.18  16
   6   0   0 38938.7 3811.76  16
   6   0   0 38486.7 3715.91  15
   6   0   1 28059.7 3121.60  20
   6   0   1 26033.6 2748.59  16
   6   0   1 27896.1 3083.57  15
  -6   0  -1 18624.1 3187.42  23
   6   0   2 3371.62 1051.99  20
   6   0   2 2099.25 837.100  15
  -6   0  -2 2697.19 1009.89  23
   6   0   3 21552.7 2308.55  20
   6   0   3 23391.6 2273.29  15
  -6   0  -3 22642.2 2563.03  23
   6   0   4 26787.7 2049.55  20
  -6   0  -4 27466.6 2392.76  17
  -6   0  -4 33852.9 2626.99  23
   6   1  -8 25587.5 1847.06  19
   6   1  -8 29771.1 1962.44  13
   6   1  -7-462.577 347.338  19
   6   1  -7 76.1318 266.920  14
   6   1  -7 119.627 357.140  13
   6   1  -6 43861.8 3401.25  19
   6   1  -6 47586.3 4033.97  13
   6   1  -5 148566. 7513.35  19
   6   1  -5 138404. 7407.34  16
   6   1  -5 147772. 8221.52  13
   6   1  -4 61168.9 4615.56  11
   6   1  -4 64241.9 4778.26  19
   6   1  -4 71069.9 5202.42  16
   6   1  -4 65701.3 5007.82  13
   6   1  -3 20284.5 2675.59  11
   6   1  -3 24442.2 2948.89  19
   6   1  -3 24862.0 3141.37  16
   6   1  -2 6667.68 1722.82  16
   6   1  -1 11931.4 2115.88  16
   6   1  -1 10372.4 1850.84  15
   6   1   0 61593.6 4391.17  16
   6   1   0 62224.2 4732.01  15
   6   1   1 37262.5 3289.69  20
   6   1   1 37596.7 3004.74  16
   6   1   1 35473.6 3432.95  15
   6   1   2 14257.6 1765.51  20
   6   1   2 14957.7 1866.55  15
  -6  -1  -2 14705.9 2129.49  23
   6   1   3 18301.2 1628.69  15
  -6  -1  -3 17656.2 1939.34  23
   6   2  -8 39761.9 2539.82  19
   6   2  -8 56918.3 2902.19  13
   6   2  -7 35836.5 2688.76  19
   6   2  -7 31779.4 2660.31  13
   6   2  -6 4957.78 1034.69  19
   6   2  -6 4876.59 1179.10  13
   6   2  -5 9849.94 1577.56  11
   6   2  -5 8622.11 1538.47  19
   6   2  -5 8964.87 1599.28  16
   6   2  -5 11205.3 1858.44  13
   6   2  -4 86616.6 5694.35  11
   6   2  -4 94330.3 5913.79  19
   6   2  -4 99879.4 6402.41  16
   6   2  -3 52505.0 4463.71  19
   6   2  -3 67965.0 5415.14  16
   6   2  -2 38462.4 3822.78  16
   6   2  -1 7635.97 1446.05  16
   6   2  -1 7988.70 1561.59  15
   6   2   0 1347.16 478.825  16
  -6  -2   0 755.952 633.119  23
   6   2   1 18960.3 2055.76  15
  -6  -2  -1 16213.5 2316.07  23
   6   2   2 20939.6 1785.07  15
  -6  -2  -2 24714.4 2381.62  23
   6   3  -8 46870.9 2732.61  19
   6   3  -8 64066.6 2995.71  13
   6   3  -7 95759.0 4660.80  19
   6   3  -7 79752.9 4455.48  13
   6   3  -6 31269.5 2620.86  11
   6   3  -6 31608.2 2678.67  19
   6   3  -6 27528.2 2533.33  16
   6   3  -6 29613.4 2631.12  13
   6   3  -5 1228.78 515.781  19
   6   3  -5 1217.43 539.702  11
   6   3  -5 861.361 580.724  16
   6   3  -4 4586.99 1117.49  19
   6   3  -4 3558.51 934.178  11
   6   3  -4 2573.05 945.993  16
   6   3  -3 23247.6 2791.51  19
   6   3  -3 28577.7 3042.50  16
   6   3  -2 77090.6 4775.66  16
   6   3  -1 53231.8 3390.62  16
   6   3  -1 49672.1 3455.99  15
  -6  -3   1 43189.7 4415.78  23
   6   3   0 15200.4 1644.31  15
  -6  -3   0 16459.7 2267.58  23
   6   3   1 941.434 337.134  15
  -6  -3  -1 1917.18 636.608  23
   6   4  -7 8878.67 1108.35  19
   6   4  -6 52377.5 3150.91  11
   6   4  -6 48207.2 3091.86  19
   6   4  -6 44497.8 3063.42  16
   6   4  -5 27398.0 2326.91  11
   6   4  -5 28608.2 2423.98  19
   6   4  -5 31601.6 2725.41  16
   6   4  -4 21271.8 2000.17  11
   6   4  -4 21191.0 2071.09  19
   6   4  -4 27300.0 2509.15  16
   6   4  -3 5306.28 1008.59  16
   6   4  -2 538.301 288.865  16
   6   4  -1 9765.07 1021.16  16
  -6  -4   1 10821.9 1683.22  23
   6   5  -5 6407.14 811.332  19
   6   5  -5 5042.99 798.236  16
   6   5  -4 15387.0 1439.25  16
   6   5  -3 20286.5 1525.70  16
   7  -8   1 52543.1 2605.60  22
  -7   8  -2 25564.7 3029.38  21
   7  -8   2 24918.0 1589.76  22
  -7   8  -3 2616.17 947.961  21
   7  -7  -2 32404.3 2022.84  22
   7  -7  -1 2465.93 571.711  22
   7  -7   0 1985.17 528.798  22
  -7   7  -1 45590.3 5134.97  21
   7  -7   1 42237.7 2508.86  14
   7  -7   1 54945.7 2984.64  22
  -7   7  -2 42338.6 4598.24  21
   7  -7   2 37315.5 2229.21  14
  -7   7  -3 23566.7 3164.46  21
   7  -7   3 17843.9 1369.57  14
  -7   7  -4 2224.01 830.690  21
   7  -6  -3 17467.7 1475.01  22
   7  -6  -2 35506.9 2424.96  14
   7  -6  -2 31402.1 2410.30  22
   7  -6  -1 58574.4 3505.79  14
   7  -6  -1 67340.2 3790.45  22
   7  -6   0 16824.2 1721.85  14
   7  -6   0 17403.0 1811.98  22
  -7   6  -1 1505.80 1022.76  21
   7  -6   1 1279.18 456.851  14
  -7   6  -2 11811.0 2582.01  21
   7  -6   2 11179.8 1343.76  14
  -7   6  -3 18368.3 2922.38  21
   7  -6   3 20466.1 1723.23  14
  -7   6  -4 17160.4 2375.18  21
   7  -6   4 24081.8 1697.65  14
   7  -5  -4 44588.2 2651.63  14
   7  -5  -3 2517.66 648.368  14
   7  -5  -3 1460.19 531.930  22
   7  -5  -2 9600.72 1383.50  14
   7  -5  -2 10076.9 1382.42  22
   7  -5  -1 49438.6 3772.99  16
   7  -5  -1 48329.8 3416.73  14
   7  -5  -1 50256.0 3435.33  22
   7  -5   0 32195.7 3017.87  16
   7  -5   0 33898.2 2789.10  14
   7  -5   1 23505.7 2519.26  16
   7  -5   1 26687.4 2412.60  14
   7  -5   2 13864.1 1593.04  20
   7  -5   2 13678.9 1832.15  16
   7  -5   2 13657.5 1657.73  14
   7  -5   3 2004.27 541.485  20
   7  -5   3 1981.40 636.404  16
   7  -5   3 2987.08 774.555  14
  -7   5  -4 7275.23 1502.21  21
   7  -5   4 7284.82 914.748  20
   7  -5   4 8341.64 1068.23  14
   7  -4  -5 57022.4 3026.13  14
   7  -4  -4 56714.6 3590.13  14
   7  -4  -3 61598.9 3967.23  14
   7  -4  -2 2473.84 860.743  16
   7  -4  -2 2563.27 758.096  14
   7  -4  -2 1897.15 663.519  22
   7  -4  -1 8956.86 1591.56  16
   7  -4  -1 10096.4 1499.91  14
   7  -4   0 21246.4 2449.43  16
   7  -4   0 21088.7 2257.99  14
   7  -4   1 27482.6 2607.59  20
   7  -4   1 30180.8 2908.91  16
   7  -4   1 27178.3 2615.23  14
   7  -4   2 38354.2 2927.85  20
   7  -4   2 36542.3 3110.05  16
   7  -4   2 37034.4 3023.20  14
   7  -4   3 8466.01 1177.17  20
   7  -4   3 8002.26 1250.59  16
   7  -4   3 9185.99 1373.16  14
   7  -4   4 12434.5 1254.79  20
   7  -3  -6 15249.3 1242.37  14
   7  -3  -5 1049.80 423.798  14
   7  -3  -4 18776.5 2052.78  14
   7  -3  -3 42418.1 3480.54  16
   7  -3  -3 66585.9 4121.15  14
   7  -3  -2 46588.4 3757.32  16
   7  -3  -2 49938.9 3644.05  14
   7  -3  -1 24443.8 2692.98  16
   7  -3  -1 24967.6 2513.54  14
   7  -3   0 12789.1 1835.49  20
   7  -3   0 12616.9 1925.88  16
   7  -3   0 10969.7 1638.66  14
   7  -3   1 2335.64 789.205  20
   7  -3   1 2028.83 709.914  16
   7  -3   1 2155.71 710.538  14
   7  -3   2 15793.6 1880.87  20
   7  -3   2 17508.7 2045.00  16
   7  -3   2 17331.2 1987.68  14
   7  -3   3 44608.5 2926.99  20
   7  -3   3 44977.9 2955.86  14
   7  -3   4 31647.7 2010.67  20
   7  -3   4 20650.8 1626.81  14
   7  -2  -6 21007.5 1685.75  14
   7  -2  -5 11845.8 1586.43  14
   7  -2  -4 2120.49 602.709  19
   7  -2  -4 1894.07 715.981  14
   7  -2  -3 696.730 482.361  16
   7  -2  -3 477.822 423.400  14
   7  -2  -2 3970.82 1102.48  16
   7  -2  -2 4112.84 1013.60  14
   7  -2  -1 28022.5 2774.38  20
   7  -2  -1 29255.1 2984.59  16
   7  -2  -1 27618.9 2660.14  14
   7  -2   0 44931.1 3623.77  20
   7  -2   0 43765.8 3644.77  16
   7  -2   0 42919.6 3334.10  14
   7  -2   1 14244.3 1890.58  20
   7  -2   1 15282.5 1984.81  16
   7  -2   1 15532.7 1820.37  14
   7  -2   2 9203.02 1427.97  20
   7  -2   2 11147.2 1432.87  16
   7  -2   2 9913.40 1309.25  14
   7  -2   3 58.7860 232.516  20
   7  -2   3 1008.72 342.738  14
   7  -2   4 16339.4 1284.94  20
   7  -1  -6 10872.1 1130.55  19
   7  -1  -6 5002.63 825.168  14
   7  -1  -5 31004.0 2313.00  19
   7  -1  -5 29357.5 2610.94  14
   7  -1  -4 43146.8 3087.76  19
   7  -1  -4 42184.6 3262.40  16
   7  -1  -4 42777.0 3332.85  14
   7  -1  -3 14461.4 1988.22  16
   7  -1  -3 13348.4 1782.54  14
   7  -1  -2 18070.1 2305.33  16
   7  -1  -2 17342.8 2023.35  14
   7  -1  -1 2246.25 777.410  16
   7  -1  -1 1552.78 594.892  14
   7  -1   0 12324.9 1735.50  20
   7  -1   0 10405.7 1418.80  14
   7  -1   1 62013.1 4086.89  20
   7  -1   1 63216.3 3895.31  16
   7  -1   2 49893.3 3329.33  20
   7  -1   3 12420.0 1212.63  20
   7   0  -6 5901.79 843.040  19
   7   0  -6 3816.43 684.871  14
   7   0  -5 4592.31 851.211  19
   7   0  -4 19226.4 1989.42  19
   7   0  -4 19228.7 2160.04  16
   7   0  -3 49353.7 3887.82  16
   7   0  -2 65426.0 4626.92  16
   7   0  -1 32599.5 3020.77  16
   7   0   0 11444.2 1509.04  16
   7   0   1 7625.07 1060.54  20
   7   0   1 8805.03 1114.04  16
   7   1  -6 36762.5 2322.86  19
   7   1  -5 23482.7 1985.93  19
   7   1  -5 22198.4 2025.29  16
   7   1  -4 4956.11 988.857  19
   7   1  -4 7868.11 1335.65  16
   7   1  -3 6913.15 1374.76  16
   7   1  -2 57407.9 4060.70  16
   7   1  -1 71573.3 4135.10  16
   7   1   0 43637.2 2668.81  16
   7   2  -5 17195.4 1563.94  19
   7   2  -5 17572.1 1703.93  16
   7   2  -4 37390.4 2904.84  16
   7   2  -3 22386.0 2233.49  16
   7   2  -2 233.972 199.636  16
   7   2  -1 29055.8 1984.46  16
   7   3  -4 48683.8 2782.60  16
   7   3  -3 91102.4 4096.96  16
   8  -4  -2 5133.24 793.078  14
   8  -4  -1 16952.1 1665.47  16
   8  -4  -1 25601.5 1893.30  14
   8  -4   0 49333.8 2951.50  16
   8  -4   0 43082.3 2657.33  14
   8  -3  -2 26470.3 2008.81  16
   8  -3  -2 16315.3 1557.95  14
   8  -3  -1 13.0812 118.193  16
   8  -3  -1 360.328 299.451  14
   8  -3   0 24729.0 1955.25  16
   8  -3   0 14702.0 1434.27  14
   8  -2  -2 25116.6 2073.82  16
   8  -2  -1 16948.7 1668.33  16
   8  -2   0 3358.53 656.379  16
   8  -1  -2 43208.0 2781.14  16
   0   0   0    0.00    0.00   0

TITL H2-145-5abs in P-1
REM P-1 (#2 in standard setting)
CELL 1.54184   6.621810   9.316751   9.472137 114.3166  95.4978 105.2928
ZERR    1.00   0.000448   0.000777   0.000657   0.0073   0.0056   0.0065
LATT  1
SFAC C H N O P In
UNIT 14.00 12.00 2.00 16.00 2.00 2.00
TREF
HKLF 4
END
;
_shelx_hkl_checksum              76258
_olex2_submission_special_instructions 'No special instructions were received'
_oxdiff_exptl_absorpt_empirical_details
;
Empirical correction (ABSPACK) includes:
- Absorption correction using spherical harmonics
- Frame scaling
- Detector area scaling
;
_oxdiff_exptl_absorpt_empirical_full_max 3.058
_oxdiff_exptl_absorpt_empirical_full_min 0.673
loop_
_space_group_symop_operation_xyz
'x, y, z'
'-x, -y, -z'
loop_
_atom_site_label
_atom_site_type_symbol
_atom_site_fract_x
_atom_site_fract_y
_atom_site_fract_z
_atom_site_U_iso_or_equiv
_atom_site_adp_type
_atom_site_occupancy
_atom_site_site_symmetry_order
_atom_site_calc_flag
_atom_site_refinement_flags_posn
_atom_site_refinement_flags_adp
_atom_site_refinement_flags_occupancy
_atom_site_disorder_assembly
_atom_site_disorder_group
In1 In 0.32161(6) 0.64678(5) 0.40794(4) 0.0136(2) Uani 1 1 d . . . . .
P1 P 0.2243(2) 0.4557(2) 0.65372(17) 0.0136(4) Uani 1 1 d . . . . .
O1 O 0.2477(7) 0.5873(6) 0.5949(5) 0.0192(10) Uani 1 1 d . . . . .
O2 O 0.3594(7) 0.3463(7) 0.5919(6) 0.0243(11) Uani 1 1 d . . . . .
O3 O -0.0058(7) 0.3399(6) 0.6122(6) 0.0211(10) Uani 1 1 d . . . . .
O4 O 0.3014(9) 0.5665(6) 0.8390(5) 0.0251(11) Uani 1 1 d . . . . .
H4 H 0.2596 0.5091 0.8837 0.038 Uiso 1 1 calc GR . . . .
O5 O 0.4755(8) 0.8972(6) 0.6190(5) 0.0204(10) Uani 1 1 d . . . . .
O6 O 0.6194(8) 1.1670(6) 0.6882(5) 0.0211(10) Uani 1 1 d . . . . .
O7 O 0.2254(8) 0.3863(6) 0.2464(5) 0.0217(10) Uani 1 1 d . . . . .
O8 O 0.2328(11) 0.4825(7) 0.0677(6) 0.0359(14) Uani 1 1 d . . . . .
N1 N 0.1287(11) -0.1212(8) -0.2351(8) 0.0361(17) Uani 1 1 d . . . . .
H1 H 0.1095 -0.2219 -0.3043 0.043 Uiso 1 1 calc R . . . .
C1 C 0.5302(10) 1.0191(8) 0.5880(8) 0.0157(12) Uani 1 1 d . . . . .
C2 C 0.2359(12) -0.0683(10) -0.0863(11) 0.0313(17) Uani 1 1 d . . . . .
H2 H 0.2886 -0.1390 -0.0592 0.038 Uiso 1 1 calc R . . . .
C3 C 0.2672(12) 0.0919(10) 0.0261(9) 0.0267(15) Uani 1 1 d . . . . .
H3 H 0.3403 0.1312 0.1307 0.032 Uiso 1 1 calc R . . . .
C4 C 0.1876(11) 0.1932(9) -0.0196(8) 0.0210(14) Uani 1 1 d . . . . .
C5 C 0.0807(14) 0.1341(10) -0.1738(9) 0.0309(17) Uani 1 1 d . . . . .
H5 H 0.0287 0.2023 -0.2056 0.037 Uiso 1 1 calc R . . . .
C6 C 0.0516(15) -0.0278(11) -0.2809(9) 0.038(2) Uani 1 1 d . . . . .
H6 H -0.0228 -0.0707 -0.3858 0.046 Uiso 1 1 calc R . . . .
C7 C 0.2179(12) 0.3669(8) 0.1032(8) 0.0221(15) Uani 1 1 d . . . . .
loop_
_atom_site_aniso_label
_atom_site_aniso_U_11
_atom_site_aniso_U_22
_atom_site_aniso_U_33
_atom_site_aniso_U_23
_atom_site_aniso_U_13
_atom_site_aniso_U_12
In1 0.0120(3) 0.0111(3) 0.0175(3) 0.0070(2) 0.00335(19) 0.0025(2)
P1 0.0130(8) 0.0124(8) 0.0152(7) 0.0069(6) 0.0035(6) 0.0027(6)
O1 0.023(2) 0.020(2) 0.018(2) 0.0117(19) 0.0069(18) 0.005(2)
O2 0.006(2) 0.025(3) 0.041(3) 0.012(2) 0.007(2) 0.007(2)
O3 0.009(2) 0.024(3) 0.037(3) 0.017(2) 0.0055(19) 0.010(2)
O4 0.033(3) 0.018(2) 0.017(2) 0.008(2) 0.004(2) -0.001(2)
O5 0.026(3) 0.015(2) 0.016(2) 0.0066(19) 0.0028(19) 0.000(2)
O6 0.031(3) 0.011(2) 0.021(2) 0.0086(19) 0.006(2) 0.004(2)
O7 0.028(3) 0.013(2) 0.015(2) 0.0001(18) 0.0051(19) 0.003(2)
O8 0.062(4) 0.022(3) 0.026(3) 0.011(2) 0.012(3) 0.015(3)
N1 0.039(4) 0.015(3) 0.041(4) 0.002(3) 0.026(3) 0.001(3)
C1 0.009(3) 0.011(3) 0.028(3) 0.012(3) 0.006(2) 0.000(2)
C2 0.021(4) 0.020(4) 0.057(5) 0.018(4) 0.016(3) 0.009(3)
C3 0.020(4) 0.024(4) 0.037(4) 0.015(3) 0.008(3) 0.006(3)
C4 0.018(3) 0.021(4) 0.022(3) 0.009(3) 0.006(3) 0.003(3)
C5 0.038(4) 0.021(4) 0.025(3) 0.007(3) 0.007(3) 0.001(3)
C6 0.041(5) 0.026(4) 0.022(4) -0.002(3) 0.005(3) -0.006(4)
C7 0.019(3) 0.016(4) 0.022(3) 0.004(3) 0.002(3) 0.002(3)
loop_
_atom_type_symbol
_atom_type_description
_atom_type_scat_dispersion_real
_atom_type_scat_dispersion_imag
_atom_type_scat_source
C C 0.0181 0.0091 'International Tables Vol C Tables 4.2.6.8 and 6.1.1.4'
H H 0.0000 0.0000 'International Tables Vol C Tables 4.2.6.8 and 6.1.1.4'
In In 0.0822 5.0449 'International Tables Vol C Tables 4.2.6.8 and 6.1.1.4'
N N 0.0311 0.0180 'International Tables Vol C Tables 4.2.6.8 and 6.1.1.4'
O O 0.0492 0.0322 'International Tables Vol C Tables 4.2.6.8 and 6.1.1.4'
P P 0.2955 0.4335 'International Tables Vol C Tables 4.2.6.8 and 6.1.1.4'
loop_
_exptl_crystal_face_index_h
_exptl_crystal_face_index_k
_exptl_crystal_face_index_l
_exptl_crystal_face_perp_dist
0 6 -2 0.1172
3 -1 -4 0.1460
-4 1 2 0.1566
0 2 -6 0.0932
4 -2 0 0.1285
1 1 4 0.1295
0 -1 -5 0.0772
3 1 1 0.1430
0 -6 4 0.1285
0 -4 6 0.0992
3 2 -4 0.1631
0 4 2 0.0925
1 -5 5 0.1054
loop_
_geom_angle_atom_site_label_1
_geom_angle_atom_site_label_2
_geom_angle_atom_site_label_3
_geom_angle
_geom_angle_site_symmetry_1
_geom_angle_site_symmetry_3
_geom_angle_publ_flag
O1 In1 O5 79.40(17) . . ?
O1 In1 O6 148.83(18) . 2_676 ?
O1 In1 O7 90.01(18) . . ?
O2 In1 O1 105.05(19) 2_666 . ?
O2 In1 O3 171.42(19) 2_666 2_566 ?
O2 In1 O5 83.5(2) 2_666 . ?
O2 In1 O6 87.9(2) 2_666 2_676 ?
O2 In1 O7 87.3(2) 2_666 . ?
O3 In1 O1 83.14(19) 2_566 . ?
O3 In1 O5 95.68(19) 2_566 . ?
O3 In1 O6 83.66(19) 2_566 2_676 ?
O3 In1 O7 95.4(2) 2_566 . ?
O5 In1 O6 73.98(16) . 2_676 ?
O7 In1 O5 163.65(19) . . ?
O7 In1 O6 119.28(17) . 2_676 ?
O1 P1 O4 101.8(3) . . ?
O2 P1 O1 113.5(3) . . ?
O2 P1 O3 106.9(3) . . ?
O2 P1 O4 111.4(3) . . ?
O3 P1 O1 113.7(3) . . ?
O3 P1 O4 109.6(3) . . ?
P1 O1 In1 144.6(3) . . ?
P1 O2 In1 142.6(3) . 2_666 ?
P1 O3 In1 138.3(3) . 2_566 ?
P1 O4 H4 109.5 . . ?
C1 O5 In1 115.5(4) . . ?
C1 O6 In1 115.6(4) . 2_676 ?
C7 O7 In1 109.6(4) . . ?
C2 N1 H1 118.3 . . ?
C6 N1 H1 118.3 . . ?
C6 N1 C2 123.3(7) . . ?
O5 C1 C1 116.9(7) . 2_676 ?
O6 C1 O5 125.2(6) . . ?
O6 C1 C1 117.9(7) . 2_676 ?
N1 C2 H2 120.4 . . ?
N1 C2 C3 119.2(7) . . ?
C3 C2 H2 120.4 . . ?
C2 C3 H3 120.7 . . ?
C2 C3 C4 118.6(7) . . ?
C4 C3 H3 120.7 . . ?
C3 C4 C7 118.8(6) . . ?
C5 C4 C3 120.2(7) . . ?
C5 C4 C7 121.0(7) . . ?
C4 C5 H5 120.6 . . ?
C4 C5 C6 118.8(8) . . ?
C6 C5 H5 120.6 . . ?
N1 C6 C5 119.9(8) . . ?
N1 C6 H6 120.0 . . ?
C5 C6 H6 120.0 . . ?
O7 C7 C4 115.4(6) . . ?
O8 C7 O7 122.8(6) . . ?
O8 C7 C4 121.8(6) . . ?
loop_
_geom_bond_atom_site_label_1
_geom_bond_atom_site_label_2
_geom_bond_distance
_geom_bond_site_symmetry_2
_geom_bond_publ_flag
In1 O1 2.124(4) . ?
In1 O2 2.096(5) 2_666 ?
In1 O3 2.123(4) 2_566 ?
In1 O5 2.234(5) . ?
In1 O6 2.237(4) 2_676 ?
In1 O7 2.139(5) . ?
P1 O1 1.522(5) . ?
P1 O2 1.507(5) . ?
P1 O3 1.520(5) . ?
P1 O4 1.570(5) . ?
O2 In1 2.096(5) 2_666 ?
O3 In1 2.123(4) 2_566 ?
O4 H4 0.8200 . ?
O5 C1 1.259(8) . ?
O6 In1 2.237(4) 2_676 ?
O6 C1 1.238(8) . ?
O7 C7 1.287(8) . ?
O8 C7 1.238(8) . ?
N1 H1 0.8600 . ?
N1 C2 1.336(12) . ?
N1 C6 1.308(12) . ?
C1 C1 1.541(13) 2_676 ?
C2 H2 0.9300 . ?
C2 C3 1.375(11) . ?
C3 H3 0.9300 . ?
C3 C4 1.383(10) . ?
C4 C5 1.368(10) . ?
C4 C7 1.498(9) . ?
C5 H5 0.9300 . ?
C5 C6 1.375(12) . ?
C6 H6 0.9300 . ?
loop_
_geom_hbond_atom_site_label_D
_geom_hbond_atom_site_label_H
_geom_hbond_atom_site_label_A
_geom_hbond_distance_DH
_geom_hbond_distance_HA
_geom_hbond_distance_DA
_geom_hbond_angle_DHA
_geom_hbond_site_symmetry_A
O4 H4 O8 0.82 1.88 2.629(7) 151.8 1_556
N1 H1 O1 0.86 2.13 2.891(8) 147.2 1_544
loop_
_exptl_oxdiff_crystal_face_indexfrac_h
_exptl_oxdiff_crystal_face_indexfrac_k
_exptl_oxdiff_crystal_face_indexfrac_l
_exptl_oxdiff_crystal_face_x
_exptl_oxdiff_crystal_face_y
_exptl_oxdiff_crystal_face_z
0.0031 5.9901 -1.9947 0.7985 0.6463 0.1574
2.9951 -0.9972 -3.9973 -0.1964 -0.1102 0.9249
-3.9944 0.9980 1.9993 0.3690 -0.3340 -0.8203
-0.0001 1.9986 -5.9933 0.5008 -0.4736 0.7052
3.9942 -1.9970 -0.0018 -0.5754 0.4416 0.5901
1.0003 0.9967 3.9967 -0.1421 0.8533 -0.3639
-0.0016 -0.9965 -4.9960 0.1015 -0.7968 0.6265
2.9973 0.9975 0.9992 -0.1794 0.8373 0.2838
-0.0027 -5.9908 3.9929 -0.8865 -0.3879 -0.4021
-0.0011 -3.9950 5.9922 -0.7376 0.1721 -0.6761
2.9968 1.9975 -3.9956 0.1589 0.3421 0.8812
0.0027 3.9922 2.0004 0.3857 0.8615 -0.3031
0.9970 -4.9930 4.9924 -0.8967 0.0779 -0.3988
