#------------------------------------------------------------------------------
#$Date: 2022-02-04 21:18:03 +0200 (Fri, 04 Feb 2022) $
#$Revision: 272603 $
#$URL: file:///home/coder/svn-repositories/cod/cif/7/24/38/7243815.cif $
#------------------------------------------------------------------------------
#
# This file is available in the Crystallography Open Database (COD),
# http://www.crystallography.net/
#
# All data on this site have been placed in the public domain by the
# contributors.
#
data_7243815
loop_
_publ_author_name
'Verma, Abhineet'
'Bhuvanesh, Nattamai'
'Reibenspies, Joseph'
'Tayade, Sakharam B.'
'Kumbhar, Avinash S.'
'Bretosh, Kateryna'
'Sutter, Jean-Pascal'
'Sunkari, Sailaja S.'
_publ_section_title
;
 Structurally characterised new twisted conformer for cyclen, controlled
 by metal ion complexation as seen in NiII and CuII complexes with halides
 and pseudohalides
;
_journal_issue                   1
_journal_name_full               CrystEngComm
_journal_page_first              119
_journal_page_last               131
_journal_paper_doi               10.1039/D1CE01096D
_journal_volume                  24
_journal_year                    2022
_chemical_formula_moiety         'C8 H20 Br2 Cu N4'
_chemical_formula_sum            'C8 H20 Br2 Cu N4'
_chemical_formula_weight         395.64
_chemical_melting_point          474.15
_space_group_crystal_system      tetragonal
_space_group_IT_number           129
_space_group_name_Hall           '-P 4a 2a'
_space_group_name_H-M_alt        'P 4/n m m :2'
_atom_sites_solution_hydrogens   geom
_atom_sites_solution_primary     'ShelXS-97 (Sheldrick 2008)'
_audit_creation_method           SHELXL-2018/1
_audit_update_record
;
2021-09-27 deposited with the CCDC.	2021-10-04 downloaded from the CCDC.
;
_cell_angle_alpha                90
_cell_angle_beta                 90
_cell_angle_gamma                90
_cell_formula_units_Z            2
_cell_length_a                   9.5813(6)
_cell_length_b                   9.5813(6)
_cell_length_c                   7.5171(5)
_cell_measurement_reflns_used    2408
_cell_measurement_temperature    300(2)
_cell_measurement_theta_max      28.32
_cell_measurement_theta_min      2.65
_cell_volume                     690.08(8)
_computing_cell_refinement       'Bruker SAINT'
_computing_data_collection       'Bruker APEX2'
_computing_data_reduction        'Bruker SAINT'
_computing_molecular_graphics    'Bruker SHELXTL'
_computing_publication_material  'Bruker SHELXTL'
_computing_structure_refinement  'SHELXL-2018/1 (Sheldrick, 2018)'
_computing_structure_solution    'SHELXS-97 (Sheldrick 2008)'
_diffrn_ambient_temperature      300(2)
_diffrn_measured_fraction_theta_full 0.995
_diffrn_measured_fraction_theta_max 0.951
_diffrn_measurement_device_type  'Bruker APEX-II CCD'
_diffrn_measurement_method       '\f and \w scans'
_diffrn_radiation_type           MoK\a
_diffrn_radiation_wavelength     0.71073
_diffrn_reflns_av_R_equivalents  0.0554
_diffrn_reflns_av_unetI/netI     0.0314
_diffrn_reflns_Laue_measured_fraction_full 0.995
_diffrn_reflns_Laue_measured_fraction_max 0.951
_diffrn_reflns_limit_h_max       15
_diffrn_reflns_limit_h_min       -14
_diffrn_reflns_limit_k_max       14
_diffrn_reflns_limit_k_min       -14
_diffrn_reflns_limit_l_max       11
_diffrn_reflns_limit_l_min       -11
_diffrn_reflns_number            14543
_diffrn_reflns_point_group_measured_fraction_full 0.995
_diffrn_reflns_point_group_measured_fraction_max 0.951
_diffrn_reflns_theta_full        25.242
_diffrn_reflns_theta_max         34.945
_diffrn_reflns_theta_min         3.445
_exptl_absorpt_coefficient_mu    7.351
_exptl_absorpt_correction_T_max  0.7469
_exptl_absorpt_correction_T_min  0.5215
_exptl_absorpt_correction_type   multi-scan
_exptl_absorpt_process_details   'Sadabs (Sheldrick, 2018)'
_exptl_crystal_colour            blue
_exptl_crystal_density_diffrn    1.904
_exptl_crystal_description       block
_exptl_crystal_F_000             390
_exptl_crystal_recrystallization_method
'Ether diffusion into methnolic mother liquor'
_exptl_crystal_size_max          0.212
_exptl_crystal_size_mid          0.201
_exptl_crystal_size_min          0.198
_refine_diff_density_max         1.050
_refine_diff_density_min         -0.511
_refine_diff_density_rms         0.114
_refine_ls_extinction_coef       0.0059(4)
_refine_ls_extinction_expression Fc^*^=kFc[1+0.001xFc^2^\l^3^/sin(2\q)]^-1/4^
_refine_ls_extinction_method     'SHELXL-2018/1 (Sheldrick 2018)'
_refine_ls_goodness_of_fit_ref   1.064
_refine_ls_hydrogen_treatment    riding
_refine_ls_matrix_type           full
_refine_ls_number_parameters     34
_refine_ls_number_reflns         846
_refine_ls_number_restraints     0
_refine_ls_restrained_S_all      1.064
_refine_ls_R_factor_all          0.0468
_refine_ls_R_factor_gt           0.0288
_refine_ls_shift/su_max          0.000
_refine_ls_shift/su_mean         0.000
_refine_ls_structure_factor_coef Fsqd
_refine_ls_weighting_details
'w=1/[\s^2^(Fo^2^)+(0.0045P)^2^+0.5894P] where P=(Fo^2^+2Fc^2^)/3'
_refine_ls_weighting_scheme      calc
_refine_ls_wR_factor_gt          0.0327
_refine_ls_wR_factor_ref         0.0350
_reflns_Friedel_coverage         0.000
_reflns_number_gt                708
_reflns_number_total             846
_reflns_threshold_expression     'I > 2\s(I)'
_cod_data_source_file            d1ce01096d2.cif
_cod_data_source_block           shelx
_cod_depositor_comments
'Adding full bibliography for 7243811--7243817.cif.'
_cod_original_cell_volume        690.08(10)
_cod_original_sg_symbol_H-M      'P 4/n m m'
_cod_database_code               7243815
_shelx_shelxl_version_number     2018/1
_shelx_space_group_comment
;
The symmetry employed for this shelxl refinement is uniquely defined
by the following loop, which should always be used as a source of
symmetry information in preference to the above space-group names.
They are only intended as comments.
;
_shelx_res_file
;
TITL try_a.res in P4/nmm
    shelx.res
    created by SHELXL-2018/1 at 20:07:15 on 14-Jan-2019
REM Old TITL try in P4/nmm
REM SHELXT solution in P4/nmm: R1 0.108, Rweak 0.012, Alpha 0.025
REM <I/s> 1.005 for 29 systematic absences, Orientation as input
REM Formula found by SHELXT: C20 Cu3
REM N1 C2 1.453(2) 4_565

CELL 0.71073 9.5813 9.5813 7.5171 90 90 90
ZERR 2 0.0006 0.0006 0.0005 0 0 0
LATT 1
SYMM 0.5-X,0.5-Y,+Z
SYMM 0.5-Y,+X,+Z
SYMM +Y,0.5-X,+Z
SYMM -X,0.5+Y,-Z
SYMM 0.5+X,-Y,-Z
SYMM 0.5+Y,0.5+X,-Z
SYMM -Y,-X,-Z
SFAC C H Br Cu N
UNIT 16 40 4 2 8
EQIV $1 1.5-Y,+X,+Z

L.S. 10
PLAN  5
TEMP 273.15
BIND C2 N1_$1
BIND C1 N1
HTAB
HTAB
BOND
fmap 2
acta
REM <olex2.extras>
REM <HklSrc "%.\\ssk2.hkl">
REM </olex2.extras>

WGHT    0.004500    0.589400
EXTI    0.005885
FVAR       0.56125
BR1   3    0.750000    0.750000    0.715864    10.12500    0.02282    0.02282 =
         0.00551    0.00000    0.00000    0.00000
BR2   3    0.250000    0.750000    0.500000    10.12500    0.01129    0.01129 =
         0.02706    0.00000    0.00000    0.00000
CU1   4    0.750000    0.750000    0.379122    10.12500    0.01172    0.01172 =
         0.00596    0.00000    0.00000    0.00000
N1    5    0.554352    0.803012    0.300202    10.50000    0.01441    0.02034 =
         0.00819   -0.00016   -0.00064    0.00011
AFIX   3
H1    2    0.494972    0.797652    0.390992    10.50000   -1.20000
AFIX   0
REM PART -1
C1    1    0.517574    0.699731    0.162478    10.50000    0.01630    0.02391 =
         0.01287   -0.00204   -0.00310   -0.00044
AFIX   3
H1A   2    0.570684    0.717001    0.056458    10.50000   -1.20000
H1B   2    0.420124    0.706091    0.133918    10.50000   -1.20000
AFIX   0
C2    1    0.553347    0.553347    0.238409    10.50000    0.02137    0.02137 =
         0.01338   -0.00182   -0.00182   -0.00643
AFIX   3
H2A   2    0.542047    0.492130    0.147709    10.50000   -1.20000
H2B   2    0.491507    0.539940    0.334959    10.50000   -1.20000
AFIX   0
HKLF 4




REM  try_a.res in P4/nmm
REM R1 =  0.0288 for     708 Fo > 4sig(Fo)  and  0.0468 for all     846 data
REM     34 parameters refined using      0 restraints

END

WGHT      0.0045      0.5894

REM Instructions for potential hydrogen bonds
HTAB N1 Br2
EQIV $8 x, y, z-1
HTAB C1 Br1_$8

REM Highest difference peak  1.050,  deepest hole -0.511,  1-sigma level  0.114
Q1    1   0.7500  0.7500  0.7815  10.12500  0.05    1.05
Q2    1   0.7500  0.7500  0.9543  10.12500  0.05    0.60
Q3    1   0.3047  0.8047  0.5000  10.50000  0.05    0.52
Q4    1   0.4129  0.7500  0.0872  10.50000  0.05    0.52
Q5    1   0.5424  0.7500  0.2295  10.50000  0.05    0.51
;
_shelx_res_checksum              77860
_shelx_hkl_file
;
  -1   2   0    6.40    2.40
  -1   2   0    5.20    3.50
   1  -2   0    7.10    2.70
   1  -2   0    6.90    3.20
   1  -2   0    7.30    4.10
   2   1   0    3.80    2.70
   2   1   0   -1.80    2.70
   2   1   0    6.60    3.00
  -1   2   0    6.60    2.70
  -2  -1   0    4.00    2.20
  -2  -1   0    4.90    3.30
   0   2   0 5071.89  120.39
   0   2   0 5319.17  118.29
   0  -2   0 5093.49  120.49
   0  -2   0 5061.99  117.99
  -2   0   0 5181.08  116.79
   0  -2   0 5222.78  117.79
   2   0   0 5303.07  116.99
   2   0   0 5094.79  116.69
  -2   0   0 5129.29  116.99
  -2   1   0    4.90    1.30
  -2   1   0    6.00    2.00
  -1  -2   0    4.00    3.40
  -1  -2   0    9.20    3.20
   2  -1   0    5.80    2.20
  -2   1   0    4.30    2.50
  -1  -2   0    5.90    4.70
   1   2   0    4.30    2.50
   2  -1   0    6.20    2.50
   2  -1   0    6.50    2.40
  -2   1   0    4.20    2.80
   1   2   0    9.10    4.60
   1   2   0   13.50    3.60
   2  -2   0 5295.37  120.59
   2  -2   0 5490.75  121.69
  -2   2   0 5421.96  121.59
   2  -2   0 5201.68  121.69
  -2   2   0 5204.78  121.59
  -2   2   0 5461.95  121.99
   2  -2   0 5206.98  122.09
   2   2   0 5324.37  122.89
   2   2   0 5122.19  122.19
   2   2   0 5284.87  125.09
  -2  -2   0 5212.28  122.29
  -2  -2   0 5312.47  124.79
  -2  -2   0 5249.97  123.09
  -2   3   0    3.60    4.00
   3   2   0    2.50    4.10
   3   2   0    3.50    3.70
   3   2   0    0.50    3.60
  -2   3   0    6.80    4.20
   2  -3   0    0.90    3.40
  -3  -2   0   -0.80    3.40
   2  -3   0    2.00    5.40
  -3  -2   0   -0.10    5.10
  -1   3   0  162.28    9.70
   1  -3   0  152.38   11.40
  -3  -1   0  163.18    9.80
   1  -3   0  160.08   10.00
   3   1   0  168.08    9.20
   3   1   0  164.68    9.20
  -1   3   0  175.08    9.70
  -1   3   0  157.08   10.60
   1  -3   0  159.78    9.10
  -3  -1   0  174.38    9.00
   0  -3   0    5.30    3.40
   0   3   0   -0.90    3.40
   0  -3   0    6.20    6.20
  -3   0   0    0.70    2.70
   0  -3   0    0.40    4.00
  -3   0   0    2.30    3.20
   3   0   0    8.60    3.60
   0   3   0   -0.90    3.50
   3   0   0    3.70    3.00
   1   3   0  166.38   10.00
   3  -1   0  167.08    9.00
   1   3   0  171.08   12.10
   3  -1   0  171.78    7.10
  -3   1   0  158.98    6.30
  -1  -3   0  167.88    9.70
  -3   1   0  167.28    9.20
  -3   1   0  176.98    8.90
   1   3   0  162.78   10.10
   3  -1   0  174.78    8.80
  -1  -3   0  161.08    9.50
  -1  -3   0  155.98   12.40
  -3   2   0    6.30    2.80
  -3   2   0    5.50    4.10
   3  -2   0    1.10    3.40
   3  -2   0    0.30    3.20
  -2  -3   0   -0.60    2.90
   2   3   0   -2.70    5.10
   3  -2   0    3.30    1.40
   3  -2   0    2.50    3.70
   2   3   0   -1.30    3.80
  -3   2   0    0.50    3.20
   3  -3   0  415.36   18.10
  -3   3   0  463.55   18.00
  -3  -3   0  448.46   18.30
   3  -3   0  447.06   12.70
  -3  -3   0  448.36   20.20
   3   3   0  441.16   19.10
  -3   3   0  473.35   17.30
   3   3   0  479.15   21.30
   3  -3   0  477.95   18.70
  -3   3   0  436.16   18.40
   3  -4   0    1.80    4.60
   4   3   0   -1.20    5.90
   4   3   0   -1.80    5.80
   3  -4   0   -0.60    2.30
   4   3   0   -2.00    5.00
   3  -4   0    6.00    6.70
  -3   4   0   -3.40    4.50
  -3   4   0    3.10    6.80
  -3   4   0    2.40    5.40
   3  -4   0   -4.30    7.60
  -4  -3   0   -2.50    6.40
  -2   4   0 5546.94  128.29
  -4  -2   0 5373.06  128.59
   4   2   0 5389.56  128.59
  -4  -2   0 5424.86  127.29
   4   2   0 5272.47  126.99
  -2   4   0 5281.77  127.49
   2  -4   0 5116.19  131.09
  -2   4   0 5534.85  130.49
   2  -4   0 5415.36  127.09
   2  -4   0 5317.97  128.09
  -4  -1   0   -2.80    4.10
   4   1   0    0.20    4.10
   1  -4   0    2.90    4.70
   4   1   0    0.60    5.50
  -1   4   0    4.30    3.60
   1  -4   0   -3.40    5.80
  -4  -1   0   -0.80    5.60
   1  -4   0    0.20    6.20
  -1   4   0   11.00    6.30
  -1   4   0    2.10    4.60
   0  -4   0 8389.96  221.48
   4   0   0 9906.91  217.98
   0  -4   0 9626.04  220.28
   0  -4   0 9999.00  225.88
   0   4   0 9862.81  226.28
  -4   0   0 9889.51  218.78
   0   4   0 9413.86  224.08
   4   0   0 9645.24  218.38
  -4   1   0    5.50    4.60
  -4   1   0    3.30    2.60
  -1  -4   0   -6.70    8.40
   4  -1   0    1.00    2.60
  -1  -4   0   -3.60    6.30
   1   4   0   -1.60    4.30
   4  -1   0    7.20    4.10
   1   4   0    2.30    6.10
  -4   1   0    0.80    5.20
   4  -1   0    4.90    5.30
  -4   2   0 5426.76  126.49
  -4   2   0 5351.46  126.59
  -2  -4   0 5331.97  129.29
   4  -2   0 5420.76  126.49
   2   4   0 5493.05  128.59
   2   4   0 5385.36  134.29
   2   4   0 5521.85  129.39
  -2  -4   0 5253.47  133.29
  -2  -4   0 5358.56  128.19
  -4   2   0 5100.89  119.69
   4  -2   0 5259.97  123.79
  -4   2   0 5385.76  122.89
   4  -3   0    1.30    6.00
  -3  -4   0   -0.90    3.90
  -3  -4   0    3.30    9.60
   3   4   0    5.80    6.80
   4  -3   0    1.10    1.60
  -4   3   0    3.00    3.80
  -4   3   0    0.10    4.40
  -3  -4   0    8.00    7.50
   3   4   0    6.00    7.20
   4  -3   0   -0.50    5.70
  -4   3   0    2.40    6.40
   4  -3   0    1.70    4.70
   3   4   0   -2.40    4.90
   4   4   0 5152.28  127.29
  -4  -4   0 5223.48  127.49
   4   4   0 5389.66  128.69
  -4   4   0 5353.66  126.09
   4   4   0 5241.78  132.89
  -4   4   0 5382.86  126.89
   4  -4   0 5291.87  126.79
  -4  -4   0 5260.07  129.09
   4  -4   0 4647.94  117.99
   4  -4   0 5154.58  127.89
  -4   4   0 5060.09  126.09
   4  -4   0 5402.16  125.89
   4  -5   0    1.50    2.70
   5   4   0   -1.00    6.10
   4  -5   0   -3.10    8.10
  -4   5   0    3.60    4.90
  -5  -4   0   -4.70    6.20
   4  -5   0    4.00    7.70
   4  -5   0   -8.80    5.10
   5   4   0   -0.50    7.20
  -4   5   0    2.30    6.60
   5   4   0    6.90    7.70
  -4   5   0    2.70    8.20
  -5  -4   0   -6.50    8.80
  -3   5   0  268.97   17.20
  -3   5   0  264.47   15.00
  -3   5   0  295.17   17.10
   5   3   0  255.37   15.70
  -5  -3   0  264.87   18.60
   5   3   0  243.28   16.60
   3  -5   0  267.47   17.60
   3  -5   0  294.87   15.40
  -5  -3   0  266.67   15.60
   3  -5   0  237.08   19.40
  -2   5   0   -3.40    5.30
   5   2   0    5.30    4.70
  -2   5   0   -2.10    6.50
   2  -5   0    0.40    6.40
  -5  -2   0    0.00    7.10
  -2   5   0    3.90    6.50
   2  -5   0    3.60    5.30
  -5  -2   0   -2.40    4.50
   5   2   0   -4.20    4.80
   5   2   0    2.10    6.10
   2  -5   0    6.90    9.50
  -1   5   0 1227.48   38.00
   1  -5   0 1168.78   42.60
  -5  -1   0 1202.58   37.50
  -5  -1   0 1171.88   35.40
   1  -5   0 1181.48   38.40
   5   1   0 1221.18   36.30
   1  -5   0 1227.98   37.00
   5   1   0 1179.48   35.90
  -1   5   0 1137.29   37.60
  -1   5   0 1169.78   40.70
   5   0   0    0.20    5.60
   0   5   0    5.10    5.80
   0   5   0    0.30    6.70
  -5   0   0    1.50    4.50
   5   0   0    1.40    4.30
   0  -5   0    8.70    5.40
   0  -5   0   -6.50    9.70
  -5   0   0    0.80    6.70
   0   5   0    0.60    5.50
   0  -5   0   -2.60    6.00
   1   5   0 1180.08   38.00
   5  -1   0 1188.68   35.70
   1   5   0 1236.68   38.80
  -1  -5   0 1183.78   42.80
   5  -1   0 1141.99   31.10
  -5   1   0 1197.08   35.60
  -1  -5   0 1228.98   38.00
  -1  -5   0 1135.19   38.60
   5  -1   0 1220.68   35.40
  -5   1   0 1198.78   36.60
   1   5   0 1175.08   42.50
  -5   1   0 1179.68   31.80
  -5   2   0    2.10    6.40
  -2  -5   0    2.70   10.00
   2   5   0   -5.10    6.00
  -5   2   0    2.60    2.30
   2   5   0    8.40    6.90
  -2  -5   0    3.40    5.40
   5  -2   0    7.50    5.00
  -5   2   0   -5.30    4.40
  -2  -5   0    0.70    5.80
   5  -2   0    4.20    6.20
   5  -2   0    0.30    4.00
   2   5   0    2.60    6.10
   3   5   0  287.07   17.00
  -3  -5   0  263.57   18.80
   5  -3   0  257.77   14.30
   5  -3   0  257.27   16.30
   5  -3   0  257.17   15.20
  -5   3   0  260.97   12.20
  -5   3   0  252.67   16.60
   3   5   0  280.27   20.10
   3   5   0  260.97   17.90
  -5   3   0  272.17   15.10
  -3  -5   0  256.97   15.80
  -3  -5   0  267.97   21.60
   4   5   0   -4.70    6.20
   5  -4   0   -2.00    8.30
  -4  -5   0   -3.10    6.10
   5  -4   0    6.20    5.20
   4   5   0    2.50    8.40
  -4  -5   0   -1.80    9.00
   4   5   0    1.30    7.00
  -5   4   0   -4.50    7.80
  -5   4   0   11.00    6.10
   5  -4   0    0.30    6.90
   5  -5   0  427.46   12.90
  -5  -5   0  433.36   21.30
  -5   5   0  436.66   21.40
   5   5   0  418.46   23.70
   5  -5   0  452.55   20.90
   5  -5   0  423.26   23.10
   5  -5   0  417.96   24.60
   5   5   0  421.36   22.30
   5   5   0  467.75   25.50
  -5  -5   0  448.56   25.90
  -5   5   0  417.36   23.30
  -5   5   0  443.46   20.50
  -5   6   0    4.60   10.80
   6   5   0    0.80    9.60
   5  -6   0    5.00   10.10
  -5   6   0  -14.50    7.70
   6   5   0   -2.80    8.50
   5  -6   0   -5.30    3.00
   6   5   0    9.30   10.30
   5  -6   0   -9.20    7.30
  -6  -5   0   -5.70    9.80
   5  -6   0   -5.30   10.40
  -6  -5   0    6.70    6.20
  -5   6   0    8.70    8.30
   6   4   0 3089.79   87.29
   4  -6   0 3144.39   84.99
   6   4   0 3150.78   84.19
   4  -6   0 3015.70   88.39
   6   4   0 3005.00   83.49
  -4   6   0 3005.60   83.59
  -6  -4   0 3204.68   86.99
  -4   6   0 3186.88   84.99
   4  -6   0 3033.40   74.59
   4  -6   0 3101.09   82.39
  -4   6   0 3104.39   84.19
  -6  -4   0 3045.10   83.59
  -6  -3   0    1.60    8.90
   3  -6   0   -1.00    6.10
   6   3   0    5.00    7.10
  -3   6   0   10.70    8.20
  -3   6   0   -1.80    6.20
   6   3   0    6.00    7.80
   3  -6   0    6.90    9.10
  -3   6   0   -8.60    7.70
  -6  -3   0   -4.10    6.00
   6   3   0    6.20    6.90
   3  -6   0  -14.00   10.00
  -6  -2   0 4128.29  104.89
   2  -6   0 4058.49  104.59
   6   2   0 4025.30  101.99
   6   2   0 4004.90  101.59
  -2   6   0 4007.80  103.59
   2  -6   0 3877.81  109.39
  -2   6   0 4173.08  108.49
  -6  -2   0 3949.70  101.69
  -2   6   0 4058.89  103.79
   2  -6   0 4012.00  102.29
   6   2   0 4177.28  102.09
  -1   6   0   -7.10    8.20
   1  -6   0    1.00    8.80
   6   1   0    4.90    5.40
   1  -6   0   -5.20    7.80
  -1   6   0   -1.90    6.30
   1  -6   0   17.10    6.20
   6   1   0  -12.10    6.60
  -6  -1   0   -4.00    7.60
  -1   6   0    3.20    8.10
   6   1   0    7.60    4.70
  -6  -1   0   -3.60    5.10
   6   0   0 4027.70  102.69
   0  -6   0 3987.10  106.09
  -6   0   0 4155.48  104.59
   0  -6   0 4096.49  104.89
   6   0   0 4171.58  102.99
   0   6   0 4073.09  105.69
   0   6   0 4344.57  113.59
  -6   0   0 4178.48  103.19
   0  -6   0 4263.27  113.99
   0   6   0 4293.87  106.89
   1   6   0    3.00    9.50
  -6   1   0    7.20    5.30
   6  -1   0   -7.00    3.60
  -1  -6   0   -7.50    4.20
   6  -1   0    0.20    5.20
  -1  -6   0   -6.40    7.30
  -1  -6   0  -11.70   10.30
  -6   1   0   -0.20    4.30
   1   6   0    0.90    5.80
   1   6   0  -15.80    8.30
  -6   1   0    0.10    7.00
   6  -1   0    5.90    7.20
   2   6   0 4128.49  114.39
  -2  -6   0 4157.08  112.39
  -6   2   0 4020.10  101.59
  -6   2   0 3917.21   93.39
   6  -2   0 4077.19  100.99
   2   6   0 4126.09  105.89
  -6   2   0 4034.40  103.69
   6  -2   0 4082.89  101.59
   2   6   0 3996.90  104.29
  -2  -6   0 4063.29  105.99
   6  -2   0 4018.40   96.59
   6  -3   0   -0.60    5.50
  -3  -6   0  -11.00    9.20
  -6   3   0    1.90    8.20
   6  -3   0    5.40    7.60
  -3  -6   0   -9.70   11.40
   3   6   0    1.10    8.50
   3   6   0  -18.30   10.00
  -6   3   0    3.60    5.60
  -3  -6   0    2.30    6.70
   3   6   0   -9.90    7.20
  -4  -6   0 2954.60   85.69
  -4  -6   0 3000.80   83.89
  -6   4   0 3174.68   83.89
  -6   4   0 3129.99   82.59
   4   6   0 3140.99   85.39
   6  -4   0 3156.18   82.89
   4   6   0 3012.50   84.89
   6  -4   0 3065.99   81.09
   4   6   0 3030.10   91.19
   6  -4   0 3063.99   81.69
   6  -5   0    1.80    7.70
   6  -5   0   -3.50    9.70
   6  -5   0   -3.20    8.90
   5   6   0    6.30   11.80
   5   6   0    7.40    9.80
  -6   5   0    8.40   10.00
  -6   5   0    9.70    7.80
  -6   5   0   -9.80    7.00
  -5  -6   0   -6.30   11.00
  -5  -6   0    3.40    8.50
   5   6   0    2.50    9.20
   6   6   0 2325.77   76.29
  -6   6   0 2524.35   68.59
   6  -6   0 2388.56   73.69
  -6   6   0 2423.26   72.39
  -6  -6   0 2396.06   75.69
   6  -6   0 2446.06   69.19
   6   6   0 2346.77   72.49
   6  -6   0 2369.56   71.59
   6   6   0 2355.76   72.39
  -6   7   0   -8.00   12.70
   6  -7   0   -6.10   13.70
  -7  -6   0   -9.10   14.10
  -6   7   0   -4.70    9.90
   6  -7   0   -2.80   13.40
   6  -7   0    1.70    2.90
   7   6   0    5.50   13.30
  -7  -5   0   15.70   14.10
  -5   7   0   23.60   13.00
   5  -7   0   10.80   13.20
   7   5   0   13.70   10.80
   5  -7   0   50.69   16.50
  -5   7   0   24.20   10.20
   7   5   0   16.10   13.00
   5  -7   0   25.30   11.20
   5  -7   0   19.40    7.10
   4  -7   0   -7.80    5.00
   4  -7   0    1.70    8.40
   4  -7   0   -3.50   13.00
   7   4   0    4.60    9.50
  -7  -4   0    4.40   10.70
  -4   7   0    6.60   11.60
   7   4   0   13.20   10.30
  -4   7   0   24.90   10.00
  -7  -4   0   -9.10    8.40
   4  -7   0   10.60   10.50
   7   4   0   -7.40    9.90
   7   3   0  328.47   21.70
  -3   7   0  322.67   21.50
  -7  -3   0  316.47   18.70
  -7  -3   0  303.17   23.00
   3  -7   0  280.37   18.30
  -3   7   0  292.17   21.90
   3  -7   0  310.97   22.30
   7   3   0  265.47   18.30
   3  -7   0  334.17   27.20
   7   3   0  308.97   23.30
   2  -7   0   -5.70   10.50
  -2   7   0    5.10    9.80
   2  -7   0  -11.30   11.30
  -2   7   0    2.10    7.40
   7   2   0    7.50    7.00
  -7  -2   0  -11.40    9.60
   2  -7   0    3.40    7.00
   7   2   0   -1.40    7.00
   7   2   0    0.50    8.40
  -2   7   0  -11.50    9.50
  -7  -2   0    9.10    6.80
  -7  -1   0   35.80    7.70
  -7  -1   0   47.60   12.30
   1  -7   0   55.69    9.50
   1  -7   0   32.80   15.50
   7   1   0   61.99    8.90
   7   1   0   38.10   10.30
   7   1   0   71.79   10.20
  -1   7   0   51.79   12.40
   1  -7   0   53.19   12.00
  -1   7   0   28.70    8.40
   0   7   0   -0.40    7.20
  -7   0   0    3.20    9.20
   7   0   0    4.80    8.30
   7   0   0   -2.10    6.50
   0   7   0    1.80    6.70
  -7   0   0    7.80    6.00
   0  -7   0    1.70   10.00
   0   7   0    2.10   10.60
   0  -7   0   -0.60    6.70
   0  -7   0   -2.90    9.40
  -1  -7   0   31.40   12.10
   1   7   0   22.00   11.60
   7  -1   0   30.80   10.10
  -7   1   0   28.50   10.60
   1   7   0   23.10   10.30
   7  -1   0   47.80    8.80
  -1  -7   0   28.10   16.30
   7  -1   0   32.90    5.90
   1   7   0   52.49   10.60
  -1  -7   0   54.39    9.10
  -7   1   0   39.10    7.70
  -7   1   0   25.40   12.80
  -7   2   0   -5.30    4.70
   2   7   0    6.60   11.20
   7  -2   0    7.60    5.60
  -2  -7   0  -12.70   13.80
   7  -2   0   -1.60    8.70
  -7   2   0   -2.60    3.50
   7  -2   0   -2.20    6.20
  -7   2   0  -12.80    8.10
   2   7   0   -0.10    7.60
   2   7   0    4.60    8.00
  -2  -7   0   -4.80    5.60
  -2  -7   0    5.30   10.70
   7  -3   0  333.77   17.90
  -7   3   0  316.47   21.70
   3   7   0  290.17   23.00
  -3  -7   0  300.07   24.10
   7  -3   0  294.77   23.70
  -3  -7   0  311.37   28.90
  -7   3   0  294.07   18.10
   3   7   0  341.77   21.50
   3   7   0  324.37   25.00
   7  -3   0  285.17   23.30
   7  -4   0   -9.00    9.40
  -4  -7   0    1.50   11.40
   4   7   0  -14.30   10.10
   4   7   0   -7.60   13.00
  -4  -7   0  -12.30   11.00
  -7   4   0    8.40    6.90
  -7   4   0  -10.60   10.90
   7  -4   0  -10.70    7.60
   4   7   0    1.10   11.20
   5   7   0   31.70   14.60
   7  -5   0   15.20    9.70
   7  -5   0   20.10   10.60
   5   7   0   46.60   15.40
  -7   5   0   25.70    7.90
   5   7   0   39.50   15.40
  -7   5   0    8.60   12.70
   7  -5   0   37.00   13.20
  -5  -7   0   16.50   14.20
  -7   6   0   -1.70    8.80
   7  -6   0    1.20   12.50
  -7   6   0   15.00   12.50
   7  -6   0  -29.10   20.90
   6   7   0   -2.20   13.10
   6   7   0   49.00   18.70
  -6  -7   0    9.30   15.00
   7  -7   0  185.78   25.30
  -7   7   0  189.58   19.10
  -7  -7   0  242.68   28.90
  -7   7   0  241.78   26.80
   7  -7   0  226.08   25.70
   7   7   0  237.58   26.50
  -8  -7   0   -7.50   17.80
  -7   8   0   11.70   17.90
   7  -8   0   23.60   17.90
   7  -8   0   -5.00   18.10
   8   7   0  -14.70   16.50
   6  -8   0 1460.85   39.80
  -8  -6   0 1474.25   57.59
   8   6   0 1584.44   58.39
   6  -8   0 1478.65   56.89
  -6   8   0 1504.95   52.99
   6  -8   0 1500.85   60.59
  -6   8   0 1530.75   57.99
   8   6   0 1561.54   56.89
   5  -8   0   24.30   17.10
   5  -8   0   10.90   13.20
   5  -8   0   -1.10    5.90
  -5   8   0  -11.50   13.20
   8   5   0   -3.80   12.30
  -5   8   0   -9.40   13.00
  -8  -5   0    1.90   15.20
   8   5   0   40.70   13.40
   8   4   0 1767.32   57.59
  -4   8   0 1691.33   57.99
   8   4   0 1779.32   58.29
   4  -8   0 1792.12   66.69
  -8  -4   0 1743.23   60.89
   8   4   0 1623.84   55.79
  -4   8   0 1731.73   59.79
   4  -8   0 1758.42   60.49
  -8  -3   0  -15.50   11.30
  -3   8   0    6.70   12.00
   3  -8   0  -13.80   15.30
   3  -8   0   11.50   12.40
   8   3   0   24.70    9.90
  -3   8   0   -6.20   12.70
   8   3   0   29.20   10.00
   8   3   0    4.40   11.20
   2  -8   0 3302.17  100.39
   2  -8   0 3282.67   92.19
   8   2   0 3275.47   88.39
  -2   8   0 3336.57   92.19
  -2   8   0 3356.96   96.99
   8   2   0 2856.51   91.39
   8   2   0 3167.38   87.39
  -8  -2   0 3339.77   91.59
   2  -8   0 3102.59   88.59
   8   1   0    1.30    9.60
  -8  -1   0   -1.20   12.30
   1  -8   0    3.90   16.00
   1  -8   0   13.90   12.10
   1  -8   0    5.70   10.20
  -8  -1   0    7.80    8.80
  -1   8   0   27.20   13.40
  -1   8   0   12.90   12.10
   8   1   0   11.10    7.20
   8   1   0   -1.80    7.60
  -1   8   0  -14.70   12.40
   0  -8   0 1433.66   52.09
   0  -8   0 1476.95   57.89
   8   0   0 1535.45   48.60
   8   0   0 1423.06   39.20
   8   0   0 1364.76   45.50
  -8   0   0 1389.86   46.60
   0   8   0 1452.15   50.99
   0  -8   0 1446.86   48.90
  -8   0   0 1501.45   50.49
  -8   1   0   12.90    8.70
  -8   1   0    4.20   10.30
  -1  -8   0   13.00    9.30
   8  -1   0  -12.30    7.50
  -8   1   0   -5.60    7.10
   8  -1   0   14.20   10.60
   1   8   0   -0.80   10.30
   1   8   0   -8.20   10.90
  -1  -8   0    0.20   15.80
  -1  -8   0  -17.30   10.70
   2   8   0 3255.27   93.19
   2   8   0 3231.88   94.99
   8  -2   0 3292.37   88.29
  -2  -8   0 3308.47   95.09
   8  -2   0 3381.86   89.89
  -8   2   0 3321.57   91.39
  -8   2   0 3265.77   79.29
  -2  -8   0 3403.36  103.79
   8  -3   0    5.10   12.20
   3   8   0   -9.20   11.20
  -3  -8   0    7.40   13.10
  -3  -8   0   -3.50   12.80
  -8   3   0    6.60    9.90
   8  -3   0   -4.60    8.40
   8  -3   0    1.00   10.80
  -4  -8   0 1831.72   67.99
   4   8   0 1740.33   60.29
   8  -4   0 1679.93   53.89
   8  -4   0 1703.63   53.19
  -4  -8   0 1771.12   62.19
   8  -4   0 1761.02   57.59
  -8   4   0 1748.43   58.69
   8  -5   0   -8.50   10.20
   8  -5   0    2.50   13.40
  -8   5   0   20.20   14.40
  -5  -8   0    4.60   13.70
   5   8   0    4.50   14.10
   6   8   0 1535.55   58.19
  -6  -8   0 1579.04   61.99
   8  -6   0 1559.44   56.69
  -8   6   0 1546.75   57.59
   8  -6   0 1468.75   54.49
   7   8   0   -4.30   17.40
   8  -7   0    4.80   14.70
  -7  -8   0   13.90   21.90
  -8   7   0   -5.00   12.70
   8  -7   0    9.00   16.60
  -8   8   0 1544.95   67.19
   8  -8   0 1373.26   61.89
  -8  -8   0 1419.96   62.59
  -8   8   0 1383.66   58.89
  -8   9   0  -24.10   18.40
   8  -9   0   16.50   22.40
   9   8   0    9.60   21.80
  -9  -8   0    8.20   21.70
   8  -9   0   13.80   19.40
  -9  -7   0   56.09   22.80
   7  -9   0   78.79   22.30
   7  -9   0   93.99   24.20
  -7   9   0   70.29   20.50
   9   6   0   58.39   26.30
   6  -9   0   10.50   18.20
   9   6   0    9.00   18.20
   6  -9   0   -3.40    5.70
   6  -9   0  -34.30   19.20
  -6   9   0   -0.50   21.50
   5  -9   0   38.50   19.10
  -9  -5   0   17.00   18.40
   5  -9   0   14.60    8.20
   5  -9   0   32.00   20.50
  -5   9   0   16.50   16.60
   9   5   0   15.10   14.90
  -4   9   0   11.90   16.10
  -9  -4   0   -5.30   13.30
   9   4   0   -7.80   14.20
   9   4   0   -2.10   13.30
   4  -9   0   -3.50    7.90
   4  -9   0  -15.30   16.20
   4  -9   0   -7.70   14.60
  -9  -3   0  174.58   24.90
  -3   9   0  188.78   21.10
   9   3   0  199.78   22.50
   9   3   0  216.58   26.90
   3  -9   0  216.88   25.80
   3  -9   0  164.58   28.80
   9   3   0  189.78   19.00
  -9  -2   0   -2.50   12.80
   9   2   0    3.60    9.80
   9   2   0    1.60   11.70
   2  -9   0  -21.70   13.00
   2  -9   0   -4.00   12.80
   9   2   0  -10.10   11.60
  -1   9   0  159.48   19.50
   1  -9   0  144.29   23.40
  -9  -1   0  145.89   20.20
   9   1   0  175.58   22.20
   9   1   0  155.88   13.50
   9   1   0  165.88   17.00
   1  -9   0  121.69   20.10
  -9   0   0   -8.60    8.30
   9   0   0    9.00   10.20
  -9   0   0    6.60   13.20
   9   0   0   -0.20    5.50
   0  -9   0   13.10   13.90
   9   0   0    0.10   11.30
   9   0   0   -0.30    6.30
   0  -9   0  -17.80   12.40
   0   9   0   10.70   13.30
   9  -1   0  192.98   22.40
  -9   1   0  156.38   14.70
  -1  -9   0  159.08   28.00
  -1  -9   0  121.69   20.40
   9  -1   0  176.08   16.60
   1   9   0  151.68   21.40
  -9   1   0  125.99   18.80
   9  -1   0  136.29   10.50
  -2  -9   0   11.80   13.60
   9  -2   0   -3.20    6.60
   9  -2   0    1.90   11.80
   2   9   0    9.10   14.10
   9  -2   0    0.70   10.20
  -9   2   0   11.70   14.10
  -2  -9   0  -16.60   13.30
  -9   3   0  178.58   22.50
   9  -3   0  152.18   20.10
  -3  -9   0  171.68   30.70
   9  -3   0  181.28   21.90
   3   9   0  153.38   24.40
  -3  -9   0  192.88   26.60
   4   9   0   10.80   16.10
   9  -4   0   -1.10   10.70
   9  -4   0   19.00   15.10
  -4  -9   0   -7.20   15.30
  -9   4   0  -10.20   14.30
  -9   5   0   35.50   16.30
   9  -5   0   16.90   12.70
  -5  -9   0   24.50   18.20
   9  -5   0   46.40   16.90
   5   9   0   33.60   18.60
   9  -6   0   13.10   17.50
   9  -6   0   -1.70   13.70
   6   9   0   34.60   20.30
  -6  -9   0   10.70   23.50
  -7  -9   0   78.29   24.30
  -9   7   0   57.09   20.90
   9  -7   0   32.90   22.10
   7   9   0   66.59   22.40
   9  -7   0   43.10   17.80
  -8  -9   0    6.80   21.30
   9  -8   0    5.10   20.20
  -9   8   0  -17.40   17.20
   9  -8   0    1.60   20.40
   8   9   0    6.60   21.00
  -9  -9   0  -40.70   22.00
   9   9   0  -17.70   20.40
  -9   9   0   18.40   21.30
   9  -9   0    6.50   24.90
   9  -9   0    2.20   19.30
  10   9   0    0.20   21.00
   9 -10   0   51.79   36.60
   9 -10   0   -1.30   22.60
 -10  -9   0   24.00   25.50
  -9  10   0   11.00   25.80
  10   8   0  519.25   39.80
 -10  -8   0  554.54   46.70
   8 -10   0  522.05   42.70
  -8  10   0  550.74   43.40
 -10  -7   0   -6.90   20.90
  10   7   0    3.10   19.30
  -7  10   0    9.70   19.40
   7 -10   0   27.60   21.20
   7 -10   0   17.40   26.40
   6 -10   0 1033.90   56.79
 -10  -6   0 1090.99   54.59
  -6  10   0  974.30   50.29
   6 -10   0 1082.99   52.49
   5 -10   0    4.70   21.60
 -10  -5   0  -16.20   19.10
  -5  10   0   29.10   19.80
  10   5   0  -11.60   17.40
   5 -10   0   38.10   21.70
  10   4   0 1187.08   49.20
   4 -10   0 1223.18   61.79
  -4  10   0  925.61   61.49
   4 -10   0 1131.09   53.39
  10   4   0 1266.57   46.00
 -10  -4   0 1089.39   54.19
   4 -10   0 1040.20   38.90
 -10  -3   0   -7.70   17.40
   3 -10   0   20.50   23.00
   3 -10   0   -5.60   17.20
  10   3   0   25.00   13.50
  10   3   0    5.00   14.60
  10   2   0 1625.54   52.49
   2 -10   0 1661.83   63.59
  -2  10   0 1650.53   65.89
 -10  -2   0 1679.53   62.79
  10   2   0 1764.72   60.49
   2 -10   0 1665.23   72.59
  -1  10   0   -2.50   16.30
 -10  -1   0  -20.10   11.50
  10   1   0    3.20   10.30
   1 -10   0   18.80   16.90
  10   1   0    7.50    9.20
 -10  -1   0    3.10   15.80
   1 -10   0  -18.80   21.30
  10   1   0    3.50   14.30
  10   0   0 1501.35   51.39
   0 -10   0 1682.03   72.49
   0 -10   0 1714.23   63.59
  10   0   0 1543.55   43.50
   0  10   0 1709.53   62.79
 -10   0   0 1695.83   60.99
 -10   0   0 1679.63   52.09
  10   0   0 1710.83   58.39
  -1 -10   0   16.60   17.20
  10  -1   0    5.90    7.60
 -10   1   0    9.20    8.90
  10  -1   0   -8.60   13.90
  10  -1   0   -6.40    5.30
   1  10   0   11.20   16.40
  -1 -10   0    4.40   22.50
 -10   1   0    7.10   15.00
  -2 -10   0 1709.53   64.89
  10  -2   0 1606.64   56.39
  10  -2   0 1523.75   43.20
 -10   2   0 1592.14   59.09
   2  10   0 1666.13   61.69
 -10   2   0 1414.56   51.09
  -2 -10   0 1747.63   73.79
  10  -3   0    9.80    9.60
   3  10   0   -9.70   16.60
 -10   3   0   -6.20   15.40
  -3 -10   0  -37.20   25.60
  10  -3   0    2.00   14.30
  -3 -10   0   -4.70   17.10
  -4 -10   0 1112.79   66.19
   4  10   0 1176.48   55.09
 -10   4   0 1148.79   51.99
  10  -4   0 1176.58   48.20
  10  -4   0 1124.79   47.10
  10  -5   0    8.10   13.10
   5  10   0   -0.80   18.70
 -10   5   0   43.00   18.40
  10  -5   0    6.10   17.20
  -5 -10   0   40.30   20.80
  10  -6   0  997.70   43.50
 -10   6   0 1094.49   52.09
  -6 -10   0 1061.29   55.59
   6  10   0 1040.70   53.19
   7  10   0    1.60   19.60
  10  -7   0    7.20   19.20
 -10   7   0  -19.60   20.20
  -7 -10   0   -3.20   20.60
  10  -7   0   32.50   19.20
 -10   8   0  532.05   44.40
  10  -8   0  498.65   41.00
  -8 -10   0  599.34   49.40
   8  10   0  598.74   40.60
  -9 -10   0   24.70   27.90
   9  10   0  -34.60   21.40
 -10   9   0    0.30   23.30
  10  -9   0   20.20   21.90
  10  10   0  535.15   45.10
 -10  10   0  552.94   51.79
  10 -10   0  453.25   45.80
 -10 -10   0  558.24   53.69
  11  10   0    3.80   31.10
  10 -11   0    9.70   33.80
   9 -11   0    8.10   29.10
  11   9   0    2.60   23.90
 -11  -9   0  -32.60   31.90
  -9  11   0   28.40   28.90
 -11  -8   0  -16.40   27.90
   8 -11   0   24.40   32.00
  11   8   0  -46.10   20.30
   8 -11   0   42.70   23.50
  -8  11   0  -30.30   23.20
 -11  -7   0   21.20   25.80
   7 -11   0   -1.20   26.40
  11   7   0   -9.90   21.00
   7 -11   0   17.40   21.70
  -7  11   0   42.60   23.30
   6 -11   0   47.30   21.80
  11   6   0   -5.70   18.80
 -11  -6   0  -22.00   20.80
  -6  11   0  -20.40   21.70
   6 -11   0   28.50   25.30
  11   5   0   -2.50   17.30
 -11  -5   0   -6.00   21.50
  -5  11   0    4.90   18.80
   5 -11   0   39.50   22.30
   5 -11   0   34.40   27.40
 -11  -4   0    1.20   20.80
   4 -11   0   -7.10   23.20
  11   4   0  -18.10   19.00
   4 -11   0   20.00   20.70
 -11  -3   0   16.20   21.20
  11   3   0   62.29   20.00
   3 -11   0   61.79   21.70
   3 -11   0   64.69   29.00
  -3  11   0   46.80   19.60
   2 -11   0    1.50   24.80
  -2  11   0   -9.90   19.00
  11   2   0   -6.00   16.30
 -11  -2   0  -33.20   18.10
   2 -11   0   16.10   20.80
   1 -11   0   10.40   26.20
   1 -11   0   66.69   22.10
 -11  -1   0   33.70   15.60
  -1  11   0   32.30   19.10
  11   1   0   45.60   17.90
  11   0   0   20.40    7.60
   0 -11   0    9.60   17.80
 -11   0   0  -10.70   10.90
  11   0   0   -4.70    4.70
   0 -11   0    5.20   26.30
   0  11   0    6.00   17.80
  11   0   0    4.30   15.60
  -1 -11   0   54.69   30.20
   1  11   0   54.59   20.80
  11  -1   0    6.30   15.70
  -1 -11   0   59.69   22.00
 -11   1   0   35.40   10.80
   2  11   0   -7.90   19.40
  11  -2   0    2.40   15.50
 -11   2   0   -4.60   18.00
  -2 -11   0  -19.70   18.90
  -2 -11   0   12.10   27.30
 -11   2   0  -10.70   13.50
  -3 -11   0   44.70   24.70
  -3 -11   0   53.29   21.90
  11  -3   0   34.60   18.90
   3  11   0   46.40   20.80
 -11   3   0   55.59   20.60
  -4 -11   0  -38.10   18.40
 -11   4   0   -1.90   18.50
  11  -4   0    5.00   20.00
   4  11   0   -8.80   18.10
  -5 -11   0   42.80   21.50
 -11   5   0   26.60   20.90
  11  -5   0   21.30   18.20
   5  11   0   21.70   20.50
   6  11   0   12.00   19.80
 -11   6   0   -2.40   20.80
  11  -6   0  -26.30   18.10
 -11   7   0    9.90   22.60
  -7 -11   0   27.00   27.10
  11  -7   0   -2.70   21.80
   7  11   0   35.10   23.80
  11  -8   0   43.10   23.30
  -8 -11   0   20.40   26.80
   8  11   0   17.90   24.10
 -11   8   0  -27.50   25.10
   9  11   0   48.00   26.50
  -9 -11   0   72.29   33.00
  10  11   0   -5.00   29.40
  11 -10   0  -76.09   35.10
  12   9   0   20.90   31.00
   9 -12   0  -19.00   39.00
 -12  -8   0  422.76   59.69
  -8  12   0  659.63   89.89
   8 -12   0  491.45   64.89
   8 -12   0  510.75   54.49
  12   8   0  449.36   41.80
 -12  -7   0  -35.50   28.30
  -7  12   0  -36.30   26.60
  12   7   0    9.90   22.30
   7 -12   0   24.30   25.90
   7 -12   0  -34.80   32.90
  12   6   0  528.95   40.10
 -12  -6   0  571.54   48.60
  -6  12   0  506.15   47.80
   6 -12   0  534.45   49.00
   6 -12   0  621.74   45.70
   5 -12   0   14.40   22.20
 -12  -5   0  -36.90   22.10
   5 -12   0    9.00   26.50
  12   5   0   23.50   20.80
   4 -12   0  653.13   45.00
 -12  -4   0  612.04   46.70
  12   4   0  605.84   41.60
   4 -12   0  692.93   50.69
   3 -12   0   25.90   20.60
  12   3   0   13.20   19.30
 -12  -3   0   13.20   22.20
   3 -12   0   64.89   28.80
  -3  12   0   -9.60   21.10
   2 -12   0 1078.69   62.99
 -12  -2   0 1049.59   48.00
   2 -12   0 1060.99   53.89
  12   2   0  987.60   49.70
 -12  -2   0 1084.39   54.99
  -2  12   0 1044.40   53.99
 -12  -1   0   14.30   17.00
  -1  12   0   13.60   20.20
 -12  -1   0   15.30   19.90
   1 -12   0  -31.10   25.60
   1 -12   0   25.80   21.70
 -12   0   0  616.74   42.90
   0 -12   0  578.64   51.29
   0 -12   0  588.04   43.10
 -12   0   0  541.65   31.30
   0  12   0  621.14   42.30
   1  12   0   19.50   20.80
 -12   1   0   13.30   19.00
 -12   1   0   31.00   18.80
  -1 -12   0    0.20   20.80
  -1 -12   0   10.60   29.40
  -2 -12   0 1007.30   54.59
  12  -2   0 1000.20   48.70
 -12   2   0 1002.60   52.09
   2  12   0 1122.29   55.09
  -2 -12   0 1082.09   67.79
 -12   3   0  -31.70   18.20
  -3 -12   0   15.50   21.70
  12  -3   0   28.60   19.40
   3  12   0   47.80   21.80
   4  12   0  647.64   44.90
  -4 -12   0  586.24   47.10
 -12   4   0  618.34   44.50
  12  -4   0  603.94   40.70
 -12   5   0   35.70   23.80
  12  -5   0   15.50   20.10
  -5 -12   0   11.50   25.50
   5  12   0   11.90   20.70
 -12   6   0  550.94   45.40
   6  12   0  537.15   47.00
  -6 -12   0  565.04   50.19
  12  -6   0  404.66   39.50
 -12   7   0  -24.50   26.70
  12  -7   0   -1.50   26.40
  -7 -12   0   42.10   28.70
   7  12   0   26.90   26.40
 -12   8   0  518.35   58.39
   8  12   0  537.15   47.30
  12  -8   0  459.25   48.20
   9  12   0  -64.89   42.80
  12  -9   0  110.39   38.10
  13   8   0  -68.99   33.80
   7 -13   0   45.70   41.60
  13   7   0  -13.10   28.90
   7 -13   0  -45.70   36.00
   6 -13   0    4.60   33.60
  13   6   0  -12.20   25.40
 -13  -6   0    4.20   36.50
   6 -13   0   12.70   28.10
  -5  13   0   33.40   29.60
 -13  -5   0  -32.80   28.70
  13   5   0   12.30   22.90
   5 -13   0   98.09   28.50
   5 -13   0   14.30   33.70
 -13  -4   0   41.50   29.60
   4 -13   0   61.19   31.50
   4 -13   0  -18.40   24.10
  -4  13   0    3.10   25.50
 -13  -4   0  -46.60   27.50
  13   4   0    7.70   21.90
   3 -13   0   88.39   32.90
   3 -13   0   61.69   26.30
 -13  -3   0   41.50   24.80
  13   3   0   -0.60   20.70
  -3  13   0   38.80   24.60
 -13  -3   0   44.90   27.60
   2 -13   0   43.60   25.80
  13   2   0  -10.60   19.30
 -13  -2   0   32.20   25.10
 -13  -2   0    7.20   23.10
  -2  13   0   16.80   23.30
   2 -13   0   -3.60   31.50
   1 -13   0   -6.30   24.30
 -13  -1   0   13.30   24.90
   1 -13   0  -22.80   29.10
 -13  -1   0    5.70   25.60
  -1  13   0   -1.70   23.00
  13   1   0    7.70   19.30
   0  13   0   -4.00   23.60
   0 -13   0  -14.20   35.60
   0 -13   0   34.90   25.20
  13   0   0   22.40   21.60
 -13   0   0  -13.70   24.40
  13  -1   0  -29.90   19.40
 -13   1   0  -27.00   23.60
  -1 -13   0   27.10   26.50
  -1 -13   0  -25.00   32.20
   1  13   0   24.50   22.60
   2  13   0   58.89   25.70
  -2 -13   0  -32.50   24.50
  13  -2   0   15.50   19.90
 -13   2   0    7.50   23.30
  -3 -13   0   96.49   28.20
 -13   3   0   -9.50   22.90
  13  -3   0   -6.00   20.20
   3  13   0   91.99   26.50
  13  -4   0   35.00   21.50
 -13   4   0  -15.90   26.70
   4  13   0   18.40   25.80
  -4 -13   0   36.30   27.10
 -13   5   0  -12.50   27.90
  -5 -13   0  -16.10   31.00
  13  -5   0    5.60   24.00
   5  13   0   19.60   27.30
  -6 -13   0   50.59   35.30
  13  -6   0   11.00   26.30
   6  13   0   49.50   27.40
 -13   6   0  -44.40   29.60
   7  13   0   49.70   42.30
  13  -7   0   30.90   34.10
  13  -8   0  -25.20   36.10
 -14  -6   0  494.75   80.89
 -14  -5   0  135.19   69.79
  14   5   0  -31.50   33.80
 -14  -4   0  440.26   88.39
   4 -14   0  446.26   63.99
   4 -14   0  545.55   56.59
 -14  -3   0  -55.49   29.40
   3 -14   0    6.50   28.60
   3 -14   0  -31.50   39.30
  -3  14   0    8.80   33.50
  14   2   0  442.56   42.30
 -14  -2   0  431.66   61.29
   2 -14   0  547.25   60.79
   2 -14   0  478.55   49.00
  -2  14   0  524.65   50.29
 -14  -1   0   14.10   30.80
  -1  14   0    8.10   28.40
   1 -14   0   18.20   30.00
   1 -14   0   10.30   37.90
  14   1   0   10.00   23.30
  14   0   0  378.76   41.20
   0  14   0  376.16   45.40
   0 -14   0  422.56   48.40
   0 -14   0  520.75   49.30
 -14   0   0  320.47   45.80
  -1 -14   0   69.99   30.00
   1  14   0   68.09   29.50
 -14   1   0   35.70   49.80
  14  -1   0    2.50   25.30
   2  14   0  537.25   50.79
  14  -2   0  420.86   42.70
  -2 -14   0  505.05   50.79
 -14   2   0  349.27   62.19
   3  14   0   63.79   31.50
 -14   3   0  -27.50   32.40
  14  -3   0   10.80   26.90
  -3 -14   0   23.00   33.90
  14  -4   0  356.86   49.30
   4  14   0  398.56   53.29
 -14   4   0  353.06   57.29
  14  -5   0   16.80   32.10
   1   0  -1  586.24   15.80
   0  -1  -1  605.14   16.90
   0  -1  -1  593.84   15.10
   0  -1   1  563.04   16.10
   0  -1   1  588.04   15.00
   0   1   1  605.54   14.90
   0  -1   1  586.44   15.10
  -1   0   1  578.94   15.70
  -1   0   1  561.14   16.30
   0   1   1  551.94   16.50
  -1   0   1  602.44   15.70
  -1   1  -1   30.50    2.70
  -1  -1  -1   28.30    2.80
  -1  -1  -1   29.60    2.70
   1   1  -1   33.50    4.20
  -1   1  -1   33.50    2.70
   1   1  -1   33.50    3.70
   1  -1  -1   40.60    3.70
  -1  -1  -1   29.10    3.50
   1  -1  -1   34.40    3.60
   1  -1  -1   35.10    3.80
  -1   1  -1   30.80    2.50
   1  -1  -1   32.50    3.60
   1   1   1   35.60    3.50
  -1   1   1   32.10    3.80
  -1  -1   1   26.50    3.80
   1  -1   1   34.20    2.70
  -1   1   1   32.50    3.80
   1  -1   1   30.20    2.60
   1   1   1   30.30    2.50
  -1  -1   1   30.70    3.70
   1  -1   1   28.70    2.20
   1   1   1   29.60    2.60
  -1   1   1   33.70    3.40
  -1   1   1   33.50    4.00
  -1   2  -1 1089.79   31.70
   2   1  -1 1134.99   30.80
  -2  -1  -1 1098.19   29.20
   1  -2  -1 1150.98   30.10
  -2  -1  -1 1139.29   29.30
   1  -2  -1 1172.38   30.00
  -1   2  -1 1127.29   29.30
   1  -2  -1 1117.19   30.10
  -2  -1  -1 1172.88   28.70
  -1   2  -1 1155.58   30.00
   1  -2  -1 1157.28   31.80
   2   1  -1 1124.19   30.50
   1  -2   1 1104.19   29.70
  -1   2   1 1141.89   30.20
  -1   2   1 1148.29   31.40
   1  -2   1 1152.38   28.90
   2   1   1 1146.29   28.80
  -1   2   1 1169.18   30.20
  -2  -1   1 1106.89   30.40
   1  -2   1 1159.48   32.70
  -2  -1   1 1113.79   30.60
   2   1   1 1157.38   29.20
   2   1   1 1111.59   27.90
   0   2  -1 3891.31   91.09
   0  -2  -1 3805.92   89.69
  -2   0  -1 3691.73   85.69
  -2   0  -1 3788.62   85.39
   2   0  -1 3873.01   87.79
  -2   0  -1 3742.63   84.99
   0   2  -1 3907.61   88.29
   2   0  -1 3739.33   87.79
   0  -2  -1 3860.01   87.69
   2   0  -1 3825.72   87.89
   0  -2  -1 3647.44   87.39
   0  -2   1 3769.82   87.29
  -2   0   1 3715.73   87.79
   0   2   1 3841.62   87.39
  -2   0   1 3764.72   87.69
   0   2   1 3817.62   89.69
   0  -2   1 3771.02   88.09
  -2   0   1 3713.93   87.59
   2   0   1 3755.52   84.79
   2   0   1 3731.03   85.19
  -1  -2  -1 1147.69   29.70
   2  -1  -1 1125.99   29.90
  -1  -2  -1 1105.59   31.60
   2  -1  -1 1124.79   30.00
  -2   1  -1 1126.29   28.10
   1   2  -1 1149.69   30.90
  -1  -2  -1 1087.99   29.60
  -2   1  -1 1113.49   27.50
  -2   1  -1 1166.68   28.30
   2  -1  -1 1126.69   29.00
  -2   1  -1 1060.79   26.20
   2  -1  -1 1138.29   30.10
   1   2  -1 1152.68   30.70
   2  -1   1 1136.19   27.90
  -2   1   1 1161.58   30.00
  -2   1   1 1108.89   30.00
   1   2   1 1142.69   31.80
  -2   1   1 1089.59   28.80
  -1  -2   1 1122.09   30.80
   2  -1   1 1115.49   27.50
   1   2   1 1084.19   29.00
  -1  -2   1 1144.59   30.30
   1   2   1 1166.18   29.50
  -2  -2  -1 3685.53   84.59
  -2   2  -1 3514.45   84.79
   2   2  -1 3694.13   86.29
   2  -2  -1 3480.65   83.19
  -2   2  -1 3504.55   83.59
  -2   2  -1 3620.24   84.19
   2  -2  -1 3633.44   86.39
  -2  -2  -1 3517.05   84.89
  -2  -2  -1 3472.15   86.39
   2   2  -1 3526.25   86.09
   2  -2  -1 3598.14   85.29
   2  -2  -1 3683.63   85.29
  -2   2   1 3551.24   83.39
   2  -2   1 3431.76   80.59
   2  -2   1 3570.84   83.99
   2   2   1 3602.94   86.69
   2  -2   1 3601.44   83.09
  -2   2   1 3699.53   85.69
   2  -2   1 3534.75   85.69
   2   2   1 3639.24   84.69
  -2   2   1 3773.02   85.39
  -2   2   1 3635.84   85.29
   2   2   1 3413.36   83.59
  -2  -2   1 3774.62   86.19
  -2  -2   1 3583.04   86.29
   3   2  -1  244.48   14.20
  -2   3  -1  252.37   13.20
  -2   3  -1  262.97   12.10
  -3  -2  -1  254.07   12.70
  -3  -2  -1  241.28   11.20
   2  -3  -1  240.08   13.50
  -2   3  -1  266.37   12.10
   2  -3  -1  255.77   10.60
   2  -3  -1  257.87   14.90
   2  -3  -1  275.67   13.90
  -3  -2  -1  246.68   12.40
   3   2  -1  233.58   14.30
  -3  -2   1  247.58   14.20
   3   2   1  255.67   11.90
   3   2   1  243.68   11.40
   3   2   1  246.98   12.40
  -3  -2   1  252.87   14.20
   2  -3   1  282.17   11.50
   2  -3   1  238.18   14.20
  -2   3   1  258.07   13.00
  -2   3   1  252.97   13.50
  -2   3   1  256.97   12.50
   2  -3   1  248.98   12.80
   1  -3  -1   30.90    5.10
  -3  -1  -1   40.80    4.90
  -1   3  -1   31.30    6.60
  -1   3  -1   35.00    5.50
   1  -3  -1   34.80    5.80
  -1   3  -1   45.20    5.90
   3   1  -1   36.30    6.10
   3   1  -1   38.60    5.70
  -3  -1  -1   31.70    4.30
  -3  -1  -1   32.50    5.10
  -3  -1   1   48.90    6.10
  -3  -1   1   33.10    7.00
   1  -3   1   34.30    7.90
  -1   3   1   36.90    6.80
   1  -3   1   46.60    5.70
   3   1   1   33.30    4.60
   1  -3   1   31.80    5.90
  -1   3   1   38.40    5.80
  -1   3   1   34.80    5.60
   3   1   1   32.10    4.40
   3   1   1   35.60    4.30
   3   0  -1  713.23   22.40
  -3   0  -1  703.93   20.60
  -3   0  -1  710.83   20.20
   0  -3  -1  725.63   22.40
   0   3  -1  733.23   23.00
   3   0  -1  703.73   22.00
   0  -3  -1  714.03   22.60
   0   3  -1  738.73   26.00
   0  -3  -1  645.74   27.90
  -3   0   1  685.43   22.00
   0   3   1  725.33   22.30
   3   0   1  695.53   19.50
  -3   0   1  712.13   22.00
   0  -3   1  726.53   22.00
   0  -3   1  720.93   27.00
   0   3   1  766.12   25.30
   3   0   1  708.33   20.10
  -3   0   1  694.93   21.80
   0  -3   1  673.43   22.70
  -3   1  -1   33.10    1.90
   3  -1  -1   34.40    5.40
   1   3  -1   28.60    7.40
  -3   1  -1   38.90    4.60
   1   3  -1   32.00    5.80
   3  -1  -1   28.50    5.70
  -3   1  -1   42.90    5.30
   1   3  -1   37.00    6.50
  -1  -3  -1   35.50    5.70
  -1  -3  -1   33.50    5.30
  -1  -3  -1   21.90    8.00
   3  -1  -1   34.70    4.80
   3  -1  -1   35.20    5.50
   1   3   1   29.10    5.40
   3  -1   1   30.70    4.10
   1   3   1   44.40    7.60
  -1  -3   1   38.80    6.00
  -3   1   1   32.30    6.60
  -1  -3   1   33.30    6.50
  -3   1   1   35.40    4.60
   3  -1   1   37.10    4.70
  -3   1   1   40.20    5.80
   1   3   1   27.70    5.30
   3  -2  -1  260.67   10.20
   2   3  -1  243.88   14.40
  -3   2  -1  254.97   11.70
   3  -2  -1  248.78   12.50
   3  -2  -1  255.57   12.50
  -3   2  -1  251.77   11.10
  -2  -3  -1  262.97   13.20
   2   3  -1  246.88   14.80
  -3   2  -1  258.37    9.90
   2   3  -1  248.18   13.30
  -2  -3  -1  272.57   12.50
   3  -2  -1  247.38   14.00
  -3   2   1  256.37   14.20
  -3   2   1  258.87   10.40
   2   3   1  260.87   12.50
   2   3   1  258.37   14.50
  -3   2   1  264.07   11.70
  -2  -3   1  256.77   14.70
   3  -2   1  272.57   11.70
  -2  -3   1  252.27   12.90
   3  -2   1  262.67   10.70
   2   3   1  242.28   12.60
  -3   2   1  278.37   13.80
   3  -2   1  233.28   10.90
  -3  -3  -1   35.60    8.00
  -3   3  -1   36.00    6.00
   3  -3  -1   35.00    7.60
  -3   3  -1   35.70    7.10
  -3  -3  -1   47.80    6.80
  -3   3  -1   31.60    7.10
   3   3  -1   51.19    9.10
   3   3  -1   38.20    7.20
   3  -3  -1   35.70    8.30
   3  -3  -1   40.40    6.70
   3  -3  -1   34.80    4.90
  -3  -3  -1   20.70   10.00
  -3   3   1   33.50    6.60
  -3   3   1   23.70    7.20
   3  -3   1   41.00    8.10
   3   3   1   32.00    6.10
   3   3   1   38.30    7.60
  -3   3   1   36.70    6.70
  -3  -3   1   29.50    6.90
   3  -3   1   44.40    9.20
   3   3   1   41.10    9.60
   3  -3   1   36.10    5.60
  -3  -3   1   34.60    6.90
  -3   4  -1   91.49    9.30
  -4  -3  -1   98.39   12.50
  -3   4  -1  108.29    9.80
  -4  -3  -1  102.19    9.50
   4   3  -1  109.39   11.60
   3  -4  -1  104.49    7.60
   3  -4  -1   86.79   11.40
  -3   4  -1   92.39   11.00
   4   3  -1  106.79   10.80
   3  -4  -1   85.69    9.70
   4   3  -1   97.29   12.50
  -4  -3  -1  106.69   12.00
   3  -4  -1  109.19   13.00
   3  -4   1  106.59   12.40
  -3   4   1  100.49   10.10
  -4  -3   1   98.89   13.20
  -4  -3   1  105.49   10.20
   4   3   1  108.59   10.80
   4   3   1   89.09   11.20
  -3   4   1  102.29   11.80
   3  -4   1  118.69    9.80
  -3   4   1  104.69   10.40
   3  -4   1   87.09   14.00
  -4  -2  -1 2554.84   63.09
  -4  -2  -1 2412.96   63.89
   4   2  -1 2474.15   64.49
  -2   4  -1 2484.15   64.09
   2  -4  -1 2456.85   64.59
  -4  -2  -1 2434.76   62.39
   2  -4  -1 2497.35   63.99
  -2   4  -1 2544.25   67.09
  -2   4  -1 2465.25   63.49
   2  -4  -1 2376.46   66.39
   4   2  -1 2414.66   64.59
   2  -4   1 2433.96   68.99
  -4  -2   1 2347.47   63.79
  -2   4   1 2533.05   66.29
  -2   4   1 2445.76   64.19
   4   2   1 2385.76   63.39
   2  -4   1 2340.77   64.99
   4   2   1 2506.65   62.99
  -4  -2   1 2544.55   65.79
  -2   4   1 2463.75   64.19
   2  -4   1 2441.46   64.39
  -1   4  -1    6.40    6.30
  -4  -1  -1    6.00    3.80
   1  -4  -1    3.20    6.20
   1  -4  -1    1.40    6.00
   4   1  -1   19.70    5.90
   1  -4  -1    0.00    4.50
   4   1  -1    7.50    5.90
  -1   4  -1    3.90    7.20
  -4  -1  -1   -5.00    4.40
  -1   4  -1    4.20    6.30
  -4  -1   1   -2.20    6.30
  -4  -1   1    4.20    4.30
  -1   4   1    3.10    4.70
  -1   4   1   -0.60    5.50
   1  -4   1    0.40    5.90
   1  -4   1    4.20    4.20
   1  -4   1   -5.70    6.00
   4   1   1    6.10    4.00
   4   1   1    7.80    4.30
  -1   4   1    9.00    6.60
   0  -4  -1 2382.46   63.09
  -4   0  -1 2419.76   59.79
   0   4  -1 2492.05   62.99
   0  -4  -1 2308.17   66.39
  -4   0  -1 2412.66   60.49
   4   0  -1 2542.45   62.79
   0  -4  -1 2476.55   62.69
   0   4  -1 2538.05   63.89
   4   0  -1 2381.06   61.79
   0  -4   1 2450.05   63.69
   4   0   1 2426.16   59.09
   0  -4   1 2437.56   68.99
  -4   0   1 2362.16   61.09
  -4   0   1 2432.86   61.79
   0   4   1 2404.36   67.39
  -4   0   1 2390.96   62.19
   0  -4   1 2352.76   64.59
   4   0   1 2387.76   59.59
   4  -1  -1    6.70    4.80
   1   4  -1   15.60    7.00
   1   4  -1   -3.20    6.10
  -1  -4  -1    0.60    6.20
   4  -1  -1    4.10    4.30
   4  -1  -1    4.40    6.10
  -4   1  -1    7.30    3.80
  -1  -4  -1   -0.20    6.30
  -4   1  -1    4.10    4.40
   1   4  -1    5.10    3.90
   4  -1   1    0.80    3.30
  -4   1   1    0.20    4.10
  -4   1   1    4.00    6.00
  -1  -4   1   -0.30    8.80
   1   4   1    3.80    4.60
  -1  -4   1   -4.80    5.90
   4  -1   1    6.70    3.90
   1   4   1    2.40    6.70
   1   4   1    6.20    6.00
  -4   1   1    5.40    3.50
   4  -2  -1 2152.18   63.99
  -2  -4  -1 2493.55   63.79
  -2  -4  -1 2427.26   64.39
  -4   2  -1 2490.75   61.89
   4  -2  -1 2378.16   62.79
   2   4  -1 2344.77   68.49
   2   4  -1 2428.96   64.79
   2   4  -1 2519.55   65.19
   4  -2  -1 2450.15   62.79
  -2  -4  -1 2460.15   68.49
  -4   2  -1 2338.57   56.69
   4  -2  -1 2403.56   59.09
  -4   2  -1 2404.96   61.49
  -4   2   1 2486.05   63.59
   2   4   1 2530.05   69.29
  -2  -4   1 2439.56   64.09
  -4   2   1 2545.35   63.29
  -2  -4   1 2545.35   66.09
   4  -2   1 2254.77   58.89
   4  -2   1 2472.55   60.39
  -4   2   1 2342.07   58.69
   2   4   1 2446.36   63.29
  -3  -4  -1   99.89    9.80
   4  -3  -1  120.09   12.30
  -4   3  -1  104.69    9.10
   3   4  -1   95.19   12.50
   4  -3  -1   98.79    8.60
  -3  -4  -1   76.19   13.40
   3   4  -1  104.79    9.80
   4  -3  -1   93.69    6.80
  -3  -4  -1   93.39   12.00
  -4   3  -1  115.19    7.70
  -4   3  -1  105.69   10.70
   3   4  -1   99.39   12.90
   4  -3  -1  105.49   11.50
   4  -3   1  104.19   11.70
  -4   3   1  128.19   10.50
   4  -3   1   75.29    9.60
  -4   3   1  100.99   10.20
   3   4   1   95.09   10.30
   4  -3   1  112.99    8.60
  -3  -4   1   77.29   12.20
   3   4   1   99.59   12.70
  -3  -4   1  104.49   10.40
  -4   3   1  105.59    8.80
   3   4   1   98.79   11.50
  -4  -4  -1 1896.81   53.59
   4  -4  -1 1898.41   54.29
  -4  -4  -1 1876.71   55.09
  -4   4  -1 1925.31   51.69
  -4  -4  -1 1843.72   56.99
   4   4  -1 1896.61   58.39
   4   4  -1 1866.41   54.89
  -4   4  -1 1925.01   53.09
  -4   4  -1 1949.90   53.09
   4  -4  -1 1846.02   47.80
   4  -4  -1 1908.71   53.29
   4   4  -1 1826.62   55.29
   4  -4  -1 1892.61   54.99
   4  -4   1 1826.32   55.29
   4  -4   1 1953.30   51.49
   4  -4   1 1859.11   52.79
  -4  -4   1 1844.62   53.99
   4   4   1 1960.60   53.69
  -4  -4   1 1913.51   56.69
  -4   4   1 1887.91   53.59
   4   4   1 1901.91   58.29
  -4   4   1 1873.01   54.09
   4   4   1 1885.01   53.99
  -4   4   1 1901.11   53.19
  -5  -4  -1    5.10    6.30
  -4   5  -1   13.50    6.70
  -4   5  -1   10.10    8.40
   5   4  -1   10.10    7.10
   4  -5  -1   27.30    6.90
   4  -5  -1   18.40    9.00
  -5  -4  -1   12.50    9.20
   5   4  -1   31.80    7.50
   5   4  -1    6.30    9.10
   4  -5  -1   14.80    4.60
  -4   5  -1   25.30    7.60
   4  -5  -1    7.70    9.20
  -4   5   1    8.30    8.40
  -5  -4   1   22.90   10.30
   4  -5   1   -5.70    9.60
   5   4   1   21.80    7.80
   5   4   1    3.70    7.90
   4  -5   1   18.50    8.80
  -4   5   1   15.60    7.00
   5   4   1    6.40    9.00
  -4   5   1   23.70    7.20
   4  -5   1   18.50    6.10
   5   3  -1   11.20    7.00
  -5  -3  -1    3.00    7.70
   3  -5  -1   28.80    9.10
   5   3  -1   10.60    6.20
  -5  -3  -1   11.40    5.50
  -3   5  -1    7.70    7.10
   3  -5  -1   17.70    8.10
  -3   5  -1   16.10    6.20
  -3   5  -1   11.00    7.40
   3  -5  -1   11.00    4.80
   5   3  -1   18.50    7.40
   3  -5  -1   17.40    6.10
  -5  -3   1   -0.30    8.40
  -3   5   1   14.20    6.50
   3  -5   1    8.20    5.30
   3  -5   1   11.10   10.60
   5   3   1   10.50    6.80
   3  -5   1   15.30    8.10
   5   3   1   21.20    8.20
   5   3   1    8.60    6.30
  -5  -3   1   14.80    5.80
  -3   5   1    3.70    8.30
  -3   5   1    9.70    7.10
  -2   5  -1   95.19   11.80
   5   2  -1   86.29   12.10
   2  -5  -1  100.59    9.90
  -5  -2  -1   84.09   12.50
   2  -5  -1  103.19   12.40
  -5  -2  -1   91.09    9.00
   2  -5  -1   90.49   14.50
  -2   5  -1   95.69   11.90
   5   2  -1  100.49   10.50
  -2   5  -1   70.69    9.50
  -5  -2   1   93.79   13.20
   5   2   1   98.79   11.10
   2  -5   1   87.79   15.40
  -2   5   1   91.09   12.20
  -5  -2   1  100.99   10.20
   2  -5   1   94.29   12.10
   2  -5   1   98.79    9.50
  -2   5   1   91.09   10.20
  -2   5   1  106.89   11.90
   5   2   1   90.79    9.40
  -1   5  -1   16.30    6.10
   5   1  -1   33.20    8.30
   1  -5  -1   26.70    9.00
   1  -5  -1   18.10    6.10
  -5  -1  -1   27.80    5.90
  -1   5  -1   15.40    8.70
   5   1  -1   15.50    5.90
  -1   5  -1   20.10    7.70
  -5  -1  -1   21.00    7.40
   1  -5  -1   32.00    8.70
   5   1   1   24.60    5.40
  -5  -1   1   23.90    6.20
  -5  -1   1   27.80    7.30
  -1   5   1   27.70    8.70
   1  -5   1   32.50    8.40
   5   1   1   24.50    6.60
   1  -5   1   10.40   10.70
   5   1   1   20.70    4.70
  -1   5   1   22.40    7.10
   1  -5   1   21.20    5.90
  -1   5   1   24.80    7.10
   5   0  -1  162.48   13.30
   0   5  -1  154.48   12.10
   5   0  -1  142.39   11.20
   0  -5  -1  112.29   15.30
   0   5  -1  149.69   12.20
  -5   0  -1  156.38   10.00
   0  -5  -1  155.08   13.80
   0   5  -1  154.18   14.80
  -5   0  -1  158.88   12.20
   0  -5  -1  152.38   11.60
   0  -5   1  162.78   12.00
  -5   0   1  170.58   13.80
  -5   0   1  157.08   11.30
   5   0   1  140.19    5.10
   5   0   1  169.28   11.30
   5   0   1  163.88    5.20
   5   0   1  151.88   10.30
   0  -5   1  145.89   18.10
   0  -5   1  151.88   13.90
  -5   0   1  140.39   11.80
   0   5   1  139.09   12.60
   0   5   1  163.58   12.30
   0   5   1  153.98   14.70
  -1  -5  -1   22.60    7.90
   5  -1  -1   19.10    6.10
   1   5  -1   30.80    7.80
  -1  -5  -1   14.00    8.20
  -5   1  -1   19.30    6.80
  -1  -5  -1   19.10    6.70
   1   5  -1   30.70    8.50
   1   5  -1   36.80   10.10
   5  -1  -1   34.60    8.30
  -5   1  -1   26.80    5.80
  -5   1   1   37.70    6.20
   5  -1   1   19.10    5.30
  -1  -5   1   20.90   12.50
   5  -1   1   35.10    7.40
  -5   1   1   22.60    6.60
   1   5   1   20.80    6.60
   1   5   1   27.40    8.00
  -5   1   1   23.60    6.70
   1   5   1   24.90    9.30
  -1  -5   1   33.70    8.10
  -1  -5   1   15.20    6.00
   2   5  -1   94.69   11.00
   2   5  -1   87.19   11.60
  -5   2  -1   95.49    9.00
  -5   2  -1   91.39   10.80
   5  -2  -1   92.99   11.00
  -2  -5  -1  108.59    9.70
   5  -2  -1   82.99   11.80
   2   5  -1   88.39   12.50
  -2  -5  -1   92.09   15.00
   5  -2  -1   95.39   10.00
  -2  -5  -1   95.29   12.80
  -5   2   1   82.69    9.50
  -5   2   1  101.59   12.40
  -5   2   1  105.89    8.20
   2   5   1   87.99   13.00
   5  -2   1   94.59   11.10
   2   5   1   82.69   10.70
  -2  -5   1   89.49   10.40
   2   5   1  101.79   12.30
  -2  -5   1   81.09   11.10
  -5   3  -1   13.60    6.90
   3   5  -1   22.90    8.40
   5  -3  -1   10.40    7.20
  -3  -5  -1    7.30    9.60
   3   5  -1    7.30    8.60
  -5   3  -1   18.80    5.70
  -3  -5  -1   12.80    6.30
   5  -3  -1   17.70    4.20
   5  -3  -1   17.60    6.20
  -5   3  -1   15.00    4.00
  -3  -5  -1   13.10    8.10
   5  -3  -1    9.50    7.70
   3   5  -1   12.30    5.30
  -3  -5   1    5.80    8.70
   5  -3   1   16.60    6.00
   3   5   1    5.80    7.60
  -5   3   1   14.20    4.50
  -3  -5   1    5.80    6.30
   5  -3   1    4.00    5.40
   5  -3   1   14.30    7.10
   3   5   1   11.20    8.50
  -5   3   1    3.80    7.70
   3   5   1   20.60    6.40
  -5   3   1   20.50    6.10
  -4  -5  -1   10.60    9.70
  -5   4  -1   15.00    8.10
  -5   4  -1    8.40    5.10
  -4  -5  -1   15.50    6.80
  -5   4  -1   12.50    6.30
   5  -4  -1   11.20    4.80
   4   5  -1   13.20    6.10
   5  -4  -1   16.90    4.00
  -4  -5  -1   17.60   11.50
   4   5  -1   14.50    8.40
   5  -4  -1   23.80    9.90
   5  -4  -1    7.40    6.40
   4   5  -1   22.20   10.00
   5  -4   1   14.00    6.00
  -5   4   1   13.80    8.80
  -5   4   1   17.80    6.60
   4   5   1   10.70    7.30
   5  -4   1   16.50    7.90
   5  -4   1    7.50    9.90
  -5   4   1    7.80    5.80
   4   5   1   24.10    9.40
  -4  -5   1   11.20    6.80
   4   5   1   13.00    8.80
  -4  -5   1   21.00    8.80
  -5   5  -1   21.80    7.80
  -5   5  -1   16.30   10.50
   5   5  -1   36.90   11.50
   5  -5  -1   34.90    5.50
   5  -5  -1   24.90   11.30
  -5  -5  -1   26.40   11.40
  -5   5  -1   33.80    8.70
   5  -5  -1   35.10   10.80
  -5  -5  -1   26.90   12.90
  -5  -5  -1   45.40    8.80
   5   5  -1   42.30   10.60
   5  -5  -1   33.40    7.80
   5   5  -1   36.40    9.30
  -5   5   1   26.10    6.70
   5  -5   1   32.90    7.60
  -5  -5   1   25.30    8.70
  -5   5   1   35.20   11.60
   5  -5   1   36.80   10.10
   5   5   1   38.90   12.10
  -5  -5   1   29.50   12.10
  -5   5   1   22.10    8.50
   5   5   1   29.70    9.70
   5  -5   1   27.10   12.40
   5   5   1   39.00    9.20
   6   5  -1   28.50   10.50
  -5   6  -1   11.00   10.90
   5  -6  -1   23.70    6.10
  -6  -5  -1   10.90   11.90
  -6  -5  -1   36.90    8.50
  -5   6  -1   33.20    9.70
   5  -6  -1   32.00   13.10
   6   5  -1   29.80   10.30
   6   5  -1   38.90   11.90
   5  -6  -1   30.30    9.10
   5  -6  -1   26.80   11.60
  -5   6  -1   39.90   10.30
  -5   6   1   29.10    9.40
   5  -6   1   50.79   10.20
   6   5   1   37.60   12.30
  -5   6   1   26.40   12.20
   6   5   1   55.79   12.80
   6   5   1   39.90    9.90
   5  -6   1   11.40   10.00
  -6  -5   1   33.80   13.10
   5  -6   1   17.80   13.90
   4  -6  -1 1438.26   47.70
   6   4  -1 1374.86   48.20
   6   4  -1 1393.16   47.70
   4  -6  -1 1374.56   41.40
  -4   6  -1 1432.56   46.70
  -6  -4  -1 1355.06   44.60
   6   4  -1 1319.77   45.30
  -6  -4  -1 1412.96   48.00
   4  -6  -1 1332.37   44.40
  -4   6  -1 1425.46   46.70
  -4   6  -1 1386.86   45.30
   4  -6  -1 1318.67   49.30
   4  -6   1 1387.76   47.00
  -4   6   1 1398.86   45.90
   6   4   1 1469.35   49.00
  -4   6   1 1385.56   47.20
  -4   6   1 1423.46   46.90
  -6  -4   1 1452.75   49.30
   6   4   1 1450.35   45.30
   4  -6   1 1378.86   43.30
   6   4   1 1342.57   44.80
   4  -6   1 1431.36   51.49
   3  -6  -1   52.29   11.40
   6   3  -1   58.09   12.40
   6   3  -1   51.29    9.30
  -3   6  -1   56.29   11.60
  -6  -3  -1   57.59   12.20
   6   3  -1   78.69   11.40
   3  -6  -1   57.89    9.50
  -3   6  -1   62.69   11.70
   3  -6  -1   52.39   12.40
  -6  -3  -1   40.90    8.40
   3  -6  -1   57.49    8.70
  -3   6  -1   50.79    9.40
  -3   6   1   48.50   11.30
  -6  -3   1   49.90   10.80
   3  -6   1   54.49   11.50
   6   3   1   60.29   11.10
   6   3   1   52.89    9.90
   3  -6   1   43.70   13.50
  -3   6   1   40.20    8.30
  -3   6   1   56.99   12.10
   3  -6   1   51.39    8.40
   6   3   1   57.09   10.60
  -6  -3   1   53.99    9.40
  -6  -2  -1 1763.42   52.79
   6   2  -1 1754.92   52.29
   2  -6  -1 1698.33   57.09
   2  -6  -1 1735.53   53.99
   2  -6  -1 1727.43   51.99
   6   2  -1 1730.93   52.89
  -6  -2  -1 1746.33   50.89
  -2   6  -1 1787.92   53.39
  -2   6  -1 1729.33   52.79
  -2   6  -1 1837.62   57.49
  -2   6   1 1814.72   56.79
   6   2   1 1735.23   49.50
  -6  -2   1 1770.62   52.09
  -6  -2   1 1813.72   54.79
  -2   6   1 1751.22   53.09
   6   2   1 1805.92   50.29
   2  -6   1 1819.42   51.29
  -2   6   1 1762.72   53.59
   6   2   1 1766.32   50.79
   2  -6   1 1759.02   53.69
   2  -6   1 1759.92   60.09
   1  -6  -1   42.80    8.80
   1  -6  -1   83.59   15.60
  -1   6  -1   45.60   12.00
  -6  -1  -1   63.59   10.90
  -6  -1  -1   51.29    8.30
   1  -6  -1   65.39   12.20
  -1   6  -1   49.99   10.00
   6   1  -1   52.89   10.30
   6   1  -1   57.99    9.20
  -6  -1   1   67.99    8.10
   6   1   1   41.80    6.30
   6   1   1   62.79    9.20
   1  -6   1   75.29   14.40
  -1   6   1   44.40   10.00
  -6  -1   1   57.29   11.50
   1  -6   1   48.40   11.00
  -1   6   1   66.89   10.10
   6   1   1   72.69   11.10
   1  -6   1   59.69    9.40
   0   6  -1 1959.10   56.49
   0   6  -1 1863.91   60.69
   6   0  -1 1844.82   53.09
  -6   0  -1 1880.71   53.19
   0  -6  -1 1872.51   55.99
  -6   0  -1 1850.91   51.49
   0   6  -1 1900.11   55.69
   0  -6  -1 1776.12   60.49
   0  -6  -1 1904.01   54.69
   6   0  -1 1838.12   53.89
   6   0   1 1780.82   42.40
   0   6   1 1899.31   60.59
   0  -6   1 1863.91   63.49
   0   6   1 1895.01   55.29
   0   6   1 1816.42   54.69
   6   0   1 1882.81   51.09
   6   0   1 1864.21   51.19
  -6   0   1 1920.61   52.59
  -6   0   1 1854.81   53.19
   0  -6   1 1866.91   56.19
   6   0   1 1749.03   43.10
  -6   0   1 1847.22   54.19
   0  -6   1 1963.90   54.49
   1   6  -1   49.10    8.60
   1   6  -1   64.59   11.50
   6  -1  -1   58.19    9.60
  -1  -6  -1   51.59   15.00
   6  -1  -1   63.59   10.20
  -1  -6  -1   52.49   11.40
   1   6  -1   66.39   12.00
   6  -1  -1   82.19   10.60
  -6   1  -1   62.29   10.10
  -6   1  -1   69.29    8.60
  -1  -6  -1   51.69    9.30
   6  -1   1   70.79   10.30
  -6   1   1   64.19    9.00
   1   6   1   65.89   12.30
  -6   1   1   58.89    9.00
   1   6   1   54.89    9.70
   6  -1   1   66.49    8.90
   1   6   1   54.29   10.90
  -6   1   1   55.09   10.70
  -1  -6   1   45.40   16.50
  -1  -6   1   53.69    9.20
  -1  -6   1   60.49   11.80
   6  -2  -1 1685.33   50.99
  -2  -6  -1 1763.52   54.89
   2   6  -1 1792.02   54.99
   2   6  -1 1766.52   59.89
   2   6  -1 1776.12   54.59
   6  -2  -1 1777.22   52.69
  -6   2  -1 1793.02   50.79
   6  -2  -1 1810.02   49.30
  -2  -6  -1 1766.22   59.29
  -6   2  -1 1771.12   51.49
  -6   2  -1 1694.03   40.90
  -2  -6   1 1810.42   55.59
  -6   2   1 1783.82   53.19
   6  -2   1 1805.42   49.30
  -6   2   1 1740.33   51.49
   2   6   1 1842.52   54.39
   2   6   1 1863.61   60.79
   2   6   1 1809.42   53.49
   6  -2   1 1631.64   43.40
   6  -2   1 1822.32   50.09
  -6   3  -1   61.09    9.70
   3   6  -1   60.89   11.70
   3   6  -1   50.99    9.90
  -6   3  -1   44.70   10.00
  -3  -6  -1   60.49   12.50
   6  -3  -1   67.29   11.70
   3   6  -1   59.09   12.50
   6  -3  -1   51.99   11.00
  -3  -6  -1   58.69    9.60
   6  -3  -1   59.39    9.50
  -3  -6  -1   64.29   16.30
   3   6   1   64.89   12.90
   6  -3   1   70.79   11.00
  -6   3   1   45.30    9.00
  -3  -6   1   41.50   12.40
   6  -3   1   57.99    8.90
   3   6   1   65.49   12.20
  -6   3   1   60.39    8.10
  -6   3   1   57.59   11.60
  -3  -6   1   53.09    9.90
   3   6   1   59.39   10.50
   6  -4  -1 1427.16   46.80
  -4  -6  -1 1424.66   46.30
  -4  -6  -1 1389.86   52.49
  -6   4  -1 1383.86   44.00
   4   6  -1 1327.17   50.79
   4   6  -1 1446.66   49.30
  -6   4  -1 1439.46   39.00
  -6   4  -1 1487.65   46.10
  -4  -6  -1 1399.56   49.10
   4   6  -1 1347.07   47.00
   6  -4  -1 1395.36   44.60
   6  -4  -1 1419.26   45.10
  -4  -6   1 1382.16   49.80
  -4  -6   1 1316.87   45.70
   4   6   1 1440.96   52.49
   6  -4   1 1396.56   44.30
  -6   4   1 1394.66   47.00
   4   6   1 1398.56   46.50
   6  -4   1 1389.16   42.40
   4   6   1 1430.56   47.20
   5   6  -1   52.79   12.70
  -5  -6  -1   18.00    9.30
   5   6  -1   21.40    9.20
  -5  -6  -1   38.00   15.80
   6  -5  -1   38.30   11.40
   6  -5  -1   34.20    8.60
   5   6  -1   27.70   12.80
   6  -5  -1   37.30    6.40
  -5  -6  -1   24.00   12.90
  -6   5  -1   23.80   11.30
   6  -5  -1   19.90   11.20
  -6   5  -1   33.20    8.90
  -6   5  -1   21.80    8.00
  -6   5   1   23.80   11.70
   5   6   1   48.90   12.80
   5   6   1   30.20   10.20
   6  -5   1   30.10    8.10
   6  -5   1   30.40   12.20
   6  -5   1   37.90   10.80
  -5  -6   1   42.30   14.40
  -6   5   1   35.10    8.90
   5   6   1   37.60   11.70
  -6   6  -1  909.11   38.50
   6   6  -1  909.61   40.60
   6  -6  -1  883.51   39.30
   6   6  -1  930.51   41.90
   6  -6  -1  899.41   27.50
  -6  -6  -1  940.71   41.10
   6  -6  -1  939.91   39.50
  -6   6  -1  982.20   34.30
  -6  -6   1  927.61   42.40
  -6   6   1  925.31   39.30
   6  -6   1  980.80   43.60
   6   6   1  953.70   37.90
   6   6   1 1015.40   43.60
   6   6   1  911.21   37.90
   6  -6   1  907.61   34.30
  -6   6   1  956.60   35.90
   6  -6   1  916.21   38.00
   6  -7  -1   20.20    6.10
   6  -7  -1   29.90   16.50
  -7  -6  -1   31.40   15.10
   7   6  -1   28.60   15.90
  -6   7  -1    7.00   12.80
  -6   7  -1   48.20   11.00
   6  -7  -1   21.50   14.10
   7   6  -1   38.60   15.60
  -6   7   1   27.60   12.30
   7   6   1   33.40   14.50
   6  -7   1   27.00   15.00
   7   6   1   56.99   16.60
   6  -7   1   11.30   10.40
   7   6   1   17.90   12.60
  -6   7   1   22.90   11.50
   6  -7   1   38.80   15.60
  -7  -6   1   33.60   16.60
   5  -7  -1   14.80    7.10
  -5   7  -1   18.00   12.40
  -7  -5  -1   13.30   13.10
   5  -7  -1    0.40   15.20
   7   5  -1   17.00   13.80
   7   5  -1    0.50   12.00
   5  -7  -1   27.20   13.10
  -5   7  -1    4.20    9.40
   5  -7   1   24.60   12.20
   7   5   1   11.50   11.20
   5  -7   1   -3.60   13.80
   7   5   1   14.20   12.60
  -5   7   1   18.90   10.70
   5  -7   1   13.60    9.20
   7   5   1   27.90   10.40
  -5   7   1   32.00   11.50
  -7  -5   1   -0.80   13.50
   5  -7   1   14.30    3.50
  -7  -4  -1   83.29   12.30
   7   4  -1   92.59   15.20
   4  -7  -1  105.89   15.90
  -4   7  -1   86.09   15.60
  -4   7  -1   86.19   16.00
   4  -7  -1   78.59   15.90
   7   4  -1  127.79   16.60
   4  -7  -1   76.19   18.70
  -7  -4  -1   72.19   15.90
   4  -7  -1   63.49   10.30
   7   4  -1   96.89   16.30
  -4   7  -1   93.19   14.40
  -7  -4   1   91.69   17.10
   4  -7   1   86.09   12.10
   4  -7   1  106.19   16.40
   7   4   1  126.19   16.20
  -4   7   1   93.29   15.90
   7   4   1   69.79   11.20
   4  -7   1  102.99   19.80
  -4   7   1  109.99   15.00
   7   4   1  103.69   14.40
   7   3  -1    4.80   10.20
   7   3  -1   30.90    9.10
  -3   7  -1    2.30   10.40
   3  -7  -1   16.60   11.80
  -7  -3  -1   10.40    7.50
  -3   7  -1    8.70    8.60
   7   3  -1   15.70    8.10
   3  -7  -1   11.50    8.60
  -3   7  -1    9.40    9.30
   3  -7  -1   13.10    6.40
  -7  -3  -1   28.40   12.00
   3  -7  -1   -3.50   13.20
  -7  -3   1   16.60   12.10
  -3   7   1   10.40   11.10
   7   3   1   21.30   10.60
   3  -7   1    2.30   14.40
   7   3   1   23.30    8.50
   3  -7   1   12.30    7.50
   3  -7   1    3.90   10.80
  -3   7   1   27.00   10.70
  -7  -3   1    7.80    7.50
  -3   7   1    0.70    9.20
   2  -7  -1   -7.40    7.20
  -2   7  -1    8.80    9.50
   2  -7  -1   -5.30    9.30
  -7  -2  -1    1.10    6.50
  -2   7  -1   -4.50    6.80
  -2   7  -1    3.30    7.20
  -7  -2  -1    1.10    9.10
   2  -7  -1    4.40   13.60
   7   2  -1    5.20    9.20
   7   2  -1    4.10    7.10
  -2   7   1   -7.10    8.50
  -2   7   1   -7.00    8.10
  -7  -2   1   13.40    6.70
   2  -7   1    5.40    9.40
   7   2   1    7.70    6.30
   2  -7   1   -1.00   14.10
   7   2   1   11.00    8.00
   2  -7   1   12.20    6.80
  -7  -2   1   12.90   10.90
   7   2   1   14.90    7.90
  -2   7   1    5.30    9.80
   7   1  -1   19.50    6.70
   1  -7  -1   13.60   11.30
   7   1  -1   21.40    9.80
  -7  -1  -1   15.00    9.30
   1  -7  -1   19.20    7.90
  -7  -1  -1   17.30    6.70
  -1   7  -1    2.10   10.20
   1  -7  -1    3.70   13.40
  -1   7  -1   16.10    8.70
  -1   7   1   15.40    7.60
   1  -7   1   21.80    7.70
  -7  -1   1   20.30    7.00
   7   1   1   13.20    7.50
   7   1   1   17.60    5.10
   1  -7   1   13.80   13.10
  -1   7   1   20.50    8.10
  -7  -1   1   13.90    8.50
   7   1   1   16.70    8.60
   1  -7   1   11.60   11.10
   7   0  -1  519.95   25.50
   0   7  -1  563.34   26.30
   0  -7  -1  514.85   27.20
   0   7  -1  512.85   26.70
   0  -7  -1  530.25   23.90
   7   0  -1  512.85   22.30
   0   7  -1  541.15   29.40
   0  -7  -1  460.65   31.20
  -7   0  -1  519.85   24.80
  -7   0  -1  485.65   21.50
   0   7   1  523.85   27.80
   7   0   1  528.15   22.30
   0   7   1  545.05   26.90
  -7   0   1  551.84   26.70
   7   0   1  514.75   23.00
   0  -7   1  504.15   33.40
   0   7   1  497.05   24.60
  -7   0   1  476.95   21.90
  -7   0   1  499.85   23.60
   0  -7   1  501.05   23.50
   0  -7   1  518.65   27.70
   1   7  -1   21.30   10.80
   1   7  -1   18.80    9.50
  -7   1  -1   14.50    9.00
   7  -1  -1   13.30    5.80
  -1  -7  -1   19.90    8.00
  -7   1  -1   14.90    6.50
   1   7  -1   18.30    8.40
  -1  -7  -1   14.00   10.40
  -1  -7  -1    9.60   10.90
   7  -1  -1   20.90    9.30
   7  -1  -1   24.50    8.10
   1   7   1   27.90   10.70
   7  -1   1   24.40    8.40
  -7   1   1   20.10    6.50
  -7   1   1   19.00    7.70
  -7   1   1   15.80    8.40
  -1  -7   1   18.20   15.00
   1   7   1   21.90    8.70
   1   7   1   25.10   11.90
  -1  -7   1    5.40    7.20
  -1  -7   1   11.60   10.90
   7  -1   1   16.50    6.40
   2   7  -1   19.70    8.50
  -2  -7  -1   -9.60   10.10
  -2  -7  -1    4.50    7.50
   7  -2  -1   10.00    7.40
  -2  -7  -1    5.00   10.30
  -7   2  -1    1.40    5.80
   2   7  -1   11.10    8.40
  -7   2  -1    7.70    2.20
  -7   2  -1    8.60    8.30
   2   7  -1   -9.10    8.50
   7  -2  -1   15.30    7.30
   7  -2  -1   15.10    9.40
   7  -2   1    3.90    2.20
  -7   2   1    4.70    6.70
   2   7   1   10.60    9.80
   7  -2   1    8.40    8.50
   2   7   1   14.90   11.60
  -2  -7   1    0.90   10.50
   7  -2   1    2.60    6.40
  -7   2   1    9.50    9.90
   2   7   1  -13.70   12.10
  -2  -7   1   -1.20   12.00
  -2  -7   1    9.80    7.80
  -7   2   1   -3.50    6.40
   7  -3  -1   18.30    7.10
  -3  -7  -1   18.50   10.80
   7  -3  -1   19.50   10.20
  -7   3  -1   13.30    7.00
   7  -3  -1   19.20    8.80
  -7   3  -1   10.50   10.00
   3   7  -1   39.40   10.60
  -3  -7  -1    2.70   14.30
   3   7  -1   11.40    9.80
   3   7  -1    8.80   11.90
   3   7   1   10.00   10.30
   3   7   1   15.10   10.10
  -7   3   1   27.60   11.60
   7  -3   1    8.70    5.20
  -7   3   1   -6.80    6.80
   3   7   1   42.60   12.50
  -3  -7   1   13.40   12.70
   7  -3   1   23.30    9.70
   7  -3   1    9.00    7.10
  -4  -7  -1   85.19   19.60
   4   7  -1   90.99   16.00
   4   7  -1   80.79   15.20
   7  -4  -1   81.59   13.90
  -4  -7  -1   70.09   16.00
  -7   4  -1   80.39   14.40
   4   7  -1  130.59   19.60
   7  -4  -1   98.39   15.50
   7  -4  -1   81.79   11.30
  -7   4  -1   91.09   12.50
   4   7   1   72.99   14.90
  -4  -7   1   77.29   16.90
   7  -4   1   84.69   12.50
   7  -4   1  108.49   15.10
   7  -4   1   84.99   15.60
   4   7   1   79.29   14.50
  -7   4   1   83.99   16.00
  -5  -7  -1   33.90   14.30
  -5  -7  -1   16.00   26.10
  -7   5  -1   28.60    7.50
   7  -5  -1   32.50   13.00
   5   7  -1    6.20   14.90
   7  -5  -1   17.00   12.00
  -7   5  -1   18.40   12.10
   5   7  -1   15.30   13.80
  -7   5   1   14.60   10.20
   7  -5   1    9.70   11.20
   5   7   1   22.10   12.80
   7  -5   1   31.00   12.00
   5   7   1   54.39   15.40
   5   7   1   40.80   12.40
  -5  -7   1   22.60   14.90
   7  -5   1   38.80    9.70
  -6  -7  -1   37.60   14.70
  -7   6  -1    0.20   12.60
  -7   6  -1   29.50    8.70
   7  -6  -1   18.50   14.40
   6   7  -1   30.70   15.70
   7  -6  -1   26.30   14.60
   6   7   1   30.70   18.50
   6   7   1   28.10   14.30
  -7   6   1   42.40   15.40
   6   7   1   -2.00   13.90
   7  -6   1   29.40   13.40
   7  -6   1   28.00   13.60
  -6  -7   1   27.40   12.80
   7  -6   1    5.50   10.40
  -7   6   1   37.90   10.70
   7  -7  -1   18.90    8.40
   7   7  -1   16.10   16.80
  -7   7  -1   13.40   11.20
  -7  -7  -1   13.10   17.00
   7  -7  -1   29.40   16.10
   7  -7  -1   15.80   16.00
  -7   7  -1   33.80   16.00
  -7   7   1  -20.20   13.40
  -7   7   1   -5.10   15.40
   7  -7   1   31.50   16.30
   7   7   1   53.29   28.00
   7   7   1   25.90   14.50
  -7  -7   1   25.00   18.00
   7  -7   1    6.90   16.10
  -7   8  -1    6.50   14.40
  -8  -7  -1    5.70   17.70
  -7   8  -1   14.00   17.80
   7  -8  -1   13.80   16.70
   7  -8  -1   19.30    5.90
   7  -8  -1   21.20   18.70
   8   7  -1   -2.20   17.20
   7  -8   1   30.90   17.00
   8   7   1   15.90   16.00
   7  -8   1   28.10   19.10
  -6   8  -1  629.54   31.50
  -6   8  -1  657.23   37.70
  -8  -6  -1  701.73   39.70
   8   6  -1  698.93   39.30
   6  -8  -1  637.04   39.60
   6  -8  -1  662.83   38.50
   6  -8   1  664.13   39.80
  -6   8   1  665.13   37.80
  -8  -6   1  705.53   41.30
   8   6   1  816.22   39.80
   8   6   1  683.83   34.70
   6  -8   1  703.23   37.50
  -5   8  -1  141.49   22.50
   5  -8  -1  129.39   20.60
  -8  -5  -1  143.89   22.80
  -5   8  -1  155.78   18.60
   8   5  -1  176.08   21.00
   5  -8  -1  134.09   13.10
   8   5  -1  134.99   21.40
   5  -8  -1  159.58   26.10
   8   5   1  155.18   21.60
   5  -8   1  156.88   23.00
   8   5   1  132.19   21.20
  -8  -5   1  154.38   22.80
  -5   8   1  155.88   22.70
   8   5   1  133.69   17.80
   5  -8   1  113.59    8.60
   5  -8   1  147.09   25.10
  -4   8  -1  931.91   40.80
   8   4  -1  985.40   39.50
   4  -8  -1  868.91   32.00
   4  -8  -1  878.01   45.20
  -8  -4  -1  959.50   42.00
   8   4  -1  931.71   40.80
  -4   8  -1  925.81   39.00
   4  -8  -1  905.41   41.80
   8   4   1  946.21   38.20
  -4   8   1  961.00   56.89
   4  -8   1  939.81   41.00
   8   4   1  957.10   37.50
   4  -8   1  957.30   47.60
   8   4   1  929.51   37.50
   4  -8   1  935.21   37.30
  -8  -4   1  947.21   43.10
  -4   8   1  920.71   41.30
  -8  -3  -1   10.70   12.30
   8   3  -1   29.30   10.50
  -3   8  -1   20.10   10.70
   3  -8  -1   -2.00    9.60
   8   3  -1    7.80   18.80
  -3   8  -1   26.60   13.00
   8   3  -1   12.80   13.60
   3  -8  -1    0.30   16.80
   8   3   1  -10.70    8.90
   8   3   1   11.70   10.80
   3  -8   1   18.40   12.30
  -8  -3   1  -17.90   11.70
   3  -8   1  -13.90   15.00
  -3   8   1    4.60   11.30
   3  -8   1   -5.80    9.20
  -3   8   1   16.50   15.00
   8   2  -1  910.21   38.90
  -8  -2  -1 1021.40   39.90
   2  -8  -1  964.10   41.20
   8   2  -1  978.80   36.00
   8   2  -1  946.51   36.60
   2  -8  -1  961.70   47.30
  -8  -2  -1  891.11   35.10
  -2   8  -1  866.81   41.20
   8   2   1  956.60   35.20
  -8  -2   1  971.40   41.30
   2  -8   1  991.90   49.10
   8   2   1  924.81   35.30
  -2   8   1  927.31   42.60
   2  -8   1  941.61   36.80
   8   2   1  999.10   32.30
   2  -8   1 1008.30   41.20
   8   1  -1  112.49   14.30
  -8  -1  -1   80.29   12.60
  -8  -1  -1  106.39   16.40
   8   1  -1  122.59   17.60
   1  -8  -1   80.89   16.30
  -1   8  -1   88.59   16.70
   1  -8  -1   69.39   21.70
  -1   8  -1  122.59   19.90
  -8  -1   1  109.39   17.50
   8   1   1  123.59   14.10
  -8  -1   1  102.59   17.30
   1  -8   1  141.69   25.10
  -1   8   1   84.59   16.50
   8   1   1  115.19   15.40
   1  -8   1  104.49   17.20
   8   1   1   94.29    7.80
  -1   8   1   63.39   13.10
   0  -8  -1  977.50   46.10
   0   8  -1 1039.10   42.10
   0  -8  -1 1107.89   43.40
  -8   0  -1 1097.09   40.70
  -8   0  -1 1004.90   36.30
   0   8  -1  961.70   44.40
   8   0  -1 1098.69   41.00
   8   0  -1 1089.39   38.10
  -8   0   1 1069.19   41.90
   0   8   1  967.70   40.10
   8   0   1 1058.69   36.40
   0  -8   1 1045.00   39.30
   8   0   1 1122.29   37.90
   0  -8   1 1073.09   43.30
  -8   0   1 1049.00   37.20
   0  -8   1 1156.28   52.89
   0   8   1 1055.69   41.90
  -1  -8  -1   97.29   22.30
  -8   1  -1  102.39   12.20
   1   8  -1  101.49   16.70
   8  -1  -1   96.59   12.60
   8  -1  -1   82.39   12.90
   8  -1  -1  112.59   17.30
  -8   1  -1   97.59   14.90
  -1  -8  -1  108.19   17.30
   8  -1   1   96.49   13.80
  -1  -8   1   67.29   22.40
  -1  -8   1   89.99   16.20
  -8   1   1  101.39   13.10
  -1  -8   1   88.69   13.50
   1   8   1   90.19   13.70
   8  -1   1  118.49   13.10
  -8   1   1   92.19   16.60
   1   8   1  104.89   17.00
  -2  -8  -1  990.20   48.20
   8  -2  -1  946.41   32.80
  -8   2  -1  933.91   24.70
  -8   2  -1  938.01   34.90
  -2  -8  -1  959.80   41.80
  -8   2  -1  946.91   37.60
   2   8  -1  993.60   41.20
   8  -2  -1  988.20   38.70
   8  -2  -1  916.81   35.50
  -8   2   1  931.91   39.40
   8  -2   1  946.81   33.50
  -2  -8   1  926.21   42.00
   2   8   1  911.91   39.50
   2   8   1  908.01   38.40
  -8   2   1  948.71   30.90
   8  -2   1  992.30   36.00
  -3  -8  -1   -4.50   12.30
   8  -3  -1   17.50    9.10
   3   8  -1    1.30    9.60
  -8   3  -1   -2.50   10.80
   8  -3  -1   16.60   12.90
   8  -3  -1    1.00   10.70
  -3  -8  -1   26.90   18.40
   8  -3   1    4.00    8.80
  -8   3   1   -1.20    9.00
   8  -3   1   15.30    7.60
  -8   3   1    6.70    9.00
   8  -3   1   -0.70    3.60
   3   8   1  -14.30   12.20
   3   8   1   11.80   12.80
  -3  -8   1   -3.60   12.50
  -4  -8  -1  888.11   47.60
   8  -4  -1  897.91   35.70
   4   8  -1  922.71   42.20
  -4  -8  -1  943.11   43.30
  -8   4  -1  915.81   39.30
   8  -4  -1  912.21   39.80
   4   8   1  950.50   41.50
   8  -4   1  869.91   31.10
   8  -4   1  952.60   38.00
   4   8   1 1025.70   49.00
  -4  -8   1  971.10   44.00
   8  -4   1  869.31   33.40
  -8   4   1  966.60   41.50
   8  -5  -1  132.09   18.10
  -5  -8  -1  105.39   21.00
  -8   5  -1  149.99   21.30
   5   8  -1  136.99   22.50
   8  -5  -1  120.29   18.70
  -5  -8  -1  173.38   28.10
   8  -5   1  172.58   16.10
  -5  -8   1  119.59   21.20
  -8   5   1  141.29   22.10
   8  -5   1  152.98   21.40
   5   8   1  152.08   22.70
   8  -5   1  134.29   18.40
   8  -6  -1  634.74   37.00
  -8   6  -1  695.13   37.10
  -8   6  -1  663.53   26.20
   8  -6  -1  667.43   37.30
   6   8  -1  684.03   40.10
  -6  -8  -1  676.13   41.00
   8  -6   1  704.83   36.20
  -8   6   1  683.43   38.60
   8  -6   1  685.43   34.30
   8  -6   1  703.73   33.90
  -6  -8   1  683.63   41.30
   6   8   1  642.64   36.40
   8  -7  -1   13.50   18.40
  -8   7  -1   -0.70   11.40
   8  -7  -1   -2.80   16.90
   7   8  -1   15.50   18.80
  -8   7  -1   -3.90   16.50
  -7  -8  -1   -5.70   19.40
   8  -7   1   17.10   15.60
   7   8   1   33.90   18.40
   8  -7   1   33.30   16.00
  -8  -8  -1  603.84   42.30
  -8   8  -1  574.74   38.10
   8  -8  -1  627.74   41.10
   8   8  -1  560.74   42.90
   8  -8  -1  522.05   37.40
  -8   8   1  652.93   41.50
   8  -8   1  595.54   39.40
   8   8   1  554.44   36.90
   8  -8   1  644.94   40.60
  -8  -8   1  610.94   39.30
  -8   9  -1    6.30   18.90
   8  -9  -1    0.00   18.60
  -9  -8  -1  -29.30   19.30
   9   8  -1   22.00   21.60
   8  -9  -1   33.00   24.80
   8  -9   1  -32.50   21.20
   8  -9   1   23.00   19.60
   9   8   1    2.10   18.50
  -9  -8   1   -4.00   21.30
  -8   9   1    8.10   19.20
  -7   9  -1    8.60   17.30
   7  -9  -1   -0.40   19.20
   7  -9  -1   15.90   19.70
  -9  -7  -1    3.80   18.80
   9   7  -1    5.00   17.50
   7  -9   1  -40.80   19.90
  -7   9   1   16.00   18.20
   9   7   1   15.80   18.40
  -9  -7   1   16.00   20.90
   7  -9   1   28.10   19.80
   6  -9  -1  -13.30   17.90
   9   6  -1   21.00   19.10
   6  -9  -1    0.20    8.60
  -9  -6  -1    2.40   19.00
  -6   9   1    9.90   18.20
  -9  -6   1    8.70   19.90
   6  -9   1  -12.30   17.60
   6  -9   1   11.90   18.00
   9   6   1    9.50   15.40
   9   5  -1   47.40   17.50
  -9  -5  -1   39.60   18.80
   9   5  -1   19.30   17.30
   5  -9  -1   26.20   19.30
  -5   9  -1   -5.20   17.20
   5  -9  -1   18.30   18.20
   5  -9   1   28.90   19.70
  -9  -5   1    5.30   16.60
   9   5   1   18.00   15.10
   9   5   1   61.69   16.80
   5  -9   1   22.70    6.70
   5  -9   1   36.50   16.40
  -5   9   1   20.90   18.00
   4  -9  -1   43.40   17.80
   9   4  -1   68.59   15.10
   9   4  -1   10.50   15.40
   4  -9  -1   19.60    9.40
  -9  -4  -1   38.00   16.90
  -4   9  -1   27.70   16.30
   4  -9  -1   23.80   20.30
   9   4   1   34.70   14.60
   4  -9   1   38.30   17.50
   9   4   1   26.20   14.40
  -9  -4   1   38.10   15.30
  -4   9   1   20.90   15.90
   4  -9   1   48.70   21.90
  -9  -3  -1    9.40   14.90
  -3   9  -1   21.80   15.20
   9   3  -1   14.80   15.20
   9   3  -1   36.30   11.70
   3  -9  -1   -5.70   19.40
   3  -9  -1   11.50   15.80
   9   3   1   32.00   12.40
   9   3   1   29.90   12.30
  -3   9   1   33.70   16.10
   9   3   1   39.10   17.40
   3  -9   1   41.70   21.30
  -9  -3   1    8.90   15.30
   3  -9   1   11.10   15.50
   2  -9  -1  -14.40   17.30
   2  -9  -1    2.80   14.50
   9   2  -1    1.10   10.60
   9   2  -1   -2.00   12.90
  -9  -2  -1    9.00   13.50
  -9  -2   1   -6.50   13.80
   9   2   1   -0.10   11.60
   9   2   1   17.90    7.20
   2  -9   1   -8.40   18.80
   9   2   1    2.40   10.30
   2  -9   1    7.40   13.80
   9   1  -1   36.70   13.90
  -9  -1  -1    9.90   13.90
   1  -9  -1   30.90   15.30
   1  -9  -1   29.00   20.20
  -1   9  -1   30.90   14.50
   9   1   1   30.90    3.90
   9   1   1   31.80    5.50
  -1   9   1   38.10   15.20
   9   1   1   57.99   11.20
   1  -9   1   42.20   16.40
   9   1   1   21.20   10.80
  -9  -1   1   41.00   16.20
  -9  -1   1   26.60   12.60
   1  -9   1   50.69   18.90
   0  -9  -1   53.59   16.80
   0   9  -1   53.69   16.80
   9   0  -1   47.70   14.90
  -9   0  -1   40.10   14.40
   9   0  -1   40.90    9.70
   0  -9  -1   35.30   21.30
  -9   0   1   44.80   11.90
   0   9   1   24.90   15.30
   0  -9   1   29.40   17.50
   9   0   1   57.79   13.50
   0  -9   1   46.20   16.00
  -9   0   1   21.70   13.80
   9   0   1   57.59   10.00
  -1  -9  -1   39.90   17.00
  -1  -9  -1   29.50   15.30
   1   9  -1   33.70   13.00
   9  -1  -1   33.00    9.70
   9  -1  -1   28.30   13.90
  -9   1  -1   22.60   13.40
  -9   1  -1   33.90    8.90
   9  -1   1   33.00   11.60
  -1  -9   1   14.10   20.60
  -9   1   1   25.10    9.80
  -1  -9   1   43.50   17.00
   1   9   1   22.60   14.70
   9  -1   1   47.30   10.90
  -9   1   1   38.40   15.50
   9  -2  -1   10.70    8.70
   9  -2  -1   17.40   13.30
  -9   2  -1    5.00   12.60
   2   9  -1   -5.80   14.30
  -2  -9  -1   17.00   20.40
  -2  -9  -1   -1.60   11.40
   9  -2   1    3.90   11.30
   9  -2   1   12.50    9.00
  -9   2   1    7.20    8.10
  -2  -9   1  -17.90   12.80
   2   9   1   11.50   12.60
  -9   2   1  -12.10   13.40
  -3  -9  -1   36.70   21.60
  -9   3  -1   39.50   14.40
   9  -3  -1   20.90    9.50
  -3  -9  -1   29.40   15.80
   3   9  -1   14.60   12.60
   9  -3  -1   17.80   13.60
  -9   3   1   20.30    8.10
   3   9   1   37.40   16.70
   9  -3   1    7.60   10.80
   9  -3   1   32.40   12.40
  -9   3   1   28.00   13.90
  -3  -9   1    6.50   15.70
  -9   4  -1   35.70   15.40
   9  -4  -1   22.00   15.00
   4   9  -1   32.80   17.70
  -4  -9  -1   40.20   21.80
  -4  -9  -1   26.90   17.50
   9  -4  -1   41.40   15.90
  -4  -9   1   43.00   18.10
   9  -4   1   25.60   14.00
   4   9   1   46.20   17.50
   9  -4   1   52.99   12.60
  -9   4   1   29.10   17.40
   5   9  -1   22.00   18.60
   9  -5  -1   30.30   13.50
  -9   5  -1   31.90   17.10
  -5  -9  -1   26.20   18.90
   9  -5  -1   22.00   15.70
  -5  -9  -1   28.90   23.80
  -9   5   1   33.30   18.20
   9  -5   1   15.00   13.80
   5   9   1    6.60   17.40
   9  -5   1   16.50   14.60
  -5  -9   1  -16.10   18.40
   9  -6  -1   -6.10   32.30
   9  -6  -1    7.10   14.30
  -9   6  -1   20.40   17.10
   6   9  -1   -0.10   23.30
   6   9   1   11.40   18.80
   9  -6   1   24.50   14.80
   9  -6   1   -5.00   12.10
  -9   6   1   24.40   19.10
  -6  -9   1    4.20   19.70
   7   9  -1   -1.80   19.80
  -9   7  -1   -1.50   18.00
  -7  -9  -1   28.10   19.00
   9  -7  -1    6.10   19.00
   9  -7  -1   45.90   20.00
   7   9   1   15.30   21.40
  -7  -9   1   53.59   20.90
   9  -7   1   -5.40   15.40
  -9   7   1   28.80   19.90
   9  -7   1    0.80   16.90
   9  -8  -1   30.10   20.60
  -9   8  -1  -10.10   17.70
   9  -8  -1    3.30   19.20
   8   9  -1  -19.60   18.00
  -8  -9  -1   34.60   22.00
  -8  -9   1   20.20   22.40
   8   9   1   -3.50   19.20
   9  -8   1  -34.90   19.20
  -9   8   1   -8.00   20.80
  -9   9  -1   -2.60   20.10
   9  -9  -1   22.80   25.80
   9   9  -1   24.50   21.30
   9  -9  -1    2.40   22.70
  -9  -9  -1  -15.70   22.80
   9  -9   1   16.20   21.20
   9  -9   1   40.50   26.20
   9   9   1   32.80   28.10
  -9   9   1   -7.90   20.40
  -9  -9   1  -41.10   24.30
  10   9  -1   16.20   22.90
   9 -10  -1   63.49   31.00
 -10  -9  -1    8.80   26.70
   9 -10  -1   29.00   24.90
  -9  10  -1   32.20   24.80
  10   9   1   13.50   19.40
 -10  -9   1   27.90   28.50
   9 -10   1   -3.20   22.70
  -9  10   1   17.60   25.00
   8 -10  -1  307.07   42.30
  10   8  -1  349.67   36.40
   8 -10  -1  334.97   38.20
 -10  -8  -1  385.96   41.80
  -8  10  -1  293.17   37.30
   8 -10   1  328.17   44.50
 -10  -8   1  290.27   42.40
  -8  10   1  358.66   40.40
   8 -10   1  444.56   38.00
  10   8   1  378.56   33.00
   7 -10  -1   46.80   24.90
  10   7  -1   -7.90   19.00
   7 -10  -1   55.89   22.90
  -7  10  -1   -7.20   19.30
 -10  -7  -1  -25.70   18.70
  -7  10   1    6.90   20.00
   7 -10   1  -13.90   25.90
  10   7   1  -27.10   35.20
   7 -10   1   34.20   21.60
 -10  -7   1    2.00   22.40
 -10  -6  -1  316.87   35.70
  -6  10  -1  314.97   33.90
  10   6  -1  378.26   35.40
   6 -10  -1  455.15   38.50
   6 -10   1  336.87   39.70
   6 -10   1  381.36   35.60
  10   6   1  382.36   33.20
  -6  10   1  402.86   34.30
 -10  -6   1  416.16   39.90
   5 -10  -1   27.80   19.80
   5 -10  -1    3.60   23.10
  -5  10  -1    1.00   17.50
  10   5  -1   30.30   22.10
  -5  10   1   20.40   18.30
   5 -10   1  -22.40   21.90
 -10  -5   1    3.50   20.00
  10   5   1  -11.90   14.60
   5 -10   1   -7.00   19.80
   4 -10  -1  598.54   45.60
  10   4  -1  591.24   38.60
   4 -10  -1  553.44   28.30
  10   4  -1  618.84   33.90
  -4  10  -1  519.35   44.10
   4 -10  -1  451.05   56.99
 -10  -4  -1  608.04   39.80
 -10  -4   1  579.24   51.39
   4 -10   1  580.24   48.00
  -4  10   1  623.64   39.90
   4 -10   1  637.24   40.70
  10   4   1  607.54   34.00
  10   3  -1   34.80   14.80
   3 -10  -1   18.20   25.80
   3 -10  -1   23.50   19.50
  10   3  -1   22.20   17.60
 -10  -3  -1    8.50   17.40
  10   3   1   26.80   14.40
 -10  -3   1    4.70   17.60
   3 -10   1   23.60   18.70
   3 -10   1   40.10   26.10
  10   3   1   30.70   16.60
 -10  -2  -1  713.43   39.70
  10   2  -1  693.83   45.40
   2 -10  -1  701.63   41.30
   2 -10  -1  678.63   43.90
  -2  10  -1  710.23   40.80
  10   2  -1  730.73   40.50
 -10  -2   1  688.43   37.00
  10   2   1  678.13   23.30
   2 -10   1  750.62   41.20
  -2  10   1  697.33   40.40
   2 -10   1  676.23   49.80
  10   2   1  739.53   35.50
  10   2   1  691.73   34.20
 -10  -2   1  715.83   42.50
  10   1  -1    7.50   11.10
   1 -10  -1    8.90   17.80
 -10  -1  -1   12.00   16.40
  10   1  -1   13.10   15.00
   1 -10  -1   22.40   16.40
  -1  10  -1    5.60   15.80
  -1  10   1   14.00   17.60
  10   1   1   -4.10   12.30
 -10  -1   1   -1.90   11.60
   1 -10   1    3.70   23.60
 -10  -1   1  -19.80   14.80
   1 -10   1    8.60   16.70
  10   1   1   25.10   14.20
 -10   0  -1  722.83   38.60
   0 -10  -1  775.82   45.80
  10   0  -1  807.92   39.80
   0  10  -1  792.42   42.20
   0 -10  -1  773.02   43.10
  10   0  -1  731.03   28.70
   0 -10   1  725.73   51.59
   0 -10   1  824.22   44.80
  10   0   1  786.52   34.90
 -10   0   1  767.92   33.40
  10   0   1  765.62   33.30
 -10   0   1  719.33   40.10
   0  10   1  749.42   40.90
 -10   1  -1    7.80    8.40
  10  -1  -1   -5.40    8.20
  10  -1  -1   16.20   15.10
  -1 -10  -1    9.00   17.70
 -10   1  -1   -1.80   14.80
   1  10  -1    4.40   15.90
  -1 -10  -1  -17.30   22.70
   1  10   1   -1.10   15.70
  10  -1   1   14.80   12.10
  10  -1   1    1.00   12.70
 -10   1   1  -20.30   13.60
  -1 -10   1  -22.10   21.90
 -10   1   1   12.80    9.80
  -1 -10   1   -8.90   16.10
  -2 -10  -1  762.42   49.99
 -10   2  -1  662.13   19.40
  -2 -10  -1  755.92   39.50
  10  -2  -1  710.33   28.80
  10  -2  -1  757.72   39.10
 -10   2  -1  689.63   37.90
   2  10  -1  715.33   41.00
   2  10   1  718.03   40.90
  10  -2   1  632.44   30.00
 -10   2   1  693.13   37.00
 -10   2   1  667.53   27.20
  -2 -10   1  744.23   43.50
  10  -2   1  734.63   35.30
  10  -3  -1   33.10   16.80
  10  -3  -1    1.70   10.40
   3  10  -1    4.10   18.60
  -3 -10  -1   12.00   18.60
 -10   3  -1   10.60   15.50
  -3 -10  -1   16.10   28.10
  -3 -10   1   44.90   21.60
   3  10   1   32.40   18.50
 -10   3   1    7.50    8.10
 -10   3   1   14.30   16.30
  10  -3   1   16.10   13.90
  10  -3   1   -6.60   13.20
  -4 -10  -1  451.15   47.40
  10  -4  -1  627.64   29.80
  -4 -10  -1  480.85   48.10
 -10   4  -1  566.14   37.10
   4  10  -1  585.14   41.50
  10  -4  -1  589.14   37.80
   4  10   1  589.64   39.80
  10  -4   1  627.74   33.90
 -10   4   1  530.55   43.70
  -4 -10   1  617.24   42.10
  10  -5  -1    5.90   13.80
  -5 -10  -1    7.80   20.60
   5  10  -1    3.90   19.80
  -5 -10  -1   21.40   19.80
  -5 -10   1  -10.50   18.80
 -10   5   1    2.60   18.10
  10  -5   1  -32.30   15.30
  -6 -10  -1  337.97   37.80
  10  -6  -1  396.96   35.50
  10  -6  -1  401.66   29.90
 -10   6  -1  387.76   34.70
   6  10  -1  394.86   37.30
   6  10   1  353.16   37.90
 -10   6   1  371.86   35.20
  -6 -10   1  427.26   39.40
  10  -6   1  405.16   31.20
  10  -7  -1   17.30   19.00
 -10   7  -1   20.70   20.70
   7  10  -1   26.60   21.50
  10  -7  -1   19.00   20.40
  -7 -10  -1    8.30   20.70
   7  10   1   22.80   19.70
  10  -7   1   33.50   36.30
  -7 -10   1   50.99   23.30
 -10   7   1    0.10   18.00
  10  -8  -1  289.87   34.80
  -8 -10  -1  350.16   41.30
 -10   8  -1  376.86   38.80
  10  -8  -1  419.66   40.40
   8  10  -1  265.07   38.90
  10  -8   1  433.66   37.80
 -10   8   1  291.57   39.90
  -8 -10   1  348.17   42.10
   8  10   1  283.77   33.00
   9  10  -1   -0.60   24.40
  10  -9  -1   59.09   39.80
 -10   9  -1  -12.20   23.90
  10  -9  -1  -16.30   23.40
  -9 -10  -1    5.50   26.30
 -10   9   1   -3.00   25.40
   9  10   1   14.80   19.90
  10  -9   1   29.90   21.90
  -9 -10   1   24.50   27.50
 -10  10  -1  127.89   33.80
  10  10  -1  135.59   31.20
 -10 -10  -1  218.08   38.60
  10 -10  -1  210.78   30.80
 -10  10   1  141.39   34.40
 -10 -10   1  145.09   39.50
  10  10   1  136.89   27.30
  10 -10   1  221.78   32.20
  10 -11   1   82.29   36.80
  11  10   1   49.50   31.80
 -11  -9  -1   37.40   35.00
  11   9  -1   -0.70   24.80
   9 -11  -1   36.60   37.00
   9 -11  -1   61.29   28.20
  -9  11  -1   16.00   31.50
  11   9   1   14.90   25.40
   9 -11   1   50.99   28.10
  -9  11   1    0.80   32.90
 -11  -9   1   30.30   35.20
   8 -11  -1   28.20   25.30
   8 -11  -1   23.90   27.10
 -11  -8  -1    4.60   27.50
  -8  11  -1  -31.40   23.30
  11   8  -1  -27.80   22.20
 -11  -8   1   63.49   30.70
  11   8   1  -25.90   20.60
   8 -11   1   -8.00   33.00
  -8  11   1   -3.80   23.40
   8 -11   1   28.30   22.60
  11   7  -1   10.30   21.20
  -7  11  -1  -14.80   21.20
   7 -11  -1   62.99   25.60
   7 -11  -1   35.00   27.10
 -11  -7  -1  -17.20   27.80
   7 -11   1   20.10   23.00
  11   7   1   40.60   21.90
  -7  11   1   57.19   24.40
 -11  -7   1  -41.60   25.20
   7 -11   1   38.80   29.20
  -6  11  -1   26.20   22.20
   6 -11  -1   21.40   26.00
   6 -11  -1   18.90   21.50
 -11  -6  -1  -17.30   20.70
  11   6  -1  -12.00   20.70
  11   6   1  -32.10   18.80
   6 -11   1   23.30   22.10
 -11  -6   1   -5.10   22.70
   6 -11   1   59.29   32.30
  -6  11   1    9.10   22.40
   5 -11  -1    7.70   25.60
  -5  11  -1    8.20   20.80
 -11  -5  -1   20.60   20.80
  11   5  -1  -23.30   19.90
   5 -11  -1   20.20   19.70
   5 -11   1   32.40   21.90
  -5  11   1   22.50   19.70
  11   5   1  -13.40   16.90
   5 -11   1   11.40   25.80
 -11  -5   1   18.20   22.40
   4 -11  -1   23.50   20.40
   4 -11  -1   18.00   24.60
  11   4  -1   -6.20   19.10
 -11  -4  -1   -3.10   18.80
   4 -11   1   16.30   27.60
  11   4   1   31.80   18.10
   4 -11   1   48.00   23.00
 -11  -4   1   -1.50   18.80
   3 -11  -1   10.10   24.40
  -3  11  -1   39.00   20.60
  11   3  -1    9.00   19.70
   3 -11  -1   11.40   20.30
 -11  -3  -1   18.20   19.50
   3 -11   1  -16.60   25.20
  -3  11   1   -0.20   19.20
 -11  -3   1  -14.90   19.30
  11   3   1   22.90   15.60
   3 -11   1   42.90   21.50
 -11  -3   1    5.40   19.20
   2 -11  -1    6.70   14.30
   2 -11  -1    4.40   23.10
  -2  11  -1   24.00   20.30
 -11  -2   1    7.40   15.80
   2 -11   1    2.00   20.00
  -2  11   1   -1.50   19.00
 -11  -2   1   -0.90   18.70
  11   2   1    7.30   14.90
   2 -11   1   12.10   24.40
   1 -11  -1   41.60   21.10
   1 -11  -1    9.50   25.10
  11   1  -1   14.30   18.30
 -11  -1  -1   -7.10   18.90
  -1  11  -1   -1.40   18.20
  11   1  -1   14.70    9.70
 -11  -1   1   -4.70   19.20
 -11  -1   1   22.10   14.80
   1 -11   1   -9.60   26.80
  -1  11   1  -22.30   18.30
   1 -11   1   49.20   21.60
  11   1   1   24.10   14.40
   0 -11  -1   30.40   25.10
   0  11  -1   37.20   19.20
   0 -11  -1   15.60   20.40
 -11   0  -1   22.70   11.70
  11   0  -1   15.10   18.30
  11   0  -1   21.60    9.60
 -11   0  -1   17.90   19.90
   0 -11   1   18.60   21.00
 -11   0   1   18.30   18.00
   0  11   1   21.40   18.50
  11   0   1   34.60   14.60
   0 -11   1   41.90   29.40
 -11   0   1   14.60   13.40
   1  11  -1  -13.10   18.30
 -11   1  -1   -2.40   19.10
  -1 -11  -1   36.50   25.70
  11  -1  -1    8.40    9.50
  -1 -11  -1   19.10   20.10
  11  -1  -1   -3.30   18.60
 -11   1  -1    8.60    9.30
 -11   1   1   10.40   18.30
  11  -1   1   -0.70   14.00
  -1 -11   1   13.30   18.80
   1  11   1    1.60   18.30
 -11   1   1    9.00   10.50
  11  -2  -1  -10.40   20.70
  11  -2  -1    1.50   10.40
   2  11  -1   27.80   19.80
  -2 -11  -1   16.50   26.30
  -2 -11  -1   30.70   19.00
 -11   2   1    0.40   19.30
  -2 -11   1   23.20   21.90
  11  -2   1   29.50   15.40
   2  11   1  -18.10   17.90
 -11   3  -1   31.50   18.80
  11  -3  -1   27.40   12.10
   3  11  -1   18.20   20.20
  -3 -11  -1   40.20   27.00
  -3 -11  -1   -6.70   20.70
  11  -3  -1   14.50   20.00
   3  11   1   16.40   19.00
 -11   3   1   13.40   20.00
  -3 -11   1    5.60   18.80
 -11   3   1   -6.30   11.20
  11  -3   1    4.30   15.00
  11  -4  -1    4.30   19.20
   4  11  -1   -9.80   18.90
  11  -4  -1   23.40   14.60
  -4 -11  -1   12.30   21.60
  -4 -11  -1    4.30   19.40
 -11   4  -1   27.90   18.70
 -11   4   1   13.80   21.10
  11  -4   1   14.10   15.60
  -4 -11   1   21.70   20.10
   4  11   1   23.70   20.90
  11  -5  -1    1.90   20.20
   5  11  -1    6.80   21.40
  11  -5  -1    5.70   16.50
  -5 -11  -1   35.60   21.70
 -11   5  -1   46.00   20.30
 -11   5   1    2.80   19.40
  -5 -11   1   23.80   21.80
   5  11   1   -0.30   19.70
  11  -5   1   45.00   19.80
  11  -6  -1   12.60   19.40
  -6 -11  -1  -18.70   21.10
   6  11  -1    7.10   21.60
 -11   6  -1   -6.80   18.70
   6  11   1   24.90   20.10
  -6 -11   1  -19.40   22.90
 -11   6   1   -0.20   19.20
  11  -7  -1   10.70   21.90
   7  11  -1   44.10   24.00
 -11   7  -1  -10.50   23.20
  -7 -11  -1   63.29   24.60
  -7 -11   1   40.90   26.80
 -11   7   1    6.80   22.30
   7  11   1   48.00   22.10
  11  -7   1   11.00   21.90
 -11   8  -1   11.40   26.20
  11  -8  -1   39.90   23.20
   8  11  -1   -7.60   23.30
  -8 -11  -1  -52.79   27.00
 -11   8   1   27.90   27.40
   8  11   1   28.80   23.50
  -8 -11   1    7.20   27.70
  11  -8   1   14.50   22.90
  11  -9  -1  -40.30   26.60
  -9 -11  -1   25.30   33.80
 -11   9  -1   -4.80   32.00
   9  11  -1   35.30   28.80
 -11   9   1  -14.70   29.80
   9  11   1   50.19   24.60
  11  -9   1  -22.20   29.20
  -9 -11   1    7.00   32.70
  11 -10  -1   33.60   43.70
  11 -10   1    1.40   39.40
  10  11   1  -25.50   31.10
   9 -12   1  103.29   37.90
  12   8  -1  172.68   37.00
 -12  -8  -1  104.89   44.10
   8 -12  -1  207.08   40.90
   8 -12  -1  167.68   36.30
  -8  12  -1  300.87   51.89
  12   8   1  122.69   31.20
   8 -12   1  256.87   41.40
   7 -12  -1   37.90   33.00
  12   7  -1   19.20   21.70
   7 -12  -1    3.10   27.30
 -12  -7  -1  -27.60   30.30
  -7  12  -1   15.30   30.10
 -12  -7   1  -58.89   28.90
  -7  12   1    6.80   27.70
   7 -12   1   58.09   27.40
  12   7   1  -26.20   23.60
   6 -12  -1  306.47   40.00
  12   6  -1  217.08   33.60
   6 -12  -1  371.46   42.10
  -6  12  -1  212.68   34.50
 -12  -6  -1  274.67   42.30
  -6  12   1  290.07   40.80
 -12  -6   1  270.37   42.90
  12   6   1  265.27   38.10
   6 -12   1  211.78   39.40
   6 -12   1  341.37   36.30
 -12  -5  -1   38.80   25.90
  12   5  -1   37.00   20.40
   5 -12  -1   26.30   25.10
  12   5   1   -9.90   20.40
 -12  -5   1   28.20   25.00
   5 -12   1   70.89   21.90
   5 -12   1   12.30   28.60
 -12  -5   1   40.50   26.30
  12   4  -1  297.07   36.30
   4 -12  -1  331.67   38.30
  -4  12  -1  332.97   40.40
   4 -12  -1  418.76   44.90
 -12  -4  -1  300.57   39.20
 -12  -4   1  352.36   39.30
 -12  -4   1  376.96   41.80
   4 -12   1  436.06   37.60
  -4  12   1  291.17   38.90
   4 -12   1  407.66   45.60
   3 -12  -1   64.89   31.40
  12   3  -1   -7.30   18.70
 -12  -3  -1   31.50   21.80
   3 -12  -1   38.30   21.60
  -3  12  -1   14.70   21.80
  12   3   1   -9.40   18.40
   3 -12   1   29.80   21.50
 -12  -3   1   18.70   41.40
 -12  -3   1  -32.40   21.60
  -3  12   1    2.00   20.80
   3 -12   1   22.90   27.40
   2 -12  -1  305.87   43.70
   2 -12  -1  308.77   36.90
 -12  -2  -1  348.97   36.50
  12   2  -1  276.77   22.70
  12   2  -1  373.36   37.40
  -2  12  -1  338.97   38.10
  -2  12   1  279.77   36.20
   2 -12   1  356.16   36.10
   2 -12   1  372.76   45.60
 -12  -2   1  370.76   38.00
 -12  -2   1  336.17   31.90
  12   2   1  324.67   32.60
   1 -12  -1  -12.60   20.40
 -12  -1  -1   16.10   19.40
   1 -12  -1   30.70   21.70
  12   1  -1   16.20   19.90
 -12  -1  -1   17.10   16.10
  -1  12  -1   34.90   22.00
 -12  -1   1   11.90   17.00
  -1  12   1   -5.90   20.60
  12   1   1    5.20   17.00
 -12  -1   1    6.10   20.60
   1 -12   1   40.00   29.30
   1 -12   1   27.70   21.60
   0 -12  -1  392.76   44.20
 -12   0  -1  435.16   37.60
  12   0  -1  431.96   39.10
 -12   0  -1  418.86   26.80
   0 -12  -1  497.55   40.80
   0  12  -1  336.67   37.90
  12   0   1  462.65   34.00
   0 -12   1  408.96   38.10
 -12   0   1  413.06   30.40
 -12   0   1  298.57   36.70
   0  12   1  309.87   36.30
 -12   1  -1   -9.90   18.80
  12  -1  -1    8.00   19.70
   1  12  -1  -15.50   19.10
  -1 -12  -1   17.90   21.50
  -1 -12  -1   11.90   26.70
  12  -1   1   16.20   18.00
   1  12   1   26.60   20.70
 -12   1   1    2.00   20.20
 -12   1   1    6.00   12.90
  -1 -12   1   74.49   23.20
 -12   2  -1  333.67   36.30
  -2 -12  -1  392.96   40.60
  12  -2  -1  334.47   36.60
   2  12  -1  318.67   35.70
  -2 -12  -1  302.97   38.30
 -12   2   1  318.77   35.60
  -2 -12   1  388.26   39.30
   2  12   1  332.07   37.70
  12  -2   1  328.57   32.80
  -3 -12  -1   16.40   29.80
 -12   3  -1   14.80   20.30
  -3 -12  -1  -10.00   22.10
   3  12  -1    9.90   21.20
  12  -3  -1   26.30   18.60
  12  -3   1   25.80   18.60
   3  12   1   12.00   21.80
 -12   3   1  -16.50   19.40
  -3 -12   1    5.30   22.00
  -4 -12  -1  327.57   45.50
  12  -4  -1  383.16   36.10
 -12   4  -1  353.96   37.30
  -4 -12  -1  391.46   43.90
   4  12  -1  323.07   41.60
  -4 -12   1  317.87   39.40
  12  -4   1  386.26   37.90
 -12   4   1  327.07   38.00
   4  12   1  313.57   39.20
  -5 -12  -1   66.29   26.90
 -12   5  -1   35.80   23.10
  12  -5  -1   28.70   20.50
   5  12  -1   60.49   25.00
   5  12   1   79.59   24.00
  12  -5   1   25.40   21.20
  -5 -12   1    3.30   26.20
 -12   5   1   59.49   25.40
  -6 -12  -1  298.97   41.90
  12  -6  -1  305.27   36.20
 -12   6  -1  263.07   40.80
   6  12  -1  379.46   41.90
  12  -6   1  311.87   37.50
   6  12   1  238.88   38.30
 -12   6   1  255.07   36.60
  -6 -12   1  331.37   43.50
 -12   7  -1   54.79   29.50
  -7 -12  -1   28.50   29.60
 -12   7   1   37.50   28.60
  12  -7   1   47.80   27.20
   7  12   1   46.30   25.50
  -7 -12   1   42.00   29.70
  12  -8  -1  226.28   35.30
 -12   8  -1  236.48   42.70
  -8 -12  -1  189.88   52.99
   8  12  -1  345.87   51.69
  12  -8   1  249.58   38.40
   9  12   1   42.30   32.70
   8 -13  -1  -32.50   64.99
   7 -13  -1   66.99   42.40
  13   7  -1  -18.30   31.80
   7 -13   1  106.59   33.20
 -13  -6  -1   -6.90   34.60
   6 -13  -1   48.80   30.20
  13   6  -1   17.00   27.40
   6 -13  -1  -23.40   33.40
  13   6   1  -53.69   34.50
   6 -13   1   55.09   27.30
 -13  -6   1   15.20   36.80
 -13  -6   1   60.59   39.10
   5 -13  -1   63.19   31.00
  -5  13  -1    3.70   29.70
   5 -13  -1  -34.70   27.30
  13   5  -1    4.50   22.00
 -13  -5  -1    0.50   35.10
 -13  -5   1   -7.80   31.10
   5 -13   1   31.40   25.20
  13   5   1  -39.60   24.50
  -5  13   1   10.50   28.00
 -13  -5   1   20.30   32.30
   4 -13  -1   -1.10   30.60
   4 -13  -1    2.80   27.40
 -13  -4  -1  -11.20   28.10
  13   4  -1   39.20   20.40
  -4  13  -1    7.80   26.60
 -13  -4   1   39.20   28.20
 -13  -4   1  -22.00   28.60
   4 -13   1   23.30   26.10
  -4  13   1   26.90   25.60
  13   4   1  -47.00   22.90
   3 -13  -1   -3.10   24.80
  13   3  -1   18.00   21.50
 -13  -3  -1   57.99   28.40
   3 -13  -1   34.30   33.20
  -3  13  -1   67.99   25.80
  13   3   1  -28.60   21.20
   3 -13   1   10.50   25.50
 -13  -3   1   31.50   27.00
  -3  13   1   11.90   25.10
 -13  -3   1   39.80   26.60
 -13  -2  -1   46.30   24.10
 -13  -2  -1    3.80   25.90
  -2  13  -1   36.20   25.60
   2 -13  -1   73.39   47.00
   2 -13  -1   13.00   31.70
  13   2  -1  -27.40   20.10
   2 -13   1   23.00   23.70
 -13  -2   1   -4.50   27.40
  -2  13   1    2.90   23.60
  13   2   1   21.80   25.10
 -13  -2   1  -39.00   23.20
   1 -13  -1  -19.50   31.00
 -13  -1  -1  -25.20   24.50
  -1  13  -1   37.60   25.70
   1 -13  -1   55.69   25.70
  13   1  -1  -13.40   18.60
   1 -13   1   15.00   23.80
  -1  13   1   -4.20   23.20
 -13  -1   1   -9.20   23.70
 -13  -1   1   29.90   22.60
   0 -13  -1   56.79   32.70
   0 -13  -1   -7.80   23.20
 -13   0  -1  -10.40   25.80
   0  13  -1   82.29   28.10
  13   0  -1  -14.70   18.80
   0 -13   1   51.79   23.90
   0  13   1    4.90   23.50
 -13   0   1   22.90   25.20
  -1 -13  -1   47.50   32.40
  13  -1  -1   39.00   22.00
  -1 -13  -1    0.80   25.40
 -13   1  -1  -21.40   24.10
   1  13  -1   52.09   24.80
  -1 -13   1   28.80   25.10
 -13   1   1  -23.00   23.00
   1  13   1   29.50   23.90
  -2 -13  -1   89.99   37.00
   2  13  -1   18.80   25.30
  -2 -13  -1  -36.80   24.10
  13  -2  -1    0.60   19.70
 -13   2  -1   20.20   25.50
   2  13   1   15.50   23.90
 -13   2   1   20.00   24.40
  -2 -13   1   20.00   26.30
  -3 -13  -1   47.30   27.60
  13  -3  -1   37.80   21.50
 -13   3  -1   -0.80   25.80
  -3 -13  -1   62.59   38.20
   3  13  -1   19.80   26.60
  -3 -13   1   21.80   26.90
 -13   3   1   39.40   27.20
   3  13   1   33.20   24.70
 -13   4  -1   26.80   26.10
  13  -4  -1   48.80   22.10
  -4 -13  -1   52.69   28.60
  13  -4   1   -0.60   24.50
 -13   4   1   48.20   27.70
  -4 -13   1  -14.90   25.70
   4  13   1   23.40   24.30
  -5 -13  -1   38.60   29.90
 -13   5  -1  -18.10   33.60
   5  13  -1    9.40   27.90
  13  -5  -1   37.00   24.00
 -13   5   1   26.90   29.50
   5  13   1   99.39   24.60
  13  -5   1    5.00   26.50
  -5 -13   1   59.69   29.30
   6  13  -1   39.50   29.40
  -6 -13  -1   -8.00   36.80
 -13   6  -1  -19.10   30.90
  13  -6  -1   15.80   27.20
 -13   6   1  -20.70   33.40
  -6 -13   1   37.50   41.30
   6  13   1    0.60   28.50
  13  -7  -1  -28.40   28.60
   7  13   1   35.30   33.00
  14   5  -1  -15.80   32.50
   5 -14   1  113.89   43.70
 -14  -5   1   57.09   43.80
   4 -14  -1  107.89   58.69
 -14  -4  -1  232.18   45.40
  14   4  -1  171.28   30.50
   4 -14   1  150.38   31.60
 -14  -4   1  251.77   62.19
 -14  -3  -1   46.80   33.80
  14   3  -1  -49.40   24.10
   3 -14  -1   41.50   34.50
  -3  14  -1   25.80   37.20
   3 -14  -1  -33.90   41.50
 -14  -3   1    6.00   33.20
   3 -14   1   69.29   29.60
  -3  14   1  -12.40   33.40
  14   2  -1  157.48   31.10
   2 -14  -1  261.87   50.59
  -2  14  -1  164.98   36.20
   2 -14  -1  244.98   38.10
 -14  -2  -1  162.88   37.90
 -14  -2   1  205.48   39.50
  -2  14   1  207.18   34.70
  -1  14  -1   29.30   30.00
 -14  -1  -1  -10.40   30.20
   1 -14  -1   11.10   29.50
   1 -14  -1   -7.50   28.10
 -14  -1   1  -45.70   29.50
   1 -14   1  -27.10   27.50
  -1  14   1  -29.30   28.00
   0 -14  -1  229.68   37.00
  14   0  -1  180.28   27.60
 -14   0  -1  223.88   39.70
   0 -14  -1  210.38   45.20
   0  14  -1  200.48   33.90
   0  14   1  227.78   37.10
 -14   0   1  148.39   35.80
  14  -1  -1  -30.80   22.10
 -14   1  -1  -19.70   30.50
  -1 -14  -1   83.79   47.20
  -1 -14  -1   28.70   29.50
   1  14  -1   -5.20   26.60
   1  14   1   69.49   30.60
  -1 -14   1   31.80   30.10
 -14   1   1  -25.10   27.40
  14  -2  -1  204.08   31.20
   2  14  -1  203.48   36.20
  -2 -14  -1  211.18   39.40
  -2 -14  -1  228.88   56.69
 -14   2  -1  206.58   37.90
   2  14   1  222.38   36.10
 -14   2   1  132.49   38.10
  -2 -14   1  314.07   46.50
  14  -3  -1    9.60   25.60
 -14   3  -1   81.19   33.40
   3  14  -1  -20.60   32.00
  -3 -14  -1  -31.50   38.40
  -3 -14   1   -6.40   33.00
   3  14   1  -22.60   27.30
 -14   3   1    5.30   37.00
 -14   4  -1  214.18   43.80
  14  -4  -1  118.29   29.80
  14  -5  -1    7.60   32.20
  15   2  -1  -16.80   34.00
  15   1  -1  -31.60   32.00
  15   0  -1  -21.30   33.50
  15  -1  -1   22.50   34.30
  15  -2  -1   -0.20   34.40
  15  -3  -1  -26.50   45.90
   0   0  -2 1978.70   45.60
   0   0  -2 2080.99   50.09
   0   0  -2 1950.10   45.80
   0   0   2 2064.59   50.09
   1   0  -2  178.18    7.30
   0   1  -2  179.08    8.40
   0   1  -2  170.18    6.60
   0  -1  -2  174.68    6.50
   0   1  -2  169.18    6.30
   0  -1  -2  173.98    9.40
  -1   0  -2  178.58    8.30
   1   0  -2  182.48    7.80
   1   0  -2  187.08   10.20
   0  -1  -2  168.18    6.30
   0  -1  -2  180.58    8.80
   0  -1   2  171.08    5.10
   0  -1   2  162.58    8.90
  -1   0   2  175.48    7.20
   0   1   2  161.38    5.40
  -1   0   2  180.68    7.20
   0   1   2  172.78    5.30
   0   1   2  161.28    8.70
   1   0   2  184.08    8.80
  -1   0   2  172.38    8.90
  -1  -1  -2 4362.36   99.69
  -1   1  -2 4196.88   98.29
   1   1  -2 4384.06   99.59
  -1  -1  -2 4227.08   98.79
  -1  -1  -2 4457.65  101.99
  -1   1  -2 4319.47   99.89
   1  -1  -2 4300.67   99.49
  -1   1  -2 4252.87   97.59
  -1  -1  -2 4303.17  100.79
   1  -1  -2 4270.37   99.39
   1  -1  -2 4508.25  101.99
   1   1  -2 4283.97  100.19
   1   1  -2 4480.65  102.39
   1  -1  -2 4674.03  102.99
   1  -1   2 4213.38   99.89
  -1  -1   2 4314.77   99.39
  -1   1   2 4197.38  101.39
  -1   1   2 4317.47   98.99
  -1  -1   2 4364.96   98.99
  -1  -1   2 4318.37  102.19
   1   1   2 4327.87  100.59
  -1   1   2 4425.66   98.99
   1  -2  -2  326.87   12.70
   1  -2  -2  363.16   13.80
  -1   2  -2  340.27   11.40
  -1   2  -2  336.47   11.80
   2   1  -2  334.47   13.00
  -2  -1  -2  326.37   10.10
   2   1  -2  332.07   13.80
  -2  -1  -2  329.57   12.20
   1  -2  -2  347.37   14.00
  -2  -1  -2  319.77    9.70
  -2  -1   2  320.87   13.20
   1  -2   2  334.67    9.90
  -1   2   2  336.47   12.20
  -2  -1   2  310.67   16.90
  -1   2   2  322.97   12.60
   1  -2   2  340.47   12.50
  -1   2   2  361.66   14.80
   2   1   2  332.57   11.80
  -1   2   2  322.37   13.90
  -2  -1   2  339.27   13.10
   1  -2   2  316.57   10.30
   0   2  -2  426.76   14.20
  -2   0  -2  418.76   10.20
   2   0  -2  418.26   15.50
  -2   0  -2  409.26   10.10
   0  -2  -2  421.86   13.80
   2   0  -2  418.96   15.10
   0  -2  -2  405.86   15.60
   0  -2  -2  411.26   16.00
  -2   0  -2  409.56   12.70
   0  -2  -2  401.26   13.70
   0   2  -2  422.76   14.20
  -2   0  -2  423.06   14.20
   2   0  -2  414.16   14.50
   0   2   2  441.86   13.00
   0   2   2  404.46   13.20
  -2   0   2  405.06   14.40
  -2   0   2  409.76   15.60
   0  -2   2  424.26   13.40
   0  -2   2  421.86   12.90
   0   2   2  422.56   15.90
   0  -2   2  401.26   15.70
  -2   0   2  415.26   14.40
  -1  -2  -2  329.77   14.30
  -2   1  -2  315.07    9.40
  -1  -2  -2  325.87   11.40
   1   2  -2  358.86   16.80
   2  -1  -2  337.97   12.80
  -2   1  -2  325.87    9.70
   2  -1  -2  333.87   13.20
   1   2  -2  329.27   13.30
   2  -1  -2  315.67   13.40
  -1  -2  -2  338.47   11.70
  -2   1  -2  328.57   11.30
   1   2   2  328.27   10.40
   1   2   2  357.86   14.20
  -1  -2   2  337.27   12.60
  -2   1   2  309.47   13.60
  -1  -2   2  318.57   12.50
   2  -1   2  318.87   11.30
  -2   1   2  330.67   13.40
  -2   1   2  315.37   12.30
   1   2   2  336.17   10.20
   2  -2  -2   49.00    7.50
  -2  -2  -2   40.80    5.00
  -2  -2  -2   49.99    4.90
   2  -2  -2   52.09    7.90
   2  -2  -2   48.80    6.20
  -2   2  -2   52.09    4.90
  -2   2  -2   56.79    4.90
  -2  -2  -2   64.69    7.40
  -2   2  -2   46.40    4.30
   2   2  -2   45.20    7.00
   2   2  -2   42.20    6.10
  -2   2  -2   50.69    5.90
  -2   2   2   38.50    6.80
   2   2   2   45.10    3.80
   2  -2   2   59.29    4.20
   2  -2   2   46.70    3.40
   2  -2   2   52.49    4.60
   2   2   2   57.49    4.50
  -2  -2   2   54.99    6.90
   2   2   2   52.39    6.00
  -2  -2   2   50.09    7.10
  -2  -2   2   42.90    8.60
  -2   2   2   48.70    5.90
  -2   2   2   50.19    7.00
  -2   3  -2  108.49    9.80
   2  -3  -2   99.29    8.50
   2  -3  -2  122.49   11.00
  -2   3  -2  111.59    8.50
  -3  -2  -2  116.79    7.50
   2  -3  -2  114.79   12.10
   3   2  -2  121.99    9.60
   2  -3  -2  110.09    9.30
   3   2  -2  125.79   11.60
  -3  -2  -2  106.19    8.10
  -3  -2  -2  100.89    9.10
  -2   3  -2  111.39    8.60
   3   2   2  108.79    6.40
  -3  -2   2  116.09    9.50
   2  -3   2  115.29    8.20
  -2   3   2  119.49   10.80
  -3  -2   2  108.69   11.20
   3   2   2  120.29    6.10
   2  -3   2  105.29    6.70
   3   2   2  116.29    7.70
  -3  -2   2  107.59   11.20
   2  -3   2  108.69    6.70
  -2   3   2  113.09   10.20
  -1   3  -2 1992.50   54.19
  -1   3  -2 1991.30   50.49
   1  -3  -2 2030.90   51.99
  -3  -1  -2 1890.61   47.90
  -1   3  -2 1982.00   49.80
   1  -3  -2 1993.60   51.19
  -3  -1  -2 1885.71   47.00
   3   1  -2 1711.53   53.09
  -3  -1  -2 1938.61   48.10
   3   1  -2 2094.09   52.59
   1  -3  -2 1972.90   53.99
   3   1   2 1840.42   43.80
  -3  -1   2 1998.60   53.59
  -3  -1   2 1985.90   51.59
  -1   3   2 2026.40   50.29
   1  -3   2 1982.00   48.20
  -3  -1   2 2013.90   51.29
   3   1   2 1923.41   47.20
   1  -3   2 1931.11   49.80
   1  -3   2 1888.01   49.50
  -3   0  -2  112.29    6.20
   3   0  -2  104.89    9.40
   0   3  -2  114.79    9.10
   0  -3  -2  106.69   10.00
  -3   0  -2  114.89    5.10
   0  -3  -2  115.19    8.20
   3   0  -2  112.29   10.00
  -3   0  -2  117.49    5.70
   0   3  -2  108.99    8.60
   3   0  -2  114.19    8.80
   0   3  -2  118.49   10.70
   0  -3  -2  117.19    8.60
  -3   0   2  112.49    9.90
   0  -3   2  118.29    9.10
  -3   0   2  104.49   10.30
   0   3   2  117.09    7.40
   0  -3   2  114.19    7.50
   0   3   2  109.29    8.10
  -3   0   2  111.09    8.40
   0   3   2  110.49    9.90
  -3   1  -2 1955.50   46.60
  -1  -3  -2 1888.71   53.09
   3  -1  -2 2016.40   51.09
   3  -1  -2 1709.93   52.09
  -3   1  -2 1886.61   46.40
   3  -1  -2 1976.30   50.49
  -3   1  -2 1921.01   46.50
   3  -1  -2 1926.71   51.69
   1   3  -2 1858.51   52.69
  -1  -3  -2 1972.00   49.70
   1   3   2 1931.31   48.50
  -1  -3   2 1875.41   53.79
  -3   1   2 1832.72   53.29
   1   3   2 2014.30   48.60
  -3   1   2 1965.20   50.59
  -3   1   2 1973.60   50.09
   1   3   2 2063.89   53.39
   2   3  -2  109.59   11.80
   2   3  -2  101.19   10.90
  -2  -3  -2  112.59    9.40
  -2  -3  -2  108.39   11.70
  -3   2  -2  103.29    7.20
   3  -2  -2  122.29   11.00
   3  -2  -2  110.69   11.10
  -3   2  -2  105.29    7.40
  -2  -3  -2  102.89    8.30
   3  -2  -2  111.99    9.00
  -3   2  -2  124.99    7.40
   3  -2  -2  103.59   12.90
  -3   2  -2  110.19    5.40
   3  -2   2  119.89    5.70
  -3   2   2  120.89   10.80
  -3   2   2  124.79    9.20
  -3   2   2  106.09   10.40
   2   3   2  111.79    8.00
  -2  -3   2  113.59   11.30
  -2  -3   2  112.79   10.70
   3  -2   2  106.79    6.30
   2   3   2  110.29    7.50
   2   3   2   98.49    9.50
  -3   3  -2 2426.36   63.39
   3  -3  -2 2584.44   64.19
   3  -3  -2 2534.25   67.39
  -3   3  -2 2512.85   64.99
  -3  -3  -2 2507.55   67.59
   3  -3  -2 2570.54   66.39
   3   3  -2 2532.05   67.69
  -3   3  -2 2282.47   66.29
   3  -3  -2 2568.04   65.79
   3   3  -2 2586.04   66.99
  -3   3   2 2653.53   65.89
   3   3   2 2442.96   61.89
   3  -3   2 2601.44   61.19
   3   3   2 2638.74   66.99
  -3   3   2 2564.74   66.89
  -3  -3   2 2586.64   67.59
  -3   3   2 2572.44   64.49
  -3   3   2 2576.84   65.99
   3   3   2 2553.54   63.09
   3  -3   2 2468.25   62.59
  -3  -3   2 2540.35   66.39
   3  -3   2 2391.86   58.49
  -3   4  -2   86.69   10.70
  -4  -3  -2   91.99   12.60
   3  -4  -2  108.69   10.60
   4   3  -2  103.49    9.40
   4   3  -2   85.69   13.20
  -3   4  -2   95.39    9.40
  -4  -3  -2   80.99   12.00
   3  -4  -2  105.09   12.70
  -3   4  -2   89.49    9.80
   3  -4  -2  107.79   13.20
  -4  -3  -2   82.69    9.10
  -4  -3   2  106.89   13.10
   3  -4   2  103.19    6.20
  -3   4   2   93.89   10.40
   4   3   2   79.79    9.00
  -3   4   2   92.89   12.10
   4   3   2   86.19    9.00
   3  -4   2   94.29    8.20
  -3   4   2  104.49   10.40
  -4  -3   2   97.29   10.50
   3  -4   2   79.49   11.10
   4   2  -2   21.80    6.30
  -4  -2  -2   24.50    5.90
  -2   4  -2   19.70    7.50
  -2   4  -2   25.30    7.10
  -4  -2  -2   20.50    6.20
   4   2  -2   23.40    8.20
  -4  -2  -2   27.20    6.70
   2  -4  -2   29.40    7.40
   2  -4  -2   26.20    9.40
   2  -4  -2   24.50    5.30
  -2   4  -2   22.40    6.20
   4   2   2   20.50    4.70
  -2   4   2   19.90    6.00
  -4  -2   2   24.80    8.30
   4   2   2   29.30    4.60
  -2   4   2   25.10    6.10
   4   2   2   30.50    5.30
  -2   4   2   20.40    7.40
   2  -4   2   22.00    8.00
  -4  -2   2   30.40    6.70
   2  -4   2   26.70    5.20
   2  -4   2   24.40    5.20
   1  -4  -2  102.39    9.20
   1  -4  -2   95.49    9.90
  -1   4  -2  102.49   11.30
  -1   4  -2  108.69   12.40
  -1   4  -2   90.69    9.10
   1  -4  -2   98.49   13.20
  -4  -1  -2   91.99    8.40
   4   1  -2   87.89    9.10
   1  -4  -2  109.69   11.40
  -4  -1  -2   96.39    6.90
  -4  -1  -2   87.09    6.30
   4   1  -2  108.69   11.90
  -1   4   2  102.89   11.00
  -4  -1   2   98.29    9.50
   4   1   2  103.89    5.70
  -4  -1   2   92.09   11.20
   4   1   2   90.29    6.00
   4   1   2   97.49    5.30
  -4  -1   2   72.09   11.70
   1  -4   2   98.89   11.80
   1  -4   2  119.09    8.40
  -1   4   2  109.69    9.10
  -1   4   2   95.29    9.70
   4   0  -2   34.60    6.40
   0   4  -2   31.10    7.90
   4   0  -2   40.60    8.20
  -4   0  -2   34.80    5.40
   0  -4  -2   35.50    7.90
   0  -4  -2   40.60   10.20
   0   4  -2   32.60    6.70
   0   4  -2   45.60    9.20
   0  -4  -2   26.90    5.70
  -4   0  -2   29.40    4.80
   4   0   2   25.60    3.60
   4   0   2   33.90    3.60
  -4   0   2   37.00    7.90
  -4   0   2   30.50    7.50
   0   4   2   33.60    7.40
   0  -4   2   34.00    6.00
   0   4   2   32.90    6.00
  -4   0   2   37.70    6.50
   0   4   2   31.70    8.30
   0  -4   2   26.60    7.90
   4  -1  -2  103.89    8.70
   4  -1  -2  111.99    9.60
  -4   1  -2  102.39    8.10
   4  -1  -2   97.29   11.00
  -4   1  -2   96.99    6.90
  -1  -4  -2   94.19   10.80
   4  -1  -2  102.09   11.10
   1   4  -2   94.49   11.70
  -1  -4  -2   98.79   13.50
   1   4  -2  110.69   13.10
  -1  -4  -2   94.39    9.10
  -4   1  -2  105.79    6.20
   1   4  -2  105.79    9.90
   4  -1   2   97.59    5.60
   1   4   2   93.59   10.10
  -4   1   2   98.09   10.10
   4  -1   2   99.89    5.80
  -1  -4   2   85.29   11.70
  -4   1   2  101.29   11.00
   1   4   2  101.09   11.60
  -1  -4   2   95.19   11.10
   1   4   2  102.09    8.60
  -4   1   2   95.19    9.20
  -2  -4  -2   31.10    8.10
   2   4  -2   31.20    7.40
   4  -2  -2   29.00    6.40
  -4   2  -2   17.80    5.20
   2   4  -2   27.20    8.60
   4  -2  -2   29.90    8.30
   4  -2  -2   32.10    5.70
  -2  -4  -2   25.50    8.40
  -4   2  -2   27.50    2.90
   2   4  -2   20.80    6.40
   4  -2  -2   25.60    7.80
  -4   2  -2   36.80    6.00
  -2  -4  -2   17.50    5.60
  -4   2  -2   28.40    4.20
   2   4   2   29.20    7.80
   2   4   2   23.40    7.90
  -4   2   2   24.40    6.70
   2   4   2   30.40    5.60
  -4   2   2   22.60    7.70
   4  -2   2   21.90    3.80
   4  -2   2   25.10    4.90
  -2  -4   2   27.00    6.60
  -2  -4   2   20.90    8.20
   3   4  -2   78.09   12.90
  -4   3  -2   95.09    7.70
   4  -3  -2   98.19   10.00
   3   4  -2  100.09   10.80
   3   4  -2  109.59   12.80
  -3  -4  -2   80.19   11.40
   4  -3  -2   97.79   12.40
   4  -3  -2   92.99    8.70
  -3  -4  -2   75.29    9.30
  -3  -4  -2   88.49   13.20
   4  -3  -2   92.79   12.30
  -4   3  -2   98.79   10.50
  -4   3  -2   84.69    8.40
   3   4   2   88.39   11.30
  -3  -4   2   89.19   10.30
   3   4   2   99.39   11.50
  -4   3   2   99.59   11.20
  -3  -4   2   92.89   12.30
   4  -3   2   87.79   14.20
   4  -3   2   88.19    7.30
  -4   3   2   96.49    9.90
   3   4   2  113.29   10.00
  -4   3   2   96.39   12.30
   4   4  -2   17.60    8.30
  -4  -4  -2    0.20    8.30
  -4  -4  -2    4.00    7.20
  -4   4  -2    3.80    5.10
   4  -4  -2    5.50    6.20
   4  -4  -2   -4.10    8.00
  -4   4  -2    3.70    5.30
   4   4  -2   14.90    6.90
  -4   4  -2   -2.00    6.30
  -4  -4  -2   13.20    6.50
   4   4  -2   -8.10    7.50
   4  -4  -2   -4.00    5.50
  -4   4   2    1.50    5.80
   4   4   2   11.30    7.70
  -4  -4   2   14.40    9.20
  -4   4   2    4.80    4.60
   4  -4   2    6.30    4.50
  -4   4   2   -2.90    6.70
   4   4   2   11.00    6.80
  -4  -4   2    6.50    6.50
   4  -4   2   14.60    7.20
   4   4   2    5.30    8.90
  -4   5  -2   99.69   12.30
  -5  -4  -2   91.69   11.70
   4  -5  -2   92.19   15.80
   5   4  -2  127.99   12.80
  -5  -4  -2  114.99   14.40
  -4   5  -2  106.39   15.00
   4  -5  -2  108.19   11.40
   4  -5  -2   95.69   14.90
  -5  -4  -2   88.59   15.50
   5   4  -2  104.59   16.20
  -4   5  -2  108.79   11.20
   5   4  -2  113.79   13.90
   4  -5  -2  100.89   10.80
   4  -5   2  100.19   13.50
  -5  -4   2   99.19   12.10
  -4   5   2  102.39   14.30
   5   4   2   95.99   12.10
  -5  -4   2  107.49   15.80
   4  -5   2  116.49   10.70
   4  -5   2   89.19    4.90
  -4   5   2   93.79   12.20
  -4   5   2   89.19   11.60
   5   4   2  113.49   12.50
   5   4   2  118.79   12.70
   3  -5  -2 1397.76   41.10
  -3   5  -2 1410.26   42.90
   3  -5  -2 1377.86   43.10
   5   3  -2 1323.47   43.30
  -3   5  -2 1397.66   42.70
   3  -5  -2 1437.46   47.60
  -3   5  -2 1398.06   45.20
   5   3  -2 1349.86   45.30
  -5  -3  -2 1389.26   43.00
  -5  -3  -2 1389.76   43.20
  -5  -3  -2 1398.86   41.40
   3  -5  -2 1335.67   43.50
  -3   5   2 1400.96   45.50
   5   3   2 1387.46   39.20
  -5  -3   2 1329.57   43.30
   3  -5   2 1363.36   39.80
  -5  -3   2 1401.36   45.90
   3  -5   2 1347.47   36.80
   3  -5   2 1367.06   42.60
   5   3   2 1429.96   41.00
   5   3   2 1438.86   42.10
  -3   5   2 1383.36   44.10
  -3   5   2 1393.96   43.20
  -5  -2  -2  179.98   11.10
  -2   5  -2  174.98   13.80
  -2   5  -2  165.08   15.00
   5   2  -2  195.78   13.30
   2  -5  -2  166.98   15.10
   2  -5  -2  160.38   17.20
  -2   5  -2  154.68   12.10
   2  -5  -2  175.28   12.70
   2  -5  -2  166.88   12.10
  -5  -2  -2  144.89   13.40
  -5  -2  -2  185.38   11.50
   5   2  -2  170.88   15.40
   5   2   2  155.68    9.50
   5   2   2  153.88   10.80
  -5  -2   2  152.98   15.00
  -2   5   2  171.38   14.40
   2  -5   2  172.38   11.90
  -5  -2   2  171.78   12.90
   2  -5   2  167.18   14.90
  -2   5   2  156.78   12.10
  -2   5   2  172.78   14.60
  -5  -2   2  160.48   16.70
  -1   5  -2 2883.91   74.79
  -5  -1  -2 2857.21   71.69
  -1   5  -2 2810.22   79.29
   5   1  -2 2758.52   73.49
   5   1  -2 2776.32   74.49
  -5  -1  -2 2749.32   69.69
   1  -5  -2 2752.22   77.99
   1  -5  -2 2765.12   73.99
   1  -5  -2 2854.31   73.89
  -1   5  -2 2844.52   74.09
   5   1   2 2766.92   68.59
   5   1   2 2678.63   66.69
   1  -5   2 2801.62   74.19
  -1   5   2 2875.31   78.29
  -1   5   2 2817.22   74.09
  -1   5   2 2833.82   73.49
  -5  -1   2 2826.02   74.79
  -5  -1   2 2783.62   75.39
  -5  -1   2 2781.72   73.49
   1  -5   2 2812.42   71.39
   0   5  -2  116.19   11.50
   0   5  -2   94.29   13.80
  -5   0  -2  106.49   16.00
   0  -5  -2   86.09   10.30
   5   0  -2  111.99   10.60
   0  -5  -2   98.59   13.00
   5   0  -2  102.29   13.20
   0   5  -2   92.49   12.20
  -5   0  -2  116.99    8.80
   0  -5  -2   99.09   12.60
   0  -5   2  107.49    9.70
  -5   0   2  129.39   12.60
   0   5   2  114.09   12.10
  -5   0   2  121.19   10.70
  -5   0   2  114.99   13.10
   5   0   2  106.19    7.80
   0  -5   2  101.99   13.40
   0   5   2  116.29   11.30
   5   0   2  121.89    7.80
   0   5   2  127.89   11.90
  -5   1  -2 2823.12   66.49
  -1  -5  -2 2602.24   78.09
  -1  -5  -2 2804.22   73.79
   1   5  -2 2763.62   74.49
  -5   1  -2 2826.12   70.39
   1   5  -2 2818.12   80.39
   5  -1  -2 2842.72   73.19
  -5   1  -2 2845.82   69.59
   5  -1  -2 2868.21   74.39
   1   5  -2 2779.82   75.09
   5  -1  -2 2786.62   73.09
  -1  -5  -2 2754.12   73.99
  -1  -5   2 2789.12   75.29
  -5   1   2 2756.02   71.49
  -5   1   2 2764.12   72.89
   5  -1   2 2741.43   67.39
  -5   1   2 2817.92   73.89
   1   5   2 2788.62   78.59
   1   5   2 2773.62   72.59
   1   5   2 2865.51   73.09
  -1  -5   2 2864.61   73.49
   5  -1   2 2784.12   67.39
   5  -2  -2  162.78   12.20
  -2  -5  -2  154.98   14.40
  -5   2  -2  166.08    5.80
  -2  -5  -2  158.88   17.30
  -5   2  -2  180.98   11.20
   2   5  -2  166.98   12.40
  -5   2  -2  167.78   13.20
   2   5  -2  173.58   14.60
   5  -2  -2  185.18   15.00
   2   5  -2  171.88   17.80
   5  -2  -2  167.48   13.90
  -5   2   2  162.88   12.30
   2   5   2  167.78   12.50
   5  -2   2  185.28   11.70
  -5   2   2  160.68   14.60
  -5   2   2  171.88   12.50
  -2  -5   2  168.28   16.00
   2   5   2  145.79   15.10
   5  -2   2  156.48    9.30
   2   5   2  168.98   13.70
  -5   3  -2 1368.96   41.10
  -3  -5  -2 1339.47   43.80
   5  -3  -2 1379.56   44.10
  -3  -5  -2 1370.56   42.90
  -5   3  -2 1383.26   35.70
   3   5  -2 1352.76   48.60
   5  -3  -2 1364.26   43.40
   5  -3  -2 1304.17   42.50
   5  -3  -2 1367.96   42.60
  -5   3  -2 1454.25   40.90
   3   5  -2 1373.06   46.10
   3   5  -2 1330.57   44.30
  -3  -5  -2 1340.27   48.70
   5  -3   2 1402.16   38.10
   3   5   2 1448.85   43.20
   3   5   2 1374.96   42.00
  -3  -5   2 1415.16   46.70
  -5   3   2 1408.46   44.30
  -5   3   2 1335.47   42.30
   3   5   2 1450.95   48.40
  -3  -5   2 1348.97   43.40
   5  -3   2 1410.66   40.20
  -5   3   2 1425.26   40.30
   4   5  -2  110.49   12.30
   4   5  -2  128.29   13.30
  -5   4  -2   92.09    8.80
   5  -4  -2   71.69   10.60
  -4  -5  -2   97.79   14.30
  -5   4  -2  101.59   12.80
  -4  -5  -2   94.79   15.60
   5  -4  -2   96.99   11.50
   4   5  -2  106.19   13.80
  -4  -5  -2   83.19   10.90
   5  -4  -2  106.89   12.80
   5  -4  -2   84.69   13.60
  -5   4  -2   92.29   10.20
   4   5   2  101.29   13.20
   4   5   2   98.09   12.60
  -4  -5   2  104.89   16.80
  -5   4   2  108.49   15.00
   4   5   2  103.29   14.10
  -4  -5   2   94.39   12.00
   5  -4   2  130.09   15.20
   5  -4   2   96.29   11.30
  -5   4   2  112.99   11.60
  -5   5  -2 1654.73   50.49
   5  -5  -2 1713.43   47.40
  -5  -5  -2 1757.12   54.69
   5  -5  -2 1691.23   55.59
   5   5  -2 1599.24   56.49
  -5   5  -2 1692.73   51.39
  -5  -5  -2 1695.43   56.69
   5   5  -2 1661.23   54.79
   5  -5  -2 1670.03   53.09
  -5   5  -2 1669.03   49.10
  -5  -5  -2 1660.23   51.59
  -5  -5   2 1723.03   56.69
   5   5   2 1686.83   56.29
   5   5   2 1651.93   49.40
  -5   5   2 1703.23   52.39
   5  -5   2 1686.03   50.79
   5   5   2 1803.92   52.39
  -5   5   2 1599.14   51.69
  -5   5   2 1700.13   53.89
   5  -5   2 1712.53   49.10
  -5  -5   2 1605.54   52.29
  -6  -5  -2   32.60    9.40
  -5   6  -2   52.89    9.50
  -5   6  -2   59.79   12.30
   5  -6  -2   48.90   14.80
   6   5  -2   50.59   12.70
  -6  -5  -2   52.79   15.00
   6   5  -2   57.49   15.70
  -5   6  -2   47.70    9.60
  -6  -5  -2   51.49   12.70
   5  -6  -2   42.10   13.30
   5  -6  -2   50.39    8.60
  -5   6   2   38.10   12.50
   6   5   2   34.80   10.80
  -6  -5   2   43.60   14.00
   5  -6   2   56.79   12.50
   6   5   2   43.20   12.10
  -5   6   2   55.59   11.30
  -5   6   2   50.89   14.30
  -6  -5   2   17.60   12.90
   5  -6   2   63.69   10.20
   6   5   2   37.10    9.90
   5  -6   2   51.99   16.10
   4  -6  -2   14.30    7.10
   6   4  -2    7.00    9.00
   6   4  -2   20.70   11.00
  -6  -4  -2   15.60   10.70
  -6  -4  -2   23.00    7.90
   4  -6  -2   15.10   10.90
  -4   6  -2   33.90   10.90
   4  -6  -2   19.10   11.90
  -4   6  -2   40.40   10.90
  -4   6  -2   24.70    8.00
  -6  -4  -2   26.40   11.20
   6   4  -2   27.40   10.00
   4  -6   2    8.80   12.40
  -6  -4   2   28.20    9.00
   6   4   2   28.80    9.70
   6   4   2   14.70    8.10
   6   4   2   36.00    9.60
   4  -6   2   19.10   10.40
  -6  -4   2   -2.70   12.30
  -4   6   2   18.60   11.00
   4  -6   2   12.80    3.80
  -4   6   2   17.40    7.90
  -4   6   2   19.20    9.90
   4  -6   2   32.10    7.20
   3  -6  -2  161.68   13.70
  -3   6  -2  145.39   15.90
  -3   6  -2  168.28   14.20
   3  -6  -2  144.09   13.10
   3  -6  -2  144.99   18.90
  -6  -3  -2  128.89   15.30
  -6  -3  -2  146.99   12.70
   3  -6  -2  152.18   17.10
   6   3  -2  141.39   17.60
   6   3  -2  171.48   14.50
  -3   6  -2  152.08   15.90
   3  -6   2  160.78   18.50
   6   3   2  150.38   12.20
  -3   6   2  162.98   17.10
   6   3   2  163.88   13.80
   3  -6   2  123.49   20.50
  -3   6   2  165.38   15.50
  -6  -3   2  148.49   18.10
  -6  -3   2  158.98   13.90
  -3   6   2  157.88   14.20
   6   3   2  138.19   14.70
   3  -6   2  146.89   12.00
   2  -6  -2    9.60   11.90
   2  -6  -2   39.10    8.40
  -6  -2  -2    8.70    8.80
  -2   6  -2   19.80    9.40
  -2   6  -2   34.20    9.90
   6   2  -2   21.00    6.70
  -6  -2  -2   16.00    6.30
  -2   6  -2   25.70    8.20
   6   2  -2   19.40   10.20
   2  -6  -2   13.20    8.80
   2  -6  -2   28.40    6.90
  -2   6   2   19.50    7.30
  -2   6   2    9.50    9.60
   6   2   2   24.90    4.90
  -6  -2   2   25.70   11.80
   2  -6   2   23.60    9.00
  -6  -2   2   15.80   10.20
   2  -6   2   25.90    7.10
   6   2   2   18.10    6.50
  -6  -2   2   19.60    7.40
  -2   6   2    9.60    9.00
   6   2   2   15.10    6.80
   1  -6  -2  159.38   16.60
  -1   6  -2  168.08   17.10
   6   1  -2  177.18   13.10
   1  -6  -2  165.98   16.70
   1  -6  -2  137.69   12.60
  -6  -1  -2  169.58   11.60
  -6  -1  -2  161.98   14.80
   6   1  -2  159.88   15.70
  -1   6  -2  135.09   13.40
  -6  -1   2  134.89   12.20
  -1   6   2  154.18   13.20
   1  -6   2  130.49   15.30
  -6  -1   2  160.28   16.70
   6   1   2  163.88   11.70
   6   1   2  165.28   11.10
   6   1   2  153.68    5.30
  -6  -1   2  154.48   15.60
   1  -6   2  151.38   12.90
  -1   6   2  151.48   13.90
   6   0  -2   10.60    8.60
   0  -6  -2    4.40    8.40
   0  -6  -2   17.70    7.00
   6   0  -2   15.50    6.30
  -6   0  -2    4.20    4.60
   0   6  -2    9.40    7.90
   0  -6  -2    9.40    8.80
  -6   0  -2    7.00    7.50
   0   6  -2   28.90    9.80
   0   6  -2   19.00    6.70
  -6   0   2   14.10    6.20
  -6   0   2    8.30    9.00
   6   0   2   13.60    5.10
   0   6   2    9.80   11.80
   0  -6   2    2.20    8.70
  -6   0   2   19.70    8.40
   0   6   2    6.90    6.40
   0   6   2    1.20    6.50
   0  -6   2    6.20    6.00
   1   6  -2  152.58   13.90
   6  -1  -2  144.79   11.20
   6  -1  -2  145.29   15.40
   1   6  -2  149.88   14.30
  -6   1  -2  170.68   14.30
  -6   1  -2  157.48   10.80
  -1  -6  -2  151.08   16.50
  -1  -6  -2  156.08   15.60
   6  -1  -2  168.78   15.00
  -1  -6  -2  165.78   13.90
   1   6  -2  148.39   16.80
  -1  -6   2  133.59   16.10
   1   6   2  168.58   15.00
  -1  -6   2  146.89   13.10
   6  -1   2  160.48   10.40
   1   6   2  150.18   13.80
   1   6   2  178.08   16.90
  -6   1   2  150.38   12.80
   6  -1   2  174.68   12.30
  -6   1   2  142.39   13.70
  -6   1   2  163.08   15.70
   2   6  -2   31.60   10.70
  -2  -6  -2    9.00   12.30
  -2  -6  -2   11.60    7.30
   6  -2  -2   18.40    6.80
   2   6  -2   10.50    7.80
  -2  -6  -2   30.80   10.40
  -6   2  -2   23.70    6.50
   6  -2  -2   19.40    9.10
  -6   2  -2   23.80    2.60
  -6   2  -2   31.60    8.10
   2   6  -2   30.30   10.80
   6  -2  -2   31.30   10.30
  -2  -6   2    9.70    6.90
  -2  -6   2   -1.80    8.90
   2   6   2   34.00    8.30
  -6   2   2   20.30    9.80
   6  -2   2   24.60    5.70
   2   6   2    8.20    8.10
   6  -2   2   15.80    7.20
  -6   2   2   22.70    8.00
   2   6   2   10.90    7.70
  -6   2   2   15.40    6.80
  -3  -6  -2  138.69   13.80
  -3  -6  -2  120.19   18.90
  -6   3  -2  148.59   14.20
   6  -3  -2  133.79   11.20
  -3  -6  -2  186.38   17.90
  -6   3  -2  164.08   12.10
   3   6  -2  143.59   17.90
   3   6  -2  152.28   17.60
   6  -3  -2  172.58   17.50
   3   6  -2  123.89   14.70
   6  -3  -2  137.09   12.90
   6  -3  -2  159.08   15.10
  -6   3  -2  156.48    6.50
   3   6   2  149.99   14.70
  -3  -6   2  145.89   18.40
  -6   3   2  142.89   11.80
  -6   3   2  147.49   16.90
   6  -3   2  163.18   13.90
  -3  -6   2  163.18   14.70
   3   6   2  120.79   15.00
   3   6   2  157.38   15.40
  -6   3   2  168.58   13.20
  -4  -6  -2   19.10   11.50
  -4  -6  -2    3.90   12.40
  -6   4  -2   18.10    9.40
   6  -4  -2   12.70    6.50
   6  -4  -2   30.00   11.80
   6  -4  -2   21.30    6.40
   4   6  -2   18.60   12.60
  -6   4  -2   18.60    4.90
   4   6  -2   42.20    9.60
  -4  -6  -2   24.40    8.60
  -6   4  -2   23.00    7.60
   4   6  -2    0.00    8.30
   6  -4  -2   19.40   10.60
   6  -4   2   16.60    6.10
  -4  -6   2   24.90   12.20
   4   6   2   13.00    8.20
  -4  -6   2   -2.00    8.50
  -6   4   2    4.90    7.90
   4   6   2   28.30   12.30
   6  -4   2    9.80    8.10
  -6   4   2   10.80   10.60
   4   6   2   16.50   11.30
   6  -5  -2   42.10   12.90
  -6   5  -2   39.20   12.20
   5   6  -2   64.69   15.10
  -5  -6  -2   60.69   14.90
   6  -5  -2   56.49   15.00
   6  -5  -2   37.00    7.90
   5   6  -2   76.39   13.50
  -5  -6  -2   47.90   10.50
  -5  -6  -2   59.39   16.10
  -6   5  -2   36.70   10.00
   6  -5   2   39.30    8.60
   6  -5   2   60.99   11.90
   5   6   2   49.70   11.30
  -5  -6   2   53.89   12.30
   5   6   2   50.49   11.30
   5   6   2   62.19   18.10
  -5  -6   2   39.90   13.90
  -6   5   2   42.70   13.70
  -6  -6  -2    6.70   13.80
  -6   6  -2    6.50    7.80
   6   6  -2   41.10   13.30
  -6   6  -2   16.70   12.30
   6  -6  -2   -7.30   12.90
  -6  -6  -2   21.90   18.10
   6  -6  -2   21.50    7.10
   6   6  -2    8.60   13.60
   6  -6  -2   -0.40   12.40
   6  -6   2    2.10   10.80
   6   6   2   19.60   11.20
   6  -6   2   19.00    8.40
   6   6   2   25.60   11.70
   6   6   2   23.60   13.40
  -6   6   2    1.00    9.70
  -6  -6   2    1.70   14.20
  -6   6   2    4.60   12.50
   6  -7  -2   26.20    8.40
   6  -7  -2   32.80   15.40
  -7  -6  -2   50.29   16.50
   7   6  -2   24.20   14.20
   6  -7  -2   35.70   17.90
  -6   7  -2   32.20   11.60
  -6   7  -2   26.00   14.60
  -7  -6   2   23.30   16.70
   7   6   2   30.90   13.30
   6  -7   2   35.80   14.30
   7   6   2   29.20   12.50
   6  -7   2   57.59   10.30
  -6   7   2   41.00   16.30
   7   6   2   16.60   15.00
   7   5  -2  560.14   31.20
   5  -7  -2  546.25   34.40
  -5   7  -2  565.44   28.10
  -5   7  -2  570.84   30.90
  -7  -5  -2  580.44   32.30
   7   5  -2  574.24   32.80
   5  -7  -2  551.94   32.50
   5  -7  -2  560.24   23.80
  -5   7   2  587.84   32.40
  -5   7   2  510.35   29.80
  -7  -5   2  581.44   34.70
   5  -7   2  619.54   30.30
   5  -7   2  531.15   33.70
   7   5   2  552.24   29.90
   5  -7   2  548.65   24.60
   7   5   2  576.34   28.80
   7   5   2  568.74   26.70
  -4   7  -2   95.79   16.50
   4  -7  -2   96.89   19.80
  -4   7  -2   98.79   15.80
   4  -7  -2   82.59   11.60
   7   4  -2  110.19   16.40
  -7  -4  -2   83.29   15.50
   7   4  -2   94.99   16.30
  -7  -4  -2   99.39   13.50
   4  -7  -2   91.89   14.90
  -4   7  -2   87.09   14.60
   4  -7   2   81.79   14.00
   4  -7   2   64.79   19.60
   4  -7   2   86.79   10.00
   7   4   2  100.29   14.80
  -4   7   2   76.29   16.00
  -4   7   2   75.09   14.60
  -7  -4   2   81.09   17.80
   4  -7   2   88.79   12.10
   7   4   2   86.39   12.20
   7   4   2   76.59   13.40
   3  -7  -2 1392.86   49.50
  -7  -3  -2 1423.56   48.10
   7   3  -2 1433.06   50.09
  -3   7  -2 1424.26   48.00
   3  -7  -2 1401.66   54.09
  -3   7  -2 1421.36   50.59
   7   3  -2 1292.77   46.80
  -7  -3  -2 1376.36   44.60
   3  -7  -2 1389.86   44.20
  -3   7  -2 1430.36   48.60
   3  -7   2 1379.76   44.30
  -3   7   2 1406.66   51.09
   7   3   2 1485.25   46.40
   3  -7   2 1463.25   57.59
  -7  -3   2 1379.26   49.40
  -3   7   2 1382.16   47.70
  -3   7   2 1394.36   48.80
   3  -7   2 1415.66   48.40
   7   3   2 1433.56   42.50
   7   3   2 1475.75   43.00
   2  -7  -2   78.59   14.70
  -2   7  -2   71.79   13.60
   2  -7  -2   83.49   12.00
  -2   7  -2   81.19   13.00
   7   2  -2   87.29   13.00
  -7  -2  -2   76.49   13.40
  -7  -2  -2   70.49   11.00
  -2   7  -2   97.89   15.10
   2  -7  -2   65.19   17.30
   7   2  -2   88.79   15.30
   2  -7   2  112.79   18.10
   7   2   2   77.49    7.00
  -2   7   2   79.19   11.30
   2  -7   2   71.69   10.40
   7   2   2   93.49   11.90
  -7  -2   2   84.39   11.80
  -2   7   2   55.39   12.70
  -7  -2   2   95.39   15.60
  -2   7   2   75.09   14.20
   7   2   2   80.09   11.90
  -7  -2   2   69.29   15.80
   1  -7  -2  804.12   35.30
   7   1  -2  857.21   32.40
  -7  -1  -2  796.22   29.40
  -1   7  -2  854.61   33.80
  -7  -1  -2  900.01   47.80
  -1   7  -2  889.01   38.10
   1  -7  -2  792.12   39.90
   7   1  -2  868.91   35.60
  -7  -1   2  856.71   35.10
  -7  -1   2  791.52   32.00
   1  -7   2  892.91   31.90
   1  -7   2  879.01   36.00
  -1   7   2  809.42   33.00
   7   1   2  910.91   28.90
  -7  -1   2  877.81   36.50
   0  -7  -2   99.19   15.40
  -7   0  -2  122.19   18.40
   7   0  -2  117.99   12.70
   0   7  -2   91.39   13.60
  -7   0  -2  108.19   10.40
   0   7  -2  104.19   17.10
   7   0  -2  107.29   16.00
   0  -7  -2  104.19   19.70
   0   7  -2  110.99   14.10
   0  -7  -2   83.29   12.60
  -7   0   2  105.19   16.00
   0  -7   2  116.29   12.30
   7   0   2  121.59   12.60
   0  -7   2   98.29   15.60
   0   7   2  125.09   16.20
   0   7   2  109.09   13.10
   7   0   2  108.89   11.00
  -7   0   2  124.19   14.90
  -7   0   2  107.39   12.50
   1   7  -2  889.51   36.50
   7  -1  -2  872.41   34.00
  -1  -7  -2  806.82   38.60
   7  -1  -2  862.41   32.10
  -1  -7  -2  830.92   35.50
   1   7  -2  806.52   33.90
  -7   1  -2  872.91   44.80
   1   7  -2  847.12   37.70
  -1  -7  -2  844.52   32.80
  -7   1  -2  842.02   29.50
   7  -1  -2  802.52   31.80
  -7   1   2  869.11   31.10
   1   7   2  887.81   34.70
  -1  -7   2  876.71   33.10
  -1  -7   2  889.71   37.20
  -7   1   2  808.52   31.60
   7  -1   2  911.61   29.20
   1   7   2  904.21   34.00
   7  -1   2  740.03   35.20
  -7   1   2  865.41   35.20
   1   7   2  875.21   39.30
  -7   2  -2   82.49    4.00
  -2  -7  -2   92.99   12.80
   7  -2  -2   85.79   11.90
  -2  -7  -2   67.89   17.60
  -7   2  -2   74.49   12.10
  -7   2  -2   71.29    9.80
  -2  -7  -2   82.09   14.70
   7  -2  -2   75.69   12.80
   7  -2  -2   91.59   14.50
   2   7  -2   82.59   14.70
   2   7   2   84.09   12.60
   2   7   2   83.29   14.70
  -7   2   2   80.99   13.10
  -2  -7   2  102.49   12.60
   2   7   2   85.99   13.80
  -7   2   2   95.89   12.50
   7  -2   2   71.29   10.30
  -2  -7   2   93.59   16.10
  -7   3  -2 1420.26   44.30
   7  -3  -2 1380.26   48.70
   7  -3  -2 1500.75   47.20
   7  -3  -2 1353.86   46.70
  -3  -7  -2 1369.76   55.29
  -7   3  -2 1446.06   46.50
   3   7  -2 1385.46   50.99
  -3  -7  -2 1453.25   50.49
  -7   3   2 1445.86   49.60
   7  -3   2 1455.85   43.50
  -3  -7   2 1438.36   51.99
   7  -3   2 1420.86   42.20
   3   7   2 1413.36   47.70
   3   7   2 1456.35   48.70
   3   7   2 1472.65   55.39
  -7   3   2 1337.97   46.40
   7  -4  -2  109.89   17.20
   7  -4  -2   82.99   14.50
  -4  -7  -2   82.89   15.90
  -7   4  -2   89.09   12.20
   4   7  -2   98.99   18.30
  -7   4  -2  101.19   16.10
  -4  -7  -2   88.29   19.20
  -7   4   2  104.49   16.50
   4   7   2  104.29   17.50
  -4  -7   2   71.89   17.00
   7  -4   2   83.99   11.70
   4   7   2   87.29   15.00
  -7   4   2   97.99   12.80
   7  -4   2   94.29   15.40
   4   7   2   93.89   14.90
  -7   5  -2  576.64   20.70
  -5  -7  -2  594.74   33.70
   5   7  -2  562.24   33.40
  -7   5  -2  554.14   29.10
   7  -5  -2  558.64   30.30
  -5  -7  -2  586.74   35.40
   7  -5  -2  567.34   31.40
   7  -5  -2  555.64   22.10
   5   7   2  502.75   33.10
  -5  -7   2  558.64   35.10
   7  -5   2  587.94   27.60
   5   7   2  562.34   29.00
  -7   5   2  547.15   29.50
   7  -5   2  615.44   24.70
   5   7   2  573.64   30.10
   7  -6  -2   56.59   16.10
   7  -6  -2   49.20   16.10
   6   7  -2   53.49   17.40
  -6  -7  -2   34.90   18.30
   7  -6  -2   43.80    8.00
  -7   6  -2   45.30   10.60
  -6  -7  -2   48.30   16.40
  -7   6  -2   41.80   14.20
   7  -6   2   31.30    9.90
   6   7   2   44.90   13.70
  -6  -7   2   52.69   16.70
  -7   6   2   39.30   15.50
   6   7   2   20.60   13.30
   7  -6   2   38.20   13.20
  -7   7  -2  840.72   39.20
   7  -7  -2  819.62   42.80
   7  -7  -2  866.31   43.50
   7  -7  -2  863.91   30.50
  -7  -7  -2  936.41   45.20
   7   7  -2  893.91   46.00
  -7   7  -2  931.71   42.50
  -7  -7   2  937.61   47.20
   7   7   2  880.41   38.80
   7  -7   2  935.41   35.10
  -7   7   2  854.91   43.40
   7  -7   2  937.91   40.50
   7   7   2  939.71   38.70
  -8  -7  -2   54.19   21.60
  -7   8  -2   67.59   19.90
   7  -8  -2   50.89   10.00
   8   7  -2   57.39   21.90
   7  -8  -2   56.09   20.10
  -7   8  -2   71.89   14.70
   7  -8  -2   47.90   20.00
  -8  -7   2   31.90   21.10
   8   7   2   61.19   16.10
  -7   8   2   34.30   18.20
   7  -8   2   79.79   17.90
   8   7   2   53.19   21.10
   6  -8  -2   33.10   18.60
   6  -8  -2   52.09   18.20
  -8  -6  -2    4.20   15.60
   8   6  -2   25.70   17.20
  -6   8  -2   15.20   14.20
   6  -8  -2   25.90    8.70
  -6   8  -2   35.40   17.40
   6  -8   2   53.89   16.60
   8   6   2   31.30   13.70
  -8  -6   2    0.10   19.10
   6  -8   2   38.50   14.20
  -6   8   2   48.50   17.60
   8   6   2   30.30   17.20
   8   6   2    9.90   15.00
  -5   8  -2   77.99   14.30
  -5   8  -2   51.99   15.70
   5  -8  -2   38.10   17.10
   8   5  -2   68.19   18.60
   5  -8  -2   42.50   10.10
   5  -8  -2   66.19   20.50
  -8  -5  -2   40.00   15.20
   8   5   2   77.49   14.20
   5  -8   2   38.70    5.50
   5  -8   2   28.90   19.50
   5  -8   2   74.79   17.40
  -8  -5   2   45.30   19.50
  -5   8   2   34.80   16.60
   5  -8   2   61.39   13.40
   8   5   2   44.40   13.10
   8   5   2   50.69   13.30
   4  -8  -2   27.70   18.80
   8   4  -2   44.90   15.40
   4  -8  -2   60.89   15.90
  -8  -4  -2   57.69   15.50
   4  -8  -2   24.00    9.70
  -4   8  -2   53.19   15.40
  -4   8  -2   43.10   14.80
  -8  -4   2   40.90   16.90
   8   4   2   57.09   11.50
   8   4   2   76.79   12.90
   4  -8   2   60.99   20.80
   4  -8   2   80.09   12.40
   4  -8   2   25.30   18.80
  -4   8   2   50.89   15.60
   8   4   2   52.09   11.80
   3  -8  -2   32.70   14.50
   3  -8  -2   39.60   15.30
   8   3  -2   28.50   14.40
   8   3  -2   59.79   13.00
  -3   8  -2   78.49   15.60
  -3   8  -2   35.50   14.50
  -8  -3  -2   40.00   13.20
   3  -8  -2   47.70   10.20
   8   3   2   41.60    8.50
   3  -8   2   63.89   14.40
  -8  -3   2   30.20   16.80
   3  -8   2   25.60    9.90
   8   3   2   48.90   10.50
   3  -8   2    7.00   19.50
   8   3   2   33.50   10.50
  -8  -3   2   38.00   16.10
  -3   8   2   28.70   13.70
  -2   8  -2   11.60   14.00
   2  -8  -2   -5.00   12.30
   2  -8  -2   -3.90   10.40
  -8  -2  -2  -13.50    9.40
  -8  -2  -2   -6.70    8.30
   8   2  -2    3.20   13.00
   8   2   2   -4.20    8.20
   8   2   2    3.20    3.40
   2  -8   2   -9.70    8.30
   8   2   2    8.90    8.30
   2  -8   2    8.30   11.90
  -8  -2   2  -12.40   12.60
  -8  -2   2    4.50   13.00
   8   1  -2   17.20   13.00
   1  -8  -2    8.40   12.60
  -8  -1  -2   35.80   12.00
   1  -8  -2   19.30   13.40
  -1   8  -2   27.90   15.90
  -8  -1  -2   36.40    8.40
  -1   8  -2   20.70   13.10
  -1   8   2   18.10   13.10
  -1   8   2   -8.40   11.10
   8   1   2   19.20    8.20
  -8  -1   2   16.90   11.90
   8   1   2   28.90    8.60
   1  -8   2   25.60    9.30
   1  -8   2   21.70   13.10
  -8  -1   2    3.90   12.20
   0  -8  -2  201.58   26.80
  -8   0  -2  202.28   15.00
  -8   0  -2  222.88   19.30
   0  -8  -2  215.98   23.20
   0   8  -2  195.18   21.30
   0   8  -2  232.78   25.20
   8   0  -2  219.88   22.20
   0   8   2  164.08   19.70
  -8   0   2  179.58   18.80
   0   8   2  202.38   21.40
   8   0   2  225.68   15.60
   0  -8   2  239.38   24.00
  -8   0   2  236.28   22.70
   0  -8   2  184.58   17.50
  -8   1  -2   34.30    8.80
   8  -1  -2   36.60   13.50
   8  -1  -2   32.50    9.80
  -8   1  -2   24.20   10.70
  -1  -8  -2   14.90   13.50
   1   8  -2   46.00   14.40
  -1  -8  -2   15.70   13.10
  -1  -8   2   21.70   10.40
   1   8   2   19.10   12.30
  -1  -8   2   17.40   13.50
   8  -1   2   29.50    8.50
   8  -1   2   14.30    7.50
  -8   1   2   26.40   10.40
  -8   1   2   28.30   13.10
   1   8   2   15.00   11.00
  -8   2  -2    1.30    9.80
  -2  -8  -2   -1.00   13.00
   8  -2  -2   13.60    9.20
   2   8  -2   26.30   13.90
   8  -2  -2   -0.10   11.90
  -8   2  -2    2.50    1.70
  -8   2  -2   13.40    8.80
  -2  -8  -2   -9.90   14.70
   2   8   2    1.40   10.70
  -8   2   2    5.80    8.20
   8  -2   2    5.10    7.40
   8  -2   2    0.80    7.80
  -2  -8   2  -17.90   13.20
  -8   2   2    9.80   12.40
   2   8   2   -1.60   11.40
  -2  -8   2   17.90   14.80
   8  -3  -2   32.90   14.20
  -3  -8  -2   45.30   18.80
   3   8  -2   42.50   16.30
  -8   3  -2   34.30   12.10
  -3  -8  -2   60.09   16.00
  -8   3  -2   39.90   10.90
   8  -3  -2   39.70   12.60
   3   8   2   53.09   15.50
  -3  -8   2   51.39   15.30
   3   8   2   37.10   12.20
   8  -3   2   37.00    8.80
   8  -3   2   33.10   10.30
  -8   3   2   38.50   14.40
  -8   3   2   42.30    9.60
   8  -4  -2   71.09   16.60
  -8   4  -2   55.29   14.10
   4   8  -2   17.20   14.30
   8  -4  -2   75.79   14.60
  -4  -8  -2   48.20   16.50
  -4  -8  -2   50.29   19.40
   8  -4   2   60.79   12.30
  -8   4   2   53.79   10.10
   8  -4   2   45.90    9.50
   4   8   2   57.39   15.70
   4   8   2   42.20   13.70
  -4  -8   2   49.70   17.80
  -8   4   2   60.79   16.50
  -8   5  -2   64.29   15.60
  -5  -8  -2   34.60   20.50
   5   8  -2   42.20   18.80
  -5  -8  -2   51.49   17.30
   8  -5  -2   62.29   16.60
   8  -5  -2   54.99   17.20
   8  -5   2   43.90   12.60
   8  -5   2   66.29   11.70
   5   8   2   29.40   15.40
  -8   5   2   54.09   14.60
  -5  -8   2   58.19   18.50
   5   8   2   32.00   14.30
  -8   6  -2   41.70   15.80
   8  -6  -2   25.10   16.40
   8  -6  -2   51.79   17.30
  -6  -8  -2   46.10   19.20
  -6  -8  -2   17.10   19.90
  -8   6  -2   29.80   11.70
   6   8  -2   27.20   18.90
   6   8   2   21.30   15.00
   6   8   2   32.10   21.50
   8  -6   2   24.60   11.60
  -6  -8   2   19.80   14.90
   8  -6   2   48.80   13.50
  -8   6   2   34.80   17.30
   8  -7  -2   73.69   21.60
  -8   7  -2   48.30   12.90
  -7  -8  -2   33.80   20.30
   7   8  -2   48.60   22.90
   8  -7  -2   38.20   17.80
  -8   7  -2   53.29   19.50
  -7  -8   2   28.70   21.10
   8  -7   2   39.20   15.90
  -8   7   2   68.89   19.50
   8  -7   2   70.69   15.60
   7   8   2   79.39   18.30
   8  -8  -2    0.30   18.40
  -8   8  -2  -17.40   16.60
   8   8  -2   17.30   19.30
   8  -8  -2  -11.60   18.00
  -8  -8  -2   12.00   20.00
   8  -8   2   26.10   16.80
  -8  -8   2   19.80   21.00
  -8   8   2   32.40   21.20
   8  -9  -2   70.49   20.80
   9   8  -2   47.60   22.00
  -9  -8  -2  112.69   25.60
   8  -9  -2   87.69   29.70
  -8   9  -2   45.90   20.70
  -9  -8   2   49.50   25.40
  -8   9   2   55.29   22.10
   9   8   2   41.80   20.10
   8  -9   2   32.40   21.10
  -9  -7  -2  434.06   37.90
   9   7  -2  480.45   39.20
  -7   9  -2  494.75   37.20
   7  -9  -2  425.76   41.60
   7  -9  -2  487.85   40.80
  -9  -7   2  428.86   40.20
  -7   9   2  461.65   37.40
   9   7   2  498.15   31.70
   7  -9   2  469.35   35.90
  -9  -6  -2   17.50   19.10
   6  -9  -2   -2.30   21.50
   9   6  -2   21.30   19.00
   6  -9  -2   -4.30   18.80
   9   6   2   30.00   14.60
   6  -9   2   39.00   17.00
  -9  -6   2  -10.60   19.90
   9   6   2   39.30   19.30
  -6   9   2   32.20   19.50
  -9  -5  -2  507.95   36.10
  -5   9  -2  452.95   33.70
   5  -9  -2  411.26   39.60
   5  -9  -2  434.76   55.29
   9   5  -2  460.95   35.70
   5  -9  -2  391.46   24.20
   5  -9   2  459.75   33.90
   5  -9   2  378.96   18.50
   9   5   2  527.55   29.20
   9   5   2  454.95   27.30
  -5   9   2  405.16   35.20
   4  -9  -2   11.30   20.10
   4  -9  -2   54.49   19.40
   9   4  -2   72.39   19.70
   4  -9  -2   59.89   11.30
  -4   9  -2   59.29   18.20
  -9  -4  -2   38.50   17.10
   9   4  -2   20.80   17.70
   9   4   2   64.29   13.20
   4  -9   2   66.19   17.40
  -9  -4   2   73.09   23.60
   9   4   2   58.49   13.90
   9   4   2   67.79   12.20
  -4   9   2   39.20   17.40
  -3   9  -2  811.32   40.40
   3  -9  -2  763.52   33.40
  -9  -3  -2  871.41   40.10
   3  -9  -2  782.92   41.50
   9   3  -2  832.52   37.80
   3  -9  -2  758.72   46.50
   9   3  -2  882.31   41.80
  -9  -3   2  877.91   44.20
   3  -9   2  810.72   41.90
   9   3   2  856.21   33.80
   9   3   2  768.52   33.20
  -3   9   2  828.72   41.60
  -9  -3   2  809.82   42.80
   9   3   2  823.62   27.80
   9   2  -2   23.50   15.30
   2  -9  -2   25.50   15.40
  -9  -2  -2   26.70   14.40
   2  -9  -2   34.00   16.40
  -9  -2   2   24.00   16.00
   2  -9   2   20.20   14.50
   9   2   2   25.60   10.10
  -9  -2   2   36.50   15.50
  -1   9  -2  856.71   40.60
  -9  -1  -2  831.12   37.30
   1  -9  -2  760.72   42.80
   1  -9  -2  765.62   40.30
   9   1  -2  812.22   39.50
  -1   9   2  881.71   40.00
   9   1   2  865.41   34.00
   1  -9   2  919.01   41.90
  -9  -1   2  821.82   37.30
   9   1   2  808.82   31.80
  -9  -1   2  806.52   40.10
   0   9  -2    7.00   13.50
  -9   0  -2   17.10   12.80
   9   0  -2   32.00   10.70
   0  -9  -2   41.50   17.10
   9   0  -2   44.40   15.60
   0  -9  -2   26.10   20.50
  -9   0   2   39.40   12.90
   0  -9   2   49.80   17.00
   9   0   2   32.00   10.10
   0   9   2   12.30   14.60
   9   0   2   43.80   12.60
  -9   0   2   33.80   15.30
  -1  -9  -2  843.02   41.20
   9  -1  -2  850.01   39.90
   9  -1  -2  851.41   33.30
  -1  -9  -2  796.02   46.50
  -9   1  -2  833.22   36.60
   1   9  -2  770.62   40.40
  -9   1   2  885.31   40.80
   9  -1   2  785.22   31.10
  -9   1   2  839.12   33.60
   1   9   2  865.51   39.40
  -1  -9   2  808.52   41.60
   9  -1   2  866.91   33.30
   2   9  -2   18.50   13.90
  -2  -9  -2   34.40   21.30
  -2  -9  -2   -1.70   14.90
  -9   2  -2   25.60   13.40
   9  -2  -2   18.50   14.60
   9  -2  -2   20.50   10.70
   9  -2   2   33.90    9.90
  -2  -9   2   12.20   17.40
  -9   2   2   27.40    9.70
   2   9   2   27.30   15.40
   9  -2   2   37.00   10.50
  -9   2   2   20.00   13.50
   9  -3  -2  810.42   34.80
  -3  -9  -2  812.72   47.90
   9  -3  -2  838.52   40.70
  -3  -9  -2  880.11   43.40
   3   9  -2  883.61   44.00
  -9   3  -2  834.72   37.70
  -9   3   2  790.02   40.80
  -3  -9   2  782.62   42.60
  -9   3   2  859.21   35.70
   9  -3   2  824.22   36.40
   9  -3   2  824.42   31.40
   3   9   2  828.32   39.80
   9  -4  -2   58.69   17.40
   4   9  -2   39.10   20.60
  -4  -9  -2   63.49   24.50
   9  -4  -2   72.79   22.20
  -9   4  -2   61.59   16.30
  -4  -9  -2   41.60   18.40
   4   9   2   58.29   17.50
  -9   4   2   57.09   18.30
   9  -4   2   57.19   11.40
   9  -4   2   42.20   20.70
  -4  -9   2   37.90   18.00
  -9   5  -2  514.55   34.20
  -5  -9  -2  461.45   38.20
   9  -5  -2  487.95   36.70
   5   9  -2  462.15   42.80
   9  -5  -2  440.36   30.50
  -5  -9  -2  523.15   42.00
   9  -5   2  512.65   29.30
   9  -5   2  471.65   25.40
  -5  -9   2  478.75   38.40
   5   9   2  522.25   32.80
  -6  -9  -2   24.90   22.90
   6   9  -2   55.09   20.40
   9  -6  -2   28.90   16.60
   9  -6  -2   48.20   18.80
  -9   6  -2   13.10   19.60
   9  -6   2   37.70   14.90
  -6  -9   2   27.90   21.00
   9  -6   2   15.60   20.90
  -9   6   2   16.30   19.40
   6   9   2   33.10   17.00
   9  -7  -2  420.76   37.20
   9  -7  -2  466.45   37.20
  -9   7  -2  472.05   36.70
  -7  -9  -2  437.86   38.70
   7   9  -2  490.25   39.90
   9  -7   2  492.95   32.90
  -7  -9   2  530.55   40.50
  -9   7   2  454.05   37.10
   7   9   2  479.45   35.20
  -8  -9  -2   81.39   23.50
   9  -8  -2   31.70   21.10
   9  -8  -2   50.89   23.60
  -9   8  -2  102.89   23.60
   8   9  -2   83.49   23.50
   9  -8   2   67.09   20.30
  -8  -9   2   80.19   24.70
  -9   8   2   99.29   24.20
   8   9   2   74.89   20.80
  -9   9  -2  193.48   30.70
   9   9  -2  184.58   31.10
   9  -9  -2  191.88   29.90
   9  -9  -2  268.37   40.20
  -9  -9  -2  231.68   34.50
   9   9   2  214.98   31.10
  -9   9   2  233.98   33.20
  -9  -9   2  283.47   41.00
  -9  10  -2   11.60   27.00
 -10  -9  -2   72.69   30.70
   9 -10  -2   -2.20   26.10
   9 -10  -2   39.70   30.90
  10   9  -2   -8.70   26.00
  10   9   2   40.30   24.40
 -10  -9   2  -14.30   27.90
  -9  10   2  -12.50   25.00
   9 -10   2   78.19   27.30
  -8  10  -2   57.79   24.40
 -10  -8  -2   92.09   29.00
  10   8  -2   22.70   21.30
   8 -10  -2   49.90   25.30
  -8  10   2   14.00   23.20
 -10  -8   2   92.19   29.80
   8 -10   2   58.79   23.70
 -10  -7  -2   66.29   24.10
   7 -10  -2   42.60   25.20
  10   7  -2   26.30   19.80
  -7  10  -2  -13.60   18.60
   7 -10  -2    1.80   21.30
 -10  -7   2   26.80   24.60
   7 -10   2   15.50   25.80
  10   7   2  -11.80   17.80
  -7  10   2   -6.60   20.40
  10   6  -2    2.90   19.60
  -6  10  -2   11.30   18.90
   6 -10  -2    4.80   23.20
   6 -10  -2   30.20   19.90
 -10  -6  -2    8.20   19.80
   6 -10   2   11.80   18.50
  10   6   2   11.80   14.60
  -6  10   2  -16.10   17.40
 -10  -6   2   14.80   21.70
  10   5  -2   11.50   19.90
   5 -10  -2   18.10   23.70
  -5  10  -2   49.90   20.80
   5 -10  -2   62.39   21.80
 -10  -5   2   40.80   22.30
   5 -10   2    4.40   12.30
   5 -10   2   43.00   18.40
  10   5   2    4.10   13.90
  -5  10   2   -1.80   18.90
  10   4  -2   24.20   19.30
  -4  10  -2   15.10   23.60
   4 -10  -2    6.20   15.30
   4 -10  -2   28.50   18.90
   4 -10  -2   35.10   20.70
 -10  -4  -2   -6.20   16.70
  10   4   2   16.60   20.00
   4 -10   2   32.80   18.60
  -4  10   2   43.90   20.20
 -10  -4   2   33.80   19.70
  10   4   2   25.00   13.90
 -10  -4   2   28.50   21.70
   3 -10  -2   91.19   28.60
 -10  -3  -2  100.69   21.40
  10   3  -2   75.29   21.80
 -10  -3   2   70.99   23.10
   3 -10   2   76.99   22.60
  10   3   2   80.89   15.00
  10   3   2   34.20   15.00
  10   3   2   68.89    7.80
 -10  -3   2   96.59   21.80
  10   2  -2   28.20   18.90
  10   2  -2   53.19   13.80
   2 -10  -2   27.90   17.90
  -2  10  -2   23.70   19.00
   2 -10  -2   17.10   20.60
  10   2   2   29.50   11.30
  -2  10   2    1.70   17.30
  10   2   2   39.00   13.00
   2 -10   2   33.90   17.80
 -10  -2   2  -12.30   18.70
 -10  -2   2   19.80   16.70
 -10  -1  -2   66.39   18.70
  10   1  -2   73.19   20.10
   1 -10  -2   88.39   23.50
   1 -10  -2   48.40   18.50
  -1  10  -2   90.99   21.70
  10   1   2   94.49   14.20
 -10  -1   2   58.29   19.60
   1 -10   2   42.30   19.20
  -1  10   2   83.89   21.00
 -10  -1   2   86.99   18.10
  10   1   2   72.09   13.00
   0  10  -2  -10.20   16.70
   0 -10  -2    8.00   13.50
  10   0  -2   21.60   11.50
 -10   0  -2    3.10   15.30
   0 -10  -2  -10.60   16.80
  10   0  -2  -12.30   14.80
   0  10   2    7.60   17.20
  10   0   2   20.30   12.50
  10   0   2  -11.90   10.40
 -10   0   2   -6.50   11.20
 -10   0   2    6.80   17.40
   0 -10   2    0.70   17.40
 -10   1  -2   50.89   12.90
 -10   1  -2   75.79   18.30
  10  -1  -2   72.29   13.60
   1  10  -2   76.89   20.90
  -1 -10  -2   82.89   22.40
  -1 -10  -2   87.19   31.00
  10  -1  -2   58.89   19.30
 -10   1   2   62.19   20.10
  -1 -10   2  105.39   23.10
  10  -1   2   57.89   12.60
  10  -1   2   83.09   14.20
   1  10   2   64.19   19.90
 -10   1   2   59.19   13.80
  -2 -10  -2   15.30   18.10
  10  -2  -2   34.70   17.80
   2  10  -2   -8.30   17.40
 -10   2  -2   -5.90   14.50
  10  -2  -2    6.50   10.80
  10  -2   2   -7.10   11.50
  -2 -10   2   -7.30   18.30
   2  10   2   34.50   18.10
  10  -2   2   34.70   11.70
 -10   2   2   11.40   11.20
 -10   2   2   32.40   19.50
  10  -3  -2   91.69   22.10
  -3 -10  -2   74.79   24.50
  10  -3  -2   80.99   14.70
 -10   3  -2   71.49   17.70
  -3 -10   2   82.39   23.90
  10  -3   2   94.99   15.00
 -10   3   2   68.89   11.80
  10  -3   2   82.19   14.00
   3  10   2   93.59   22.50
 -10   3   2   50.49   24.80
 -10   4  -2    4.20   16.50
  10  -4  -2    2.40   12.70
  -4 -10  -2    4.10   20.20
  -4 -10  -2   52.19   27.10
   4  10  -2   39.50   21.40
  10  -4  -2    3.60   18.90
  10  -4   2   33.50   23.00
  10  -4   2   40.30   14.00
   4  10   2    3.10   19.20
 -10   4   2   -0.20   18.00
  -4 -10   2   -1.00   19.30
   5  10  -2   42.70   21.30
 -10   5  -2   37.90   22.70
  -5 -10  -2   22.70   20.00
  10  -5  -2   13.80   15.30
  10  -5  -2   24.30   19.50
  -5 -10  -2   38.90   25.60
 -10   5   2   20.00   18.60
  -5 -10   2   40.00   19.90
   5  10   2   15.70   19.20
  10  -5   2   51.89   16.30
   6  10  -2   16.30   20.60
  10  -6  -2   18.10   17.50
  -6 -10  -2   11.10   20.50
  10  -6  -2    4.40   18.40
 -10   6  -2    1.40   19.30
  -6 -10  -2  -28.90   24.00
  -6 -10   2    2.10   20.50
   6  10   2   13.80   22.20
 -10   6   2  -11.70   17.90
  10  -6   2   24.80   16.10
  -7 -10  -2   19.90   22.50
 -10   7  -2   23.00   20.30
   7  10  -2   -0.20   22.20
  10  -7  -2   51.99   21.70
  10  -7  -2   37.80   20.10
  -7 -10   2   43.00   21.60
 -10   7   2   17.70   23.30
   7  10   2   63.69   20.50
  10  -7   2   14.70   18.90
  10  -8  -2   57.29   24.50
  10  -8  -2   50.09   26.90
 -10   8  -2    3.40   22.90
   8  10  -2   67.79   25.90
  -8 -10  -2   88.49   32.60
   8  10   2   81.99   22.10
 -10   8   2   87.99   26.70
  10  -8   2   67.89   21.60
  -8 -10   2   25.20   24.80
  10  -9  -2   13.00   24.70
  -9 -10  -2   12.70   28.00
   9  10  -2  -29.80   26.00
 -10   9  -2   12.70   25.90
  10  -9  -2   35.30   33.60
  -9 -10   2   46.40   26.40
  10  -9   2   67.19   27.30
 -10   9   2   -8.80   26.50
   9  10   2   -3.00   21.00
 -10  10  -2   56.69   31.00
  10  10  -2    6.40   29.60
 -10 -10  -2   35.00   35.30
  10 -10  -2   23.60   28.60
 -10  10   2   29.20   38.20
  10  10   2   58.49   34.50
 -10 -10   2  -32.00   38.40
   9 -11  -2  299.37   51.19
   9 -11  -2   93.69   35.00
  11   9  -2  200.68   36.10
 -11  -9  -2  191.88   40.20
  -9  11  -2  149.99   36.40
   9 -11   2  206.28   38.30
   8 -11  -2   79.19   27.80
  -8  11  -2  -30.50   26.70
   8 -11  -2   72.19   44.40
 -11  -8  -2   29.60   28.60
  11   8  -2   34.80   26.20
  -8  11   2   12.90   23.90
 -11  -8   2   41.90   31.60
  11   8   2    1.10   30.40
   8 -11   2   -9.60   25.70
   7 -11  -2  308.77   41.20
  11   7  -2  217.78   35.90
  -7  11  -2  235.48   38.00
 -11  -7  -2  205.18   34.00
  11   7   2  235.88   38.40
  -7  11   2  232.78   36.00
 -11  -7   2  220.38   34.90
   7 -11   2  276.77   31.20
   6 -11  -2   60.79   25.00
  -6  11  -2    3.10   20.60
  11   6  -2  -10.00   28.60
 -11  -6  -2  -27.50   20.80
   6 -11  -2    4.20   23.80
  11   6   2   -2.80   18.40
 -11  -6   2   38.40   26.80
 -11  -6   2   20.20   29.00
   6 -11   2   21.10   21.30
  -6  11   2   37.10   22.60
   5 -11  -2  332.77   36.70
  -5  11  -2  412.66   37.50
  11   5  -2  329.17   35.80
 -11  -5  -2  313.27   35.30
   5 -11  -2  310.57   40.60
  11   5   2  255.87   28.70
   5 -11   2  392.36   37.20
  -5  11   2  356.26   37.00
 -11  -5   2  249.88   38.00
 -11  -5   2  278.97   37.20
   4 -11  -2   23.40   20.20
   4 -11  -2   35.50   21.30
  11   4  -2   60.79   22.50
 -11  -4  -2   49.10   21.50
 -11  -4   2   54.89   24.60
  11   4   2   28.70   15.80
   4 -11   2   58.99   23.00
 -11  -4   2   58.29   24.30
  11   3  -2  400.06   37.10
   3 -11  -2  421.86   37.90
  -3  11  -2  413.96   37.70
   3 -11  -2  399.86   43.10
  11   3   2  444.76   28.70
   3 -11   2  404.66   45.80
  -3  11   2  402.46   37.40
 -11  -3   2  445.16   40.50
 -11  -3   2  364.66   37.10
   2 -11  -2   65.49   21.80
   2 -11  -2   77.09   22.60
 -11  -2  -2   41.10   19.90
  -2  11  -2   59.79   22.20
  11   2  -2   71.79   21.80
  -2  11   2   46.90   22.00
 -11  -2   2   70.99   21.40
 -11  -2   2   38.00   21.50
  11   2   2   30.10   14.00
  11   1  -2  437.46   27.00
 -11  -1  -2  494.95   35.90
  11   1  -2  457.65   39.10
   1 -11  -2  438.06   43.80
   1 -11  -2  515.45   39.90
  -1  11  -2  394.46   37.40
  -1  11   2  446.06   39.70
 -11  -1   2  448.96   37.10
 -11  -1   2  487.15   31.80
   0 -11  -2   69.19   27.90
  11   0  -2   76.29   15.00
 -11   0  -2   64.19   19.30
  11   0  -2   48.00   20.40
   0 -11  -2  103.89   24.20
   0  11  -2   85.59   24.20
   0 -11   2  100.49   25.20
  11   0   2   47.40   14.40
   0  11   2   61.29   22.00
 -11   0   2   64.89   17.80
 -11   0   2   59.89   21.90
  -1 -11  -2  464.85   39.60
  11  -1  -2  406.26   35.90
 -11   1  -2  398.86   27.00
  -1 -11  -2  494.15   40.20
   1  11  -2  512.85   39.10
 -11   1  -2  466.75   34.40
  11  -1  -2  418.96   25.80
  -1 -11   2  492.55   38.90
  11  -1   2  449.66   26.80
 -11   1   2  535.85   38.50
   1  11   2  463.35   37.30
 -11   1   2  451.85   28.10
 -11   2  -2   43.60   19.70
  -2 -11  -2   49.40   21.50
  11  -2  -2   50.39   14.50
   2  11  -2   64.79   21.40
  11  -2  -2   54.99   20.80
  -2 -11  -2   39.60   26.10
 -11   2   2   71.49   22.00
  11  -2   2   81.29   15.30
  -2 -11   2   71.49   23.80
   2  11   2   49.70   24.40
 -11   2   2   73.19   15.20
  11  -3  -2  389.26   36.50
  -3 -11  -2  421.66   44.20
   3  11  -2  420.46   37.50
  -3 -11  -2  436.26   39.80
  -3 -11   2  444.56   38.50
 -11   3   2  401.76   37.60
 -11   3   2  396.46   24.00
  11  -3   2  437.16   28.90
   3  11   2  422.16   37.30
  -4 -11  -2   47.20   27.50
  11  -4  -2   14.20   19.10
 -11   4  -2   38.90   20.10
   4  11  -2   51.19   23.40
  -4 -11  -2   16.50   18.50
  11  -4  -2   33.10   16.00
 -11   4   2   33.40   22.00
  -4 -11   2   63.89   22.00
   4  11   2   51.59   20.60
  11  -4   2   77.29   17.50
  11  -5  -2  347.77   37.10
  11  -5  -2  356.86   31.20
  -5 -11  -2  378.66   39.80
 -11   5  -2  321.97   34.30
   5  11  -2  294.17   37.20
  -5 -11  -2  302.97   43.00
   5  11   2  379.96   36.60
 -11   5   2  338.27   39.10
  -5 -11   2  347.67   38.30
  11  -5   2  313.07   29.90
  11  -6  -2   47.00   23.10
  -6 -11  -2  -33.40   20.60
 -11   6  -2  -23.00   20.80
   6  11  -2    1.80   22.10
  11  -6  -2    6.80   21.00
  11  -6   2   67.39   20.90
  -6 -11   2   10.40   21.60
 -11   6   2   26.60   23.10
   6  11   2  -20.00   35.50
  11  -7  -2  221.78   35.40
  11  -7  -2  221.68   43.00
  -7 -11  -2  262.97   41.70
 -11   7  -2  250.47   34.50
   7  11  -2  187.68   32.00
  11  -7   2  162.48   34.20
 -11   7   2  181.88   30.90
  -7 -11   2  321.17   46.60
   7  11   2  283.27   30.50
 -11   8  -2   20.20   29.00
   8  11  -2   -0.10   25.50
  -8 -11  -2   13.00   31.60
  11  -8  -2    0.00   24.40
 -11   8   2   24.00   27.70
   8  11   2   15.90   23.50
  -8 -11   2    6.80   27.00
   9  11  -2   64.69   35.40
 -11   9  -2  141.09   36.10
  11  -9  -2  110.09   33.40
  -9 -11  -2  128.29   39.60
 -11   9   2   75.49   62.69
   9  11   2  211.38   34.00
  -9 -11   2  209.58   48.80
 -12  -8  -2   -8.00   40.10
  12   8  -2  -31.20   47.50
   8 -12  -2   57.99   37.90
   8 -12   2   54.39   35.70
   7 -12  -2   49.70   30.50
 -12  -7  -2   -3.40   31.40
   7 -12  -2   24.60   32.30
  -7  12  -2   40.20   32.40
  -7  12   2   40.70   27.00
 -12  -7   2  -37.60   31.20
 -12  -7   2  -25.40   54.59
   7 -12   2   65.49   27.40
 -12  -6  -2   50.29   31.50
   6 -12  -2    0.30   27.60
   6 -12  -2   29.10   27.70
   6 -12   2   98.89   25.10
 -12  -6   2   30.10   33.70
 -12  -6   2   -9.00   29.70
   5 -12  -2   24.20   27.50
   5 -12  -2   23.10   24.20
 -12  -5  -2   14.60   25.20
  12   5  -2   22.70   23.80
  12   5   2  -13.10   21.90
 -12  -5   2   -9.70   29.10
   5 -12   2   70.89   23.10
 -12  -5   2   18.60   26.80
  -4  12  -2   21.60   23.80
  12   4  -2   10.80   21.60
 -12  -4  -2   -5.20   22.00
   4 -12  -2   51.19   26.70
   4 -12  -2   34.50   23.80
 -12  -4   2   12.50   25.80
 -12  -4   2    5.90   24.00
  12   4   2  -23.90   18.40
   4 -12   2   45.70   21.80
  -4  12   2   12.70   24.90
   3 -12  -2   68.59   29.40
  12   3  -2   -7.20   19.70
 -12  -3  -2   19.40   22.20
   3 -12  -2   46.80   24.00
  -3  12  -2   18.80   23.10
 -12  -3   2  -28.90   22.20
 -12  -3   2   30.50   24.30
  12   3   2   43.20   17.60
  -3  12   2  -10.10   21.40
   3 -12   2   65.29   23.10
 -12  -2  -2   31.00   21.90
   2 -12  -2   12.70   27.30
  12   2  -2  -15.60   15.90
   2 -12  -2    1.80   21.90
  12   2  -2    9.30   20.00
  -2  12  -2    8.70   20.40
  12   2   2   -4.80   16.00
 -12  -2   2   10.50   25.10
  -2  12   2   20.80   20.70
   2 -12   2   13.50   21.40
 -12  -2   2  -34.80   19.60
  12   1  -2   13.10   14.40
 -12  -1  -2   15.80   20.40
  12   1  -2   55.59   20.30
   1 -12  -2   60.69   29.00
   1 -12  -2   -1.80   22.40
  -1  12  -2   28.00   21.30
   1 -12   2   68.59   22.60
  12   1   2   -3.80   15.70
 -12  -1   2   10.00   20.00
 -12  -1   2   -7.00   22.80
  -1  12   2   43.10   21.60
 -12   0  -2   73.79   23.50
   0  12  -2   53.09   22.80
   0 -12  -2   86.89   26.50
  12   0  -2   89.09   21.90
   0 -12  -2   92.79   33.80
  12   0  -2   89.09   16.70
 -12   0   2   85.29   19.80
   0  12   2   44.00   20.20
  12   0   2   70.79   17.40
 -12   0   2   85.09   25.70
   0 -12   2   98.29   25.50
  12  -1  -2   13.80   14.70
   1  12  -2   36.40   22.50
 -12   1  -2   37.80   21.60
  12  -1  -2   12.10   18.30
  -1 -12  -2   27.70   22.80
  -1 -12  -2    8.80   29.00
  12  -1   2   26.60   16.70
  -1 -12   2   -3.30   20.80
   1  12   2    4.80   20.70
 -12   1   2   28.40   21.20
 -12   1   2   28.20   17.60
  12  -2  -2   22.80   19.80
  -2 -12  -2   29.30   23.30
  -2 -12  -2   33.20   31.10
   2  12  -2   41.90   22.80
 -12   2  -2   18.50   20.10
  12  -2  -2    1.20   15.50
  -2 -12   2  -19.00   29.70
 -12   2   2   10.20   17.30
   2  12   2   -1.90   20.60
  12  -2   2    0.20   16.10
 -12   2   2   -9.60   21.60
   3  12  -2   35.10   23.80
 -12   3  -2   28.30   20.80
  12  -3  -2   29.60   20.00
  -3 -12  -2   34.40   23.80
  -3 -12  -2   27.70   25.50
  12  -3   2   -5.30   17.50
   3  12   2   36.30   21.10
 -12   3   2   -6.90   23.30
  -3 -12   2   36.00   22.70
   4  12  -2   28.00   23.40
  -4 -12  -2   21.00   25.80
  -4 -12  -2   44.40   32.20
  12  -4  -2   42.90   21.70
 -12   4  -2  -17.00   21.50
  -4 -12   2  -18.70   21.70
  12  -4   2    7.10   19.90
   4  12   2   58.99   22.20
 -12   4   2    8.20   24.70
 -12   5  -2   78.39   26.30
  -5 -12  -2   49.90   33.20
   5  12  -2    5.90   24.40
  -5 -12  -2   42.70   26.20
  12  -5  -2   33.90   24.30
  12  -5   2   11.90   24.20
 -12   5   2  -21.30   22.10
  -5 -12   2   60.39   25.50
   5  12   2   40.90   21.60
  12  -6  -2  -20.20   23.20
 -12   6  -2   75.89   28.50
   6  12  -2   53.39   27.80
  -6 -12  -2   19.50   28.50
 -12   6   2   79.69   28.80
   6  12   2   42.60   22.50
  -6 -12   2  -20.30   26.70
   7  12  -2   38.90   29.40
  12  -7  -2   -8.70   24.20
 -12   7  -2   13.70   30.20
  -7 -12  -2    9.40   31.30
 -12   7   2    6.30   29.50
  -7 -12   2   73.19   31.30
   7  12   2   65.79   25.70
  12  -8  -2  -46.90   32.80
 -12   8  -2  -38.80   34.00
   8  12   2   28.30   28.50
   7 -13   2  180.38   37.60
  13   6  -2   -1.80   29.60
   6 -13  -2   70.69   67.89
 -13  -6  -2    5.20   36.00
   6 -13  -2   42.30   38.00
 -13  -6   2   70.59   40.60
   5 -13  -2   78.49   32.00
  13   5  -2   51.59   27.20
   5 -13  -2  132.49   35.70
 -13  -5  -2  165.48   38.40
  -5  13  -2   96.39   33.20
 -13  -5   2   60.69   35.20
  -5  13   2  108.79   32.20
 -13  -5   2  114.69   34.20
  -4  13  -2   23.50   31.00
   4 -13  -2   72.99   34.20
   4 -13  -2    2.50   26.30
 -13  -4  -2   -6.40   29.90
  13   4  -2    2.00   23.90
   4 -13   2   68.29   25.60
 -13  -4   2   -4.90   31.80
 -13  -4   2    3.70   29.00
  -4  13   2   11.00   27.50
   3 -13  -2  373.16   44.10
   3 -13  -2  347.87   45.30
  13   3  -2  279.77   38.40
 -13  -3  -2  311.17   45.20
  -3  13  -2  295.07   44.80
   3 -13   2  335.37   39.90
 -13  -3   2  205.28   35.70
 -13  -3   2  243.28   37.30
  -3  13   2  359.86   41.80
 -13  -2  -2   30.60   26.20
   2 -13  -2   33.90   27.80
  13   2  -2   -5.90   22.60
  -2  13  -2  -20.60   25.40
   2 -13  -2  -18.20   31.30
   2 -13   2   -5.70   22.30
 -13  -2   2   25.20   27.20
  -2  13   2   41.10   25.80
   1 -13  -2  181.78   32.70
   1 -13  -2  265.17   44.40
 -13  -1  -2  182.58   33.60
  13   1  -2  164.28   29.50
  -1  13  -2  282.07   41.50
   1 -13   2  253.27   36.80
 -13  -1   2  125.59   33.40
  -1  13   2  165.88   29.90
   0  13  -2   28.90   34.40
   0 -13  -2   11.60   23.90
   0 -13  -2    2.90   23.70
 -13   0  -2  -12.30   23.90
  13   0  -2   25.70   23.90
   0  13   2   42.30   24.90
 -13   0   2   -6.00   38.30
   0 -13   2   10.00   24.60
 -13   0   2   43.00   31.40
   1  13  -2  152.38   31.90
  -1 -13  -2  161.28   36.60
 -13   1  -2  164.48   31.40
  -1 -13  -2  224.08   38.80
  13  -1  -2  136.99   29.40
 -13   1   2  148.49   41.20
  -1 -13   2  231.88   37.70
   1  13   2  207.28   31.80
  -2 -13  -2   31.40   31.40
  -2 -13  -2   34.20   28.00
  13  -2  -2  -26.50   21.00
 -13   2  -2   -0.50   25.10
   2  13  -2  -17.40   25.40
   2  13   2   21.70   22.90
  -2 -13   2   16.60   24.20
 -13   2   2  -56.39   25.40
  -3 -13  -2  283.87   44.20
  -3 -13  -2  314.97   50.19
 -13   3  -2  285.57   37.50
  13  -3  -2  339.07   40.90
   3  13  -2  296.47   42.90
 -13   3   2  327.47   45.70
  -3 -13   2  293.37   45.20
   3  13   2  296.87   36.90
  13  -4  -2   20.60   23.20
  -4 -13  -2    2.10   28.00
 -13   4  -2    5.90   29.90
  -4 -13  -2   53.79   39.90
   4  13  -2  -12.60   25.50
   4  13   2   48.50   23.10
 -13   4   2   36.20   28.20
  -4 -13   2   52.69   28.90
   5  13  -2  100.29   32.70
  13  -5  -2   58.69   25.80
  -5 -13  -2  158.28   35.90
 -13   5  -2   59.29   32.80
  -5 -13   2  159.78   33.70
   5  13   2   62.09   25.00
 -13   5   2   96.69   34.30
 -13   6  -2   48.40   33.80
  13  -6  -2   44.40   28.90
  -6 -13   2  -19.20   60.99
   6  13   2   -6.80   26.90
   7  13   2  204.88   33.10
   6 -14   2  194.18   61.19
   5 -14   2   85.29   38.20
 -14  -5   2  103.49   48.20
  14   4  -2   26.20   32.20
 -14  -4  -2   -6.90   43.00
 -14  -4   2   16.20   40.20
 -14  -3  -2   51.89   35.90
  14   3  -2  -31.90   28.20
  -3  14   2   57.49   38.50
   3 -14   2   48.80   28.00
 -14  -2  -2  -57.29   31.70
   2 -14  -2   13.20   37.80
  -2  14  -2   17.80   38.40
  14   2  -2   -8.40   26.30
   2 -14   2   43.90   28.30
 -14  -2   2    4.80   34.60
  -2  14   2   29.90   29.00
   1 -14  -2   28.00   53.79
 -14  -1  -2  -28.40   33.80
   1 -14  -2  100.49   32.60
  -1  14  -2    4.50   33.60
 -14  -1   2  -46.30   32.20
  -1  14   2   35.40   29.70
   0 -14  -2   72.39   56.79
 -14   0  -2  -49.60   47.20
   0  14  -2   49.40   31.40
   0 -14  -2    4.50   33.30
   0 -14   2   -6.50   26.90
 -14   0   2   32.30   33.10
   0  14   2   54.99   26.80
 -14   1  -2  -63.49   44.70
  -1 -14  -2   40.00   34.00
   1  14  -2   51.19   34.60
  14  -1  -2    0.50   24.80
   1  14   2   58.99   26.20
 -14   1   2   15.80   32.70
  -1 -14   2   49.40   28.60
  -2 -14  -2    8.30   35.10
   2  14  -2   11.90   36.10
  14  -2  -2  -40.00   30.70
 -14   2  -2  -20.70   34.00
 -14   2   2   26.60   39.70
  -2 -14   2   98.89   32.30
   2  14   2  -13.90   33.00
 -14   3  -2    6.20   33.30
  14  -3  -2   -3.30   29.10
  -3 -14   2  123.39   35.70
 -14   4  -2  -36.80   37.70
  14  -4  -2   54.49   31.70
   4  14   2   63.39   31.90
   5  14   2   -1.80   38.80
   0   0  -3   28.80    2.80
   0   0  -3   23.20    3.00
   0   0  -3   24.20    4.90
   0   0   3   24.90    7.00
   1   0  -3 1207.68   31.40
  -1   0  -3 1250.57   34.70
   1   0  -3 1243.58   35.60
   0   1  -3 1237.18   34.80
   0  -1  -3 1182.78   30.10
   0   1  -3 1181.18   29.90
   0  -1  -3 1200.48   30.20
   0  -1  -3 1216.48   35.90
   0  -1  -3 1218.78   35.40
   1   0  -3 1217.38   32.00
   0   1  -3 1191.38   30.50
   0  -1   3 1211.38   35.30
  -1   0   3 1196.98   29.80
   1   0   3 1214.18   35.00
   0   1   3 1213.38   35.90
  -1   0   3 1234.18   36.20
  -1   0   3 1231.68   31.80
  -1   1  -3 3869.71   92.59
   1  -1  -3 4297.47  102.39
  -1  -1  -3 4002.00   93.29
   1   1  -3 4339.37  102.39
  -1  -1  -3 3961.00   92.99
  -1  -1  -3 4326.67  101.19
   1   1  -3 4171.68   96.89
   1  -1  -3 4160.18   97.09
   1   1  -3 4173.78   97.89
   1  -1  -3 4264.27   97.09
  -1   1  -3 4380.76   99.79
  -1   1  -3 4193.08   94.39
  -1   1   3 4313.07  101.69
  -1   1   3 4068.89   95.39
  -1  -1   3 4135.49   95.19
  -1  -1   3 4298.57  101.99
  -1   1   3 4143.09   95.59
  -1  -1   3 4193.08   95.69
   1  -2  -3 2060.19   54.69
  -1   2  -3 1989.60   49.10
   2   1  -3 2010.90   52.79
   1  -2  -3 2100.09   51.19
  -2  -1  -3 2042.80   53.89
  -1   2  -3 2081.79   52.49
  -1   2  -3 2011.00   48.70
   2   1  -3 2046.40   54.99
   1  -2  -3 2041.00   55.49
   1  -2  -3 2046.60   51.19
  -2  -1  -3 1848.02   45.60
  -2  -1  -3 1907.81   45.70
  -2  -1  -3 2031.20   51.99
   2   1  -3 2070.49   51.79
  -2  -1   3 2075.89   55.69
   1  -2   3 1993.90   55.79
  -1   2   3 2019.80   54.79
  -2  -1   3 1979.70   50.69
  -2  -1   3 2032.30   51.19
  -1   2   3 2047.40   49.50
  -1   2   3 2007.60   49.90
   0   2  -3   96.09    6.60
   2   0  -3  103.39    9.10
   0   2  -3  108.89    8.50
   2   0  -3  100.09    7.60
   2   0  -3  100.39    8.50
  -2   0  -3  102.09    8.20
   0  -2  -3  102.89    6.90
   0  -2  -3  102.69    6.80
   0   2  -3  103.59    7.10
   0  -2  -3  102.59    9.70
  -2   0  -3  106.59    8.10
   0  -2  -3   88.89    9.20
   0   2   3   98.09    4.90
  -2   0   3  104.19    9.60
  -2   0   3   98.99    7.20
   0   2   3  107.59    5.30
   0  -2   3  101.99   10.70
  -2   0   3   99.39    7.50
   0  -2   3   96.49    4.70
   0  -2   3  109.19    5.20
  -2   1  -3 1833.02   45.20
  -1  -2  -3 2117.39   54.69
  -2   1  -3 1846.12   45.10
   2  -1  -3 2055.19   54.39
   2  -1  -3 2046.10   55.79
   1   2  -3 2015.50   52.09
  -1  -2  -3 1976.00   48.60
   1   2  -3 2064.09   51.49
  -1  -2  -3 2101.29   55.29
   2  -1  -3 1982.40   51.39
  -2   1  -3 2089.19   51.79
   2  -1  -3 2018.20   52.49
  -2   1   3 2004.40   50.79
  -2   1   3 2079.99   50.89
  -2   1   3 1961.00   53.99
  -1  -2   3 2072.19   55.49
   2  -1   3 1962.70   51.59
  -1  -2   3 2057.69   49.80
   1   2   3 2093.49   53.99
   2   2  -3   36.10    6.00
  -2  -2  -3   29.40    4.30
  -2  -2  -3   30.80    7.80
  -2  -2  -3   25.60    3.70
   2   2  -3   29.40    7.70
   2  -2  -3   21.00    8.40
   2  -2  -3   36.40    7.00
  -2   2  -3   31.20    4.10
  -2   2  -3   22.20    4.90
   2  -2  -3   27.70    6.70
  -2   2  -3   25.00    3.80
   2  -2  -3   28.10    5.40
  -2  -2  -3   37.50    7.50
  -2  -2   3   14.10    8.20
  -2  -2   3   22.30    5.10
  -2  -2   3   28.30    8.10
  -2   2   3   19.00    6.30
  -2   2   3   26.90    6.80
   2  -2   3   33.80    6.40
   2   2   3   31.30    5.80
  -2   2   3   29.10    4.80
  -3  -2  -3 1102.19   30.50
  -2   3  -3 1106.09   31.10
   3   2  -3 1161.48   34.60
  -3  -2  -3 1103.39   30.00
  -2   3  -3 1132.99   31.90
  -2   3  -3 1125.69   36.00
   2  -3  -3 1131.79   37.10
   2  -3  -3 1137.69   33.90
   2  -3  -3 1102.09   34.10
   3   2  -3 1082.29   35.80
   2  -3  -3 1123.79   35.20
   2  -3   3 1043.10   26.70
   2  -3   3 1077.29   31.80
   3   2   3 1136.59   32.50
  -2   3   3 1084.09   35.90
  -3  -2   3 1105.29   37.50
  -3  -2   3 1156.18   34.70
   2  -3   3 1056.79   26.60
  -2   3   3 1150.38   34.00
  -2   3   3 1104.19   35.70
  -3  -2   3 1101.09   33.70
   1  -3  -3 2937.31   74.19
   1  -3  -3 2877.71   70.99
  -1   3  -3 2796.82   69.69
  -3  -1  -3 2716.93   65.79
   3   1  -3 2951.70   73.09
  -3  -1  -3 2811.42   69.29
   1  -3  -3 2832.72   75.29
   1  -3  -3 2906.41   70.79
   3   1  -3 2864.91   71.49
  -1   3  -3 2840.22   69.49
  -3  -1  -3 2629.74   64.99
  -3  -1   3 2801.62   74.29
   1  -3   3 2775.82   65.49
   1  -3   3 2683.23   65.89
  -1   3   3 2917.61   69.19
  -3  -1   3 2920.11   71.39
  -1   3   3 2873.51   74.59
   1  -3   3 2814.82   71.19
   3   0  -3 2727.83   69.39
   0   3  -3 2712.53   67.89
   0  -3  -3 2738.03   67.49
   3   0  -3 2697.73   68.49
  -3   0  -3 2590.64   61.49
   3   0  -3 2842.42   73.79
  -3   0  -3 2585.34   61.99
  -3   0  -3 2855.91   68.29
   0  -3  -3 2833.02   72.79
   0   3  -3 2704.13   67.99
   0  -3  -3 2679.93   67.09
   0  -3  -3 2798.02   71.79
  -3   0  -3 2616.44   64.99
   0   3   3 2783.62   65.19
  -3   0   3 2892.71   73.89
   0  -3   3 2686.13   70.49
   0   3   3 2593.64   65.49
   0  -3   3 2670.63   64.79
   0   3   3 2721.53   72.69
  -3   0   3 2703.83   68.19
  -3   0   3 2723.63   70.89
   0  -3   3 2675.43   65.39
  -3   1  -3 2689.83   64.89
  -1  -3  -3 2915.61   75.09
  -3   1  -3 2848.22   69.09
   3  -1  -3 2894.61   71.99
   3  -1  -3 2786.42   72.59
   1   3  -3 2852.11   72.19
   3  -1  -3 2858.61   71.19
  -1  -3  -3 2804.02   69.09
   3  -1  -3 2763.82   73.99
  -3   1  -3 2717.03   65.09
   1   3  -3 2860.81   71.49
  -1  -3  -3 2828.42   74.49
  -1  -3  -3 2906.11   69.99
  -1  -3   3 2915.21   69.79
   1   3   3 2877.71   73.99
  -1  -3   3 2871.51   75.09
   1   3   3 2724.03   66.39
   1   3   3 2793.32   65.99
  -3   1   3 2773.22   72.99
  -3   1   3 2882.41   71.19
  -2  -3  -3 1094.39   35.90
   3  -2  -3 1096.49   34.60
   3  -2  -3 1138.69   33.80
   3  -2  -3 1107.09   36.80
  -2  -3  -3 1105.59   31.70
  -3   2  -3 1105.39   30.40
   3  -2  -3 1156.68   34.90
   2   3  -3 1098.19   34.20
  -3   2  -3 1091.69   29.10
  -3   2  -3 1129.49   29.70
   2   3  -3 1136.89   35.70
  -2  -3  -3 1065.39   31.60
   3  -2   3 1101.49   30.60
   2   3   3 1128.09   35.20
   2   3   3 1090.49   27.30
  -3   2   3 1112.29   35.10
  -2  -3   3 1092.99   38.40
  -3   2   3 1117.49   33.90
  -2  -3   3 1071.09   35.40
  -2  -3   3 1123.99   34.50
   2   3   3 1057.59   27.30
  -3   2   3 1097.99   32.80
   3  -3  -3 2061.29   55.69
  -3   3  -3 2044.60   52.49
   3  -3  -3 2100.19   59.39
  -3   3  -3 2011.60   55.39
   3  -3  -3 2052.19   55.89
  -3  -3  -3 1776.12   59.89
  -3  -3  -3 1985.90   53.19
  -3  -3  -3 2057.49   57.09
   3  -3  -3 2066.59   56.19
   3   3  -3 2101.49   58.19
   3   3  -3 2063.39   56.59
  -3   3  -3 1994.70   51.69
   3   3   3 1933.51   47.00
   3   3   3 2112.19   56.69
   3  -3   3 1921.01   46.10
  -3  -3   3 2060.79   56.59
  -3   3   3 2076.99   55.59
   3   3   3 2034.30   47.40
  -3  -3   3 2006.30   55.49
  -3  -3   3 2066.99   61.49
  -3   3   3 1969.10   55.89
   3  -3   3 2013.50   50.69
  -3   3   3 2174.38   55.89
   3  -4  -3 1219.68   38.90
  -4  -3  -3 1202.38   37.30
  -3   4  -3 1026.10   42.80
  -3   4  -3 1254.47   36.70
   3  -4  -3 1203.98   38.00
   3  -4  -3 1244.88   42.60
   3  -4  -3 1240.88   38.80
  -3   4  -3 1244.88   36.50
  -4  -3  -3 1193.68   38.90
   4   3  -3 1121.09   38.30
   4   3  -3 1219.18   41.40
  -4  -3  -3 1212.58   35.70
   3  -4   3 1202.08   31.70
   4   3   3 1205.88   29.70
  -3   4   3 1219.08   38.80
   4   3   3 1188.28   30.00
   3  -4   3 1208.38   33.30
  -3   4   3 1254.47   38.10
  -4  -3   3 1210.48   44.70
   3  -4   3 1167.38   33.70
  -4  -3   3 1248.18   40.20
  -4  -3   3 1183.08   38.30
  -3   4   3 1235.98   40.90
   4   2  -3    3.30    7.60
  -4  -2  -3    3.80    3.60
   2  -4  -3    9.70    7.20
  -2   4  -3    2.30    6.20
   2  -4  -3   12.20    7.80
  -2   4  -3    9.70    6.60
   2  -4  -3    8.80    5.20
  -2   4  -3    4.40    4.20
  -4  -2  -3    4.10    5.60
   2  -4  -3    4.20    5.40
   4   2  -3   11.80    5.90
  -4  -2  -3    1.20    5.10
  -4  -2   3    7.10    9.70
   4   2   3    7.70    4.10
  -2   4   3   10.50    5.10
  -2   4   3    8.90    6.50
  -4  -2   3    1.10    7.10
   2  -4   3   -3.30    4.90
   2  -4   3    6.10    3.50
   2  -4   3   15.20    6.60
  -4  -2   3    9.60    5.90
  -2   4   3    6.40    6.60
   4   1  -3 1189.68   36.80
   1  -4  -3 1172.18   36.00
   4   1  -3 1194.18   38.20
   1  -4  -3 1160.88   36.60
  -1   4  -3 1198.38   36.30
  -4  -1  -3 1153.18   31.20
  -4  -1  -3 1168.08   32.30
   1  -4  -3 1239.28   38.70
  -4  -1  -3 1136.89   32.40
  -1   4  -3 1192.98   40.60
  -1   4  -3 1217.58   36.30
   1  -4  -3 1187.28   40.80
  -1   4   3 1216.28   36.40
  -4  -1   3 1162.58   36.90
  -4  -1   3 1193.08   36.70
   1  -4   3 1225.28   32.50
  -1   4   3 1199.98   39.70
   1  -4   3 1202.98   37.10
   1  -4   3 1213.28   35.00
  -4  -1   3 1104.59   38.40
   4   0  -3    1.30    5.80
  -4   0  -3   -1.70    4.10
   4   0  -3   -1.20    6.40
   0   4  -3    5.20    6.50
  -4   0  -3    0.40    2.50
   0   4  -3    2.40    4.80
   0  -4  -3    2.50    9.00
  -4   0  -3   -4.60    4.00
  -4   0  -3   -2.50    2.90
   0  -4  -3    3.20    4.80
   4   0  -3    1.80    4.60
   0   4  -3    3.50    6.30
   0  -4  -3    7.80    6.70
   0  -4  -3   -7.90    3.90
  -4   0   3   -5.30    6.00
  -4   0   3    5.10    7.20
  -4   0   3    0.70    4.80
   0   4   3   -4.40    6.00
   0  -4   3   10.90    4.10
   0   4   3    8.10    6.30
   0  -4   3    1.40    6.10
   0   4   3   -3.30    3.60
   0  -4   3    2.70    7.20
  -4   1  -3 1200.38   32.80
   4  -1  -3 1198.08   38.50
   4  -1  -3 1199.88   37.20
  -1  -4  -3 1173.18   40.10
   4  -1  -3 1150.98   37.10
   1   4  -3 1160.58   37.50
   4  -1  -3 1156.78   36.30
  -1  -4  -3 1176.08   35.70
  -4   1  -3 1160.48   29.70
  -1  -4  -3 1221.88   35.80
  -4   1  -3 1210.78   31.10
  -4   1  -3 1151.78   31.10
   1   4  -3 1233.28   37.40
  -4   1   3 1139.69   35.60
  -1  -4   3 1192.38   39.80
   1   4   3 1204.48   39.30
   1   4   3 1244.18   33.30
  -4   1   3 1178.08   36.60
  -1  -4   3 1042.40   42.60
  -1  -4   3 1184.68   37.00
  -4   1   3 1142.59   37.20
  -2  -4  -3    6.80    7.10
   4  -2  -3    9.50    8.60
  -2  -4  -3   -0.40    7.40
  -4   2  -3    1.50    3.60
  -4   2  -3    6.70    3.10
   2   4  -3    8.00    5.90
   4  -2  -3    1.20    4.70
   2   4  -3    8.10    7.60
   4  -2  -3   10.70    5.50
  -4   2  -3    7.90    3.60
   4  -2  -3    5.90    7.10
  -4   2  -3    5.90    4.20
  -2  -4   3   -1.10    7.20
  -2  -4   3    3.70    7.30
   2   4   3    6.40    3.70
   2   4   3    2.70    6.40
  -2  -4   3    9.20    5.50
  -4   2   3   12.20    7.20
   2   4   3   12.30    5.30
  -4   2   3   -0.90    6.60
  -4   2   3    5.50    5.30
  -3  -4  -3 1206.88   37.90
  -3  -4  -3 1229.38   37.10
  -4   3  -3 1204.58   35.80
  -3  -4  -3 1192.38   41.30
   4  -3  -3 1145.39   38.40
  -4   3  -3 1200.68   34.90
   3   4  -3 1201.38   39.40
   3   4  -3 1246.08   41.40
   4  -3  -3 1160.78   37.90
  -4   3  -3 1194.68   35.60
   4  -3  -3 1224.48   38.10
   4  -3  -3 1212.88   41.40
  -3  -4   3 1239.48   40.50
  -4   3   3 1236.58   39.30
  -4   3   3 1219.88   38.60
  -4   3   3 1194.78   37.60
  -3  -4   3 1172.08   38.10
   3   4   3 1216.98   33.50
   4  -3   3 1185.68   29.40
   3   4   3 1272.27   40.60
  -3  -4   3 1211.58   45.40
  -4  -4  -3   -2.60    4.90
  -4   4  -3    3.00    6.80
  -4  -4  -3    3.90    7.60
   4   4  -3    3.50    9.40
   4  -4  -3   11.50    8.90
   4   4  -3   12.10    6.70
  -4   4  -3   -1.50    5.80
   4  -4  -3   10.60    6.20
   4  -4  -3    0.50    5.90
  -4   4  -3    2.00    5.30
  -4  -4  -3   -3.10    8.40
   4  -4  -3   18.20    9.70
  -4  -4   3  -14.00   11.00
  -4  -4   3   -2.10    8.80
  -4  -4   3   -8.70    6.60
  -4   4   3   -0.90    8.50
   4  -4   3   -2.10    2.70
  -4   4   3   12.80    6.20
   4  -4   3    5.50    5.40
   4  -4   3    4.30    3.40
   4   4   3    0.10    5.90
   4   4   3   16.00    8.00
   4   4   3    2.30    4.10
  -4   5  -3  653.63   26.40
  -5  -4  -3  687.13   26.30
   5   4  -3  756.92   33.70
  -5  -4  -3  670.13   29.80
   4  -5  -3  654.73   32.30
  -4   5  -3  692.23   29.20
   4  -5  -3  689.73   26.80
  -5  -4  -3  715.53   29.10
   4  -5  -3  657.43   30.10
   4  -5  -3  650.43   27.50
  -4   5  -3  686.93   27.60
  -4   5   3  693.03   28.00
  -4   5   3  740.43   30.80
  -5  -4   3  732.93   32.30
   4  -5   3  680.03   22.80
  -5  -4   3  715.83   29.30
   5   4   3  743.43   29.60
  -5  -4   3  669.03   36.80
   4  -5   3  679.23   26.50
   4  -5   3  702.93   20.50
  -4   5   3  663.53   28.90
   5   4   3  669.23   23.10
  -5  -3  -3 2273.77   61.59
   3  -5  -3 2266.17   67.99
   3  -5  -3 2259.47   62.29
  -3   5  -3 2181.48   65.39
   3  -5  -3 2208.88   63.99
  -3   5  -3 2167.38   60.79
  -5  -3  -3 2265.57   59.89
   5   3  -3 2183.08   65.69
  -3   5  -3 2242.58   61.79
   3  -5  -3 2139.89   62.49
  -5  -3  -3 2206.48   61.99
   5   3  -3 2161.98   63.39
  -3   5   3 2239.38   64.59
   5   3   3 2337.97   60.59
  -5  -3   3 2129.89   62.59
  -5  -3   3 2260.17   65.19
   3  -5   3 2224.08   60.09
  -3   5   3 2211.78   65.69
   5   3   3 2230.38   53.99
  -5  -3   3 2200.28   69.49
  -3   5   3 2244.88   63.39
   5   2  -3 1184.38   39.30
   2  -5  -3 1165.88   42.80
   2  -5  -3 1215.58   39.50
  -2   5  -3 1187.28   38.40
  -5  -2  -3 1151.88   35.50
  -5  -2  -3 1190.68   35.10
   2  -5  -3 1199.38   38.90
  -2   5  -3 1205.28   42.80
  -5  -2  -3 1226.68   37.50
   5   2  -3 1232.98   42.00
  -2   5  -3 1218.18   38.60
   2  -5  -3 1233.88   40.30
  -2   5   3 1156.68   41.80
  -5  -2   3 1200.78   39.20
  -2   5   3 1239.18   38.30
  -2   5   3 1207.98   39.20
   2  -5   3 1195.68   38.00
   2  -5   3 1193.48   36.90
   2  -5   3 1238.78   34.80
  -5  -2   3 1236.08   41.20
  -5  -2   3 1243.38   43.30
   5   2   3 1209.28   33.50
   1  -5  -3 2352.56   71.29
   1  -5  -3 2440.56   65.99
  -5  -1  -3 2404.76   62.29
   5   1  -3 2513.65   68.39
  -1   5  -3 2472.05   66.69
   1  -5  -3 2351.36   66.09
  -1   5  -3 2418.26   71.59
   5   1  -3 2314.17   65.79
   1  -5  -3 2513.85   68.29
  -5  -1  -3 2327.87   58.89
  -5  -1   3 2401.46   65.99
  -5  -1   3 2430.66   69.19
   1  -5   3 2416.16   66.29
   1  -5   3 2506.45   65.59
  -5  -1   3 2436.16   67.09
  -1   5   3 2521.85   65.19
  -1   5   3 2481.75   70.59
  -5   0  -3  499.05   19.00
   0   5  -3  455.65   21.40
  -5   0  -3  409.36   17.60
   0  -5  -3  497.35   21.60
   0  -5  -3  460.75   24.60
   0   5  -3  497.45   23.20
   5   0  -3  478.95   21.20
   0  -5  -3  473.15   21.70
   0   5  -3  487.05   24.60
   5   0  -3  493.25   23.90
  -5   0  -3  477.85   18.40
   0  -5  -3  456.95   23.20
  -5   0  -3  456.05   12.60
   0  -5   3  495.15   23.00
   0  -5   3  487.95   19.70
  -5   0   3  471.05   21.10
   0   5   3  475.05   23.90
   0  -5   3  494.75   24.60
   0   5   3  466.05   20.00
  -5   0   3  511.95   23.00
  -5   0   3  499.15   23.50
   0   5   3  488.05   21.40
   5  -1  -3 2415.86   67.49
  -1  -5  -3 2415.86   66.09
  -1  -5  -3 2427.76   71.59
   5  -1  -3 2421.66   68.09
   1   5  -3 2440.16   67.79
  -1  -5  -3 2473.35   66.09
   1   5  -3 2461.75   67.69
   1   5  -3 2386.16   72.59
   5  -1  -3 2409.96   66.19
  -5   1  -3 2462.55   61.69
  -5   1  -3 2450.25   60.49
   5  -1  -3 2408.56   66.19
   1   5   3 2326.97   66.89
  -5   1   3 2432.06   66.69
   1   5   3 2520.25   71.19
  -5   1   3 2401.46   65.69
  -1  -5   3 2455.75   67.19
  -1  -5   3 2501.95   65.09
  -5   1   3 2447.26   66.49
   1   5   3 2378.26   63.69
  -5   2  -3 1214.48   35.50
   2   5  -3 1170.78   41.10
  -2  -5  -3 1182.28   38.80
   5  -2  -3 1193.48   40.10
   2   5  -3 1192.28   44.30
   5  -2  -3 1175.28   37.80
  -5   2  -3 1181.28   29.60
   5  -2  -3 1214.08   41.00
  -5   2  -3 1233.38   34.50
  -5   2  -3 1214.78   31.40
   2   5  -3 1179.08   39.80
  -2  -5  -3 1192.38   42.70
   5  -2  -3 1142.79   38.20
  -5   2   3 1215.68   39.90
   2   5   3 1072.39   37.80
  -2  -5   3 1196.68   40.70
   2   5   3 1190.18   36.40
  -5   2   3 1194.48   38.20
   2   5   3 1217.58   42.70
  -5   2   3 1197.68   41.70
   5  -3  -3 2210.18   64.89
   5  -3  -3 2248.08   60.99
   3   5  -3 2071.39   63.19
  -3  -5  -3 2231.78   62.89
  -5   3  -3 2174.88   55.29
  -3  -5  -3 2107.49   66.29
   5  -3  -3 2212.68   63.89
  -3  -5  -3 2284.87   62.39
  -5   3  -3 2272.37   58.79
   3   5  -3 2220.28   65.89
  -5   3  -3 2242.18   58.99
   3   5  -3 2157.28   68.79
   5  -3  -3 2169.78   62.09
  -3  -5   3 2163.28   74.49
   5  -3   3 2283.37   53.09
  -5   3   3 2187.68   63.09
   3   5   3 2230.28   66.39
   5  -3   3 2144.79   52.79
  -5   3   3 2169.08   61.69
  -3  -5   3 2254.57   65.19
   3   5   3 2196.78   58.99
  -5   3   3 2217.98   61.09
   3   5   3 2258.97   58.59
  -4  -5  -3  661.53   32.10
   4   5  -3  707.53   32.70
  -5   4  -3  717.53   27.40
   5  -4  -3  705.93   30.00
  -5   4  -3  698.73   26.20
   5  -4  -3  666.63   26.10
   4   5  -3  673.63   29.20
   4   5  -3  713.33   32.90
  -4  -5  -3  690.83   27.90
   5  -4  -3  678.93   32.00
  -4  -5  -3  706.43   42.00
  -5   4  -3  713.23   24.70
   5  -4   3  674.33   21.20
  -5   4   3  697.93   28.30
   4   5   3  729.63   29.40
  -5   4   3  702.83   30.30
   4   5   3  712.83   31.40
   4   5   3  719.43   25.60
  -4  -5   3  681.13   28.40
  -5   4   3  707.53   28.40
  -4  -5   3  649.83   31.50
   5  -5  -3 1383.56   48.50
  -5   5  -3 1354.26   43.40
  -5   5  -3 1390.06   43.50
  -5  -5  -3 1387.96   47.10
   5   5  -3 1350.86   50.99
  -5  -5  -3 1375.76   49.70
   5   5  -3 1381.66   50.69
   5  -5  -3 1385.96   43.10
  -5  -5  -3 1403.46   45.50
  -5   5  -3 1425.66   44.70
   5  -5  -3 1367.26   50.19
  -5  -5   3 1438.96   50.79
  -5   5   3 1349.36   45.60
  -5   5   3 1403.86   48.00
   5  -5   3 1403.86   39.20
   5  -5   3 1377.06   42.00
   5   5   3 1434.76   41.10
  -5  -5   3 1331.17   46.10
   5   5   3 1401.36   47.80
  -5   6  -3  492.05   24.50
  -5   6  -3  511.25   24.40
   5  -6  -3  503.15   23.10
  -6  -5  -3  482.45   24.20
   6   5  -3  467.65   30.50
   5  -6  -3  471.05   31.70
  -6  -5  -3  517.15   27.70
  -5   6  -3  508.35   26.40
  -6  -5  -3  487.45   28.40
   6   5  -3  461.25   27.80
   5  -6  -3  480.15   29.30
   5  -6   3  471.65   20.70
   6   5   3  483.35   29.50
   5  -6   3  489.25   24.30
  -5   6   3  470.15   28.00
  -6  -5   3  486.15   31.40
  -5   6   3  463.05   26.60
   6   5   3  475.55   26.40
   6   5   3  481.25   21.40
  -6  -4  -3   10.30   10.20
  -4   6  -3   10.00    9.30
  -4   6  -3   11.30    7.80
   4  -6  -3    5.40   11.40
  -6  -4  -3   14.40    7.70
   4  -6  -3   18.20   13.60
   6   4  -3    9.10   11.00
  -6  -4  -3   13.80   10.20
   4  -6  -3   -2.90    7.10
  -4   6  -3   23.10    9.40
   4  -6   3   11.10    5.00
  -6  -4   3   10.20    9.70
   6   4   3   -4.40    6.20
   4  -6   3   39.80    9.90
  -6  -4   3   23.20   16.20
   4  -6   3    3.00    8.20
  -4   6   3   22.60    8.30
   6   4   3   17.30    7.30
   6   4   3   25.30    8.50
  -4   6   3   19.70    8.60
  -4   6   3   17.40   11.40
  -6  -4   3   32.10   13.20
  -3   6  -3  752.32   33.20
   6   3  -3  761.62   34.70
   3  -6  -3  728.33   30.20
  -6  -3  -3  790.32   28.60
  -6  -3  -3  759.62   29.90
  -3   6  -3  754.52   30.00
   3  -6  -3  789.82   30.20
  -3   6  -3  778.42   32.00
   3  -6  -3  770.72   33.30
  -6  -3  -3  782.92   31.30
   3  -6  -3  769.52   37.20
  -3   6   3  762.22   32.30
  -3   6   3  767.02   33.70
   6   3   3  778.22   23.00
  -6  -3   3  741.43   34.00
   3  -6   3  766.42   30.50
   3  -6   3  788.52   26.80
   6   3   3  777.42   23.90
   3  -6   3  788.72   26.80
   6   3   3  798.12   26.80
  -3   6   3  770.52   30.60
  -6  -3   3  762.22   37.80
  -6  -3   3  751.72   31.10
  -2   6  -3   67.89   12.80
   6   2  -3   29.40    7.50
   2  -6  -3   45.00   16.00
  -2   6  -3   57.79   11.80
   2  -6  -3   47.80    9.50
  -6  -2  -3   55.39    7.70
   2  -6  -3   49.50    9.70
   6   2  -3   52.49   12.80
  -6  -2  -3   44.60    7.40
   2  -6  -3   42.80   12.00
  -6  -2  -3   47.40   10.80
  -2   6  -3   36.40    9.50
  -6  -2   3   50.29    9.50
  -2   6   3   51.29    9.60
  -2   6   3   59.39   12.00
   6   2   3   53.39    4.50
   2  -6   3   51.09    7.90
   2  -6   3   61.09   11.50
   6   2   3   41.90    5.00
  -2   6   3   44.00   11.10
   6   2   3   60.29    6.10
   2  -6   3   57.09   10.70
  -6  -2   3   47.20   14.30
  -6  -2   3   43.90   10.90
   1  -6  -3  691.13   35.10
   1  -6  -3  701.33   28.90
  -1   6  -3  733.93   29.80
  -1   6  -3  730.73   33.80
   1  -6  -3  733.23   30.70
   1  -6  -3  738.23   30.50
  -6  -1  -3  757.02   25.30
   6   1  -3  677.53   28.30
   6   1  -3  749.03   32.10
  -6  -1  -3  762.92   27.90
  -1   6   3  773.92   29.40
  -6  -1   3  766.72   31.90
  -6  -1   3  722.43   32.10
   1  -6   3  748.43   30.70
  -6  -1   3  734.73   29.00
   1  -6   3  783.22   26.90
   1  -6   3  781.32   30.90
   0   6  -3   49.10   11.30
   0  -6  -3   55.99   14.80
   6   0  -3   41.50    8.70
  -6   0  -3   46.00    7.00
   0  -6  -3   44.30   11.10
   0   6  -3   56.89   13.20
  -6   0  -3   49.60    9.40
   0  -6  -3   38.50    8.60
   0   6  -3   31.80    9.10
   6   0  -3   50.69   12.10
   0   6   3   46.90    8.80
  -6   0   3   40.80   11.90
   0  -6   3   50.99    8.70
  -6   0   3   33.80    8.40
   0   6   3   52.79   12.40
  -6   0   3   50.09   11.50
   0  -6   3   45.50   15.50
   0   6   3   30.60   10.40
   6  -1  -3  741.33   31.80
   1   6  -3  686.23   29.60
   6  -1  -3  755.02   31.30
  -1  -6  -3  784.22   36.30
  -6   1  -3  768.92   25.50
  -1  -6  -3  763.72   29.50
  -6   1  -3  758.42   27.00
   6  -1  -3  726.93   28.90
  -1  -6  -3  730.73   31.20
   1   6  -3  755.92   32.40
   1   6  -3  702.73   33.10
  -6   1  -3  748.93   23.50
  -6   1   3  700.23   28.30
   1   6   3  738.53   29.00
   1   6   3  810.12   28.70
  -1  -6   3  781.12   32.10
  -1  -6   3  817.32   29.40
  -6   1   3  750.92   30.00
  -6   1   3  781.42   31.60
   1   6   3  726.93   33.70
  -6   2  -3   50.69    9.50
  -2  -6  -3   64.69   10.60
   6  -2  -3   57.89    8.80
   2   6  -3   55.69   10.70
   6  -2  -3   50.49   11.80
   2   6  -3   55.39   12.70
  -2  -6  -3   55.79   11.80
  -6   2  -3   54.59    5.20
  -2  -6  -3   44.40   15.30
   6  -2  -3   61.39   12.70
   2   6  -3   56.29    9.90
  -6   2  -3   42.30    7.20
   2   6   3   61.79   12.70
  -6   2   3   40.70   11.60
  -6   2   3   54.29   11.40
   2   6   3   59.09   10.80
  -2  -6   3   45.90    9.50
  -6   2   3   52.89    9.40
   2   6   3   32.90   17.10
   6  -2   3   41.90    4.40
  -2  -6   3   71.19   13.90
   3   6  -3  759.12   32.30
  -3  -6  -3  789.92   32.90
  -6   3  -3  799.32   35.30
  -6   3  -3  770.72   19.70
   6  -3  -3  787.22   29.00
  -3  -6  -3  670.43   35.50
   6  -3  -3  770.02   33.50
   6  -3  -3  805.92   33.70
   3   6  -3  828.42   35.80
  -6   3  -3  764.92   27.30
  -6   3   3  814.62   30.80
   3   6   3  797.52   29.60
   3   6   3  775.12   29.50
  -6   3   3  779.92   30.40
   6  -3   3  792.42   22.70
  -3  -6   3  731.63   34.40
   3   6   3  786.52   35.10
  -6   3   3  785.72   33.20
   6  -3   3  749.82   23.40
   6  -4  -3    4.20   11.30
  -6   4  -3   19.90    8.00
  -4  -6  -3    1.40    8.60
  -4  -6  -3   17.20   10.50
   6  -4  -3   14.50    7.40
  -4  -6  -3   15.00   13.10
   4   6  -3   34.00   12.80
   6  -4  -3   21.10   11.90
   4   6  -3   19.10   12.10
  -6   4  -3   10.00    8.80
   4   6   3    8.50   10.40
  -6   4   3   10.90    9.20
  -6   4   3    3.50    9.00
   6  -4   3    1.60    4.60
   6  -4   3   10.20    8.80
  -6   4   3   14.70   11.40
  -4  -6   3   10.50    9.70
   4   6   3   21.20    9.10
  -4  -6   3    3.20   11.40
   4   6   3    9.20    8.30
   6  -5  -3  467.35   21.60
  -5  -6  -3  486.45   25.40
   5   6  -3  481.45   31.10
  -6   5  -3  475.95   22.00
  -5  -6  -3  531.95   29.00
  -6   5  -3  489.95   24.20
  -5  -6  -3  497.85   30.30
  -6   5  -3  486.55   26.20
   6  -5  -3  493.85   29.80
   6  -5  -3  486.15   29.30
   5   6   3  491.25   24.20
   5   6   3  469.35   32.50
  -5  -6   3  498.25   31.60
   6  -5   3  513.95   23.60
  -6   5   3  476.45   28.60
   5   6   3  540.45   29.00
  -6   6  -3    1.50   10.90
   6  -6  -3   17.80   16.20
  -6  -6  -3    4.10   11.50
  -6  -6  -3    1.70   13.90
   6  -6  -3   -3.50   12.40
  -6   6  -3    6.10    8.60
   6   6  -3    4.40   11.10
   6  -6  -3   -3.60    8.10
   6  -6   3    4.70    8.90
  -6  -6   3  -15.60   14.00
   6   6   3    9.60   13.50
   6   6   3  -14.90    9.90
   6  -6   3    2.80    7.50
   6   6   3   -2.70    9.00
  -6   6   3   10.70   12.50
  -7  -6  -3  524.25   32.60
   6  -7  -3  455.55   32.70
   7   6  -3  462.75   33.40
   6  -7  -3  466.15   23.30
  -6   7  -3  455.65   29.20
  -6   7  -3  429.56   25.00
   6  -7  -3  469.55   34.40
  -7  -6  -3  484.95   31.80
   7   6   3  439.66   23.50
  -7  -6   3  462.55   36.10
   7   6   3  425.26   29.40
   7   6   3  431.96   26.60
  -6   7   3  453.55   32.10
   6  -7   3  470.55   22.90
   6  -7   3  450.55   26.60
   5  -7  -3 1025.80   47.90
  -7  -5  -3 1109.89   44.50
   7   5  -3 1077.79   46.70
   5  -7  -3 1050.69   37.10
  -5   7  -3 1064.09   40.70
  -5   7  -3 1081.79   42.20
  -7  -5  -3 1079.49   43.00
   5  -7  -3 1056.89   45.00
  -5   7   3 1038.10   44.00
   5  -7   3 1079.09   35.60
   7   5   3 1041.20   39.60
   5  -7   3  931.81   25.20
  -7  -5   3 1052.99   47.30
  -7  -5   3 1051.69   50.19
   5  -7   3 1064.79   40.20
   7   5   3 1051.09   35.00
   7   5   3 1121.29   38.10
   4  -7  -3  555.34   26.20
  -4   7  -3  558.14   30.20
   7   4  -3  601.24   33.70
   4  -7  -3  527.35   34.70
   4  -7  -3  580.74   32.10
  -7  -4  -3  576.84   30.60
  -7  -4  -3  591.34   25.60
  -4   7  -3  546.85   29.10
  -7  -4   3  556.74   37.60
   7   4   3  572.54   25.00
  -4   7   3  524.95   31.00
   7   4   3  553.34   26.70
  -7  -4   3  575.54   33.60
   4  -7   3  564.34   23.90
   4  -7   3  541.35   28.10
   7   3  -3 1366.26   51.29
  -3   7  -3 1327.67   46.80
  -3   7  -3 1410.96   48.50
   3  -7  -3 1358.16   54.79
  -3   7  -3 1388.56   50.99
   3  -7  -3 1372.06   45.80
  -7  -3  -3 1345.77   44.00
   3  -7  -3 1369.66   50.09
  -7  -3  -3 1424.06   47.30
  -3   7   3 1351.66   49.00
   3  -7   3 1422.16   42.90
   3  -7   3 1460.55   43.20
   3  -7   3 1390.26   47.50
  -3   7   3 1286.27   46.70
   7   3   3 1419.66   39.70
   7   3   3 1427.86   43.00
  -7  -3   3 1401.36   51.49
  -7  -3   3 1426.16   55.29
   2  -7  -3  412.66   31.20
  -7  -2  -3  530.45   25.40
   2  -7  -3  455.85   27.70
   7   2  -3  487.85   28.90
  -2   7  -3  412.76   24.10
   2  -7  -3  468.45   24.20
  -7  -2  -3  448.76   20.50
  -2   7  -3  559.74   29.20
  -7  -2   3  471.95   29.90
   2  -7   3  519.85   25.00
   2  -7   3  496.35   21.60
   2  -7   3  482.25   27.20
   7   2   3  486.85   16.20
  -7  -2   3  502.55   27.10
  -2   7   3  483.95   25.30
   7   2   3  489.25   16.90
  -7  -2   3  452.65   25.00
  -7  -1  -3 1540.25   47.00
   1  -7  -3 1493.85   50.79
  -1   7  -3 1511.65   54.89
  -7  -1  -3 1559.74   47.30
  -1   7  -3 1546.35   51.39
  -1   7  -3 1565.84   50.89
   1  -7  -3 1413.86   50.59
   1  -7  -3 1420.26   48.90
   1  -7  -3 1425.76   56.39
   7   1  -3 1526.95   52.69
   7   1   3 1509.15   36.60
  -7  -1   3 1566.14   52.59
  -7  -1   3 1547.45   51.99
   1  -7   3 1499.15   50.39
  -7  -1   3 1478.85   49.00
   1  -7   3 1503.25   46.20
  -1   7   3 1505.85   48.50
  -1   7   3 1544.05   50.49
   0  -7  -3 1096.79   42.00
   0  -7  -3 1065.49   39.40
  -7   0  -3 1135.89   37.60
   0   7  -3 1161.88   42.70
  -7   0  -3 1139.29   37.20
   7   0  -3 1073.19   41.10
   0  -7  -3 1034.40   45.10
   0   7  -3 1108.39   41.00
   0   7  -3 1104.69   46.50
   0  -7   3 1113.09   42.40
  -7   0   3 1117.59   42.20
   0   7   3 1128.79   39.20
   0  -7   3 1103.29   37.80
   0   7   3 1135.79   40.00
   7   0   3 1042.50   26.40
  -7   0   3 1061.69   39.10
  -7   0   3 1185.38   41.50
   1   7  -3 1452.45   55.99
   7  -1  -3 1526.05   52.09
  -7   1  -3 1550.64   46.30
  -1  -7  -3 1438.16   56.79
  -7   1  -3 1510.15   45.00
   1   7  -3 1393.96   49.99
  -1  -7  -3 1542.85   51.59
  -7   1  -3 1484.85   40.60
   1   7  -3 1548.65   52.69
   7  -1  -3 1499.55   49.80
  -1  -7  -3 1467.95   49.20
   7  -1   3 1432.76   36.20
  -7   1   3 1577.44   49.20
  -1  -7   3 1558.74   52.29
  -7   1   3 1540.25   51.49
  -7   1   3 1522.15   49.00
   1   7   3 1570.84   49.10
   1   7   3 1477.95   48.10
   1   7   3 1504.15   55.19
  -1  -7   3 1604.04   57.19
  -2  -7  -3  501.35   24.50
   7  -2  -3  493.45   26.50
  -7   2  -3  475.55   14.60
   2   7  -3  505.85   29.50
  -2  -7  -3  501.95   27.80
  -7   2  -3  467.65   21.10
  -7   2  -3  520.25   23.20
  -2  -7  -3  405.16   31.40
   7  -2  -3  474.65   28.30
   2   7   3  446.46   23.30
  -2  -7   3  520.45   24.20
  -7   2   3  456.15   24.30
  -2  -7   3  463.35   28.70
  -7   2   3  510.15   25.80
   2   7   3  522.45   28.60
  -7   2   3  513.45   27.70
   7  -2   3  485.55   15.90
   2   7   3  488.05   25.40
   7  -2   3  470.35   16.10
  -7   3  -3 1397.76   45.50
   7  -3  -3 1397.26   48.80
  -3  -7  -3 1466.25   50.69
  -3  -7  -3 1416.16   49.00
  -3  -7  -3 1358.76   54.59
   3   7  -3 1403.16   52.49
  -7   3  -3 1373.56   43.50
   7  -3  -3 1392.76   50.19
  -3  -7   3 1371.16   47.50
  -7   3   3 1400.76   50.19
  -3  -7   3 1356.26   51.49
   3   7   3 1469.15   46.80
  -7   3   3 1427.96   45.00
   3   7   3 1409.46   54.69
   3   7   3 1409.86   46.60
  -7   4  -3  547.95   28.10
   7  -4  -3  573.14   31.80
  -7   4  -3  563.24   15.20
   7  -4  -3  542.65   30.40
  -4  -7  -3  564.24   31.30
  -7   4  -3  519.45   25.10
  -4  -7  -3  573.44   35.30
   4   7  -3  535.25   30.70
   7  -4  -3  559.24   24.30
   4   7   3  526.15   32.70
   7  -4   3  523.95   20.30
  -7   4   3  576.54   26.00
  -7   4   3  546.15   30.60
   4   7   3  567.14   27.10
   4   7   3  536.75   27.00
  -4  -7   3  536.75   34.50
   7  -4   3  587.64   23.70
   7  -5  -3 1022.60   44.10
  -7   5  -3 1076.89   30.90
   7  -5  -3 1072.69   36.10
   5   7  -3 1006.00   46.80
  -5  -7  -3 1072.39   44.80
  -5  -7  -3 1020.50   47.40
  -7   5  -3 1078.29   40.80
   7  -5  -3 1040.90   44.40
   7  -5   3 1061.39   36.10
   5   7   3 1067.99   40.30
  -5  -7   3 1084.69   47.50
   5   7   3 1057.99   38.30
  -7   5   3 1024.80   44.30
   5   7   3 1049.20   47.20
   7  -6  -3  447.56   32.10
   6   7  -3  479.75   35.60
  -7   6  -3  464.65   21.20
  -6  -7  -3  454.85   33.20
  -7   6  -3  475.85   29.30
   7  -6  -3  489.15   33.50
  -6  -7  -3  478.45   33.50
   7  -6  -3  475.15   23.10
  -6  -7   3  485.05   35.40
   6   7   3  489.45   26.80
   6   7   3  439.86   33.90
  -7   6   3  499.45   33.40
   6   7   3  475.25   26.00
   7  -6   3  459.35   25.20
   7  -7  -3  599.84   60.99
  -7  -7  -3  822.12   59.99
  -7   7  -3  782.22   31.10
  -7  -7  -3  805.22   41.40
  -7   7  -3  806.92   39.20
   7  -7  -3  758.02   30.20
   7  -7  -3  739.33   42.90
   7   7   3  796.72   32.70
   7  -7   3  750.62   34.10
  -7   7   3  716.83   41.80
  -7  -7   3  830.02   46.30
   7   7   3  732.33   35.10
  -7   8  -3  144.99   23.00
   7  -8  -3  151.18   25.50
  -8  -7  -3  163.28   24.90
   8   7  -3  120.19   25.60
   7  -8  -3  107.29   26.80
  -7   8   3  134.99   24.70
   8   7   3  123.49   16.80
   7  -8   3  148.99   23.50
  -8  -7   3   82.19   23.70
  -6   8  -3   12.40   15.20
  -6   8  -3    3.10   14.50
  -8  -6  -3   -9.10   15.80
   6  -8  -3   31.70   11.00
   6  -8  -3    1.70   21.20
   6  -8   3   14.00   13.30
   8   6   3   -0.80   13.50
   8   6   3  -13.10   10.50
  -6   8   3  -16.60   17.30
  -8  -6   3  -16.90   15.70
   8   6   3  -20.30   15.80
  -5   8  -3  567.14   33.50
  -8  -5  -3  571.34   33.90
  -5   8  -3  594.64   32.90
   5  -8  -3  551.54   27.80
   5  -8  -3  556.54   39.50
   8   5  -3  575.54   38.40
   5  -8  -3  644.94   37.70
  -8  -5   3  591.74   39.80
  -8  -5   3  568.54   37.80
   8   5   3  600.34   28.30
   5  -8   3  605.24   32.30
  -5   8   3  560.54   36.00
   5  -8   3  606.74   26.90
   8   5   3  593.84   31.20
   5  -8   3  527.75   16.70
  -4   8  -3  -24.40   16.90
   4  -8  -3    4.40   13.90
  -4   8  -3   -5.20   12.10
   8   4  -3   -6.50   14.90
   4  -8  -3  -12.80    9.80
   4  -8  -3   -2.40   17.70
  -8  -4   3    8.00   17.40
   8   4   3   14.10    8.20
   4  -8   3   11.90    9.50
   4  -8   3    0.00    7.20
   8   4   3   -6.40    8.90
   4  -8   3   10.50   12.10
  -8  -4   3  -26.80   13.70
  -4   8   3   21.00   13.90
  -8  -3  -3  323.07   24.70
   3  -8  -3  300.57   22.70
   3  -8  -3  297.87   27.00
   3  -8  -3  255.07   29.80
  -8  -3  -3  284.97   19.30
   8   3  -3  308.77   26.70
  -3   8  -3  317.27   27.60
  -3   8  -3  351.36   26.60
  -8  -3   3  252.07   27.50
   8   3   3  290.27   15.80
   3  -8   3  302.27   25.30
   8   3   3  298.37   13.70
  -8  -3   3  281.57   28.20
   8   3   3  279.07   16.90
   3  -8   3  270.97   19.50
  -3   8   3  289.57   26.00
   3  -8   3  285.77   19.90
   8   2  -3   29.20   15.00
   2  -8  -3   28.70   15.60
  -2   8  -3  -21.00   16.10
   2  -8  -3   10.50   10.90
   2  -8  -3    1.90   12.60
  -8  -2  -3    3.60   10.90
  -8  -2  -3   20.40    8.90
   2  -8   3   -0.80    9.30
  -2   8   3   18.20   15.50
   8   2   3    1.20    6.00
   2  -8   3    6.60   12.80
   2  -8   3    4.00   13.70
  -8  -2   3   12.70   14.90
  -8  -2   3   19.00   14.50
   1  -8  -3  626.64   37.40
   8   1  -3  699.73   36.40
   1  -8  -3  648.04   33.90
  -8  -1  -3  695.03   30.50
  -8  -1  -3  649.83   27.50
   1  -8  -3  736.53   36.40
  -1   8  -3  740.23   35.50
   1  -8   3  732.53   28.90
   8   1   3  708.43   22.30
  -1   8   3  688.53   33.00
   1  -8   3  766.82   35.40
  -8  -1   3  739.93   35.10
  -8  -1   3  692.23   33.80
   8   1   3  751.32   27.40
  -1   8   3  701.83   33.80
   0   8  -3   14.30   12.40
  -8   0  -3   17.00    7.70
  -8   0  -3    2.50   10.30
   0  -8  -3    3.10   12.20
   0  -8  -3    4.70   16.20
   8   0  -3    6.50   13.10
  -8   0   3    9.50   11.50
   0  -8   3   11.10   10.10
   0   8   3   10.70   11.60
   8   0   3    5.10    5.40
  -8   0   3   20.60   13.30
   0  -8   3   17.90   13.20
   8   0   3   -5.60    4.20
   0   8   3   -2.20   10.60
  -1  -8  -3  709.53   35.10
  -8   1  -3  719.43   30.70
   8  -1  -3  716.53   33.80
   8  -1  -3  692.73   32.20
  -8   1  -3  696.03   23.00
  -8   1  -3  664.33   27.10
   1   8  -3  750.22   36.80
  -1  -8  -3  669.43   37.90
  -1  -8   3  685.53   31.30
   1   8   3  679.53   30.70
   1   8   3  737.53   39.50
   8  -1   3  630.84   22.30
  -8   1   3  760.22   32.00
  -8   1   3  672.83   35.10
   8  -1   3  712.63   21.90
  -1  -8   3  739.93   36.30
  -2  -8  -3    8.80   16.60
  -2  -8  -3   13.50   13.50
   2   8  -3    6.70   14.40
   8  -2  -3    5.30   11.70
  -8   2  -3    7.70    2.70
   8  -2  -3   25.10   14.50
  -8   2  -3    3.50    8.50
  -8   2  -3    9.10   10.50
  -8   2   3    9.50   13.40
   2   8   3   22.60   11.80
   8  -2   3    5.10    5.30
  -2  -8   3   10.60   14.20
  -8   2   3   12.70    9.30
   2   8   3   -8.10   11.00
  -2  -8   3   12.70   11.70
   8  -3  -3  308.17   24.80
   8  -3  -3  293.77   26.60
  -8   3  -3  315.27   19.40
  -8   3  -3  308.77   22.90
  -3  -8  -3  269.17   30.10
  -3  -8  -3  311.37   26.80
   3   8  -3  302.47   24.90
   3   8   3  276.87   24.60
  -8   3   3  307.97   19.90
  -8   3   3  308.47   23.80
   3   8   3  285.67   20.90
   8  -3   3  354.66   22.60
  -3  -8   3  299.07   27.70
   8  -4  -3    1.50   13.30
  -8   4  -3   12.10   10.80
  -4  -8  -3    6.60   13.00
   4   8  -3   -2.40   14.80
  -4  -8  -3  -13.10   15.10
   8  -4  -3    7.00   11.50
  -4  -8   3    5.00   16.30
   4   8   3   10.50   11.30
   8  -4   3    4.40   10.40
   8  -4   3   14.50    9.00
  -8   4   3   11.10   10.50
   4   8   3  -23.60   12.60
  -8   4   3  -10.10   13.80
  -5  -8  -3  583.14   36.10
   5   8  -3  569.94   38.60
   8  -5  -3  635.74   37.20
  -8   5  -3  554.74   31.30
  -5  -8  -3  584.44   38.70
   8  -5  -3  553.74   33.30
   8  -5   3  556.14   26.50
   5   8   3  578.84   32.80
  -5  -8   3  564.24   37.90
  -8   5   3  548.35   35.20
   5   8   3  580.54   30.50
  -8   6  -3   -2.10   14.60
   8  -6  -3   -5.70   16.30
   8  -6  -3    6.60    9.90
  -6  -8  -3    3.50   15.50
  -8   6  -3   -3.40    6.70
  -6  -8  -3   11.80   19.30
   6   8   3   -5.90   16.90
   6   8   3   13.30   13.50
   8  -6   3    0.20   11.10
  -6  -8   3  -14.60   17.00
   8  -6   3   -1.60    9.70
  -8   7  -3  111.49   21.50
   8  -7  -3  170.78   30.00
   7   8  -3  114.49   25.00
   8  -7  -3  143.09   24.70
  -7  -8  -3  127.89   24.50
  -7  -8  -3  181.78   30.70
  -7  -8   3  149.88   28.30
  -8   7   3  141.59   23.90
   8  -7   3  136.59   21.30
   7   8   3  176.88   27.10
   8   8  -3    8.10   20.20
  -8   8  -3   24.70   18.90
  -8  -8  -3  -11.20   18.50
   8  -8  -3    1.10   18.50
  -8   8   3   23.30   19.30
   8  -8   3   44.60   16.10
   8   8   3    5.80   14.50
  -8  -8   3    4.70   19.10
   9   8  -3  155.18   29.10
  -8   9  -3  142.79   26.30
   8  -9  -3  155.48   28.90
   8  -9  -3  165.98   40.50
  -9  -8  -3  177.88   28.20
   8  -9   3  113.39   20.90
  -8   9   3  132.59   26.40
  -9  -8   3  141.19   29.30
   9   8   3  165.38   27.10
   7  -9  -3  548.55   46.10
   9   7  -3  509.75   41.10
   7  -9  -3  574.34   41.00
  -9  -7  -3  581.94   43.40
  -7   9  -3  600.34   40.00
  -9  -7   3  607.04   49.60
  -7   9   3  553.84   39.80
  -9  -7   3  560.44   42.80
   7  -9   3  587.64   34.60
   6  -9  -3  192.78   31.60
   9   6  -3  224.88   33.10
  -9  -6  -3  231.88   30.70
   6  -9  -3  209.58   34.70
  -6   9   3  259.67   31.00
  -9  -6   3  237.48   33.60
  -9  -6   3  235.88   38.50
   6  -9   3  305.87   28.00
   9   6   3  229.98   21.20
   9   5  -3  569.54   39.90
  -9  -5  -3  645.14   37.50
   5  -9  -3  588.84   32.40
   5  -9  -3  647.04   41.00
  -5   9  -3  643.84   38.50
   5  -9   3  701.93   36.60
   5  -9   3  525.45   19.00
  -9  -5   3  667.73   43.00
  -5   9   3  569.54   61.59
  -9  -5   3  534.05   51.79
   5  -9   3  549.65   30.60
   9   4  -3  245.48   34.60
  -9  -4  -3  366.66   29.80
   4  -9  -3  331.47   32.40
   4  -9  -3  252.17   30.30
  -4   9  -3  277.07   29.50
   4  -9  -3  308.27   35.90
   9   4   3  309.67   18.30
  -4   9   3  301.07   30.70
   4  -9   3  322.57   23.60
   4  -9   3  336.27   19.50
   4  -9   3  300.77   28.00
  -9  -4   3  331.67   36.70
   9   4   3  330.87   30.90
  -9  -4   3  317.57   34.60
   3  -9  -3  817.52   49.10
   9   3  -3  924.81   45.20
  -9  -3  -3  878.81   40.20
   3  -9  -3  881.21   42.10
   3  -9   3  898.71   35.60
   9   3   3  864.31   38.00
   9   3   3  893.61   29.70
  -9  -3   3  894.71   46.10
  -9  -3   3  899.91   45.90
   3  -9   3  919.51   42.60
   3  -9   3  761.02   35.10
  -9  -2  -3  344.87   26.00
   9   2  -3  333.17   31.00
   2  -9  -3  318.57   35.90
  -2   9  -3  387.86   29.90
   2  -9  -3  340.57   31.10
  -2   9   3  397.26   30.10
   9   2   3  372.36   24.10
   9   2   3  369.56   17.90
   2  -9   3  368.06   28.80
   2  -9   3  341.67   25.90
  -9  -2   3  375.26   30.50
   2  -9   3  303.77   25.10
  -9  -2   3  357.96   32.10
   1  -9  -3  788.02   41.40
   9   1  -3  728.63   40.30
  -9  -1  -3  875.51   37.80
   1  -9  -3  704.23   45.80
  -1   9  -3  815.42   40.10
  -9  -1   3  852.11   41.80
   1  -9   3  809.82   40.20
   9   1   3  773.12   25.70
  -1   9   3  766.82   39.60
   1  -9   3  746.33   35.50
  -9  -1   3  802.92   40.10
   0   9  -3  414.16   30.90
   9   0  -3  434.66   28.10
   9   0  -3  445.06   32.40
   0  -9  -3  444.76   32.20
  -9   0  -3  416.76   27.80
   0  -9  -3  368.26   36.50
   0   9   3  435.36   29.60
  -9   0   3  436.06   27.50
   0  -9   3  376.86   30.80
  -9   0   3  415.46   31.60
  -1  -9  -3  768.92   40.10
   9  -1  -3  779.22   40.50
  -1  -9  -3  788.22   44.20
   9  -1  -3  820.62   36.90
  -9   1  -3  717.13   26.10
  -9   1  -3  828.02   36.10
   1   9  -3  838.82   42.00
  -9   1   3  811.82   35.70
   1   9   3  808.42   37.90
   9  -1   3  747.83   25.00
  -1  -9   3  781.72   40.80
  -9   1   3  770.72   40.00
  -2  -9  -3  313.87   35.90
  -2  -9  -3  343.07   30.50
   2   9  -3  369.06   32.20
   9  -2  -3  328.67   30.30
   9  -2  -3  351.66   24.80
  -9   2  -3  355.56   24.90
  -9   2   3  394.56   31.10
   9  -2   3  396.06   25.90
   9  -2   3  274.57   19.90
   2   9   3  353.66   27.10
  -2  -9   3  377.66   32.00
   2   9   3  316.77   31.10
  -9   2   3  382.56   24.30
   3   9  -3  844.72   44.60
   9  -3  -3  841.32   42.90
  -9   3  -3  875.51   39.00
  -3  -9  -3  801.92   48.90
  -3  -9  -3  857.11   43.60
   9  -3  -3  917.11   38.90
  -3  -9   3  895.21   45.80
  -9   3   3  852.81   43.50
  -9   3   3  909.01   34.70
   3   9   3  814.72   38.30
   3   9   3  778.32   41.40
   9  -4  -3  317.47   36.40
  -9   4  -3  341.37   27.80
  -4  -9  -3  311.97   36.50
   4   9  -3  316.27   36.30
  -4  -9  -3  347.17   32.20
   9  -4  -3  309.67   27.90
  -9   4   3  335.77   32.30
  -9   4   3  344.67   22.70
   4   9   3  389.96   27.80
   4   9   3  238.08   28.70
  -4  -9   3  358.66   34.50
  -5  -9  -3  658.93   60.09
   9  -5  -3  578.44   40.20
   9  -5  -3  669.03   36.40
  -9   5  -3  700.43   37.10
  -5  -9  -3  692.73   42.80
   5   9  -3  648.54   43.20
   5   9   3  658.83   35.00
  -9   5   3  707.33   41.40
   5   9   3  678.63   44.20
  -6  -9  -3  209.78   34.30
   6   9  -3  239.28   33.20
   9  -6  -3  192.38   30.90
   9  -6  -3  207.28   29.60
  -9   6  -3  248.18   30.80
   6   9   3  298.27   26.60
  -9   6   3  203.98   27.90
  -6  -9   3  190.88   29.70
   9  -6   3  266.27   21.70
  -9   7  -3  587.34   39.70
  -7  -9  -3  516.25   43.40
   9  -7  -3  486.85   38.60
   7   9  -3  543.05   41.60
   9  -7  -3  489.95   40.00
  -7  -9   3  528.15   41.80
   7   9   3  611.84   34.40
  -9   7   3  522.85   39.50
   9  -7   3  611.74   32.70
   8   9  -3  160.98   29.30
   9  -8  -3  174.78   29.90
  -9   8  -3  169.38   26.70
   9  -8  -3  100.49   26.10
  -8  -9  -3  182.18   30.10
   9  -8   3  186.48   29.90
  -8  -9   3  145.69   28.10
   8   9   3   96.99   20.20
  -9   8   3  117.19   25.80
   9  -9  -3  484.45   42.60
   9   9  -3  428.56   50.79
  -9   9  -3  359.46   41.50
  -9  -9  -3  407.06   45.40
   9  -9  -3  432.76   42.80
   9   9   3  522.25   43.80
  -9   9   3  418.66   41.80
  -9  -9   3  433.56   49.00
  -9  10  -3   75.69   31.00
   9 -10  -3  140.39   31.50
   9 -10  -3  140.99   32.50
 -10  -9  -3  115.69   34.10
  10   9  -3  120.99   33.00
 -10  -9   3  127.29   33.30
 -10  -9   3  151.88   42.00
  -9  10   3   90.29   29.10
 -10  -8  -3   38.60   27.00
  -8  10  -3  -14.50   23.80
  10   8  -3   16.60   24.70
   8 -10  -3   33.70   25.40
 -10  -8   3  -31.20   24.00
   8 -10   3   30.90   26.90
  -8  10   3   24.70   22.90
 -10  -8   3   43.30   33.60
 -10  -7  -3  258.07   38.30
  -7  10  -3  208.98   32.80
   7 -10  -3  181.68   30.90
   7 -10  -3  286.27   36.50
  10   7  -3  195.18   30.80
  10   7   3  147.29   30.40
 -10  -7   3  190.58   37.50
 -10  -7   3  265.17   38.40
  -7  10   3  295.97   37.30
  -6  10  -3   16.70   19.60
   6 -10  -3   -0.50   22.50
 -10  -6  -3   30.20   21.60
  10   6  -3   24.40   20.60
   6 -10  -3   18.80   21.00
 -10  -6   3   -4.30   20.40
  -6  10   3   34.70   20.00
  10   6   3   16.00   13.90
   6 -10   3    7.50   18.60
 -10  -6   3   17.40   19.70
  -5  10  -3  146.69   25.30
   5 -10  -3  148.39   30.70
 -10  -5  -3  152.08   39.60
   5 -10  -3  174.88   27.10
  10   5  -3  150.08   26.40
 -10  -5   3  143.59   30.30
 -10  -5   3  148.49   27.10
  -5  10   3  151.08   26.60
  10   5   3  120.29   15.30
   5 -10   3  182.38   28.40
 -10  -4  -3  -15.20   17.60
   4 -10  -3    4.10   24.40
   4 -10  -3   -3.90   17.60
  10   4  -3   21.20   20.20
   4 -10   3   24.10   17.60
 -10  -4   3   -8.40   19.00
  10   4   3    5.30   10.60
 -10  -4   3   19.00   22.10
   4 -10   3    8.60   10.20
   3 -10  -3  287.87   38.20
 -10  -3  -3  311.67   31.10
   3 -10  -3  315.37   35.40
  10   3  -3  320.87   34.40
   3 -10   3  402.16   32.40
   3 -10   3  302.37   24.10
 -10  -3   3  319.27   35.10
 -10  -3   3  350.16   35.40
  -2  10  -3   25.20   19.10
 -10  -2  -3   15.40   16.40
   2 -10  -3  -10.30   16.70
   2 -10  -3  -18.40   21.30
  10   2  -3   -8.90   18.10
 -10  -2   3  -29.20   18.50
   2 -10   3   21.70   18.00
  10   2   3   12.40    9.80
  -2  10   3    8.20   18.50
 -10  -2   3   14.40   17.10
  10   2   3  -14.60   11.60
   1 -10  -3  225.68   32.20
  -1  10  -3  258.77   31.00
 -10  -1  -3  204.28   24.60
   1 -10  -3  203.88   35.70
  -1  10   3  237.08   29.80
  10   1   3  213.98   19.20
  10   1   3  183.68   16.70
 -10  -1   3  183.88   25.20
   1 -10   3  232.78   31.20
  10   0  -3   -8.20   13.60
   0 -10  -3   13.90   17.60
   0  10  -3  -35.40   16.70
   0 -10  -3   53.29   24.60
 -10   0  -3  -21.60   14.00
   0 -10   3   20.40   18.50
  10   0   3   -6.20   11.00
 -10   0   3    4.00   15.10
  10   0   3  -12.40    8.20
   0  10   3   30.00   17.40
  10  -1  -3  182.98   23.30
 -10   1  -3  235.98   24.30
  -1 -10  -3  247.28   32.00
  -1 -10  -3  165.68   32.80
  10  -1   3  185.88   18.80
  -1 -10   3  259.67   32.20
  10  -1   3  233.48   22.10
 -10   1   3  209.28   32.00
 -10   1   3  267.07   25.60
   1  10   3  206.88   26.80
   2  10  -3   15.20   21.00
 -10   2  -3   14.50   14.70
  10  -2  -3   30.80   19.80
  10  -2  -3   12.10   14.40
  -2 -10  -3    7.10   21.70
  -2 -10  -3   26.00   19.80
  10  -2   3   19.00   10.70
  10  -2   3   13.20    9.10
 -10   2   3    1.70   17.20
  -2 -10   3    5.00   19.90
 -10   2   3    2.50   12.30
   2  10   3   17.00   17.90
   3  10  -3  323.67   34.50
  10  -3  -3  296.17   32.00
 -10   3  -3  279.67   28.90
  -3 -10  -3  260.17   31.40
  10  -3  -3  351.96   29.50
 -10   3   3  304.17   23.40
   3  10   3  335.97   29.00
  10  -3   3  298.97   19.20
 -10   3   3  300.17   33.30
  10  -4  -3   -7.90   16.30
  -4 -10  -3   28.60   24.40
  10  -4  -3   -0.80   13.20
   4  10  -3   -2.80   18.40
 -10   4  -3  -13.50   16.40
  -4 -10  -3   32.30   20.20
  10  -4   3  -10.30   10.90
 -10   4   3   -5.00   11.30
   4  10   3   15.60   16.40
 -10   4   3   19.40   19.50
  -4 -10   3   -1.50   19.40
   5  10  -3  141.39   26.20
  10  -5  -3  155.38   24.90
  -5 -10  -3  173.38   28.40
 -10   5  -3  138.49   23.60
  10  -5  -3  181.48   27.50
  -5 -10  -3  129.89   29.70
 -10   5   3  133.69   24.30
  -5 -10   3  134.79   27.10
   5  10   3  137.19   23.00
  10  -6  -3  -10.50   20.00
 -10   6  -3   53.79   21.70
  -6 -10  -3   31.60   21.10
  10  -6  -3   24.70   21.00
  -6 -10  -3   32.20   24.60
   6  10  -3   43.20   22.50
   6  10   3   34.80   19.40
  -6 -10   3   15.40   21.20
  10  -6   3   33.10   15.30
 -10   6   3   -1.70   19.80
   7  10  -3  175.58   32.10
  10  -7  -3  217.68   35.70
 -10   7  -3  203.28   32.50
  -7 -10  -3  262.87   40.30
  -7 -10  -3  298.97   42.20
  -7 -10   3  317.67   38.00
 -10   7   3  234.08   35.70
   7  10   3  307.07   32.90
  10  -8  -3  -24.60   22.50
   8  10  -3   -1.10   23.40
  -8 -10  -3   -3.00   25.20
  10  -8  -3   65.59   25.80
 -10   8  -3  -19.80   22.30
  -8 -10   3  -21.00   25.70
  10  -9  -3  110.69   30.70
 -10   9  -3   93.09   31.90
  -9 -10  -3  153.78   36.50
   9  10  -3   96.79   30.40
  10  -9  -3  162.48   51.79
  -9 -10   3   89.29   34.00
 -10   9   3  158.08   31.80
 -10  10  -3  -17.50   35.30
 -10 -10  -3    9.20   39.00
  10 -10  -3   98.59   39.00
  -9  11  -3  178.68   43.10
 -11  -9  -3  275.47   46.20
   9 -11  -3  361.86   53.29
 -11  -8  -3  136.39   53.89
  11   8  -3   97.49   32.00
   8 -11  -3   76.19   31.30
  -8  11  -3   93.59   31.30
   8 -11  -3  142.99   33.50
 -11  -8   3   67.89   35.70
  -8  11   3  142.59   30.00
 -11  -8   3   25.70   31.40
   7 -11  -3  258.07   41.70
   7 -11  -3  264.27   40.10
 -11  -7  -3  329.27   44.00
  11   7  -3  298.47   40.90
  -7  11  -3  346.57   43.30
 -11  -7   3  197.68   35.00
 -11  -7   3  268.37   45.00
  -7  11   3  187.28   32.40
  11   6  -3  168.68   30.90
   6 -11  -3  102.09   31.70
  -6  11  -3  160.68   30.80
   6 -11  -3  167.28   31.60
 -11  -6  -3  187.88   30.90
   6 -11   3  163.48   34.00
 -11  -6   3  127.39   35.20
  -6  11   3  139.59   29.00
 -11  -6   3  141.49   31.30
  11   5  -3  401.56   39.80
   5 -11  -3  308.97   40.70
   5 -11  -3  315.37   41.20
 -11  -5  -3  461.35   39.20
 -11  -5   3  383.26   44.10
 -11  -5   3  382.36   44.20
 -11  -4  -3  147.89   26.70
   4 -11  -3  167.08   32.40
   4 -11  -3  139.59   28.60
  11   4  -3  154.58   27.20
 -11  -4   3  217.58   34.90
   4 -11   3  125.09   27.00
 -11  -4   3  161.78   29.20
   4 -11   3  202.28   32.40
   3 -11  -3  543.05   42.20
  -3  11  -3  626.34   42.90
   3 -11  -3  648.84   46.10
  11   3  -3  620.64   43.40
 -11  -3  -3  608.94   49.00
  11   3   3  540.55   33.80
  -3  11   3  669.93   42.60
   3 -11   3  723.73   42.10
 -11  -3   3  666.23   44.70
   3 -11   3  609.34   34.50
 -11  -3   3  687.83   44.60
   2 -11  -3  231.88   34.30
  -2  11  -3  237.68   32.70
  11   2  -3  207.28   29.80
 -11  -2  -3  221.68   30.90
   2 -11  -3  243.48   37.90
 -11  -2   3  213.38   31.90
  -2  11   3  239.18   32.10
 -11  -2   3  163.58   27.80
   2 -11   3  238.68   28.00
   2 -11   3  238.28   34.00
   1 -11  -3  668.63   43.50
  11   1  -3  644.64   35.30
  -1  11  -3  738.13   44.60
  11   1  -3  634.64   42.40
   1 -11  -3  605.04   48.80
 -11  -1  -3  657.23   40.40
  -1  11   3  708.63   44.90
 -11  -1   3  674.53   42.30
   1 -11   3  669.93   48.90
 -11  -1   3  625.64   45.30
   0  11  -3  178.98   27.20
 -11   0  -3  224.58   29.20
  11   0  -3  105.59   23.40
  11   0  -3  151.28   23.60
   0 -11  -3  213.38   31.70
   0 -11  -3  124.69   32.20
 -11   0   3  176.58   27.50
 -11   0   3  156.38   23.30
   0  11   3  253.77   34.90
  11   0   3  168.58   22.70
 -11   1  -3  744.13   42.30
  11  -1  -3  637.64   34.90
   1  11  -3  706.03   44.00
  11  -1  -3  621.04   43.10
  -1 -11  -3  742.13   45.30
  -1 -11  -3  552.94   49.40
 -11   1   3  653.23   36.30
  11  -1   3  609.94   26.80
  -1 -11   3  681.93   44.40
 -11   1   3  682.43   45.50
  11  -2  -3  162.48   24.20
  -2 -11  -3  184.88   30.90
  -2 -11  -3  200.28   32.90
  11  -2  -3  207.68   31.30
 -11   2  -3  284.37   32.40
   2  11  -3  202.48   29.30
  11  -2   3  205.88   27.30
 -11   2   3  175.48   27.40
  -2 -11   3  174.48   28.80
 -11   2   3  244.98   25.30
  -3 -11  -3  634.24   50.39
 -11   3  -3  657.93   47.10
   3  11  -3  620.14   45.80
  11  -3  -3  595.04   35.90
  11  -3  -3  608.14   42.10
  -3 -11  -3  636.74   43.80
 -11   3   3  588.44   41.90
  -3 -11   3  627.64   43.70
 -11   3   3  606.84   33.00
  11  -4  -3  178.58   27.70
  -4 -11  -3  172.78   33.10
  -4 -11  -3  228.18   35.40
 -11   4  -3  130.89   26.40
  11  -4  -3  143.29   26.50
   4  11  -3  135.19   28.40
 -11   4   3  141.39   25.80
  -4 -11   3  100.69   26.00
   4  11   3  136.39   28.00
  -5 -11  -3  387.76   46.10
   5  11  -3  378.96   40.00
 -11   5  -3  347.47   36.00
  11  -5  -3  379.96   34.90
  -5 -11  -3  434.96   43.30
  11  -5  -3  337.97   38.10
  -5 -11   3  398.56   38.80
   5  11   3  417.86   36.00
 -11   5   3  309.27   37.70
  11  -6  -3  222.28   48.90
  11  -6  -3  150.18   28.50
  -6 -11  -3  117.99   29.20
  -6 -11  -3  125.89   35.70
 -11   6  -3  209.68   34.40
   6  11  -3  158.28   31.80
  -6 -11   3  139.59   29.10
 -11   6   3  143.19   28.80
   6  11   3  195.38   31.30
 -11   7  -3  249.18   40.90
   7  11  -3  381.96   45.20
  11  -7  -3  354.06   43.50
  -7 -11  -3  283.97   43.90
  11  -7  -3  256.97   35.30
  -7 -11   3  248.88   36.10
 -11   7   3  258.57   39.10
   7  11   3  350.26   38.30
  11  -8  -3  123.69   32.60
 -11   8  -3  137.89   32.30
  -8 -11  -3  116.19   33.30
   8  11  -3  101.19   32.60
  -8 -11   3  100.69   32.60
 -11   8   3  122.29   32.20
  -9 -11  -3  239.18   47.20
 -11   9  -3  226.58   43.20
   8 -12  -3    4.50   45.80
 -12  -8  -3   61.79   51.39
   7 -12  -3  107.59   37.70
  -7  12  -3   89.39   33.20
 -12  -7  -3   26.10   33.10
   7 -12  -3  149.09   43.40
  12   7  -3   70.59   32.20
 -12  -7   3   63.29   41.00
 -12  -7   3   74.79   45.50
  -7  12   3   33.20   33.40
 -12  -6  -3  -19.00   26.30
  12   6  -3  -11.60   26.40
   6 -12  -3    0.30   28.40
   6 -12  -3   52.39   31.90
   6 -12   3   55.49   27.10
 -12  -6   3  -31.40   27.60
 -12  -6   3   77.19   36.80
   5 -12  -3  155.08   36.50
 -12  -5  -3  150.68   31.20
   5 -12  -3  171.98   33.90
  12   5  -3  136.59   30.00
 -12  -5   3  135.59   35.60
 -12  -5   3  200.68   34.00
  12   4  -3  -37.90   22.70
   4 -12  -3  -23.70   30.30
   4 -12  -3   23.00   25.50
  -4  12  -3  -30.00   23.20
 -12  -4  -3  -17.80   24.00
 -12  -4   3  -32.40   23.10
  -4  12   3  -27.00   23.30
 -12  -4   3  -17.70   26.70
   4 -12   3   -3.80   22.10
  -3  12  -3   84.99   27.10
   3 -12  -3   82.49   26.80
   3 -12  -3  124.59   28.50
 -12  -3  -3  118.79   28.10
  12   3  -3   78.39   25.90
   3 -12   3   84.99   23.40
   3 -12   3  106.29   31.30
 -12  -3   3   87.59   26.90
 -12  -3   3   71.09   25.40
  -3  12   3   85.39   24.40
  12   2  -3   -5.00   21.20
  -2  12  -3   32.90   23.90
   2 -12  -3   37.70   24.30
   2 -12  -3  -35.00   28.70
 -12  -2  -3  -14.10   21.80
   2 -12   3   12.20   23.80
   2 -12   3   43.10   21.10
  -2  12   3  -12.50   21.60
 -12  -2   3   -0.10   24.00
 -12  -2   3   -6.50   22.40
 -12  -1  -3  193.18   29.30
  -1  12  -3  206.78   33.70
  12   1  -3  207.48   28.90
   1 -12  -3  232.98   36.40
  12   1  -3  249.28   35.30
   1 -12  -3  265.37   40.50
 -12  -1   3  157.78   30.30
  -1  12   3  252.77   32.80
   1 -12   3  289.07   36.90
  12   0  -3   31.50   17.80
   0 -12  -3   33.20   23.80
  12   0  -3   10.10   20.20
   0 -12  -3   -7.20   28.20
   0  12  -3    0.80   22.10
 -12   0   3   21.50   21.80
   0  12   3   29.90   20.20
 -12   0   3    6.70   18.10
   0 -12   3  -24.70   19.80
 -12   1  -3  180.78   28.60
  12  -1  -3  188.28   29.10
  -1 -12  -3  225.98   32.90
   1  12  -3  230.18   35.00
  -1 -12  -3  220.28   39.80
  12  -1  -3  198.58   27.20
   1  12   3  182.28   27.20
  -1 -12   3  208.58   29.60
 -12   1   3  184.28   29.40
 -12   1   3  156.58   31.10
   2  12  -3   38.90   24.60
  12  -2  -3   -2.70   21.00
  -2 -12  -3   18.80   22.80
  -2 -12  -3   15.10   29.50
 -12   2  -3  -13.80   20.80
  12  -2  -3    3.50   18.80
 -12   2   3   28.90   24.00
  -2 -12   3   29.20   21.60
   2  12   3   15.10   20.90
  12  -3  -3  136.69   23.90
  -3 -12  -3   86.29   28.00
 -12   3  -3  139.99   24.90
  -3 -12  -3  131.19   27.40
  12  -3  -3   98.49   25.00
   3  12  -3  127.89   29.40
  -3 -12   3  109.19   25.80
   3  12   3   61.99   23.60
 -12   3   3  114.49   27.70
  -4 -12  -3   38.20   34.50
  -4 -12  -3   26.10   25.50
   4  12  -3   29.70   25.40
 -12   4  -3  -19.20   22.10
  12  -4  -3   15.80   25.00
  12  -4  -3   14.10   24.00
  -4 -12   3  -15.80   24.90
 -12   4   3   23.30   23.90
   4  12   3   36.20   19.70
  -5 -12  -3  193.58   40.20
  12  -5  -3  161.08   30.70
 -12   5  -3  188.98   30.70
   5  12  -3  180.58   33.60
 -12   5   3   96.49   29.80
  -5 -12   3  187.68   31.00
   5  12   3  153.98   26.20
  -6 -12  -3   58.49   30.60
 -12   6  -3   -2.90   26.40
  -6 -12  -3   56.59   39.50
   6  12  -3   15.60   28.30
 -12   6   3   -4.90   26.40
   6  12   3   -3.70   22.80
  -6 -12   3   32.80   28.10
  -7 -12  -3  142.99   37.20
  12  -7  -3    3.40   30.00
   7  12  -3   47.90   42.10
 -12   7  -3   47.70   31.60
  -7 -12   3   85.79   34.90
 -12   7   3    8.30   52.49
 -12   8  -3  -14.70   44.90
 -13  -6  -3  207.78   46.50
  13   5  -3  302.47   46.70
  -5  13  -3  146.69   40.30
 -13  -5  -3  363.66   50.49
   5 -13  -3  348.97   58.69
   5 -13  -3  214.18   49.30
  -5  13   3  210.48   35.60
 -13  -5   3  244.78   46.40
   4 -13  -3  160.58   34.20
   4 -13  -3  132.49   39.00
 -13  -4  -3   82.99   31.80
  13   4  -3   89.99   30.50
  -4  13  -3   94.49   36.80
 -13  -4   3   56.79   32.90
   4 -13   3  171.08   31.00
  -4  13   3  161.38   31.90
 -13  -4   3   83.99   32.30
 -13  -3  -3  234.98   36.50
   3 -13  -3  230.58   35.90
   3 -13  -3  191.28   40.50
  13   3  -3  277.67   45.60
  -3  13  -3  317.67   45.40
 -13  -3   3  186.98   36.40
  -3  13   3  171.58   30.50
 -13  -3   3  202.28   34.10
 -13  -2  -3   73.79   29.60
  -2  13  -3  136.29   30.90
   2 -13  -3   63.69   35.50
  13   2  -3  132.09   29.20
   2 -13  -3   37.20   27.70
  -2  13   3   91.79   25.20
   2 -13   3  128.09   26.60
 -13  -2   3   99.59   30.20
 -13  -2   3   60.79   28.20
   1 -13  -3  292.97   44.20
  13   1  -3  246.48   39.60
   1 -13  -3  217.98   39.70
 -13  -1  -3  134.49   37.40
  -1  13  -3  158.98   34.10
 -13  -1   3  223.88   36.60
 -13  -1   3  256.87   41.00
  13   0  -3  199.38   31.40
   0 -13  -3  237.08   36.30
 -13   0  -3  121.09   45.10
   0  13  -3  178.38   33.90
   0 -13  -3  260.97   39.90
   0 -13   3  296.47   34.60
 -13   0   3  312.47   40.60
 -13   0   3  188.08   33.90
  -1 -13  -3  308.17   44.90
  13  -1  -3  270.67   42.50
 -13   1  -3  193.88   34.70
   1  13  -3  300.57   43.40
  -1 -13  -3  253.27   40.70
   1  13   3  228.18   36.70
 -13   1   3  221.58   35.60
  -1 -13   3  298.17   39.90
  13  -2  -3   38.70   27.00
   2  13  -3   77.79   29.10
  -2 -13  -3  109.49   30.30
  -2 -13  -3   83.29   34.90
 -13   2  -3  126.89   28.00
 -13   2   3  123.09   31.20
   2  13   3   58.99   26.00
  -2 -13   3   83.69   25.80
  -3 -13  -3  252.27   49.60
 -13   3  -3  223.58   35.90
  13  -3  -3  169.68   31.80
  -3 -13  -3  304.97   48.00
 -13   3   3  170.68   33.50
 -13   4  -3  122.19   34.10
  -4 -13  -3  143.99   42.70
   4  13  -3  133.19   35.00
  -4 -13  -3  146.19   37.30
  13  -4  -3   73.19   29.50
   4  13   3  112.79   28.60
 -13   4   3  106.19   31.70
  -4 -13   3  167.08   29.90
 -13   5  -3  247.88   41.00
  13  -5  -3  313.87   47.20
  -5 -13  -3  273.27   55.79
  -5 -13  -3  359.06   56.69
  -5 -13   3  225.18   38.10
   5  13   3  284.97   43.60
 -13   6  -3  125.29   38.80
   6  13   3   36.10   41.40
 -14  -4  -3 -113.99   65.89
   4 -14   3   59.79   34.20
 -14  -4   3   37.00   45.70
 -14  -3  -3  -14.80   52.89
 -14  -3   3  -20.10   62.79
   3 -14   3   61.89   34.80
  14   2  -3  -43.70   33.20
 -14  -2  -3    3.10   38.60
  -2  14   3   57.19   32.00
   2 -14   3   59.49   32.70
 -14  -1  -3  -12.50   34.50
  14   1  -3   25.40   32.40
  -1  14   3   53.29   31.20
   1 -14   3   91.19   31.70
  14   0  -3   14.60   30.60
 -14   0  -3    1.40   32.50
   0  14   3  -28.30   30.40
   0 -14   3   56.49   28.00
  14  -1  -3   36.80   32.40
 -14   1  -3   73.59   35.20
   1  14   3  117.49   28.90
  -1 -14   3  124.89   32.30
  14  -2  -3  -11.80   34.20
 -14   2  -3    2.20   33.40
  -2 -14   3   47.60   32.80
   2  14   3  -20.30   31.10
 -14   3  -3   94.89   48.60
   3  14   3  150.78   34.60
  -3 -14   3   72.19   43.20
 -14   4  -3   17.40   53.29
   4  14   3   57.19   33.10
   0   0  -4  529.45   15.40
   0   0  -4  534.25   21.60
   0   0  -4  541.55   16.00
   0   0   4  534.05   22.60
   0  -1  -4  333.07   11.80
   0   1  -4  337.07   11.50
   0  -1  -4  347.27   16.70
   0   1  -4  336.17   12.40
   0  -1  -4  334.77   18.20
   0   1  -4  335.57   16.60
  -1   0  -4  362.66   16.90
   1   0  -4  354.76   12.90
   0  -1  -4  330.97   11.70
   1   0  -4  356.56   13.90
   1   0  -4  343.57   17.20
  -1   0  -4  332.77    8.20
   1   0   4  348.87   17.80
  -1   0   4  338.77   18.80
   0   1   4  338.17   18.50
   0  -1   4  327.47   17.70
  -1   0   4  327.37    8.60
  -1  -1  -4  714.13   26.00
   1   1  -4  668.63   20.80
   1  -1  -4  667.33   27.10
  -1   1  -4  669.93   24.30
   1  -1  -4  691.43   21.00
  -1   1  -4  667.13   17.00
  -1  -1  -4  691.83   25.60
   1  -1  -4  652.93   21.30
  -1  -1  -4  672.43   17.30
   1  -1  -4  666.23   25.20
   1   1  -4  679.23   25.70
  -1  -1  -4  656.53   17.50
   1   1  -4  686.33   22.20
  -1   1   4  652.43   17.50
   1   1   4  676.83   25.50
  -1   1   4  655.83   17.40
  -1  -1   4  674.93   17.00
  -1   1   4  673.83   26.60
  -1  -1   4  665.03   25.80
   1  -1   4  662.93   24.40
   2   1  -4  378.06   15.80
   2   1  -4  397.86   18.10
  -2  -1  -4  384.86   10.00
  -2  -1  -4  400.66   10.00
   1  -2  -4  394.96   18.70
  -1   2  -4  411.06   14.50
   1  -2  -4  359.36   17.80
  -2  -1  -4  414.96   18.40
   1  -2  -4  416.56   21.60
  -1   2  -4  413.26   18.00
   2   1  -4  380.96   18.50
  -2  -1  -4  415.36   19.10
   1  -2   4  426.96   19.50
  -2  -1   4  370.36   20.60
  -1   2   4  418.06   21.00
  -2  -1   4  392.66   14.90
  -2  -1   4  393.46   15.20
  -1   2   4  405.06   13.20
   0   2  -4  158.88   11.80
   0  -2  -4  163.58    8.70
   0  -2  -4  148.09   14.10
   0   2  -4  147.59    8.50
   2   0  -4  165.58   11.90
   0  -2  -4  145.69    8.90
   0  -2  -4  158.48   11.80
  -2   0  -4  162.78   11.60
   2   0  -4  177.78   13.00
   2   0  -4  158.38    9.60
  -2   0  -4  172.48   13.10
   0   2  -4  141.59    9.00
   2   0   4  161.38   13.00
  -2   0   4  144.69    8.80
  -2   0   4  162.08    9.50
  -2   0   4  139.79   12.50
   0  -2   4  151.18   13.30
   0   2   4  142.99   14.30
   2  -1  -4  395.66   19.40
  -1  -2  -4  408.46   13.60
   2  -1  -4  391.06   17.40
  -1  -2  -4  396.66   18.90
  -2   1  -4  418.86   17.70
  -1  -2  -4  428.56   20.40
   1   2  -4  406.76   17.70
   2  -1  -4  379.96   15.90
   1   2  -4  427.26   19.70
  -1  -2  -4  406.66   16.30
   2  -1  -4  375.96   21.20
  -2   1   4  411.06   15.00
   2  -1   4  414.76   18.60
  -1  -2   4  414.16   19.90
  -1  -2   4  398.36   12.90
  -1  -2   4  393.46   12.90
  -2   1   4  414.06   21.00
  -2   1   4  403.56   15.50
   2   2  -4  644.74   23.20
  -2  -2  -4  639.24   25.40
   2  -2  -4  657.13   24.20
  -2   2  -4  632.34   23.40
  -2   2  -4  642.04   18.30
   2   2  -4  646.04   25.30
  -2  -2  -4  695.93   23.10
   2  -2  -4  661.73   28.40
  -2  -2  -4  680.13   26.60
  -2  -2  -4  635.74   18.60
   2  -2  -4  631.14   25.70
   2  -2  -4  661.93   22.80
  -2   2  -4  625.84   18.80
   2  -2   4  661.03   24.50
  -2  -2   4  662.23   21.60
  -2   2   4  659.83   27.40
  -2  -2   4  653.63   27.00
  -2   2   4  637.14   21.10
  -2   2   4  650.93   22.40
   3   2  -4  697.03   25.30
  -2   3  -4  676.53   21.90
  -3  -2  -4  656.93   26.50
   2  -3  -4  648.44   25.00
   3   2  -4  688.23   27.20
  -3  -2  -4  664.73   20.00
   2  -3  -4  685.03   27.10
  -3  -2  -4  645.34   19.90
   2  -3  -4  653.43   24.10
  -3  -2  -4  678.63   25.60
  -2   3  -4  682.43   21.60
  -2   3  -4  638.64   23.70
   2  -3  -4  642.34   29.40
  -3  -2   4  664.63   24.20
  -2   3   4  660.33   23.60
  -2   3   4  656.53   22.40
  -2   3   4  617.24   27.50
  -3  -2   4  704.73   25.00
   2  -3   4  637.94   24.30
  -3  -2   4  679.43   29.90
  -3  -1  -4  962.50   32.00
   3   1  -4  932.01   30.10
  -3  -1  -4  954.40   30.50
   1  -3  -4  915.21   32.80
   1  -3  -4  910.21   29.70
  -1   3  -4  924.71   28.10
  -3  -1  -4  917.51   23.20
   1  -3  -4  927.01   35.10
   3   1  -4  953.80   32.20
   3   1  -4  954.00   33.60
   1  -3  -4  922.61   29.10
  -3  -1  -4  901.61   22.80
  -1   3   4  918.21   26.50
  -3  -1   4  942.31   29.80
  -3  -1   4  935.01   34.10
   1  -3   4  930.31   31.70
   0   3  -4  384.36   24.80
   0  -3  -4  508.85   22.70
  -3   0  -4  485.95   21.90
   0  -3  -4  487.85   18.10
   3   0  -4  475.35   19.00
  -3   0  -4  512.35   20.30
   0   3  -4  481.85   20.80
   3   0  -4  461.55   21.50
   0  -3  -4  459.65   27.30
   3   0  -4  495.55   21.40
   0   3   4  464.35   15.40
  -3   0   4  482.45   19.10
   0  -3   4  451.85   13.20
   0  -3   4  438.06   14.40
   0  -3   4  457.55   21.80
   0   3   4  452.85   14.30
  -3   0   4  466.15   23.00
   0   3   4  478.55   21.30
  -3   0   4  475.05   19.40
   3  -1  -4  955.20   35.50
  -3   1  -4  928.11   22.50
  -1  -3  -4  917.61   27.70
   1   3  -4  931.61   29.80
   1   3  -4  978.50   31.90
  -1  -3  -4  899.31   33.20
  -1  -3  -4  918.21   34.00
  -1  -3  -4  953.60   28.50
   3  -1  -4  916.51   29.90
   3  -1  -4  925.91   32.80
  -3   1  -4  909.91   22.80
  -3   1  -4  950.40   30.40
   3  -1  -4  948.31   31.50
   1   3   4  961.10   32.90
  -1  -3   4  918.31   26.60
  -1  -3   4  921.41   34.30
  -1  -3   4  940.01   27.20
  -3   1   4  920.71   29.40
  -3   1   4  935.71   34.10
   3  -2  -4  667.83   25.80
   3  -2  -4  644.84   26.10
   2   3  -4  677.93   26.70
  -3   2  -4  669.03   23.40
   2   3  -4  645.64   24.40
  -3   2  -4  657.63   19.50
   3  -2  -4  693.73   24.90
   3  -2  -4  658.23   28.20
  -2  -3  -4  634.14   21.70
  -2  -3  -4  638.04   27.30
  -3   2  -4  672.83   19.00
  -2  -3  -4  650.73   27.30
  -2  -3   4  663.43   24.10
  -3   2   4  666.73   24.10
   2   3   4  675.23   26.00
  -3   2   4  694.33   27.90
   3  -2   4  660.43   24.10
  -3   2   4  655.73   23.50
  -2  -3   4  654.83   29.50
   3  -3  -4  401.26   20.30
   3   3  -4  397.16   21.00
   3   3  -4  417.16   22.10
   3  -3  -4  428.76   20.90
  -3  -3  -4  418.36   17.20
   3  -3  -4  382.26   19.90
   3  -3  -4  406.06   24.10
  -3   3  -4  420.56   16.30
  -3  -3  -4  421.76   22.10
  -3   3  -4  443.66   16.20
  -3  -3  -4  400.46   21.60
  -3   3  -4  399.36   16.90
  -3   3   4  423.46   19.90
  -3   3   4  414.16   18.40
   3  -3   4  402.56   18.00
   3   3   4  417.86   19.30
  -3  -3   4  408.76   24.90
  -3  -3   4  400.46   19.80
  -3   3   4  417.66   22.60
  -3  -3   4  401.66   18.60
  -3   4  -4  392.46   18.00
   4   3  -4  392.26   23.60
  -4  -3  -4  354.86   19.90
  -3   4  -4  377.76   18.30
  -3   4  -4  387.56   21.80
  -4  -3  -4  404.66   20.80
   3  -4  -4  389.26   24.70
   3  -4  -4  365.36   19.00
   3  -4  -4  390.86   21.60
  -4  -3  -4  360.96   16.80
   4   3  -4  366.06   19.40
   3  -4  -4  374.96   20.00
  -3   4   4  391.66   22.30
  -3   4   4  411.86   18.50
  -4  -3   4  388.46   19.30
  -4  -3   4  374.16   23.90
  -4  -3   4  408.26   22.50
   3  -4   4  382.96   18.20
   4   3   4  409.26   18.80
  -4  -2  -4  209.68   10.60
  -4  -2  -4  204.98   15.10
  -4  -2  -4  212.58   11.00
   4   2  -4  205.28   17.10
  -2   4  -4  199.08   13.00
  -4  -2  -4  225.18   15.40
  -2   4  -4  204.58   14.50
   2  -4  -4  193.08   14.90
   4   2  -4  195.88   13.70
   2  -4  -4  205.48   19.50
   2  -4  -4  208.38   14.20
   2  -4  -4  200.98   16.20
  -2   4  -4  212.28   16.00
  -4  -2   4  230.18   20.10
  -2   4   4  209.98   12.60
  -4  -2   4  219.68   15.70
  -2   4   4  209.18   14.30
   2  -4   4  222.08   15.30
  -2   4   4  198.48   14.40
  -4  -2   4  218.08   14.30
  -4  -1  -4  434.76   14.90
   4   1  -4  453.15   23.20
   1  -4  -4  439.86   23.40
   4   1  -4  431.06   19.90
   1  -4  -4  443.46   19.10
  -4  -1  -4  455.15   20.60
  -4  -1  -4  441.06   14.10
   1  -4  -4  456.15   22.20
   1  -4  -4  455.95   20.70
  -1   4  -4  447.86   18.90
   1  -4   4  447.86   13.80
  -1   4   4  467.45   17.90
  -4  -1   4  412.56   22.50
  -4  -1   4  465.15   20.00
  -4  -1   4  441.66   21.20
   1  -4   4  433.36   21.10
   1  -4   4  455.05   13.30
  -1   4   4  421.36   22.00
   0  -4  -4  190.38   12.20
   4   0  -4  191.38   15.70
   0  -4  -4  201.98   15.30
   0   4  -4  186.28   14.40
  -4   0  -4  203.98   12.20
   4   0  -4  189.78   12.90
  -4   0  -4  189.18    7.70
   4   0  -4  225.18   15.10
  -4   0  -4  189.08    8.20
  -4   0  -4  200.08   12.60
   0  -4  -4  201.08   14.70
   0   4  -4  191.78   12.40
   0  -4  -4  204.78   18.70
   0  -4   4  186.08   16.10
   0   4   4  204.18   10.20
   0   4   4  178.28   15.00
  -4   0   4  212.28   17.80
  -4   0   4  192.68   15.00
   0  -4   4  191.58   11.50
   0  -4   4  211.48    9.80
  -4   0   4  209.68   13.10
   4  -1  -4  419.66   19.40
  -1  -4  -4  450.75   22.80
  -4   1  -4  459.45   14.10
   4  -1  -4  461.65   24.90
  -4   1  -4  437.86   13.90
  -1  -4  -4  453.15   20.10
  -1  -4  -4  421.26   18.60
   4  -1  -4  438.26   21.20
  -4   1  -4  439.66   16.60
   1   4  -4  475.25   20.60
  -1  -4  -4  450.35   24.80
   4  -1  -4  455.15   22.60
   1   4  -4  437.16   21.40
  -4   1   4  442.96   21.20
  -1  -4   4  456.65   19.70
  -1  -4   4  447.76   17.40
   1   4   4  473.85   22.70
  -1  -4   4  444.36   24.30
   1   4   4  426.66   14.90
  -4   1   4  455.35   19.50
   1   4   4  451.65   14.40
  -4   1   4  435.76   21.90
   4  -2  -4  203.18   14.80
   2   4  -4  207.48   16.60
  -2  -4  -4  201.98   16.70
  -4   2  -4  212.98   10.00
   2   4  -4  200.08   14.20
  -4   2  -4  217.18   10.20
  -2  -4  -4  218.88   15.00
   4  -2  -4  206.58   16.60
   4  -2  -4  216.48   13.80
  -2  -4  -4  202.98   18.10
   4  -2  -4  236.88   19.20
  -4   2  -4  208.28   11.80
  -4   2   4  211.38   13.50
   2   4   4  222.18   15.60
  -2  -4   4  222.38   20.20
   2   4   4  199.08    6.70
  -4   2   4  206.58   17.50
  -4   2   4  203.48   15.20
  -2  -4   4  211.38   15.60
  -4   3  -4  362.76   17.90
   3   4  -4  388.76   20.10
   4  -3  -4  347.07   19.10
  -4   3  -4  345.07   23.00
   4  -3  -4  380.06   23.90
  -4   3  -4  391.06   15.50
   4  -3  -4  376.76   19.10
  -3  -4  -4  396.46   19.70
  -3  -4  -4  364.46   22.40
   3   4  -4  377.96   22.80
  -4   3  -4  398.36   16.30
  -3  -4  -4  377.06   17.90
   4  -3  -4  364.16   21.60
  -4   3   4  360.16   19.90
  -3  -4   4  374.46   18.70
   4  -3   4  382.26   16.60
  -4   3   4  369.26   18.30
   3   4   4  394.76   20.30
  -4   3   4  394.86   21.70
  -3  -4   4  383.06   21.30
  -3  -4   4  352.96   26.20
  -4  -4  -4  137.09   14.90
  -4  -4  -4  126.69   18.00
   4   4  -4  171.88   14.50
  -4   4  -4  149.49   14.60
   4  -4  -4  159.38   14.00
  -4  -4  -4  141.39   12.40
  -4   4  -4  141.49   12.20
   4  -4  -4  165.58   19.90
   4   4  -4  137.19   17.70
   4  -4  -4  163.68   17.00
   4  -4  -4  190.88   14.60
  -4   4  -4  181.48   14.50
  -4  -4   4  151.88   13.90
  -4   4   4  142.49   16.60
  -4  -4   4  166.38   17.10
  -4   4   4  166.78   13.30
   4   4   4  165.48   13.60
  -4   4   4  133.29   15.50
  -4  -4   4  144.69   18.70
  -5  -4  -4  193.08   14.00
   4  -5  -4  212.08   17.60
  -4   5  -4  206.28   16.80
  -5  -4  -4  201.18   17.10
   5   4  -4  207.78   21.90
  -4   5  -4  209.28   17.20
   4  -5  -4  199.18   19.90
  -4   5  -4  209.88   15.20
   4  -5  -4  185.38   15.40
  -5  -4  -4  200.88   19.20
   5   4  -4  192.28   20.40
   4  -5  -4  224.28   21.00
  -5  -4   4  206.88   20.60
   5   4   4  248.68   16.10
   4  -5   4  222.08   14.40
   4  -5   4  195.28    7.00
  -5  -4   4  197.58   25.90
  -5  -4   4  224.48   16.40
  -4   5   4  191.58   15.70
  -4   5   4  220.08   19.30
   3  -5  -4  761.22   30.20
  -3   5  -4  739.73   32.50
  -3   5  -4  773.82   38.60
  -3   5  -4  754.62   29.30
  -5  -3  -4  762.92   26.80
   3  -5  -4  780.22   32.60
   3  -5  -4  771.22   31.10
   3  -5  -4  734.63   36.10
   5   3  -4  813.22   34.70
   5   3  -4  785.52   31.00
  -5  -3  -4  780.82   29.10
  -5  -3  -4  767.72   30.40
  -3   5   4  788.82   30.80
   5   3   4  792.42   27.40
  -3   5   4  798.52   29.60
  -5  -3   4  752.72   32.60
  -5  -3   4  771.22   37.60
   3  -5   4  727.83   20.70
  -5  -3   4  764.72   30.30
   3  -5   4  751.62   21.80
   3  -5   4  781.92   27.20
   2  -5  -4  180.88   16.50
  -2   5  -4  183.68   16.30
   5   2  -4  167.58   13.90
   2  -5  -4  156.38   20.30
  -5  -2  -4  167.68   10.90
  -2   5  -4  159.28   12.70
  -5  -2  -4  165.58   14.10
  -2   5  -4  137.19   14.00
  -5  -2  -4  166.38   15.10
   2  -5  -4  154.68   12.80
   2  -5  -4  138.29   13.90
   5   2  -4  174.38   18.20
   2  -5   4  144.89   10.30
  -2   5   4  154.48   12.10
  -5  -2   4  141.79   19.60
   2  -5   4  164.18   14.30
   2  -5   4  146.99    8.50
  -5  -2   4  163.88   16.70
  -2   5   4  156.68   15.60
  -5  -2   4  185.08   15.20
  -1   5  -4  416.66   19.90
  -1   5  -4  429.46   24.10
  -5  -1  -4  422.96   20.10
   1  -5  -4  406.26   19.60
  -1   5  -4  426.26   21.70
   5   1  -4  424.86   20.60
  -5  -1  -4  411.86   16.90
  -5  -1  -4  415.16   16.70
  -5  -1  -4  397.46   15.40
   1  -5  -4  422.26   21.80
   1  -5  -4  438.26   22.80
   1  -5  -4  424.66   26.80
   5   1  -4  427.06   23.60
   1  -5   4  413.46   21.80
   1  -5   4  421.76   15.60
  -5  -1   4  396.56   19.90
  -1   5   4  411.36   22.10
  -5  -1   4  445.46   25.80
  -1   5   4  394.46   20.00
   1  -5   4  377.96   23.50
  -1   5   4  426.66   18.90
  -5  -1   4  448.16   22.70
  -5   0  -4  273.77   12.30
  -5   0  -4  273.97   11.40
   0   5  -4  244.68   20.00
  -5   0  -4  273.47   11.30
  -5   0  -4  267.27   15.10
   5   0  -4  256.27   15.70
   0   5  -4  243.78   17.30
   0  -5  -4  285.37   18.50
   0  -5  -4  260.57   15.50
   0   5  -4  253.47   16.70
   0  -5  -4  240.58   17.00
   5   0  -4  249.78   19.30
   0  -5  -4  245.58   22.10
   0  -5   4  269.17   13.70
   0   5   4  294.87   18.90
  -5   0   4  269.77   20.10
  -5   0   4  267.17   16.00
   0  -5   4  256.77   16.30
   0  -5   4  222.78   18.60
  -5   0   4  269.47   18.20
   0   5   4  247.28   15.80
   5  -1  -4  409.46   24.90
  -1  -5  -4  430.76   21.70
   5  -1  -4  434.46   23.70
   5  -1  -4  402.56   19.90
  -1  -5  -4  403.46   26.00
   5  -1  -4  416.76   21.00
   1   5  -4  403.46   22.20
  -1  -5  -4  430.86   20.00
   1   5  -4  435.16   20.80
  -5   1  -4  403.86   15.10
   1   5  -4  420.86   25.00
  -5   1  -4  411.06   15.60
  -5   1  -4  413.46   14.50
  -1  -5  -4  361.36   22.70
   1   5   4  417.26   18.50
   1   5   4  411.06   16.50
  -1  -5   4  415.76   21.30
   1   5   4  428.46   23.40
  -1  -5   4  422.66   18.50
  -1  -5   4  430.66   26.30
  -5   1   4  438.86   23.10
  -5   1   4  421.16   20.60
  -5   1   4  419.26   23.40
   5  -2  -4  172.88   17.40
  -5   2  -4  170.08   11.60
   5  -2  -4  164.78   13.40
   5  -2  -4  152.08   13.40
   2   5  -4  147.89   14.60
  -2  -5  -4  145.19   12.30
  -2  -5  -4  146.59   19.10
  -5   2  -4  158.88    9.60
   5  -2  -4  141.29   15.60
  -5   2  -4  166.98   10.50
  -5   2  -4  161.78   10.40
   2   5  -4  172.18   17.70
  -2  -5  -4  152.78   15.40
  -2  -5   4  175.28   13.60
  -2  -5   4  142.69   15.10
  -2  -5   4  164.08   20.50
   2   5   4  149.69   15.50
  -5   2   4  184.88   13.70
  -5   2   4  171.18   17.60
  -5   2   4  166.88   16.80
   2   5   4  166.68    9.60
  -5   3  -4  789.12   27.30
  -5   3  -4  775.82   25.80
   5  -3  -4  784.82   33.10
   3   5  -4  744.23   31.40
   5  -3  -4  803.22   35.20
   5  -3  -4  755.82   29.90
  -5   3  -4  747.23   23.40
  -3  -5  -4  760.42   35.20
   3   5  -4  788.52   34.50
  -3  -5  -4  764.82   30.40
   5  -3  -4  748.63   30.10
  -5   3  -4  798.62   26.40
  -5   3   4  756.42   29.80
   3   5   4  797.42   22.70
   3   5   4  825.12   33.10
   3   5   4  744.23   23.10
  -3  -5   4  751.32   38.90
  -5   3   4  765.62   32.00
  -5   3   4  759.82   32.70
  -3  -5   4  766.82   32.90
  -5   4  -4  217.38   14.50
  -5   4  -4  203.18   14.10
   4   5  -4  212.68   22.20
  -5   4  -4  250.37   16.20
   5  -4  -4  215.78   20.90
  -4  -5  -4  192.08   14.20
   4   5  -4  210.58   18.20
  -4  -5  -4  216.48   20.80
   5  -4  -4  201.08   24.10
  -4  -5  -4  186.38   17.60
   5  -4  -4  214.48   25.50
   5  -4  -4  191.38   21.30
   4   5   4  187.98    8.80
  -4  -5   4  228.78   27.00
  -5   4   4  210.38   18.70
  -4  -5   4  213.48   20.60
  -5   4   4  201.68   19.30
  -4  -5   4  193.98   15.80
   4   5   4  218.68   17.60
  -5   4   4  203.58   15.50
   4   5   4  198.58    9.30
   5  -5  -4  225.18   22.80
  -5   5  -4  196.98   16.40
   5   5  -4  204.08   22.80
  -5   5  -4  200.98   15.40
  -5  -5  -4  206.68   16.80
   5  -5  -4  203.68   16.20
  -5  -5  -4  215.38   19.30
   5  -5  -4  230.98   24.70
  -5  -5  -4  162.48   19.30
  -5   5  -4  175.18   16.60
   5   5   4  204.98    8.40
  -5  -5   4  188.08   22.00
  -5  -5   4  229.68   18.50
  -5   5   4  226.78   21.20
   5   5   4  227.68   18.90
  -5  -5   4  203.08   24.50
  -5   5   4  188.98   16.90
   5  -6  -4  265.97   27.50
  -5   6  -4  213.18   18.30
   5  -6  -4  179.18   16.50
   6   5  -4  231.78   25.60
  -5   6  -4  182.08   19.40
  -6  -5  -4  205.98   22.20
   5  -6  -4  244.48   23.60
  -5   6  -4  191.48   19.00
  -6  -5  -4  233.28   22.00
  -6  -5  -4  226.18   16.30
  -5   6   4  213.58   22.60
  -6  -5   4  212.88   30.40
   6   5   4  182.08    7.70
   6   5   4  190.98   17.10
  -6  -5   4  182.18   23.70
   4  -6  -4  199.38   21.30
  -6  -4  -4  205.68   19.20
  -6  -4  -4  194.68   18.90
   4  -6  -4  184.88   16.90
  -4   6  -4  158.18   21.90
  -6  -4  -4  209.58   15.60
   4  -6  -4  219.78   25.70
  -4   6  -4  188.28   17.70
   6   4  -4  187.88   23.30
  -4   6  -4  205.58   17.40
  -6  -4   4  216.88   19.80
   6   4   4  222.58   16.00
  -6  -4   4  225.78   27.60
   4  -6   4  207.48   13.90
  -6  -4   4  194.08   23.80
  -4   6   4  210.58   17.70
  -4   6   4  207.68   20.50
   4  -6   4  209.28   11.20
  -6  -3  -4  137.89   11.70
   3  -6  -4  111.89   18.20
  -6  -3  -4   93.49   14.70
  -3   6  -4  148.79   17.60
   3  -6  -4  104.19   14.00
  -3   6  -4   98.49   15.80
  -6  -3  -4  114.09   15.70
  -3   6  -4   93.19   12.90
   3  -6  -4  102.99   17.80
   6   3  -4  127.99   20.30
  -3   6   4  123.29   18.00
  -6  -3   4  110.19   17.30
  -3   6   4   82.29   13.70
   3  -6   4  101.29   14.00
   6   3   4  119.19   12.10
   3  -6   4  103.29   12.80
  -6  -3   4  131.29   16.40
  -6  -3   4  129.39   21.10
   3  -6   4  103.59    9.50
  -6  -2  -4  156.48   12.70
   2  -6  -4  144.39   18.10
  -2   6  -4  140.29   17.20
   2  -6  -4  165.88   15.90
   6   2  -4  129.89   19.20
  -2   6  -4  163.38   14.20
  -6  -2  -4  113.19   14.70
  -6  -2  -4  154.28   11.40
   2  -6  -4  155.68   15.30
   2  -6  -4  154.48   19.10
  -6  -2  -4  166.78   15.30
  -6  -2   4  152.58   19.10
   2  -6   4  181.48   11.80
   2  -6   4  145.79   14.50
  -6  -2   4  169.58   21.40
  -2   6   4  135.69   15.00
  -6  -2   4  134.09   15.20
   2  -6   4  138.99   14.60
  -1   6  -4  158.58   17.50
  -6  -1  -4  153.18   14.10
  -6  -1  -4  122.89    8.20
  -1   6  -4  175.58   16.10
   1  -6  -4  153.68   16.70
   1  -6  -4  122.79   15.60
   1  -6  -4  145.19   14.80
  -6  -1  -4  136.99   10.60
  -1   6  -4  155.78   13.90
   1  -6  -4  141.09   18.20
   6   1  -4  126.49   18.50
  -6  -1  -4  151.68   14.70
  -1   6   4  168.28   14.30
  -6  -1   4  165.18   14.70
  -1   6   4  152.88   16.50
  -6  -1   4  123.39   17.40
   1  -6   4  151.48   15.20
   1  -6   4  154.48   16.80
  -6  -1   4  142.89   16.80
   1  -6   4  165.38   13.30
   0  -6  -4  339.77   19.40
   0   6  -4  335.67   20.20
   0  -6  -4  363.86   27.90
   0  -6  -4  382.16   23.30
   6   0  -4  387.56   24.40
   0  -6  -4  338.67   22.90
  -6   0  -4  365.56   15.70
  -6   0  -4  385.36   18.50
   0   6  -4  385.26   23.00
  -6   0  -4  398.36   19.00
   0   6  -4  383.26   25.10
   6   0  -4  311.77   18.90
  -6   0   4  360.36   19.90
  -6   0   4  356.66   22.80
   0   6   4  400.76   24.50
   0  -6   4  387.96   21.60
   0  -6   4  352.86   17.70
   0   6   4  382.26   20.40
  -6   0   4  363.76   24.40
   0   6   4  369.96   18.80
   0  -6   4  383.26   25.10
  -1  -6  -4  145.49   14.70
   1   6  -4  128.29   15.30
   6  -1  -4  146.89   18.40
  -6   1  -4  156.28   13.90
  -6   1  -4  146.59   10.60
  -1  -6  -4  157.78   21.90
   6  -1  -4  150.08   19.40
   1   6  -4  140.59   17.40
  -1  -6  -4  152.58   17.00
   1   6  -4  140.29   15.10
  -1  -6   4  157.98   13.10
  -6   1   4  150.08   17.70
   1   6   4  146.59   14.20
   1   6   4  148.19   17.40
  -1  -6   4  158.08   21.70
  -6   1   4  150.48   18.00
   1   6   4  159.98   13.10
  -1  -6   4  152.58   17.30
  -6   1   4  129.99   13.90
   6  -2  -4  146.89   20.20
   6  -2  -4  179.18   14.50
  -2  -6  -4  138.89   21.40
   2   6  -4  165.18   15.30
   6  -2  -4  153.88   19.00
  -6   2  -4  146.29   14.10
  -2  -6  -4  180.98   18.60
   2   6  -4  138.19   19.10
  -6   2  -4  154.58    9.90
  -6   2  -4  140.49   10.90
  -2  -6  -4  161.58   14.00
   2   6   4  136.29   17.50
  -2  -6   4  157.08   14.60
  -2  -6   4  166.08   24.20
  -6   2   4  137.19   18.30
  -6   2   4  151.88   14.50
   2   6   4  147.59   14.00
  -2  -6   4  145.49   18.10
  -6   2   4  166.68   18.00
  -3  -6  -4   82.09   20.70
  -3  -6  -4  119.89   19.60
   6  -3  -4  113.99   13.10
   6  -3  -4  123.89   19.10
  -6   3  -4   99.19    6.90
   6  -3  -4  121.49   19.50
  -6   3  -4   93.39   10.90
   3   6  -4  109.99   17.40
  -3  -6  -4  103.69   12.80
  -6   3  -4   95.19   13.70
  -6   3   4   82.29   12.90
   3   6   4   99.39   16.00
  -3  -6   4   95.49   15.90
  -6   3   4  107.59   15.70
  -6   3   4  115.79   17.40
   3   6   4  110.89   13.00
  -3  -6   4   92.49   21.00
   3   6   4   74.59   10.60
   4   6  -4  192.98   22.70
   6  -4  -4  218.48   23.50
  -6   4  -4  210.78   14.90
  -6   4  -4  220.98   20.30
   6  -4  -4  203.78   16.40
  -6   4  -4  201.98   12.20
  -4  -6  -4  219.68   21.30
   6  -4  -4  214.38   22.60
  -4  -6  -4  223.28   23.10
  -6   4   4  184.28   18.50
  -4  -6   4  180.88   23.50
  -4  -6   4  216.58   25.40
  -6   4   4  207.68   19.00
   4   6   4  216.78   14.80
  -6   4   4  210.38   22.20
  -4  -6   4  199.48   18.00
   4   6   4  198.48   20.20
  -5  -6  -4  226.18   20.50
   6  -5  -4  161.48   23.80
  -6   5  -4  220.28   15.90
   5   6  -4  194.78   25.20
   6  -5  -4  199.08   23.10
  -6   5  -4  213.98   19.30
  -5  -6  -4  190.48   22.10
  -5  -6  -4  206.58   23.20
   6  -5  -4  175.98   16.20
   5   6   4  205.78   20.30
  -5  -6   4  231.48   25.60
   5   6   4  215.08   13.80
  -6   5   4  197.08   22.90
   5   6   4  198.88   13.00
  -5  -6   4  223.78   26.90
   6   6  -4  102.59   21.20
  -6  -6  -4  126.29   21.90
   6  -6  -4  103.49   13.10
  -6   6  -4  140.99   14.60
  -6  -6  -4  124.69   19.40
   6  -6  -4  109.89   20.20
  -6   6  -4  101.39   16.40
   6  -6  -4   86.79   21.50
   6  -6   4  135.69   18.60
  -6   6   4  131.89   20.30
   6   6   4   71.49   16.90
  -6  -6   4  117.09   21.80
   6   6   4   96.69   13.90
   6  -6   4  100.89    8.00
  -6  -6   4   72.19   25.00
  -6   7  -4  106.99   18.10
   6  -7  -4  131.99   22.60
  -6   7  -4  131.49   19.50
  -7  -6  -4  148.69   21.60
   7   6  -4  151.78   24.80
   6  -7  -4  162.48   28.00
   6  -7  -4  110.79   16.80
  -7  -6  -4  139.39   23.90
  -7  -6   4  132.09   24.60
   6  -7   4  111.69   12.20
  -6   7   4  121.79   22.10
   7   6   4  144.39   19.60
   6  -7   4  107.19   13.40
   7   6   4   94.69   13.00
  -7  -5  -4  416.56   28.00
   7   5  -4  444.86   33.60
  -7  -5  -4  459.35   27.90
  -5   7  -4  425.66   27.30
   5  -7  -4  433.36   32.50
   5  -7  -4  429.76   26.50
   5  -7  -4  424.96   35.80
  -5   7  -4  415.36   35.40
  -5   7   4  453.55   30.60
   5  -7   4  427.26   22.40
  -7  -5   4  417.66   39.70
  -7  -5   4  394.86   32.40
   5  -7   4  394.86   14.60
   7   5   4  411.66   24.40
  -4   7  -4  122.59   16.80
   4  -7  -4  104.99   17.30
  -4   7  -4  114.29   18.30
  -7  -4  -4  137.89   17.60
   7   4  -4  123.09   20.50
  -7  -4  -4  133.79   17.80
   4  -7  -4  140.59   20.70
   4  -7  -4  154.68   25.00
  -7  -4   4  144.99   22.10
   7   4   4  131.29   13.80
  -4   7   4  132.89   19.50
   4  -7   4  128.09   15.50
  -7  -4   4  108.09   24.50
   4  -7   4  112.29   12.30
  -7  -3  -4  239.08   15.90
   3  -7  -4  199.18   22.80
  -3   7  -4  197.58   20.80
  -3   7  -4  203.48   20.70
  -7  -3  -4  211.28   19.40
   3  -7  -4  195.08   19.80
  -7  -3  -4  235.88   18.70
   3  -7  -4  199.88   22.40
  -3   7  -4  216.58   23.50
   7   3  -4  273.87   26.10
  -3   7   4  213.58   21.80
  -7  -3   4  229.58   24.60
   3  -7   4  239.68   17.20
  -3   7   4  216.38   20.60
   3  -7   4  210.08   18.40
   3  -7   4  215.98   14.70
  -7  -3   4  239.48   24.30
  -2   7  -4  188.78   18.70
   2  -7  -4  192.58   21.50
  -7  -2  -4  224.28   14.30
   2  -7  -4  200.48   22.50
   7   2  -4  183.78   22.70
  -2   7  -4  248.48   24.20
   2  -7  -4  182.38   20.10
  -7  -2  -4  207.18   17.70
   2  -7   4  170.78   16.50
   2  -7   4  226.98   14.90
  -7  -2   4  169.28   23.60
  -2   7   4  167.58   18.30
   2  -7   4  183.58   18.30
  -7  -2   4  206.18   22.90
   7   1  -4  484.05   29.60
  -7  -1  -4  419.16   20.80
  -1   7  -4  413.06   26.30
  -1   7  -4  416.66   26.40
   1  -7  -4  401.76   26.40
   1  -7  -4  424.76   29.30
  -1   7  -4  448.66   27.50
   1  -7  -4  453.55   27.10
  -7  -1  -4  436.76   22.30
  -7  -1  -4  397.96   27.30
  -1   7   4  421.86   23.20
  -7  -1   4  494.95   29.30
  -7  -1   4  437.96   25.00
   1  -7   4  445.86   26.40
   1  -7   4  465.15   25.20
  -1   7   4  445.56   25.30
   1  -7   4  380.36   20.10
  -7  -1   4  449.26   28.30
   0   7  -4  176.88   27.10
  -7   0  -4  211.88   14.60
  -7   0  -4  215.38   16.50
   0  -7  -4  216.38   20.80
   0   7  -4  218.28   22.40
   7   0  -4  207.58   22.70
  -7   0  -4  215.58   13.50
   0  -7  -4  171.98   25.40
  -7   0   4  220.88   19.10
   0  -7   4  220.48   23.20
   0  -7   4  207.78   15.80
   0   7   4  198.88   17.00
  -7   0   4  231.18   28.00
  -7   0   4  235.78   22.40
   0   7   4  221.58   19.20
   0  -7   4  222.78   21.00
  -1  -7  -4  427.26   29.40
  -1  -7  -4  438.16   26.80
  -1  -7  -4  430.36   25.00
   7  -1  -4  464.45   26.70
  -7   1  -4  446.96   21.50
   1   7  -4  454.55   29.00
  -7   1  -4  446.86   25.80
   7  -1  -4  461.95   28.30
  -7   1  -4  414.06   26.40
  -7   1   4  403.26   24.30
   1   7   4  420.26   22.00
  -1  -7   4  453.15   27.50
  -7   1   4  449.95   26.40
  -1  -7   4  478.75   22.40
  -7   1   4  464.75   28.90
   1   7   4  453.45   23.40
  -1  -7   4  465.55   32.40
  -2  -7  -4  193.58   21.80
  -7   2  -4  212.48   10.90
   2   7  -4  205.98   22.10
  -2  -7  -4  208.48   20.50
   7  -2  -4  165.88   21.20
  -7   2  -4  232.48   17.20
  -2  -7  -4  222.08   21.20
  -7   2  -4  193.78   13.70
   7  -2  -4  196.68   22.80
   2   7   4  207.78   17.30
  -2  -7   4  194.68   22.50
  -2  -7   4  208.18   17.30
  -7   2   4  198.38   22.40
   2   7   4  161.58   16.10
  -7   2   4  205.88   21.50
  -2  -7   4  204.58   28.80
  -3  -7  -4  227.88   21.60
  -7   3  -4  218.78   17.70
   7  -3  -4  230.58   18.20
   7  -3  -4  212.98   23.50
  -3  -7  -4  227.48   26.40
   7  -3  -4  236.18   23.20
   3   7  -4  232.68   25.10
  -7   3  -4  244.18   15.60
  -7   3   4  241.88   20.40
  -7   3   4  235.48   22.90
  -3  -7   4  249.58   18.80
  -3  -7   4  214.48   23.40
   3   7   4  236.78   18.10
  -3  -7   4  222.38   30.70
   3   7   4  188.88   17.20
  -7   4  -4  111.29   13.80
   7  -4  -4  135.59   22.60
  -4  -7  -4  168.78   20.60
   4   7  -4  127.29   19.70
   7  -4  -4  165.28   15.40
   7  -4  -4  156.38   23.40
  -4  -7  -4  113.09   22.00
  -7   4  -4  148.69   16.60
  -7   4  -4  139.49    5.70
  -7   4   4  140.99   20.20
   4   7   4  102.49   13.20
  -4  -7   4  150.68   21.60
   4   7   4  142.19   15.40
  -4  -7   4  147.49   25.10
  -7   4   4  139.79   19.60
  -7   5  -4  425.66   16.70
   7  -5  -4  410.46   31.60
  -5  -7  -4  435.16   30.70
  -7   5  -4  482.95   27.50
  -5  -7  -4  382.96   32.10
   7  -5  -4  397.36   22.70
   5   7  -4  418.26   34.20
   7  -5  -4  444.36   32.00
  -5  -7   4  423.16   34.80
   5   7   4  471.45   22.30
  -5  -7   4  447.16   37.10
  -7   5   4  447.96   30.70
  -6  -7  -4  143.49   23.10
  -7   6  -4  137.29   13.90
   6   7  -4  131.89   24.80
  -6  -7  -4  138.79   24.10
   7  -6  -4  147.39   25.70
  -7   6  -4  137.59   22.70
   7  -6  -4  101.99   15.40
   7  -6  -4  129.09   22.20
   7  -6   4   96.79   10.50
   6   7   4  132.09   14.40
  -7   6   4  124.59   22.50
  -6  -7   4   89.19   36.10
  -6  -7   4  152.28   25.40
  -7   7  -4  230.58   27.90
   7  -7  -4  199.88   29.80
   7  -7  -4  209.08   32.60
   7  -7  -4  208.38   23.30
   7   7  -4  204.18   31.40
  -7  -7  -4  196.98   27.20
  -7  -7  -4  206.38   27.10
   7  -7   4  209.58   17.90
   7   7   4  230.08   17.40
  -7  -7   4  190.68   35.00
  -7  -7   4  186.98   34.60
  -7   7   4  188.78   31.10
  -8  -7  -4   45.10   21.60
   7  -8  -4   26.50   21.80
  -8  -7  -4   26.70   20.60
  -7   8  -4   34.00   19.20
   7  -8  -4   25.70   18.70
   8   7  -4   39.20   22.40
  -8  -7   4   29.40   22.20
   8   7   4   16.70   10.50
   7  -8   4   43.20   13.20
  -8  -7   4   35.30   29.50
  -7   8   4   69.99   21.70
   6  -8  -4   77.39   23.00
  -8  -6  -4   52.09   19.70
  -6   8  -4   43.80   19.10
  -6   8  -4   68.49   30.10
   8   6  -4   58.19   21.20
   6  -8  -4   56.89   20.00
  -8  -6   4   25.20   21.10
  -6   8   4   46.00   22.60
   6  -8   4   68.69   13.00
  -8  -6   4   76.69   28.30
  -5   8  -4  138.79   22.70
  -8  -5  -4   87.59   18.10
   5  -8  -4  112.29   24.10
  -5   8  -4  124.29   21.10
  -8  -5   4   90.29   33.80
  -5   8   4   82.49   20.90
   8   5   4   95.69   14.80
   5  -8   4   97.09   14.10
   5  -8   4   84.89    9.10
   5  -8   4  118.49   15.30
  -8  -5   4  108.39   25.40
   4  -8  -4  100.29   26.60
   8   4  -4   90.59   21.30
  -8  -4  -4  111.49   17.10
   4  -8  -4  104.39   21.80
  -4   8  -4  106.29   18.00
  -4   8  -4  126.29   21.30
  -8  -4   4   88.99   22.70
   4  -8   4   70.29   14.80
   4  -8   4   94.89   15.60
   8   4   4   91.69   12.50
   4  -8   4  101.49   14.90
  -8  -4   4   99.09   26.00
  -4   8   4   96.39   19.30
   8   3  -4  157.58   25.30
   3  -8  -4  173.88   24.60
  -8  -3  -4  185.78   20.10
  -8  -3  -4  183.18   20.20
   3  -8  -4  167.18   27.00
  -8  -3   4  195.18   26.80
   3  -8   4  159.98   20.20
  -8  -3   4  138.69   24.80
   3  -8   4  188.58   17.10
   3  -8   4  196.28   16.50
  -8  -2  -4  165.68   15.40
  -2   8  -4  177.48   22.20
   8   2  -4  148.79   22.10
  -8  -2  -4  136.89   18.90
   2  -8  -4  142.19   21.20
   2  -8  -4  136.99   26.50
   2  -8   4  134.89   19.70
  -8  -2   4  152.68   25.00
  -2   8   4  126.79   19.00
   2  -8   4  139.49   20.90
  -8  -2   4  167.88   24.50
  -2   8   4  149.69   21.30
   2  -8   4  127.29   15.60
   1  -8  -4  290.67   32.60
  -8  -1  -4  283.07   18.90
  -8  -1  -4  249.48   20.80
   1  -8  -4  306.37   26.00
  -1   8  -4  302.67   25.70
  -8  -1  -4  280.07   17.20
   8   1  -4  270.37   26.90
   1  -8   4  268.07   24.20
   1  -8   4  285.67   24.10
  -8  -1   4  276.47   27.30
  -1   8   4  306.07   23.70
  -1   8   4  295.87   23.60
  -8  -1   4  269.37   26.30
   1  -8   4  284.57   18.90
   0  -8  -4   38.70   17.00
   0   8  -4   28.20   14.20
  -8   0  -4   38.90   11.60
   8   0  -4   16.50   14.20
  -8   0  -4   37.00    8.90
   0  -8  -4   46.70   15.60
  -8   0  -4   41.50    8.50
   0  -8   4   32.70   14.30
   0  -8   4   26.10   15.60
  -8   0   4   48.50   17.00
  -8   0   4   39.70   15.10
   0   8   4   42.80   12.50
   0   8   4   46.80   14.20
   0  -8   4   27.00   10.40
  -8   1  -4  291.37   17.20
   8  -1  -4  280.57   25.60
  -8   1  -4  282.37   20.10
  -1  -8  -4  265.87   25.20
   8  -1  -4  264.87   26.50
   1   8  -4  277.97   26.10
  -1  -8  -4  240.18   30.80
  -1  -8   4  333.87   22.30
  -8   1   4  264.17   26.20
  -1  -8   4  254.97   30.70
   1   8   4  290.87   22.50
  -1  -8   4  285.97   26.60
   1   8   4  246.38   21.30
  -8   1   4  328.97   26.50
  -8   2  -4  139.69   13.30
   2   8  -4  169.28   23.80
  -2  -8  -4  143.99   25.40
   8  -2  -4  161.08   24.20
   8  -2  -4  147.09   22.00
  -2  -8  -4  150.08   22.20
  -8   2  -4   99.59   14.30
  -8   2  -4  146.79   18.10
  -2  -8   4  159.68   26.50
  -2  -8   4  146.99   20.20
  -2  -8   4  185.48   23.90
   2   8   4  112.19   17.70
   2   8   4  146.49   19.00
  -8   2   4  162.08   21.50
  -8   2   4  163.18   23.10
  -8   3  -4  201.98   17.90
  -8   3  -4  201.08   19.10
   3   8  -4  214.08   26.30
   8  -3  -4  160.78   25.00
  -3  -8  -4  266.97   26.70
   8  -3  -4  172.98   22.90
  -3  -8  -4  159.78   27.90
  -8   3   4  223.38   25.40
  -8   3   4  193.38   26.60
   3   8   4  154.98   19.10
  -3  -8   4  207.48   25.80
   3   8   4  198.38   19.50
  -3  -8   4  154.08   29.30
  -8   4  -4   88.69   15.10
   8  -4  -4   77.79   18.40
  -4  -8  -4   89.69   19.20
   8  -4  -4  107.39   20.50
  -4  -8  -4   90.29   23.40
   4   8  -4   97.49   22.90
  -4  -8   4   71.29   20.60
   4   8   4  106.09   15.10
   4   8   4   98.89   14.30
  -8   4   4   82.19   18.30
  -8   4   4   97.19   16.10
  -4  -8   4   63.69   27.60
  -5  -8  -4  105.89   23.90
   8  -5  -4  107.59   22.30
  -5  -8  -4   89.69   20.60
   8  -5  -4   79.79   15.10
  -8   5  -4  125.89   25.30
  -5  -8   4  119.69   24.40
  -8   5   4   96.69   21.80
  -5  -8   4   93.39   30.40
  -6  -8  -4   39.90   23.10
   8  -6  -4   48.90   18.70
  -6  -8  -4   62.49   19.70
   8  -6  -4   74.39   14.70
  -8   6  -4   62.69   16.90
   6   8  -4   15.10   21.30
   8  -6  -4   40.80   20.50
  -8   6   4   33.90   19.40
   6   8   4   45.80   12.20
  -6  -8   4   -8.00   24.10
  -8   7  -4   52.29   19.80
   7   8  -4   21.80   21.70
   8  -7  -4   39.50   20.60
  -7  -8  -4   40.00   24.90
  -7  -8  -4   75.39   23.80
   8  -7  -4   23.80   22.30
   7   8   4   38.20   12.40
  -8   7   4   25.80   20.50
  -7  -8   4   73.99   29.90
  -7  -8   4   36.40   23.30
  -8   8  -4  131.69   25.20
  -8  -8  -4  152.18   27.10
   8  -8  -4  105.79   26.40
   8   8  -4  112.09   27.20
   8  -8  -4  172.28   29.20
  -8  -8  -4  184.08   32.10
  -8  -8   4  150.18   29.10
  -8  -8   4  136.49   29.70
  -8   8   4  161.78   29.70
   8  -9  -4   21.70   22.50
  -8   9  -4   13.30   21.90
  -9  -8  -4    7.30   23.60
   9   8  -4  -29.80   23.50
   8  -9  -4   43.70   26.50
  -8   9   4  -10.20   21.00
  -9  -8   4   16.50   24.90
  -9  -8   4  -49.50   29.90
   7  -9  -4  218.78   35.70
  -7   9  -4  203.88   29.20
  -9  -7  -4  169.38   28.30
   9   7  -4  175.38   30.80
   7  -9  -4  157.38   29.10
  -7   9   4  131.49   24.70
  -9  -7   4  209.28   37.40
  -9  -7   4  144.09   27.60
   6  -9  -4   38.90   25.30
   9   6  -4   54.09   24.00
  -6   9  -4   32.10   22.90
  -9  -6  -4  111.09   24.10
   6  -9  -4   90.99   24.80
  -9  -6   4  137.99   27.00
   6  -9   4   96.99   16.90
  -6   9   4   64.69   21.60
  -9  -6   4   49.70   25.60
  -9  -5  -4  180.08   29.60
   5  -9  -4  188.28   27.50
  -5   9  -4  229.58   29.40
   5  -9  -4  262.77   36.80
   9   5  -4  246.18   32.70
  -9  -5   4  200.28   33.20
   5  -9   4  224.08   24.60
  -5   9   4  227.68   30.50
  -9  -5   4  213.48   31.30
   4  -9  -4   78.49   20.30
  -9  -4  -4  106.99   19.50
   4  -9  -4   68.49   21.40
   9   4  -4   68.69   20.90
   4  -9   4   65.59   16.60
  -9  -4   4  108.69   26.70
   4  -9   4   61.89   10.50
  -4   9   4   45.80   20.50
  -9  -4   4   73.29   23.60
  -9  -3  -4  321.47   27.60
   3  -9  -4  328.07   37.40
   3  -9  -4  327.27   37.10
   9   3  -4  245.88   37.40
   3  -9   4  248.68   21.80
   3  -9   4  311.97   26.70
   3  -9   4  306.87   21.70
  -9  -3   4  224.98   36.00
  -9  -3   4  352.16   35.70
  -2   9  -4  120.89   20.60
   9   2  -4  114.59   24.60
   2  -9  -4  129.79   22.80
  -9  -2  -4  156.88   21.80
  -2   9   4  113.89   19.90
   2  -9   4  102.29   18.10
   2  -9   4   95.09   14.70
  -9  -2   4  142.09   24.70
   2  -9   4  114.49   18.00
  -9  -2   4  131.19   24.10
  -1   9  -4  313.07   28.90
  -9  -1  -4  317.97   19.70
   1  -9  -4  293.67   36.30
  -9  -1  -4  293.97   24.60
   1  -9  -4  302.07   31.20
   9   1  -4  319.17   30.90
   1  -9   4  334.97   30.30
  -1   9   4  332.07   28.40
   1  -9   4  299.17   27.90
  -9  -1   4  270.57   31.00
   1  -9   4  304.27   22.50
  -9  -1   4  295.47   28.50
   9   0  -4  164.28   25.40
  -9   0  -4  192.78   21.20
   9   0  -4  186.78   28.20
   0  -9  -4  151.68   29.40
  -9   0  -4  114.19   14.20
   0   9  -4  149.69   22.60
   0  -9  -4  186.58   27.20
  -9   0   4  149.99   22.90
  -9   0   4  164.28   24.70
   0   9   4  192.28   22.40
   0   9   4  132.59   20.50
   0  -9   4  157.38   22.10
   0  -9   4  182.48   26.80
   0  -9   4  163.58   24.80
   9  -1  -4  343.07   27.90
  -1  -9  -4  294.17   35.80
   9  -1  -4  273.47   31.00
  -1  -9  -4  310.27   29.90
  -9   1  -4  297.67   23.90
   1   9  -4  330.07   30.80
  -9   1   4  344.37   31.50
  -1  -9   4  294.77   30.40
   1   9   4  262.47   27.10
  -1  -9   4  355.46   36.10
   1   9   4  343.87   27.10
  -9   1   4  348.67   26.30
  -2  -9  -4  118.29   28.80
   9  -2  -4  115.79   20.40
  -2  -9  -4  128.89   22.20
   2   9  -4  128.49   22.80
   9  -2  -4  108.99   23.40
  -9   2  -4  122.69   10.50
  -9   2  -4  128.39   19.80
  -2  -9   4  112.29   28.30
   2   9   4  122.59   19.10
  -9   2   4  142.39   23.30
  -2  -9   4  143.19   23.20
  -9   2   4  135.39   24.00
   3   9  -4  272.97   32.50
  -3  -9  -4  231.78   34.40
  -3  -9  -4  327.87   30.30
   9  -3  -4  207.48   33.70
   9  -3  -4  327.77   28.00
  -9   3  -4  308.87   25.30
  -9   3   4  313.57   37.30
  -3  -9   4  295.07   41.40
  -9   3   4  313.27   24.60
  -3  -9   4  353.06   32.70
   3   9   4  260.77   26.70
   3   9   4  342.27   26.20
   9  -4  -4   46.20   20.90
  -4  -9  -4   83.59   20.80
   9  -4  -4   72.59   18.90
  -9   4  -4   68.19   17.10
  -4  -9  -4   95.49   30.50
   4   9  -4   81.09   20.40
   4   9   4  100.79   15.70
  -9   4   4   96.79   17.70
  -4  -9   4   54.59   23.60
  -9   4   4   61.39   20.70
  -4  -9   4   56.79   27.80
   9  -5  -4  197.28   30.90
  -5  -9  -4  222.28   31.20
  -9   5  -4  243.68   28.30
   9  -5  -4  225.48   29.20
   5   9  -4  211.78   32.70
  -5  -9   4  177.18   28.90
  -5  -9   4  146.49   33.00
  -9   5   4  210.68   30.50
   5   9   4  224.78   23.10
   9  -6  -4   77.29   23.00
  -6  -9  -4   98.59   24.60
  -9   6  -4  123.69   21.60
   6   9  -4   98.69   26.60
  -6  -9  -4   99.49   35.60
   6   9   4   74.19   15.40
  -6  -9   4   62.39   28.60
  -9   6   4   96.89   21.90
  -6  -9   4   64.59   24.60
   9  -7  -4  174.08   28.10
  -7  -9  -4  219.48   36.00
   9  -7  -4  161.58   27.90
  -7  -9  -4  217.88   32.30
  -9   7  -4  193.48   30.10
   7   9  -4  135.09   29.30
  -7  -9   4  185.18   34.60
  -7  -9   4  124.39   26.60
  -9   7   4  151.48   26.70
   7   9   4  174.08   24.50
  -9   8  -4   31.90   21.20
   9  -8  -4   25.10   22.30
   9  -8  -4    5.00   24.80
   8   9  -4   59.09   25.20
  -8  -9  -4   26.20   25.20
  -8  -9   4   17.40   23.60
  -9   8   4   20.10   22.70
  -8  -9   4   14.40   31.40
  -9  -9  -4  183.58   34.90
   9  -9  -4  110.29   28.40
   9   9  -4   91.59   30.80
  -9   9  -4   86.59   29.00
  -9  -9   4  113.59   40.50
  -9  -9   4  123.39   31.80
  -9  10  -4  -28.60   31.20
   9 -10  -4   52.99   32.90
  10   9  -4   27.50   38.00
   9 -10  -4   40.60   34.30
  -9  10   4   46.40   29.70
 -10  -9   4    1.50   32.50
   8 -10  -4   46.50   27.20
  10   8  -4   -1.30   24.70
  -8  10  -4   34.00   27.10
   8 -10  -4  -20.10   25.40
 -10  -8  -4   80.39   29.50
  -8  10   4   13.30   26.00
 -10  -8   4   30.50   37.30
 -10  -8   4    0.10   27.30
   7 -10  -4   48.80   24.40
   7 -10  -4   30.30   26.50
  -7  10  -4  100.39   25.20
 -10  -7  -4   58.29   25.40
  10   7  -4   38.20   24.80
 -10  -7   4    1.70   29.60
 -10  -7   4   18.90   26.70
  -7  10   4   71.99   23.10
  10   6  -4   22.90   23.80
   6 -10  -4   75.59   25.60
   6 -10  -4   51.19   24.10
 -10  -6  -4   55.49   22.70
  -6  10  -4   54.29   22.60
 -10  -6   4   45.40   25.20
  -6  10   4   82.79   22.50
 -10  -6   4    6.70   22.20
   6 -10   4   36.30   20.30
  10   5  -4   94.19   24.70
   5 -10  -4   80.19   24.30
 -10  -5  -4   84.09   25.10
   5 -10  -4  122.19   32.20
 -10  -5   4   90.59   25.50
   5 -10   4   92.99   19.20
 -10  -5   4  100.79   24.40
  -5  10   4   88.59   22.50
   4 -10  -4   70.69   23.20
   4 -10  -4   92.99   30.10
  10   4  -4  108.59   25.20
 -10  -4  -4  101.19   21.80
 -10  -4   4  108.79   24.90
 -10  -4   4  129.49   31.20
   4 -10   4   82.69   13.00
   4 -10   4  122.09   20.20
   3 -10  -4   37.00   18.70
  10   3  -4   15.40   19.70
 -10  -3  -4   18.60   17.60
   3 -10  -4   34.40   24.90
  -3  10  -4   17.30   19.10
 -10  -3   4   30.00   21.00
 -10  -3   4   -7.80   19.30
  -3  10   4   13.90   20.50
   3 -10   4   24.80   16.40
   3 -10   4    0.90   12.50
   2 -10  -4   34.00   25.30
  10   2  -4   30.20   19.70
   2 -10  -4   37.90   21.10
 -10  -2  -4   49.10   17.20
   2 -10   4   35.70   17.50
 -10  -2   4    8.70   20.40
 -10  -2   4   63.19   36.10
  -2  10   4   46.50   21.10
   2 -10   4   55.09   17.30
   1 -10  -4   28.30   24.40
 -10  -1  -4   68.89   17.40
  10   1  -4   39.30   21.00
   1 -10  -4   32.70   19.90
 -10  -1   4   26.80   18.40
   1 -10   4   39.70   17.90
 -10  -1   4   30.20   21.60
  -1  10   4   77.89   20.80
   1 -10   4   34.80   17.40
  10   0  -4  199.48   31.60
   0 -10  -4  169.48   32.30
  10   0  -4  181.88   25.50
   0 -10  -4  192.78   34.40
 -10   0  -4  228.68   26.20
 -10   0   4  243.28   28.10
 -10   0   4  193.88   31.70
   0  10   4  262.97   26.70
   0 -10   4  254.47   34.20
   0 -10   4  224.98   29.50
  10  -1  -4   66.59   20.00
 -10   1  -4   30.80   16.70
  10  -1  -4   37.30   19.70
   1  10  -4   73.29   21.70
  -1 -10  -4   47.90   27.20
  -1 -10   4   37.90   22.30
   1  10   4   42.00   17.10
 -10   1   4   32.80   19.40
  -1 -10   4   51.39   19.60
 -10   1   4   55.79   18.60
   2  10  -4   50.29   20.60
  -2 -10  -4   20.50   25.50
  10  -2  -4   67.49   21.80
  -2 -10  -4   56.39   26.20
 -10   2  -4   34.20   16.10
  10  -2  -4   32.60   17.10
 -10   2   4   48.00   20.40
 -10   2   4   12.30   15.10
   2  10   4   48.40   17.30
  -2 -10   4   42.90   20.60
  -3 -10  -4   15.20   23.80
  10  -3  -4   34.60   17.70
 -10   3  -4   16.00   15.40
  10  -3  -4   19.70   19.40
   3  10  -4   58.39   20.20
  -3 -10  -4   37.30   20.40
   3  10   4   18.80   16.50
 -10   3   4   36.30   19.40
 -10   3   4   20.00   15.90
  -3 -10   4   25.40   25.50
   4  10  -4  114.59   24.80
 -10   4  -4  118.79   23.40
  10  -4  -4  136.09   23.20
  -4 -10  -4  118.49   29.40
  10  -4  -4   94.79   23.20
  -4 -10  -4  120.59   24.70
 -10   4   4   68.49   21.30
  -4 -10   4   64.39   25.40
   4  10   4  113.59   18.60
 -10   4   4   86.69   17.90
  -5 -10  -4  145.89   29.50
   5  10  -4   99.29   24.90
  -5 -10  -4   91.79   25.40
 -10   5  -4  103.29   21.90
  10  -5  -4   99.19   26.40
  10  -5  -4  108.89   25.40
  -5 -10   4  101.49   31.10
 -10   5   4  110.09   24.50
  -5 -10   4   89.49   23.60
   5  10   4   85.09   17.70
  10  -6  -4   43.50   21.30
  10  -6  -4   21.10   23.40
 -10   6  -4   81.39   24.10
  -6 -10  -4  100.99   25.40
   6  10  -4   40.60   25.90
  -6 -10  -4   55.39   29.30
   6  10   4   68.99   18.70
  -6 -10   4    9.10   22.40
 -10   6   4   42.90   22.30
  -6 -10   4   13.00   30.70
 -10   7  -4   42.40   24.50
  10  -7  -4   73.49   24.20
  -7 -10  -4   49.20   30.50
   7  10  -4   83.39   27.50
  10  -7  -4   89.99   24.40
  -7 -10  -4  105.39   28.40
  -7 -10   4   24.20   25.10
 -10   7   4   41.50   23.50
  -7 -10   4   49.20   26.90
  10  -8  -4    5.80   28.30
   8  10  -4   75.99   30.60
  10  -8  -4    6.10   24.70
 -10   8  -4   -6.70   27.80
  -8 -10  -4   48.00   30.90
  -8 -10   4    3.10   26.70
  -8 -10   4  -33.90   36.70
 -10   8   4   12.40   25.30
  10  -9  -4    8.40   39.20
   9  10  -4    3.20   39.90
  -9 -10  -4    5.20   31.20
 -10   9  -4  -12.80   29.40
  10  -9  -4   97.19   34.40
 -10   9   4   40.50   30.30
  -9 -10   4    5.60   32.10
 -10 -10  -4   62.99   53.49
  10 -10  -4   29.50   41.70
 -10  10  -4   85.49   49.99
 -11  -9  -4   64.29   59.29
 -11  -8  -4    3.20   33.10
   8 -11  -4  107.49   39.20
  -8  11  -4    2.70   32.10
 -11  -8   4   -1.70   41.10
  -8  11   4   36.20   29.00
   7 -11  -4  251.67   43.20
  11   7  -4  196.58   35.50
 -11  -7  -4  226.78   34.90
  -7  11  -4  160.78   34.60
   7 -11  -4  104.09   33.90
 -11  -7   4  157.18   34.40
 -11  -7   4  106.29   48.00
   6 -11  -4  116.89   30.10
 -11  -6  -4   31.00   24.60
  11   6  -4   33.90   25.70
   6 -11  -4   41.20   29.00
 -11  -6   4   69.69   32.00
 -11  -6   4  100.79   29.40
   5 -11  -4  115.69   32.00
  11   5  -4  161.98   28.70
 -11  -5  -4  147.89   37.50
   5 -11  -4  159.98   30.90
   5 -11   4  131.79   25.60
 -11  -5   4  103.69   29.00
 -11  -5   4  135.69   33.90
  11   4  -4    3.90   22.70
   4 -11  -4   69.39   23.60
  -4  11  -4   43.70   21.60
   4 -11  -4   31.80   28.90
 -11  -4  -4   30.80   23.10
 -11  -4   4   19.30   22.40
   4 -11   4   80.49   21.90
  -4  11   4   43.20   20.50
 -11  -4   4   41.50   26.30
  -3  11  -4  164.58   27.90
  11   3  -4  149.19   30.00
 -11  -3  -4  204.68   31.20
   3 -11  -4  241.88   36.10
   3 -11  -4  178.58   30.60
  -3  11   4  151.48   26.60
   3 -11   4  238.98   33.40
 -11  -3   4  168.48   30.80
   3 -11   4  174.08   27.30
 -11  -3   4  145.39   28.50
   2 -11  -4  -22.10   26.60
   2 -11  -4   17.20   20.10
  11   2  -4   16.20   20.80
 -11  -2  -4   43.00   20.80
  -2  11  -4   32.50   20.90
   2 -11   4   35.10   20.80
  -2  11   4   11.50   19.60
   2 -11   4   34.30   17.40
 -11  -2   4   20.80   22.00
 -11  -2   4   26.50   21.80
   1 -11  -4  160.18   34.00
 -11  -1  -4  136.59   23.20
  -1  11  -4  147.99   25.40
  11   1  -4  144.39   25.30
  11   1  -4  107.89   24.20
   1 -11  -4  138.69   27.20
 -11  -1   4  144.59   27.60
   1 -11   4  135.99   26.30
  -1  11   4  149.09   23.80
   1 -11   4  142.59   24.90
 -11  -1   4  165.98   28.00
   0 -11  -4   17.70   28.00
  11   0  -4   17.60   18.30
   0  11  -4   56.39   21.20
   0 -11  -4   23.70   21.90
  11   0  -4   18.80   19.50
 -11   0  -4    9.60   18.40
   0  11   4   43.90   23.50
 -11   0   4   98.39   22.00
   0 -11   4   47.50   25.20
   0 -11   4    9.20   23.40
 -11   0   4   47.70   21.70
  11  -1  -4  143.69   25.60
 -11   1  -4  122.49   22.80
  -1 -11  -4  116.29   32.10
   1  11  -4  170.78   27.20
  -1 -11  -4  123.29   24.50
  11  -1  -4  162.48   26.90
  -1 -11   4  132.59   25.60
   1  11   4  148.19   30.90
 -11   1   4  171.18   27.80
 -11   1   4  143.39   23.60
  -1 -11   4  153.68   28.90
 -11   2  -4   35.40   20.80
  -2 -11  -4   38.20   22.30
  -2 -11  -4   54.39   21.90
   2  11  -4   38.10   22.20
  11  -2  -4   27.80   20.90
  11  -2  -4   -4.00   18.70
   2  11   4   -7.20   16.80
  -2 -11   4   23.70   23.80
 -11   2   4    9.00   15.50
  -2 -11   4   35.40   20.80
 -11   2   4   -9.70   20.70
 -11   3  -4  139.99   24.60
  11  -3  -4  186.08   28.10
  -3 -11  -4  232.38   39.70
   3  11  -4  225.88   36.10
  -3 -11  -4  214.88   35.20
  11  -3  -4  179.38   29.60
  -3 -11   4  145.49   33.30
 -11   3   4  195.38   30.00
  -3 -11   4  167.78   26.40
   3  11   4  198.28   30.40
 -11   3   4  148.59   23.20
  -4 -11  -4   34.80   27.70
  11  -4  -4   45.50   23.60
  -4 -11  -4   30.90   23.70
   4  11  -4   83.39   25.00
 -11   4  -4   21.60   21.40
 -11   4   4   49.80   19.00
  -4 -11   4   48.50   22.70
  -4 -11   4   30.10   27.70
 -11   4   4    7.70   22.70
   4  11   4   20.60   20.30
  11  -5  -4  126.69   27.50
 -11   5  -4  166.08   27.70
  11  -5  -4  155.48   28.50
  -5 -11  -4  145.39   30.20
  -5 -11  -4  186.88   38.90
   5  11  -4   94.39   28.20
 -11   5   4   91.69   27.30
   5  11   4   75.79   23.40
  -5 -11   4  129.39   27.60
  -5 -11   4   91.59   32.70
  11  -6  -4   78.59   26.60
   6  11  -4   92.79   30.20
  -6 -11  -4   79.09   35.20
  -6 -11  -4   56.29   29.90
  11  -6  -4   99.49   27.60
 -11   6  -4   54.39   23.10
  -6 -11   4   91.39   36.20
  -6 -11   4   55.79   26.00
 -11   6   4  108.49   28.20
  -7 -11  -4  166.58   40.80
   7  11  -4  149.59   34.70
  11  -7  -4  255.37   38.40
  11  -7  -4  126.09   31.60
 -11   7  -4  168.98   32.00
  -7 -11  -4  249.58   39.90
  -7 -11   4  155.78   31.30
 -11   7   4   96.79   31.00
  11  -8  -4   80.49   37.80
  -8 -11  -4   48.00   36.50
 -11   8  -4    0.80   30.20
  -8 -11   4   24.30   36.10
 -11   9  -4  109.19   52.39
 -12  -7  -4   21.00   42.90
   6 -12  -4   24.60   38.10
 -12  -6  -4   81.09   31.40
   6 -12  -4   -8.30   36.50
  12   6  -4   44.60   32.70
 -12  -6   4   22.30   38.60
 -12  -6   4  -24.10   34.10
 -12  -5  -4   53.99   30.90
   5 -12  -4   18.50   30.20
  -5  12  -4   40.30   31.60
   5 -12  -4   43.70   36.40
  12   5  -4   13.40   27.10
 -12  -5   4   11.80   34.80
  -5  12   4   40.70   25.30
 -12  -5   4    7.40   29.60
  -4  12  -4   52.09   27.90
  12   4  -4   69.49   27.10
   4 -12  -4   39.30   29.90
 -12  -4  -4   86.99   28.00
   4 -12  -4  116.09   34.50
 -12  -4   4    8.20   30.30
  -4  12   4   14.10   22.50
   4 -12   4   19.30   25.60
 -12  -4   4   17.00   27.70
   3 -12  -4   63.59   33.00
  -3  12  -4   58.89   26.20
 -12  -3  -4   53.89   25.50
  12   3  -4   22.30   26.10
   3 -12  -4   73.09   28.00
  -3  12   4   -4.10   22.50
 -12  -3   4   34.70   26.90
   3 -12   4   43.50   24.50
 -12  -3   4   25.80   25.30
   2 -12  -4   77.49   33.10
 -12  -2  -4   15.80   23.30
  -2  12  -4   50.79   25.00
  12   2  -4   58.19   22.20
  12   2  -4  -48.40   39.10
   2 -12  -4   78.09   26.80
   2 -12   4   23.00   22.40
 -12  -2   4   53.09   26.10
 -12  -2   4   70.29   27.70
   2 -12   4   41.80   24.70
  -2  12   4   65.89   21.70
   1 -12  -4   55.19   24.70
 -12  -1  -4   39.70   22.40
  -1  12  -4   75.99   30.90
   1 -12  -4  124.99   35.10
  12   1  -4   91.59   29.60
  12   1  -4   66.19   27.40
  -1  12   4  105.39   23.40
   1 -12   4   25.10   21.70
   1 -12   4   62.69   28.60
 -12  -1   4   43.90   25.10
 -12  -1   4   36.40   25.40
   0 -12  -4    2.70   31.50
  12   0  -4    7.10   24.10
 -12   0  -4    0.80   20.20
   0 -12  -4   11.60   24.60
   0  12  -4   20.10   24.40
 -12   0   4    5.40   20.30
 -12   0   4   25.20   24.30
   0  12   4   20.30   20.90
   0 -12   4   21.80   21.40
   0 -12   4   -1.30   27.30
 -12   1  -4   85.69   23.60
  -1 -12  -4  100.79   56.79
   1  12  -4   91.19   26.20
  -1 -12  -4   94.59   27.70
  12  -1  -4   56.79   25.10
  12  -1  -4   66.69   26.50
   1  12   4   54.49   22.80
  -1 -12   4  113.69   27.10
 -12   1   4   88.49   27.00
  -1 -12   4  114.99   28.10
   2  12  -4   19.40   25.70
  -2 -12  -4   36.00   30.40
 -12   2  -4   64.09   24.50
  12  -2  -4   43.40   34.60
  -2 -12  -4   72.89   32.90
   2  12   4  -22.30   28.70
 -12   2   4   30.60   22.50
  -2 -12   4   35.50   26.80
 -12   2   4    7.50   25.60
  -2 -12   4   36.70   21.80
  12  -3  -4   22.10   24.60
   3  12  -4   59.99   26.70
  -3 -12  -4   71.59   30.70
  -3 -12  -4   61.59   27.40
  12  -3  -4   67.99   25.40
 -12   3  -4   52.19   23.40
  -3 -12   4   86.39   24.70
   3  12   4   73.09   23.60
 -12   3   4   39.30   25.80
  -3 -12   4   56.59   28.50
 -12   4  -4   25.20   24.30
  -4 -12  -4   90.19   39.10
  12  -4  -4   58.19   25.40
  12  -4  -4   31.10   25.50
   4  12  -4    8.00   28.20
  -4 -12  -4   73.39   28.30
  -4 -12   4  -11.40   29.90
 -12   4   4    7.60   24.70
  -4 -12   4   16.40   23.60
   4  12   4    7.40   23.80
  12  -5  -4   11.00   27.30
  -5 -12  -4   -3.50   38.00
   5  12  -4   68.59   31.60
  12  -5  -4   59.19   41.50
 -12   5  -4   29.10   25.80
  -5 -12  -4   66.49   31.90
  -5 -12   4   54.59   27.00
 -12   5   4   10.90   28.30
  -5 -12   4   44.10   35.50
   6  12  -4    8.50   35.60
  12  -6  -4  -18.10   31.80
 -12   6  -4   20.30   28.70
  -6 -12  -4   56.39   47.50
  -6 -12  -4  -25.20   57.29
 -12   6   4   26.60   33.00
  -6 -12   4   88.09   29.80
  -6 -12   4    3.20   45.20
 -12   7  -4   44.10   34.90
  -7 -12  -4   17.10   46.90
  -7 -12  -4   46.30   41.90
 -13  -6  -4  -12.50   87.49
 -13  -5  -4  245.28   41.10
  -5  13   4  164.18   62.49
 -13  -5   4  147.89   56.79
  -4  13  -4   -5.70   32.80
  13   4  -4   33.80   43.20
 -13  -4  -4   22.40   33.20
  -4  13   4   35.30   42.50
  13   3  -4   72.99   32.70
 -13  -3  -4   87.39   31.90
  -3  13  -4   70.89   33.00
   3 -13  -4  138.19   75.19
   3 -13  -4  102.19   35.70
  -3  13   4   39.40   27.60
 -13  -3   4   98.49   34.00
   3 -13   4   37.00   36.60
 -13  -3   4   66.19   34.30
   2 -13  -4   87.79   33.30
 -13  -2  -4   55.89   31.80
   2 -13  -4  111.49   43.00
  13   2  -4   94.39   30.90
  -2  13  -4   70.19   30.90
 -13  -2   4   74.09   28.80
   2 -13   4  112.29   44.10
  -2  13   4   78.09   27.10
 -13  -2   4   43.90   31.30
 -13  -1  -4  184.98   33.00
   1 -13  -4  196.28   36.30
  13   1  -4  104.99   33.60
   1 -13  -4  156.98   43.70
  -1  13  -4  184.88   45.90
  -1  13   4  220.18   34.00
 -13  -1   4   86.79   32.10
   1 -13   4  180.58   34.90
   1 -13   4  171.18   30.40
 -13  -1   4  176.88   37.70
 -13   0  -4   55.69   29.10
   0  13  -4   54.89   31.20
  13   0  -4   18.70   29.00
   0 -13  -4  121.29   40.20
   0 -13  -4   85.49   31.90
 -13   0   4  111.29   31.40
 -13   0   4   19.30   30.20
   0 -13   4   27.90   26.50
   0 -13   4  134.59   46.50
   0  13   4   33.50   24.60
 -13   1  -4  187.48   34.10
   1  13  -4  183.88   35.40
  13  -1  -4  113.69   31.80
  -1 -13  -4  139.49   42.60
  -1 -13  -4  154.58   34.10
 -13   1   4  176.08   34.20
  -1 -13   4  181.68   26.60
   1  13   4  199.18   31.10
  -1 -13   4  174.28   35.20
  13  -2  -4   33.00   29.60
  -2 -13  -4   61.09   56.09
   2  13  -4   84.19   32.60
  -2 -13  -4  129.19   44.10
 -13   2  -4   28.40   33.90
  -2 -13   4   54.99   26.90
 -13   2   4   30.40   29.90
  -2 -13   4  131.09   31.90
   2  13   4  125.19   28.80
 -13   3  -4  134.39   34.20
  13  -3  -4   73.79   31.90
   3  13  -4  134.59   37.30
  -3 -13  -4  103.69   35.70
  -3 -13  -4   74.19   46.70
  -3 -13   4   43.50   33.90
 -13   3   4   66.49   33.50
  -3 -13   4  145.09   30.10
   3  13   4  122.49   31.20
  -4 -13  -4  108.49   38.70
  13  -4  -4   46.50   40.80
  -4 -13  -4  177.18   86.69
 -13   4  -4  -33.00   32.20
  -4 -13   4  139.09   42.60
 -13   5  -4  144.29   39.90
  -5 -13   4  210.68   41.60
 -13   6  -4   44.40   42.70
 -14  -3  -4   -5.50   40.50
 -14  -3   4   10.40   54.49
 -14  -2  -4   19.50   39.90
  -2  14   4   45.00   41.00
 -14  -1  -4   -7.60   38.00
  -1  14   4   93.49   35.90
   1 -14   4   55.39   36.50
 -14   0  -4   65.69   39.10
   0  14   4   46.50   30.70
 -14   1  -4  -29.60   35.30
  -1 -14   4   43.40   41.70
   1  14   4   21.40   34.30
 -14   2  -4   17.70   38.40
  -2 -14   4  149.19   70.39
   2  14   4  103.69   44.70
  -2 -14   4   83.09   36.10
 -14   3  -4   15.80   45.00
   0   0  -5  964.40   26.20
   0   0  -5  974.20   34.00
   0   0  -5  937.01   26.70
   0   0   5  976.20   35.60
   0   1  -5  640.44   26.40
   0   1  -5  646.94   20.60
  -1   0  -5  640.94   17.00
   0   1  -5  668.83   19.70
  -1   0  -5  617.04   26.00
   1   0  -5  615.04   26.40
   0  -1  -5  670.93   27.80
   0  -1  -5  673.63   19.90
   0  -1  -5  661.33   20.00
   0  -1  -5  655.03   26.50
   1   0  -5  656.13   22.90
  -1   0  -5  631.44   17.30
   1   0   5  644.34   27.40
   0  -1   5  624.04   27.90
   0   1   5  634.34   27.10
  -1   0   5  620.84   28.40
   1   1  -5  124.69   12.60
   1  -1  -5  141.09   13.20
   1  -1  -5  140.79   14.30
  -1  -1  -5  119.69   12.90
  -1   1  -5  132.19    6.70
   1   1  -5  116.49    8.90
   1  -1  -5  136.49    9.20
   1   1  -5  124.19   12.40
  -1  -1  -5  136.09    6.50
  -1  -1  -5  147.79   15.10
  -1   1  -5  136.09   12.00
  -1  -1  -5  144.69    6.60
  -1   1  -5  149.88    6.40
   1   1   5  135.39   13.30
  -1   1   5  128.29   15.80
  -1  -1   5  129.19   13.50
   1  -1   5  135.29   14.40
   2   1  -5  447.06   18.30
  -1   2  -5  440.66   15.30
   1  -2  -5  451.75   19.00
   2   1  -5  426.96   21.70
   1  -2  -5  422.36   21.60
   2   1  -5  469.55   20.90
   1  -2  -5  421.46   24.90
  -1   2  -5  438.56   20.60
  -2  -1  -5  467.25   22.20
  -2  -1  -5  464.25   24.10
  -2  -1  -5  458.45   11.90
   1  -2  -5  432.46   17.50
  -1   2  -5  423.46   15.30
  -2  -1   5  441.16   14.70
  -1   2   5  405.86   22.30
  -2  -1   5  446.16   23.20
  -2  -1   5  425.76   14.60
   1  -2   5  448.86   22.40
  -2   0  -5  764.22   29.40
   2   0  -5  777.82   27.30
   0   2  -5  748.93   23.90
   2   0  -5  767.02   29.70
   0  -2  -5  751.82   31.90
   2   0  -5  760.22   25.40
   0   2  -5  755.62   24.70
   0  -2  -5  716.93   23.70
  -2   0  -5  777.02   28.90
   0   2  -5  791.12   31.90
   0  -2  -5  762.72   29.90
   0  -2   5  736.73   30.50
   2   0   5  745.63   29.70
  -2   0   5  741.93   21.40
  -2   0   5  730.23   21.20
  -2   0   5  819.52   32.90
   0   2   5  746.23   31.70
   2  -1  -5  422.16   21.60
  -1  -2  -5  459.65   23.90
   1   2  -5  470.15   20.80
   2  -1  -5  440.36   17.90
  -1  -2  -5  431.76   15.10
  -2   1  -5  453.25   11.50
   2  -1  -5  441.76   20.00
   1   2  -5  451.15   18.00
  -2   1  -5  438.66   11.30
   1   2  -5  423.66   21.30
  -1  -2  -5  450.15   22.60
  -2   1  -5  456.05   20.70
  -1  -2  -5  450.85   15.60
   2  -1  -5  472.25   25.90
  -2   1   5  436.96   15.00
   2  -1   5  455.95   22.00
  -2   1   5  425.06   14.90
  -2   1   5  403.56   22.30
  -1  -2   5  463.45   24.70
  -2   2  -5  344.57   12.20
  -2  -2  -5  351.46   19.90
  -2  -2  -5  346.17   20.20
  -2  -2  -5  338.77   12.20
   2  -2  -5  332.07   17.60
   2   2  -5  348.57   19.60
   2  -2  -5  341.97   19.60
   2  -2  -5  325.07   23.30
   2  -2  -5  353.56   16.10
   2   2  -5  333.37   16.00
  -2   2  -5  343.17   12.20
  -2   2  -5  355.16   17.80
   2   2  -5  340.97   19.40
  -2   2   5  314.27   18.10
  -2   2   5  350.06   13.60
  -2  -2   5  363.96   23.00
   2  -2   5  353.26   20.40
  -2  -2   5  342.57   14.70
  -2   2   5  345.27   20.30
   2  -3  -5  216.08   15.40
  -3  -2  -5  176.78   15.10
   2  -3  -5  223.68   16.40
   2  -3  -5  220.78   21.20
  -3  -2  -5  198.08    9.30
   3   2  -5  187.88   13.10
  -3  -2  -5  197.68    9.20
   3   2  -5  231.38   18.60
  -3  -2  -5  200.28   16.10
  -2   3  -5  204.38   11.70
  -2   3  -5  236.68   15.10
   2  -3  -5  176.18   12.90
  -2   3  -5  194.48   12.60
  -2   3   5  206.58   11.40
  -2   3   5  195.78   13.30
  -3  -2   5  201.68   20.30
   2  -3   5  224.38   16.00
  -2   3   5  197.68   19.50
  -3  -2   5  205.48   14.40
   1  -3  -5  267.67   14.20
   3   1  -5  255.97   14.60
  -1   3  -5  264.17   16.30
  -3  -1  -5  241.38    7.70
  -1   3  -5  257.67   14.00
  -3  -1  -5  245.08   16.50
   1  -3  -5  250.67   15.60
   1  -3  -5  271.57   18.10
  -1   3  -5  234.18   14.50
   3   1  -5  255.57   17.40
  -3  -1  -5  263.87   16.70
   3   1  -5  251.37   15.80
  -3  -1  -5  268.27    8.10
   1  -3  -5  261.67   21.60
  -1   3   5  239.58    9.60
  -3  -1   5  262.07   14.70
  -1   3   5  255.77   10.10
   1  -3   5  262.17   18.00
  -3  -1   5  231.48   13.60
  -3  -1   5  256.27   21.20
   3   0  -5  893.01   30.30
   0  -3  -5  916.91   28.80
  -3   0  -5  919.01   31.70
   3   0  -5  904.81   32.30
   0  -3  -5  849.91   33.70
   0  -3  -5  907.61   29.60
   3   0  -5  880.91   33.80
  -3   0  -5  894.41   32.20
   0   3  -5  909.81   30.60
   0   3  -5  908.01   29.20
   0  -3  -5  877.31   35.20
  -3   0   5  888.51   36.30
  -3   0   5  894.81   28.60
   0  -3   5  931.91   35.00
  -3   0   5  901.51   28.40
   3  -1  -5  266.27   17.30
  -1  -3  -5  241.98   17.90
  -3   1  -5  250.57    7.00
   1   3  -5  248.48   14.30
  -3   1  -5  238.78    7.20
  -1  -3  -5  257.17   12.80
   3  -1  -5  273.67   15.10
  -1  -3  -5  254.47   18.10
   3  -1  -5  257.97   16.90
   1   3  -5  254.87   17.20
   3  -1  -5  221.28   18.70
  -3   1  -5  275.07   15.60
  -1  -3  -5  222.68   18.10
   3  -1   5  283.47   17.60
  -3   1   5  280.97   21.20
  -1  -3   5  259.17   20.00
  -3   1   5  255.57   14.80
  -3   1   5  274.87   14.00
  -1  -3   5  244.78    8.90
  -1  -3   5  244.38    8.60
  -3   2  -5  197.68    8.40
   2   3  -5  193.38   16.90
   3  -2  -5  204.88   18.20
  -2  -3  -5  218.18   18.50
  -3   2  -5  232.88   14.50
   3  -2  -5  185.68   16.50
  -2  -3  -5  203.28   11.80
  -2  -3  -5  191.48   16.50
   3  -2  -5  185.28   14.20
  -3   2  -5  189.38    8.70
   2   3  -5  188.88   13.10
   3  -2  -5  201.08   13.10
  -3   2   5  177.78   18.30
  -2  -3   5  210.58   13.20
  -3   2   5  198.88   14.00
  -2  -3   5  190.98   17.10
  -2  -3   5  188.18   11.00
   3  -2   5  197.38   15.10
   3  -3  -5  385.86   21.30
  -3  -3  -5  362.96   21.80
  -3  -3  -5  360.56   20.70
  -3  -3  -5  346.07   17.40
  -3   3  -5  375.26   18.50
   3   3  -5  381.26   22.60
  -3  -3  -5  347.87   15.90
  -3   3  -5  365.66   15.00
   3  -3  -5  377.46   23.70
   3  -3  -5  336.77   18.00
   3   3  -5  359.26   18.40
   3  -3  -5  328.47   20.40
  -3  -3   5  364.76   17.90
   3  -3   5  356.56   19.50
  -3   3   5  372.16   18.30
  -3  -3   5  388.26   26.40
  -3  -3   5  365.56   18.50
  -3   3   5  353.56   21.90
  -3   3   5  392.86   18.10
   3  -4  -5  459.35   24.50
  -3   4  -5  439.36   19.90
  -4  -3  -5  457.85   24.80
   4   3  -5  445.76   22.40
  -3   4  -5  468.85   21.40
   3  -4  -5  462.75   22.30
   3  -4  -5  454.65   29.60
  -4  -3  -5  500.05   25.60
   3  -4  -5  479.05   23.50
   4   3  -5  478.85   26.80
  -3   4  -5  484.55   25.00
  -4  -3  -5  460.35   19.00
  -4  -3   5  505.65   24.10
  -4  -3   5  468.95   22.60
  -3   4   5  464.95   20.40
   3  -4   5  464.15   22.20
  -3   4   5  486.15   22.50
  -4  -3   5  473.75   28.40
  -2   4  -5  399.86   18.50
   2  -4  -5  388.66   21.40
   4   2  -5  419.76   20.80
   2  -4  -5  389.96   20.20
   2  -4  -5  440.46   28.20
  -4  -2  -5  420.56   15.60
  -4  -2  -5  404.06   21.30
   2  -4  -5  413.36   21.90
  -4  -2  -5  439.86   15.50
   4   2  -5  446.96   24.70
  -4  -2  -5  390.76   21.60
   2  -4   5  438.96   22.00
  -4  -2   5  409.36   27.80
  -4  -2   5  398.96   20.90
  -4  -2   5  401.56   20.10
  -4  -1  -5  499.45   23.80
  -4  -1  -5  524.45   23.00
  -1   4  -5  490.25   21.30
   1  -4  -5  501.55   29.40
   4   1  -5  536.35   22.80
  -4  -1  -5  525.05   15.90
  -1   4  -5  567.04   23.40
   1  -4  -5  526.75   23.90
   4   1  -5  568.64   26.60
   1  -4  -5  536.35   22.40
  -4  -1  -5  509.95   15.70
   1  -4  -5  505.15   25.90
  -4  -1   5  523.85   22.50
  -4  -1   5  544.35   23.40
  -4  -1   5  562.64   29.60
   1  -4   5  526.45   25.40
  -1   4   5  503.95   18.00
   4   0  -5  472.25   24.10
   4   0  -5  479.25   21.10
   0  -4  -5  467.35   21.30
  -4   0  -5  462.65   20.70
   0  -4  -5  465.85   25.70
  -4   0  -5  456.95   12.70
   0  -4  -5  488.65   20.40
   4   0  -5  417.06   22.10
   0   4  -5  478.95   22.60
  -4   0  -5  462.85   13.20
  -4   0  -5  491.35   22.30
   0   4  -5  433.66   20.10
   0   4   5  457.95   14.00
  -4   0   5  483.15   22.00
  -4   0   5  458.75   21.30
   0   4   5  445.16   13.40
  -4   0   5  471.05   27.30
   0  -4   5  458.55   25.20
  -4   1  -5  527.75   23.00
   4  -1  -5  534.05   28.20
  -1  -4  -5  485.35   28.10
  -4   1  -5  517.85   14.90
   4  -1  -5  523.65   22.60
   4  -1  -5  547.45   25.80
  -1  -4  -5  551.64   21.50
   1   4  -5  495.45   22.60
   4  -1  -5  527.05   24.60
  -4   1  -5  541.15   22.10
  -1  -4  -5  532.15   22.40
   1   4  -5  518.35   24.30
  -4   1   5  511.25   26.30
  -1  -4   5  520.55   17.40
  -4   1   5  531.45   21.70
  -1  -4   5  504.75   28.20
  -4   1   5  543.75   23.20
  -4   2  -5  420.96   19.60
   4  -2  -5  408.86   23.20
   2   4  -5  445.76   21.40
   2   4  -5  435.96   23.70
  -4   2  -5  427.06   14.60
   4  -2  -5  414.76   21.50
   4  -2  -5  423.96   20.50
  -2  -4  -5  423.46   18.90
   4  -2  -5  442.76   27.90
  -2  -4  -5  409.56   25.30
  -2  -4  -5  443.96   20.30
  -4   2  -5  417.46   14.70
  -2  -4   5  425.96   27.60
  -2  -4   5  425.36   19.80
  -4   2   5  440.66   25.90
  -4   2   5  393.16   20.10
  -4   2   5  420.66   20.00
   2   4   5  422.06   22.00
   4  -3  -5  431.66   23.30
  -4   3  -5  465.25   18.20
   4  -3  -5  472.55   29.90
  -4   3  -5  490.25   18.50
  -4   3  -5  466.65   23.20
   3   4  -5  458.75   22.50
   4  -3  -5  449.16   22.00
  -3  -4  -5  404.86   25.20
  -3  -4  -5  472.55   22.20
   4  -3  -5  491.35   26.00
  -4   3  -5  465.85   20.10
   3   4  -5  472.85   26.50
  -3  -4  -5  456.95   27.30
  -4   3   5  445.96   26.60
  -4   3   5  470.75   23.40
  -3  -4   5  447.46   22.60
   3   4   5  423.56   22.60
  -4   3   5  476.25   20.70
   4  -3   5  479.85   21.30
  -3  -4   5  471.75   31.20
   4  -4  -5  391.16   22.00
  -4  -4  -5  326.77   24.60
   4   4  -5  367.06   25.60
  -4  -4  -5  333.67   20.40
  -4  -4  -5  342.47   18.00
  -4   4  -5  397.46   17.80
   4  -4  -5  372.96   28.10
  -4   4  -5  347.77   21.70
   4  -4  -5  367.06   22.30
   4  -4  -5  355.16   23.90
  -4   4  -5  371.96   19.40
  -4  -4  -5  366.06   24.00
   4   4  -5  383.66   22.80
  -4  -4   5  364.26   26.90
  -4  -4   5  371.26   22.30
  -4   4   5  366.96   21.40
  -4  -4   5  361.06   19.60
  -4   4   5  330.97   19.60
   4  -4   5  367.56   18.90
   4   4   5  401.16   21.40
  -4   4   5  383.66   25.40
  -4   5  -5  240.98   20.80
   4  -5  -5  253.17   23.00
   4  -5  -5  264.07   21.60
  -4   5  -5  273.47   17.10
   4  -5  -5  258.47   27.00
   5   4  -5  251.67   24.50
  -5  -4  -5  236.68   21.70
  -4   5  -5  246.38   18.10
  -5  -4  -5  258.57   18.90
  -5  -4  -5  215.88   15.70
  -5  -4   5  254.07   19.70
   5   4   5  255.07   16.40
  -5  -4   5  227.78   23.40
  -5  -4   5  225.88   27.80
  -4   5   5  256.17   16.90
  -4   5   5  214.58   19.40
   4  -5   5  253.87   16.40
  -3   5  -5   65.59    9.80
  -5  -3  -5   63.39   10.90
  -3   5  -5   64.09   11.50
   3  -5  -5   73.19   12.10
   3  -5  -5   61.49   12.80
   3  -5  -5   69.59   13.70
   3  -5  -5   83.29   18.70
  -5  -3  -5   45.50   12.00
   5   3  -5   64.69   15.40
  -5  -3  -5   63.29    8.60
  -5  -3  -5   73.19   13.20
  -3   5  -5   89.09   14.90
  -3   5   5   95.59   13.00
  -5  -3   5   72.89   14.00
   3  -5   5   78.09   13.00
  -5  -3   5   73.59   11.70
  -5  -3   5   91.19   18.50
  -3   5   5   73.19   12.30
  -2   5  -5  544.45   30.30
  -5  -2  -5  549.65   25.10
  -2   5  -5  524.05   23.20
  -5  -2  -5  548.55   20.90
   2  -5  -5  561.24   31.00
   2  -5  -5  583.74   27.50
  -5  -2  -5  550.34   20.00
  -5  -2  -5  505.95   25.90
   2  -5  -5  528.05   27.90
   5   2  -5  522.25   26.20
   5   2  -5  602.74   30.20
   2  -5  -5  563.44   25.20
  -5  -2   5  555.94   30.80
  -5  -2   5  582.14   25.50
  -2   5   5  609.44   23.20
  -5  -2   5  552.04   27.30
   2  -5   5  568.14   25.50
  -5  -1  -5   93.79    8.10
   1  -5  -5  109.49   13.20
  -1   5  -5   83.89   12.70
  -5  -1  -5  112.39   13.30
   5   1  -5  112.19   13.00
  -5  -1  -5   98.69    7.60
   1  -5  -5  111.19   17.20
   1  -5  -5  105.99   14.70
  -1   5  -5  137.89   13.10
   1  -5  -5  106.19   16.30
   5   1  -5  109.69   16.00
  -5  -1  -5   80.19   13.40
  -1   5  -5  118.79   16.70
   1  -5   5  101.79   15.20
  -5  -1   5  162.78   21.20
  -5  -1   5  100.49   14.40
  -5  -1   5  137.09   14.10
  -1   5   5   89.39   12.30
  -5   0  -5  201.08    9.50
   5   0  -5  205.68   17.00
   0  -5  -5  199.28   15.20
   0   5  -5  212.68   18.90
   0  -5  -5  212.88   23.30
   0   5  -5  192.48   15.90
   5   0  -5  190.18   14.60
   0  -5  -5  185.78   23.40
  -5   0  -5  183.88   15.90
  -5   0  -5  202.08   15.30
  -5   0  -5  197.08    9.20
   5   0  -5  184.88   19.80
   0  -5   5  209.78   19.60
  -5   0   5  196.48   15.70
   0  -5   5  200.48    9.70
   0   5   5  217.58   18.60
   0   5   5  206.98   10.80
  -5   0   5  191.28   16.70
   0  -5   5  165.98   14.40
  -5   0   5  220.88   21.80
  -1  -5  -5  109.69   18.80
  -1  -5  -5   88.59   14.10
   5  -1  -5  121.29   17.30
  -1  -5  -5  115.09   13.70
   5  -1  -5  100.49   13.10
  -5   1  -5  102.49   11.70
   5  -1  -5  123.59   14.00
   1   5  -5  102.69   14.40
  -5   1  -5  106.39    7.40
   5  -1  -5  120.69   20.40
   1   5  -5  105.79   13.80
  -5   1  -5   93.49    7.30
   1   5   5  100.59    6.70
  -5   1   5  124.89   13.60
  -5   1   5  119.79   15.60
  -1  -5   5   77.09   12.20
  -1  -5   5  122.79   10.40
   1   5   5  100.49    6.40
  -1  -5   5  116.29   16.40
  -5   1   5  106.19   14.40
   1   5   5  108.89   15.20
  -2  -5  -5  578.74   25.90
   5  -2  -5  592.54   26.50
  -2  -5  -5  630.64   25.10
   5  -2  -5  550.24   28.60
  -5   2  -5  536.55   20.90
   5  -2  -5  526.45   29.90
  -5   2  -5  569.94   19.70
  -5   2  -5  584.04   24.20
   5  -2  -5  554.34   26.40
   2   5  -5  552.74   25.60
  -5   2  -5  537.35   22.20
   2   5  -5  590.64   29.40
  -2  -5  -5  526.55   31.40
   2   5   5  571.04   27.40
  -2  -5   5  601.14   34.10
  -5   2   5  544.65   24.70
  -2  -5   5  584.84   25.40
  -2  -5   5  557.44   22.90
  -5   2   5  568.94   26.30
  -5   2   5  573.14   30.10
  -3  -5  -5   58.29   16.50
  -3  -5  -5  100.39   12.10
  -5   3  -5   82.09   10.00
  -5   3  -5   90.19    9.30
   3   5  -5   53.19   14.70
  -3  -5  -5   52.19   11.30
  -5   3  -5   57.09   14.40
  -5   3  -5   72.89   10.40
   5  -3  -5   60.99   13.10
   5  -3  -5   60.19   17.10
   3   5  -5   82.19   14.40
   5  -3  -5   82.99   12.50
   3   5   5   80.49   14.20
  -5   3   5   79.89   15.80
  -3  -5   5   67.29   13.50
  -5   3   5   75.49   12.00
  -3  -5   5   47.50   17.10
  -5   3   5   77.69   14.10
  -5   4  -5  234.18   15.30
   5  -4  -5  262.57   20.30
   4   5  -5  237.48   25.10
   5  -4  -5  260.17   22.50
  -5   4  -5  245.78   16.80
   5  -4  -5  282.17   26.70
  -4  -5  -5  256.47   24.60
  -4  -5  -5  240.68   22.30
  -5   4  -5  232.08   17.80
  -4  -5   5  239.28   17.60
  -4  -5   5  237.78   20.90
  -5   4   5  249.38   23.00
  -5   4   5  227.58   17.30
  -5   4   5  242.48   21.10
   4   5   5  252.47   18.60
  -4  -5   5  292.87   30.90
  -5  -5  -5  169.68   21.00
   5  -5  -5  210.78   23.30
   5   5  -5  171.38   23.90
  -5   5  -5  180.18   17.70
  -5   5  -5  193.48   18.30
  -5  -5  -5  186.08   19.40
  -5   5  -5  180.38   15.90
   5  -5  -5  225.98   27.70
  -5  -5  -5  238.78   17.40
  -5  -5   5  178.38   22.10
  -5  -5   5  179.48   18.60
   5   5   5  197.58   17.40
  -5  -5   5  201.38   25.90
  -5   5   5  147.79   17.60
  -5   5   5  168.98   20.40
  -5   6  -5  149.39   19.70
  -5   6  -5  117.49   18.60
  -5   6  -5  133.99   17.20
   6   5  -5  162.38   25.10
  -6  -5  -5  128.89   20.90
   5  -6  -5  181.08   24.30
  -6  -5  -5  133.69   20.20
  -6  -5  -5  116.39   17.50
   5  -6  -5  137.99   26.10
  -5   6   5  136.59   19.70
  -6  -5   5  130.69   22.10
  -6  -5   5  162.48   25.70
   6   5   5  146.99   17.40
   6   4  -5  286.67   27.30
  -4   6  -5  317.17   22.50
  -6  -4  -5  283.07   22.30
  -6  -4  -5  320.77   18.60
   4  -6  -5  301.47   24.90
  -4   6  -5  308.97   24.00
  -4   6  -5  270.97   24.40
  -6  -4  -5  272.27   31.90
   4  -6  -5  310.87   26.70
  -4   6   5  258.57   21.60
  -4   6   5  279.27   24.10
  -6  -4   5  277.27   32.00
  -6  -4   5  305.17   26.30
   4  -6   5  297.07   17.40
  -6  -4   5  297.57   26.30
  -6  -3  -5  296.17   16.60
   6   3  -5  310.17   27.00
  -6  -3  -5  271.67   20.30
   3  -6  -5  269.37   23.80
  -6  -3  -5  278.57   22.70
  -3   6  -5  250.37   18.90
   3  -6  -5  263.07   28.70
  -3   6  -5  247.98   24.40
  -3   6  -5  284.27   21.90
  -6  -3  -5  308.67   19.20
  -3   6   5  287.67   20.00
   3  -6   5  279.07   18.80
  -6  -3   5  273.47   24.00
  -3   6   5  269.17   20.50
  -6  -3   5  288.87   29.80
   2  -6  -5  532.25   34.10
  -6  -2  -5  497.95   26.10
   2  -6  -5  539.65   28.50
  -6  -2  -5  471.15   23.20
  -2   6  -5  507.45   28.80
  -2   6  -5  498.15   25.10
   6   2  -5  517.15   30.60
  -6  -2  -5  511.85   19.90
  -6  -2  -5  505.65   23.40
   2  -6   5  464.85   12.70
  -6  -2   5  501.65   28.00
  -6  -2   5  554.34   34.50
  -6  -2   5  486.55   24.90
  -2   6   5  478.65   23.70
   2  -6   5  490.35   25.70
   1  -6  -5  188.38   24.40
   1  -6  -5  187.28   17.00
  -1   6  -5  182.58   15.70
  -6  -1  -5  184.18   11.20
  -1   6  -5  211.68   22.00
  -6  -1  -5  168.18   16.60
  -1   6  -5  184.28   18.60
   6   1  -5  176.78   22.00
   1  -6  -5  220.88   20.30
  -1   6   5  175.58   14.60
  -6  -1   5  197.48   21.50
  -6  -1   5  177.88   16.80
  -1   6   5  218.58   18.80
  -6  -1   5  211.18   23.30
   1  -6   5  198.48   19.50
   6   0  -5  370.06   26.10
   0  -6  -5  375.76   22.40
  -6   0  -5  408.66   17.60
  -6   0  -5  417.86   20.80
   0   6  -5  414.46   25.60
  -6   0  -5  388.76   15.00
   0   6  -5  375.96   29.10
   0   6  -5  410.96   23.60
  -6   0  -5  373.46   15.50
   0  -6  -5  377.16   23.30
   0  -6  -5  369.26   29.50
  -6   0   5  418.86   28.00
  -6   0   5  430.96   22.90
   0   6   5  413.36   20.00
  -6   0   5  397.76   24.60
   0  -6   5  420.46   29.10
   0  -6   5  400.16   20.40
   0  -6   5  373.26   19.30
   1   6  -5  218.18   20.40
   6  -1  -5  215.78   19.30
  -6   1  -5  179.88    8.90
   1   6  -5  170.38   18.50
  -6   1  -5  204.98   14.30
   6  -1  -5  180.48   24.00
  -1  -6  -5  203.08   24.80
  -6   1  -5  188.28   11.10
  -1  -6  -5  195.48   19.90
   6  -1  -5  178.68   21.30
  -1  -6  -5  185.18   15.10
   1   6   5  179.08   11.70
  -6   1   5  188.78   16.20
  -1  -6   5  223.18   17.60
  -6   1   5  156.98   20.60
  -1  -6   5  162.88   23.40
  -6   1   5  234.88   23.10
   1   6   5  169.18   13.50
  -1  -6   5  182.78   14.10
  -6   2  -5  468.95   17.50
   2   6  -5  509.85   29.40
   6  -2  -5  525.05   30.10
  -6   2  -5  491.95   19.20
  -6   2  -5  534.15   22.20
   6  -2  -5  502.65   27.60
  -2  -6  -5  537.15   27.10
  -2  -6  -5  491.35   32.90
  -2  -6  -5  493.25   23.60
  -6   2  -5  494.85   16.40
  -6   2  -5  510.55   20.60
   6  -2  -5  487.15   32.00
  -6   2   5  514.15   27.60
  -6   2   5  534.35   29.70
  -2  -6   5  506.55   26.70
  -2  -6   5  508.75   34.70
   2   6   5  481.55   16.00
  -6   2   5  494.45   25.40
  -2  -6   5  523.35   23.50
   2   6   5  513.15   20.90
  -6   3  -5  297.47   18.20
  -6   3  -5  343.87   16.30
   6  -3  -5  272.37   26.90
  -6   3  -5  259.37   20.20
   3   6  -5  288.87   27.00
  -3  -6  -5  240.08   26.50
   6  -3  -5  330.27   22.80
  -3  -6  -5  329.77   20.00
   6  -3  -5  253.17   24.10
  -6   3  -5  282.57   14.30
  -3  -6  -5  301.37   22.10
  -6   3   5  309.67   25.00
  -3  -6   5  246.98   23.10
  -6   3   5  268.77   24.20
  -3  -6   5  280.77   31.60
  -6   3   5  303.67   21.20
  -3  -6   5  271.17   19.10
   3   6   5  228.88   24.20
   6  -4  -5  304.87   26.10
   4   6  -5  305.37   27.70
  -6   4  -5  332.77   20.00
  -4  -6  -5  291.67   27.60
  -4  -6  -5  299.57   23.10
  -6   4  -5  313.17   18.00
   6  -4  -5  258.27   28.50
  -6   4  -5  289.77   16.70
   4   6   5  268.87   25.90
  -6   4   5  314.47   24.80
  -4  -6   5  335.97   27.30
  -4  -6   5  323.07   29.90
  -6   4   5  259.47   26.00
  -6   4   5  328.17   29.80
  -6   5  -5  120.49   16.20
   5   6  -5  138.29   22.80
  -5  -6  -5  146.79   19.10
  -5  -6  -5  115.69   21.70
   6  -5  -5  127.19   24.40
  -6   5  -5  133.29   18.00
  -6   5  -5  170.48   15.60
   6  -5  -5  126.29   20.90
   5   6   5  101.19   19.10
  -5  -6   5  138.49   22.00
  -5  -6   5  165.38   28.80
  -6   5   5  135.19   20.70
   6   6  -5  210.18   31.20
  -6   6  -5  171.48   21.30
  -6  -6  -5  167.28   23.70
  -6   6  -5  193.38   19.10
   6  -6  -5  154.08   24.00
   6  -6  -5  176.88   31.00
  -6  -6  -5  156.08   23.80
  -6  -6   5  154.58   31.20
   6   6   5  114.09   20.60
  -6   6   5  146.79   24.20
  -6  -6   5  196.58   29.20
  -6   7  -5  237.18   25.10
  -7  -6  -5  207.08   28.20
   7   6  -5  206.08   29.10
   6  -7  -5  256.07   34.30
  -7  -6  -5  230.88   26.50
   6  -7  -5  201.18   27.80
   7   6   5  178.08   23.70
  -7  -6   5  233.38   32.50
  -6   7   5  232.18   28.60
  -7  -6   5  201.38   29.30
   5  -7  -5   98.49   22.50
  -5   7  -5  139.99   22.40
   7   5  -5  130.29   24.80
  -7  -5  -5  161.58   21.80
  -7  -5  -5  170.58   21.20
  -5   7  -5  171.38   23.10
  -5   7   5  118.09   19.70
  -7  -5   5  131.79   23.90
   5  -7   5  106.19   13.40
  -7  -5   5  114.39   28.10
   7   5   5  100.79   14.70
   4  -7  -5  165.88   25.80
   7   4  -5  144.69   24.60
  -7  -4  -5  106.79   14.50
  -7  -4  -5  154.08   19.90
   4  -7  -5  155.08   25.00
  -4   7  -5  201.78   24.60
  -4   7  -5  192.88   22.70
  -7  -4   5  167.08   25.70
  -4   7   5  143.89   21.00
  -7  -4   5  130.29   27.80
   4  -7   5  153.28   14.50
   7   3  -5  125.49   20.80
  -7  -3  -5  145.29   14.40
  -7  -3  -5  119.69   21.70
  -3   7  -5  166.68   26.60
   3  -7  -5  127.79   20.70
  -7  -3  -5  129.69   18.20
   3  -7  -5  142.19   27.40
  -3   7   5  137.99   20.00
  -7  -3   5  155.48   26.20
  -7  -3   5   95.29   20.70
   3  -7   5  108.39   15.30
   3  -7   5  124.09   10.50
  -7  -2  -5  158.68   14.30
   2  -7  -5  181.58   27.40
  -7  -2  -5  127.09   13.40
  -7  -2  -5  143.19   19.00
   2  -7  -5  136.69   21.70
   7   2  -5  154.48   24.50
  -7  -2  -5  156.78   16.20
  -2   7  -5  137.19   19.30
   2  -7   5  137.29   13.80
  -7  -2   5  135.39   20.00
   2  -7   5  144.89   17.20
  -7  -2   5  158.48   26.30
  -2   7   5  139.49   17.00
  -2   7   5  140.19   19.00
   1  -7  -5  156.18   26.50
   7   1  -5  159.48   24.50
  -7  -1  -5  186.18   12.90
  -1   7  -5  176.18   20.10
  -7  -1  -5  178.78   16.00
   1  -7  -5  189.18   21.60
  -7  -1  -5  162.38    7.60
  -7  -1  -5  137.79   14.80
  -7  -1   5  157.08   23.10
   1  -7   5  199.98   21.00
   1  -7   5  176.58   16.60
  -1   7   5  170.48   17.80
  -1   7   5  147.69   16.90
  -7  -1   5  183.98   22.30
  -7   0  -5  243.08   14.00
   0   7  -5  231.58   22.30
   0  -7  -5  255.27   22.80
  -7   0  -5  248.98   17.20
   7   0  -5  227.68   25.80
  -7   0  -5  211.68   16.20
   0  -7  -5  237.58   28.70
  -7   0   5  215.08   22.90
   0   7   5  255.57   18.50
   0  -7   5  277.97   26.10
   0  -7   5  213.28   18.80
  -7   0   5  242.58   24.60
   0   7   5  201.48   17.00
   0  -7   5  261.47   16.50
  -1  -7  -5  186.38   23.10
   1   7  -5  198.98   23.80
   7  -1  -5  181.08   25.50
  -7   1  -5  145.49   13.40
  -7   1  -5  158.68   15.00
  -7   1  -5  124.59   12.20
   7  -1  -5  167.58   23.60
  -1  -7  -5  166.98   20.00
  -7   1   5  142.89   23.10
  -1  -7   5  202.38   26.00
   1   7   5  162.58   15.60
  -1  -7   5  182.98   16.00
  -7   1   5  164.18   22.10
  -1  -7   5  169.98   19.50
   1   7   5  174.38   14.90
  -7   2  -5  130.89   12.60
  -2  -7  -5  145.79   19.80
  -7   2  -5  159.88   12.00
   2   7  -5  140.79   20.80
   7  -2  -5  143.59   23.60
  -2  -7  -5  156.08   26.10
   7  -2  -5  176.98   24.40
  -7   2  -5  173.08   15.20
  -7   2   5  128.19   20.90
  -7   2   5  165.98   21.70
   2   7   5  133.49   14.20
  -2  -7   5  145.79   22.60
   2   7   5  174.48   14.70
  -2  -7   5  179.58   16.80
  -2  -7   5  139.79   20.20
  -3  -7  -5  120.79   22.10
   7  -3  -5  123.99   22.70
   7  -3  -5  111.59   20.70
  -3  -7  -5  136.89   21.40
  -7   3  -5  124.59   17.60
  -7   3  -5  116.39    9.30
   3   7  -5  152.48   23.60
  -7   3   5  122.59   20.90
  -3  -7   5  117.99   19.60
  -7   3   5  143.79   21.50
  -3  -7   5  154.98   19.00
  -3  -7   5  142.29   27.60
   3   7   5  129.49   18.90
   7  -4  -5  143.39   21.70
  -7   4  -5  172.88   17.80
   4   7  -5  129.39   22.80
  -4  -7  -5  165.88   26.80
  -7   4  -5  138.09   16.00
  -7   4  -5  149.29    8.10
  -4  -7  -5  116.49   17.70
   7  -4  -5  198.78   27.80
  -7   4   5  179.68   23.20
  -4  -7   5  130.39   20.40
  -7   4   5  145.79   23.20
  -4  -7   5  171.78   28.00
   4   7   5  150.08    9.70
  -4  -7   5  172.68   23.20
   5   7  -5  136.99   24.90
  -5  -7  -5  133.79   19.90
  -5  -7  -5  118.59   23.20
   7  -5  -5  100.99   24.40
  -7   5  -5  143.49   19.10
   7  -5  -5  157.98   26.40
  -7   5  -5  111.09   11.70
  -7   5   5  149.19   22.80
  -5  -7   5  105.09   29.70
  -5  -7   5  139.59   24.00
   7  -6  -5  199.18   30.30
  -6  -7  -5  241.98   28.80
   6   7  -5  211.88   32.10
  -6  -7  -5  232.18   29.20
  -7   6  -5  210.48   25.30
  -6  -7   5  200.98   31.70
  -6  -7   5  214.38   32.30
  -7   6   5  208.18   28.00
   7   7  -5   72.69   22.10
  -7  -7  -5   82.09   20.20
   7  -7  -5   65.99   21.40
   7  -7  -5  105.29   24.80
  -7  -7  -5   89.19   24.10
  -7   7  -5   54.39   17.50
  -7  -7   5   62.89   29.40
  -7   7   5   50.69   19.90
  -7  -7   5  105.79   24.00
  -8  -7  -5   72.59   24.30
   7  -8  -5  103.99   26.80
   8   7  -5   55.19   25.10
   7  -8  -5   48.80   21.20
  -8  -7  -5   86.39   23.30
  -7   8  -5   43.60   24.00
  -8  -7   5   60.19   24.30
  -8  -7   5   54.69   33.90
  -7   8   5   81.59   21.80
   6  -8  -5  208.98   34.10
  -6   8  -5  197.68   30.20
  -8  -6  -5  141.99   23.00
   8   6  -5  182.38   29.10
  -8  -6  -5  144.09   24.00
   6  -8  -5  207.68   32.20
  -8  -6   5  136.99   27.00
  -6   8   5  208.38   31.50
  -8  -6   5  160.38   33.70
   5  -8  -5  251.77   36.20
  -8  -5  -5  228.48   24.10
   8   5  -5  238.68   33.80
  -5   8  -5  175.38   23.20
  -8  -5  -5  183.28   26.00
   5  -8  -5  181.78   27.30
  -8  -5   5  225.28   34.60
  -5   8   5  170.08   26.10
  -8  -5   5  176.58   35.70
   5  -8   5  189.88   18.00
  -8  -4  -5  214.98   23.90
  -8  -4  -5  170.08   19.20
   4  -8  -5  193.58   32.60
   4  -8  -5  135.49   41.00
   8   4  -5  201.58   29.60
  -4   8   5  166.98   24.50
   4  -8   5  169.78   16.70
  -8  -4   5  162.78   26.40
   4  -8   5  181.18   11.00
  -8  -4   5  197.18   28.40
   8   3  -5  117.39   27.10
   3  -8  -5  143.59   29.00
  -8  -3  -5  148.79   19.50
  -8  -3  -5  153.98   18.40
   3  -8  -5  128.29   22.70
  -8  -3   5  145.49   24.20
  -8  -3   5  142.99   27.90
   3  -8   5  129.29   17.30
   3  -8   5  117.29   16.50
   2  -8  -5  172.08   25.40
  -8  -2  -5  117.79   19.20
  -2   8  -5  171.18   24.40
  -8  -2  -5  143.39   16.20
   8   2  -5  156.18   25.00
  -8  -2  -5  122.99   17.40
  -8  -2   5  159.68   25.60
  -2   8   5  125.99   18.90
   2  -8   5  159.68   23.10
   2  -8   5  135.69   17.10
  -2   8   5  148.89   20.10
   2  -8   5  121.99   20.90
  -8  -2   5  130.19   23.50
  -8  -1  -5  252.47   17.00
  -8  -1  -5  233.78   19.60
   1  -8  -5  268.27   33.10
  -1   8  -5  286.37   25.60
  -8  -1  -5  283.77   20.10
   1  -8  -5  196.18   25.40
   8   1  -5  220.58   29.30
   1  -8   5  313.57   26.00
  -8  -1   5  242.38   28.80
   1  -8   5  205.38   20.40
  -8  -1   5  287.77   27.80
  -1   8   5  249.18   22.10
   1  -8   5  220.08   17.30
  -1   8   5  245.78   21.70
   8   0  -5  139.79   24.50
   8   0  -5  150.88   22.70
  -8   0  -5  111.59   13.90
   0  -8  -5  114.79   20.50
  -8   0  -5  149.88   24.00
   0   8  -5  146.39   22.50
  -8   0  -5  144.59   14.70
   0  -8  -5  111.49   23.40
  -8   0   5  125.59   20.70
   0   8   5  162.28   19.30
  -8   0   5  124.39   20.50
   0  -8   5  125.39   18.10
   0  -8   5  122.69   18.70
   0   8   5  133.99   20.60
   0  -8   5  121.79   22.10
  -1  -8  -5  239.08   27.80
  -1  -8  -5  267.17   34.60
   1   8  -5  309.67   29.00
   8  -1  -5  202.48   27.90
  -8   1  -5  255.87   20.00
  -8   1  -5  306.07   17.40
   8  -1  -5  296.27   30.10
   1   8   5  269.87   20.70
  -1  -8   5  233.18   23.40
  -1  -8   5  276.07   31.70
  -1  -8   5  267.77   21.20
  -8   1   5  245.18   25.60
  -8   1   5  252.97   27.20
  -8   2  -5  104.69   14.80
   2   8  -5  132.79   22.20
   8  -2  -5  156.68   23.80
  -2  -8  -5  154.58   28.40
  -8   2  -5  146.39   17.30
  -2  -8  -5  161.98   23.10
   8  -2  -5  161.68   23.70
  -2  -8   5  157.28   21.70
  -8   2   5  138.39   22.00
   2   8   5  152.48   23.70
  -2  -8   5  151.78   29.00
  -2  -8   5  184.78   19.20
   2   8   5  142.39   16.80
  -8   2   5  131.19   22.40
  -8   3  -5  119.69   16.90
   3   8  -5  183.38   28.70
   8  -3  -5  144.19   27.20
   8  -3  -5  116.59   23.00
  -3  -8  -5  124.69   19.70
  -8   3  -5  130.79   18.10
  -3  -8  -5  129.09   27.20
  -3  -8   5  117.69   21.40
  -8   3   5  127.99   21.80
  -8   3   5  174.98   24.70
   3   8   5  129.49   16.20
   8  -4  -5  212.28   30.00
  -8   4  -5  181.78   21.70
   4   8  -5  225.18   36.70
  -4  -8  -5  153.98   28.50
  -4  -8  -5  176.28   25.40
   8  -4  -5  175.88   28.20
   4   8   5  174.88   17.80
  -8   4   5  209.78   26.40
  -8   4   5  172.78   28.50
  -4  -8   5  198.18   27.20
  -4  -8   5  157.98   34.30
  -8   5  -5  230.58   25.50
   8  -5  -5  188.08   27.50
   5   8  -5  194.28   28.50
  -5  -8  -5  186.18   30.40
  -5  -8  -5  250.57   31.40
  -5  -8   5  173.98   27.10
  -8   5   5  167.18   29.20
  -5  -8   5  206.18   34.80
   6   8  -5  169.38   28.70
   8  -6  -5  118.59   25.20
   8  -6  -5  176.18   29.50
  -6  -8  -5  178.58   26.90
  -6  -8  -5  134.59   29.70
  -8   6  -5  142.19   21.60
  -8   6   5  184.48   25.70
  -6  -8   5  152.08   28.50
  -6  -8   5  126.69   32.50
   8  -7  -5   56.39   23.50
  -8   7  -5   45.40   21.30
   8  -7  -5   63.19   24.70
   7   8  -5   77.49   23.10
  -7  -8  -5   98.29   30.20
  -8   7   5   54.59   19.90
  -7  -8   5   79.79   23.40
  -7  -8   5   20.40   31.50
   8   8  -5  178.58   31.50
   8  -8  -5  180.58   32.30
  -8   8  -5  203.28   31.90
  -8  -8  -5  182.88   29.20
   8  -8  -5  178.18   29.20
  -8  -8  -5  216.68   34.30
  -8  -8   5  123.89   29.00
  -8  -8   5  129.39   34.60
  -8   8   5  152.88   24.10
   8  -9  -5  -10.40   28.10
  -8   9  -5   70.29   23.60
   8  -9  -5  132.39   28.80
   9   8  -5   60.29   27.60
  -9  -8  -5    4.70   26.50
  -9  -8   5   37.20   26.30
  -9  -8   5   93.79   39.30
  -8   9   5   48.30   23.30
  -9  -7  -5   61.39   26.30
   7  -9  -5  116.29   27.00
   9   7  -5   21.80   25.20
  -9  -7   5   39.70   25.20
  -9  -7   5   23.90   35.40
  -7   9   5   61.29   20.90
  -6   9  -5   96.39   22.60
  -9  -6  -5   76.19   24.60
   6  -9  -5   70.69   24.30
   6  -9  -5   85.79   22.00
   9   6  -5   84.19   25.70
  -6   9   5   79.89   22.30
  -9  -6   5   89.09   26.50
  -9  -6   5   94.19   31.50
  -9  -5  -5  131.89   22.90
   5  -9  -5  194.98   27.80
  -5   9  -5  118.89   28.80
   9   5  -5  122.39   26.30
   5  -9  -5  125.39   24.00
  -5   9   5   84.49   22.90
  -9  -5   5  104.29   24.90
  -9  -5   5  137.59   31.00
  -9  -4  -5  114.49   20.30
   4  -9  -5  105.79   26.90
   9   4  -5   66.69   22.90
   4  -9  -5   75.29   22.30
   4  -9   5   76.39   12.50
  -9  -4   5   73.39   27.10
  -9  -4   5  108.29   24.60
   4  -9   5   82.09   14.20
  -9  -3  -5   85.49   17.30
   3  -9  -5   52.49   25.10
  -3   9  -5   59.99   19.10
   9   3  -5   39.50   22.10
   3  -9  -5   48.70   20.30
   3  -9   5   51.19   13.50
  -9  -3   5    6.30   20.00
   3  -9   5   65.39   14.00
  -3   9   5   79.29   18.20
  -9  -3   5   96.49   24.00
   2  -9  -5  272.87   36.80
  -2   9  -5  253.67   28.80
   9   2  -5  247.48   33.90
  -9  -2  -5  262.07   23.50
   2  -9   5  259.87   22.90
  -9  -2   5  229.38   32.70
   2  -9   5  283.47   26.10
  -2   9   5  269.07   27.20
  -1   9  -5  125.19   21.30
  -9  -1  -5  166.18   20.40
  -9  -1  -5  170.38   18.90
   1  -9  -5  127.49   29.10
   9   1  -5  141.59   24.00
   1  -9  -5  144.69   24.80
  -9  -1   5  141.39   42.60
   1  -9   5  117.79   17.70
   1  -9   5  129.49   20.20
  -1   9   5  150.98   22.60
  -9  -1   5  102.09   23.20
  -1   9   5  104.29   20.30
   0   9  -5  153.48   24.00
   9   0  -5  121.39   25.10
   0  -9  -5  144.69   30.80
   0  -9  -5  179.08   29.30
  -9   0  -5  133.19   19.40
  -9   0  -5  127.49   16.70
   9   0  -5  113.89   24.50
   0  -9   5  126.99   18.80
   0   9   5  111.09   18.50
  -9   0   5  125.79   25.00
   0   9   5  121.29   17.90
   0  -9   5  130.39   19.10
   0  -9   5  144.79   23.90
  -9   0   5  145.09   23.90
   1   9  -5  120.89   22.60
  -1  -9  -5  117.69   23.40
   9  -1  -5  127.59   24.90
   9  -1  -5  148.49   25.20
  -1  -9  -5  114.79   28.00
  -9   1  -5  115.99   18.60
  -9   1   5  105.39   38.10
   1   9   5  136.79   20.90
  -1  -9   5  132.79   19.70
  -1  -9   5  119.49   19.80
  -1  -9   5  142.39   27.70
   1   9   5   91.49   27.10
  -9   1   5  175.88   25.80
  -9   2  -5  296.77   23.00
   9  -2  -5  249.58   30.30
  -2  -9  -5  281.47   31.80
   9  -2  -5  214.88   29.20
  -2  -9  -5  206.18   33.80
  -9   2   5  242.58   27.20
  -9   2   5  194.28   43.10
  -2  -9   5  258.37   42.10
   2   9   5  308.97   23.20
  -2  -9   5  281.07   29.30
  -3  -9  -5   59.59   24.70
   9  -3  -5   43.80   17.60
   9  -3  -5   71.69   23.10
  -3  -9  -5   86.49   21.30
   3   9  -5   71.39   21.90
  -9   3  -5   75.19   14.90
  -9   3   5   43.90   18.00
  -3  -9   5   43.70   26.80
  -3  -9   5   55.29   21.80
  -9   3   5   39.00   19.40
   3   9   5   50.69   13.10
  -4  -9  -5   99.99   23.80
  -9   4  -5   85.59   18.40
   4   9  -5   93.59   23.80
   9  -4  -5  106.99   24.00
   9  -4  -5   88.99   28.90
  -4  -9  -5   97.79   27.70
  -9   4   5   88.49   20.50
  -4  -9   5  128.39   24.20
   4   9   5  128.29   17.40
  -4  -9   5   56.99   28.80
  -9   4   5  103.29   22.30
   9  -5  -5  131.09   25.30
  -5  -9  -5  150.28   29.60
   5   9  -5  125.59   25.70
  -9   5  -5  136.79   20.90
   9  -5  -5   95.19   25.20
  -5  -9   5  100.19   31.50
  -5  -9   5  121.29   25.30
  -9   5   5  128.29   22.70
  -6  -9  -5   96.79   26.10
   6   9  -5  123.59   26.60
   9  -6  -5   79.39   24.10
  -6  -9  -5  105.29   30.10
   9  -6  -5   54.09   25.50
  -9   6  -5   67.69   25.30
  -6  -9   5  120.59   27.00
  -6  -9   5  132.09   33.20
  -9   6   5   54.49   22.00
   9  -7  -5   81.09   25.20
   7   9  -5   42.50   25.30
  -9   7  -5   46.40   21.60
  -7  -9  -5   32.50   26.40
  -7  -9  -5   67.19   31.10
   9  -7  -5   84.69   25.80
  -7  -9   5   71.39   25.10
  -7  -9   5   25.20   32.60
  -9   7   5   47.90   21.40
  -9   8  -5    1.40   24.00
  -8  -9  -5   30.70   33.30
   9  -8  -5   29.40   26.50
  -8  -9  -5   34.60   27.10
   9  -8  -5   44.30   28.30
   8   9  -5   63.09   28.70
  -9   8   5   39.90   22.80
  -8  -9   5   95.89   39.80
  -8  -9   5    2.00   26.30
   9   9  -5   61.39   33.90
   9  -9  -5   93.29   31.90
   9  -9  -5   34.30   33.70
  -9   9  -5   64.99   31.40
  -9  -9  -5  110.09   33.00
  -9  -9   5   83.09   74.69
  -9  -9   5   44.20   29.00
  -9   9   5   52.29   25.20
  -9  10  -5   44.00   35.00
   9 -10  -5  102.79   70.29
 -10  -9  -5   47.40   36.90
  10   8  -5   15.70   35.30
   8 -10  -5   93.19   53.19
 -10  -8  -5   68.19   34.10
  -8  10  -5  119.39   31.50
   8 -10  -5   55.59   32.50
 -10  -8   5   55.89   30.30
 -10  -8   5  101.39   88.89
  -8  10   5   32.00   24.90
  10   7  -5   82.59   30.80
   7 -10  -5  102.99   30.70
 -10  -7  -5  167.98   32.40
   7 -10  -5   74.29   29.90
  -7  10  -5  157.58   33.40
  -7  10   5  133.19   24.10
 -10  -7   5  110.69   30.10
 -10  -7   5  157.58   37.10
  10   6  -5   49.80   26.20
 -10  -6  -5   78.99   24.00
   6 -10  -5   46.90   29.40
   6 -10  -5   -1.40   22.80
  -6  10  -5   37.40   23.80
 -10  -6   5  -19.20   25.20
 -10  -6   5   75.99   29.90
  -6  10   5   61.49   20.80
  10   5  -5    2.40   23.60
   5 -10  -5   22.20   24.00
 -10  -5  -5   32.10   25.90
   5 -10  -5   24.10   29.80
 -10  -5   5   41.50   22.90
 -10  -5   5   39.00   21.90
  -4  10  -5   94.99   24.70
  10   4  -5  125.49   28.30
   4 -10  -5  108.59   32.30
   4 -10  -5  172.38   27.20
 -10  -4  -5  142.29   23.80
 -10  -4   5   95.19   25.20
 -10  -4   5  133.89   31.10
  -4  10   5  133.79   22.70
   3 -10  -5  226.48   37.00
  10   3  -5  143.49   28.30
   3 -10  -5  179.78   28.90
  -3  10  -5  160.98   26.70
 -10  -3  -5  172.48   28.20
 -10  -3   5  159.88   25.80
   3 -10   5  214.68   26.60
 -10  -3   5  171.88   29.00
  -3  10   5  167.18   25.60
  -2  10  -5  280.87   32.70
 -10  -2  -5  310.37   28.60
   2 -10  -5  237.18   34.10
   2 -10  -5  219.88   37.10
  10   2  -5  287.97   37.10
 -10  -2   5  224.08   32.90
   2 -10   5  249.28   28.30
  -2  10   5  229.28   30.60
   2 -10   5  284.27   28.40
 -10  -2   5  295.07   34.90
  10   1  -5   44.00   23.40
   1 -10  -5   60.39   27.70
   1 -10  -5   66.49   22.40
 -10  -1  -5   95.09   19.30
  -1  10  -5   45.10   19.60
  -1  10   5   71.09   18.50
 -10  -1   5   76.29   21.70
   1 -10   5  100.99   19.10
   1 -10   5   54.49   21.20
 -10  -1   5   42.70   22.00
   0  10  -5  159.78   26.20
   0 -10  -5  112.79   23.50
  10   0  -5  124.39   25.70
 -10   0  -5  119.79   19.90
   0 -10  -5  159.18   33.90
 -10   0   5  155.08   25.70
   0 -10   5  174.88   27.20
   0  10   5  127.19   20.30
   0 -10   5  175.08   28.20
 -10   0   5  120.49   30.70
  -1 -10  -5   68.09   23.30
  -1 -10  -5   56.99   21.40
   1  10  -5   60.79   21.30
 -10   1  -5   73.59   17.50
  10  -1  -5   45.60   22.70
   1  10   5   77.29   17.00
 -10   1   5   42.70   20.80
 -10   1   5  122.89   24.80
  -1 -10   5   60.99   19.70
  -1 -10   5   50.29   25.70
  10  -2  -5  254.07   34.90
 -10   2  -5  327.57   27.50
   2  10  -5  273.27   33.60
  -2 -10  -5  259.87   38.10
  -2 -10  -5  258.87   33.10
  -2 -10   5  256.07   33.40
  -2 -10   5  244.18   36.90
   2  10   5  273.97   27.20
 -10   2   5  237.38   32.20
 -10   2   5  280.87   33.40
  10  -3  -5  179.98   28.70
  -3 -10  -5  153.08   29.60
  10  -3  -5  153.78   26.60
  -3 -10  -5  149.69   26.30
   3  10  -5  202.88   32.80
 -10   3  -5  145.69   21.40
  -3 -10   5  141.69   31.10
 -10   3   5  169.68   27.90
 -10   3   5  154.58   25.30
   3  10   5  132.59   19.10
   4  10  -5  138.99   26.80
  -4 -10  -5   84.69   29.70
  -4 -10  -5  123.29   27.20
 -10   4  -5  112.19   21.00
  10  -4  -5  116.49   27.00
  10  -4  -5  134.49   27.80
  -4 -10   5   93.59   23.50
  -4 -10   5   26.50   28.90
 -10   4   5  103.89   23.50
 -10   4   5  111.99   22.10
  10  -5  -5    7.90   22.50
  10  -5  -5   14.90   23.80
  -5 -10  -5    4.30   22.00
 -10   5  -5   52.39   22.00
   5  10  -5   34.00   22.80
  -5 -10  -5   15.10   26.40
  -5 -10   5   42.50   24.40
 -10   5   5   33.70   21.10
  -5 -10   5   37.70   31.40
  10  -6  -5   72.69   24.70
   6  10  -5   70.39   27.10
  -6 -10  -5   76.69   32.50
  10  -6  -5   40.60   25.90
 -10   6  -5   36.00   21.70
  -6 -10  -5   75.99   26.20
  -6 -10   5   11.00   22.60
 -10   6   5   -8.40   23.10
  -6 -10   5    6.40   33.20
  10  -7  -5  116.59   30.50
   7  10  -5  113.49   31.70
  10  -7  -5  131.29   27.60
  -7 -10  -5  161.68   32.80
  -7 -10  -5  137.59   36.80
 -10   7  -5  123.99   29.80
  -7 -10   5  230.58   37.80
 -10   7   5  141.89   27.00
  -7 -10   5  166.88   30.10
  -8 -10  -5   97.09   32.50
 -10   8  -5   16.00   28.90
  10  -8  -5   93.99   31.80
  10  -8  -5   67.09   33.80
  -8 -10  -5   93.09   41.30
   8  10  -5   64.09   36.60
  -8 -10   5   62.39   27.80
 -10   8   5   69.59   29.30
  10  -9  -5   39.30   40.10
 -10   9  -5   -5.80   36.40
  -9 -10  -5   56.79   37.70
  -8  11  -5  133.39   47.90
 -11  -8  -5   33.70   41.50
   7 -11  -5   88.19   38.60
 -11  -7   5   47.60   32.90
   6 -11  -5  125.79   36.30
  11   6  -5   45.60   33.30
   6 -11  -5  123.19   32.90
 -11  -6  -5   55.69   28.20
 -11  -6   5  108.99   41.00
 -11  -6   5   25.40   28.20
  11   5  -5  125.09   31.10
   5 -11  -5   84.79   33.60
 -11  -5  -5  116.69   28.70
   5 -11  -5  117.39   30.90
  -5  11  -5  123.39   30.50
 -11  -5   5  160.28   29.40
  -5  11   5  124.19   23.20
 -11  -5   5   55.99   36.30
   4 -11  -5   31.00   23.90
  11   4  -5   -1.90   25.60
 -11  -4  -5   -5.50   23.10
   4 -11  -5    9.50   24.30
  -4  11  -5   37.50   24.80
  -4  11   5   23.70   20.70
 -11  -4   5   38.30   25.50
 -11  -4   5   23.00   29.20
   3 -11  -5   40.10   25.50
  11   3  -5   32.00   25.90
   3 -11  -5   78.69   31.90
 -11  -3  -5   42.30   29.00
  -3  11  -5   32.10   23.10
  -3  11   5   29.70   20.60
 -11  -3   5   43.10   27.30
 -11  -3   5   73.79   24.80
   2 -11  -5  101.19   24.70
  11   2  -5   92.59   29.00
 -11  -2  -5   99.89   25.20
  -2  11  -5   89.19   25.70
   2 -11  -5   86.59   27.80
  -2  11   5  101.39   23.70
   2 -11   5  142.39   23.40
 -11  -2   5  117.99   41.10
 -11  -2   5  126.79   28.70
   2 -11   5  111.59   23.40
   1 -11  -5  115.19   32.40
 -11  -1  -5   75.29   22.70
  11   1  -5   51.29   22.50
   1 -11  -5   65.39   23.30
  -1  11  -5   67.99   22.80
  11   1  -5   48.10   25.60
  -1  11   5   47.50   21.00
 -11  -1   5   81.69   26.10
   1 -11   5   60.29   23.30
   1 -11   5   50.09   21.60
 -11  -1   5   54.19   31.20
   0  11  -5    9.30   20.90
  11   0  -5   27.30   22.50
   0 -11  -5  -24.50   20.50
 -11   0  -5   16.40   19.20
  11   0  -5    7.90   23.90
   0 -11  -5   34.20   27.60
 -11   0   5   18.20   22.80
   0 -11   5    8.10   21.60
   0  11   5    8.70   23.30
 -11   0   5  -24.80   20.40
   0 -11   5   37.00   22.20
  -1 -11  -5   70.39   26.40
  11  -1  -5   75.79   24.60
 -11   1  -5   48.40   19.90
   1  11  -5   92.29   25.50
  -1 -11  -5  103.99   25.60
  11  -1  -5   32.00   22.30
 -11   1   5   67.29   23.70
   1  11   5  108.39   21.90
 -11   1   5   41.40   23.60
  -1 -11   5   29.70   24.50
  11  -2  -5   79.19   24.40
   2  11  -5  109.79   29.00
  -2 -11  -5  109.09   25.80
  11  -2  -5   97.39   28.00
  -2 -11  -5  107.59   33.90
 -11   2  -5  103.39   23.80
 -11   2   5  117.49   25.60
  -2 -11   5  127.19   30.00
   2  11   5  193.08   30.50
 -11   2   5   94.39   29.00
  -3 -11  -5   13.10   24.20
 -11   3  -5   19.90   23.20
  11  -3  -5   41.40   21.50
   3  11  -5   34.90   25.40
  11  -3  -5    9.80   24.00
  -3 -11  -5   22.90   29.30
  -3 -11   5   41.10   27.30
   3  11   5   36.90   20.30
  -3 -11   5   46.40   23.00
 -11   3   5   29.50   23.20
  -4 -11  -5   70.19   27.60
   4  11  -5   94.79   26.30
  -4 -11  -5   82.69   34.70
  11  -4  -5   53.19   22.10
 -11   4  -5  -16.70   21.30
  11  -4  -5   15.70   24.80
 -11   4   5   30.10   21.70
  -4 -11   5   23.10   31.10
  -4 -11   5   10.70   22.80
   5  11  -5  132.09   32.60
  -5 -11  -5  117.19   34.20
  11  -5  -5  107.19   29.70
 -11   5  -5  109.39   42.60
  11  -5  -5  165.78   27.80
  -5 -11  -5   40.70   36.30
  -5 -11   5   50.89   36.10
  -5 -11   5  139.29   25.70
 -11   5   5  118.79   28.30
   6  11  -5   74.29   30.00
  -6 -11  -5  125.29   35.00
  11  -6  -5   41.40   30.70
  11  -6  -5  105.99   31.10
 -11   6  -5  105.39   36.50
  -6 -11  -5   61.09   36.60
 -11   6   5   87.99   27.00
  -6 -11   5   43.90   29.80
  -6 -11   5  173.18   42.70
  -7 -11  -5   99.39   33.90
 -11   7  -5   76.59   32.70
  -7 -11  -5  150.28   43.50
  11  -7  -5   42.40   33.60
  -7 -11   5  101.99   31.50
 -11   7   5   30.30   31.60
  -8 -11  -5  116.79   58.99
 -11   8  -5   39.00   38.90
  11  -8  -5  113.19   39.40
 -12  -7  -5   84.29   48.40
  -6  12  -5   99.69   42.90
 -12  -6  -5   98.09   37.80
  -6  12   5   28.60   32.40
 -12  -5  -5   73.09   33.50
  -5  12  -5  104.39   38.90
   5 -12  -5   58.99   63.99
 -12  -5   5    8.80   33.30
 -12  -5   5   51.49   40.10
  -5  12   5    9.80   27.00
  12   4  -5   53.49   30.90
   4 -12  -5    9.40   32.30
   4 -12  -5   46.80   42.90
  -4  12  -5   18.30   33.20
 -12  -4  -5  104.19   31.40
 -12  -4   5   47.40   31.20
  -4  12   5   27.40   23.90
 -12  -4   5   68.79   37.10
 -12  -3  -5   46.90   25.90
  -3  12  -5   66.19   29.70
   3 -12  -5   59.99   30.90
   3 -12  -5   69.29   35.30
  12   3  -5   20.50   29.50
  -3  12   5   84.09   25.50
 -12  -3   5   27.00   29.50
 -12  -3   5   31.90   28.10
 -12  -2  -5   18.10   26.60
   2 -12  -5   22.10   27.90
  -2  12  -5   65.69   29.00
  12   2  -5  -22.40   25.00
  12   2  -5   58.49   27.90
   2 -12  -5   38.60   34.40
 -12  -2   5   27.90   29.40
  -2  12   5   31.60   22.60
 -12  -2   5   56.59   29.80
  12   1  -5   53.09   26.60
   1 -12  -5   67.39   34.80
  12   1  -5   36.40   24.00
   1 -12  -5   87.79   28.40
  -1  12  -5   47.00   28.40
 -12  -1  -5   24.80   26.10
   1 -12   5   36.40   28.60
 -12  -1   5   52.49   28.60
 -12  -1   5   68.99   30.70
  -1  12   5   75.39   23.90
   1 -12   5   86.49   27.50
   0  12  -5   68.99   28.50
   0 -12  -5   69.59   28.80
   0 -12  -5   37.60   33.40
  12   0  -5   49.20   22.80
 -12   0  -5   26.80   24.50
  12   0  -5   39.00   26.00
   0 -12   5   54.89   26.60
   0  12   5   83.49   23.80
 -12   0   5   53.69   26.70
 -12   0   5   46.20   27.50
   0 -12   5   94.09   26.60
  -1 -12  -5  144.19   30.20
  12  -1  -5   16.70   26.10
  12  -1  -5   76.69   26.10
   1  12  -5  117.19   28.80
  -1 -12  -5   99.79   36.00
 -12   1  -5   87.09   26.90
   1  12   5   74.59   25.20
 -12   1   5  137.79   28.90
  -1 -12   5   92.19   26.10
  -1 -12   5  146.49   29.20
 -12   1   5   56.09   27.50
  -2 -12  -5  121.29   36.30
 -12   2  -5   59.69   25.90
  12  -2  -5   -9.20   24.90
   2  12  -5   50.09   30.50
  12  -2  -5   53.99   25.90
  -2 -12  -5   68.89   30.40
 -12   2   5   64.29   28.10
   2  12   5   62.39   24.90
  -2 -12   5   63.99   24.00
 -12   2   5   52.79   26.20
  -2 -12   5   17.20   29.40
  12  -3  -5   38.20   27.40
 -12   3  -5   46.20   24.20
  -3 -12  -5   25.30   37.00
   3  12  -5   70.69   29.70
  -3 -12  -5  108.39   34.40
  -3 -12   5   42.90   30.20
 -12   3   5   22.10   26.30
  -3 -12   5   17.30   26.70
  -4 -12  -5  134.59   42.40
  12  -4  -5   53.59   45.60
   4  12  -5   97.89   43.90
  -4 -12  -5   63.29   34.40
  12  -4  -5    1.70   30.60
 -12   4  -5   15.70   30.60
  -4 -12   5   46.30   34.10
 -12   4   5    0.30   29.00
  -4 -12   5   77.99   29.20
  -5 -12  -5  100.19   42.30
 -12   5  -5    7.70   32.10
  12  -5  -5   91.89   42.10
  -5 -12  -5  108.89   38.20
   5  12  -5   88.09   45.30
 -12   5   5   33.30   31.90
  -5 -12   5   95.99   29.90
  -5 -12   5  161.98   49.99
  -6 -12  -5  148.69   57.59
  -6 -12  -5   81.39   41.90
 -12   6  -5  128.89   41.80
  -6 -12   5   19.70   34.70
  -4  13   5   42.50   32.20
  -3  13  -5  110.49   44.50
 -13  -3   5   43.30   44.00
  -3  13   5   73.99   29.80
  -2  13  -5   91.59   37.50
 -13  -2   5   60.79   39.90
  -2  13   5  104.39   32.00
  -1  13  -5   98.19   35.90
   1 -13  -5  166.28   40.00
  -1  13   5  110.69   30.10
 -13  -1   5   44.70   36.60
 -13  -1   5   19.90   36.00
   0  13  -5  117.49   36.60
   0 -13  -5  201.38   40.60
 -13   0   5  100.29   38.40
 -13   0   5   47.90   35.90
   0 -13   5   56.69   39.20
   0  13   5  110.89   37.00
   1  13  -5   94.69   42.50
  -1 -13  -5   74.59   36.40
 -13   1   5   71.39   37.80
  -1 -13   5  117.39   36.60
  -1 -13   5   61.29   35.00
  -2 -13  -5   33.60   38.30
  -2 -13   5  139.89   39.80
  -2 -13   5   45.90   33.70
 -13   2   5   63.59   46.20
  -3 -13   5   99.89   36.00
  -3 -13   5  116.09   50.89
  -4 -13   5   99.19   35.80
   0   0  -6  181.68   15.70
   0   0  -6  140.79    9.90
   0   0  -6  147.99   10.10
   0   0   6  171.38   19.50
   0  -1  -6  931.01   37.10
   0  -1  -6 1129.49   40.80
  -1   0  -6 1124.09   29.10
  -1   0  -6 1142.79   41.40
   0  -1  -6 1140.29   31.90
  -1   0  -6 1056.49   39.20
   0   1  -6 1098.99   39.30
   0   1  -6 1141.19   32.60
   1   0  -6 1041.30   39.50
  -1   0  -6 1116.59   28.60
   0  -1  -6 1157.88   43.10
   1   0  -6 1087.29   32.70
   1   0  -6 1101.19   34.50
  -1   0   6 1070.59   42.30
   0   1   6 1111.49   42.40
   0  -1   6 1105.69   41.80
   1   0   6 1094.59   41.20
   1  -1  -6  605.24   21.80
   1   1  -6  592.54   21.80
  -1  -1  -6  588.04   28.00
   1   1  -6  619.04   24.80
   1  -1  -6  611.84   23.60
  -1  -1  -6  594.34   18.40
  -1   1  -6  578.24   18.80
  -1   1  -6  609.54   18.20
  -1   1  -6  587.04   26.60
   1  -1  -6  633.64   32.10
   1   1  -6  591.64   27.80
  -1  -1  -6  608.14   18.40
  -1  -1  -6  630.14   30.20
  -1   1   6  625.04   31.50
  -1  -1   6  611.44   30.90
   1   1   6  613.64   30.50
   1  -1   6  627.94   30.00
  -1   2  -6 1438.86   47.40
   1  -2  -6 1431.76   52.19
   1  -2  -6 1439.26   42.70
  -2  -1  -6 1446.76   35.50
  -2  -1  -6 1486.95   48.80
  -1   2  -6 1421.06   39.20
   1  -2  -6 1447.46   41.80
   2   1  -6 1455.55   42.80
  -2  -1  -6 1441.86   35.40
  -2  -1  -6 1479.35   48.80
   2   1  -6 1516.85   45.40
  -1   2  -6 1380.36   39.30
  -2  -1   6 1521.85   52.59
  -1   2   6 1472.85   51.69
   1  -2   6 1443.66   49.10
   0  -2  -6  123.29   19.20
   0  -2  -6  104.79   14.20
   2   0  -6  124.89   11.00
  -2   0  -6  129.19   14.00
   0   2  -6  127.39   10.50
   2   0  -6  112.69   13.40
   0  -2  -6  125.29   10.30
   0   2  -6  147.19   14.30
  -2   0  -6  117.99    4.90
  -2   0  -6  140.29   27.50
  -2   0  -6  124.09    4.80
   0   2   6  140.69   19.20
  -2   0   6  136.69   20.00
   0  -2   6  135.49   18.60
   2   0   6  130.19   17.90
   2  -1  -6 1490.75   44.10
  -2   1  -6 1437.86   34.80
   2  -1  -6 1446.06   52.69
   1   2  -6 1446.46   44.00
  -1  -2  -6 1465.75   50.69
   1   2  -6 1398.56   41.70
   1   2  -6 1390.56   48.10
  -2   1  -6 1459.75   46.90
   2  -1  -6 1456.55   42.50
  -1  -2  -6 1386.96   48.90
  -2   1  -6 1419.76   35.20
  -1  -2  -6 1421.66   38.50
  -2   1   6 1473.05   51.59
   2  -1   6 1509.95   48.80
  -1  -2   6 1447.06   51.09
   2  -2  -6   11.00    8.30
   2   2  -6   11.90    6.90
   2  -2  -6   17.70    6.80
  -2  -2  -6    1.40    3.70
  -2   2  -6    7.30    3.80
   2   2  -6    3.00    8.90
  -2  -2  -6    8.60    3.40
   2  -2  -6    9.00   12.90
   2   2  -6    0.00    6.50
  -2   2  -6   19.50    7.90
  -2   2  -6    1.90    3.30
  -2  -2  -6    4.30   10.10
  -2  -2  -6  -11.90    9.70
  -2   2   6    8.30   11.70
  -2  -2   6    8.50    9.80
   2  -2   6    8.30    9.30
  -2   3  -6 1557.44   44.00
  -3  -2  -6 1618.04   53.79
   2  -3  -6 1610.74   47.90
   3   2  -6 1542.45   48.30
   2  -3  -6 1639.14   58.29
  -3  -2  -6 1595.04   51.99
  -2   3  -6 1576.04   44.10
   2  -3  -6 1646.04   49.40
  -2   3  -6 1560.24   49.80
   3   2  -6 1707.43   55.49
  -3  -2  -6 1592.34   40.80
   2  -3   6 1709.03   52.79
  -3  -2   6 1613.94   43.80
  -2   3   6 1585.74   54.79
  -2   3   6 1552.94   40.40
  -3  -2   6 1652.23   57.79
  -1   3  -6  550.54   25.10
  -3  -1  -6  545.95   14.70
  -3  -1  -6  540.05   25.40
   1  -3  -6  572.64   32.30
  -1   3  -6  517.95   21.00
  -3  -1  -6  585.54   27.70
  -3  -1  -6  551.84   14.50
  -1   3  -6  516.95   29.20
   1  -3  -6  554.34   23.90
   3   1  -6  542.65   26.80
   3   1  -6  546.15   22.90
   1  -3  -6  545.75   22.40
  -3  -1   6  556.84   31.80
   1  -3   6  527.25   27.90
  -3  -1   6  519.75   21.70
   0  -3  -6 1186.38   35.20
   3   0  -6 1118.89   36.90
   0   3  -6 1161.58   37.70
  -3   0  -6 1100.69   39.80
  -3   0  -6 1199.18   40.40
   0  -3  -6 1146.69   36.00
   0  -3  -6 1157.98   45.50
   3   0  -6 1151.38   41.00
   0   3  -6 1090.69   35.00
   0   3  -6 1107.89   40.60
   0  -3   6 1155.48   43.90
  -3   0   6 1089.69   43.50
   3  -1  -6  601.84   26.50
  -3   1  -6  552.24   13.60
  -3   1  -6  545.15   24.80
  -3   1  -6  513.75   13.70
   3  -1  -6  501.55   22.30
   1   3  -6  545.65   22.40
  -1  -3  -6  539.85   20.50
  -1  -3  -6  515.85   29.80
   3  -1  -6  534.25   32.30
  -3   1  -6  568.94   26.70
   1   3  -6  535.05   24.90
  -1  -3  -6  550.64   22.10
  -3   1   6  523.25   28.30
  -3   1   6  507.45   21.70
  -1  -3   6  557.04   30.50
  -3   1   6  451.95   19.10
  -3   2  -6 1647.24   50.59
   3  -2  -6 1685.03   59.49
  -3   2  -6 1563.44   41.00
   2   3  -6 1624.34   51.69
  -3   2  -6 1608.54   40.80
  -2  -3  -6 1719.43   63.89
   3  -2  -6 1685.93   58.69
  -2  -3  -6 1593.54   44.50
  -2  -3  -6 1665.03   47.40
   2   3  -6 1607.24   48.80
  -2  -3  -6 1702.23   55.69
   3  -2  -6 1586.34   48.70
  -3   2   6 1613.74   56.59
  -2  -3   6 1564.54   39.50
  -3   2   6 1632.04   44.60
   3  -2   6 1650.33   51.79
  -2  -3   6 1630.74   57.79
  -3   3  -6  807.82   25.80
   3   3  -6  783.92   30.70
   3  -3  -6  780.82   31.00
   3  -3  -6  809.52   32.70
   3  -3  -6  780.92   37.60
  -3   3  -6  811.82   30.90
  -3  -3  -6  817.42   35.90
  -3  -3  -6  799.12   26.30
   3   3  -6  836.52   35.00
  -3   3  -6  766.82   25.60
   3  -3   6  818.82   33.00
  -3  -3   6  818.02   40.50
  -3   3   6  818.02   27.90
  -3  -3   6  788.22   27.10
  -3   3   6  751.92   37.20
  -4  -3  -6  929.91   38.30
  -4  -3  -6  923.01   29.60
   4   3  -6  955.10   39.60
   3  -4  -6  939.31   37.60
   3  -4  -6  870.81   43.50
  -3   4  -6  909.51   30.80
  -4  -3   6  943.41   33.80
  -3   4   6  938.81   32.20
  -4  -3   6  885.41   32.70
   3  -4   6  949.80   35.80
  -4  -3   6  953.30   45.40
  -2   4  -6   65.59   10.90
   4   2  -6   67.59   14.70
   2  -4  -6   88.19   16.70
  -2   4  -6   92.79   10.80
   2  -4  -6   67.09   10.00
  -4  -2  -6   80.99    7.10
  -4  -2  -6   89.29   14.70
   4   2  -6   95.29   15.50
  -4  -2  -6   72.09    7.60
  -4  -2  -6   88.69   13.90
   2  -4  -6   65.39   12.60
  -4  -2   6   82.09   18.80
  -4  -2   6   72.39   11.10
  -4  -2   6   90.99   12.70
  -2   4   6   83.39    9.20
   2  -4   6  100.69   15.80
  -2   4   6   71.49   11.30
   1  -4  -6 1018.30   44.50
   1  -4  -6 1025.40   34.80
   1  -4  -6 1057.49   36.30
  -1   4  -6  988.50   33.80
  -4  -1  -6 1047.30   37.40
  -4  -1  -6 1005.60   38.70
   4   1  -6  989.10   35.70
  -4  -1  -6 1025.80   26.50
   4   1  -6 1089.79   40.00
  -4  -1  -6  983.80   29.70
  -1   4  -6 1034.30   35.90
  -4  -1   6 1032.10   33.60
  -4  -1   6 1057.49   44.50
  -4  -1   6 1027.30   33.80
   1  -4   6 1013.10   40.20
   0  -4  -6  119.69   11.20
  -4   0  -6  117.59   13.70
   0   4  -6   99.49   12.20
   0   4  -6  117.09   15.30
   0  -4  -6  121.99   14.60
  -4   0  -6  107.89    4.30
  -4   0  -6  108.89   14.80
   0  -4  -6  113.09   17.30
  -4   0  -6  101.79    6.50
   4   0  -6  125.79   13.70
   4   0  -6  105.99   16.50
  -4   0   6  131.19   13.20
  -4   0   6  108.09   17.20
  -4   0   6  103.19   13.00
   0  -4   6  121.49   18.40
  -4   1  -6 1078.89   36.80
  -4   1  -6 1032.60   36.70
  -1  -4  -6 1026.10   34.80
   4  -1  -6 1069.49   46.20
   1   4  -6  967.00   35.10
  -1  -4  -6 1010.60   33.70
   1   4  -6 1053.89   38.90
  -4   1  -6 1015.00   25.70
  -1  -4  -6 1043.20   43.80
  -4   1  -6 1032.20   25.60
   4  -1  -6 1041.00   36.50
   4  -1  -6 1103.89   40.30
  -4   1   6 1054.59   42.20
  -4   1   6 1050.39   34.00
  -4   1   6 1048.20   34.30
  -1  -4   6  988.00   43.40
  -2  -4  -6   76.69   10.70
  -4   2  -6   85.49    7.00
   2   4  -6   94.39   12.40
  -2  -4  -6   98.89   18.70
  -2  -4  -6   97.99   13.90
   2   4  -6   96.39   15.00
  -4   2  -6   84.29   12.50
   4  -2  -6  120.79   21.30
   4  -2  -6   72.69   14.20
   4  -2  -6   65.39   12.00
  -4   2  -6   79.29    6.30
  -2  -4   6   68.99    7.80
  -2  -4   6   83.49   18.50
  -4   2   6   79.19   12.80
  -4   2   6   96.69   16.30
  -4   2   6   70.99   10.30
  -3  -4  -6  867.91   39.20
  -3  -4  -6  956.00   31.40
   3   4  -6  931.61   39.00
  -4   3  -6  917.31   28.50
  -4   3  -6  938.51   28.80
   3   4  -6  866.51   35.90
   4  -3  -6  938.51   44.70
  -4   3  -6  907.71   33.10
  -3  -4  -6  918.71   32.60
   4  -3  -6  920.11   38.20
  -4   3   6  932.01   41.60
  -3  -4   6  970.40   45.70
  -4   3   6  921.01   33.50
  -3  -4   6  929.41   31.60
  -4   3   6  973.90   33.20
   4  -3   6  954.40   35.30
  -4  -4  -6   96.29   14.50
   4  -4  -6   79.89   16.20
  -4  -4  -6   93.09   17.40
  -4   4  -6   75.99   11.00
   4   4  -6   62.99   16.30
  -4   4  -6   97.89   17.00
  -4   4  -6   71.79   11.20
   4  -4  -6   74.19   17.70
  -4   4   6   93.69   14.30
   4  -4   6   70.09   12.00
  -4  -4   6   64.39   20.30
  -4  -4   6   63.99   12.30
  -4   4   6   77.79   12.60
  -4   4   6   90.29   18.50
  -5  -4  -6  693.13   34.90
  -4   5  -6  661.33   39.30
  -5  -4  -6  683.43   28.70
  -4   5  -6  666.33   33.10
   4  -5  -6  756.82   40.20
   4  -5  -6  694.13   36.10
   5   4  -6  758.12   38.70
  -5  -4  -6  699.53   27.40
  -4   5  -6  686.73   40.30
  -5  -4   6  667.23   29.80
  -5  -4   6  676.83   40.00
   4  -5   6  718.43   29.10
  -5  -4   6  705.23   33.20
  -4   5   6  722.93   29.90
  -4   5   6  663.43   30.40
   3  -5  -6  188.08   27.50
  -3   5  -6  206.48   20.20
   3  -5  -6  208.48   23.00
  -5  -3  -6  217.38   21.10
  -5  -3  -6  190.18   13.40
  -3   5  -6  193.08   16.30
   5   3  -6  207.28   23.50
  -5  -3  -6  190.58   16.80
  -5  -3   6  200.38   23.90
  -5  -3   6  226.28   17.60
  -5  -3   6  224.78   20.20
  -3   5   6  210.38   16.70
   3  -5   6  237.48   19.80
   5   2  -6  636.64   34.40
  -2   5  -6  614.64   33.00
  -5  -2  -6  608.94   21.80
  -5  -2  -6  614.24   21.20
   2  -5  -6  641.44   35.30
  -2   5  -6  650.43   28.20
  -5  -2  -6  571.94   30.70
  -5  -2  -6  645.74   28.80
  -2   5  -6  613.14   26.40
   2  -5  -6  683.43   31.10
  -5  -2   6  589.54   27.90
   2  -5   6  617.94   30.80
  -2   5   6  615.34   24.30
  -5  -2   6  651.03   35.00
  -5  -2   6  586.64   27.30
  -5  -1  -6  419.56   23.80
   1  -5  -6  416.56   22.30
  -1   5  -6  412.86   27.90
   1  -5  -6  432.26   24.80
  -5  -1  -6  407.06   14.60
  -5  -1  -6  393.86   14.40
   1  -5  -6  411.46   28.60
  -1   5  -6  422.96   21.80
   5   1  -6  430.66   27.40
  -5  -1  -6  409.86   21.90
  -5  -1   6  443.36   31.70
   1  -5   6  422.16   26.50
  -5  -1   6  386.76   22.00
  -5  -1   6  410.06   23.40
  -1   5   6  382.36   14.70
   0  -5  -6  904.21   43.30
  -5   0  -6  887.71   23.90
  -5   0  -6  879.21   31.70
   0   5  -6  898.11   35.50
   5   0  -6  862.21   37.80
  -5   0  -6  819.22   33.40
   0   5  -6  859.01   33.40
   0  -5  -6  839.62   32.00
  -5   0  -6  844.52   23.40
   0  -5  -6  897.31   34.70
  -5   0   6  851.41   39.20
  -5   0   6  930.91   33.10
   0  -5   6  894.91   40.00
  -5   0   6  883.71   33.30
   5  -1  -6  390.96   28.30
  -5   1  -6  425.76   13.80
   1   5  -6  444.26   26.20
  -1  -5  -6  417.16   23.00
  -1  -5  -6  375.56   27.00
  -5   1  -6  405.86   20.80
  -1  -5  -6  404.96   20.70
   5  -1  -6  428.06   27.70
  -5   1  -6  394.06   13.80
   1   5  -6  415.16   22.80
  -5   1  -6  418.86   21.10
  -5   1   6  393.16   26.50
  -1  -5   6  398.26   13.10
  -1  -5   6  405.66   29.00
  -5   1   6  384.56   22.70
  -5   1   6  411.76   22.20
  -5   2  -6  632.04   25.20
   5  -2  -6  633.64   33.30
  -5   2  -6  651.03   26.20
   5  -2  -6  623.04   38.00
  -5   2  -6  638.94   20.40
   2   5  -6  681.83   35.50
  -2  -5  -6  623.24   26.30
   2   5  -6  632.04   32.90
  -2  -5  -6  619.34   35.60
  -2  -5  -6  614.24   28.00
  -5   2   6  615.84   28.50
  -5   2   6  606.04   27.10
  -2  -5   6  622.74   24.30
  -5   2   6  614.44   34.20
  -2  -5   6  616.54   24.70
  -2  -5   6  608.24   37.80
  -3  -5  -6  220.88   20.20
  -5   3  -6  195.38   13.00
   5  -3  -6  212.38   27.20
  -5   3  -6  224.18   26.80
  -5   3  -6  211.98   17.20
  -3  -5  -6  194.68   24.00
  -3  -5  -6  191.38   16.10
  -5   3  -6  180.08   14.70
   5  -3  -6  244.78   24.70
   3   5  -6  198.08   23.00
  -3  -5   6  206.18   17.50
  -3  -5   6  260.67   29.80
  -5   3   6  174.58   17.20
  -3  -5   6  213.98   15.90
  -5   3   6  221.08   25.00
  -5   3   6  188.68   19.20
  -5   4  -6  678.03   30.80
   4   5  -6  706.23   37.70
  -4  -5  -6  671.23   32.60
   5  -4  -6  667.03   35.40
   5  -4  -6  691.53   41.40
  -5   4  -6  712.83   28.00
  -4  -5  -6  725.43   38.90
  -5   4  -6  680.23   26.00
  -4  -5   6  751.02   41.50
  -5   4   6  681.63   30.50
  -5   4   6  682.23   31.50
  -4  -5   6  717.73   31.80
  -5   4   6  732.73   38.10
  -5   5  -6  546.55   26.30
   5  -5  -6  492.65   38.50
   5   5  -6  555.64   35.70
  -5  -5  -6  473.55   31.40
  -5   5  -6  495.55   23.90
   5  -5  -6  465.15   32.20
  -5  -5  -6  508.25   26.90
  -5  -5   6  475.95   27.70
  -5  -5   6  523.35   31.10
  -5   5   6  492.65   27.90
  -5   5   6  542.15   29.40
  -5   6  -6  662.13   32.10
   5  -6  -6  682.23   44.70
   6   5  -6  704.53   42.30
   5  -6  -6  674.23   39.40
  -6  -5  -6  658.43   32.20
  -6  -5  -6  591.84   35.90
  -5   6  -6  706.23   33.90
  -6  -5  -6  646.84   34.30
  -5   6   6  661.13   34.20
  -6  -5   6  646.64   47.90
  -6  -5   6  684.83   36.00
  -6  -4  -6   15.70   12.10
  -4   6  -6    5.70   12.50
   6   4  -6   12.60   17.10
  -6  -4  -6   20.90   13.00
  -4   6  -6   15.10   17.30
  -6  -4  -6   30.50   10.10
   4  -6  -6   45.60   16.40
  -4   6  -6    5.10   11.30
  -6  -4   6    7.60   13.90
  -6  -4   6   53.59   17.40
  -4   6   6   -1.30   12.20
  -4   6   6   27.10   12.70
   4  -6   6   15.10   10.00
   6   3  -6  522.95   35.20
   3  -6  -6  543.45   31.40
  -6  -3  -6  544.15   24.40
  -3   6  -6  514.45   27.40
  -6  -3  -6  579.84   25.70
  -6  -3  -6  510.35   27.50
  -3   6  -6  524.55   35.20
   3  -6  -6  594.74   41.10
  -3   6   6  530.25   28.10
  -6  -3   6  528.25   39.50
  -6  -3   6  570.34   31.70
  -6  -3   6  543.05   29.80
   3  -6   6  554.54   27.70
   2  -6  -6   71.79   15.90
  -2   6  -6   66.69   14.00
  -6  -2  -6   74.29   12.90
  -6  -2  -6   57.99   12.00
   2  -6  -6   89.59   22.30
   6   2  -6   73.79   18.00
  -2   6  -6   54.09   12.40
  -6  -2  -6   61.69    8.80
  -6  -2   6   71.19   15.40
  -2   6   6   69.19   10.60
  -6  -2   6   85.19   14.00
   2  -6   6   92.99   15.90
  -6  -2   6   88.99   22.30
  -2   6   6   71.59   12.30
   1  -6  -6  734.23   34.10
  -6  -1  -6  760.22   25.30
   6   1  -6  766.42   38.30
  -1   6  -6  753.92   34.30
   1  -6  -6  738.53   40.20
  -6  -1  -6  748.23   40.30
  -6  -1  -6  809.12   34.80
  -1   6  -6  743.73   31.60
  -6  -1  -6  734.33   24.30
  -6  -1   6  798.62   32.30
  -6  -1   6  785.62   34.80
  -6  -1   6  749.03   38.70
   1  -6   6  744.43   35.80
  -1   6   6  721.43   26.70
   0   6  -6    5.00   14.50
  -6   0  -6    0.30    8.80
   0  -6  -6    7.90   10.60
  -6   0  -6   -1.10    4.80
   0   6  -6    9.70   12.20
   0  -6  -6  -10.80   17.00
  -6   0  -6   -8.80    8.90
  -6   0  -6    3.80    4.80
   6   0  -6   12.60   13.30
   0   6   6    0.70    6.20
   0   6   6    3.10    4.50
   0  -6   6   20.10   14.00
  -6   0   6    4.90   11.10
  -6   0   6   -7.40   11.70
  -6   0   6   11.90   14.90
  -6   1  -6  748.33   32.70
   6  -1  -6  784.82   38.70
  -6   1  -6  736.73   23.70
  -6   1  -6  748.53   24.10
  -1  -6  -6  714.13   32.40
   1   6  -6  759.32   36.90
   6  -1  -6  716.23   42.10
  -1  -6  -6  766.32   42.00
  -6   1  -6  768.12   30.70
  -1  -6  -6  756.02   33.80
  -6   1   6  773.82   40.00
  -1  -6   6  762.52   41.00
  -6   1   6  798.62   34.30
  -6   1   6  749.03   31.00
  -6   2  -6   58.09    8.20
   6  -2  -6   56.49   16.40
  -6   2  -6   73.49   11.80
  -2  -6  -6   72.49   20.50
   6  -2  -6   41.60   20.70
  -2  -6  -6   74.69   14.30
  -6   2  -6   80.49   13.00
   2   6  -6   69.79   16.30
  -6   2  -6   74.59   11.60
  -2  -6  -6   74.29   12.20
  -6   2  -6   87.09   20.30
  -2  -6   6   49.00   11.40
  -2  -6   6   74.79   10.90
  -6   2   6   65.09   18.20
  -6   2   6   85.89   13.20
  -2  -6   6   62.09   19.70
  -6   2   6   96.89   16.10
  -6   3  -6  573.14   21.80
   6  -3  -6  550.54   38.40
  -6   3  -6  557.34   23.50
   3   6  -6  535.25   34.90
  -3  -6  -6  566.14   29.10
   6  -3  -6  560.74   33.80
  -3  -6  -6  537.15   35.20
  -6   3  -6  530.85   23.00
  -6   3  -6  557.34   23.10
  -3  -6  -6  534.05   27.10
  -3  -6   6  518.15   28.40
  -6   3   6  502.55   29.20
  -6   3   6  541.75   30.60
  -3  -6   6  510.75   29.70
  -6   3   6  571.44   34.30
  -3  -6   6  544.15   40.90
  -6   4  -6   34.70   10.60
  -6   4  -6   34.00   11.10
   6  -4  -6   23.60   16.70
  -4  -6  -6   15.70   11.70
  -6   4  -6   12.80    9.10
   6  -4  -6   12.20   18.80
   4   6  -6   21.50   16.90
  -4  -6  -6   17.70   17.50
  -4  -6   6   24.50   12.00
  -6   4   6   -0.20   17.30
  -6   4   6   16.30   13.90
  -4  -6   6   20.40   13.80
  -4  -6   6   11.20   26.10
  -6   4   6    6.00   13.00
   5   6  -6  678.93   44.00
   6  -5  -6  628.24   39.90
   6  -5  -6  700.33   41.20
  -6   5  -6  610.04   29.50
  -5  -6  -6  625.64   32.90
  -6   5  -6  665.53   30.20
  -5  -6  -6  653.83   38.40
  -6   5  -6  685.13   31.80
  -6   5   6  685.43   35.70
  -5  -6   6  682.53   48.90
  -5  -6   6  716.83   37.50
   6  -6  -6   78.79   24.50
   6   6  -6   37.90   20.30
  -6  -6  -6   40.50   19.40
   6  -6  -6   51.99   19.70
  -6  -6  -6   61.59   15.90
  -6   6  -6   41.80   13.70
  -6   6   6   25.70   15.10
  -6  -6   6  -20.70   22.70
  -6  -6   6   36.20   18.60
  -6   7  -6  423.36   30.90
   7   6  -6  313.27   36.20
  -7  -6  -6  351.16   33.10
   6  -7  -6  378.06   38.90
   6  -7  -6  345.97   34.90
  -7  -6  -6  409.26   32.40
  -6   7   6  352.06   32.30
  -7  -6   6  400.66   58.69
  -7  -6   6  294.27   43.90
   5  -7  -6  187.88   26.50
  -5   7  -6  162.78   22.50
   5  -7  -6  213.08   33.50
   7   5  -6  238.78   31.80
  -7  -5  -6  216.58   26.50
  -7  -5  -6  205.98   23.40
  -7  -5   6  201.88   31.00
  -5   7   6  199.08   26.50
  -7  -5   6  207.78   34.80
   5  -7   6  182.48   16.10
  -7  -4  -6  561.44   30.40
  -7  -4  -6  567.14   28.30
   4  -7  -6  554.74   37.80
   4  -7  -6  583.34   43.10
  -7  -4  -6  592.54   29.40
  -7  -4   6  556.74   34.90
  -4   7   6  471.55   32.80
   4  -7   6  555.64   26.20
  -7  -4   6  513.45   44.00
   3  -7  -6  384.26   32.00
  -3   7  -6  444.06   28.90
  -7  -3  -6  379.06   21.40
  -7  -3  -6  376.86   23.40
   7   3  -6  383.96   34.50
   3  -7  -6  436.66   39.50
  -7  -3  -6  398.16   23.10
  -7  -3   6  401.96   38.70
  -3   7   6  308.47   25.10
  -3   7   6  390.96   26.20
   3  -7   6  413.36   25.50
  -7  -3   6  423.26   31.80
   2  -7  -6  645.44   35.70
   2  -7  -6  584.84   48.40
  -7  -2  -6  680.13   25.70
   7   2  -6  630.84   39.40
  -2   7  -6  707.13   34.60
  -7  -2  -6  692.33   27.80
  -7  -2  -6  640.84   27.90
  -2   7   6  649.43   29.60
  -7  -2   6  670.03   48.80
  -7  -2   6  661.23   34.90
  -2   7   6  651.23   29.00
   2  -7   6  685.93   32.90
  -7  -1  -6  355.46   20.20
  -7  -1  -6  385.76   18.10
  -7  -1  -6  340.37   24.40
   7   1  -6  336.77   30.90
  -7  -1  -6  328.57   23.30
   1  -7  -6  398.06   29.90
  -1   7  -6  412.66   28.70
   1  -7  -6  395.56   32.70
  -1   7   6  385.16   23.70
  -7  -1   6  404.66   34.90
  -7  -1   6  369.76   27.20
  -1   7   6  389.86   21.40
   1  -7   6  394.86   29.40
  -7   0  -6  812.12   33.40
  -7   0  -6  734.93   23.60
  -7   0  -6  807.72   29.20
   7   0  -6  790.32   43.00
   0   7  -6  822.12   39.70
   0  -7  -6  796.12   46.80
   7   0  -6  864.21   47.00
   0  -7  -6  843.12   38.00
  -7   0  -6  807.62   26.80
  -7   0   6  811.32   37.50
   0  -7   6  860.41   42.40
   0  -7   6  968.50   37.20
  -7   0   6  804.82   43.80
   0   7   6  734.93   30.60
  -7   1  -6  367.06   19.60
   7  -1  -6  402.36   35.00
   7  -1  -6  394.86   32.10
  -1  -7  -6  349.77   35.20
  -7   1  -6  363.46   21.30
  -1  -7  -6  367.16   27.80
   1   7  -6  390.06   28.40
  -7   1  -6  381.16   17.30
  -1  -7   6  400.16   34.10
  -7   1   6  401.66   27.50
  -1  -7   6  411.66   21.80
   1   7   6  425.56   17.50
  -7   1   6  394.86   32.50
  -2  -7  -6  657.63   37.10
   2   7  -6  659.33   37.40
  -7   2  -6  648.94   26.50
  -7   2  -6  687.83   26.70
   7  -2  -6  764.92   40.50
  -2  -7  -6  648.64   43.20
   7  -2  -6  652.33   42.40
  -7   2  -6  649.54   24.80
  -7   2   6  721.03   35.00
  -2  -7   6  725.33   44.90
  -2  -7   6  684.23   30.90
  -7   2   6  692.23   38.80
  -2  -7   6  622.14   27.60
  -7   3  -6  380.66   19.80
  -7   3  -6  384.56   18.60
  -7   3  -6  389.56   13.20
   7  -3  -6  338.67   38.30
  -7   3  -6  382.16   12.30
   7  -3  -6  428.46   34.50
  -3  -7  -6  362.06   35.10
   3   7  -6  377.56   34.10
  -3  -7  -6  437.16   29.30
  -7   3  -6  409.36   22.10
  -7   3   6  382.56   28.40
  -3  -7   6  386.86   27.30
  -3  -7   6  382.56   23.90
  -7   3   6  417.26   31.70
  -7   4  -6  572.04   29.50
   7  -4  -6  517.55   39.90
  -7   4  -6  541.25   27.30
   4   7  -6  598.74   41.70
  -4  -7  -6  546.45   39.50
  -4  -7  -6  586.84   33.10
  -4  -7   6  584.84   34.90
  -4  -7   6  618.04   48.10
  -7   4   6  586.04   35.40
  -4  -7   6  632.84   36.10
  -7   4   6  582.14   36.30
   7  -5  -6  236.48   29.60
   5   7  -6  160.18   26.10
   7  -5  -6  182.38   32.00
  -5  -7  -6  204.88   31.70
  -5  -7  -6  198.88   26.50
  -7   5  -6  166.98   22.10
  -5  -7   6  188.38   34.40
  -5  -7   6  172.78   25.20
  -7   5   6  174.28   24.40
   7  -6  -6  402.06   35.80
  -6  -7  -6  413.86   32.90
   7  -6  -6  390.16   37.00
  -7   6  -6  371.96   29.90
  -6  -7  -6  329.67   34.50
   6   7  -6  408.66   38.60
  -6  -7   6  372.06   44.30
  -6  -7   6  335.67   36.00
  -7  -7  -6  197.08   34.60
   7  -7  -6  156.78   31.10
  -7   7  -6  167.28   24.50
   7  -7  -6  168.48   27.20
   7   7  -6  143.09   25.80
  -7  -7  -6  248.28   31.80
  -7   7   6  207.58   30.60
  -7  -7   6  135.79   37.10
  -7  -7   6  133.89   25.30
   7  -8  -6  242.08   38.10
   8   7  -6  198.98   32.40
  -8  -7  -6  232.28   35.40
   7  -8  -6  264.47   38.00
  -8  -7   6  218.58   39.90
  -8  -7   6  162.18   28.30
  -7   8   6  242.18   32.50
   8   6  -6   13.90   23.20
   6  -8  -6   23.60   25.80
  -8  -6  -6  105.39   22.00
   6  -8  -6   44.30   22.70
  -8  -6  -6   61.79   23.10
  -6   8  -6   43.20   36.00
  -6   8   6   49.90   19.80
  -8  -6   6   47.60   31.60
  -8  -6   6   50.99   23.50
   5  -8  -6  345.47   40.00
   8   5  -6  329.67   37.10
  -8  -5  -6  394.26   31.70
  -8  -5  -6  414.46   31.60
   5  -8  -6  342.77   35.80
  -8  -5   6  436.16   38.40
  -5   8   6  327.37   29.90
  -8  -5   6  405.06   44.60
   4  -8  -6  -23.50   21.20
   4  -8  -6   13.50   18.40
   8   4  -6    6.40   19.50
  -8  -4  -6   34.90   15.80
   4  -8   6   30.60   11.50
  -8  -4   6   40.60   21.30
  -8  -3  -6  460.35   26.00
  -3   8  -6  526.15   32.40
  -8  -3  -6  485.15   27.60
   3  -8  -6  428.66   38.00
   8   3  -6  427.36   37.20
  -8  -3   6  457.15   41.60
  -8  -3   6  454.45   38.20
  -3   8   6  500.35   30.70
  -2   8  -6   40.30   16.10
  -8  -2  -6   31.50   11.50
   2  -8  -6   31.10   17.00
   2  -8  -6   20.20   23.90
   8   2  -6   33.40   19.40
   2  -8   6   26.60   13.90
  -8  -2   6   17.50   17.40
  -2   8   6   24.20   13.60
  -8  -2   6   45.20   21.70
  -8  -1  -6  622.64   34.70
  -8  -1  -6  664.53   28.20
  -1   8  -6  663.83   38.60
   1  -8  -6  628.14   36.40
   1  -8  -6  574.54   45.90
   8   1  -6  589.44   47.80
  -8  -1   6  592.24   41.80
   1  -8   6  662.33   36.60
  -1   8   6  672.63   29.90
  -8  -1   6  639.34   39.10
   1  -8   6  740.93   32.60
   0   8  -6   61.39   18.80
  -8   0  -6   77.39   12.20
   0  -8  -6   46.50   25.90
   0  -8  -6   55.89   17.90
   8   0  -6   60.29   26.80
  -8   0  -6   70.69   13.20
  -8   0   6   43.40   18.50
   0  -8   6   49.20   11.20
   0   8   6   67.19   12.40
   0  -8   6   85.89   20.50
   1   8  -6  608.74   37.90
  -1  -8  -6  643.84   43.90
  -8   1  -6  645.54   27.40
  -1  -8  -6  587.34   37.50
   8  -1  -6  649.14   42.30
  -1  -8   6  582.04   29.50
  -8   1   6  642.64   36.90
  -1  -8   6  583.44   42.40
  -8   1   6  606.34   39.30
   8  -2  -6   30.60   18.50
  -2  -8  -6   33.90   17.30
   8  -2  -6   42.00   22.90
  -8   2  -6   27.90   11.90
   2   8  -6   29.80   17.50
  -2  -8  -6   42.70   23.70
  -8   2   6   52.79   20.60
  -8   2   6   35.00   17.50
  -2  -8   6   32.70   14.50
   8  -3  -6  450.05   38.70
   8  -3  -6  425.76   36.40
   3   8  -6  395.16   59.29
  -3  -8  -6  531.45   36.00
  -3  -8  -6  429.46   39.20
  -8   3  -6  475.85   26.40
  -3  -8   6  424.36   43.80
  -8   3   6  491.35   36.90
  -8   3   6  465.75   34.40
  -3  -8   6  493.05   32.00
  -4  -8  -6   39.60   25.20
  -8   4  -6   70.09   28.70
   4   8  -6   24.50   19.20
   8  -4  -6   13.40   18.60
   8  -4  -6   40.20   22.10
  -4  -8  -6   40.40   18.00
  -4  -8   6   20.20   18.40
  -4  -8   6    4.20   24.40
  -8   4   6   42.50   21.00
  -8   5  -6  368.96   30.30
   8  -5  -6  385.56   38.00
   5   8  -6  455.35   37.90
  -5  -8  -6  344.57   38.00
   8  -5  -6  371.26   35.20
  -5  -8  -6  444.06   33.90
  -5  -8   6  352.66   36.70
  -5  -8   6  378.86   45.70
  -8   5   6  386.26   32.80
  -8   6  -6   64.69   20.00
   8  -6  -6   79.29   22.50
   8  -6  -6   48.60   22.80
  -6  -8  -6   50.99   23.20
   6   8  -6   79.19   25.50
  -6  -8  -6   99.89   28.00
  -6  -8   6   -5.80   28.60
  -8   6   6    2.10   19.90
  -6  -8   6   -2.50   22.20
  -8   7  -6  216.28   34.50
   8  -7  -6  263.17   36.90
   8  -7  -6  211.18   32.20
  -7  -8  -6  280.37   41.90
   7   8  -6  192.28   33.30
  -7  -8   6  171.88   30.30
  -8   7   6  244.18   29.20
  -7  -8   6  199.48   39.90
  -8   8  -6  -21.10   25.30
   8  -8  -6   44.00   27.30
  -8  -8  -6   38.70   24.10
  -8  -8  -6   42.50   52.79
  -8  -8   6   26.40   35.30
  -8   8   6   24.60   21.50
   8  -9  -6   78.49   33.40
   9   8  -6  144.49   37.60
  -8   9  -6  186.48   35.10
   8  -9  -6  201.38   35.50
  -9  -8   6  124.39   30.40
  -8   9   6  168.78   27.70
  -9  -7  -6  128.99   29.80
  -7   9  -6   99.79   30.00
   9   7  -6   75.29   31.10
   7  -9  -6   81.89   30.80
   7  -9  -6   86.99   30.40
  -9  -7   6   41.70   40.00
  -9  -7   6  143.19   26.30
  -9  -6  -6  278.37   39.40
   9   6  -6  235.58   39.00
   6  -9  -6  348.67   42.90
   6  -9  -6  275.37   40.90
  -9  -6   6  235.08   31.10
  -6   9   6  283.87   30.80
  -9  -6   6  348.97   48.50
  -9  -5  -6  228.98   32.30
   5  -9  -6  193.68   30.10
   5  -9  -6  230.08   38.80
   9   5  -6  172.18   32.50
  -9  -5   6  170.18   26.20
  -9  -5   6  211.78   36.60
   4  -9  -6  340.97   36.30
   4  -9  -6  339.77   40.20
   9   4  -6  327.47   40.40
  -9  -4  -6  254.77   29.60
  -9  -4   6  363.96   43.70
   4  -9   6  360.06   29.40
  -9  -4   6  263.27   33.50
  -4   9   6  361.86   33.70
  -9  -3  -6  109.49   19.40
   3  -9  -6  111.89   23.90
   9   3  -6  128.89   25.80
   3  -9  -6  111.99   30.80
  -3   9  -6  149.88   26.10
  -9  -3   6  115.39   25.90
   3  -9   6   79.89   17.30
  -3   9   6  111.79   21.70
  -9  -3   6  109.59   24.30
  -2   9  -6  308.27   32.70
   2  -9  -6  276.37   38.80
   9   2  -6  275.37   33.70
  -9  -2  -6  291.27   24.70
   2  -9  -6  328.77   33.90
  -2   9   6  313.37   27.00
   2  -9   6  239.58   26.70
  -9  -2   6  337.57   35.10
  -9  -2   6  266.17   32.50
  -9  -1  -6  216.88   22.60
   9   1  -6  164.18   27.80
  -1   9  -6  205.68   30.30
   1  -9  -6  171.48   29.80
   1  -9  -6  178.78   26.90
  -1   9   6  200.98   23.50
  -9  -1   6  170.28   27.20
  -9  -1   6  176.38   27.20
   1  -9   6  196.18   30.50
   0  -9  -6  502.35   43.20
  -9   0  -6  465.05   27.40
   9   0  -6  457.85   40.80
   9   0  -6  534.25   40.20
   0   9  -6  481.05   43.40
  -9   0   6  488.65   38.80
   0  -9   6  464.45   27.80
  -9   0   6  435.46   36.80
   0  -9   6  522.95   41.20
  -1  -9  -6  178.28   30.10
   9  -1  -6  177.68   26.90
   1   9  -6  199.88   34.00
  -1  -9  -6  200.38   34.30
   9  -1  -6  179.68   29.80
  -9   1  -6  192.58   21.30
  -9   1   6  172.58   26.70
  -1  -9   6  221.98   24.80
  -1  -9   6  199.08   30.70
   1   9   6  168.98   19.70
  -9   1   6  197.28   27.60
   2   9  -6  266.37   32.30
  -9   2  -6  285.17   24.40
   9  -2  -6  236.28   33.50
  -2  -9  -6  273.07   35.10
   9  -2  -6  268.07   33.20
  -2  -9  -6  273.37   36.70
  -9   2   6  265.57   31.40
  -2  -9   6  297.97   40.00
  -9   2   6  297.37   32.40
  -2  -9   6  272.77   29.30
  -9   3  -6  125.89   19.00
   9  -3  -6  119.69   25.80
   3   9  -6  146.29   27.40
  -3  -9  -6  109.79   29.10
   9  -3  -6  117.29   24.20
  -3  -9  -6  111.09   26.40
  -9   3   6  136.19   24.30
  -9   3   6  121.59   24.20
  -3  -9   6  130.89   22.80
  -3  -9   6  126.59   29.70
   9  -4  -6  295.67   34.40
  -9   4  -6  363.56   30.70
   4   9  -6  323.87   37.50
   9  -4  -6  248.48   35.90
  -4  -9  -6  336.37   39.80
  -9   4   6  354.86   35.50
  -4  -9   6  344.27   36.20
  -4  -9   6  369.86   44.90
  -9   4   6  366.96   34.30
  -5  -9  -6  291.77   42.40
  -5  -9  -6  220.78   32.00
   9  -5  -6  239.38   37.20
   5   9  -6  253.47   37.60
  -9   5  -6  206.28   30.70
   9  -5  -6  218.18   31.30
  -5  -9   6  222.58   30.70
  -5  -9   6  222.68   39.10
  -9   5   6  323.37   30.70
  -9   6  -6  299.67   37.40
   6   9  -6  346.27   42.70
  -6  -9  -6  351.26   42.70
   9  -6  -6  310.07   36.20
  -6  -9  -6  361.16   39.70
   9  -6  -6  246.08   37.80
  -6  -9   6  254.57   43.70
  -6  -9   6  234.88   36.60
  -9   6   6  304.07   34.50
  -7  -9  -6  128.09   36.80
   9  -7  -6  117.19   28.40
   9  -7  -6  124.39   30.80
  -9   7  -6   72.89   27.30
  -7  -9  -6  188.58   31.50
   7   9  -6  108.89   32.60
  -7  -9   6   98.89   39.60
  -9   7   6  129.79   23.00
  -7  -9   6  103.59   28.20
   8   9  -6  108.49   36.90
  -9   8  -6  127.39   38.80
   9  -8  -6  166.38   37.20
  -8  -9  -6  197.18   35.60
   9  -8  -6  108.79   34.80
  -9   8   6  112.69   27.40
  -9   9  -6  107.79   55.59
  -9  -9  -6  147.29   38.70
   9  -9  -6  168.78   57.79
  -9   9   6  113.79   34.10
  -8  10  -6   94.79   40.40
 -10  -8   6   74.89   41.30
  -8  10   6    3.30   28.90
 -10  -7  -6  138.99   39.20
  10   7  -6  100.79   54.89
   7 -10  -6  179.08   43.50
   7 -10  -6  140.99   37.60
 -10  -7   6  124.79   33.10
   6 -10  -6   -7.40   27.20
   6 -10  -6  131.59   33.50
 -10  -6  -6   80.49   29.00
 -10  -6   6    6.10   27.00
 -10  -6   6   58.09   43.40
   5 -10  -6  269.97   40.50
  10   5  -6  313.57   45.00
   5 -10  -6  343.77   47.30
  -5  10  -6  392.46   43.80
 -10  -5   6  316.37   37.20
  -5  10   6  267.77   33.90
 -10  -5   6  355.66   51.09
  10   4  -6  -17.00   22.20
 -10  -4  -6   -7.20   20.90
   4 -10  -6    7.30   30.00
   4 -10  -6  -27.60   20.70
  -4  10  -6   36.70   27.60
  -4  10   6   27.10   23.80
 -10  -4   6   11.50   26.70
 -10  -4   6   -6.10   21.10
  10   3  -6  149.88   30.80
 -10  -3  -6  173.38   24.20
   3 -10  -6  141.39   29.30
  -3  10  -6  167.38   31.20
   3 -10  -6  147.49   28.70
  -3  10   6   79.09   40.40
 -10  -3   6  141.39   27.10
 -10  -3   6  119.19   31.50
   3 -10   6  114.29   20.90
  10   2  -6   49.00   23.80
   2 -10  -6   93.49   26.60
   2 -10  -6  103.39   36.00
 -10  -2  -6  122.89   21.00
  -2  10  -6   77.69   23.50
   2 -10   6   56.19   20.30
 -10  -2   6  100.29   28.50
  -2  10   6  104.59   21.60
 -10  -2   6   54.49   23.00
   1 -10  -6  250.17   41.40
 -10  -1  -6  240.88   28.00
  -1  10  -6  275.87   34.00
  10   1  -6  296.17   40.20
  10   1  -6  250.57   33.80
   1 -10  -6  222.18   33.90
 -10  -1   6  262.87   36.00
 -10  -1   6  280.47   32.60
   1 -10   6  261.87   34.70
  -1  10   6  254.27   28.80
  10   0  -6  -40.50   19.70
 -10   0  -6    2.40   15.70
   0 -10  -6    3.30   27.00
   0 -10  -6   -6.00   22.10
  10   0  -6   -4.30   20.40
 -10   0   6   -6.60   19.70
   0 -10   6    1.70   21.00
   0 -10   6    6.60   18.00
 -10   0   6    6.90   21.90
   0  10   6    6.70   16.80
  10  -1  -6  255.57   33.40
  10  -1  -6  262.27   37.00
  -1 -10  -6  296.07   35.50
 -10   1  -6  244.18   27.20
   1  10  -6  292.77   34.40
  -1 -10  -6  200.88   35.00
  -1 -10   6  208.18   42.10
 -10   1   6  230.68   34.50
  -1 -10   6  202.28   32.40
   1  10   6  304.47   32.90
 -10   1   6  287.47   34.30
  -2 -10  -6   67.79   24.50
  10  -2  -6  114.69   26.80
   2  10  -6  113.69   25.40
  10  -2  -6   85.29   25.40
 -10   2  -6   51.19   18.50
  -2 -10  -6  134.39   26.70
 -10   2   6  146.29   30.40
  -2 -10   6   45.40   21.90
  -2 -10   6  136.49   27.70
 -10   2   6   76.29   22.30
  -3 -10  -6  111.09   34.20
   3  10  -6  174.08   29.00
  10  -3  -6  148.09   29.20
  -3 -10  -6  159.28   27.70
 -10   3  -6  171.58   23.50
  10  -3  -6  139.49   27.10
  -3 -10   6  136.99   27.70
 -10   3   6  148.09   27.00
  -3 -10   6  218.08   36.90
 -10   3   6  156.68   27.10
 -10   4  -6  -19.70   20.70
  -4 -10  -6   49.50   30.60
  10  -4  -6   48.60   23.50
  -4 -10  -6   10.80   22.80
  10  -4  -6  -10.30   36.30
  -4 -10   6    3.10   23.70
 -10   4   6   -0.30   19.10
 -10   4   6   -9.50   23.20
  -4 -10   6   25.30   28.30
  10  -5  -6  354.16   37.30
 -10   5  -6  368.56   49.80
  -5 -10  -6  397.56   49.00
  -5 -10  -6  363.36   45.20
   5  10  -6  380.46   43.50
  10  -5  -6  265.67   36.80
 -10   5   6  325.77   34.60
  -5 -10   6  286.77   46.20
  -5 -10   6  240.48   39.00
  10  -6  -6   47.40   27.20
  -6 -10  -6   90.99   37.30
 -10   6  -6   35.70   34.50
  10  -6  -6  -22.40   28.50
  -6 -10  -6    3.30   30.00
   6  10  -6   17.40   30.80
  -6 -10   6   -7.90   26.60
 -10   6   6   52.39   23.50
  -6 -10   6  -23.90   33.90
  -7 -10  -6  154.38   37.70
  -7 -10  -6   92.49   41.00
  10  -7  -6  143.69   53.09
   7  10  -6   67.99   42.00
  10  -7  -6  180.58   35.00
 -10   7   6  114.99   28.00
  -7 -10   6  200.58   32.20
  10  -8  -6   18.80   42.70
  -8 -10  -6   68.09   39.40
  -8 -10   6    6.00   37.50
 -10   8   6   47.20   40.10
  -6  11   6  185.08   33.30
 -11  -6   6  134.69   36.70
  -5  11  -6  126.69   32.90
   5 -11  -6   98.89   48.00
   5 -11  -6  142.99   36.90
  11   5  -6   59.69   36.60
  -5  11   6  100.29   27.20
 -11  -5   6   75.09   28.20
 -11  -5   6  119.59   44.50
  11   4  -6  160.88   35.10
  -4  11  -6  221.08   34.10
   4 -11  -6  289.07   50.09
   4 -11  -6  172.08   35.50
  -4  11   6  249.38   41.20
 -11  -4   6  217.18   40.80
 -11  -4   6  161.78   32.10
   3 -11  -6   58.99   29.00
   3 -11  -6  156.08   37.30
  -3  11  -6   32.80   27.10
  11   3  -6  116.69   31.40
 -11  -3   6  120.69   36.50
  -3  11   6  121.89   24.40
 -11  -3   6   88.09   28.30
  11   2  -6   97.29   30.40
  -2  11  -6  166.58   31.80
   2 -11  -6  154.28   33.20
   2 -11  -6  152.18   38.30
 -11  -2   6  140.99   27.90
 -11  -2   6  142.59   34.40
   1 -11  -6  178.38   41.60
  11   1  -6  148.09   29.70
  11   1  -6  168.68   34.50
   1 -11  -6  165.48   34.30
  -1  11  -6  205.58   31.30
 -11  -1   6  203.28   29.90
   1 -11   6  150.88   30.60
 -11  -1   6  147.09   33.80
  -1  11   6  170.28   32.70
   0 -11  -6  282.67   37.90
  11   0  -6  277.67   43.20
  11   0  -6  232.28   34.00
   0 -11  -6  271.17   47.70
   0  11  -6  262.47   40.50
 -11   0   6  287.47   39.70
 -11   0   6  343.37   41.40
   0 -11   6  368.26   38.00
  11  -1  -6  158.98   33.80
   1  11  -6  230.58   35.40
  -1 -11  -6  175.08   38.40
  11  -1  -6  155.28   27.40
  -1 -11   6  137.89   30.20
 -11   1   6  167.48   29.20
  -1 -11   6  220.08   40.20
 -11   1   6  188.18   31.60
  -2 -11  -6  120.89   30.70
   2  11  -6  109.29   31.20
  11  -2  -6  149.49   27.20
  11  -2  -6  135.79   32.60
  -2 -11  -6  165.28   33.90
 -11   2   6  123.99   25.60
 -11   2   6  177.18   31.60
  -2 -11   6  168.88   33.70
  -2 -11   6  117.39   35.60
  -3 -11  -6   90.99   31.80
  -3 -11  -6   83.99   37.40
  11  -3  -6   52.69   26.10
   3  11  -6  127.79   31.80
  11  -3  -6   45.40   27.80
  -3 -11   6   57.19   29.10
 -11   3   6   89.39   24.60
  -3 -11   6  165.58   34.00
 -11   3   6   85.89   28.90
  11  -4  -6  159.98   30.20
  -4 -11  -6  203.78   35.90
  11  -4  -6  182.78   34.60
  -4 -11   6  160.58   30.40
 -11   4   6  175.28   29.30
 -11   4   6  289.47   42.60
  -4 -11   6  172.98   38.70
  -5 -11  -6  153.68   33.80
  11  -5  -6  163.78   32.10
  -5 -11  -6  185.38   41.20
  11  -5  -6  131.49   38.50
  -5 -11   6  138.79   33.30
  -5 -11   6  112.59   41.50
 -11   5   6  186.38   30.20
  11  -6  -6  197.38   40.10
  -6 -11  -6  178.88   69.59
  -6 -11  -6  214.78   40.70
 -11   6   6  208.18   34.30
  -7 -11  -6   49.60   41.20
  -7 -11  -6    1.50   54.89
  11  -7  -6   38.70   39.90
  -7 -11   6   29.90   40.20
  -5  12  -6  132.89   63.29
  -5  12   6   55.19   34.60
  -4  12  -6   69.19   38.90
 -12  -4   6   19.10   40.50
  -4  12   6   -9.00   30.70
   3 -12  -6  184.58   43.00
  -3  12  -6   98.39   36.10
 -12  -3   6  115.09   42.80
 -12  -3   6   45.90   30.60
  -3  12   6  129.39   33.90
   2 -12  -6   45.60   33.10
  12   2  -6  -43.60   38.20
  12   2  -6  -39.70   30.50
  -2  12  -6   58.49   32.10
 -12  -2   6    5.70   27.00
 -12  -2   6  -17.90   34.60
   1 -12  -6   56.89   54.09
  12   1  -6  207.78   40.30
  12   1  -6  193.28   35.80
   1 -12  -6  232.08   39.80
  -1  12  -6  194.18   39.50
 -12  -1   6  221.48   32.30
 -12  -1   6  224.98   40.00
   0  12  -6   18.90   29.90
  12   0  -6   15.40   32.50
  12   0  -6   44.20   27.80
   0 -12  -6   94.89   42.70
   0 -12  -6   84.19   44.90
   0 -12   6  -14.50   29.30
 -12   0   6   37.80   31.30
 -12   0   6  -42.30   24.50
   1  12  -6  177.48   37.50
  12  -1  -6  217.48   36.60
  -1 -12  -6  200.88   52.19
  12  -1  -6  252.17   41.40
  -1 -12   6  209.88   38.70
 -12   1   6  195.98   30.50
 -12   1   6  185.48   38.00
  -2 -12  -6   30.80   40.80
  -2 -12  -6  -16.70   32.00
  12  -2  -6  -46.30   34.90
  12  -2  -6  -31.20   29.90
   2  12  -6   50.79   33.60
 -12   2   6   42.10   34.40
  -2 -12   6    9.00   35.10
 -12   2   6   16.40   26.10
  -3 -12  -6  241.68   54.39
   3  12  -6  189.68   41.40
 -12   3   6  142.49   31.60
  -3 -12   6  169.48   41.50
  12  -4  -6   12.60   36.00
  -4 -12  -6   17.90   38.90
 -12   4   6  -40.80   39.50
  12  -5  -6  125.19   38.70
  -5 -12  -6   92.49   79.39
  -5 -12   6   91.29   60.49
 -13  -1   6   72.19   49.30
 -13   0   6   48.00   45.90
  -1 -13   6   46.00   40.40
   0   0  -7   18.10   14.50
   0   0  -7   24.20    5.90
   0   0   7   39.60   14.30
  -1   0  -7   55.89   16.50
   1   0  -7   40.30   17.10
   0   1  -7   66.59   11.60
   1   0  -7   47.10   10.10
   0  -1  -7   79.69   17.40
   0  -1  -7   51.09    9.50
  -1   0  -7   44.40    6.70
   1   0  -7   59.89    9.50
  -1   0  -7   58.49    6.70
   0   1  -7   68.19    8.60
   1   0   7   52.89   15.50
   0  -1   7   65.79   16.70
  -1   0   7   67.49   16.50
   0   1   7   81.99   17.40
   1  -1  -7  675.83   26.30
   1   1  -7  701.13   27.40
   1   1  -7  668.33   24.50
  -1  -1  -7  649.74   21.30
  -1   1  -7  662.63   22.10
  -1  -1  -7  643.24   34.60
   1  -1  -7  648.84   24.30
   1  -1  -7  706.13   35.20
  -1   1   7  678.63   36.10
   1   1   7  691.53   33.70
  -1  -1   7  690.83   36.40
   1  -1   7  711.33   34.70
   1  -2  -7  155.48   12.50
   2   1  -7  171.98   13.80
   1  -2  -7  164.88   24.40
   2   1  -7  144.19   19.10
   1  -2  -7  132.99   14.80
  -2  -1  -7  147.79    7.80
  -1   2  -7  141.49   10.80
  -2  -1  -7  157.68   21.50
  -1   2  -7  132.29   11.80
  -2  -1  -7  153.28    8.10
  -1   2   7  164.28   23.90
   1  -2   7  135.49   21.30
  -2  -1   7  151.68   19.60
   0  -2  -7    5.70    5.90
   2   0  -7  -14.20    6.60
   2   0  -7    6.50   11.20
  -2   0  -7    2.80    2.80
  -2   0  -7   -2.20    2.60
   0  -2  -7   -2.20   14.70
   2   0  -7    4.20   10.60
   0   2  -7    7.90    5.90
   0   2  -7  -10.30    7.90
   0  -2  -7   -0.60    7.90
  -2   0  -7  -15.10   10.20
  -2   0   7  -15.40   13.10
   0  -2   7    4.00   12.80
   2  -1  -7  188.08   25.10
  -1  -2  -7  169.78   11.00
  -2   1  -7  149.99    8.10
  -1  -2  -7  134.59   22.10
   2  -1  -7  160.18   16.70
   1   2  -7  154.88   13.20
  -2   1  -7  164.68   20.10
   2  -1  -7  155.88   13.30
  -2   1  -7  169.28   19.40
   1   2  -7  152.08   16.50
  -2   1  -7  171.88    8.10
  -2   1   7  183.68   23.90
   2  -1   7  175.38   22.00
  -1  -2   7  146.29   23.20
   2  -2  -7  123.79   13.20
  -2  -2  -7  131.79   20.80
  -2   2  -7  144.69   19.00
   2   2  -7  147.49   17.70
  -2   2  -7  107.79    8.70
   2   2  -7  105.89   13.10
  -2  -2  -7  117.29    9.00
   2  -2  -7  125.29   16.10
   2  -2  -7  123.49   22.10
  -2   2  -7  124.39   10.00
   2  -2   7  121.39   18.50
  -2   2   7  133.59   19.10
  -2  -2   7  118.19   20.70
  -2   3  -7  324.37   21.80
   2  -3  -7  336.57   21.90
   2  -3  -7  314.87   30.60
  -3  -2  -7  311.67   25.40
   3   2  -7  292.07   19.20
  -3  -2  -7  299.37   16.40
  -3  -2  -7  294.57   12.30
   3   2  -7  325.37   24.00
   2  -3  -7  315.97   21.80
  -2   3  -7  288.87   15.50
  -2   3   7  312.37   28.70
   2  -3   7  332.67   26.70
  -3  -2   7  315.97   30.00
   1  -3  -7  445.96   21.10
   1  -3  -7  428.16   23.00
  -3  -1  -7  463.65   27.40
   3   1  -7  414.36   23.20
  -3  -1  -7  440.76   13.40
  -1   3  -7  437.36   21.50
  -3  -1  -7  402.36   16.20
  -1   3  -7  466.15   22.40
   3   1  -7  494.45   26.40
   1  -3  -7  474.65   33.70
   1  -3   7  479.35   29.90
  -3  -1   7  487.45   33.30
  -3   0  -7   48.50    2.80
   3   0  -7   40.10   15.20
   0  -3  -7   51.79   17.80
  -3   0  -7   47.50    2.80
   0  -3  -7   46.20   10.20
   0  -3  -7   49.80    8.30
  -3   0  -7   38.80   13.70
   0   3  -7   36.00    8.40
   0   3  -7   56.49   11.10
   3   0  -7   74.49   12.30
   3   0  -7   44.20   12.30
   0  -3   7   55.69   15.80
  -3   0   7   56.39   17.20
  -1  -3  -7  460.55   21.00
   3  -1  -7  428.56   23.90
   3  -1  -7  459.35   30.50
  -1  -3  -7  440.36   19.00
   3  -1  -7  444.96   22.70
  -1  -3  -7  394.06   29.50
   1   3  -7  438.46   21.40
  -3   1  -7  461.25   26.40
  -3   1  -7  449.16   25.70
  -3   1  -7  411.46   12.60
   1   3  -7  433.76   25.30
  -1  -3   7  476.45   29.40
  -3   1   7  455.35   32.20
  -3   2  -7  286.37   12.00
   3  -2  -7  283.87   19.00
   2   3  -7  331.17   19.80
  -3   2  -7  314.27   22.00
   3  -2  -7  286.17   26.20
   3  -2  -7  297.67   22.20
  -2  -3  -7  304.87   18.40
  -2  -3  -7  276.87   25.40
  -3   2  -7  291.77   12.30
  -2  -3  -7  284.37   15.40
   2   3  -7  284.17   23.00
   3  -2   7  331.27   24.80
  -2  -3   7  331.47   30.10
  -3   2   7  316.17   28.80
  -3  -3  -7  336.47   26.20
  -3  -3  -7  271.07   14.10
   3  -3  -7  294.47   23.00
  -3   3  -7  247.28   14.60
   3   3  -7  276.27   24.20
   3  -3  -7  287.17   30.30
  -3   3  -7  213.28   13.60
  -3   3  -7  296.57   28.40
  -3  -3   7  317.87   31.00
  -3  -3   7  225.98    7.80
   3  -3   7  304.17   23.00
  -3   3   7  242.98   28.40
   4   3  -7   52.29   16.40
  -4  -3  -7   65.49   19.30
  -3   4  -7   73.69   11.40
   3  -4  -7   78.39   22.50
  -3   4  -7   66.79    9.90
   3  -4  -7   54.69   15.00
  -4  -3   7   70.19   10.20
  -3   4   7   39.20   11.50
  -3   4   7   52.79    7.60
   3  -4   7   59.79   14.30
  -4  -3   7   37.10   21.10
   2  -4  -7   -3.20   17.80
  -2   4  -7    3.10    9.60
   4   2  -7    7.90   12.20
  -4  -2  -7    7.00    4.20
  -2   4  -7  -17.20    9.10
  -4  -2  -7   -6.40   13.00
   2  -4  -7    3.20   10.00
  -4  -2   7   -2.40    7.50
  -4  -2   7   13.80   16.60
   2  -4   7   14.30   13.20
  -4  -1  -7   70.99   14.80
  -1   4  -7   53.99   10.30
   1  -4  -7   70.59   21.80
   4   1  -7   63.19   15.40
  -1   4  -7   46.20   10.70
   1  -4  -7   66.79   11.20
  -4  -1  -7   61.99    4.80
   1  -4  -7   75.19   12.60
  -4  -1   7   53.69    8.90
   1  -4   7   59.69   15.90
  -4  -1   7   65.89   19.90
  -4  -1   7   57.99    8.90
   0  -4  -7    7.70    9.00
   0   4  -7   -5.90    9.30
   4   0  -7  -14.10   11.80
   4   0  -7    5.00   11.80
   0   4  -7   15.40    9.10
   0  -4  -7  -21.30   14.30
  -4   0  -7   -7.20    9.90
   0  -4  -7   14.80    8.50
  -4   0   7   -3.70   13.10
  -4   0   7    0.40    6.80
   0  -4   7   -4.70   13.10
  -4   0   7   -5.00    6.60
   1   4  -7   65.79   13.60
  -1  -4  -7   77.99   20.10
  -4   1  -7   56.69   12.60
   4  -1  -7   73.49   15.30
  -4   1  -7   58.09    4.10
  -4   1  -7   57.99    4.30
   1   4  -7   65.59   10.30
  -4   1  -7   71.69   14.40
  -1  -4  -7   50.69    9.90
   4  -1  -7   63.49   17.40
  -1  -4  -7   62.09   11.00
  -4   1   7   70.89   11.60
  -1  -4   7   63.29   17.60
  -4   1   7   46.30    9.10
  -4   1   7   55.19   19.30
  -4   2  -7    0.90    4.10
  -4   2  -7    7.40   10.30
  -2  -4  -7    3.80    8.20
  -4   2  -7    2.20   11.30
   4  -2  -7    9.30   11.10
  -4   2  -7   -1.10    3.90
  -2  -4  -7    0.70    7.80
   4  -2  -7   -1.00   13.80
   2   4  -7   20.00   12.20
  -2  -4  -7    9.40   15.10
  -4   2   7   -7.90    7.40
  -2  -4   7   36.40   18.80
  -4   2   7   21.10   11.90
  -4   2   7   10.60   16.60
   3   4  -7   54.49   18.10
  -3  -4  -7   45.90   11.20
   4  -3  -7   65.09   15.10
  -4   3  -7   80.89   10.00
   4  -3  -7  108.39   21.70
  -3  -4  -7   77.99   18.40
  -3  -4  -7   92.39   13.30
  -4   3   7   73.99   21.00
  -3  -4   7   48.50   20.10
  -4   3   7   55.29    9.80
  -3  -4   7   59.79   12.90
  -3  -4   7   59.39    8.50
   4  -4  -7   11.00   19.80
  -4  -4  -7    0.50    9.10
   4  -4  -7   10.10   13.60
  -4   4  -7   17.80    8.30
  -4   4  -7   34.70   15.40
  -4  -4  -7   -0.90   15.80
   4   4  -7   24.20   14.20
  -4  -4  -7    3.60    9.10
  -4  -4   7   19.70   10.60
  -4   4   7   11.80   11.30
   4  -4   7   22.30   11.90
  -4  -4   7    4.90    8.80
  -4   4   7   10.40    8.70
   4  -5  -7   75.89   19.30
  -4   5  -7   85.29   21.30
  -5  -4  -7   78.99   13.20
  -5  -4  -7   76.19   18.50
  -4   5  -7   63.79   12.00
   5   4  -7   82.09   20.00
   4  -5  -7   87.59   25.30
   4  -5   7   84.59   15.00
  -5  -4   7   99.09   25.60
  -5  -4   7   56.59   13.40
   5   3  -7  547.35   34.40
  -3   5  -7  533.95   25.80
   3  -5  -7  535.75   40.20
  -5  -3  -7  527.25   30.40
  -3   5  -7  510.35   25.50
  -5  -3  -7  509.15   24.30
   3  -5  -7  561.64   32.20
   3  -5   7  498.55   28.40
  -3   5   7  527.65   33.60
  -5  -3   7  438.46   25.40
  -5  -3   7  496.85   25.80
  -5  -3   7  441.66   38.10
  -5  -2  -7    8.30    6.00
  -5  -2  -7    9.30    5.80
   5   2  -7    4.70   13.40
  -2   5  -7    8.80   10.50
  -5  -2  -7   17.40   11.40
   2  -5  -7    9.70   11.40
  -2   5  -7   -8.20   10.50
   2  -5  -7   29.20   21.00
  -5  -2   7    8.90    9.80
  -5  -2   7   23.80   11.10
   2  -5   7   30.20   14.70
   1  -5  -7  463.35   27.30
  -1   5  -7  460.35   25.70
  -1   5  -7  442.56   24.60
  -5  -1  -7  502.95   26.30
   1  -5  -7  494.05   38.00
  -5  -1  -7  461.05   15.60
   5   1  -7  488.05   31.00
  -5  -1  -7  480.25   15.50
   1  -5   7  469.05   31.00
  -5  -1   7  468.75   23.40
  -5  -1   7  533.95   34.00
   5   0  -7  120.99   25.80
  -5   0  -7  112.49    6.30
   0  -5  -7  119.29   17.80
   0   5  -7  138.99   19.50
   0  -5  -7  138.99   25.90
   5   0  -7  124.89   19.00
  -5   0  -7  117.29   15.80
   0   5  -7   87.09   14.90
  -5   0  -7  110.89    5.90
   0  -5  -7  100.49   14.40
   0  -5   7  142.29   24.00
  -5   0   7  134.79   24.10
  -5   0   7  100.89   15.30
   5  -1  -7  481.15   34.30
  -5   1  -7  476.65   25.30
   1   5  -7  500.85   29.30
  -1  -5  -7  527.55   26.10
  -5   1  -7  452.85   26.80
  -5   1  -7  468.35   14.60
  -5   1  -7  454.15   14.50
  -1  -5  -7  486.45   36.10
  -1  -5  -7  438.76   23.90
   5  -1  -7  487.85   31.50
  -5   1   7  467.25   23.50
  -5   1   7  487.25   24.10
  -1  -5   7  540.25   36.60
  -5   1   7  423.16   30.80
   2   5  -7   41.20   15.10
  -2  -5  -7    4.50   10.30
   5  -2  -7   24.00   14.30
  -5   2  -7   25.50   11.20
   5  -2  -7    4.30   17.60
  -5   2  -7   47.70   11.80
  -2  -5  -7    6.30   15.90
  -2  -5  -7   20.90   10.70
  -5   2  -7   12.40    5.40
  -5   2   7   29.90   18.60
  -5   2   7   30.80   11.50
  -2  -5   7    5.30   13.60
  -5   2   7    4.30    9.20
   5  -3  -7  473.35   35.70
  -3  -5  -7  537.95   26.60
  -5   3  -7  514.85   25.50
  -5   3  -7  504.05   20.00
   5  -3  -7  540.35   32.40
  -5   3  -7  514.05   28.40
   3   5  -7  542.95   34.10
  -3  -5  -7  498.25   25.10
  -3  -5  -7  520.15   35.30
  -3  -5   7  495.95   21.60
  -5   3   7  537.95   25.80
  -5   3   7  527.55   37.90
  -4  -5  -7   95.09   13.20
   5  -4  -7   77.79   19.10
   4   5  -7  117.69   21.70
  -5   4  -7   78.19   12.60
  -4  -5  -7   71.39   13.60
  -5   4  -7   88.89   17.10
   5  -4  -7   80.39   25.30
  -4  -5  -7   81.79   21.30
  -4  -5   7   86.99   26.10
  -4  -5   7   70.59   13.10
  -5   4   7   93.59   14.50
  -5   4   7   87.49   17.30
  -5   5  -7  169.58   20.30
   5  -5  -7  182.18   27.50
  -5  -5  -7  194.18   21.10
  -5  -5  -7  193.78   27.70
   5  -5  -7  222.48   33.80
   5   5  -7  232.28   29.90
  -5  -5   7  149.09   30.20
  -5  -5   7  185.78   22.30
  -5   5   7  189.68   21.70
   6   5  -7   91.79   23.60
  -6  -5  -7  112.49   17.40
   5  -6  -7  107.49   27.40
  -6  -5  -7   91.79   21.70
   5  -6  -7  112.69   21.60
  -6  -5   7   71.19   27.80
  -5   6   7   94.69   16.40
  -6  -5   7   92.19   18.20
  -6  -4  -7   38.00   16.40
  -6  -4  -7   27.90   12.50
   4  -6  -7   21.60   16.70
   4  -6  -7    2.20   23.90
  -6  -4   7   34.10   18.00
   4  -6   7    9.00   12.10
  -6  -4   7    0.80   14.00
   3  -6  -7   35.60   16.80
   3  -6  -7   44.10   19.30
  -3   6  -7   69.59   13.90
  -6  -3  -7   74.29   16.10
   6   3  -7   24.80   20.50
  -6  -3  -7   65.99   11.90
  -6  -3   7   72.59   24.40
  -6  -3   7   26.20   13.90
  -3   6   7   47.10   11.60
   3  -6   7   57.29   17.90
  -2   6  -7  -17.60   11.90
   2  -6  -7   13.50   21.80
  -6  -2  -7    2.60   11.80
   2  -6  -7    0.60   12.70
   6   2  -7    5.20   15.70
  -6  -2   7   15.00   14.10
   2  -6   7   -6.20   12.40
  -6  -2   7    3.20   21.60
  -6  -2   7   11.70   12.20
  -2   6   7   15.00    7.30
   1  -6  -7   72.59   23.70
   6   1  -7  111.39   22.00
  -6  -1  -7  130.79   16.70
  -1   6  -7   97.59   16.80
   1  -6  -7  101.19   26.40
  -6  -1  -7  112.29    9.50
  -6  -1  -7  107.09   10.80
  -6  -1   7  116.89   15.10
   1  -6   7   98.19   19.20
  -6  -1   7  117.19   19.20
  -6  -1   7  124.79   25.80
  -6   0  -7   30.50   10.70
   6   0  -7   21.10   17.00
   6   0  -7   47.90   24.50
  -6   0  -7   32.00    5.50
   0  -6  -7   39.50   14.40
   0   6  -7   28.20   13.20
  -6   0   7   58.59   23.00
   0  -6   7   29.40   17.70
  -6   0   7   61.19   13.50
  -6   0   7   42.30   13.00
   6  -1  -7  117.79   27.80
  -6   1  -7   84.29   14.70
  -6   1  -7   87.79    9.50
  -1  -6  -7  100.99   16.40
  -1  -6  -7   91.59   24.10
  -6   1  -7  106.39   16.80
   1   6  -7  123.79   20.10
  -6   1  -7  118.89    8.80
   6  -1  -7  102.19   20.70
  -1  -6   7   94.29   22.30
  -6   1   7  106.99   15.30
  -6   1   7   93.39   14.80
   6  -2  -7    3.30   15.20
  -6   2  -7   -4.70   12.20
  -6   2  -7   -1.00    9.90
  -6   2  -7   -1.70    6.50
   2   6  -7   17.70   15.70
  -2  -6  -7    8.90   12.30
  -2  -6  -7  -11.20   19.10
   6  -2  -7    9.30   20.20
  -6   2   7    8.20   12.10
  -6   2   7   29.10   20.30
  -6   2   7   -3.20   14.00
   6  -3  -7   56.19   20.00
  -3  -6  -7   55.59   13.50
  -3  -6  -7   64.19   21.60
   6  -3  -7   64.09   23.30
  -6   3  -7   43.60   11.70
   3   6  -7   44.90   17.40
  -6   3  -7   59.29   11.30
  -6   3   7   40.30   14.60
  -6   3   7   39.50   19.20
  -3  -6   7   74.19   25.00
  -4  -6  -7   24.60   13.50
  -6   4  -7    2.30   10.30
   6  -4  -7    4.90   19.70
  -4  -6  -7   35.40   20.80
   4   6  -7   44.20   20.10
  -6   4   7   28.30   18.50
  -4  -6   7   16.00   18.10
  -4  -6   7   24.20   12.80
  -6   4   7   30.10   13.80
   6  -5  -7  128.99   27.70
  -6   5  -7  114.19   16.80
   5   6  -7   93.19   22.00
  -5  -6  -7  106.29   26.90
   6  -5  -7   85.99   22.90
  -5  -6  -7   84.29   18.30
  -5  -6   7   74.99   17.10
  -5  -6   7  106.99   28.70
  -6   5   7   88.19   17.50
  -6  -6  -7   30.00   17.60
   6  -6  -7   39.20   25.60
   6   6  -7  -10.30   18.40
   6  -6  -7   18.20   19.30
  -6   6  -7   29.30   15.40
  -6  -6  -7   29.40   23.20
  -6  -6   7    7.10   26.20
  -6  -6   7  -21.60   16.30
  -7  -6  -7   37.20   19.00
   6  -7  -7   11.20   20.70
  -6   7  -7   39.80   19.60
   6  -7  -7   29.80   22.20
   7   6  -7  -25.30   22.30
  -7  -6  -7   -0.20   23.40
  -6   7   7   27.90   20.50
  -7  -6   7    3.10   31.00
  -7  -5  -7  207.88   32.00
   7   5  -7  216.18   31.50
  -7  -5  -7  179.28   26.70
   5  -7  -7  192.98   31.00
   5  -7  -7  244.08   30.60
  -7  -5   7  134.89   35.00
  -7  -5   7  168.38   24.70
  -7  -4  -7   72.19   19.60
   7   4  -7   57.29   22.00
  -4   7  -7  109.79   19.60
  -7  -4  -7   86.79   15.80
   4  -7  -7   78.39   21.70
   4  -7  -7  102.29   27.60
  -4   7   7   83.99   17.30
  -7  -4   7   32.90   19.00
  -7  -4   7   61.89   26.30
   4  -7   7   55.89   14.50
  -3   7  -7  235.88   25.50
   3  -7  -7  242.78   36.10
   7   3  -7  191.18   27.60
  -7  -3  -7  190.38   20.30
   3  -7  -7  204.68   29.30
  -7  -3  -7  156.48   22.60
  -7  -3   7  278.07   37.30
  -7  -3   7  192.28   26.80
   3  -7   7  222.88   22.40
  -2   7  -7  116.79   20.40
  -7  -2  -7   99.19   15.70
   2  -7  -7  116.59   28.60
   7   2  -7   80.69   22.70
  -7  -2  -7  105.09   13.70
   2  -7  -7  100.19   20.60
  -7  -2   7   76.79   18.20
  -2   7   7  113.09   16.20
  -7  -2   7   82.09   24.50
   2  -7   7  105.49   19.10
   1  -7  -7  178.48   31.90
  -7  -1  -7  212.68   18.90
  -1   7  -7  171.78   22.20
  -7  -1  -7  209.88   18.70
   1  -7  -7  186.68   25.80
   1  -7   7  168.18   25.80
  -7  -1   7  170.78   23.50
  -7  -1   7  164.88   29.10
   0  -7  -7   77.99   17.90
   7   0  -7   93.89   28.00
   0   7  -7  109.39   19.60
   0  -7  -7  102.39   28.10
  -7   0   7   56.79   15.50
  -7   0   7   95.99   23.40
   0  -7   7  110.69   22.30
  -1  -7  -7  218.98   25.20
  -1  -7  -7  196.98   33.50
   7  -1  -7  221.08   28.50
  -7   1  -7  210.98   19.60
   1   7  -7  165.58   24.50
  -7   1   7  141.49   19.80
  -7   1   7  220.28   29.60
  -7   2  -7   91.09   13.10
   7  -2  -7   97.39   22.60
   7  -2  -7   70.89   25.60
  -2  -7  -7   76.89   19.00
  -2  -7  -7   90.69   25.60
   2   7  -7   83.09   22.10
  -7   2   7  118.09   23.50
  -7   2   7   80.29   16.90
  -2  -7   7  116.89   27.30
  -7   3  -7  254.37   19.50
   7  -3  -7  199.48   28.80
  -3  -7  -7  238.28   33.20
  -3  -7  -7  217.68   26.50
   3   7  -7  192.68   29.10
   7  -3  -7  294.37   35.50
  -7   3   7  207.38   30.60
  -3  -7   7  193.78   32.00
  -3  -7   7  193.78   20.60
  -7   3   7  207.18   26.20
  -4  -7  -7   61.49   18.90
   7  -4  -7   76.89   24.40
   4   7  -7   58.39   21.10
   7  -4  -7   64.29   21.70
  -4  -7  -7   50.39   26.60
  -7   4  -7   85.79   15.10
  -4  -7   7   64.79   21.80
  -7   4   7   85.19   23.00
  -4  -7   7   64.69   16.30
  -7   4   7   77.89   17.80
  -5  -7  -7  205.48   40.20
  -7   5  -7  178.98   24.90
  -5  -7  -7  197.98   28.90
   7  -5  -7  193.58   30.80
   5   7  -7  217.28   33.10
   7  -5  -7  177.78   28.10
  -5  -7   7  150.68   33.90
  -5  -7   7  135.59   21.60
  -7   5   7  202.58   28.30
   7  -6  -7   32.30   21.70
   7  -6  -7   52.89   26.10
   6   7  -7    3.60   22.90
  -6  -7  -7   81.59   23.60
  -7   6  -7   -3.50   17.80
  -7   6   7   17.60   17.60
  -6  -7   7   55.89   22.20
  -6  -7   7  -43.60   27.30
   7  -7  -7  181.88   30.50
   7   7  -7  191.88   35.20
   7  -7  -7  193.08   34.20
  -7  -7  -7  256.77   37.80
  -7   7  -7  177.88   28.10
  -7  -7   7  258.07   43.90
  -7  -7   7  159.08   30.50
  -7   7   7  152.88   27.50
   7  -8  -7   12.90   28.50
   7  -8  -7   57.89   32.30
   8   7  -7   34.90   30.40
  -8  -7   7   20.10   38.40
  -8  -7   7   27.80   26.90
   6  -8  -7    7.80   29.30
   6  -8  -7  -22.20   22.70
   8   6  -7   10.60   26.20
  -8  -6   7   36.80   33.60
  -8  -6   7  -10.30   22.60
  -8  -5  -7   39.60   27.90
   5  -8  -7  -23.80   26.70
   5  -8  -7   11.10   23.80
   8   5  -7   51.79   33.00
  -8  -5   7    7.30   31.10
  -8  -5   7   -0.90   21.40
   8   4  -7    4.50   20.40
  -8  -4  -7  -16.60   16.50
   4  -8  -7  -15.00   24.20
  -4   8  -7   38.10   20.20
   4  -8   7   -4.90   15.60
  -4   8   7   43.70   17.60
  -8  -4   7  -12.20   18.40
  -8  -4   7   41.50   22.60
  -3   8  -7   48.70   18.60
  -8  -3  -7   77.89   16.80
   3  -8  -7   19.00   21.60
   8   3  -7   23.40   20.70
   3  -8  -7  117.09   31.60
  -3   8   7   39.80   16.20
   3  -8   7   42.20   16.40
  -8  -3   7   70.39   26.70
  -8  -3   7   70.69   21.90
   8   2  -7   18.70   19.30
   2  -8  -7   38.50   20.10
  -8  -2  -7    6.10   14.70
   2  -8  -7    4.10   19.80
  -2   8  -7   13.10   17.30
  -8  -2   7    4.90   18.00
  -2   8   7   46.90   13.30
  -8  -2   7   -5.90   21.50
   2  -8   7   -7.70   15.70
  -1   8  -7   52.99   18.00
   1  -8  -7   28.40   20.50
  -8  -1  -7   35.20   13.50
   8   1  -7   55.49   22.90
   1  -8  -7   26.20   25.00
   1  -8   7   49.80   19.60
  -8  -1   7   71.09   23.30
  -8  -1   7   63.09   19.90
   0  -8  -7   61.59   21.20
   8   0  -7   16.90   20.00
  -8   0  -7   44.50   12.50
   8   0  -7   14.30   19.00
   0  -8  -7   73.09   25.50
   0   8  -7   28.10   19.40
  -8   0   7   20.50   15.90
  -8   0   7   47.50   21.10
  -1  -8  -7   63.69   23.80
   8  -1  -7   54.49   21.20
   8  -1  -7   47.60   22.90
  -1  -8  -7   29.30   20.10
  -8   1  -7   42.80   13.40
   1   8  -7   35.50   20.30
  -8   1   7   41.00   19.00
  -1  -8   7   34.00   22.60
  -8   1   7   51.59   19.60
   8  -2  -7  -12.40   18.30
   8  -2  -7    3.30   22.60
  -2  -8  -7   14.50   19.10
   2   8  -7   -4.60   22.20
  -2  -8  -7  -32.80   22.40
  -8   2  -7   15.60   13.20
  -8   2   7    4.70   17.40
  -8   2   7   12.90   19.70
  -2  -8   7   31.20   23.70
  -2  -8   7    8.80   21.70
   8  -3  -7   59.89   23.00
   3   8  -7   49.90   22.50
  -8   3  -7   72.09   20.50
   8  -3  -7   93.79   23.30
  -3  -8  -7   67.49   19.70
  -3  -8  -7   46.50   25.60
  -3  -8   7   43.00   25.60
  -8   3   7   55.59   21.90
  -8   3   7   38.10   28.20
  -3  -8   7   57.19   15.90
  -4  -8  -7   35.20   24.60
  -4  -8  -7   -3.80   19.10
   8  -4  -7   13.00   20.70
   8  -4  -7    6.90   23.30
   4   8  -7    6.10   21.10
  -8   4   7   25.50   20.00
  -4  -8   7   -1.50   18.30
  -8   4   7   22.10   20.30
  -4  -8   7   43.00   27.90
   5   8  -7   -6.70   24.40
   8  -5  -7   60.19   26.40
  -5  -8  -7   22.10   27.90
  -5  -8  -7   50.39   24.60
   8  -5  -7    8.40   22.80
  -5  -8   7  -32.30   21.60
  -8   5   7    7.10   18.40
  -5  -8   7    6.70   27.40
   6   8  -7  -22.80   27.10
   8  -6  -7    5.30   22.40
  -6  -8  -7   55.09   29.20
   8  -6  -7   45.40   24.10
  -6  -8   7  -49.80   23.40
  -6  -8   7   20.00   32.80
  -8   6   7   34.60   19.00
  -7  -8  -7   63.39   34.70
   7   8  -7   21.10   29.40
  -7  -8  -7   75.69   30.90
   8  -7  -7    3.40   27.20
   8  -7  -7   97.19   31.20
  -7  -8   7   94.19   37.60
  -8   7   7   59.69   22.50
  -7  -8   7    3.40   26.00
   8  -8  -7   -3.10   33.90
   8   8  -7   62.19   36.30
   8  -8  -7  -39.80   34.40
  -8  -8   7    7.60   29.90
  -8   8   7   29.40   24.60
  -8   9   7   50.59   31.00
  -9  -8   7   49.30   36.60
   7  -9  -7   53.19   38.30
   9   7  -7  135.79   41.50
  -9  -7   7   96.59   31.80
   9   6  -7   25.10   30.30
   6  -9  -7   55.79   31.20
   6  -9  -7   21.70   29.40
  -9  -6   7   40.00   35.90
  -9  -6   7   13.70   26.30
   5  -9  -7  101.39   32.70
   9   5  -7   89.99   30.70
  -5   9  -7   97.49   28.30
   5  -9  -7   84.49   28.90
  -9  -5   7   34.10   26.70
  -5   9   7   48.50   23.90
  -9  -5   7   67.29   23.80
   4  -9  -7   85.79   31.10
   4  -9  -7   54.39   27.70
   9   4  -7   -6.00   24.40
  -4   9  -7   65.99   24.90
  -9  -4   7   35.10   21.60
  -4   9   7   30.10   23.60
  -9  -4   7   75.39   31.60
   9   3  -7  180.78   32.10
   3  -9  -7  229.28   38.60
  -3   9  -7  277.87   36.40
   3  -9  -7  180.88   28.30
  -9  -3   7  183.98   27.60
  -9  -3   7  196.38   35.60
  -3   9   7  230.58   31.60
   3  -9   7  198.48   30.60
   9   2  -7    6.90   23.00
   2  -9  -7   73.29   31.10
  -2   9  -7    2.50   20.00
   2  -9  -7   22.00   19.90
   2  -9   7  -30.70   18.50
  -9  -2   7   21.00   25.30
  -9  -2   7  -10.70   20.20
   1  -9  -7  176.58   34.50
  -1   9  -7  196.28   29.70
   9   1  -7  126.79   31.50
   9   1  -7  221.78   31.90
   1  -9  -7  220.98   36.20
   1  -9   7  204.18   32.90
  -9  -1   7  159.88   25.00
  -9  -1   7  227.38   38.30
   9   0  -7   77.89   24.20
   9   0  -7   57.69   24.10
   0   9  -7   97.39   24.80
   0  -9  -7   81.49   28.60
   0  -9  -7  117.69   25.00
  -9   0   7   65.29   25.90
   0  -9   7  112.49   24.20
  -9   0   7   46.70   21.80
  -1  -9  -7  135.89   34.50
   1   9  -7  177.08   29.00
   9  -1  -7  149.79   29.80
  -1  -9  -7  161.18   28.40
   9  -1  -7  210.78   34.30
  -9   1   7  155.58   27.70
  -9   1   7  178.88   25.70
  -1  -9   7  160.68   29.50
  -2  -9  -7   24.50   23.40
   9  -2  -7    6.90   22.70
  -2  -9  -7    1.60   25.70
   2   9  -7   31.80   21.60
   9  -2  -7  -37.90   20.30
  -9   2   7   -8.70   20.40
  -2  -9   7  -28.70   22.00
  -3  -9  -7  270.27   43.30
  -3  -9  -7  252.77   38.90
   3   9  -7  265.97   38.50
   9  -3  -7  267.07   35.90
   9  -3  -7  228.48   33.10
  -9   3   7  280.37   34.80
  -9   3   7  250.17   31.90
  -3  -9   7  283.27   42.10
  -4  -9  -7   91.19   31.30
   9  -4  -7   31.90   27.60
  -4  -9  -7   56.19   23.90
   9  -4  -7   23.90   25.40
   4   9  -7   82.69   27.90
  -4  -9   7   21.20   30.20
  -4  -9   7   -8.50   30.30
  -9   4   7   59.99   20.80
  -9   4   7   46.60   27.20
  -5  -9  -7  117.19   29.90
   9  -5  -7   97.99   25.50
   5   9  -7   81.59   29.50
  -5  -9  -7  107.89   34.40
   9  -5  -7  110.89   29.80
  -5  -9   7  101.29   36.50
  -5  -9   7   73.19   30.50
  -9   5   7   92.39   23.20
  -6  -9  -7   79.29   63.29
   9  -6  -7   89.69   29.90
   6   9  -7   85.19   51.49
   9  -6  -7   19.30   27.80
  -6  -9  -7  122.99   30.60
  -9   6   7   27.10   25.50
  -6  -9   7   56.19   29.90
  -6  -9   7   -1.10   38.10
   9  -7  -7  110.39   39.30
   7   9  -7   83.19   38.30
   9  -7  -7  177.98   38.10
  -7  -9   7   -1.30   35.20
  -9   7   7   85.59   28.10
  -8  -9   7  -24.10   42.80
  -9   8   7   13.50   30.40
 -10  -7   7  -24.50   36.20
  -6  10  -7   42.90   43.00
 -10  -6   7   66.29   31.90
  10   5  -7  127.19   44.80
  -5  10  -7   95.29   31.30
   5 -10  -7  127.29   80.59
   5 -10  -7  114.09   32.70
 -10  -5   7   17.20   48.00
 -10  -5   7   61.39   29.60
   4 -10  -7   54.59   36.20
  -4  10  -7   39.20   26.70
  10   4  -7   -2.30   29.10
   4 -10  -7   80.39   33.10
 -10  -4   7    3.70   23.90
 -10  -4   7  -19.90   39.20
   3 -10  -7   73.09   36.90
   3 -10  -7   34.20   26.70
  -3  10  -7   27.00   27.20
  10   3  -7  -15.00   28.10
  -2  10  -7   37.10   24.50
   2 -10  -7  -10.10   25.40
  10   2  -7   33.90   27.10
   2 -10  -7   70.99   33.10
 -10  -2   7   50.69   27.20
   2 -10   7   -3.50   23.20
  -1  10  -7   55.09   25.20
   1 -10  -7    0.10   33.70
   1 -10  -7   -2.50   24.70
  10   1  -7   63.09   26.10
  10   1  -7   11.50   25.60
   1 -10   7   24.50   25.60
 -10  -1   7   40.70   20.70
 -10  -1   7   29.20   28.10
  10   0  -7   39.00   25.30
   0 -10  -7   84.89   34.70
   0 -10  -7   42.90   25.30
   0  10  -7   47.00   27.60
  10   0  -7    4.50   24.10
 -10   0   7   20.90   21.90
 -10   0   7    6.60   27.90
   0 -10   7   19.00   22.00
  -1 -10  -7    9.60   26.90
  10  -1  -7   13.70   24.70
  -1 -10  -7  106.09   34.50
  10  -1  -7   76.69   26.40
   1  10  -7   55.89   25.50
 -10   1   7   -6.40   21.30
  -1 -10   7   31.70   24.60
 -10   1   7   41.90   28.30
  -2 -10  -7   11.20   28.20
   2  10  -7   -8.90   24.90
  10  -2  -7  -16.40   24.80
  -2 -10  -7   32.50   24.10
  10  -2  -7  -27.20   22.80
 -10   2   7   52.59   28.50
  -2 -10   7   27.70   26.00
  -3 -10  -7  -19.90   24.10
  -3 -10  -7   53.09   36.40
   3  10  -7   29.20   29.10
  10  -3  -7  -38.40   23.30
  10  -3  -7  -11.70   24.20
 -10   3   7  -12.00   25.60
  -3 -10   7  -33.90   25.90
 -10   3   7   14.00   20.80
  -4 -10  -7    1.80   26.30
  -4 -10  -7   50.69   36.10
   4  10  -7  -14.80   31.30
  10  -4  -7   37.60   27.30
  10  -4  -7   21.10   29.10
 -10   4   7   13.60   28.90
  -4 -10   7    8.20   33.10
 -10   4   7   70.99   23.80
  -5 -10  -7  102.99   32.90
  10  -5  -7   80.49   37.00
  10  -5  -7   83.09   32.10
  -5 -10  -7  125.89   39.20
   5  10  -7  135.19   36.50
 -10   5   7   96.59   23.80
  -5 -10   7  118.99   42.00
  10  -6  -7   71.79   38.50
  -6 -10  -7  102.39   48.20
   6  10  -7   20.50   43.50
 -10   6   7   31.80   28.60
 -10   7   7  112.89   34.00
  -5  11  -7   36.00   40.30
 -11  -5   7    8.00   37.00
  -4  11  -7   24.60   36.80
   4 -11  -7   92.19   45.30
 -11  -4   7   68.79   31.90
   3 -11  -7   55.89   35.00
 -11  -3   7  135.79   43.70
 -11  -3   7   86.99   32.20
  11   2  -7    1.40   29.60
  -2  11  -7   -7.60   30.90
  11   2  -7  -24.90   32.80
   2 -11  -7   15.60   33.30
 -11  -2   7   -6.50   38.20
 -11  -2   7   10.30   27.00
  -1  11  -7  123.89   31.50
  11   1  -7  117.09   32.20
   1 -11  -7   53.29   44.30
   1 -11  -7   51.49   31.50
  11   1  -7   49.60   34.80
 -11  -1   7   56.29   26.80
 -11  -1   7   98.29   37.30
   1 -11   7   89.89   41.90
   0 -11  -7   50.39   31.60
   0  11  -7  101.19   30.60
  11   0  -7  105.59   32.70
   0 -11  -7   82.89   44.00
  11   0  -7   -2.70   29.20
 -11   0   7   81.39   34.30
   0 -11   7   57.59   33.00
 -11   0   7   51.89   26.00
  -1 -11  -7  111.99   34.80
  11  -1  -7   84.29   31.30
  11  -1  -7   91.19   34.90
  -1 -11  -7   16.90   40.80
   1  11  -7  111.19   32.80
  -1 -11   7   48.60   31.50
 -11   1   7   23.50   26.50
 -11   1   7  130.19   35.20
  -2 -11  -7   14.60   37.80
  11  -2  -7  -13.50   33.70
  11  -2  -7   15.80   28.70
  -2 -11  -7    4.90   28.90
   2  11  -7   22.30   35.10
  -2 -11   7  103.19   34.00
 -11   2   7  -26.00   29.40
 -11   2   7  -19.40   25.40
   3  11  -7  101.59   39.50
  -3 -11  -7  143.79   47.80
  -3 -11  -7   99.89   35.80
  11  -3  -7   57.29   34.10
  11  -3  -7   41.00   42.90
 -11   3   7   70.49   33.50
 -11   3   7  143.89   29.50
  -3 -11   7  122.49   38.30
  -4 -11  -7   85.39   38.50
  11  -4  -7   27.20   32.50
  -4 -11  -7  131.49   51.09
   4  11  -7  -31.50   53.59
 -11   4   7   71.99   28.40
 -11   4   7   26.80   35.50
  -5 -11  -7   -2.10   38.10
 -11   5   7   36.70   38.10
  -6 -11  -7  173.38   60.99
  -2  12  -7   68.49   77.59
  12   1  -7  115.99   60.79
  -1  12  -7   38.90   58.49
 -12  -1   7  -19.20   38.30
  12   0  -7   90.39   60.59
   0 -12  -7   44.50   43.50
   0  12  -7   76.29   43.90
 -12   0   7   -9.30   45.70
 -12   0   7   78.29   38.50
  -1 -12  -7   40.00   42.80
  12  -1  -7  -13.30   42.50
  -1 -12   7  -46.60   36.60
 -12   1   7  -20.40   51.39
 -12   1   7   20.20   40.90
  12  -2  -7  -42.00   41.30
  -2 -12  -7   -1.10   57.89
 -12   2   7  -94.29   48.20
  -2 -12   7   34.20   55.69
 -12   2   7    2.90   42.30
   0   0  -8  351.06   16.90
   0   0  -8  323.57   18.80
   0   0  -8  352.86   27.80
   0   0   8  340.67   31.40
   0   1  -8   87.59   14.50
   0   1  -8   82.79   20.30
  -1   0  -8   98.59    9.50
   0  -1  -8   97.99   12.20
  -1   0  -8  102.69   20.50
   1   0  -8  102.89   13.60
   0  -1  -8   87.69   11.60
   0  -1  -8  133.79   21.90
   1   0  -8  100.59   13.10
   1   0  -8   89.19   23.10
   0   1  -8  124.49   11.70
  -1   0  -8   94.59   15.60
  -1   0   8  114.89   21.80
   0   1   8   89.89   17.90
   0  -1   8  101.29   21.90
   1   0   8   85.39   20.30
  -1  -1  -8   -3.50   15.60
   1  -1  -8    7.50   17.40
   1   1  -8  -20.30    9.40
  -1   1  -8   14.20    7.80
  -1  -1  -8    1.90    6.00
  -1   1  -8   15.90    6.20
   1  -1  -8    3.40    9.90
  -1   1  -8   10.00   14.20
   1   1  -8    5.30    8.50
   1  -1  -8   16.50    8.40
  -1  -1   8  -14.30   17.50
   1  -1   8   -3.50   15.60
  -1   1   8   10.20   16.50
   2   1  -8  301.47   19.40
  -1   2  -8  273.57   19.00
   1  -2  -8  249.97   27.00
  -2  -1  -8  273.77   28.80
  -1   2  -8  300.37   15.50
   1  -2  -8  218.18   17.20
   2   1  -8  274.77   21.20
  -2  -1  -8  236.28   13.50
   1  -2  -8  259.47   19.50
   1  -2   8  275.47   29.50
  -2  -1   8  248.78   35.10
  -2   0  -8  280.17   11.70
   0  -2  -8  303.17   16.90
   0   2  -8  273.87   19.10
  -2   0  -8  303.77   27.80
   0  -2  -8  321.27   30.80
   0  -2  -8  307.87   18.40
   2   0  -8  312.97   21.70
  -2   0  -8  259.77   17.40
   2   0  -8  268.67   19.00
   2   0  -8  300.97   34.20
   0   2  -8  311.87   17.30
   0  -2   8  306.17   30.60
  -2   0   8  286.77   38.30
  -2   1  -8  281.77   26.50
   2  -1  -8  223.88   32.40
  -1  -2  -8  260.07   17.30
   2  -1  -8  239.78   19.90
   1   2  -8  277.67   17.60
  -2   1  -8  250.77   11.80
  -1  -2  -8  265.57   29.00
   1   2  -8  256.37   20.80
  -2   1  -8  276.07   13.70
   2  -1  -8  228.78   18.70
  -1  -2  -8  266.37   14.90
  -1  -2   8  290.27   32.00
   2  -1   8  252.17   26.90
   2   2  -8  726.53   33.00
  -2  -2  -8  730.93   23.70
  -2   2  -8  716.33   24.70
   2  -2  -8  742.63   32.20
   2   2  -8  673.33   31.10
  -2  -2  -8  707.13   24.50
  -2  -2  -8  755.82   41.10
  -2   2  -8  681.33   23.90
  -2   2   8  708.73   40.30
   2  -2   8  780.42   40.80
  -2   3  -8  322.17   21.20
  -2   3  -8  343.27   17.80
   2  -3  -8  354.96   24.60
   2  -3  -8  339.17   35.60
  -3  -2  -8  335.37   14.40
  -3  -2  -8  399.16   31.30
   3   2  -8  375.66   27.70
  -3  -2  -8  333.27   15.50
  -3  -2   8  368.96   30.90
   2  -3   8  375.96   30.70
   1  -3  -8   16.40   19.40
  -3  -1  -8    3.80    3.90
   1  -3  -8   13.10   10.60
  -1   3  -8    4.10    9.80
   3   1  -8   -7.70   11.30
  -3  -1  -8   -4.90    3.50
  -1   3  -8    8.00    8.90
  -3  -1  -8  -10.80   15.60
   1  -3  -8    1.60   10.70
   1  -3   8  -13.40   15.60
  -3  -1   8   11.20   14.30
   0  -3  -8   90.89   20.40
   0  -3  -8  143.39   15.00
   0   3  -8  129.49   15.20
  -3   0  -8  107.59    5.70
  -3   0  -8  121.39   20.40
   3   0  -8  136.89   20.40
   0   3  -8  156.18   17.20
   0  -3  -8  105.09   15.80
  -3   0  -8  110.89    5.70
   3   0  -8  156.08   37.10
  -3   0   8  115.79   23.80
   0  -3   8  137.79   24.00
  -1  -3  -8  -23.80   17.30
   1   3  -8   -6.10   11.00
  -3   1  -8  -21.90   13.00
   3  -1  -8  -32.90   17.80
  -1  -3  -8  -10.00    7.90
  -3   1  -8    6.00    3.70
  -3   1  -8   -5.00    3.30
  -1  -3  -8   -8.10    8.60
   1   3  -8   -1.50   11.40
   3  -1  -8  -13.60   11.30
  -1  -3   8    3.90   18.20
  -3   1   8   12.50   18.80
  -3   2  -8  311.87   13.90
   3  -2  -8  346.57   24.80
  -2  -3  -8  373.96   30.40
   2   3  -8  361.76   26.60
   3  -2  -8  340.77   31.40
  -2  -3  -8  334.97   17.70
  -2  -3  -8  361.06   20.50
  -3   2  -8  315.07   28.70
   3  -2   8  371.86   29.00
  -3   2   8  317.27   28.80
  -2  -3   8  345.77   35.60
   3   3  -8   16.90   14.70
   3  -3  -8   36.70   14.60
  -3  -3  -8   50.09   18.30
  -3  -3  -8   20.60   11.20
   3  -3  -8    1.00   20.50
   3  -3   8   43.20   16.40
  -3   3   8   15.70   20.50
  -3  -3   8   14.90   19.80
   3  -4  -8   95.79   19.00
  -4  -3  -8  111.69   21.50
  -3   4  -8  123.39   17.30
   3  -4  -8  120.09   27.60
  -4  -3  -8  101.29   18.80
   4   3  -8  106.79   20.60
  -4  -3   8  114.69   25.90
   3  -4   8  124.89   19.40
   4   2  -8  299.57   26.90
   2  -4  -8  322.27   31.30
   2  -4  -8  319.07   26.10
  -4  -2  -8  303.97   13.60
  -4  -2  -8  316.57   28.40
  -2   4  -8  300.47   20.90
  -4  -2   8  266.17   29.00
   2  -4   8  306.37   27.80
   4   1  -8  114.09   19.80
  -4  -1  -8  102.19   19.60
   1  -4  -8  104.29   25.10
   1  -4  -8  162.18   19.80
  -1   4  -8   97.29   15.10
  -1   4  -8  134.19   16.90
  -4  -1  -8  117.69    7.70
  -4  -1   8  102.29   20.80
   1  -4   8   99.19   20.80
   0   4  -8  390.66   22.60
   4   0  -8  327.87   37.00
   4   0  -8  305.27   27.00
   0  -4  -8  289.17   21.60
  -4   0  -8  338.47   27.40
   0  -4  -8  321.37   22.20
   0   4  -8  329.17   24.00
  -4   0   8  307.37   33.50
   0  -4   8  377.36   33.70
   4  -1  -8  115.89   23.40
   1   4  -8  109.39   17.60
  -4   1  -8   91.29    5.20
  -4   1  -8  118.19   20.30
   4  -1  -8  103.49   17.50
  -1  -4  -8  135.69   27.00
  -1  -4  -8  104.09   16.60
  -1  -4  -8  103.39   16.60
   2   4  -8  372.06   29.30
  -4   2  -8  341.97   27.00
  -4   2  -8  272.47   12.30
   4  -2  -8  285.37   35.90
   4  -2  -8  298.97   25.90
  -2  -4  -8  293.27   20.90
  -2  -4  -8  299.77   33.80
  -4   2   8  324.37   29.30
  -2  -4   8  340.37   36.10
  -3  -4  -8  112.79   24.80
  -4   3  -8   98.79   14.20
   3   4  -8  112.89   19.90
   4  -3  -8   94.99   18.50
   4  -3  -8   88.59   26.50
  -3  -4  -8  101.69   14.00
  -3  -4   8  141.59   28.00
  -4   3   8   90.19   24.00
   4   4  -8  260.57   33.40
   4  -4  -8  305.27   31.80
  -4  -4  -8  287.87   30.90
  -4  -4  -8  291.47   21.00
  -4   4  -8  288.07   21.80
   4  -4  -8  326.37   36.70
  -4  -4   8  310.87   36.80
   4  -5  -8   97.99   21.90
  -5  -4  -8  104.49   22.30
  -4   5  -8   82.69   16.20
   4  -5  -8   75.09   26.10
  -5  -4  -8  104.09   15.60
  -5  -4   8   76.99   13.00
   4  -5   8   77.99   18.00
  -5  -4   8  155.48   27.40
  -5  -3  -8   38.10   16.00
   3  -5  -8   44.40   17.20
  -3   5  -8   18.50   12.50
   3  -5  -8    6.80   23.30
   5   3  -8    9.90   18.20
  -5  -3  -8   25.20   18.20
  -5  -3   8   -7.80    9.50
  -5  -3   8   67.49   25.20
   3  -5   8   15.70   16.30
   2  -5  -8   42.10   15.90
   5   2  -8   63.59   19.60
  -5  -2  -8   66.29   18.10
  -2   5  -8   58.99   14.60
   2  -5  -8   47.30   23.90
  -5  -2   8   38.20   10.20
   2  -5   8   65.69   17.70
  -5  -2   8   37.20   23.40
   1  -5  -8   -0.80   13.70
  -5  -1  -8   -0.10   14.00
   1  -5  -8   16.60   22.70
   5   1  -8   18.30   16.40
  -1   5  -8    7.40   12.80
  -5  -1   8    8.10   12.30
  -5  -1   8   44.30   21.30
   1  -5   8   19.30   16.10
   5   0  -8  127.39   21.10
   0  -5  -8  138.19   27.90
  -5   0  -8  131.09   20.90
   0   5  -8   92.49   17.10
   0  -5  -8  121.79   17.80
   5   0  -8  150.18   30.40
  -5   0   8  111.89   16.20
  -5   0   8  132.89   26.10
  -5   1  -8   -2.60   13.50
  -1  -5  -8   18.40   13.40
   5  -1  -8  -32.00   19.60
   5  -1  -8   20.20   17.40
   1   5  -8  -15.40   14.10
  -1  -5  -8   12.60   17.70
  -1  -5   8   26.50   20.30
  -5   1   8   15.50    9.20
  -5   1   8   28.30   20.70
  -2  -5  -8   48.20   14.00
   2   5  -8   24.80   16.20
   5  -2  -8   18.80   25.30
  -2  -5  -8   66.79   28.60
  -5   2  -8   41.40   15.50
   5  -2  -8   67.89   19.20
  -5   2   8   86.89   21.20
  -5   2   8   43.10   10.30
  -2  -5   8   71.19   22.70
   5  -3  -8    1.40   22.20
  -5   3  -8   42.30   18.20
   5  -3  -8   45.80   19.30
  -3  -5  -8   49.50   26.80
   3   5  -8   46.50   17.90
  -3  -5  -8   36.90   13.10
  -3  -5   8   25.30   20.80
  -5   3   8   79.99   23.20
  -5   3   8   17.70    9.90
  -4  -5  -8   90.19   15.80
   4   5  -8  105.89   25.30
   5  -4  -8  118.99   27.30
  -4  -5  -8  112.29   26.60
  -4  -5   8  128.29   28.80
  -5  -5  -8   31.10   24.00
   5  -5  -8   42.30   25.50
  -5  -5  -8   26.80   16.10
   5   5  -8   29.90   21.30
   5  -5  -8   28.90   20.70
  -5  -5   8   45.60   26.10
   5  -6  -8  108.29   25.20
   6   5  -8   86.99   26.50
  -6  -5  -8   70.09   26.30
   5  -6  -8   99.09   31.30
  -6  -5   8  112.29   33.20
  -6  -5   8   93.79   30.70
   4  -6  -8  278.57   40.30
   4  -6  -8  213.98   33.90
   6   4  -8  243.58   35.60
  -6  -4  -8  265.97   32.80
  -4   6  -8  263.77   28.00
   4  -6   8  296.07   27.70
  -6  -4   8  282.37   42.00
   3  -6  -8   42.20   23.40
  -3   6  -8   69.99   17.60
   3  -6  -8   81.29   27.00
  -6  -3  -8   72.09   22.00
   6   3  -8   62.69   21.70
  -6  -3   8   49.99   15.40
   3  -6   8  114.29   18.20
  -6  -3   8   51.49   26.90
  -2   6  -8  196.08   25.60
  -6  -2  -8  242.68   26.90
   6   2  -8  217.78   42.00
   2  -6  -8  241.28   36.60
   2  -6  -8  242.68   27.80
   2  -6   8  198.38   26.60
  -6  -2   8  159.38   20.40
  -6  -2   8  254.87   31.00
  -1   6  -8  160.58   24.60
  -6  -1  -8  150.28   22.90
   1  -6  -8  175.68   31.20
   1  -6  -8  192.68   27.50
   1  -6   8  131.29   27.80
  -6  -1   8  173.88   30.30
   0   6  -8  355.96   31.20
   6   0  -8  391.66   39.20
   0  -6  -8  401.56   39.50
  -6   0  -8  355.16   26.10
   0  -6  -8  384.16   28.70
   6   0  -8  364.36   34.30
   0  -6   8  368.56   35.20
  -6   0   8  352.16   31.30
  -1  -6  -8  181.68   34.20
   6  -1  -8  152.18   31.70
  -1  -6  -8  149.79   23.90
  -6   1  -8  147.29   20.90
   1   6  -8  140.19   22.30
  -6   1   8  117.79   18.30
  -6   1   8  125.59   26.10
  -1  -6   8  163.08   28.50
  -2  -6  -8  203.78   26.50
  -2  -6  -8  223.38   34.20
   6  -2  -8  178.88   31.20
   2   6  -8  190.38   26.90
  -6   2  -8  145.49   21.00
   6  -2  -8  186.98   28.40
  -6   2   8  262.37   33.20
  -6   2   8  189.68   20.10
  -2  -6   8  248.38   33.70
   6  -3  -8   64.49   26.30
  -6   3  -8   83.49   16.50
  -3  -6  -8  110.79   18.90
   6  -3  -8   74.49   20.80
   3   6  -8   98.99   24.80
  -3  -6  -8   45.00   23.90
  -6   3   8   63.89   23.00
  -3  -6   8   68.19   25.60
  -6   3   8   69.19   14.20
   6  -4  -8  266.67   35.80
  -4  -6  -8  259.37   27.70
  -4  -6  -8  268.67   35.60
   4   6  -8  254.17   34.80
  -6   4  -8  305.17   32.30
   6  -4  -8  257.57   38.20
  -6   4   8  301.77   35.10
  -6   4   8  228.38   25.20
  -4  -6   8  282.57   39.50
   5   6  -8   91.19   24.90
   6  -5  -8  114.59   30.20
   6  -5  -8  109.69   24.90
  -5  -6  -8  155.48   30.90
  -6   5   8   90.09   20.10
  -5  -6   8  148.89   33.40
   6  -6  -8  210.58   31.10
   6  -6  -8  209.08   37.40
  -6  -6  -8  195.98   36.10
   6   6  -8  252.37   36.30
  -6  -6   8  217.58   41.90
   6  -7  -8   25.60   26.40
   6  -7  -8   33.30   29.50
   7   6  -8  -28.80   29.90
  -7  -6   8   -5.60   34.30
   5  -7  -8  -11.80   23.90
   5  -7  -8   63.59   29.00
   7   5  -8   33.90   26.80
  -7  -5   8   22.10   32.20
  -7  -5   8  -30.50   25.80
   4  -7  -8  103.19   26.50
   7   4  -8  130.59   28.40
  -4   7  -8   91.09   21.60
   4  -7  -8   86.99   25.70
  -7  -4   8  116.19   21.90
  -7  -4   8   94.89   32.00
   4  -7   8  101.19   20.40
   3  -7  -8   -4.80   20.90
   3  -7  -8  -21.90   25.90
  -3   7  -8   -8.10   17.80
   7   3  -8   16.90   20.50
  -7  -3   8   -9.60   17.20
   3  -7   8   -6.80   17.20
  -7  -3   8   11.90   20.90
   7   2  -8  108.19   24.60
  -2   7  -8   82.99   21.20
   2  -7  -8  116.09   25.50
   2  -7   8  112.69   22.60
  -7  -2   8   70.79   27.40
   7   1  -8  -34.20   24.00
   7   1  -8  -16.40   19.40
   1  -7  -8   16.50   20.20
   1  -7  -8  -17.50   21.90
  -1   7  -8  -19.50   17.00
  -7  -1   8   -2.30   14.90
  -7  -1   8   18.90   23.60
   1  -7   8  -12.30   17.30
   0   7  -8  171.78   24.90
   7   0  -8  137.69   26.70
   0  -7  -8  177.08   28.20
   7   0  -8  146.59   32.00
   0  -7  -8  166.58   31.50
  -7   0   8  170.18   29.60
  -7   0   8  109.49   17.90
   0  -7   8  163.08   25.90
  -1  -7  -8  -23.40   22.30
   7  -1  -8  -19.60   18.90
   7  -1  -8  -36.50   17.90
   1   7  -8    9.30   20.40
  -1  -7  -8    6.80   16.70
  -7   1   8    5.80   14.80
  -1  -7   8    6.00   19.40
  -7   1   8   22.40   20.00
   7  -2  -8   90.59   23.70
   7  -2  -8  109.89   29.80
  -2  -7  -8  114.99   22.40
  -2  -7  -8  123.49   29.20
  -7   2   8  106.99   18.10
  -2  -7   8   87.49   26.20
  -7   2   8  107.09   25.50
   7  -3  -8    7.80   18.60
  -3  -7  -8  -31.20   23.60
   3   7  -8    7.50   21.20
   7  -3  -8    0.10   20.00
  -3  -7  -8  -10.00   18.00
  -7   3   8  -37.00   21.20
  -3  -7   8  -35.60   22.30
  -7   3   8   34.70   16.80
   4   7  -8  145.49   29.00
  -4  -7  -8  105.29   22.80
  -4  -7  -8  126.49   29.70
   7  -4  -8   86.39   24.80
   7  -4  -8   94.69   30.30
  -4  -7   8   87.39   29.80
  -7   4   8   95.19   26.20
  -7   4   8   75.19   19.10
   7  -5  -8   14.60   24.90
   5   7  -8   -0.50   24.00
   7  -5  -8   -1.10   20.50
  -5  -7  -8   -2.00   26.40
  -5  -7   8  -25.40   29.70
  -7   5   8   16.00   22.20
   6   7  -8   78.09   31.50
  -6  -7  -8   66.39   35.10
   7  -6  -8   20.80   26.80
   7  -6  -8   20.70   30.50
  -6  -7   8   24.60   34.20
   7  -7  -8  -51.69   25.10
   7   7  -8    7.80   30.90
   7  -7  -8  -38.10   34.90
  -7  -7   8  -53.29   50.49
   7  -8  -8  -66.69   40.50
   6  -8  -8   97.79   54.09
   6  -8  -8   65.89   36.10
   8   6  -8   89.79   35.60
   5  -8  -8    4.80   28.60
   5  -8  -8   79.09   32.70
   8   5  -8   16.00   29.70
  -8  -5   8   74.49   36.80
   4  -8  -8  243.58   41.80
  -4   8  -8  152.68   46.70
   8   4  -8  166.38   33.20
   4  -8  -8  171.68   30.60
  -8  -4   8  180.88   37.70
  -8  -4   8  126.19   44.90
   3  -8  -8   30.00   28.00
   8   3  -8   58.09   26.90
   3  -8  -8   71.09   25.30
  -3   8  -8   23.60   23.60
   3  -8   8   82.69   22.20
  -8  -3   8    9.80   27.10
  -8  -3   8   50.19   31.90
  -2   8  -8  241.58   36.60
   8   2  -8  328.67   40.20
   2  -8  -8  237.38   33.30
   2  -8  -8  335.57   44.00
  -8  -2   8  169.98   28.70
  -8  -2   8  220.48   36.40
   2  -8   8  180.68   34.40
   1  -8  -8  123.79   34.40
   1  -8  -8   93.99   24.20
   8   1  -8   56.39   25.90
  -1   8  -8  108.99   30.00
   8   1  -8   36.30   25.30
  -8  -1   8   50.19   27.90
   1  -8   8   54.09   25.70
  -8  -1   8   31.00   20.50
   8   0  -8  198.88   37.20
   8   0  -8  239.18   39.30
   0  -8  -8  291.17   37.70
   0  -8  -8  302.37   41.90
  -8   0   8  224.78   34.20
   0  -8   8  295.47   34.30
  -8   0   8  188.68   26.20
   8  -1  -8   58.39   28.40
   8  -1  -8   75.29   24.60
  -1  -8  -8  124.19   32.60
   1   8  -8   49.80   22.80
  -1  -8   8   90.39   24.90
  -8   1   8   61.89   20.70
  -8   1   8   76.69   26.60
   2   8  -8  283.37   53.69
   8  -2  -8  207.68   32.00
  -2  -8  -8  280.17   42.70
  -2  -8  -8  271.77   41.30
   8  -2  -8  223.98   31.80
  -8   2   8  229.28   34.40
  -2  -8   8  197.48   33.10
  -8   2   8  280.77   36.10
   8  -3  -8  101.39   28.30
   3   8  -8   30.40   24.70
   8  -3  -8   84.89   29.00
  -3  -8  -8  125.19   37.50
  -3  -8  -8  126.49   32.40
  -3  -8   8   84.79   29.90
  -8   3   8  105.29   28.70
  -4  -8  -8  190.68   36.50
   8  -4  -8  214.18   34.00
   8  -4  -8  147.69   29.60
   4   8  -8  208.58   35.00
  -8   4   8  249.08   33.60
  -8   4   8  184.18   33.20
  -4  -8   8  182.38   38.80
   5   8  -8   29.60   30.50
   8  -5  -8   88.09   32.10
  -5  -8  -8   59.29   34.40
   8  -5  -8   47.10   28.70
  -8   5   8   77.59   31.80
  -5  -8   8   32.50   28.50
  -6  -8  -8  108.79   39.30
   6   8  -8   66.19   33.70
   8  -6  -8  158.08   35.60
   8  -6  -8  155.08   36.30
  -6  -8   8   88.29   54.49
   7   8  -8   46.70   40.10
   5  -9  -8   22.80   32.30
   9   5  -8   11.90   35.60
   4  -9  -8   56.49   36.90
   9   4  -8   44.90   32.90
   4  -9  -8   50.69   30.50
  -9  -4   8   52.89   39.00
  -9  -4   8    7.70   46.40
  -3   9  -8   16.40   28.40
   9   3  -8   37.40   45.60
   3  -9  -8   16.90   35.40
   3  -9  -8  -33.30   24.90
  -9  -3   8   38.70   26.70
  -9  -3   8    9.70   34.40
  -2   9  -8   22.80   24.00
   2  -9  -8   37.60   26.40
   2  -9  -8   55.79   32.70
   9   2  -8    9.60   26.80
   2  -9   8  -10.10   24.00
  -9  -2   8  -21.90   29.80
  -9  -2   8  -45.20   24.50
   9   1  -8   -5.50   27.00
   1  -9  -8   59.09   35.90
  -1   9  -8   25.40   25.90
   1  -9  -8  -23.10   24.10
  -9  -1   8  -33.80   22.60
  -9  -1   8  -14.00   29.30
   1  -9   8   -5.90   23.30
   0  -9  -8  104.79   37.60
   0   9  -8  105.59   25.50
   0  -9  -8   59.39   25.20
   9   0  -8  106.79   29.80
   9   0  -8   80.09   29.60
  -9   0   8   57.29   25.60
   0  -9   8   46.80   25.60
  -9   0   8   60.39   30.90
  -1  -9  -8    1.70   31.80
   9  -1  -8  -27.80   27.90
   9  -1  -8   23.70   26.90
   1   9  -8   23.60   25.70
  -1  -9  -8   37.20   25.80
  -9   1   8  -29.60   22.10
  -9   1   8   21.60   27.50
  -1  -9   8   -0.90   24.80
  -2  -9  -8   21.80   36.20
   9  -2  -8   13.10   27.30
  -2  -9  -8  -20.60   27.00
   2   9  -8   25.20   26.50
   9  -2  -8    6.60   28.60
  -9   2   8   36.00   29.60
  -2  -9   8   44.80   29.10
  -9   2   8   30.80   23.40
  -3  -9  -8   34.20   27.10
   3   9  -8  -37.60   28.60
   9  -3  -8  -37.50   38.10
  -3  -9  -8   33.40   34.60
   9  -3  -8   14.80   28.40
  -9   3   8   34.20   24.60
  -9   3   8   32.60   28.90
  -3  -9   8  -26.40   30.90
  -4  -9  -8  -30.60   41.70
   4   9  -8   70.69   30.90
   9  -4  -8   55.29   32.90
   9  -4  -8   86.49   31.20
  -4  -9  -8  102.59   38.20
  -9   4   8   25.80   29.40
  -4  -9   8   90.19   36.40
  -9   4   8   79.99   28.60
   9  -5  -8    0.20   33.80
  -5  -9  -8   91.59   42.30
   9  -5  -8  -33.70   37.60
   5   9  -8   37.60   35.10
  -6  -9  -8   78.69   49.60
   4 -10  -8  108.79   47.50
  -3  10  -8   59.59   49.60
   3 -10  -8    6.00   57.99
  10   3  -8   48.00   45.20
 -10  -3   8   68.09   40.30
  10   2  -8   22.60   34.40
  10   2  -8   17.90   38.10
  -2  10  -8  124.59   34.10
   2 -10  -8  139.19   34.00
 -10  -2   8   40.80   42.50
 -10  -2   8   77.89   31.90
  -1  10  -8   -6.70   28.60
   1 -10  -8    5.20   29.90
  10   1  -8   -6.50   32.80
   1 -10  -8   66.99   50.19
  10   1  -8   18.80   31.30
 -10  -1   8   -0.90   28.30
 -10  -1   8   -0.20   35.50
   1 -10   8   50.69   35.50
  10   0  -8  180.08   38.00
   0 -10  -8  287.37   45.50
  10   0  -8  209.98   39.90
   0 -10  -8  177.28   48.00
 -10   0   8  192.98   51.39
   0 -10   8  197.38   35.70
 -10   0   8  165.98   31.30
   1  10  -8  107.89   34.40
  -1 -10  -8   43.90   38.40
  -1 -10  -8   12.30   32.80
  10  -1  -8   61.09   33.30
  10  -1  -8  -17.10   30.60
 -10   1   8   28.60   27.70
  -1 -10   8   -1.20   28.80
 -10   1   8   93.19   35.50
  10  -2  -8   94.99   36.20
  10  -2  -8   97.19   34.40
  -2 -10  -8  123.49   44.80
   2  10  -8   38.30   31.50
  -2 -10  -8  106.99   34.30
  -2 -10   8   71.49   35.60
 -10   2   8   23.00   48.50
 -10   2   8   12.50   30.60
  -3 -10  -8   40.10   45.70
   3  10  -8   43.80   33.30
  10  -3  -8  -74.79   40.20
  10  -3  -8  -17.70   38.00
  -3 -10  -8    0.20   35.20
  -3 -10   8    5.10   37.20
 -10   3   8   25.90   31.60
 -10   3   8  -76.79   62.19
   4  10  -8  208.58   45.30
  -4 -10  -8  179.18   51.79
 -10   4   8  113.69   41.20
  -2  11  -8  -34.10   41.10
   1 -11  -8   77.99   47.70
  -1  11  -8   -8.70   39.70
 -11  -1   8  -56.29   36.10
   0 -11  -8   41.70   45.20
 -11   0   8   12.30   34.00
  -1 -11  -8   -1.90   41.80
   1  11  -8   72.19   42.20
 -11   1   8  -20.00   34.60
  -1 -11   8   55.09   41.20
  -2 -11  -8  -13.00   39.80
 -11   2   8   12.80   51.69
   0   0  -9 1287.77   42.30
   0   0  -9 1357.66   59.99
   0   0   9 1388.26   59.59
   0  -1  -9   74.79   13.00
  -1   0  -9   94.19   12.80
   0  -1  -9   78.19   24.30
   1   0  -9  103.69   15.40
   0   1  -9  121.99   26.10
   0   1  -9   91.19   13.30
   1   0  -9  125.89   26.20
  -1   0   9  132.69   24.40
   0  -1   9   96.29   23.20
   1   0   9   86.49   19.30
   1   1  -9  316.97   35.30
  -1   1  -9  261.67   19.40
   1  -1  -9  233.38   21.70
  -1  -1  -9  227.78   18.60
   1  -1  -9  275.37   35.60
   1   1  -9  238.08   22.00
  -1  -1  -9  266.17   39.30
   1  -1   9  318.17   33.30
  -1   1   9  220.18   35.60
  -1  -1   9  302.87   34.00
   1  -2  -9  123.79   27.50
  -1   2  -9  105.89   32.60
  -1   2  -9  131.49   18.20
   1  -2  -9  106.69   24.60
  -2  -1  -9  132.99   27.60
   2   1  -9  109.89   20.30
   2   1  -9  125.89   27.80
  -2  -1   9  130.89   25.60
   1  -2   9  127.49   24.40
   2   0  -9 1134.89   44.30
  -2   0  -9 1151.28   53.39
   2   0  -9 1123.39   57.29
   0  -2  -9 1157.28   39.40
   0   2  -9 1128.09   46.00
   0  -2  -9 1078.79   54.59
   0  -2   9 1131.79   54.19
  -2   0   9 1171.58   54.69
   2  -1  -9  115.29   25.40
  -1  -2  -9  153.68   17.20
  -1  -2  -9  143.59   26.00
   2  -1  -9  142.89   28.30
   1   2  -9  130.59   25.70
  -2   1  -9  116.19   25.70
  -2   1   9  140.49   25.30
  -1  -2   9  133.39   26.50
   2  -2  -9  596.94   34.60
  -2   2  -9  581.64   40.30
   2   2  -9  593.64   33.80
   2  -2  -9  588.14   44.60
  -2   2   9  628.34   43.30
  -2  -2   9  600.34   42.50
   2  -2   9  588.54   39.70
  -3  -2  -9  252.67   33.90
   2  -3  -9  267.27   30.70
   2  -3  -9  195.98   25.00
   3   2  -9  185.18   26.90
   2  -3   9  254.67   31.30
  -3  -2   9  292.97   34.90
   3   1  -9  177.68   32.70
   3   1  -9  179.28   26.00
  -1   3  -9  186.88   21.20
  -3  -1  -9  204.48   33.00
   1  -3  -9  186.68   31.70
   1  -3  -9  175.18   22.50
  -3  -1   9  196.38   31.60
   1  -3   9  194.18   30.50
  -3   0  -9  100.59   24.50
   0  -3  -9   73.19   14.60
   0   3  -9   57.09   16.20
   3   0  -9   83.39   23.00
   0  -3  -9   86.49   28.30
   3   0  -9  101.69   18.90
   0  -3   9   55.99   23.00
  -3   0   9   98.39   21.50
  -3   1  -9  188.98   31.70
  -1  -3  -9  183.78   30.70
   3  -1  -9  174.78   32.60
   1   3  -9  172.38   24.00
   3  -1  -9  175.78   25.50
  -3   1   9  265.47   33.20
  -1  -3   9  198.58   31.10
  -2  -3  -9  231.58   31.60
  -2  -3  -9  206.78   32.20
  -3   2  -9  188.88   29.00
   3  -2  -9  171.08   28.30
   3  -2  -9  202.48   26.10
   2   3  -9  200.48   27.70
  -3   2   9  302.37   35.80
  -2  -3   9  169.28   28.70
  -3   3  -9   89.49   24.70
   3  -3  -9   94.19   28.80
  -3  -3  -9  153.78   34.50
   3   3  -9  102.39   21.00
   3  -3  -9  118.09   20.10
   3  -3   9   94.59   22.10
  -3  -3   9   90.79   27.10
   3  -4  -9   93.09   26.80
   4   3  -9   67.89   24.40
   3  -4  -9   72.59   22.10
  -4  -3  -9   90.49   30.80
   3  -4   9  105.09   23.30
  -4  -3   9   62.19   24.90
   4   2  -9  936.11   46.80
  -4  -2  -9  843.52   47.50
   2  -4  -9  853.11   41.20
   2  -4  -9  882.91   54.09
  -4  -2   9  851.61   52.49
   2  -4   9  877.61   45.40
   4   1  -9  121.89   31.80
   1  -4  -9  131.49   28.10
  -4  -1  -9  114.19   22.60
   4   1  -9   67.69   20.80
  -1   4  -9  106.69   17.50
   1  -4  -9  112.79   19.40
  -4  -1   9   92.79   26.80
   1  -4   9  125.09   24.00
   4   0  -9 1016.90   46.40
   4   0  -9  981.10   53.19
   0  -4  -9  993.60   53.99
   0   4  -9  960.50   42.60
   0  -4  -9  985.60   40.80
  -4   0  -9  973.00   45.40
   0  -4   9  936.91   49.90
  -4   0   9 1007.00   54.59
   1   4  -9   99.59   20.80
  -1  -4  -9   95.29   16.40
   4  -1  -9  139.69   31.00
  -1  -4  -9  117.19   26.40
   4  -1  -9   99.69   21.40
  -4   1  -9  100.29   21.50
  -4   1   9  145.59   27.70
  -1  -4   9  111.19   24.70
   4  -2  -9  912.91   56.19
   4  -2  -9  878.11   45.20
  -4   2  -9  908.01   45.00
   2   4  -9  839.62   44.10
  -2  -4  -9  903.51   51.39
  -4   2   9  889.11   52.29
  -2  -4   9  879.81   56.29
  -4   3  -9   97.99   22.90
   4  -3  -9  111.59   21.40
   3   4  -9   86.39   21.80
   4  -3  -9   54.89   28.60
  -3  -4  -9  116.39   28.00
  -4   3   9   70.09   25.70
  -3  -4   9   97.39   26.60
  -4  -4  -9  664.13   44.60
   4  -4  -9  654.13   52.09
   4  -4  -9  774.82   53.99
  -4  -4   9  759.32   53.49
   5   4  -9   67.59   50.89
  -5  -4  -9  100.49   35.50
   4  -5  -9   97.09   23.50
   4  -5  -9  122.49   32.80
  -5  -4   9   65.49   30.30
  -5  -3  -9  208.68   36.60
   5   3  -9  222.78   36.20
   3  -5  -9  209.68   35.00
  -5  -3   9  198.58   34.90
   3  -5   9  201.58   31.30
   2  -5  -9    0.60   18.30
   2  -5  -9   36.60   27.80
  -5  -2  -9   26.40   21.70
   5   2  -9    7.60   20.30
  -5  -2   9   45.40   26.40
   2  -5   9   55.29   21.40
  -5  -1  -9  201.78   31.20
   1  -5  -9  231.68   33.70
   1  -5  -9  186.88   24.70
  -1   5  -9  172.38   27.40
   5   1  -9  154.58   31.20
  -5  -1   9  165.48   30.70
   1  -5   9  204.18   28.80
  -5   0  -9  131.09   23.40
   5   0  -9   98.89   31.00
   0  -5  -9  117.39   27.70
   0   5  -9  122.99   22.10
   0  -5  -9  115.59   20.80
  -5   0   9  160.88   31.40
  -1  -5  -9  169.48   26.30
  -5   1  -9  155.58   23.50
   5  -1  -9  145.99   36.60
  -1  -5  -9  194.18   32.30
   1   5  -9  184.78   25.60
  -5   1   9  247.28   36.60
  -1  -5   9  172.38   27.50
   2   5  -9   52.89   21.50
   5  -2  -9   -3.80   25.00
  -2  -5  -9   77.09   26.80
  -5   2  -9    5.70   19.40
   5  -2  -9   26.30   21.90
  -2  -5   9   20.50   21.50
  -5   2   9   48.80   23.80
   5  -3  -9  196.68   37.20
   5  -3  -9  203.48   31.60
  -3  -5  -9  236.58   36.10
  -5   3  -9  223.58   31.90
  -5   3   9  206.48   29.70
  -3  -5   9  211.78   33.90
  -4  -5  -9  130.69   30.20
  -5   4  -9   94.89   24.50
   5  -4  -9   86.09   32.90
   4   5  -9   93.69   25.50
  -4  -5   9   81.29   28.70
   5  -5  -9   65.09   31.50
   5  -5  -9   86.39   24.60
   5   5  -9   77.29   28.10
  -5  -5  -9  109.19   30.20
  -5  -5   9   64.69   31.00
   5  -6  -9   53.69   34.00
   6   5  -9   94.79   31.20
   5  -6  -9   17.00   26.00
  -6  -5   9  172.68   37.30
   4  -6  -9  380.16   38.90
   4  -6  -9  465.55   51.59
   6   4  -9  401.76   48.10
   4  -6   9  455.85   63.19
  -6  -4   9  528.55   52.59
   3  -6  -9   38.70   22.90
   3  -6  -9   55.49   28.90
   6   3  -9   22.20   23.40
   3  -6   9   29.40   21.00
  -6  -3   9   42.00   30.40
   6   2  -9  640.04   50.49
   2  -6  -9  699.33   52.59
  -6  -2   9  654.83   51.99
   2  -6   9  584.74   61.79
  -1   6  -9   72.69   22.90
   6   1  -9   44.90   32.50
   1  -6  -9   53.29   28.30
   1  -6  -9   42.20   21.20
   6   1  -9   71.99   26.40
   1  -6   9   73.99   20.90
  -6  -1   9   56.89   27.30
   6   0  -9  386.66   38.40
   0  -6  -9  511.55   47.30
   0  -6  -9  485.25   37.00
   0   6  -9  492.95   39.20
   6   0  -9  506.95   49.00
  -6   0   9  465.35   38.20
   0  -6   9  487.45   38.40
  -1  -6  -9   65.79   27.50
   1   6  -9   31.50   22.00
   6  -1  -9   95.09   27.50
  -1  -6  -9   78.19   20.90
   6  -1  -9   55.39   30.00
  -1  -6   9   37.60   21.50
  -6   1   9   44.30   21.80
   6  -2  -9  610.74   45.60
  -2  -6  -9  667.43   50.59
   6  -2  -9  645.24   43.80
  -2  -6   9  623.74   48.90
  -6   2   9  641.74   47.80
   3   6  -9   35.60   23.90
   6  -3  -9   44.70   31.20
  -3  -6  -9   60.09   29.00
   6  -3  -9   37.10   22.50
  -6   3   9   24.80   26.00
  -3  -6   9   41.20   26.00
  -4  -6  -9  502.05   49.00
   6  -4  -9  400.16   41.80
   6  -4  -9  520.25   48.40
   4   6  -9  454.05   46.00
  -4  -6   9  507.75   49.90
   5   6  -9   71.99   30.30
   6  -5  -9  131.89   28.80
   6  -5  -9   78.09   33.10
  -5  -6   9  172.98   38.50
   6  -6  -9  435.36   50.89
   6   6  -9  394.16   55.49
   6  -6  -9  313.87   62.69
  -6  -6   9  597.14  107.19
   7   6  -9  -12.40   36.40
   6  -7  -9   41.70   41.50
   5  -7  -9   76.69   30.90
   7   5  -9   33.40   32.40
   4  -7  -9   78.39   27.60
   4  -7  -9   37.60   34.80
   7   4  -9   47.80   30.00
  -7  -4   9   86.99   40.90
   3  -7  -9   49.70   27.60
   7   3  -9   97.79   31.80
   3  -7  -9   88.99   36.90
   3  -7   9  102.09   27.60
  -7  -3   9   40.80   34.70
   7   2  -9   94.29   28.20
   2  -7  -9   56.69   25.60
   2  -7  -9  146.29   35.00
   2  -7   9   74.19   24.10
  -7  -2   9  132.09   32.10
   1  -7  -9  117.99   25.00
   7   1  -9   49.60   31.80
   1  -7  -9  128.39   34.90
  -1   7  -9  103.29   34.40
   7   1  -9   87.79   27.10
  -7  -1   9   87.69   29.70
   1  -7   9   47.90   20.70
   7   0  -9   49.90   26.60
   7   0  -9   96.29   32.40
   0   7  -9   63.49   45.00
  -7   0   9   46.00   29.50
   0  -7   9   68.29   22.80
   1   7  -9   90.09   27.60
  -1  -7  -9   74.69   31.10
  -1  -7  -9   90.69   27.60
   7  -1  -9   57.29   30.60
   7  -1  -9   44.30   27.20
  -7   1   9   81.79   30.50
  -1  -7   9  127.29   24.80
   7  -2  -9  104.99   33.60
  -2  -7  -9  114.39   36.90
   2   7  -9   78.89   28.00
   7  -2  -9   54.79   25.90
  -7   2   9   63.49   29.30
  -2  -7   9   66.59   26.90
   3   7  -9  107.49   30.60
  -3  -7  -9   84.39   32.60
   7  -3  -9   66.49   32.90
   7  -3  -9  127.69   29.00
  -3  -7   9   81.59   29.80
  -7   3   9   41.20   29.70
   7  -4  -9   57.89   28.50
   7  -4  -9  105.59   33.00
   4   7  -9   54.99   30.10
  -4  -7  -9   61.79   34.00
  -4  -7   9  107.89   34.70
   7  -5  -9   75.39   79.49
  -5  -7  -9  141.09   39.70
   7  -5  -9  106.49   32.90
   5   7  -9   70.79   32.10
  -5  -7   9   58.49   54.39
   6   7  -9   29.00   37.30
   7  -6  -9   -7.40   35.60
   8   5  -9   -5.30   47.50
   5  -8  -9   39.20   36.80
   4  -8  -9  412.26   51.29
   8   4  -9  323.87   46.00
   3  -8  -9   89.99   29.70
   8   3  -9   46.60   36.90
   8   2  -9  338.87   53.99
   2  -8  -9  573.74   55.09
   2  -8  -9  456.85   60.49
   8   2  -9  413.36   60.29
   2  -8   9  455.75   45.40
  -8  -2   9  470.05   58.49
   1  -8  -9   86.69   51.19
   1  -8  -9   90.49   36.50
   8   1  -9   78.69   38.50
   8   1  -9   59.19   32.20
  -8  -1   9   36.40   34.10
   1  -8   9    3.10   26.50
   0  -8  -9  387.56   45.10
   0  -8  -9  502.25   60.49
   8   0  -9  473.15   50.39
   0   8  -9  411.96   49.10
   8   0  -9  379.06   53.89
   0  -8   9  392.06   45.60
   8  -1  -9    8.20   33.80
  -1  -8  -9  177.28   40.10
   8  -1  -9   67.99   30.60
   1   8  -9   60.09   29.20
  -1  -8  -9  108.49   32.10
  -8   1   9   81.09   34.10
  -1  -8   9  137.99   29.40
   8  -2  -9  379.46   57.79
  -2  -8  -9  569.24   58.09
   2   8  -9  318.87   50.59
   8  -2  -9  475.05   54.09
  -2  -8   9  376.06   49.10
  -8   2   9  478.85   51.19
   8  -3  -9   64.39   32.90
   8  -3  -9  112.09   47.90
   3   8  -9   94.09   33.60
  -3  -8  -9   81.79   39.60
  -8   3   9   73.59   32.10
  -3  -8   9   33.80   31.60
   4   8  -9  290.47   43.50
  -4  -8  -9  264.87   47.70
   8  -4  -9  263.07   42.30
   5   8  -9   -2.30   44.60
   8  -5  -9  126.29   65.39
  -5  -8  -9  109.59   46.00
   4  -9  -9  116.29   63.09
   3  -9  -9  166.78   42.00
   2  -9  -9   -2.70   34.70
   9   2  -9   41.10   41.00
   1  -9  -9   76.39   35.30
   9   1  -9   36.10   36.10
   1  -9   9  102.89   35.30
   9   0  -9   23.40   35.50
   0  -9  -9   51.69   37.50
   0  -9   9   82.59   32.80
   1   9  -9   59.39   37.40
   9  -1  -9   90.39   37.70
  -1  -9   9  -11.50   35.30
   2   9  -9   -9.50   34.40
   9  -2  -9  -13.80   39.10
  -2  -9   9  -10.90   40.50
   3   9  -9  140.59   40.50
  -3  -9  -9  123.99   64.69
   4   9  -9   58.99   47.80
   1 -10  -9  -13.70   48.00
   1  10  -9   94.89   76.39
   2  10  -9  433.26   82.29
   0   0 -10  253.77   37.60
   0   0  10  244.98   34.00
   0   1 -10  -39.10   20.40
   0  -1 -10  -12.20   24.60
  -1   0 -10  -13.10   24.30
   1   0 -10   24.20   27.70
   0  -1  10   22.00   20.00
  -1   0  10    3.80   23.60
   1  -1 -10   18.90   23.60
  -1  -1 -10    8.10   24.20
   1   1 -10   -9.90   24.90
  -1   1 -10  -13.00   24.10
  -1  -1  10   24.40   23.20
   1  -1  10   31.20   21.40
   2   1 -10  -14.90   24.90
  -2  -1 -10  -29.20   22.30
  -1   2 -10    6.00   24.20
   2   1 -10  -12.50   17.70
   1  -2 -10   28.60   27.00
  -2  -1  10   24.00   24.20
   1  -2  10    8.40   19.80
  -2   0 -10  274.97   43.20
   0   2 -10  306.27   40.00
   0  -2 -10  315.67   39.60
   2   0 -10  359.86   42.20
   2   0 -10  316.07   31.30
   0  -2  10  331.47   36.70
  -2   0  10  345.97   33.30
   2  -1 -10  -25.90   17.10
   1   2 -10   -6.40   25.10
   2  -1 -10   31.90   28.10
  -2   1 -10  -14.70   21.90
  -1  -2 -10    0.60   24.80
  -2   1  10   23.90   24.80
  -1  -2  10   19.70   21.10
   2   2 -10  147.69   25.50
   2   2 -10  156.48   34.30
   2  -2 -10  172.48   35.20
  -2  -2 -10  117.89   30.80
   2  -2 -10  158.28   24.00
  -2   2 -10  184.38   30.70
  -2  -2  10  147.29   30.00
   3   2 -10    5.50   22.20
  -3  -2 -10   10.90   23.70
   3   2 -10   25.90   30.90
   2  -3 -10  -36.10   18.60
   2  -3 -10    3.60   19.50
  -2   3 -10   22.30   24.60
  -3  -2  10  -11.80   25.80
   2  -3  10   23.20   21.50
   3   1 -10  -26.30   20.30
   3   1 -10  -35.20   27.30
   1  -3 -10    9.70   26.50
  -3  -1 -10    6.70   24.50
  -1   3 -10   11.10   24.80
  -3  -1  10    1.40   23.40
   1  -3  10   25.30   19.90
   3   0 -10  -54.49   27.00
  -3   0 -10    5.80   23.90
   0  -3 -10  -24.60   25.40
   3   0 -10  -27.10   18.90
  -3   0  10    8.20   17.80
   0  -3  10   17.10   21.50
  -1  -3 -10   20.40   25.80
   3  -1 -10   -8.20   21.00
   3  -1 -10  -30.60   18.50
  -3   1 -10  -16.40   23.90
  -3   1  10    0.40   23.20
  -1  -3  10   27.80   24.10
   3  -2 -10   17.70   21.00
   2   3 -10    6.80   22.40
  -3   2 -10  -10.80   23.00
   3  -2 -10   59.09   27.70
  -2  -3 -10   -5.40   24.90
  -3   2  10   16.40   25.30
  -2  -3  10    8.20   24.20
   3  -3 -10   -4.20   30.90
  -3   3 -10   -0.10   25.10
  -3  -3 -10  -27.50   26.80
   3   3 -10    6.10   25.30
  -3  -3  10  -31.10   24.50
   4   3 -10  -33.40   24.40
   3  -4 -10   -5.60   27.90
  -3   4 -10  -19.30   28.00
  -4  -3 -10   28.60   26.70
   3  -4 -10   -5.20   23.30
  -4  -3  10    4.20   26.70
  -4  -2 -10  246.98   40.70
   2  -4 -10  217.68   39.90
   2  -4 -10  204.58   31.50
   4   2 -10  211.08   31.10
   4   2 -10  178.18   39.40
  -4  -2  10  190.98   34.00
   2  -4  10  203.38   31.40
   4   1 -10   15.90   31.90
  -4  -1 -10    9.20   23.70
   1  -4 -10   21.10   26.50
   4   1 -10  -12.50   23.00
   1  -4  10   62.09   21.40
  -4  -1  10  -40.10   26.20
  -4   0 -10  185.48   32.70
   0  -4 -10  238.08   37.80
   4   0 -10  131.19   36.40
   0  -4  10  171.88   28.30
  -4   0  10  235.18   39.30
   4  -1 -10  -34.00   23.80
  -4   1 -10  -32.00   23.70
  -1  -4 -10    5.00   28.80
   4  -1 -10  -40.80   28.60
  -4   1  10   36.60   20.80
  -1  -4  10    9.30   22.90
   4  -2 -10  193.78   29.70
  -4   2 -10  219.48   33.60
   4  -2 -10  156.28   32.40
  -2  -4 -10  190.78   36.20
  -2  -4  10  191.98   33.00
  -4   2  10  211.88   36.30
   4  -3 -10   45.80   32.90
  -4   3 -10  -31.60   25.30
   3   4 -10  -23.70   25.20
  -3  -4 -10   25.10   27.70
   4  -3 -10   11.20   23.80
  -3  -4  10   35.90   27.10
  -4  -4 -10  161.58   37.20
   4   4 -10  142.89   31.80
   4  -4 -10  180.18   38.90
   4  -4 -10  125.29   28.70
  -4  -4  10  150.18   28.50
   4  -5 -10  -18.80   28.50
   5   4 -10   13.80   31.00
   4  -5 -10    7.70   44.00
   3  -5 -10   15.20   34.90
   3  -5 -10   19.10   25.90
   5   3 -10  -14.70   27.60
   3  -5  10   19.10   27.90
  -5  -3  10  -10.60   33.00
   2  -5 -10   34.00   33.00
   2  -5 -10  -18.10   29.20
   5   2 -10  -21.20   26.80
   5   2 -10  -31.90   34.50
  -5  -2  10   -1.70   26.50
   2  -5  10   -5.30   21.10
   5   1 -10  -15.00   33.10
   5   1 -10    3.00   23.70
   1  -5 -10   30.50   32.90
  -5  -1  10   27.70   30.50
   1  -5  10   49.10   22.30
   0  -5 -10   63.89   32.90
   5   0 -10  -51.29   29.50
   5   0 -10    8.90   23.70
   0  -5  10  -27.60   22.10
  -5   0  10   90.59   30.90
   5  -1 -10  -44.90   22.90
   5  -1 -10   16.10   31.60
  -1  -5 -10   -5.40   31.40
  -5   1  10   54.09   30.20
  -1  -5  10   10.30   21.60
   5  -2 -10   14.90   24.90
  -2  -5 -10    4.10   29.40
   5  -2 -10   10.10   24.80
  -5   2  10  -29.70   29.10
  -2  -5  10  -14.30   26.50
  -3  -5 -10   68.29   35.10
   3   5 -10   29.10   28.40
   5  -3 -10   81.99   37.60
   5  -3 -10   41.80   27.30
  -3  -5  10   72.99   32.50
  -4  -5 -10   89.19   37.60
   5  -4 -10  -48.00   29.00
   5  -4 -10  -46.00   67.49
  -4  -5  10   -0.80   38.40
   5  -5 -10  -28.30   30.70
   5   5 -10  -48.80   34.20
   5  -6 -10  -24.00   35.40
   6   5 -10   15.30   36.40
   6   4 -10  102.59   38.10
   4  -6 -10  101.09   34.40
   6   3 -10  -20.20   30.80
   3  -6 -10   47.20   35.60
   3  -6  10    6.10   38.20
   2  -6 -10  195.08   45.30
   6   2 -10  166.08   75.69
   6   2 -10  202.58   38.20
   2  -6  10  243.88   38.30
  -6  -2  10  224.68   56.99
   6   1 -10    0.40   31.10
   6   1 -10  -29.40   25.40
   1  -6  10   52.19   25.00
  -6  -1  10   57.19   39.10
   6   0 -10  183.68   38.70
   6   0 -10  126.59   32.90
   0  -6 -10  231.58   42.80
  -6   0  10  168.58   34.10
   0  -6  10  173.88   29.80
  -1  -6 -10   62.29   38.00
   6  -1 -10  -10.80   28.70
  -6   1  10   34.10   32.10
  -1  -6  10   85.59   27.00
   6  -2 -10  184.58   35.50
   6  -2 -10  224.48   70.49
  -6   2  10  219.48   64.09
  -2  -6  10  263.07   44.10
  -3  -6 -10   11.80   35.00
   6  -3 -10  -14.30   28.60
  -3  -6  10    6.20   35.40
   6  -4 -10  125.79   34.10
   4   6 -10  132.59   37.40
  -4  -6 -10  197.08   44.00
   5   6 -10  -79.79   36.70
   6  -5 -10   12.10   35.90
   7   4 -10  -23.30   49.30
   4  -7 -10  -69.59   34.20
   7   3 -10  -65.99   60.79
   7   2 -10  -12.20   35.00
   2  -7  10  -39.10   50.99
   1  -7  10    2.90   28.40
   0  -7 -10   20.80   66.99
   7   0 -10  -36.60   32.90
   0  -7  10    2.00   29.70
  -1  -7 -10   -8.10   43.10
   7  -1 -10  -31.90   31.50
  -1  -7  10  -22.90   31.90
  -2  -7 -10   87.19   43.30
   7  -2 -10   32.40   34.60
  -2  -7  10   -2.50   42.80
   7  -3 -10   13.00   35.00
  -3  -7 -10   37.30   43.30
   4   7 -10   17.80   44.80
   7  -4 -10    1.90   52.79
  -4  -7 -10   94.19   48.20
   5   7 -10   11.40   80.49
   0  -8  10   97.39   38.40
   0   0 -11  -17.90   31.50
  -1   0 -11  -13.30   30.30
   0  -1 -11    1.90   32.90
   0   1 -11  -70.49   40.60
   1   0 -11   10.90   34.70
  -1   0  11   37.80   23.10
   0  -1  11    6.80   25.70
  -1  -1 -11  255.67   42.50
   1  -1 -11  249.58   44.50
  -1   1 -11  290.87   44.20
   1   1 -11  290.97   64.39
  -1  -1  11  342.37   46.10
  -1   2 -11   44.10   35.40
   1  -2 -11  -26.00   33.60
   2   1 -11  -45.10   34.60
  -2  -1 -11   12.80   33.20
  -2  -1  11  -64.99   31.30
   0  -2 -11   45.00   36.80
   2   0 -11   96.89   37.60
  -2   0 -11   87.89   33.30
   0   2 -11   51.99   44.20
   0  -2  11   92.69   30.70
  -2   0  11  133.49   38.00
   1   2 -11  -54.59   39.50
  -1  -2 -11  -13.90   33.00
   2  -1 -11   -4.80   33.70
  -2   1 -11   22.80   31.60
  -1  -2  11  -48.80   24.40
  -2  -2 -11   20.90   35.20
   2  -2 -11   -7.20   35.40
   2   2 -11   63.19   38.40
  -2   2 -11   17.50   31.70
  -2  -2  11   57.59   37.00
  -3  -2 -11   67.79   38.70
  -2   3 -11  -71.09   33.60
   3   1 -11  293.97   61.99
  -1   3 -11  230.78   44.00
   1  -3 -11  229.68   44.80
  -3  -1 -11  272.37   47.00
   1  -3  11  307.47   41.80
   0  -3 -11  -40.80   49.20
   0   3 -11  -13.10   36.20
   3   0 -11   -4.70   43.80
  -3   0 -11   35.20   31.80
   0  -3  11   78.29   27.20
  -3   1 -11  260.27   43.20
  -1  -3 -11  346.77   57.89
   1   3 -11  345.97   57.49
   3  -1 -11  319.17   63.09
  -1  -3  11  282.67   46.80
  -2  -3 -11  -14.90   35.60
   2   3 -11   -2.10   44.80
  -3   2 -11   -4.80   35.60
  -3  -3 -11  267.17   47.80
  -2   4 -11   16.10   38.30
   2  -4  11   54.49   30.50
  -1   4 -11  -41.20   38.20
   1  -4  11   58.09   29.60
   0   4 -11    0.60   39.40
   0  -4 -11    9.90   44.00
   0  -4  11   58.69   32.80
  -1  -4 -11   34.50   39.60
  -1  -4  11  -35.20   44.30
  -2  -4 -11   -9.20   56.99
  -3  -4 -11   60.99   42.20
  -2   5 -11   26.40   42.20
   1  -5  11   91.19   34.90
  -3  -5 -11  262.97   56.79
   0   0   0    0.00    0.00


_computing_structure_solution     'SHELXT 2018/2 (Sheldrick, 2018)'
_computing_structure_solution     'SHELXT 2018/2 (Sheldrick, 2018)'
;
_shelx_hkl_checksum              37022
loop_
_space_group_symop_operation_xyz
'x, y, z'
'-x+1/2, -y+1/2, z'
'-y+1/2, x, z'
'y, -x+1/2, z'
'-x, y+1/2, -z'
'x+1/2, -y, -z'
'y+1/2, x+1/2, -z'
'-y, -x, -z'
'-x, -y, -z'
'x-1/2, y-1/2, -z'
'y-1/2, -x, -z'
'-y, x-1/2, -z'
'x, -y-1/2, z'
'-x-1/2, y, z'
'-y-1/2, -x-1/2, z'
'y, x, z'
loop_
_atom_site_label
_atom_site_type_symbol
_atom_site_fract_x
_atom_site_fract_y
_atom_site_fract_z
_atom_site_U_iso_or_equiv
_atom_site_adp_type
_atom_site_occupancy
_atom_site_site_symmetry_order
_atom_site_calc_flag
_atom_site_refinement_flags_posn
_atom_site_refinement_flags_adp
_atom_site_refinement_flags_occupancy
_atom_site_disorder_assembly
_atom_site_disorder_group
Br1 Br 0.750000 0.750000 0.71586(4) 0.01705(10) Uani 1 8 d S T P . .
Br2 Br 0.250000 0.750000 0.500000 0.01655(10) Uani 1 8 d S T P . .
Cu1 Cu 0.750000 0.750000 0.37912(5) 0.00980(10) Uani 1 8 d S T P . .
N1 N 0.5544(2) 0.8030(2) 0.3002(2) 0.0143(4) Uani 0.5 1 d . . P . .
H1 H 0.494972 0.797652 0.390992 0.017 Uiso 0.5 1 d R U P . .
C1 C 0.5176(3) 0.6997(3) 0.1625(3) 0.0177(6) Uani 0.5 1 d . . P . .
H1A H 0.570684 0.717001 0.056458 0.021 Uiso 0.5 1 d R U P . .
H1B H 0.420124 0.706091 0.133918 0.021 Uiso 0.5 1 d R U P . .
C2 C 0.55335(14) 0.55335(14) 0.2384(2) 0.0187(4) Uani 1 2 d S T P . .
H2A H 0.542047 0.492130 0.147709 0.022 Uiso 0.5 1 d R U P . .
H2B H 0.491507 0.539940 0.334959 0.022 Uiso 0.5 1 d R U P . .
loop_
_atom_site_aniso_label
_atom_site_aniso_U_11
_atom_site_aniso_U_22
_atom_site_aniso_U_33
_atom_site_aniso_U_23
_atom_site_aniso_U_13
_atom_site_aniso_U_12
Br1 0.02282(14) 0.02282(14) 0.00551(16) 0.000 0.000 0.000
Br2 0.01129(12) 0.01129(12) 0.0271(2) 0.000 0.000 0.000
Cu1 0.01172(14) 0.01172(14) 0.00596(19) 0.000 0.000 0.000
N1 0.0144(11) 0.0203(11) 0.0082(9) -0.0002(7) -0.0006(7) 0.0001(8)
C1 0.0163(13) 0.0239(14) 0.0129(10) -0.0020(9) -0.0031(9) -0.0004(10)
C2 0.0214(6) 0.0214(6) 0.0134(8) -0.0018(5) -0.0018(5) -0.0064(8)
loop_
_atom_type_symbol
_atom_type_description
_atom_type_scat_dispersion_real
_atom_type_scat_dispersion_imag
_atom_type_scat_source
C C 0.0033 0.0016 'International Tables Vol C Tables 4.2.6.8 and 6.1.1.4'
H H 0.0000 0.0000 'International Tables Vol C Tables 4.2.6.8 and 6.1.1.4'
Br Br -0.2901 2.4595 'International Tables Vol C Tables 4.2.6.8 and 6.1.1.4'
Cu Cu 0.3201 1.2651 'International Tables Vol C Tables 4.2.6.8 and 6.1.1.4'
N N 0.0061 0.0033 'International Tables Vol C Tables 4.2.6.8 and 6.1.1.4'
loop_
_geom_angle_atom_site_label_1
_geom_angle_atom_site_label_2
_geom_angle_atom_site_label_3
_geom_angle
_geom_angle_site_symmetry_1
_geom_angle_site_symmetry_3
_geom_angle_publ_flag
N1 Cu1 N1 85.10(3) 13_575 16 ?
N1 Cu1 N1 146.03(11) 13_575 14_755 ?
N1 Cu1 N1 85.10(3) 16 14_755 ?
N1 Cu1 N1 112.11(11) 13_575 4_565 ?
N1 Cu1 N1 134.76(11) 16 4_565 ?
N1 Cu1 N1 56.83(12) 14_755 4_565 ?
N1 Cu1 N1 134.76(11) 13_575 2_665 ?
N1 Cu1 N1 56.83(12) 16 2_665 ?
N1 Cu1 N1 28.97(11) 14_755 2_665 ?
N1 Cu1 N1 85.10(3) 4_565 2_665 ?
N1 Cu1 N1 85.10(3) 13_575 15_775 ?
N1 Cu1 N1 146.03(11) 16 15_775 ?
N1 Cu1 N1 85.10(3) 14_755 15_775 ?
N1 Cu1 N1 28.97(11) 4_565 15_775 ?
N1 Cu1 N1 112.11(11) 2_665 15_775 ?
N1 Cu1 N1 56.83(12) 13_575 3_655 ?
N1 Cu1 N1 28.97(11) 16 3_655 ?
N1 Cu1 N1 112.11(11) 14_755 3_655 ?
N1 Cu1 N1 146.03(11) 4_565 3_655 ?
N1 Cu1 N1 85.10(3) 2_665 3_655 ?
N1 Cu1 N1 134.76(11) 15_775 3_655 ?
N1 Cu1 N1 28.97(11) 13_575 . ?
N1 Cu1 N1 112.11(11) 16 . ?
N1 Cu1 N1 134.76(11) 14_755 . ?
N1 Cu1 N1 85.10(3) 4_565 . ?
N1 Cu1 N1 146.03(11) 2_665 . ?
N1 Cu1 N1 56.83(12) 15_775 . ?
N1 Cu1 N1 85.10(3) 3_655 . ?
N1 Cu1 Br1 106.99(5) 13_575 . ?
N1 Cu1 Br1 106.99(5) 16 . ?
N1 Cu1 Br1 106.99(5) 14_755 . ?
N1 Cu1 Br1 106.99(5) 4_565 . ?
N1 Cu1 Br1 106.99(5) 2_665 . ?
N1 Cu1 Br1 106.99(5) 15_775 . ?
N1 Cu1 Br1 106.99(5) 3_655 . ?
N1 Cu1 Br1 106.99(5) . . ?
N1 N1 C1 88.62(17) 13_575 13_575 ?
N1 N1 C2 161.35(10) 13_575 4_565 ?
C1 N1 C2 73.62(18) 13_575 4_565 ?
N1 N1 C1 47.86(12) 13_575 . ?
C1 N1 C1 40.8(2) 13_575 . ?
C2 N1 C1 114.18(17) 4_565 . ?
N1 N1 Cu1 75.51(6) 13_575 . ?
C1 N1 Cu1 124.6(2) 13_575 . ?
C2 N1 Cu1 109.66(13) 4_565 . ?
C1 N1 Cu1 104.94(15) . . ?
C1 C1 N1 91.37(17) 13_575 13_575 ?
C1 C1 N1 47.86(12) 13_575 . ?
N1 C1 N1 43.52(19) 13_575 . ?
C1 C1 C2 154.61(11) 13_575 . ?
N1 C1 C2 63.85(17) 13_575 . ?
N1 C1 C2 107.18(17) . . ?
N1 C2 N1 83.4(2) 3_655 13_575 ?
N1 C2 C1 42.53(11) 3_655 16 ?
N1 C2 C1 108.71(18) 13_575 16 ?
N1 C2 C1 108.71(18) 3_655 . ?
N1 C2 C1 42.53(11) 13_575 . ?
C1 C2 C1 105.3(2) 16 . ?
loop_
_geom_bond_atom_site_label_1
_geom_bond_atom_site_label_2
_geom_bond_distance
_geom_bond_site_symmetry_2
_geom_bond_publ_flag
Br1 Cu1 2.5313(5) . ?
Cu1 N1 2.031(2) 13_575 ?
Cu1 N1 2.031(2) 16 ?
Cu1 N1 2.031(2) 14_755 ?
Cu1 N1 2.031(2) 4_565 ?
Cu1 N1 2.031(2) 2_665 ?
Cu1 N1 2.031(2) 15_775 ?
Cu1 N1 2.031(2) 3_655 ?
Cu1 N1 2.031(2) . ?
N1 N1 1.016(4) 13_575 ?
N1 C1 1.094(3) 13_575 ?
N1 C2 1.453(2) 4_565 ?
N1 C1 1.475(3) . ?
C1 C1 0.963(5) 13_575 ?
C1 C2 1.553(3) . ?
